Nc1ccc(-c2c[nH]c(N[C@@H](Cc3ccc(NCCc4nnc[nH]4)cc3)c3ccccc3)[nH+]2)cc1
     RDKit          3D

 64 68  0  0  1  0  0  0  0  0999 V2000
  131.3248  129.4599  152.3153 N   0  0  0  0  0  0  0  0  0  0  0  0
  131.0125  130.1387  153.4957 C   0  0  0  0  0  0  0  0  0  0  0  0
  130.0218  131.1130  153.4944 C   0  0  0  0  0  0  0  0  0  0  0  0
  129.7117  131.7842  154.6583 C   0  0  0  0  0  0  0  0  0  0  0  0
  130.3932  131.4848  155.8370 C   0  0  0  0  0  0  0  0  0  0  0  0
  130.0614  132.2055  157.0905 C   0  0  0  0  0  0  0  0  0  0  0  0
  129.6091  131.6431  158.2384 C   0  0  0  0  0  0  0  0  0  0  0  0
  129.4324  132.6655  159.1405 N   0  0  0  0  0  0  0  0  0  0  0  0
  129.1169  132.5779  160.0536 H   0  0  0  0  0  0  0  0  0  0  0  0
  129.7824  133.8226  158.5160 C   0  0  0  0  0  0  0  0  0  0  0  0
  129.7478  135.0860  159.0808 N   0  0  0  0  0  0  0  0  0  0  0  0
  129.3055  135.2570  160.4669 C   0  0  1  0  0  0  0  0  0  0  0  0
  129.7036  134.4468  161.0778 H   0  0  0  0  0  0  0  0  0  0  0  0
  129.8135  136.5969  161.0028 C   0  0  0  0  0  0  0  0  0  0  0  0
  131.2575  136.4594  161.4116 C   0  0  0  0  0  0  0  0  0  0  0  0
  132.2612  136.7086  160.4935 C   0  0  0  0  0  0  0  0  0  0  0  0
  133.5854  136.5784  160.8633 C   0  0  0  0  0  0  0  0  0  0  0  0
  133.9088  136.2074  162.1624 C   0  0  0  0  0  0  0  0  0  0  0  0
  135.2472  136.0804  162.5413 N   0  0  0  0  0  0  0  0  0  0  0  0
  135.6020  135.2910  163.7234 C   0  0  0  0  0  0  0  0  0  0  0  0
  135.6041  136.1944  164.9582 C   0  0  0  0  0  0  0  0  0  0  0  0
  135.9690  135.3824  166.1741 C   0  0  0  0  0  0  0  0  0  0  0  0
  135.5047  134.2028  166.4845 N   0  0  0  0  0  0  0  0  0  0  0  0
  136.0323  133.8063  167.5882 N   0  0  0  0  0  0  0  0  0  0  0  0
  136.8573  134.7152  168.0321 C   0  0  0  0  0  0  0  0  0  0  0  0
  136.8445  135.7390  167.1449 N   0  0  0  0  0  0  0  0  0  0  0  0
  137.3566  136.5614  167.1953 H   0  0  0  0  0  0  0  0  0  0  0  0
  132.8983  135.9634  163.0837 C   0  0  0  0  0  0  0  0  0  0  0  0
  131.5760  136.0904  162.7057 C   0  0  0  0  0  0  0  0  0  0  0  0
  127.7996  135.2331  160.5202 C   0  0  0  0  0  0  0  0  0  0  0  0
  127.1555  134.7577  161.6471 C   0  0  0  0  0  0  0  0  0  0  0  0
  125.7741  134.7395  161.6976 C   0  0  0  0  0  0  0  0  0  0  0  0
  125.0371  135.1890  160.6179 C   0  0  0  0  0  0  0  0  0  0  0  0
  125.6813  135.6596  159.4891 C   0  0  0  0  0  0  0  0  0  0  0  0
  127.0626  135.6814  159.4401 C   0  0  0  0  0  0  0  0  0  0  0  0
  130.1522  133.5444  157.2896 N   0  0  0  0  0  0  0  0  0  0  0  0
  130.4463  134.1922  156.6302 H   0  0  0  0  0  0  0  0  0  0  0  0
  131.3906  130.5109  155.8348 C   0  0  0  0  0  0  0  0  0  0  0  0
  131.6930  129.8378  154.6700 C   0  0  0  0  0  0  0  0  0  0  0  0
  130.8505  129.6687  151.4958 H   0  0  0  0  0  0  0  0  0  0  0  0
  132.0166  128.7793  152.3156 H   0  0  0  0  0  0  0  0  0  0  0  0
  129.4945  131.3449  152.5810 H   0  0  0  0  0  0  0  0  0  0  0  0
  128.9414  132.5412  154.6568 H   0  0  0  0  0  0  0  0  0  0  0  0
  129.4230  130.5934  158.4108 H   0  0  0  0  0  0  0  0  0  0  0  0
  130.0165  135.8581  158.5587 H   0  0  0  0  0  0  0  0  0  0  0  0
  129.2179  136.8921  161.8667 H   0  0  0  0  0  0  0  0  0  0  0  0
  129.7268  137.3558  160.2252 H   0  0  0  0  0  0  0  0  0  0  0  0
  132.0091  137.0014  159.4850 H   0  0  0  0  0  0  0  0  0  0  0  0
  134.3687  136.7692  160.1448 H   0  0  0  0  0  0  0  0  0  0  0  0
  135.9417  136.5149  162.0219 H   0  0  0  0  0  0  0  0  0  0  0  0
  134.8731  134.4921  163.8590 H   0  0  0  0  0  0  0  0  0  0  0  0
  136.5935  134.8589  163.5876 H   0  0  0  0  0  0  0  0  0  0  0  0
  136.3330  136.9935  164.8226 H   0  0  0  0  0  0  0  0  0  0  0  0
  134.6127  136.6265  165.0939 H   0  0  0  0  0  0  0  0  0  0  0  0
  137.4444  134.6595  168.9368 H   0  0  0  0  0  0  0  0  0  0  0  0
  133.1462  135.6751  164.0946 H   0  0  0  0  0  0  0  0  0  0  0  0
  130.7898  135.9009  163.4215 H   0  0  0  0  0  0  0  0  0  0  0  0
  127.7312  134.4033  162.4892 H   0  0  0  0  0  0  0  0  0  0  0  0
  125.2707  134.3715  162.5794 H   0  0  0  0  0  0  0  0  0  0  0  0
  123.9578  135.1723  160.6564 H   0  0  0  0  0  0  0  0  0  0  0  0
  125.1055  136.0105  158.6454 H   0  0  0  0  0  0  0  0  0  0  0  0
  127.5660  136.0491  158.5582 H   0  0  0  0  0  0  0  0  0  0  0  0
  131.9229  130.2803  156.7458 H   0  0  0  0  0  0  0  0  0  0  0  0
  132.4627  129.0802  154.6688 H   0  0  0  0  0  0  0  0  0  0  0  0
  1  2  1  0
  1 40  1  0
  1 41  1  0
  2 39  2  0
  2  3  1  0
  3  4  2  0
  3 42  1  0
  4  5  1  0
  4 43  1  0
  5  6  1  0
  5 38  2  0
  6 36  1  0
  6  7  2  0
  7  8  1  0
  7 44  1  0
  8  9  1  0
  8 10  1  0
 10 11  1  0
 10 36  2  0
 11 12  1  0
 11 45  1  0
 12 13  1  1
 12 14  1  0
 12 30  1  0
 14 15  1  0
 14 46  1  0
 14 47  1  0
 15 29  1  0
 15 16  2  0
 16 17  1  0
 16 48  1  0
 17 18  2  0
 17 49  1  0
 18 19  1  0
 18 28  1  0
 19 20  1  0
 19 50  1  0
 20 21  1  0
 20 51  1  0
 20 52  1  0
 21 22  1  0
 21 53  1  0
 21 54  1  0
 22 26  1  0
 22 23  2  0
 23 24  1  0
 24 25  2  0
 25 26  1  0
 25 55  1  0
 26 27  1  0
 28 29  2  0
 28 56  1  0
 29 57  1  0
 30 35  1  0
 30 31  2  0
 31 32  1  0
 31 58  1  0
 32 33  2  0
 32 59  1  0
 33 34  1  0
 33 60  1  0
 34 35  2  0
 34 61  1  0
 35 62  1  0
 36 37  1  0
 38 39  1  0
 38 63  1  0
 39 64  1  0
M  CHG  1  36   1
M  END
>  <DOCK_score>  (1) 
-58.965595

>  <SMILES>  (1) 
Nc1ccc(-c2c[nH]c(N[C@@H](Cc3ccc(NCCc4nnc[nH]4)cc3)c3ccccc3)[nH+]2)cc1

$$$$
