CCC[NH2+]Cc1c[nH]nc1-c1ccc(N[C@H]2C[C@@H](CO)C2(C)C)o1
     RDKit          3D

 53 55  0  0  1  0  0  0  0  0999 V2000
  133.9603  139.9081  160.8145 C   0  0  0  0  0  0  0  0  0  0  0  0
  133.6895  138.6567  159.9770 C   0  0  0  0  0  0  0  0  0  0  0  0
  132.7345  137.7325  160.7351 C   0  0  0  0  0  0  0  0  0  0  0  0
  132.4745  136.5310  159.9310 N   0  0  0  0  0  0  0  0  0  0  0  0
  133.3431  136.0479  159.7575 H   0  0  0  0  0  0  0  0  0  0  0  0
  132.0568  136.7982  159.0523 H   0  0  0  0  0  0  0  0  0  0  0  0
  131.5576  135.6435  160.6590 C   0  0  0  0  0  0  0  0  0  0  0  0
  131.2908  134.4109  159.8341 C   0  0  0  0  0  0  0  0  0  0  0  0
  132.2152  133.6787  159.1764 C   0  0  0  0  0  0  0  0  0  0  0  0
  131.5788  132.6627  158.5542 N   0  0  0  0  0  0  0  0  0  0  0  0
  131.9967  131.9810  158.0052 H   0  0  0  0  0  0  0  0  0  0  0  0
  130.2111  132.7635  158.8394 N   0  0  0  0  0  0  0  0  0  0  0  0
  130.0311  133.8150  159.6141 C   0  0  0  0  0  0  0  0  0  0  0  0
  128.7388  134.2888  160.1514 C   0  0  0  0  0  0  0  0  0  0  0  0
  127.5275  133.7109  159.9369 C   0  0  0  0  0  0  0  0  0  0  0  0
  126.5779  134.4822  160.6358 C   0  0  0  0  0  0  0  0  0  0  0  0
  127.2536  135.4945  161.2345 C   0  0  0  0  0  0  0  0  0  0  0  0
  126.6914  136.4904  162.0247 N   0  0  0  0  0  0  0  0  0  0  0  0
  127.4737  137.0981  163.1038 C   0  0  1  0  0  0  0  0  0  0  0  0
  128.5140  137.2700  162.8275 H   0  0  0  0  0  0  0  0  0  0  0  0
  126.7958  138.3219  163.7425 C   0  0  0  0  0  0  0  0  0  0  0  0
  127.2965  137.7938  165.0972 C   0  0  1  0  0  0  0  0  0  0  0  0
  128.2887  138.1554  165.3671 H   0  0  0  0  0  0  0  0  0  0  0  0
  126.2793  137.9494  166.2294 C   0  0  0  0  0  0  0  0  0  0  0  0
  126.3090  139.2928  166.7154 O   0  0  0  0  0  0  0  0  0  0  0  0
  127.3030  136.3941  164.4603 C   0  0  0  0  0  0  0  0  0  0  0  0
  125.9735  135.6503  164.6017 C   0  0  0  0  0  0  0  0  0  0  0  0
  128.5079  135.5424  164.8648 C   0  0  0  0  0  0  0  0  0  0  0  0
  128.5588  135.3694  160.9397 O   0  0  0  0  0  0  0  0  0  0  0  0
  134.6407  140.5666  160.2743 H   0  0  0  0  0  0  0  0  0  0  0  0
  133.0220  140.4300  161.0020 H   0  0  0  0  0  0  0  0  0  0  0  0
  134.4114  139.6194  161.7638 H   0  0  0  0  0  0  0  0  0  0  0  0
  134.6279  138.1347  159.7896 H   0  0  0  0  0  0  0  0  0  0  0  0
  133.2385  138.9454  159.0275 H   0  0  0  0  0  0  0  0  0  0  0  0
  131.7961  138.2544  160.9226 H   0  0  0  0  0  0  0  0  0  0  0  0
  133.1856  137.4438  161.6845 H   0  0  0  0  0  0  0  0  0  0  0  0
  130.6193  136.1654  160.8466 H   0  0  0  0  0  0  0  0  0  0  0  0
  132.0088  135.3548  161.6084 H   0  0  0  0  0  0  0  0  0  0  0  0
  133.2770  133.8739  159.1491 H   0  0  0  0  0  0  0  0  0  0  0  0
  127.3310  132.8281  159.3466 H   0  0  0  0  0  0  0  0  0  0  0  0
  125.5141  134.3023  160.6844 H   0  0  0  0  0  0  0  0  0  0  0  0
  125.7824  136.7858  161.8589 H   0  0  0  0  0  0  0  0  0  0  0  0
  127.2449  139.2714  163.4510 H   0  0  0  0  0  0  0  0  0  0  0  0
  125.7101  138.3190  163.6469 H   0  0  0  0  0  0  0  0  0  0  0  0
  125.2813  137.7204  165.8552 H   0  0  0  0  0  0  0  0  0  0  0  0
  126.5296  137.2643  167.0395 H   0  0  0  0  0  0  0  0  0  0  0  0
  127.1685  139.5659  167.0648 H   0  0  0  0  0  0  0  0  0  0  0  0
  126.0356  134.6934  164.0835 H   0  0  0  0  0  0  0  0  0  0  0  0
  125.7637  135.4787  165.6575 H   0  0  0  0  0  0  0  0  0  0  0  0
  125.1740  136.2487  164.1649 H   0  0  0  0  0  0  0  0  0  0  0  0
  129.4274  136.0678  164.6064 H   0  0  0  0  0  0  0  0  0  0  0  0
  128.4817  135.3629  165.9396 H   0  0  0  0  0  0  0  0  0  0  0  0
  128.4731  134.5896  164.3365 H   0  0  0  0  0  0  0  0  0  0  0  0
  1  2  1  0
  1 30  1  0
  1 31  1  0
  1 32  1  0
  2  3  1  0
  2 33  1  0
  2 34  1  0
  3  4  1  0
  3 35  1  0
  3 36  1  0
  4  5  1  0
  4  6  1  0
  4  7  1  0
  7  8  1  0
  7 37  1  0
  7 38  1  0
  8 13  1  0
  8  9  2  0
  9 10  1  0
  9 39  1  0
 10 11  1  0
 10 12  1  0
 12 13  2  0
 13 14  1  0
 14 29  1  0
 14 15  2  0
 15 16  1  0
 15 40  1  0
 16 17  2  0
 16 41  1  0
 17 18  1  0
 17 29  1  0
 18 19  1  0
 18 42  1  0
 19 20  1  6
 19 26  1  0
 19 21  1  0
 21 22  1  0
 21 43  1  0
 21 44  1  0
 22 23  1  1
 22 24  1  0
 22 26  1  0
 24 25  1  0
 24 45  1  0
 24 46  1  0
 25 47  1  0
 26 27  1  0
 26 28  1  0
 27 48  1  0
 27 49  1  0
 27 50  1  0
 28 51  1  0
 28 52  1  0
 28 53  1  0
M  CHG  1   4   1
M  END
>  <DOCK_score>  (1) 
-41.857841

>  <SMILES>  (1) 
CCC[NH2+]Cc1c[nH]nc1-c1ccc(N[C@H]2C[C@@H](CO)C2(C)C)o1

$$$$
