[NH3+][C@@H](C(=O)Nc1cccc(O)c1)c1cccc(Oc2cccc(NCc3ccccc3)c2)c1
     RDKit          3D

 59 62  0  0  1  0  0  0  0  0999 V2000
  130.6323  134.3783  157.5032 N   0  0  0  0  0  0  0  0  0  0  0  0
  130.0227  134.5861  156.7264 H   0  0  0  0  0  0  0  0  0  0  0  0
  131.5321  134.8080  157.3488 H   0  0  0  0  0  0  0  0  0  0  0  0
  130.7462  133.3789  157.5835 H   0  0  0  0  0  0  0  0  0  0  0  0
  130.0441  134.9053  158.7419 C   0  0  1  0  0  0  0  0  0  0  0  0
  129.9212  135.9848  158.6551 H   0  0  0  0  0  0  0  0  0  0  0  0
  128.7002  134.2635  158.9724 C   0  0  0  0  0  0  0  0  0  0  0  0
  128.2744  133.4475  158.1826 O   0  0  0  0  0  0  0  0  0  0  0  0
  127.9715  134.5964  160.0562 N   0  0  0  0  0  0  0  0  0  0  0  0
  126.7238  134.0005  160.2702 C   0  0  0  0  0  0  0  0  0  0  0  0
  126.4818  132.7105  159.8147 C   0  0  0  0  0  0  0  0  0  0  0  0
  125.2500  132.1224  160.0260 C   0  0  0  0  0  0  0  0  0  0  0  0
  124.2577  132.8122  160.6965 C   0  0  0  0  0  0  0  0  0  0  0  0
  124.4919  134.1030  161.1486 C   0  0  0  0  0  0  0  0  0  0  0  0
  123.5133  134.7825  161.8024 O   0  0  0  0  0  0  0  0  0  0  0  0
  125.7266  134.6970  160.9381 C   0  0  0  0  0  0  0  0  0  0  0  0
  130.9546  134.5950  159.9020 C   0  0  0  0  0  0  0  0  0  0  0  0
  130.8004  133.4138  160.6044 C   0  0  0  0  0  0  0  0  0  0  0  0
  131.6377  133.1236  161.6656 C   0  0  0  0  0  0  0  0  0  0  0  0
  132.6234  134.0186  162.0342 C   0  0  0  0  0  0  0  0  0  0  0  0
  132.7765  135.2070  161.3347 C   0  0  0  0  0  0  0  0  0  0  0  0
  133.7455  136.0888  161.6949 O   0  0  0  0  0  0  0  0  0  0  0  0
  133.4151  137.4049  161.7682 C   0  0  0  0  0  0  0  0  0  0  0  0
  134.2589  138.3641  161.2248 C   0  0  0  0  0  0  0  0  0  0  0  0
  133.9216  139.7023  161.2934 C   0  0  0  0  0  0  0  0  0  0  0  0
  132.7495  140.0911  161.9129 C   0  0  0  0  0  0  0  0  0  0  0  0
  131.9040  139.1361  162.4638 C   0  0  0  0  0  0  0  0  0  0  0  0
  130.7188  139.5292  163.0896 N   0  0  0  0  0  0  0  0  0  0  0  0
  130.3665  140.9491  163.1656 C   0  0  0  0  0  0  0  0  0  0  0  0
  129.0509  141.1025  163.8843 C   0  0  0  0  0  0  0  0  0  0  0  0
  127.8675  141.0904  163.1698 C   0  0  0  0  0  0  0  0  0  0  0  0
  126.6605  141.2263  163.8296 C   0  0  0  0  0  0  0  0  0  0  0  0
  126.6372  141.3848  165.2027 C   0  0  0  0  0  0  0  0  0  0  0  0
  127.8208  141.4022  165.9165 C   0  0  0  0  0  0  0  0  0  0  0  0
  129.0276  141.2610  165.2573 C   0  0  0  0  0  0  0  0  0  0  0  0
  132.2385  137.7908  162.3906 C   0  0  0  0  0  0  0  0  0  0  0  0
  131.9385  135.4932  160.2663 C   0  0  0  0  0  0  0  0  0  0  0  0
  128.3121  135.2490  160.6879 H   0  0  0  0  0  0  0  0  0  0  0  0
  127.2571  132.1674  159.2947 H   0  0  0  0  0  0  0  0  0  0  0  0
  125.0636  131.1196  159.6708 H   0  0  0  0  0  0  0  0  0  0  0  0
  123.2973  132.3477  160.8648 H   0  0  0  0  0  0  0  0  0  0  0  0
  123.7699  135.6730  162.0785 H   0  0  0  0  0  0  0  0  0  0  0  0
  125.9121  135.7000  161.2929 H   0  0  0  0  0  0  0  0  0  0  0  0
  130.0274  132.7149  160.3208 H   0  0  0  0  0  0  0  0  0  0  0  0
  131.5181  132.1984  162.2097 H   0  0  0  0  0  0  0  0  0  0  0  0
  133.2741  133.7936  162.8662 H   0  0  0  0  0  0  0  0  0  0  0  0
  135.1781  138.0637  160.7438 H   0  0  0  0  0  0  0  0  0  0  0  0
  134.5779  140.4460  160.8661 H   0  0  0  0  0  0  0  0  0  0  0  0
  132.4907  141.1382  161.9694 H   0  0  0  0  0  0  0  0  0  0  0  0
  130.1290  138.8618  163.4740 H   0  0  0  0  0  0  0  0  0  0  0  0
  131.1427  141.4875  163.7096 H   0  0  0  0  0  0  0  0  0  0  0  0
  130.2800  141.3564  162.1582 H   0  0  0  0  0  0  0  0  0  0  0  0
  127.8858  140.9711  162.0967 H   0  0  0  0  0  0  0  0  0  0  0  0
  125.7357  141.2131  163.2719 H   0  0  0  0  0  0  0  0  0  0  0  0
  125.6944  141.4954  165.7177 H   0  0  0  0  0  0  0  0  0  0  0  0
  127.8028  141.5263  166.9892 H   0  0  0  0  0  0  0  0  0  0  0  0
  129.9524  141.2749  165.8149 H   0  0  0  0  0  0  0  0  0  0  0  0
  131.5828  137.0463  162.8177 H   0  0  0  0  0  0  0  0  0  0  0  0
  132.0552  136.4178  159.7204 H   0  0  0  0  0  0  0  0  0  0  0  0
  1  2  1  0
  1  3  1  0
  1  4  1  0
  1  5  1  0
  5  6  1  6
  5  7  1  0
  5 17  1  0
  7  8  2  0
  7  9  1  0
  9 10  1  0
  9 38  1  0
 10 16  1  0
 10 11  2  0
 11 12  1  0
 11 39  1  0
 12 13  2  0
 12 40  1  0
 13 14  1  0
 13 41  1  0
 14 15  1  0
 14 16  2  0
 15 42  1  0
 16 43  1  0
 17 37  1  0
 17 18  2  0
 18 19  1  0
 18 44  1  0
 19 20  2  0
 19 45  1  0
 20 21  1  0
 20 46  1  0
 21 22  1  0
 21 37  2  0
 22 23  1  0
 23 36  1  0
 23 24  2  0
 24 25  1  0
 24 47  1  0
 25 26  2  0
 25 48  1  0
 26 27  1  0
 26 49  1  0
 27 28  1  0
 27 36  2  0
 28 29  1  0
 28 50  1  0
 29 30  1  0
 29 51  1  0
 29 52  1  0
 30 35  1  0
 30 31  2  0
 31 32  1  0
 31 53  1  0
 32 33  2  0
 32 54  1  0
 33 34  1  0
 33 55  1  0
 34 35  2  0
 34 56  1  0
 35 57  1  0
 36 58  1  0
 37 59  1  0
M  CHG  1   1   1
M  END
>  <DOCK_score>  (1) 
-49.658493

>  <SMILES>  (1) 
[NH3+][C@@H](C(=O)Nc1cccc(O)c1)c1cccc(Oc2cccc(NCc3ccccc3)c2)c1

$$$$
