[NH3+][C@@H](C(=O)Nc1cccc(O)c1)c1cccc(NCCC2=CCCCC2)c1
     RDKit          3D

 55 57  0  0  1  0  0  0  0  0999 V2000
  130.6775  134.0776  157.5228 N   0  0  0  0  0  0  0  0  0  0  0  0
  130.7789  133.0824  157.6536 H   0  0  0  0  0  0  0  0  0  0  0  0
  130.0666  134.2534  156.7392 H   0  0  0  0  0  0  0  0  0  0  0  0
  131.5819  134.4870  157.3426 H   0  0  0  0  0  0  0  0  0  0  0  0
  130.1026  134.6750  158.7355 C   0  0  1  0  0  0  0  0  0  0  0  0
  129.9932  135.7502  158.5941 H   0  0  0  0  0  0  0  0  0  0  0  0
  128.7517  134.0635  159.0046 C   0  0  0  0  0  0  0  0  0  0  0  0
  128.3112  133.2138  158.2596 O   0  0  0  0  0  0  0  0  0  0  0  0
  128.0329  134.4610  160.0733 N   0  0  0  0  0  0  0  0  0  0  0  0
  126.7787  133.8934  160.3231 C   0  0  0  0  0  0  0  0  0  0  0  0
  126.5175  132.5852  159.9353 C   0  0  0  0  0  0  0  0  0  0  0  0
  125.2793  132.0250  160.1819 C   0  0  0  0  0  0  0  0  0  0  0  0
  124.2996  132.7614  160.8206 C   0  0  0  0  0  0  0  0  0  0  0  0
  124.5529  134.0705  161.2050 C   0  0  0  0  0  0  0  0  0  0  0  0
  123.5866  134.7954  161.8275 O   0  0  0  0  0  0  0  0  0  0  0  0
  125.7942  134.6364  160.9589 C   0  0  0  0  0  0  0  0  0  0  0  0
  131.0149  134.4125  159.9059 C   0  0  0  0  0  0  0  0  0  0  0  0
  130.8490  133.2706  160.6685 C   0  0  0  0  0  0  0  0  0  0  0  0
  131.6875  133.0230  161.7395 C   0  0  0  0  0  0  0  0  0  0  0  0
  132.6870  133.9217  162.0585 C   0  0  0  0  0  0  0  0  0  0  0  0
  132.8527  135.0721  161.2981 C   0  0  0  0  0  0  0  0  0  0  0  0
  133.8619  135.9831  161.6179 N   0  0  0  0  0  0  0  0  0  0  0  0
  134.4517  135.9821  162.9590 C   0  0  0  0  0  0  0  0  0  0  0  0
  135.5253  137.0688  163.0448 C   0  0  0  0  0  0  0  0  0  0  0  0
  136.1319  137.0677  164.4244 C   0  0  0  0  0  0  0  0  0  0  0  0
  137.4031  136.8471  164.5282 C   0  0  0  0  0  0  0  0  0  0  0  0
  138.1465  136.8103  165.8313 C   0  0  0  0  0  0  0  0  0  0  0  0
  137.3107  137.4621  166.9349 C   0  0  0  0  0  0  0  0  0  0  0  0
  135.8982  136.8657  166.8901 C   0  0  0  0  0  0  0  0  0  0  0  0
  135.2235  137.3164  165.5927 C   0  0  0  0  0  0  0  0  0  0  0  0
  132.0120  135.3150  160.2189 C   0  0  0  0  0  0  0  0  0  0  0  0
  128.3852  135.1406  160.6691 H   0  0  0  0  0  0  0  0  0  0  0  0
  127.2831  132.0061  159.4403 H   0  0  0  0  0  0  0  0  0  0  0  0
  125.0780  131.0079  159.8793 H   0  0  0  0  0  0  0  0  0  0  0  0
  123.3340  132.3190  161.0167 H   0  0  0  0  0  0  0  0  0  0  0  0
  123.8561  135.6954  162.0565 H   0  0  0  0  0  0  0  0  0  0  0  0
  125.9946  135.6537  161.2611 H   0  0  0  0  0  0  0  0  0  0  0  0
  130.0654  132.5687  160.4243 H   0  0  0  0  0  0  0  0  0  0  0  0
  131.5580  132.1283  162.3305 H   0  0  0  0  0  0  0  0  0  0  0  0
  133.3385  133.7302  162.8980 H   0  0  0  0  0  0  0  0  0  0  0  0
  134.1725  136.6165  160.9520 H   0  0  0  0  0  0  0  0  0  0  0  0
  133.6749  136.1797  163.6977 H   0  0  0  0  0  0  0  0  0  0  0  0
  134.9023  135.0096  163.1570 H   0  0  0  0  0  0  0  0  0  0  0  0
  136.3021  136.8712  162.3061 H   0  0  0  0  0  0  0  0  0  0  0  0
  135.0746  138.0413  162.8469 H   0  0  0  0  0  0  0  0  0  0  0  0
  137.9645  136.6830  163.6201 H   0  0  0  0  0  0  0  0  0  0  0  0
  139.0894  137.3472  165.7272 H   0  0  0  0  0  0  0  0  0  0  0  0
  138.3511  135.7733  166.0976 H   0  0  0  0  0  0  0  0  0  0  0  0
  137.2597  138.5381  166.7688 H   0  0  0  0  0  0  0  0  0  0  0  0
  137.7635  137.2593  167.9055 H   0  0  0  0  0  0  0  0  0  0  0  0
  135.3230  137.2215  167.7449 H   0  0  0  0  0  0  0  0  0  0  0  0
  135.9590  135.7776  166.9128 H   0  0  0  0  0  0  0  0  0  0  0  0
  134.9970  138.3808  165.6541 H   0  0  0  0  0  0  0  0  0  0  0  0
  134.2979  136.7573  165.4561 H   0  0  0  0  0  0  0  0  0  0  0  0
  132.1380  136.2086  159.6259 H   0  0  0  0  0  0  0  0  0  0  0  0
  1  2  1  0
  1  3  1  0
  1  4  1  0
  1  5  1  0
  5  6  1  6
  5  7  1  0
  5 17  1  0
  7  8  2  0
  7  9  1  0
  9 10  1  0
  9 32  1  0
 10 16  1  0
 10 11  2  0
 11 12  1  0
 11 33  1  0
 12 13  2  0
 12 34  1  0
 13 14  1  0
 13 35  1  0
 14 15  1  0
 14 16  2  0
 15 36  1  0
 16 37  1  0
 17 31  1  0
 17 18  2  0
 18 19  1  0
 18 38  1  0
 19 20  2  0
 19 39  1  0
 20 21  1  0
 20 40  1  0
 21 22  1  0
 21 31  2  0
 22 23  1  0
 22 41  1  0
 23 24  1  0
 23 42  1  0
 23 43  1  0
 24 25  1  0
 24 44  1  0
 24 45  1  0
 25 30  1  0
 25 26  2  0
 26 27  1  0
 26 46  1  0
 27 28  1  0
 27 47  1  0
 27 48  1  0
 28 29  1  0
 28 49  1  0
 28 50  1  0
 29 30  1  0
 29 51  1  0
 29 52  1  0
 30 53  1  0
 30 54  1  0
 31 55  1  0
M  CHG  1   1   1
M  END
>  <DOCK_score>  (1) 
-46.325886

>  <SMILES>  (1) 
[NH3+][C@@H](C(=O)Nc1cccc(O)c1)c1cccc(NCCC2=CCCCC2)c1

$$$$
