O=[N+]([O-])c1ccc(-c2c[nH]c(Nc3cccc(Nc4ccc(C5=CCC=CC5)cc4)c3)[nH+]2)cc1
     RDKit          3D

 58 62  0  0  1  0  0  0  0  0999 V2000
  131.5884  128.4658  152.4339 O   0  0  0  0  0  0  0  0  0  0  0  0
  131.3091  129.6471  152.3295 N   0  0  0  0  0  0  0  0  0  0  0  0
  131.2765  130.1702  151.2305 O   0  0  0  0  0  0  0  0  0  0  0  0
  131.0084  130.4458  153.5394 C   0  0  0  0  0  0  0  0  0  0  0  0
  130.6908  131.7866  153.4181 C   0  0  0  0  0  0  0  0  0  0  0  0
  130.4096  132.5362  154.5421 C   0  0  0  0  0  0  0  0  0  0  0  0
  130.4458  131.9398  155.8013 C   0  0  0  0  0  0  0  0  0  0  0  0
  130.1443  132.7402  157.0132 C   0  0  0  0  0  0  0  0  0  0  0  0
  129.5861  132.2751  158.1584 C   0  0  0  0  0  0  0  0  0  0  0  0
  129.4845  133.3436  159.0151 N   0  0  0  0  0  0  0  0  0  0  0  0
  129.1237  133.3261  159.9153 H   0  0  0  0  0  0  0  0  0  0  0  0
  129.9842  134.4319  158.3678 C   0  0  0  0  0  0  0  0  0  0  0  0
  130.0640  135.7136  158.8874 N   0  0  0  0  0  0  0  0  0  0  0  0
  129.1232  136.1471  159.8258 C   0  0  0  0  0  0  0  0  0  0  0  0
  127.8315  135.6343  159.8040 C   0  0  0  0  0  0  0  0  0  0  0  0
  126.9027  136.0579  160.7344 C   0  0  0  0  0  0  0  0  0  0  0  0
  127.2538  136.9928  161.6896 C   0  0  0  0  0  0  0  0  0  0  0  0
  128.5434  137.5097  161.7171 C   0  0  0  0  0  0  0  0  0  0  0  0
  128.8974  138.4551  162.6826 N   0  0  0  0  0  0  0  0  0  0  0  0
  130.1928  138.9738  162.7096 C   0  0  0  0  0  0  0  0  0  0  0  0
  131.1748  138.3489  163.4706 C   0  0  0  0  0  0  0  0  0  0  0  0
  132.4558  138.8559  163.4953 C   0  0  0  0  0  0  0  0  0  0  0  0
  132.7647  140.0044  162.7641 C   0  0  0  0  0  0  0  0  0  0  0  0
  134.1357  140.5544  162.7939 C   0  0  0  0  0  0  0  0  0  0  0  0
  134.6379  140.9365  163.9479 C   0  0  0  0  0  0  0  0  0  0  0  0
  136.0199  141.5022  164.0804 C   0  0  0  0  0  0  0  0  0  0  0  0
  136.5257  142.0081  162.7634 C   0  0  0  0  0  0  0  0  0  0  0  0
  136.0285  141.6357  161.6243 C   0  0  0  0  0  0  0  0  0  0  0  0
  134.8967  140.6602  161.5063 C   0  0  0  0  0  0  0  0  0  0  0  0
  131.7755  140.6327  162.0053 C   0  0  0  0  0  0  0  0  0  0  0  0
  130.4976  140.1177  161.9799 C   0  0  0  0  0  0  0  0  0  0  0  0
  129.4793  137.0858  160.7836 C   0  0  0  0  0  0  0  0  0  0  0  0
  130.3722  134.0681  157.1698 N   0  0  0  0  0  0  0  0  0  0  0  0
  130.7624  134.6543  156.5027 H   0  0  0  0  0  0  0  0  0  0  0  0
  130.7721  130.5898  155.9180 C   0  0  0  0  0  0  0  0  0  0  0  0
  131.0461  129.8485  154.7866 C   0  0  0  0  0  0  0  0  0  0  0  0
  130.6635  132.2478  152.4419 H   0  0  0  0  0  0  0  0  0  0  0  0
  130.1613  133.5829  154.4462 H   0  0  0  0  0  0  0  0  0  0  0  0
  129.2796  131.2589  158.3584 H   0  0  0  0  0  0  0  0  0  0  0  0
  130.7728  136.3102  158.5999 H   0  0  0  0  0  0  0  0  0  0  0  0
  127.5539  134.9034  159.0588 H   0  0  0  0  0  0  0  0  0  0  0  0
  125.8998  135.6578  160.7154 H   0  0  0  0  0  0  0  0  0  0  0  0
  126.5251  137.3218  162.4157 H   0  0  0  0  0  0  0  0  0  0  0  0
  128.2428  138.7511  163.3344 H   0  0  0  0  0  0  0  0  0  0  0  0
  130.9341  137.4632  164.0398 H   0  0  0  0  0  0  0  0  0  0  0  0
  133.2190  138.3680  164.0835 H   0  0  0  0  0  0  0  0  0  0  0  0
  134.0318  140.8353  164.8361 H   0  0  0  0  0  0  0  0  0  0  0  0
  136.6927  140.7272  164.4477 H   0  0  0  0  0  0  0  0  0  0  0  0
  135.9990  142.3249  164.7950 H   0  0  0  0  0  0  0  0  0  0  0  0
  137.3417  142.7157  162.7625 H   0  0  0  0  0  0  0  0  0  0  0  0
  136.4500  142.0475  160.7192 H   0  0  0  0  0  0  0  0  0  0  0  0
  135.2956  139.6801  161.2455 H   0  0  0  0  0  0  0  0  0  0  0  0
  134.2207  140.9911  160.7180 H   0  0  0  0  0  0  0  0  0  0  0  0
  132.0115  141.5215  161.4389 H   0  0  0  0  0  0  0  0  0  0  0  0
  129.7319  140.6033  161.3930 H   0  0  0  0  0  0  0  0  0  0  0  0
  130.4825  137.4855  160.8030 H   0  0  0  0  0  0  0  0  0  0  0  0
  130.8060  130.1235  156.8916 H   0  0  0  0  0  0  0  0  0  0  0  0
  131.2946  128.8013  154.8754 H   0  0  0  0  0  0  0  0  0  0  0  0
  1  2  2  0
  2  3  1  0
  2  4  1  0
  4 36  2  0
  4  5  1  0
  5  6  2  0
  5 37  1  0
  6  7  1  0
  6 38  1  0
  7  8  1  0
  7 35  2  0
  8 33  1  0
  8  9  2  0
  9 10  1  0
  9 39  1  0
 10 11  1  0
 10 12  1  0
 12 13  1  0
 12 33  2  0
 13 14  1  0
 13 40  1  0
 14 32  1  0
 14 15  2  0
 15 16  1  0
 15 41  1  0
 16 17  2  0
 16 42  1  0
 17 18  1  0
 17 43  1  0
 18 19  1  0
 18 32  2  0
 19 20  1  0
 19 44  1  0
 20 31  1  0
 20 21  2  0
 21 22  1  0
 21 45  1  0
 22 23  2  0
 22 46  1  0
 23 24  1  0
 23 30  1  0
 24 29  1  0
 24 25  2  0
 25 26  1  0
 25 47  1  0
 26 27  1  0
 26 48  1  0
 26 49  1  0
 27 28  2  0
 27 50  1  0
 28 29  1  0
 28 51  1  0
 29 52  1  0
 29 53  1  0
 30 31  2  0
 30 54  1  0
 31 55  1  0
 32 56  1  0
 33 34  1  0
 35 36  1  0
 35 57  1  0
 36 58  1  0
M  CHG  3   2   1   3  -1  33   1
M  END
>  <DOCK_score>  (1) 
-56.333027

>  <SMILES>  (1) 
O=[N+]([O-])c1ccc(-c2c[nH]c(Nc3cccc(Nc4ccc(C5=CCC=CC5)cc4)c3)[nH+]2)cc1

$$$$
