O=C1CC[C@H](NC(NC2CCC2)=[NH+][C@H]2COc3cc(Cl)ccc3C2)CN1
     RDKit          3D

 52 55  0  0  1  0  0  0  0  0999 V2000
  123.8821  133.6386  161.4948 O   0  0  0  0  0  0  0  0  0  0  0  0
  125.0432  133.8798  161.2407 C   0  0  0  0  0  0  0  0  0  0  0  0
  125.9199  132.7502  160.7817 C   0  0  0  0  0  0  0  0  0  0  0  0
  127.3926  133.1389  160.9336 C   0  0  0  0  0  0  0  0  0  0  0  0
  127.5947  134.5254  160.3105 C   0  0  2  0  0  0  0  0  0  0  0  0
  127.1978  134.5315  159.2953 H   0  0  0  0  0  0  0  0  0  0  0  0
  129.0231  134.8493  160.2851 N   0  0  0  0  0  0  0  0  0  0  0  0
  129.7873  134.5035  159.1957 C   0  0  0  0  0  0  0  0  0  0  0  0
  129.2106  133.8535  158.1301 N   0  0  0  0  0  0  0  0  0  0  0  0
  130.0062  132.9290  157.3183 C   0  0  0  0  0  0  0  0  0  0  0  0
  129.1605  131.8991  156.5510 C   0  0  0  0  0  0  0  0  0  0  0  0
  130.2455  130.8652  156.9033 C   0  0  0  0  0  0  0  0  0  0  0  0
  130.5825  131.7478  158.1166 C   0  0  0  0  0  0  0  0  0  0  0  0
  131.0582  134.7916  159.1730 N   0  0  0  0  0  0  0  0  0  0  0  0
  131.5012  134.9647  158.3277 H   0  0  0  0  0  0  0  0  0  0  0  0
  131.8176  134.8542  160.4242 C   0  0  1  0  0  0  0  0  0  0  0  0
  131.1595  134.6332  161.2648 H   0  0  0  0  0  0  0  0  0  0  0  0
  132.9648  133.8367  160.3843 C   0  0  0  0  0  0  0  0  0  0  0  0
  133.6219  133.8486  161.6522 O   0  0  0  0  0  0  0  0  0  0  0  0
  133.9784  135.0521  162.1720 C   0  0  0  0  0  0  0  0  0  0  0  0
  134.9143  135.0793  163.2010 C   0  0  0  0  0  0  0  0  0  0  0  0
  135.2954  136.2824  163.7615 C   0  0  0  0  0  0  0  0  0  0  0  0
  136.4628  136.3112  165.0462 Cl  0  0  0  0  0  0  0  0  0  0  0  0
  134.7455  137.4650  163.2984 C   0  0  0  0  0  0  0  0  0  0  0  0
  133.8178  137.4405  162.2760 C   0  0  0  0  0  0  0  0  0  0  0  0
  133.4322  136.2367  161.7098 C   0  0  0  0  0  0  0  0  0  0  0  0
  132.4189  136.2517  160.5936 C   0  0  0  0  0  0  0  0  0  0  0  0
  126.8497  135.5569  161.1588 C   0  0  0  0  0  0  0  0  0  0  0  0
  125.4730  135.1341  161.3835 N   0  0  0  0  0  0  0  0  0  0  0  0
  125.7149  131.8651  161.3839 H   0  0  0  0  0  0  0  0  0  0  0  0
  125.7105  132.5320  159.7344 H   0  0  0  0  0  0  0  0  0  0  0  0
  127.6567  133.1697  161.9907 H   0  0  0  0  0  0  0  0  0  0  0  0
  128.0194  132.4101  160.4199 H   0  0  0  0  0  0  0  0  0  0  0  0
  129.4300  135.3078  161.0369 H   0  0  0  0  0  0  0  0  0  0  0  0
  128.2773  134.0070  157.9157 H   0  0  0  0  0  0  0  0  0  0  0  0
  130.7437  133.4378  156.6976 H   0  0  0  0  0  0  0  0  0  0  0  0
  128.1954  131.6942  157.0145 H   0  0  0  0  0  0  0  0  0  0  0  0
  129.0832  132.1058  155.4836 H   0  0  0  0  0  0  0  0  0  0  0  0
  131.0482  130.8089  156.1680 H   0  0  0  0  0  0  0  0  0  0  0  0
  129.8470  129.8869  157.1721 H   0  0  0  0  0  0  0  0  0  0  0  0
  131.6516  131.8326  158.3115 H   0  0  0  0  0  0  0  0  0  0  0  0
  130.0070  131.5015  159.0090 H   0  0  0  0  0  0  0  0  0  0  0  0
  132.5663  132.8417  160.1859 H   0  0  0  0  0  0  0  0  0  0  0  0
  133.6726  134.1120  159.6024 H   0  0  0  0  0  0  0  0  0  0  0  0
  135.3439  134.1568  163.5626 H   0  0  0  0  0  0  0  0  0  0  0  0
  135.0422  138.4065  163.7365 H   0  0  0  0  0  0  0  0  0  0  0  0
  133.3904  138.3648  161.9161 H   0  0  0  0  0  0  0  0  0  0  0  0
  132.9059  136.5518  159.6656 H   0  0  0  0  0  0  0  0  0  0  0  0
  131.6267  136.9608  160.8333 H   0  0  0  0  0  0  0  0  0  0  0  0
  126.8521  136.5171  160.6429 H   0  0  0  0  0  0  0  0  0  0  0  0
  127.3544  135.6659  162.1188 H   0  0  0  0  0  0  0  0  0  0  0  0
  124.8292  135.8072  161.6541 H   0  0  0  0  0  0  0  0  0  0  0  0
  1  2  2  0
  2 29  1  0
  2  3  1  0
  3  4  1  0
  3 30  1  0
  3 31  1  0
  4  5  1  0
  4 32  1  0
  4 33  1  0
  5  6  1  6
  5  7  1  0
  5 28  1  0
  7 34  1  0
  8  7  1  0
  8  9  1  0
  8 14  2  0
  9 10  1  0
  9 35  1  0
 10 13  1  0
 10 11  1  0
 10 36  1  0
 11 12  1  0
 11 37  1  0
 11 38  1  0
 12 13  1  0
 12 39  1  0
 12 40  1  0
 13 41  1  0
 13 42  1  0
 14 15  1  0
 14 16  1  0
 16 17  1  1
 16 27  1  0
 16 18  1  0
 18 19  1  0
 18 43  1  0
 18 44  1  0
 19 20  1  0
 20 26  2  0
 20 21  1  0
 21 22  2  0
 21 45  1  0
 22 23  1  0
 22 24  1  0
 24 25  2  0
 24 46  1  0
 25 26  1  0
 25 47  1  0
 26 27  1  0
 27 48  1  0
 27 49  1  0
 28 29  1  0
 28 50  1  0
 28 51  1  0
 29 52  1  0
M  CHG  1  14   1
M  END
>  <DOCK_score>  (1) 
-48.017048

>  <SMILES>  (1) 
O=C1CC[C@H](NC(NC2CCC2)=[NH+][C@H]2COc3cc(Cl)ccc3C2)CN1

$$$$
