FCCc1ccc(Nc2ccc(NC3=[NH+]CCN3)cc2)cc1
     RDKit          3D

 42 44  0  0  0  0  0  0  0  0999 V2000
  129.8394  137.6120  167.4469 F   0  0  0  0  0  0  0  0  0  0  0  0
  128.9473  138.5775  167.9259 C   0  0  0  0  0  0  0  0  0  0  0  0
  127.5223  138.0225  167.8805 C   0  0  0  0  0  0  0  0  0  0  0  0
  127.1656  137.6701  166.4594 C   0  0  0  0  0  0  0  0  0  0  0  0
  127.4284  136.4011  165.9766 C   0  0  0  0  0  0  0  0  0  0  0  0
  127.1070  136.0762  164.6734 C   0  0  0  0  0  0  0  0  0  0  0  0
  126.5102  137.0228  163.8502 C   0  0  0  0  0  0  0  0  0  0  0  0
  126.1792  136.6955  162.5334 N   0  0  0  0  0  0  0  0  0  0  0  0
  127.1785  136.2936  161.6400 C   0  0  0  0  0  0  0  0  0  0  0  0
  126.8767  135.4088  160.6125 C   0  0  0  0  0  0  0  0  0  0  0  0
  127.8615  135.0169  159.7277 C   0  0  0  0  0  0  0  0  0  0  0  0
  129.1559  135.4985  159.8717 C   0  0  0  0  0  0  0  0  0  0  0  0
  130.1567  135.0959  158.9768 N   0  0  0  0  0  0  0  0  0  0  0  0
  130.0948  133.8597  158.3911 C   0  0  0  0  0  0  0  0  0  0  0  0
  129.5386  132.8152  158.9833 N   0  0  0  0  0  0  0  0  0  0  0  0
  129.1317  132.8196  159.8637 H   0  0  0  0  0  0  0  0  0  0  0  0
  129.6314  131.6471  158.0935 C   0  0  0  0  0  0  0  0  0  0  0  0
  130.3637  132.1980  156.8533 C   0  0  0  0  0  0  0  0  0  0  0  0
  130.5912  133.6121  157.1899 N   0  0  0  0  0  0  0  0  0  0  0  0
  129.4588  136.3790  160.9017 C   0  0  0  0  0  0  0  0  0  0  0  0
  128.4731  136.7760  161.7829 C   0  0  0  0  0  0  0  0  0  0  0  0
  126.2476  138.2968  164.3384 C   0  0  0  0  0  0  0  0  0  0  0  0
  126.5758  138.6162  165.6413 C   0  0  0  0  0  0  0  0  0  0  0  0
  129.0096  139.4702  167.3036 H   0  0  0  0  0  0  0  0  0  0  0  0
  129.2055  138.8325  168.9538 H   0  0  0  0  0  0  0  0  0  0  0  0
  126.8273  138.7747  168.2537 H   0  0  0  0  0  0  0  0  0  0  0  0
  127.4601  137.1297  168.5029 H   0  0  0  0  0  0  0  0  0  0  0  0
  127.8893  135.6647  166.6182 H   0  0  0  0  0  0  0  0  0  0  0  0
  127.3163  135.0862  164.2958 H   0  0  0  0  0  0  0  0  0  0  0  0
  125.2565  136.7477  162.2377 H   0  0  0  0  0  0  0  0  0  0  0  0
  125.8710  135.0305  160.5034 H   0  0  0  0  0  0  0  0  0  0  0  0
  127.6261  134.3323  158.9263 H   0  0  0  0  0  0  0  0  0  0  0  0
  130.8934  135.6930  158.7725 H   0  0  0  0  0  0  0  0  0  0  0  0
  128.6391  131.2854  157.8244 H   0  0  0  0  0  0  0  0  0  0  0  0
  130.2151  130.8559  158.5641 H   0  0  0  0  0  0  0  0  0  0  0  0
  129.7360  132.1106  155.9665 H   0  0  0  0  0  0  0  0  0  0  0  0
  131.3119  131.6817  156.7034 H   0  0  0  0  0  0  0  0  0  0  0  0
  131.0349  134.2605  156.6210 H   0  0  0  0  0  0  0  0  0  0  0  0
  130.4656  136.7536  161.0131 H   0  0  0  0  0  0  0  0  0  0  0  0
  128.7087  137.4614  162.5837 H   0  0  0  0  0  0  0  0  0  0  0  0
  125.7877  139.0364  163.6999 H   0  0  0  0  0  0  0  0  0  0  0  0
  126.3720  139.6065  166.0214 H   0  0  0  0  0  0  0  0  0  0  0  0
  1  2  1  0
  2  3  1  0
  2 24  1  0
  2 25  1  0
  3  4  1  0
  3 26  1  0
  3 27  1  0
  4 23  2  0
  4  5  1  0
  5  6  2  0
  5 28  1  0
  6  7  1  0
  6 29  1  0
  7  8  1  0
  7 22  2  0
  8  9  1  0
  8 30  1  0
  9 21  1  0
  9 10  2  0
 10 11  1  0
 10 31  1  0
 11 12  2  0
 11 32  1  0
 12 13  1  0
 12 20  1  0
 13 14  1  0
 13 33  1  0
 14 19  2  0
 14 15  1  0
 15 16  1  0
 15 17  1  0
 17 18  1  0
 17 34  1  0
 17 35  1  0
 18 19  1  0
 18 36  1  0
 18 37  1  0
 19 38  1  0
 20 21  2  0
 20 39  1  0
 21 40  1  0
 22 23  1  0
 22 41  1  0
 23 42  1  0
M  CHG  1  19   1
M  END
>  <DOCK_score>  (1) 
-41.005108

>  <SMILES>  (1) 
FCCc1ccc(Nc2ccc(NC3=[NH+]CCN3)cc2)cc1

$$$$
