CCC1CC(Nc2ccc(-c3n[nH]cc3C[NH2+]CC[C@@H]3CCC(=O)NC3)o2)C1
     RDKit          3D

 60 63  0  0  1  0  0  0  0  0999 V2000
  126.0008  139.9547  165.9736 C   0  0  0  0  0  0  0  0  0  0  0  0
  127.1371  138.9722  165.6830 C   0  0  0  0  0  0  0  0  0  0  0  0
  126.7668  138.1063  164.4771 C   0  0  2  0  0  0  0  0  0  0  0  0
  127.9825  137.4926  163.7629 C   0  0  0  0  0  0  0  0  0  0  0  0
  127.2589  137.7953  162.4400 C   0  0  1  0  0  0  0  0  0  0  0  0
  126.3828  136.7113  161.9890 N   0  0  0  0  0  0  0  0  0  0  0  0
  126.8831  135.7114  161.1630 C   0  0  0  0  0  0  0  0  0  0  0  0
  126.1794  134.6580  160.6785 C   0  0  0  0  0  0  0  0  0  0  0  0
  127.0664  133.8988  159.8898 C   0  0  0  0  0  0  0  0  0  0  0  0
  128.2717  134.5249  159.9397 C   0  0  0  0  0  0  0  0  0  0  0  0
  129.5067  134.0799  159.2614 C   0  0  0  0  0  0  0  0  0  0  0  0
  129.6346  133.0056  158.5078 N   0  0  0  0  0  0  0  0  0  0  0  0
  130.9588  132.9478  158.0548 N   0  0  0  0  0  0  0  0  0  0  0  0
  131.3338  132.2625  157.4797 H   0  0  0  0  0  0  0  0  0  0  0  0
  131.6248  134.0079  158.5619 C   0  0  0  0  0  0  0  0  0  0  0  0
  130.7600  134.7259  159.3099 C   0  0  0  0  0  0  0  0  0  0  0  0
  131.0770  135.9929  160.0621 C   0  0  0  0  0  0  0  0  0  0  0  0
  132.4901  136.3407  159.8616 N   0  0  0  0  0  0  0  0  0  0  0  0
  133.0727  135.5915  160.2041 H   0  0  0  0  0  0  0  0  0  0  0  0
  132.6656  136.4807  158.8779 H   0  0  0  0  0  0  0  0  0  0  0  0
  132.7991  137.5756  160.5948 C   0  0  0  0  0  0  0  0  0  0  0  0
  134.2708  137.9379  160.3861 C   0  0  0  0  0  0  0  0  0  0  0  0
  134.5926  139.2241  161.1496 C   0  0  2  0  0  0  0  0  0  0  0  0
  133.7625  139.9240  161.0535 H   0  0  0  0  0  0  0  0  0  0  0  0
  135.8674  139.8564  160.5782 C   0  0  0  0  0  0  0  0  0  0  0  0
  136.0633  141.2262  161.2325 C   0  0  0  0  0  0  0  0  0  0  0  0
  135.9266  141.1048  162.7230 C   0  0  0  0  0  0  0  0  0  0  0  0
  136.3636  142.0002  163.4145 O   0  0  0  0  0  0  0  0  0  0  0  0
  135.3508  140.0647  163.3272 N   0  0  0  0  0  0  0  0  0  0  0  0
  134.8262  138.8997  162.6257 C   0  0  0  0  0  0  0  0  0  0  0  0
  128.1471  135.6226  160.7149 O   0  0  0  0  0  0  0  0  0  0  0  0
  126.5182  138.9135  163.1921 C   0  0  0  0  0  0  0  0  0  0  0  0
  125.8404  140.5921  165.1040 H   0  0  0  0  0  0  0  0  0  0  0  0
  125.0879  139.4003  166.1911 H   0  0  0  0  0  0  0  0  0  0  0  0
  126.2647  140.5716  166.8326 H   0  0  0  0  0  0  0  0  0  0  0  0
  127.2974  138.3348  166.5524 H   0  0  0  0  0  0  0  0  0  0  0  0
  128.0501  139.5266  165.4656 H   0  0  0  0  0  0  0  0  0  0  0  0
  125.9803  137.3848  164.6985 H   0  0  0  0  0  0  0  0  0  0  0  0
  128.1111  136.4277  163.9564 H   0  0  0  0  0  0  0  0  0  0  0  0
  128.9018  138.0625  163.8980 H   0  0  0  0  0  0  0  0  0  0  0  0
  127.9202  138.1611  161.6545 H   0  0  0  0  0  0  0  0  0  0  0  0
  125.4537  136.6911  162.2666 H   0  0  0  0  0  0  0  0  0  0  0  0
  125.1368  134.4432  160.8608 H   0  0  0  0  0  0  0  0  0  0  0  0
  126.8341  132.9917  159.3519 H   0  0  0  0  0  0  0  0  0  0  0  0
  132.6665  134.2403  158.3977 H   0  0  0  0  0  0  0  0  0  0  0  0
  130.4475  136.8022  159.6921 H   0  0  0  0  0  0  0  0  0  0  0  0
  130.8872  135.8417  161.1248 H   0  0  0  0  0  0  0  0  0  0  0  0
  132.1696  138.3849  160.2249 H   0  0  0  0  0  0  0  0  0  0  0  0
  132.6093  137.4243  161.6574 H   0  0  0  0  0  0  0  0  0  0  0  0
  134.9002  137.1285  160.7560 H   0  0  0  0  0  0  0  0  0  0  0  0
  134.4605  138.0891  159.3235 H   0  0  0  0  0  0  0  0  0  0  0  0
  136.7237  139.2189  160.7981 H   0  0  0  0  0  0  0  0  0  0  0  0
  135.7661  139.9760  159.4995 H   0  0  0  0  0  0  0  0  0  0  0  0
  137.0562  141.6048  160.9896 H   0  0  0  0  0  0  0  0  0  0  0  0
  135.3099  141.9183  160.8563 H   0  0  0  0  0  0  0  0  0  0  0  0
  135.2764  140.0846  164.2941 H   0  0  0  0  0  0  0  0  0  0  0  0
  133.8832  138.5987  163.0820 H   0  0  0  0  0  0  0  0  0  0  0  0
  135.5396  138.0795  162.7057 H   0  0  0  0  0  0  0  0  0  0  0  0
  127.0372  139.8719  163.1713 H   0  0  0  0  0  0  0  0  0  0  0  0
  125.4647  138.9958  162.9250 H   0  0  0  0  0  0  0  0  0  0  0  0
  1  2  1  0
  1 33  1  0
  1 34  1  0
  1 35  1  0
  2  3  1  0
  2 36  1  0
  2 37  1  0
  3 32  1  0
  3  4  1  0
  3 38  1  1
  4  5  1  0
  4 39  1  0
  4 40  1  0
  5  6  1  0
  5 32  1  0
  5 41  1  6
  6  7  1  0
  6 42  1  0
  7 31  1  0
  7  8  2  0
  8  9  1  0
  8 43  1  0
  9 10  2  0
  9 44  1  0
 10 11  1  0
 10 31  1  0
 11 16  1  0
 11 12  2  0
 12 13  1  0
 13 14  1  0
 13 15  1  0
 15 16  2  0
 15 45  1  0
 16 17  1  0
 17 18  1  0
 17 46  1  0
 17 47  1  0
 18 19  1  0
 18 20  1  0
 18 21  1  0
 21 22  1  0
 21 48  1  0
 21 49  1  0
 22 23  1  0
 22 50  1  0
 22 51  1  0
 23 24  1  1
 23 30  1  0
 23 25  1  0
 25 26  1  0
 25 52  1  0
 25 53  1  0
 26 27  1  0
 26 54  1  0
 26 55  1  0
 27 28  2  0
 27 29  1  0
 29 30  1  0
 29 56  1  0
 30 57  1  0
 30 58  1  0
 32 59  1  0
 32 60  1  0
M  CHG  1  18   1
M  END
>  <DOCK_score>  (1) 
-41.550926

>  <SMILES>  (1) 
CCC1CC(Nc2ccc(-c3n[nH]cc3C[NH2+]CC[C@@H]3CCC(=O)NC3)o2)C1

$$$$
