Oc1ccc2c(c1)C(Nc1[nH]cc(-c3ccc(N4C5CCCC[C@@H]54)cc3)[nH+]1)c1cc(O)ccc1-2
     RDKit          3D

 61 67  0  0  1  0  0  0  0  0999 V2000
  132.0495  130.7606  157.5127 O   0  0  0  0  0  0  0  0  0  0  0  0
  130.8578  131.0926  158.0749 C   0  0  0  0  0  0  0  0  0  0  0  0
  129.8363  130.1550  158.1418 C   0  0  0  0  0  0  0  0  0  0  0  0
  128.6259  130.4877  158.7110 C   0  0  0  0  0  0  0  0  0  0  0  0
  128.4232  131.7714  159.2223 C   0  0  0  0  0  0  0  0  0  0  0  0
  129.4525  132.7069  159.1516 C   0  0  0  0  0  0  0  0  0  0  0  0
  130.6610  132.3705  158.5816 C   0  0  0  0  0  0  0  0  0  0  0  0
  128.9486  133.9855  159.7752 C   0  0  0  0  0  0  0  0  0  0  0  0
  129.7738  134.3419  160.9321 N   0  0  0  0  0  0  0  0  0  0  0  0
  130.4553  135.5468  160.9513 C   0  0  0  0  0  0  0  0  0  0  0  0
  130.9308  136.2058  159.8599 N   0  0  0  0  0  0  0  0  0  0  0  0
  130.8540  135.9188  158.9367 H   0  0  0  0  0  0  0  0  0  0  0  0
  131.5349  137.3569  160.3074 C   0  0  0  0  0  0  0  0  0  0  0  0
  131.4181  137.3627  161.6583 C   0  0  0  0  0  0  0  0  0  0  0  0
  131.9271  138.4131  162.5740 C   0  0  0  0  0  0  0  0  0  0  0  0
  131.0435  139.1097  163.3969 C   0  0  0  0  0  0  0  0  0  0  0  0
  131.5188  140.0853  164.2476 C   0  0  0  0  0  0  0  0  0  0  0  0
  132.8785  140.3739  164.2850 C   0  0  0  0  0  0  0  0  0  0  0  0
  133.3573  141.3622  165.1484 N   0  0  0  0  0  0  0  0  0  0  0  0
  132.8917  141.1351  166.5149 C   0  0  2  0  0  0  0  0  0  0  0  0
  132.6176  142.3176  167.4312 C   0  0  0  0  0  0  0  0  0  0  0  0
  133.7657  143.3246  167.3633 C   0  0  0  0  0  0  0  0  0  0  0  0
  135.0754  142.5959  167.6850 C   0  0  0  0  0  0  0  0  0  0  0  0
  135.4672  141.7432  166.4780 C   0  0  0  0  0  0  0  0  0  0  0  0
  134.3176  140.8137  166.0952 C   0  0  2  0  0  0  0  0  0  0  0  0
  134.5822  139.7623  165.9824 H   0  0  0  0  0  0  0  0  0  0  0  0
  133.7599  139.6844  163.4618 C   0  0  0  0  0  0  0  0  0  0  0  0
  133.2897  138.7045  162.6133 C   0  0  0  0  0  0  0  0  0  0  0  0
  130.7483  136.2412  162.0238 N   0  0  0  0  0  0  0  0  0  0  0  0
  130.5221  135.9927  162.9337 H   0  0  0  0  0  0  0  0  0  0  0  0
  127.5317  133.7070  160.2138 C   0  0  0  0  0  0  0  0  0  0  0  0
  126.5853  134.4892  160.8365 C   0  0  0  0  0  0  0  0  0  0  0  0
  125.3333  133.9648  161.1297 C   0  0  0  0  0  0  0  0  0  0  0  0
  124.3995  134.7375  161.7440 O   0  0  0  0  0  0  0  0  0  0  0  0
  125.0363  132.6505  160.7954 C   0  0  0  0  0  0  0  0  0  0  0  0
  125.9808  131.8629  160.1730 C   0  0  0  0  0  0  0  0  0  0  0  0
  127.2413  132.3858  159.8760 C   0  0  0  0  0  0  0  0  0  0  0  0
  132.6973  131.4786  157.5111 H   0  0  0  0  0  0  0  0  0  0  0  0
  129.9905  129.1618  157.7465 H   0  0  0  0  0  0  0  0  0  0  0  0
  127.8337  129.7554  158.7611 H   0  0  0  0  0  0  0  0  0  0  0  0
  131.4556  133.1001  158.5301 H   0  0  0  0  0  0  0  0  0  0  0  0
  128.9628  134.7918  159.0419 H   0  0  0  0  0  0  0  0  0  0  0  0
  129.8427  133.7335  161.6845 H   0  0  0  0  0  0  0  0  0  0  0  0
  132.0131  138.1108  159.6995 H   0  0  0  0  0  0  0  0  0  0  0  0
  129.9873  138.8858  163.3679 H   0  0  0  0  0  0  0  0  0  0  0  0
  130.8347  140.6253  164.8853 H   0  0  0  0  0  0  0  0  0  0  0  0
  132.2301  140.2812  166.6612 H   0  0  0  0  0  0  0  0  0  0  0  0
  131.6929  142.8051  167.1225 H   0  0  0  0  0  0  0  0  0  0  0  0
  132.5116  141.9615  168.4559 H   0  0  0  0  0  0  0  0  0  0  0  0
  133.8200  143.7505  166.3614 H   0  0  0  0  0  0  0  0  0  0  0  0
  133.6004  144.1177  168.0924 H   0  0  0  0  0  0  0  0  0  0  0  0
  134.9339  141.9551  168.5552 H   0  0  0  0  0  0  0  0  0  0  0  0
  135.8613  143.3231  167.8898 H   0  0  0  0  0  0  0  0  0  0  0  0
  136.3459  141.1480  166.7261 H   0  0  0  0  0  0  0  0  0  0  0  0
  135.7007  142.3947  165.6358 H   0  0  0  0  0  0  0  0  0  0  0  0
  134.8149  139.9136  163.4893 H   0  0  0  0  0  0  0  0  0  0  0  0
  133.9760  138.1659  161.9766 H   0  0  0  0  0  0  0  0  0  0  0  0
  126.8170  135.5115  161.0967 H   0  0  0  0  0  0  0  0  0  0  0  0
  124.6984  135.6367  161.9370 H   0  0  0  0  0  0  0  0  0  0  0  0
  124.0622  132.2439  161.0239 H   0  0  0  0  0  0  0  0  0  0  0  0
  125.7459  130.8409  159.9145 H   0  0  0  0  0  0  0  0  0  0  0  0
  1  2  1  0
  1 38  1  0
  2  7  2  0
  2  3  1  0
  3  4  2  0
  3 39  1  0
  4  5  1  0
  4 40  1  0
  5 37  1  0
  5  6  2  0
  6  7  1  0
  6  8  1  0
  7 41  1  0
  8  9  1  0
  8 31  1  0
  8 42  1  0
  9 43  1  0
 10  9  1  0
 10 29  2  0
 10 11  1  0
 11 12  1  0
 11 13  1  0
 13 14  2  0
 13 44  1  0
 14 15  1  0
 14 29  1  0
 15 28  1  0
 15 16  2  0
 16 17  1  0
 16 45  1  0
 17 18  2  0
 17 46  1  0
 18 19  1  0
 18 27  1  0
 19 25  1  0
 19 20  1  0
 20 25  1  0
 20 21  1  0
 20 47  1  6
 21 22  1  0
 21 48  1  0
 21 49  1  0
 22 23  1  0
 22 50  1  0
 22 51  1  0
 23 24  1  0
 23 52  1  0
 23 53  1  0
 24 25  1  0
 24 54  1  0
 24 55  1  0
 25 26  1  6
 27 28  2  0
 27 56  1  0
 28 57  1  0
 29 30  1  0
 31 37  2  0
 31 32  1  0
 32 33  2  0
 32 58  1  0
 33 34  1  0
 33 35  1  0
 34 59  1  0
 35 36  2  0
 35 60  1  0
 36 37  1  0
 36 61  1  0
M  CHG  1  29   1
M  END
>  <DOCK_score>  (1) 
-42.556507

>  <SMILES>  (1) 
Oc1ccc2c(c1)C(Nc1[nH]cc(-c3ccc(N4C5CCCC[C@@H]54)cc3)[nH+]1)c1cc(O)ccc1-2

$$$$
