CCc1ccc(C[C@H](CSc2ccccc2)Nc2[nH]cc(-c3ccc(CC)cc3)[nH+]2)cc1
     RDKit          3D

 64 67  0  0  1  0  0  0  0  0999 V2000
  126.7013  131.0314  161.5585 C   0  0  0  0  0  0  0  0  0  0  0  0
  125.8755  132.3102  161.7136 C   0  0  0  0  0  0  0  0  0  0  0  0
  126.7822  133.5093  161.6082 C   0  0  0  0  0  0  0  0  0  0  0  0
  127.0213  134.0888  160.3763 C   0  0  0  0  0  0  0  0  0  0  0  0
  127.8533  135.1886  160.2795 C   0  0  0  0  0  0  0  0  0  0  0  0
  128.4460  135.7088  161.4149 C   0  0  0  0  0  0  0  0  0  0  0  0
  129.3533  136.9075  161.3095 C   0  0  0  0  0  0  0  0  0  0  0  0
  130.7912  136.4397  161.0764 C   0  0  2  0  0  0  0  0  0  0  0  0
  130.9915  135.5611  161.6898 H   0  0  0  0  0  0  0  0  0  0  0  0
  131.7604  137.5601  161.4587 C   0  0  0  0  0  0  0  0  0  0  0  0
  133.4652  137.0055  161.1823 S   0  0  0  0  0  0  0  0  0  0  0  0
  134.3106  138.5016  160.7930 C   0  0  0  0  0  0  0  0  0  0  0  0
  134.9525  138.6405  159.5682 C   0  0  0  0  0  0  0  0  0  0  0  0
  135.6099  139.8163  159.2646 C   0  0  0  0  0  0  0  0  0  0  0  0
  135.6386  140.8512  160.1817 C   0  0  0  0  0  0  0  0  0  0  0  0
  135.0056  140.7144  161.4044 C   0  0  0  0  0  0  0  0  0  0  0  0
  134.3419  139.5434  161.7122 C   0  0  0  0  0  0  0  0  0  0  0  0
  130.9711  136.0995  159.6628 N   0  0  0  0  0  0  0  0  0  0  0  0
  130.7258  134.8094  159.2246 C   0  0  0  0  0  0  0  0  0  0  0  0
  130.3206  133.7707  160.0051 N   0  0  0  0  0  0  0  0  0  0  0  0
  130.1528  133.8009  160.9599 H   0  0  0  0  0  0  0  0  0  0  0  0
  130.1926  132.6718  159.1908 C   0  0  0  0  0  0  0  0  0  0  0  0
  130.5229  133.0701  157.9373 C   0  0  0  0  0  0  0  0  0  0  0  0
  130.5310  132.2170  156.7239 C   0  0  0  0  0  0  0  0  0  0  0  0
  130.2703  132.7761  155.4741 C   0  0  0  0  0  0  0  0  0  0  0  0
  130.2796  131.9777  154.3485 C   0  0  0  0  0  0  0  0  0  0  0  0
  130.5471  130.6250  154.4590 C   0  0  0  0  0  0  0  0  0  0  0  0
  130.5558  129.7583  153.2261 C   0  0  0  0  0  0  0  0  0  0  0  0
  131.9676  129.7236  152.6372 C   0  0  0  0  0  0  0  0  0  0  0  0
  130.8010  130.0637  155.6976 C   0  0  0  0  0  0  0  0  0  0  0  0
  130.7999  130.8535  156.8292 C   0  0  0  0  0  0  0  0  0  0  0  0
  130.8506  134.3857  157.9906 N   0  0  0  0  0  0  0  0  0  0  0  0
  131.1304  134.9266  157.2357 H   0  0  0  0  0  0  0  0  0  0  0  0
  128.2108  135.1261  162.6461 C   0  0  0  0  0  0  0  0  0  0  0  0
  127.3747  134.0295  162.7436 C   0  0  0  0  0  0  0  0  0  0  0  0
  127.1919  131.0316  160.5853 H   0  0  0  0  0  0  0  0  0  0  0  0
  127.4544  130.9877  162.3453 H   0  0  0  0  0  0  0  0  0  0  0  0
  126.0456  130.1639  161.6347 H   0  0  0  0  0  0  0  0  0  0  0  0
  125.3848  132.3100  162.6868 H   0  0  0  0  0  0  0  0  0  0  0  0
  125.1223  132.3539  160.9268 H   0  0  0  0  0  0  0  0  0  0  0  0
  126.5586  133.6822  159.4892 H   0  0  0  0  0  0  0  0  0  0  0  0
  128.0405  135.6411  159.3170 H   0  0  0  0  0  0  0  0  0  0  0  0
  129.3037  137.4829  162.2339 H   0  0  0  0  0  0  0  0  0  0  0  0
  129.0346  137.5321  160.4750 H   0  0  0  0  0  0  0  0  0  0  0  0
  131.5602  138.4386  160.8452 H   0  0  0  0  0  0  0  0  0  0  0  0
  131.6266  137.8132  162.5104 H   0  0  0  0  0  0  0  0  0  0  0  0
  134.9340  137.8314  158.8532 H   0  0  0  0  0  0  0  0  0  0  0  0
  136.1057  139.9264  158.3115 H   0  0  0  0  0  0  0  0  0  0  0  0
  136.1569  141.7681  159.9432 H   0  0  0  0  0  0  0  0  0  0  0  0
  135.0302  141.5246  162.1175 H   0  0  0  0  0  0  0  0  0  0  0  0
  133.8483  139.4371  162.6668 H   0  0  0  0  0  0  0  0  0  0  0  0
  131.2619  136.7784  159.0339 H   0  0  0  0  0  0  0  0  0  0  0  0
  129.8870  131.6805  159.4913 H   0  0  0  0  0  0  0  0  0  0  0  0
  130.0610  133.8320  155.3866 H   0  0  0  0  0  0  0  0  0  0  0  0
  130.0774  132.4097  153.3795 H   0  0  0  0  0  0  0  0  0  0  0  0
  129.8648  130.1677  152.4892 H   0  0  0  0  0  0  0  0  0  0  0  0
  130.2476  128.7469  153.4908 H   0  0  0  0  0  0  0  0  0  0  0  0
  131.9738  129.0967  151.7455 H   0  0  0  0  0  0  0  0  0  0  0  0
  132.2759  130.7350  152.3725 H   0  0  0  0  0  0  0  0  0  0  0  0
  132.6586  129.3142  153.3740 H   0  0  0  0  0  0  0  0  0  0  0  0
  131.0045  129.0061  155.7786 H   0  0  0  0  0  0  0  0  0  0  0  0
  131.0029  130.4151  157.7952 H   0  0  0  0  0  0  0  0  0  0  0  0
  128.6774  135.5299  163.5327 H   0  0  0  0  0  0  0  0  0  0  0  0
  127.1881  133.5765  163.7061 H   0  0  0  0  0  0  0  0  0  0  0  0
  1  2  1  0
  1 36  1  0
  1 37  1  0
  1 38  1  0
  2  3  1  0
  2 39  1  0
  2 40  1  0
  3 35  2  0
  3  4  1  0
  4  5  2  0
  4 41  1  0
  5  6  1  0
  5 42  1  0
  6  7  1  0
  6 34  2  0
  7  8  1  0
  7 43  1  0
  7 44  1  0
  8  9  1  1
  8 10  1  0
  8 18  1  0
 10 11  1  0
 10 45  1  0
 10 46  1  0
 11 12  1  0
 12 17  1  0
 12 13  2  0
 13 14  1  0
 13 47  1  0
 14 15  2  0
 14 48  1  0
 15 16  1  0
 15 49  1  0
 16 17  2  0
 16 50  1  0
 17 51  1  0
 18 52  1  0
 19 18  1  0
 19 32  2  0
 19 20  1  0
 20 21  1  0
 20 22  1  0
 22 23  2  0
 22 53  1  0
 23 24  1  0
 23 32  1  0
 24 31  1  0
 24 25  2  0
 25 26  1  0
 25 54  1  0
 26 27  2  0
 26 55  1  0
 27 28  1  0
 27 30  1  0
 28 29  1  0
 28 56  1  0
 28 57  1  0
 29 58  1  0
 29 59  1  0
 29 60  1  0
 30 31  2  0
 30 61  1  0
 31 62  1  0
 32 33  1  0
 34 35  1  0
 34 63  1  0
 35 64  1  0
M  CHG  1  32   1
M  END
>  <DOCK_score>  (1) 
-59.09404

>  <SMILES>  (1) 
CCc1ccc(C[C@H](CSc2ccccc2)Nc2[nH]cc(-c3ccc(CC)cc3)[nH+]2)cc1

$$$$
