CCCC=CC[C@H](Nc1[nH]cc(-c2cccnc2)[nH+]1)c1ccccc1
     RDKit          3D

 50 52  0  0  1  0  0  0  0  0999 V2000
  136.0609  139.8826  160.2981 C   0  0  0  0  0  0  0  0  0  0  0  0
  134.5353  139.7704  160.2685 C   0  0  0  0  0  0  0  0  0  0  0  0
  134.1359  138.3178  160.0013 C   0  0  0  0  0  0  0  0  0  0  0  0
  132.6332  138.2073  159.9720 C   0  0  0  0  0  0  0  0  0  0  0  0
  132.0172  137.4266  160.8247 C   0  0  0  0  0  0  0  0  0  0  0  0
  130.5145  137.3161  160.7954 C   0  0  0  0  0  0  0  0  0  0  0  0
  130.1151  135.8635  160.5282 C   0  0  2  0  0  0  0  0  0  0  0  0
  130.5109  135.2265  161.3191 H   0  0  0  0  0  0  0  0  0  0  0  0
  130.6614  135.4364  159.2378 N   0  0  0  0  0  0  0  0  0  0  0  0
  130.4294  134.1508  158.7794 C   0  0  0  0  0  0  0  0  0  0  0  0
  129.7183  133.1922  159.4332 N   0  0  0  0  0  0  0  0  0  0  0  0
  129.2865  133.2860  160.2967 H   0  0  0  0  0  0  0  0  0  0  0  0
  129.7224  132.0683  158.6433 C   0  0  0  0  0  0  0  0  0  0  0  0
  130.4426  132.3694  157.5344 C   0  0  0  0  0  0  0  0  0  0  0  0
  130.7214  131.4554  156.3999 C   0  0  0  0  0  0  0  0  0  0  0  0
  130.2942  131.7757  155.1078 C   0  0  0  0  0  0  0  0  0  0  0  0
  130.5845  130.8925  154.0826 C   0  0  0  0  0  0  0  0  0  0  0  0
  131.2712  129.7263  154.3684 C   0  0  0  0  0  0  0  0  0  0  0  0
  131.6569  129.4482  155.5986 N   0  0  0  0  0  0  0  0  0  0  0  0
  131.4083  130.2606  156.6056 C   0  0  0  0  0  0  0  0  0  0  0  0
  130.8634  133.6543  157.6465 N   0  0  0  0  0  0  0  0  0  0  0  0
  131.3993  134.1298  156.9927 H   0  0  0  0  0  0  0  0  0  0  0  0
  128.6124  135.7531  160.4989 C   0  0  0  0  0  0  0  0  0  0  0  0
  127.9163  135.4850  161.6626 C   0  0  0  0  0  0  0  0  0  0  0  0
  126.5378  135.3833  161.6357 C   0  0  0  0  0  0  0  0  0  0  0  0
  125.8558  135.5483  160.4447 C   0  0  0  0  0  0  0  0  0  0  0  0
  126.5520  135.8149  159.2807 C   0  0  0  0  0  0  0  0  0  0  0  0
  127.9303  135.9170  159.3077 C   0  0  0  0  0  0  0  0  0  0  0  0
  136.4674  139.5648  159.3380 H   0  0  0  0  0  0  0  0  0  0  0  0
  136.3456  140.9174  160.4886 H   0  0  0  0  0  0  0  0  0  0  0  0
  136.4568  139.2456  161.0891 H   0  0  0  0  0  0  0  0  0  0  0  0
  134.1395  140.4074  159.4775 H   0  0  0  0  0  0  0  0  0  0  0  0
  134.1288  140.0882  161.2286 H   0  0  0  0  0  0  0  0  0  0  0  0
  134.5318  137.6808  160.7921 H   0  0  0  0  0  0  0  0  0  0  0  0
  134.5423  138.0000  159.0411 H   0  0  0  0  0  0  0  0  0  0  0  0
  132.0643  138.7717  159.2481 H   0  0  0  0  0  0  0  0  0  0  0  0
  132.5861  136.8622  161.5486 H   0  0  0  0  0  0  0  0  0  0  0  0
  130.1186  137.9532  160.0044 H   0  0  0  0  0  0  0  0  0  0  0  0
  130.1081  137.6340  161.7555 H   0  0  0  0  0  0  0  0  0  0  0  0
  131.1857  136.0542  158.7045 H   0  0  0  0  0  0  0  0  0  0  0  0
  129.2468  131.1243  158.8650 H   0  0  0  0  0  0  0  0  0  0  0  0
  129.7552  132.6914  154.9140 H   0  0  0  0  0  0  0  0  0  0  0  0
  130.2742  131.1093  153.0712 H   0  0  0  0  0  0  0  0  0  0  0  0
  131.4955  129.0327  153.5715 H   0  0  0  0  0  0  0  0  0  0  0  0
  131.7403  129.9983  157.5992 H   0  0  0  0  0  0  0  0  0  0  0  0
  128.4491  135.3566  162.5932 H   0  0  0  0  0  0  0  0  0  0  0  0
  125.9937  135.1794  162.5461 H   0  0  0  0  0  0  0  0  0  0  0  0
  124.7790  135.4683  160.4237 H   0  0  0  0  0  0  0  0  0  0  0  0
  126.0193  135.9429  158.3500 H   0  0  0  0  0  0  0  0  0  0  0  0
  128.4745  136.1247  158.3981 H   0  0  0  0  0  0  0  0  0  0  0  0
  1  2  1  0
  1 29  1  0
  1 30  1  0
  1 31  1  0
  2  3  1  0
  2 32  1  0
  2 33  1  0
  3  4  1  0
  3 34  1  0
  3 35  1  0
  4  5  2  0
  4 36  1  0
  5  6  1  0
  5 37  1  0
  6  7  1  0
  6 38  1  0
  6 39  1  0
  7  8  1  1
  7  9  1  0
  7 23  1  0
  9 40  1  0
 10  9  1  0
 10 21  2  0
 10 11  1  0
 11 12  1  0
 11 13  1  0
 13 14  2  0
 13 41  1  0
 14 15  1  0
 14 21  1  0
 15 20  1  0
 15 16  2  0
 16 17  1  0
 16 42  1  0
 17 18  2  0
 17 43  1  0
 18 19  1  0
 18 44  1  0
 19 20  2  0
 20 45  1  0
 21 22  1  0
 23 28  1  0
 23 24  2  0
 24 25  1  0
 24 46  1  0
 25 26  2  0
 25 47  1  0
 26 27  1  0
 26 48  1  0
 27 28  2  0
 27 49  1  0
 28 50  1  0
M  CHG  1  21   1
M  END
>  <DOCK_score>  (1) 
-58.41185

>  <SMILES>  (1) 
CCCC=CC[C@H](Nc1[nH]cc(-c2cccnc2)[nH+]1)c1ccccc1

$$$$
