O=C1CC[C@H](NC(NC2CC(Cl)(Cl)C2)=[NH+]C2CC2)CN1
     RDKit          3D

 41 43  0  0  1  0  0  0  0  0999 V2000
  123.7419  133.7013  161.8327 O   0  0  0  0  0  0  0  0  0  0  0  0
  124.8832  133.9772  161.5296 C   0  0  0  0  0  0  0  0  0  0  0  0
  125.8027  132.8591  161.1300 C   0  0  0  0  0  0  0  0  0  0  0  0
  127.2577  133.3267  161.2124 C   0  0  0  0  0  0  0  0  0  0  0  0
  127.3770  134.6712  160.4847 C   0  0  2  0  0  0  0  0  0  0  0  0
  126.9580  134.5856  159.4822 H   0  0  0  0  0  0  0  0  0  0  0  0
  128.7870  135.0590  160.3966 N   0  0  0  0  0  0  0  0  0  0  0  0
  129.5407  134.6696  159.3147 C   0  0  0  0  0  0  0  0  0  0  0  0
  128.9712  133.9163  158.3155 N   0  0  0  0  0  0  0  0  0  0  0  0
  129.7743  133.5014  157.1628 C   0  0  0  0  0  0  0  0  0  0  0  0
  129.2176  132.2652  156.4370 C   0  0  0  0  0  0  0  0  0  0  0  0
  130.6736  131.7920  156.2920 C   0  0  0  0  0  0  0  0  0  0  0  0
  131.4802  132.3860  154.7929 Cl  0  0  0  0  0  0  0  0  0  0  0  0
  130.8884  130.0201  156.5474 Cl  0  0  0  0  0  0  0  0  0  0  0  0
  130.9895  132.6367  157.5376 C   0  0  0  0  0  0  0  0  0  0  0  0
  130.7953  135.0144  159.2364 N   0  0  0  0  0  0  0  0  0  0  0  0
  131.2090  135.1451  158.3688 H   0  0  0  0  0  0  0  0  0  0  0  0
  131.5803  135.2048  160.4586 C   0  0  0  0  0  0  0  0  0  0  0  0
  133.0888  135.4087  160.3046 C   0  0  0  0  0  0  0  0  0  0  0  0
  132.1929  136.5864  160.6965 C   0  0  0  0  0  0  0  0  0  0  0  0
  126.6033  135.7264  161.2759 C   0  0  0  0  0  0  0  0  0  0  0  0
  125.2546  135.2575  161.5685 N   0  0  0  0  0  0  0  0  0  0  0  0
  125.6559  132.0125  161.8007 H   0  0  0  0  0  0  0  0  0  0  0  0
  125.5780  132.5532  160.1083 H   0  0  0  0  0  0  0  0  0  0  0  0
  127.9068  132.5923  160.7354 H   0  0  0  0  0  0  0  0  0  0  0  0
  127.5454  133.4478  162.2568 H   0  0  0  0  0  0  0  0  0  0  0  0
  129.1889  135.5904  161.1016 H   0  0  0  0  0  0  0  0  0  0  0  0
  128.0376  133.6596  158.3739 H   0  0  0  0  0  0  0  0  0  0  0  0
  130.0163  134.3288  156.4955 H   0  0  0  0  0  0  0  0  0  0  0  0
  128.6107  131.6215  157.0738 H   0  0  0  0  0  0  0  0  0  0  0  0
  128.7369  132.4963  155.4864 H   0  0  0  0  0  0  0  0  0  0  0  0
  131.9392  133.1679  157.4756 H   0  0  0  0  0  0  0  0  0  0  0  0
  130.8676  132.0957  158.4760 H   0  0  0  0  0  0  0  0  0  0  0  0
  131.2339  134.6508  161.3309 H   0  0  0  0  0  0  0  0  0  0  0  0
  133.7348  134.9889  161.0757 H   0  0  0  0  0  0  0  0  0  0  0  0
  133.4971  135.4017  159.2939 H   0  0  0  0  0  0  0  0  0  0  0  0
  132.0123  137.3536  159.9436 H   0  0  0  0  0  0  0  0  0  0  0  0
  132.2495  136.9414  161.7256 H   0  0  0  0  0  0  0  0  0  0  0  0
  127.1248  135.9297  162.2112 H   0  0  0  0  0  0  0  0  0  0  0  0
  126.5465  136.6449  160.6917 H   0  0  0  0  0  0  0  0  0  0  0  0
  124.5853  135.9179  161.8067 H   0  0  0  0  0  0  0  0  0  0  0  0
  1  2  2  0
  2 22  1  0
  2  3  1  0
  3  4  1  0
  3 23  1  0
  3 24  1  0
  4  5  1  0
  4 25  1  0
  4 26  1  0
  5  6  1  6
  5  7  1  0
  5 21  1  0
  7 27  1  0
  8  7  1  0
  8  9  1  0
  8 16  2  0
  9 10  1  0
  9 28  1  0
 10 15  1  0
 10 11  1  0
 10 29  1  0
 11 12  1  0
 11 30  1  0
 11 31  1  0
 12 13  1  0
 12 14  1  0
 12 15  1  0
 15 32  1  0
 15 33  1  0
 16 17  1  0
 16 18  1  0
 18 20  1  0
 18 19  1  0
 18 34  1  0
 19 20  1  0
 19 35  1  0
 19 36  1  0
 20 37  1  0
 20 38  1  0
 21 22  1  0
 21 39  1  0
 21 40  1  0
 22 41  1  0
M  CHG  1  16   1
M  END
>  <DOCK_score>  (1) 
-45.014854

>  <SMILES>  (1) 
O=C1CC[C@H](NC(NC2CC(Cl)(Cl)C2)=[NH+]C2CC2)CN1

$$$$
