Nc1ccc(-c2c[nH]c(N[C@H](CNC3=CCCC3=O)c3c(F)ccc4c3CCC4)[nH+]2)cc1
     RDKit          3D

 59 63  0  0  1  0  0  0  0  0999 V2000
  131.3909  129.5693  152.0266 N   0  0  0  0  0  0  0  0  0  0  0  0
  131.0907  130.2850  153.1880 C   0  0  0  0  0  0  0  0  0  0  0  0
  130.4264  131.5033  153.0994 C   0  0  0  0  0  0  0  0  0  0  0  0
  130.1292  132.2123  154.2442 C   0  0  0  0  0  0  0  0  0  0  0  0
  130.4951  131.7066  155.4906 C   0  0  0  0  0  0  0  0  0  0  0  0
  130.1771  132.4678  156.7237 C   0  0  0  0  0  0  0  0  0  0  0  0
  129.4018  132.0374  157.7493 C   0  0  0  0  0  0  0  0  0  0  0  0
  129.3726  133.0498  158.6791 N   0  0  0  0  0  0  0  0  0  0  0  0
  128.8985  133.0395  159.5253 H   0  0  0  0  0  0  0  0  0  0  0  0
  130.1317  134.0691  158.1928 C   0  0  0  0  0  0  0  0  0  0  0  0
  130.3604  135.2779  158.8275 N   0  0  0  0  0  0  0  0  0  0  0  0
  129.7611  135.5422  160.1378 C   0  0  2  0  0  0  0  0  0  0  0  0
  129.8089  134.6403  160.7478 H   0  0  0  0  0  0  0  0  0  0  0  0
  128.2999  135.9580  159.9558 C   0  0  0  0  0  0  0  0  0  0  0  0
  127.5645  134.8793  159.2911 N   0  0  0  0  0  0  0  0  0  0  0  0
  127.1219  133.7752  160.0296 C   0  0  0  0  0  0  0  0  0  0  0  0
  126.4488  132.7534  159.5076 C   0  0  0  0  0  0  0  0  0  0  0  0
  126.1282  131.7338  160.5711 C   0  0  0  0  0  0  0  0  0  0  0  0
  126.7129  132.2975  161.8779 C   0  0  0  0  0  0  0  0  0  0  0  0
  127.3403  133.6127  161.4684 C   0  0  0  0  0  0  0  0  0  0  0  0
  127.9179  134.3902  162.1988 O   0  0  0  0  0  0  0  0  0  0  0  0
  130.5176  136.6518  160.8217 C   0  0  0  0  0  0  0  0  0  0  0  0
  130.5951  137.9004  160.2303 C   0  0  0  0  0  0  0  0  0  0  0  0
  129.9932  138.1247  159.0417 F   0  0  0  0  0  0  0  0  0  0  0  0
  131.2902  138.9192  160.8589 C   0  0  0  0  0  0  0  0  0  0  0  0
  131.9039  138.6865  162.0740 C   0  0  0  0  0  0  0  0  0  0  0  0
  131.8272  137.4374  162.6663 C   0  0  0  0  0  0  0  0  0  0  0  0
  131.1331  136.4189  162.0394 C   0  0  0  0  0  0  0  0  0  0  0  0
  131.1924  135.1602  162.8837 C   0  0  0  0  0  0  0  0  0  0  0  0
  131.6263  135.6387  164.2854 C   0  0  0  0  0  0  0  0  0  0  0  0
  132.4042  136.9343  163.9724 C   0  0  0  0  0  0  0  0  0  0  0  0
  130.6061  133.7198  157.0218 N   0  0  0  0  0  0  0  0  0  0  0  0
  131.1747  134.2683  156.4591 H   0  0  0  0  0  0  0  0  0  0  0  0
  131.1655  130.4873  155.5764 C   0  0  0  0  0  0  0  0  0  0  0  0
  131.4559  129.7793  154.4292 C   0  0  0  0  0  0  0  0  0  0  0  0
  131.1359  129.9219  151.1595 H   0  0  0  0  0  0  0  0  0  0  0  0
  131.8543  128.7194  152.0872 H   0  0  0  0  0  0  0  0  0  0  0  0
  130.1431  131.8948  152.1335 H   0  0  0  0  0  0  0  0  0  0  0  0
  129.6132  133.1585  154.1752 H   0  0  0  0  0  0  0  0  0  0  0  0
  128.9025  131.0826  157.8218 H   0  0  0  0  0  0  0  0  0  0  0  0
  130.9176  135.9500  158.4045 H   0  0  0  0  0  0  0  0  0  0  0  0
  127.8540  136.1547  160.9308 H   0  0  0  0  0  0  0  0  0  0  0  0
  128.2521  136.8600  159.3457 H   0  0  0  0  0  0  0  0  0  0  0  0
  127.3843  134.9301  158.3394 H   0  0  0  0  0  0  0  0  0  0  0  0
  126.1728  132.6654  158.4671 H   0  0  0  0  0  0  0  0  0  0  0  0
  126.5928  130.7771  160.3327 H   0  0  0  0  0  0  0  0  0  0  0  0
  125.0485  131.6150  160.6623 H   0  0  0  0  0  0  0  0  0  0  0  0
  127.4691  131.6229  162.2794 H   0  0  0  0  0  0  0  0  0  0  0  0
  125.9234  132.4633  162.6108 H   0  0  0  0  0  0  0  0  0  0  0  0
  131.3526  139.8947  160.3995 H   0  0  0  0  0  0  0  0  0  0  0  0
  132.4460  139.4819  162.5639 H   0  0  0  0  0  0  0  0  0  0  0  0
  131.9281  134.4667  162.4762 H   0  0  0  0  0  0  0  0  0  0  0  0
  130.2118  134.6867  162.9323 H   0  0  0  0  0  0  0  0  0  0  0  0
  132.2743  134.9034  164.7625 H   0  0  0  0  0  0  0  0  0  0  0  0
  130.7575  135.8494  164.9090 H   0  0  0  0  0  0  0  0  0  0  0  0
  132.2487  137.6691  164.7623 H   0  0  0  0  0  0  0  0  0  0  0  0
  133.4670  136.7197  163.8601 H   0  0  0  0  0  0  0  0  0  0  0  0
  131.4536  130.0957  156.5407 H   0  0  0  0  0  0  0  0  0  0  0  0
  131.9716  128.8327  154.4955 H   0  0  0  0  0  0  0  0  0  0  0  0
  1  2  1  0
  1 36  1  0
  1 37  1  0
  2 35  2  0
  2  3  1  0
  3  4  2  0
  3 38  1  0
  4  5  1  0
  4 39  1  0
  5  6  1  0
  5 34  2  0
  6 32  1  0
  6  7  2  0
  7  8  1  0
  7 40  1  0
  8  9  1  0
  8 10  1  0
 10 11  1  0
 10 32  2  0
 11 12  1  0
 11 41  1  0
 12 13  1  1
 12 14  1  0
 12 22  1  0
 14 15  1  0
 14 42  1  0
 14 43  1  0
 15 16  1  0
 15 44  1  0
 16 20  1  0
 16 17  2  0
 17 18  1  0
 17 45  1  0
 18 19  1  0
 18 46  1  0
 18 47  1  0
 19 20  1  0
 19 48  1  0
 19 49  1  0
 20 21  2  0
 22 28  1  0
 22 23  2  0
 23 24  1  0
 23 25  1  0
 25 26  2  0
 25 50  1  0
 26 27  1  0
 26 51  1  0
 27 31  1  0
 27 28  2  0
 28 29  1  0
 29 30  1  0
 29 52  1  0
 29 53  1  0
 30 31  1  0
 30 54  1  0
 30 55  1  0
 31 56  1  0
 31 57  1  0
 32 33  1  0
 34 35  1  0
 34 58  1  0
 35 59  1  0
M  CHG  1  32   1
M  END
>  <DOCK_score>  (1) 
-58.056694

>  <SMILES>  (1) 
Nc1ccc(-c2c[nH]c(N[C@H](CNC3=CCCC3=O)c3c(F)ccc4c3CCC4)[nH+]2)cc1

$$$$
