CNc1ccc(Sc2ccc[nH]c2=O)c(Nc2[nH]cc(-c3ccncc3)[nH+]2)c1
     RDKit          3D

 47 50  0  0  1  0  0  0  0  0999 V2000
  125.3854  134.5195  159.6890 C   0  0  0  0  0  0  0  0  0  0  0  0
  125.8266  135.5303  160.6533 N   0  0  0  0  0  0  0  0  0  0  0  0
  127.1407  136.0101  160.6124 C   0  0  0  0  0  0  0  0  0  0  0  0
  127.5582  136.9684  161.5271 C   0  0  0  0  0  0  0  0  0  0  0  0
  128.8551  137.4444  161.4898 C   0  0  0  0  0  0  0  0  0  0  0  0
  129.7440  136.9656  160.5385 C   0  0  0  0  0  0  0  0  0  0  0  0
  131.3972  137.5736  160.4913 S   0  0  0  0  0  0  0  0  0  0  0  0
  131.7187  137.9787  162.1757 C   0  0  0  0  0  0  0  0  0  0  0  0
  132.0386  139.2709  162.5353 C   0  0  0  0  0  0  0  0  0  0  0  0
  132.2890  139.5614  163.8842 C   0  0  0  0  0  0  0  0  0  0  0  0
  132.2156  138.5813  164.8130 C   0  0  0  0  0  0  0  0  0  0  0  0
  131.8998  137.3059  164.4609 N   0  0  0  0  0  0  0  0  0  0  0  0
  131.8525  136.6189  165.1441 H   0  0  0  0  0  0  0  0  0  0  0  0
  131.6467  136.9851  163.1778 C   0  0  0  0  0  0  0  0  0  0  0  0
  131.3603  135.8366  162.8802 O   0  0  0  0  0  0  0  0  0  0  0  0
  129.3276  136.0026  159.6187 C   0  0  0  0  0  0  0  0  0  0  0  0
  130.2225  135.5176  158.6574 N   0  0  0  0  0  0  0  0  0  0  0  0
  130.0928  134.2237  158.1811 C   0  0  0  0  0  0  0  0  0  0  0  0
  129.5873  133.1688  158.8781 N   0  0  0  0  0  0  0  0  0  0  0  0
  129.2565  133.1884  159.7897 H   0  0  0  0  0  0  0  0  0  0  0  0
  129.6324  132.0733  158.0538 C   0  0  0  0  0  0  0  0  0  0  0  0
  130.1639  132.4879  156.8759 C   0  0  0  0  0  0  0  0  0  0  0  0
  130.4047  131.6432  155.6821 C   0  0  0  0  0  0  0  0  0  0  0  0
  129.7843  131.9301  154.4618 C   0  0  0  0  0  0  0  0  0  0  0  0
  130.0399  131.1209  153.3749 C   0  0  0  0  0  0  0  0  0  0  0  0
  130.8483  130.0834  153.4780 N   0  0  0  0  0  0  0  0  0  0  0  0
  131.4496  129.7745  154.6119 C   0  0  0  0  0  0  0  0  0  0  0  0
  131.2540  130.5336  155.7464 C   0  0  0  0  0  0  0  0  0  0  0  0
  130.4310  133.8139  156.9829 N   0  0  0  0  0  0  0  0  0  0  0  0
  130.8130  134.3691  156.2854 H   0  0  0  0  0  0  0  0  0  0  0  0
  128.0243  135.5311  159.6548 C   0  0  0  0  0  0  0  0  0  0  0  0
  124.3405  134.2714  159.8752 H   0  0  0  0  0  0  0  0  0  0  0  0
  125.4911  134.9117  158.6776 H   0  0  0  0  0  0  0  0  0  0  0  0
  125.9965  133.6233  159.7969 H   0  0  0  0  0  0  0  0  0  0  0  0
  125.2079  135.8670  161.3202 H   0  0  0  0  0  0  0  0  0  0  0  0
  126.8679  137.3425  162.2686 H   0  0  0  0  0  0  0  0  0  0  0  0
  129.1766  138.1900  162.2018 H   0  0  0  0  0  0  0  0  0  0  0  0
  132.0957  140.0486  161.7882 H   0  0  0  0  0  0  0  0  0  0  0  0
  132.5412  140.5687  164.1814 H   0  0  0  0  0  0  0  0  0  0  0  0
  132.4102  138.8145  165.8494 H   0  0  0  0  0  0  0  0  0  0  0  0
  130.9334  136.0878  158.3252 H   0  0  0  0  0  0  0  0  0  0  0  0
  129.3078  131.0722  158.2960 H   0  0  0  0  0  0  0  0  0  0  0  0
  129.1179  132.7752  154.3712 H   0  0  0  0  0  0  0  0  0  0  0  0
  129.5685  131.3367  152.4274 H   0  0  0  0  0  0  0  0  0  0  0  0
  132.1038  128.9162  154.6516 H   0  0  0  0  0  0  0  0  0  0  0  0
  131.7493  130.2756  156.6707 H   0  0  0  0  0  0  0  0  0  0  0  0
  127.6979  134.7892  158.9411 H   0  0  0  0  0  0  0  0  0  0  0  0
  1  2  1  0
  1 32  1  0
  1 33  1  0
  1 34  1  0
  2  3  1  0
  2 35  1  0
  3 31  2  0
  3  4  1  0
  4  5  2  0
  4 36  1  0
  5  6  1  0
  5 37  1  0
  6  7  1  0
  6 16  2  0
  7  8  1  0
  8 14  1  0
  8  9  2  0
  9 10  1  0
  9 38  1  0
 10 11  2  0
 10 39  1  0
 11 12  1  0
 11 40  1  0
 12 13  1  0
 12 14  1  0
 14 15  2  0
 16 17  1  0
 16 31  1  0
 17 41  1  0
 18 17  1  0
 18 29  2  0
 18 19  1  0
 19 20  1  0
 19 21  1  0
 21 22  2  0
 21 42  1  0
 22 23  1  0
 22 29  1  0
 23 28  1  0
 23 24  2  0
 24 25  1  0
 24 43  1  0
 25 26  2  0
 25 44  1  0
 26 27  1  0
 27 28  2  0
 27 45  1  0
 28 46  1  0
 29 30  1  0
 31 47  1  0
M  CHG  1  29   1
M  END
>  <DOCK_score>  (1) 
-47.217384

>  <SMILES>  (1) 
CNc1ccc(Sc2ccc[nH]c2=O)c(Nc2[nH]cc(-c3ccncc3)[nH+]2)c1

$$$$
