[NH3+]CCc1c[nH]nc1-c1ccc(NCCc2cccc3ccccc23)o1
     RDKit          3D

 49 52  0  0  0  0  0  0  0  0999 V2000
  132.4036  137.0446  159.9843 N   0  0  0  0  0  0  0  0  0  0  0  0
  132.4851  138.0415  159.8504 H   0  0  0  0  0  0  0  0  0  0  0  0
  133.2847  136.6759  160.3094 H   0  0  0  0  0  0  0  0  0  0  0  0
  132.1581  136.6067  159.1091 H   0  0  0  0  0  0  0  0  0  0  0  0
  131.3597  136.7680  160.9801 C   0  0  0  0  0  0  0  0  0  0  0  0
  131.2362  135.2566  161.1831 C   0  0  0  0  0  0  0  0  0  0  0  0
  130.8695  134.6026  159.8759 C   0  0  0  0  0  0  0  0  0  0  0  0
  131.7344  134.1415  158.9472 C   0  0  0  0  0  0  0  0  0  0  0  0
  131.0162  133.6226  157.9277 N   0  0  0  0  0  0  0  0  0  0  0  0
  131.3793  133.2173  157.1247 H   0  0  0  0  0  0  0  0  0  0  0  0
  129.6567  133.7715  158.2301 N   0  0  0  0  0  0  0  0  0  0  0  0
  129.5614  134.3656  159.4034 C   0  0  0  0  0  0  0  0  0  0  0  0
  128.3074  134.7152  160.1022 C   0  0  0  0  0  0  0  0  0  0  0  0
  127.1289  134.0450  160.0061 C   0  0  0  0  0  0  0  0  0  0  0  0
  126.2080  134.7180  160.8331 C   0  0  0  0  0  0  0  0  0  0  0  0
  126.8680  135.7630  161.3917 C   0  0  0  0  0  0  0  0  0  0  0  0
  126.3247  136.6870  162.2768 N   0  0  0  0  0  0  0  0  0  0  0  0
  127.2044  137.4835  163.1358 C   0  0  0  0  0  0  0  0  0  0  0  0
  126.5499  138.8367  163.4210 C   0  0  0  0  0  0  0  0  0  0  0  0
  127.4549  139.6561  164.3046 C   0  0  0  0  0  0  0  0  0  0  0  0
  127.3411  139.5796  165.6589 C   0  0  0  0  0  0  0  0  0  0  0  0
  128.1720  140.3260  166.4921 C   0  0  0  0  0  0  0  0  0  0  0  0
  129.1151  141.1607  165.9756 C   0  0  0  0  0  0  0  0  0  0  0  0
  129.2587  141.2701  164.5822 C   0  0  0  0  0  0  0  0  0  0  0  0
  130.2213  142.1210  164.0123 C   0  0  0  0  0  0  0  0  0  0  0  0
  130.3320  142.2009  162.6582 C   0  0  0  0  0  0  0  0  0  0  0  0
  129.5035  141.4512  161.8250 C   0  0  0  0  0  0  0  0  0  0  0  0
  128.5605  140.6167  162.3410 C   0  0  0  0  0  0  0  0  0  0  0  0
  128.4165  140.5074  163.7348 C   0  0  0  0  0  0  0  0  0  0  0  0
  128.1372  135.7514  160.9500 O   0  0  0  0  0  0  0  0  0  0  0  0
  130.4078  137.1665  160.6288 H   0  0  0  0  0  0  0  0  0  0  0  0
  131.6249  137.2412  161.9256 H   0  0  0  0  0  0  0  0  0  0  0  0
  130.4615  135.0513  161.9219 H   0  0  0  0  0  0  0  0  0  0  0  0
  132.1880  134.8582  161.5342 H   0  0  0  0  0  0  0  0  0  0  0  0
  132.8120  134.1770  159.0106 H   0  0  0  0  0  0  0  0  0  0  0  0
  126.9356  133.1651  159.4103 H   0  0  0  0  0  0  0  0  0  0  0  0
  125.1734  134.4521  160.9922 H   0  0  0  0  0  0  0  0  0  0  0  0
  125.3631  136.8042  162.3257 H   0  0  0  0  0  0  0  0  0  0  0  0
  127.3710  136.9554  164.0746 H   0  0  0  0  0  0  0  0  0  0  0  0
  128.1586  137.6403  162.6327 H   0  0  0  0  0  0  0  0  0  0  0  0
  126.3834  139.3649  162.4822 H   0  0  0  0  0  0  0  0  0  0  0  0
  125.5956  138.6800  163.9241 H   0  0  0  0  0  0  0  0  0  0  0  0
  126.5981  138.9277  166.0944 H   0  0  0  0  0  0  0  0  0  0  0  0
  128.0635  140.2440  167.5635 H   0  0  0  0  0  0  0  0  0  0  0  0
  129.7500  141.7356  166.6335 H   0  0  0  0  0  0  0  0  0  0  0  0
  130.8696  142.7084  164.6456 H   0  0  0  0  0  0  0  0  0  0  0  0
  131.0725  142.8555  162.2229 H   0  0  0  0  0  0  0  0  0  0  0  0
  129.6118  141.5336  160.7536 H   0  0  0  0  0  0  0  0  0  0  0  0
  127.9262  140.0413  161.6829 H   0  0  0  0  0  0  0  0  0  0  0  0
  1  2  1  0
  1  3  1  0
  1  4  1  0
  1  5  1  0
  5  6  1  0
  5 31  1  0
  5 32  1  0
  6  7  1  0
  6 33  1  0
  6 34  1  0
  7 12  1  0
  7  8  2  0
  8  9  1  0
  8 35  1  0
  9 10  1  0
  9 11  1  0
 11 12  2  0
 12 13  1  0
 13 30  1  0
 13 14  2  0
 14 15  1  0
 14 36  1  0
 15 16  2  0
 15 37  1  0
 16 17  1  0
 16 30  1  0
 17 18  1  0
 17 38  1  0
 18 19  1  0
 18 39  1  0
 18 40  1  0
 19 20  1  0
 19 41  1  0
 19 42  1  0
 20 29  1  0
 20 21  2  0
 21 22  1  0
 21 43  1  0
 22 23  2  0
 22 44  1  0
 23 24  1  0
 23 45  1  0
 24 29  2  0
 24 25  1  0
 25 26  2  0
 25 46  1  0
 26 27  1  0
 26 47  1  0
 27 28  2  0
 27 48  1  0
 28 29  1  0
 28 49  1  0
M  CHG  1   1   1
M  END
>  <DOCK_score>  (1) 
-41.134293

>  <SMILES>  (1) 
[NH3+]CCc1c[nH]nc1-c1ccc(NCCc2cccc3ccccc23)o1

$$$$
