NC(=O)C(=C[C@@H]1CC=C(c2cccc(-n3cc(Cl)cn3)c2)C1)C1CC[NH2+]C2(CC2)C1
     RDKit          3D

 58 62  0  0  1  0  0  0  0  0999 V2000
  127.6375  134.9146  162.8342 N   0  0  0  0  0  0  0  0  0  0  0  0
  127.6551  135.7724  161.7950 C   0  0  0  0  0  0  0  0  0  0  0  0
  126.6834  136.4657  161.5622 O   0  0  0  0  0  0  0  0  0  0  0  0
  128.8496  135.8703  160.9421 C   0  0  0  0  0  0  0  0  0  0  0  0
  129.8123  136.7372  161.2428 C   0  0  0  0  0  0  0  0  0  0  0  0
  129.7396  137.5299  162.5224 C   0  0  2  0  0  0  0  0  0  0  0  0
  129.2146  136.9704  163.2967 H   0  0  0  0  0  0  0  0  0  0  0  0
  129.0740  138.9050  162.2852 C   0  0  0  0  0  0  0  0  0  0  0  0
  130.2229  139.8490  162.0167 C   0  0  0  0  0  0  0  0  0  0  0  0
  131.3682  139.3196  162.4098 C   0  0  0  0  0  0  0  0  0  0  0  0
  132.6840  139.9824  162.2903 C   0  0  0  0  0  0  0  0  0  0  0  0
  133.1680  140.3567  161.0356 C   0  0  0  0  0  0  0  0  0  0  0  0
  134.3964  140.9759  160.9267 C   0  0  0  0  0  0  0  0  0  0  0  0
  135.1514  141.2269  162.0572 C   0  0  0  0  0  0  0  0  0  0  0  0
  134.6784  140.8581  163.3102 C   0  0  0  0  0  0  0  0  0  0  0  0
  135.4482  141.1147  164.4534 N   0  0  0  0  0  0  0  0  0  0  0  0
  136.3167  142.1462  164.6188 C   0  0  0  0  0  0  0  0  0  0  0  0
  136.8533  142.0354  165.8568 C   0  0  0  0  0  0  0  0  0  0  0  0
  138.0225  143.1071  166.5624 Cl  0  0  0  0  0  0  0  0  0  0  0  0
  136.2987  140.9048  166.4677 C   0  0  0  0  0  0  0  0  0  0  0  0
  135.4544  140.3564  165.6315 N   0  0  0  0  0  0  0  0  0  0  0  0
  133.4431  140.2410  163.4306 C   0  0  0  0  0  0  0  0  0  0  0  0
  131.1508  137.9438  162.9986 C   0  0  0  0  0  0  0  0  0  0  0  0
  128.9825  134.9883  159.7274 C   0  0  1  0  0  0  0  0  0  0  0  0
  129.1105  135.8566  158.4731 C   0  0  0  0  0  0  0  0  0  0  0  0
  129.2516  134.9609  157.2415 C   0  0  0  0  0  0  0  0  0  0  0  0
  130.4875  134.1728  157.3412 N   0  0  0  0  0  0  0  0  0  0  0  0
  131.2806  134.7948  157.3889 H   0  0  0  0  0  0  0  0  0  0  0  0
  130.5739  133.5782  156.5306 H   0  0  0  0  0  0  0  0  0  0  0  0
  130.4400  133.3446  158.5540 C   0  0  0  0  0  0  0  0  0  0  0  0
  129.8040  131.9586  158.4432 C   0  0  0  0  0  0  0  0  0  0  0  0
  131.3202  132.0956  158.5977 C   0  0  0  0  0  0  0  0  0  0  0  0
  130.2359  134.1160  159.8616 C   0  0  0  0  0  0  0  0  0  0  0  0
  128.3830  134.3105  162.9771 H   0  0  0  0  0  0  0  0  0  0  0  0
  126.8795  134.9010  163.4392 H   0  0  0  0  0  0  0  0  0  0  0  0
  130.6461  136.8732  160.5700 H   0  0  0  0  0  0  0  0  0  0  0  0
  128.4095  138.8610  161.4222 H   0  0  0  0  0  0  0  0  0  0  0  0
  128.5246  139.2187  163.1727 H   0  0  0  0  0  0  0  0  0  0  0  0
  130.1218  140.8249  161.5650 H   0  0  0  0  0  0  0  0  0  0  0  0
  132.5810  140.1622  160.1501 H   0  0  0  0  0  0  0  0  0  0  0  0
  134.7694  141.2647  159.9552 H   0  0  0  0  0  0  0  0  0  0  0  0
  136.1123  141.7117  161.9659 H   0  0  0  0  0  0  0  0  0  0  0  0
  136.5393  142.9151  163.8937 H   0  0  0  0  0  0  0  0  0  0  0  0
  136.5251  140.5484  167.4618 H   0  0  0  0  0  0  0  0  0  0  0  0
  133.0719  139.9574  164.4043 H   0  0  0  0  0  0  0  0  0  0  0  0
  131.1867  137.9867  164.0871 H   0  0  0  0  0  0  0  0  0  0  0  0
  131.8984  137.2463  162.6208 H   0  0  0  0  0  0  0  0  0  0  0  0
  128.1022  134.3511  159.6414 H   0  0  0  0  0  0  0  0  0  0  0  0
  128.2212  136.4783  158.3698 H   0  0  0  0  0  0  0  0  0  0  0  0
  129.9903  136.4940  158.5612 H   0  0  0  0  0  0  0  0  0  0  0  0
  129.2876  135.5799  156.3451 H   0  0  0  0  0  0  0  0  0  0  0  0
  128.3961  134.2879  157.1834 H   0  0  0  0  0  0  0  0  0  0  0  0
  129.2416  131.5928  159.3021 H   0  0  0  0  0  0  0  0  0  0  0  0
  129.4227  131.6564  157.4678 H   0  0  0  0  0  0  0  0  0  0  0  0
  131.9363  131.8834  157.7239 H   0  0  0  0  0  0  0  0  0  0  0  0
  131.7556  131.8200  159.5581 H   0  0  0  0  0  0  0  0  0  0  0  0
  131.1029  134.7487  160.0520 H   0  0  0  0  0  0  0  0  0  0  0  0
  130.1057  133.4130  160.6843 H   0  0  0  0  0  0  0  0  0  0  0  0
  1  2  1  0
  1 34  1  0
  1 35  1  0
  2  3  2  0
  2  4  1  0
  4  5  2  0
  4 24  1  0
  5  6  1  0
  5 36  1  0
  6  7  1  1
  6 23  1  0
  6  8  1  0
  8  9  1  0
  8 37  1  0
  8 38  1  0
  9 10  2  0
  9 39  1  0
 10 11  1  0
 10 23  1  0
 11 22  1  0
 11 12  2  0
 12 13  1  0
 12 40  1  0
 13 14  2  0
 13 41  1  0
 14 15  1  0
 14 42  1  0
 15 16  1  0
 15 22  2  0
 16 21  1  0
 16 17  1  0
 17 18  2  0
 17 43  1  0
 18 19  1  0
 18 20  1  0
 20 21  2  0
 20 44  1  0
 22 45  1  0
 23 46  1  0
 23 47  1  0
 24 33  1  0
 24 25  1  0
 24 48  1  6
 25 26  1  0
 25 49  1  0
 25 50  1  0
 26 27  1  0
 26 51  1  0
 26 52  1  0
 27 28  1  0
 27 29  1  0
 27 30  1  0
 30 32  1  0
 30 31  1  0
 30 33  1  0
 31 32  1  0
 31 53  1  0
 31 54  1  0
 32 55  1  0
 32 56  1  0
 33 57  1  0
 33 58  1  0
M  CHG  1  27   1
M  END
>  <DOCK_score>  (1) 
-47.069164

>  <SMILES>  (1) 
NC(=O)C(=C[C@@H]1CC=C(c2cccc(-n3cc(Cl)cn3)c2)C1)C1CC[NH2+]C2(CC2)C1

$$$$
