c1ccc(C[C@@H](Nc2[nH]cc(-c3ccc(-c4ccccc4)cc3)[nH+]2)c2ccccc2)cc1
     RDKit          3D

 58 62  0  0  1  0  0  0  0  0999 V2000
  134.4183  140.0504  160.7022 C   0  0  0  0  0  0  0  0  0  0  0  0
  134.4346  139.5664  161.9969 C   0  0  0  0  0  0  0  0  0  0  0  0
  133.3804  138.8031  162.4628 C   0  0  0  0  0  0  0  0  0  0  0  0
  132.3050  138.5330  161.6373 C   0  0  0  0  0  0  0  0  0  0  0  0
  131.1528  137.7061  162.1471 C   0  0  0  0  0  0  0  0  0  0  0  0
  131.4186  136.2274  161.8572 C   0  0  1  0  0  0  0  0  0  0  0  0
  130.5854  135.6293  162.2259 H   0  0  0  0  0  0  0  0  0  0  0  0
  131.5594  136.0308  160.4123 N   0  0  0  0  0  0  0  0  0  0  0  0
  131.1921  134.8256  159.8387 C   0  0  0  0  0  0  0  0  0  0  0  0
  130.6842  133.7530  160.5049 N   0  0  0  0  0  0  0  0  0  0  0  0
  130.5161  133.6959  161.4585 H   0  0  0  0  0  0  0  0  0  0  0  0
  130.4538  132.7660  159.5779 C   0  0  0  0  0  0  0  0  0  0  0  0
  130.8275  133.2636  158.3722 C   0  0  0  0  0  0  0  0  0  0  0  0
  130.7572  132.5505  157.0744 C   0  0  0  0  0  0  0  0  0  0  0  0
  129.9777  133.0640  156.0378 C   0  0  0  0  0  0  0  0  0  0  0  0
  129.9161  132.4037  154.8306 C   0  0  0  0  0  0  0  0  0  0  0  0
  130.6246  131.2171  154.6476 C   0  0  0  0  0  0  0  0  0  0  0  0
  130.5534  130.5026  153.3501 C   0  0  0  0  0  0  0  0  0  0  0  0
  130.6924  129.1163  153.3057 C   0  0  0  0  0  0  0  0  0  0  0  0
  130.6202  128.4568  152.0956 C   0  0  0  0  0  0  0  0  0  0  0  0
  130.4209  129.1697  150.9270 C   0  0  0  0  0  0  0  0  0  0  0  0
  130.2875  130.5460  150.9646 C   0  0  0  0  0  0  0  0  0  0  0  0
  130.3526  131.2157  152.1695 C   0  0  0  0  0  0  0  0  0  0  0  0
  131.4003  130.7006  155.6859 C   0  0  0  0  0  0  0  0  0  0  0  0
  131.4662  131.3631  156.8916 C   0  0  0  0  0  0  0  0  0  0  0  0
  131.2710  134.5315  158.5640 N   0  0  0  0  0  0  0  0  0  0  0  0
  131.5969  135.1246  157.8690 H   0  0  0  0  0  0  0  0  0  0  0  0
  132.6881  135.8004  162.5481 C   0  0  0  0  0  0  0  0  0  0  0  0
  133.9004  135.9032  161.8920 C   0  0  0  0  0  0  0  0  0  0  0  0
  135.0652  135.5155  162.5274 C   0  0  0  0  0  0  0  0  0  0  0  0
  135.0167  135.0167  163.8157 C   0  0  0  0  0  0  0  0  0  0  0  0
  133.8038  134.9090  164.4700 C   0  0  0  0  0  0  0  0  0  0  0  0
  132.6394  135.3007  163.8360 C   0  0  0  0  0  0  0  0  0  0  0  0
  132.2862  139.0214  160.3444 C   0  0  0  0  0  0  0  0  0  0  0  0
  133.3429  139.7803  159.8769 C   0  0  0  0  0  0  0  0  0  0  0  0
  135.2437  140.6435  160.3371 H   0  0  0  0  0  0  0  0  0  0  0  0
  135.2728  139.7811  162.6432 H   0  0  0  0  0  0  0  0  0  0  0  0
  133.3948  138.4216  163.4731 H   0  0  0  0  0  0  0  0  0  0  0  0
  131.0481  137.8524  163.2221 H   0  0  0  0  0  0  0  0  0  0  0  0
  130.2347  138.0149  161.6473 H   0  0  0  0  0  0  0  0  0  0  0  0
  131.9097  136.7451  159.8575 H   0  0  0  0  0  0  0  0  0  0  0  0
  130.0520  131.7825  159.7716 H   0  0  0  0  0  0  0  0  0  0  0  0
  129.4253  133.9809  156.1807 H   0  0  0  0  0  0  0  0  0  0  0  0
  129.3158  132.8033  154.0267 H   0  0  0  0  0  0  0  0  0  0  0  0
  130.8521  128.5592  154.2170 H   0  0  0  0  0  0  0  0  0  0  0  0
  130.7234  127.3823  152.0605 H   0  0  0  0  0  0  0  0  0  0  0  0
  130.3696  128.6498  149.9818 H   0  0  0  0  0  0  0  0  0  0  0  0
  130.1325  131.0976  150.0491 H   0  0  0  0  0  0  0  0  0  0  0  0
  130.2487  132.2903  152.1974 H   0  0  0  0  0  0  0  0  0  0  0  0
  131.9492  129.7813  155.5443 H   0  0  0  0  0  0  0  0  0  0  0  0
  132.0666  130.9635  157.6953 H   0  0  0  0  0  0  0  0  0  0  0  0
  133.9379  136.2894  160.8841 H   0  0  0  0  0  0  0  0  0  0  0  0
  136.0129  135.6001  162.0163 H   0  0  0  0  0  0  0  0  0  0  0  0
  135.9264  134.7113  164.3112 H   0  0  0  0  0  0  0  0  0  0  0  0
  133.7658  134.5193  165.4765 H   0  0  0  0  0  0  0  0  0  0  0  0
  131.6917  135.2166  164.3472 H   0  0  0  0  0  0  0  0  0  0  0  0
  131.4458  138.8106  159.6996 H   0  0  0  0  0  0  0  0  0  0  0  0
  133.3280  140.1622  158.8667 H   0  0  0  0  0  0  0  0  0  0  0  0
  1 35  2  0
  1  2  1  0
  1 36  1  0
  2  3  2  0
  2 37  1  0
  3  4  1  0
  3 38  1  0
  4  5  1  0
  4 34  2  0
  5  6  1  0
  5 39  1  0
  5 40  1  0
  6  7  1  1
  6  8  1  0
  6 28  1  0
  8 41  1  0
  9  8  1  0
  9 26  2  0
  9 10  1  0
 10 11  1  0
 10 12  1  0
 12 13  2  0
 12 42  1  0
 13 14  1  0
 13 26  1  0
 14 25  1  0
 14 15  2  0
 15 16  1  0
 15 43  1  0
 16 17  2  0
 16 44  1  0
 17 18  1  0
 17 24  1  0
 18 23  1  0
 18 19  2  0
 19 20  1  0
 19 45  1  0
 20 21  2  0
 20 46  1  0
 21 22  1  0
 21 47  1  0
 22 23  2  0
 22 48  1  0
 23 49  1  0
 24 25  2  0
 24 50  1  0
 25 51  1  0
 26 27  1  0
 28 33  1  0
 28 29  2  0
 29 30  1  0
 29 52  1  0
 30 31  2  0
 30 53  1  0
 31 32  1  0
 31 54  1  0
 32 33  2  0
 32 55  1  0
 33 56  1  0
 34 35  1  0
 34 57  1  0
 35 58  1  0
M  CHG  1  26   1
M  END
>  <DOCK_score>  (1) 
-60.670204

>  <SMILES>  (1) 
c1ccc(C[C@@H](Nc2[nH]cc(-c3ccc(-c4ccccc4)cc3)[nH+]2)c2ccccc2)cc1

$$$$
