Nc1ccc(-c2c[nH]c(N[C@H](CNc3cccs3)c3ccccc3)[nH+]2)cc1
     RDKit          3D

 49 52  0  0  1  0  0  0  0  0999 V2000
  131.3353  129.8061  151.7758 N   0  0  0  0  0  0  0  0  0  0  0  0
  131.0389  130.4432  152.9831 C   0  0  0  0  0  0  0  0  0  0  0  0
  130.3540  131.6530  152.9795 C   0  0  0  0  0  0  0  0  0  0  0  0
  130.0600  132.2835  154.1700 C   0  0  0  0  0  0  0  0  0  0  0  0
  130.4500  131.7069  155.3777 C   0  0  0  0  0  0  0  0  0  0  0  0
  130.1352  132.3834  156.6599 C   0  0  0  0  0  0  0  0  0  0  0  0
  129.3851  131.8735  157.6679 C   0  0  0  0  0  0  0  0  0  0  0  0
  129.3492  132.8256  158.6591 N   0  0  0  0  0  0  0  0  0  0  0  0
  128.8885  132.7525  159.5096 H   0  0  0  0  0  0  0  0  0  0  0  0
  130.0791  133.8894  158.2263 C   0  0  0  0  0  0  0  0  0  0  0  0
  130.2929  135.0611  158.9320 N   0  0  0  0  0  0  0  0  0  0  0  0
  129.7093  135.2302  160.2651 C   0  0  2  0  0  0  0  0  0  0  0  0
  129.7857  134.2933  160.8167 H   0  0  0  0  0  0  0  0  0  0  0  0
  128.2371  135.6247  160.1309 C   0  0  0  0  0  0  0  0  0  0  0  0
  127.5137  134.5739  159.4109 N   0  0  0  0  0  0  0  0  0  0  0  0
  126.9257  133.5221  160.1162 C   0  0  0  0  0  0  0  0  0  0  0  0
  125.9504  132.7282  159.6508 C   0  0  0  0  0  0  0  0  0  0  0  0
  125.5273  131.7499  160.5367 C   0  0  0  0  0  0  0  0  0  0  0  0
  126.1528  131.7474  161.7130 C   0  0  0  0  0  0  0  0  0  0  0  0
  127.3558  133.0297  161.7491 S   0  0  0  0  0  0  0  0  0  0  0  0
  130.4535  136.3113  161.0057 C   0  0  0  0  0  0  0  0  0  0  0  0
  131.5481  135.9871  161.7852 C   0  0  0  0  0  0  0  0  0  0  0  0
  132.2334  136.9794  162.4612 C   0  0  0  0  0  0  0  0  0  0  0  0
  131.8186  138.2944  162.3648 C   0  0  0  0  0  0  0  0  0  0  0  0
  130.7206  138.6178  161.5895 C   0  0  0  0  0  0  0  0  0  0  0  0
  130.0381  137.6263  160.9101 C   0  0  0  0  0  0  0  0  0  0  0  0
  130.5470  133.6214  157.0316 N   0  0  0  0  0  0  0  0  0  0  0  0
  131.0994  134.2139  156.4981 H   0  0  0  0  0  0  0  0  0  0  0  0
  131.1415  130.4964  155.3786 C   0  0  0  0  0  0  0  0  0  0  0  0
  131.4288  129.8669  154.1859 C   0  0  0  0  0  0  0  0  0  0  0  0
  131.0633  130.2083  150.9356 H   0  0  0  0  0  0  0  0  0  0  0  0
  131.8133  128.9624  151.7772 H   0  0  0  0  0  0  0  0  0  0  0  0
  130.0524  132.0995  152.0435 H   0  0  0  0  0  0  0  0  0  0  0  0
  129.5274  133.2230  154.1669 H   0  0  0  0  0  0  0  0  0  0  0  0
  128.9107  130.9035  157.6899 H   0  0  0  0  0  0  0  0  0  0  0  0
  130.8290  135.7701  158.5437 H   0  0  0  0  0  0  0  0  0  0  0  0
  127.8029  135.7504  161.1229 H   0  0  0  0  0  0  0  0  0  0  0  0
  128.1607  136.5618  159.5795 H   0  0  0  0  0  0  0  0  0  0  0  0
  127.4429  134.6088  158.4441 H   0  0  0  0  0  0  0  0  0  0  0  0
  125.5277  132.8423  158.6636 H   0  0  0  0  0  0  0  0  0  0  0  0
  124.7492  131.0423  160.2916 H   0  0  0  0  0  0  0  0  0  0  0  0
  125.9542  131.0588  162.5210 H   0  0  0  0  0  0  0  0  0  0  0  0
  131.8700  134.9592  161.8635 H   0  0  0  0  0  0  0  0  0  0  0  0
  133.0912  136.7267  163.0667 H   0  0  0  0  0  0  0  0  0  0  0  0
  132.3523  139.0693  162.8950 H   0  0  0  0  0  0  0  0  0  0  0  0
  130.3966  139.6453  161.5142 H   0  0  0  0  0  0  0  0  0  0  0  0
  129.1804  137.8788  160.3044 H   0  0  0  0  0  0  0  0  0  0  0  0
  131.4486  130.0501  156.3129 H   0  0  0  0  0  0  0  0  0  0  0  0
  131.9612  128.9272  154.1863 H   0  0  0  0  0  0  0  0  0  0  0  0
  1  2  1  0
  1 31  1  0
  1 32  1  0
  2 30  2  0
  2  3  1  0
  3  4  2  0
  3 33  1  0
  4  5  1  0
  4 34  1  0
  5  6  1  0
  5 29  2  0
  6 27  1  0
  6  7  2  0
  7  8  1  0
  7 35  1  0
  8  9  1  0
  8 10  1  0
 10 11  1  0
 10 27  2  0
 11 12  1  0
 11 36  1  0
 12 13  1  1
 12 14  1  0
 12 21  1  0
 14 15  1  0
 14 37  1  0
 14 38  1  0
 15 16  1  0
 15 39  1  0
 16 20  1  0
 16 17  2  0
 17 18  1  0
 17 40  1  0
 18 19  2  0
 18 41  1  0
 19 20  1  0
 19 42  1  0
 21 26  1  0
 21 22  2  0
 22 23  1  0
 22 43  1  0
 23 24  2  0
 23 44  1  0
 24 25  1  0
 24 45  1  0
 25 26  2  0
 25 46  1  0
 26 47  1  0
 27 28  1  0
 29 30  1  0
 29 48  1  0
 30 49  1  0
M  CHG  1  27   1
M  END
>  <DOCK_score>  (1) 
-58.840866

>  <SMILES>  (1) 
Nc1ccc(-c2c[nH]c(N[C@H](CNc3cccs3)c3ccccc3)[nH+]2)cc1

$$$$
