CC1(F)CC([NH+]=C(N[C@@H]2CCC(=O)NC2)N[C@H]2CCC(=O)NC2)C1
     RDKit          3D

 51 53  0  0  1  0  0  0  0  0999 V2000
  133.5278  136.1501  162.8642 C   0  0  0  0  0  0  0  0  0  0  0  0
  133.4827  136.4734  161.3693 C   0  0  1  0  0  0  0  0  0  0  0  0
  134.5479  137.2806  160.9556 F   0  0  0  0  0  0  0  0  0  0  0  0
  133.2626  135.2394  160.4785 C   0  0  0  0  0  0  0  0  0  0  0  0
  131.7540  135.4941  160.6334 C   0  0  2  0  0  0  0  0  0  0  0  0
  130.9927  135.2777  159.4006 N   0  0  0  0  0  0  0  0  0  0  0  0
  131.4112  135.4299  158.5390 H   0  0  0  0  0  0  0  0  0  0  0  0
  129.7527  134.8804  159.4618 C   0  0  0  0  0  0  0  0  0  0  0  0
  129.2273  134.1094  158.4520 N   0  0  0  0  0  0  0  0  0  0  0  0
  130.0951  133.2047  157.6939 C   0  0  2  0  0  0  0  0  0  0  0  0
  130.8818  133.7780  157.2034 H   0  0  0  0  0  0  0  0  0  0  0  0
  129.2662  132.4576  156.6422 C   0  0  0  0  0  0  0  0  0  0  0  0
  130.2213  131.6617  155.7494 C   0  0  0  0  0  0  0  0  0  0  0  0
  131.1807  130.8781  156.5984 C   0  0  0  0  0  0  0  0  0  0  0  0
  131.7822  129.9584  156.0852 O   0  0  0  0  0  0  0  0  0  0  0  0
  131.4064  131.1391  157.8865 N   0  0  0  0  0  0  0  0  0  0  0  0
  130.7213  132.1808  158.6415 C   0  0  0  0  0  0  0  0  0  0  0  0
  128.9703  135.2323  160.5361 N   0  0  0  0  0  0  0  0  0  0  0  0
  127.5767  134.7858  160.6048 C   0  0  1  0  0  0  0  0  0  0  0  0
  127.1765  134.6800  159.5965 H   0  0  0  0  0  0  0  0  0  0  0  0
  127.5036  133.4375  161.3315 C   0  0  0  0  0  0  0  0  0  0  0  0
  126.0704  132.9095  161.2285 C   0  0  0  0  0  0  0  0  0  0  0  0
  125.0996  133.9881  161.6147 C   0  0  0  0  0  0  0  0  0  0  0  0
  123.9667  133.6646  161.9024 O   0  0  0  0  0  0  0  0  0  0  0  0
  125.4165  135.2827  161.6585 N   0  0  0  0  0  0  0  0  0  0  0  0
  126.7483  135.8078  161.3845 C   0  0  0  0  0  0  0  0  0  0  0  0
  132.1088  136.9687  160.8874 C   0  0  0  0  0  0  0  0  0  0  0  0
  134.3454  135.4566  163.0613 H   0  0  0  0  0  0  0  0  0  0  0  0
  133.6857  137.0683  163.4299 H   0  0  0  0  0  0  0  0  0  0  0  0
  132.5845  135.6948  163.1660 H   0  0  0  0  0  0  0  0  0  0  0  0
  133.5972  134.3072  160.9335 H   0  0  0  0  0  0  0  0  0  0  0  0
  133.6244  135.3673  159.4582 H   0  0  0  0  0  0  0  0  0  0  0  0
  131.3134  134.9948  161.4964 H   0  0  0  0  0  0  0  0  0  0  0  0
  128.2821  134.1646  158.2413 H   0  0  0  0  0  0  0  0  0  0  0  0
  128.5731  131.7770  157.1367 H   0  0  0  0  0  0  0  0  0  0  0  0
  128.7095  133.1736  156.0375 H   0  0  0  0  0  0  0  0  0  0  0  0
  129.6473  130.9767  155.1254 H   0  0  0  0  0  0  0  0  0  0  0  0
  130.7790  132.3485  155.1127 H   0  0  0  0  0  0  0  0  0  0  0  0
  132.0679  130.6021  158.3500 H   0  0  0  0  0  0  0  0  0  0  0  0
  131.4365  132.6830  159.2930 H   0  0  0  0  0  0  0  0  0  0  0  0
  129.9392  131.7285  159.2512 H   0  0  0  0  0  0  0  0  0  0  0  0
  129.3410  135.7761  161.2487 H   0  0  0  0  0  0  0  0  0  0  0  0
  128.1893  132.7309  160.8639 H   0  0  0  0  0  0  0  0  0  0  0  0
  127.7718  133.5704  162.3795 H   0  0  0  0  0  0  0  0  0  0  0  0
  125.8733  132.5948  160.2038 H   0  0  0  0  0  0  0  0  0  0  0  0
  125.9493  132.0582  161.8985 H   0  0  0  0  0  0  0  0  0  0  0  0
  124.7170  135.9146  161.8869 H   0  0  0  0  0  0  0  0  0  0  0  0
  127.2479  136.0327  162.3269 H   0  0  0  0  0  0  0  0  0  0  0  0
  126.6614  136.7231  160.7990 H   0  0  0  0  0  0  0  0  0  0  0  0
  132.1552  137.5694  159.9791 H   0  0  0  0  0  0  0  0  0  0  0  0
  131.5118  137.4325  161.6726 H   0  0  0  0  0  0  0  0  0  0  0  0
  1  2  1  0
  1 28  1  0
  1 29  1  0
  1 30  1  0
  2 27  1  0
  2  3  1  6
  2  4  1  0
  4  5  1  0
  4 31  1  0
  4 32  1  0
  5  6  1  0
  5 27  1  0
  5 33  1  1
  6  7  1  0
  8  6  2  0
  8  9  1  0
  8 18  1  0
  9 10  1  0
  9 34  1  0
 10 11  1  6
 10 17  1  0
 10 12  1  0
 12 13  1  0
 12 35  1  0
 12 36  1  0
 13 14  1  0
 13 37  1  0
 13 38  1  0
 14 15  2  0
 14 16  1  0
 16 17  1  0
 16 39  1  0
 17 40  1  0
 17 41  1  0
 18 19  1  0
 18 42  1  0
 19 20  1  6
 19 26  1  0
 19 21  1  0
 21 22  1  0
 21 43  1  0
 21 44  1  0
 22 23  1  0
 22 45  1  0
 22 46  1  0
 23 24  2  0
 23 25  1  0
 25 26  1  0
 25 47  1  0
 26 48  1  0
 26 49  1  0
 27 50  1  0
 27 51  1  0
M  CHG  1   6   1
M  END
>  <DOCK_score>  (1) 
-42.948063

>  <SMILES>  (1) 
CC1(F)CC([NH+]=C(N[C@@H]2CCC(=O)NC2)N[C@H]2CCC(=O)NC2)C1

$$$$
