CCc1ccc([C@H](Nc2[nH]cc(-c3ccc(N)cc3)[nH+]2)c2ccc(F)cc2)cc1
     RDKit          3D

 53 56  0  0  1  0  0  0  0  0999 V2000
  133.3502  140.8429  161.6961 C   0  0  0  0  0  0  0  0  0  0  0  0
  132.0233  140.4725  162.3617 C   0  0  0  0  0  0  0  0  0  0  0  0
  131.5702  139.1245  161.8632 C   0  0  0  0  0  0  0  0  0  0  0  0
  131.9582  137.9758  162.5271 C   0  0  0  0  0  0  0  0  0  0  0  0
  131.5386  136.7396  162.0726 C   0  0  0  0  0  0  0  0  0  0  0  0
  130.7396  136.6514  160.9481 C   0  0  0  0  0  0  0  0  0  0  0  0
  130.2872  135.3034  160.4489 C   0  0  2  0  0  0  0  0  0  0  0  0
  130.6858  134.5232  161.0972 H   0  0  0  0  0  0  0  0  0  0  0  0
  130.7753  135.0996  159.0827 N   0  0  0  0  0  0  0  0  0  0  0  0
  130.4831  133.9248  158.4111 C   0  0  0  0  0  0  0  0  0  0  0  0
  129.7504  132.8903  158.9059 N   0  0  0  0  0  0  0  0  0  0  0  0
  129.3428  132.8435  159.7848 H   0  0  0  0  0  0  0  0  0  0  0  0
  129.6953  131.9236  157.9299 C   0  0  0  0  0  0  0  0  0  0  0  0
  130.3952  132.3956  156.8689 C   0  0  0  0  0  0  0  0  0  0  0  0
  130.6086  131.6913  155.5808 C   0  0  0  0  0  0  0  0  0  0  0  0
  130.1552  132.2593  154.3913 C   0  0  0  0  0  0  0  0  0  0  0  0
  130.3593  131.6053  153.1945 C   0  0  0  0  0  0  0  0  0  0  0  0
  131.0061  130.3759  153.1748 C   0  0  0  0  0  0  0  0  0  0  0  0
  131.2066  129.7126  151.9618 N   0  0  0  0  0  0  0  0  0  0  0  0
  131.4548  129.8048  154.3604 C   0  0  0  0  0  0  0  0  0  0  0  0
  131.2579  130.4579  155.5588 C   0  0  0  0  0  0  0  0  0  0  0  0
  130.8618  133.6278  157.1919 N   0  0  0  0  0  0  0  0  0  0  0  0
  131.3930  134.1973  156.6136 H   0  0  0  0  0  0  0  0  0  0  0  0
  128.7814  135.2436  160.4583 C   0  0  0  0  0  0  0  0  0  0  0  0
  128.1152  134.7880  161.5807 C   0  0  0  0  0  0  0  0  0  0  0  0
  126.7341  134.7381  161.5925 C   0  0  0  0  0  0  0  0  0  0  0  0
  126.0180  135.1345  160.4757 C   0  0  0  0  0  0  0  0  0  0  0  0
  124.6682  135.0810  160.4842 F   0  0  0  0  0  0  0  0  0  0  0  0
  126.6866  135.5853  159.3501 C   0  0  0  0  0  0  0  0  0  0  0  0
  128.0674  135.6391  159.3425 C   0  0  0  0  0  0  0  0  0  0  0  0
  130.3559  137.7999  160.2811 C   0  0  0  0  0  0  0  0  0  0  0  0
  130.7712  139.0363  160.7386 C   0  0  0  0  0  0  0  0  0  0  0  0
  133.2160  140.8816  160.6151 H   0  0  0  0  0  0  0  0  0  0  0  0
  134.1020  140.0930  161.9423 H   0  0  0  0  0  0  0  0  0  0  0  0
  133.6778  141.8180  162.0567 H   0  0  0  0  0  0  0  0  0  0  0  0
  132.1574  140.4337  163.4428 H   0  0  0  0  0  0  0  0  0  0  0  0
  131.2715  141.2224  162.1156 H   0  0  0  0  0  0  0  0  0  0  0  0
  132.5863  138.0444  163.4031 H   0  0  0  0  0  0  0  0  0  0  0  0
  131.8386  135.8424  162.5935 H   0  0  0  0  0  0  0  0  0  0  0  0
  131.3034  135.7879  158.6486 H   0  0  0  0  0  0  0  0  0  0  0  0
  129.1911  130.9707  157.9958 H   0  0  0  0  0  0  0  0  0  0  0  0
  129.6480  133.2126  154.4065 H   0  0  0  0  0  0  0  0  0  0  0  0
  130.0120  132.0470  152.2722 H   0  0  0  0  0  0  0  0  0  0  0  0
  131.6587  128.8538  151.9476 H   0  0  0  0  0  0  0  0  0  0  0  0
  130.8943  130.1096  151.1344 H   0  0  0  0  0  0  0  0  0  0  0  0
  131.9573  128.8490  154.3430 H   0  0  0  0  0  0  0  0  0  0  0  0
  131.6066  130.0144  156.4796 H   0  0  0  0  0  0  0  0  0  0  0  0
  128.6740  134.4747  162.4501 H   0  0  0  0  0  0  0  0  0  0  0  0
  126.2138  134.3860  162.4710 H   0  0  0  0  0  0  0  0  0  0  0  0
  126.1291  135.8943  158.4783 H   0  0  0  0  0  0  0  0  0  0  0  0
  128.5891  135.9908  158.4646 H   0  0  0  0  0  0  0  0  0  0  0  0
  129.7318  137.7309  159.4023 H   0  0  0  0  0  0  0  0  0  0  0  0
  130.4716  139.9335  160.2174 H   0  0  0  0  0  0  0  0  0  0  0  0
  1  2  1  0
  1 33  1  0
  1 34  1  0
  1 35  1  0
  2  3  1  0
  2 36  1  0
  2 37  1  0
  3 32  2  0
  3  4  1  0
  4  5  2  0
  4 38  1  0
  5  6  1  0
  5 39  1  0
  6  7  1  0
  6 31  2  0
  7  8  1  1
  7  9  1  0
  7 24  1  0
  9 40  1  0
 10  9  1  0
 10 22  2  0
 10 11  1  0
 11 12  1  0
 11 13  1  0
 13 14  2  0
 13 41  1  0
 14 15  1  0
 14 22  1  0
 15 21  1  0
 15 16  2  0
 16 17  1  0
 16 42  1  0
 17 18  2  0
 17 43  1  0
 18 19  1  0
 18 20  1  0
 19 44  1  0
 19 45  1  0
 20 21  2  0
 20 46  1  0
 21 47  1  0
 22 23  1  0
 24 30  1  0
 24 25  2  0
 25 26  1  0
 25 48  1  0
 26 27  2  0
 26 49  1  0
 27 28  1  0
 27 29  1  0
 29 30  2  0
 29 50  1  0
 30 51  1  0
 31 32  1  0
 31 52  1  0
 32 53  1  0
M  CHG  1  22   1
M  END
>  <DOCK_score>  (1) 
-58.595539

>  <SMILES>  (1) 
CCc1ccc([C@H](Nc2[nH]cc(-c3ccc(N)cc3)[nH+]2)c2ccc(F)cc2)cc1

$$$$
