Cn1nc(/C2=C/CC/C=C(/C[C@@H](Nc3[nH]cc(-c4cccnc4)[nH+]3)c3ccnn3C)CC2)cc1N
     RDKit          3D

 67 71  0  0  1  0  0  0  0  0999 V2000
  127.1657  136.5441  161.8267 C   0  0  0  0  0  0  0  0  0  0  0  0
  127.6547  137.4564  162.8635 N   0  0  0  0  0  0  0  0  0  0  0  0
  128.9889  137.6106  163.2607 N   0  0  0  0  0  0  0  0  0  0  0  0
  129.0339  138.5159  164.2168 C   0  0  0  0  0  0  0  0  0  0  0  0
  130.2507  138.9767  164.9191 C   0  0  0  0  0  0  0  0  0  0  0  0
  130.2602  140.2288  165.3745 C   0  0  0  0  0  0  0  0  0  0  0  0
  131.4735  140.7754  166.0594 C   0  0  0  0  0  0  0  0  0  0  0  0
  132.5121  141.3219  165.1085 C   0  0  0  0  0  0  0  0  0  0  0  0
  132.3984  140.8054  163.7197 C   0  0  0  0  0  0  0  0  0  0  0  0
  132.4795  139.5230  163.4680 C   0  0  0  0  0  0  0  0  0  0  0  0
  132.3539  139.0337  162.0468 C   0  0  0  0  0  0  0  0  0  0  0  0
  133.6330  138.2956  161.6468 C   0  0  1  0  0  0  0  0  0  0  0  0
  133.9799  137.6899  162.4838 H   0  0  0  0  0  0  0  0  0  0  0  0
  133.3580  137.4293  160.4979 N   0  0  0  0  0  0  0  0  0  0  0  0
  132.4103  136.4252  160.5992 C   0  0  0  0  0  0  0  0  0  0  0  0
  131.6744  136.1388  161.7075 N   0  0  0  0  0  0  0  0  0  0  0  0
  131.7193  136.5971  162.5612 H   0  0  0  0  0  0  0  0  0  0  0  0
  130.8539  135.0827  161.3931 C   0  0  0  0  0  0  0  0  0  0  0  0
  131.1185  134.7485  160.1058 C   0  0  0  0  0  0  0  0  0  0  0  0
  130.4739  133.6557  159.3375 C   0  0  0  0  0  0  0  0  0  0  0  0
  129.0927  133.6584  159.1210 C   0  0  0  0  0  0  0  0  0  0  0  0
  128.5396  132.6160  158.3979 C   0  0  0  0  0  0  0  0  0  0  0  0
  129.3632  131.6142  157.9170 C   0  0  0  0  0  0  0  0  0  0  0  0
  130.6633  131.6382  158.1376 N   0  0  0  0  0  0  0  0  0  0  0  0
  131.2357  132.6126  158.8148 C   0  0  0  0  0  0  0  0  0  0  0  0
  132.0779  135.5901  159.6453 N   0  0  0  0  0  0  0  0  0  0  0  0
  132.4573  135.5758  158.7527 H   0  0  0  0  0  0  0  0  0  0  0  0
  134.6964  139.2975  161.2773 C   0  0  0  0  0  0  0  0  0  0  0  0
  134.6177  140.2153  160.2861 C   0  0  0  0  0  0  0  0  0  0  0  0
  135.8114  140.9444  160.2789 C   0  0  0  0  0  0  0  0  0  0  0  0
  136.5791  140.4808  161.2316 N   0  0  0  0  0  0  0  0  0  0  0  0
  135.8952  139.4440  161.8794 N   0  0  0  0  0  0  0  0  0  0  0  0
  136.3943  138.6559  163.0088 C   0  0  0  0  0  0  0  0  0  0  0  0
  132.7083  138.5378  164.5801 C   0  0  0  0  0  0  0  0  0  0  0  0
  131.3695  138.0124  165.0694 C   0  0  0  0  0  0  0  0  0  0  0  0
  127.7214  138.9728  164.4496 C   0  0  0  0  0  0  0  0  0  0  0  0
  126.8935  138.3046  163.6037 C   0  0  0  0  0  0  0  0  0  0  0  0
  125.5132  138.4614  163.5120 N   0  0  0  0  0  0  0  0  0  0  0  0
  127.1745  137.0520  160.8623 H   0  0  0  0  0  0  0  0  0  0  0  0
  127.8106  135.6666  161.7812 H   0  0  0  0  0  0  0  0  0  0  0  0
  126.1480  136.2351  162.0652 H   0  0  0  0  0  0  0  0  0  0  0  0
  129.3911  140.8598  165.2355 H   0  0  0  0  0  0  0  0  0  0  0  0
  131.9272  139.9879  166.6577 H   0  0  0  0  0  0  0  0  0  0  0  0
  131.1618  141.5801  166.7265 H   0  0  0  0  0  0  0  0  0  0  0  0
  133.4996  141.0750  165.4931 H   0  0  0  0  0  0  0  0  0  0  0  0
  132.4130  142.4070  165.0805 H   0  0  0  0  0  0  0  0  0  0  0  0
  132.2483  141.4975  162.9048 H   0  0  0  0  0  0  0  0  0  0  0  0
  131.5040  138.3557  161.9697 H   0  0  0  0  0  0  0  0  0  0  0  0
  132.2020  139.8840  161.3819 H   0  0  0  0  0  0  0  0  0  0  0  0
  133.8400  137.5592  159.6662 H   0  0  0  0  0  0  0  0  0  0  0  0
  130.1387  134.6065  162.0475 H   0  0  0  0  0  0  0  0  0  0  0  0
  128.4732  134.4540  159.5078 H   0  0  0  0  0  0  0  0  0  0  0  0
  127.4763  132.5854  158.2107 H   0  0  0  0  0  0  0  0  0  0  0  0
  128.9349  130.7993  157.3523 H   0  0  0  0  0  0  0  0  0  0  0  0
  132.3043  132.6001  158.9707 H   0  0  0  0  0  0  0  0  0  0  0  0
  133.7811  140.3599  159.6186 H   0  0  0  0  0  0  0  0  0  0  0  0
  136.0569  141.7511  159.6040 H   0  0  0  0  0  0  0  0  0  0  0  0
  136.9296  137.7832  162.6346 H   0  0  0  0  0  0  0  0  0  0  0  0
  137.0695  139.2668  163.6081 H   0  0  0  0  0  0  0  0  0  0  0  0
  135.5554  138.3311  163.6244 H   0  0  0  0  0  0  0  0  0  0  0  0
  133.3125  137.7048  164.2087 H   0  0  0  0  0  0  0  0  0  0  0  0
  133.2417  139.0180  165.4017 H   0  0  0  0  0  0  0  0  0  0  0  0
  131.1244  137.1035  164.5128 H   0  0  0  0  0  0  0  0  0  0  0  0
  131.4611  137.7457  166.1260 H   0  0  0  0  0  0  0  0  0  0  0  0
  127.4261  139.7205  165.1708 H   0  0  0  0  0  0  0  0  0  0  0  0
  125.0579  139.0961  164.0870 H   0  0  0  0  0  0  0  0  0  0  0  0
  125.0069  137.9359  162.8729 H   0  0  0  0  0  0  0  0  0  0  0  0
  1  2  1  0
  1 39  1  0
  1 40  1  0
  1 41  1  0
  2 37  1  0
  2  3  1  0
  3  4  2  0
  4  5  1  0
  4 36  1  0
  5 35  1  0
  5  6  2  0
  6  7  1  0
  6 42  1  0
  7  8  1  0
  7 43  1  0
  7 44  1  0
  8  9  1  0
  8 45  1  0
  8 46  1  0
  9 10  2  0
  9 47  1  0
 10 11  1  0
 10 34  1  0
 11 12  1  0
 11 48  1  0
 11 49  1  0
 12 13  1  1
 12 14  1  0
 12 28  1  0
 14 50  1  0
 15 14  1  0
 15 26  2  0
 15 16  1  0
 16 17  1  0
 16 18  1  0
 18 19  2  0
 18 51  1  0
 19 20  1  0
 19 26  1  0
 20 25  1  0
 20 21  2  0
 21 22  1  0
 21 52  1  0
 22 23  2  0
 22 53  1  0
 23 24  1  0
 23 54  1  0
 24 25  2  0
 25 55  1  0
 26 27  1  0
 28 32  1  0
 28 29  2  0
 29 30  1  0
 29 56  1  0
 30 31  2  0
 30 57  1  0
 31 32  1  0
 32 33  1  0
 33 58  1  0
 33 59  1  0
 33 60  1  0
 34 35  1  0
 34 61  1  0
 34 62  1  0
 35 63  1  0
 35 64  1  0
 36 37  2  0
 36 65  1  0
 37 38  1  0
 38 66  1  0
 38 67  1  0
M  CHG  1  26   1
M  END
>  <DOCK_score>  (1) 
-44.873253

>  <SMILES>  (1) 
Cn1nc(/C2=C/CC/C=C(/C[C@@H](Nc3[nH]cc(-c4cccnc4)[nH+]3)c3ccnn3C)CC2)cc1N

$$$$
