Cc1ccc([C@H](Cc2cnn3ccccc23)[NH2+]Cc2cnn3ccccc23)cc1
     RDKit          3D

 53 57  0  0  1  0  0  0  0  0999 V2000
  131.4432  130.4177  154.8161 C   0  0  0  0  0  0  0  0  0  0  0  0
  130.9041  131.2852  155.9242 C   0  0  0  0  0  0  0  0  0  0  0  0
  130.6797  130.7459  157.1771 C   0  0  0  0  0  0  0  0  0  0  0  0
  130.1862  131.5417  158.1939 C   0  0  0  0  0  0  0  0  0  0  0  0
  129.9173  132.8770  157.9578 C   0  0  0  0  0  0  0  0  0  0  0  0
  129.3791  133.7447  159.0662 C   0  0  2  0  0  0  0  0  0  0  0  0
  129.2683  133.1492  159.9725 H   0  0  0  0  0  0  0  0  0  0  0  0
  128.0171  134.3086  158.6569 C   0  0  0  0  0  0  0  0  0  0  0  0
  127.2653  134.7483  159.8867 C   0  0  0  0  0  0  0  0  0  0  0  0
  127.3013  136.0084  160.4615 C   0  0  0  0  0  0  0  0  0  0  0  0
  126.5194  136.0196  161.5185 N   0  0  0  0  0  0  0  0  0  0  0  0
  125.9415  134.7528  161.6691 N   0  0  0  0  0  0  0  0  0  0  0  0
  125.0700  134.2410  162.5871 C   0  0  0  0  0  0  0  0  0  0  0  0
  124.6479  132.9626  162.4970 C   0  0  0  0  0  0  0  0  0  0  0  0
  125.1092  132.1322  161.4621 C   0  0  0  0  0  0  0  0  0  0  0  0
  125.9813  132.6266  160.5423 C   0  0  0  0  0  0  0  0  0  0  0  0
  126.4053  133.9652  160.6468 C   0  0  0  0  0  0  0  0  0  0  0  0
  130.3116  134.8513  159.3185 N   0  0  0  0  0  0  0  0  0  0  0  0
  129.8289  135.5948  159.8003 H   0  0  0  0  0  0  0  0  0  0  0  0
  130.6694  135.1964  158.4404 H   0  0  0  0  0  0  0  0  0  0  0  0
  131.4262  134.3732  160.1474 C   0  0  0  0  0  0  0  0  0  0  0  0
  132.3828  135.5086  160.4061 C   0  0  0  0  0  0  0  0  0  0  0  0
  133.4723  135.8555  159.6234 C   0  0  0  0  0  0  0  0  0  0  0  0
  134.0709  136.8961  160.1598 N   0  0  0  0  0  0  0  0  0  0  0  0
  133.3836  137.2657  161.3226 N   0  0  0  0  0  0  0  0  0  0  0  0
  133.5857  138.2609  162.2352 C   0  0  0  0  0  0  0  0  0  0  0  0
  132.7586  138.4041  163.2917 C   0  0  0  0  0  0  0  0  0  0  0  0
  131.6737  137.5297  163.4696 C   0  0  0  0  0  0  0  0  0  0  0  0
  131.4593  136.5330  162.5685 C   0  0  0  0  0  0  0  0  0  0  0  0
  132.3321  136.3980  161.4721 C   0  0  0  0  0  0  0  0  0  0  0  0
  130.1367  133.4150  156.7035 C   0  0  0  0  0  0  0  0  0  0  0  0
  130.6344  132.6201  155.6879 C   0  0  0  0  0  0  0  0  0  0  0  0
  130.6137  129.9655  154.2723 H   0  0  0  0  0  0  0  0  0  0  0  0
  132.0359  131.0269  154.1334 H   0  0  0  0  0  0  0  0  0  0  0  0
  132.0700  129.6335  155.2406 H   0  0  0  0  0  0  0  0  0  0  0  0
  130.8905  129.7028  157.3616 H   0  0  0  0  0  0  0  0  0  0  0  0
  130.0109  131.1204  159.1727 H   0  0  0  0  0  0  0  0  0  0  0  0
  128.1615  135.1623  157.9947 H   0  0  0  0  0  0  0  0  0  0  0  0
  127.4461  133.5388  158.1378 H   0  0  0  0  0  0  0  0  0  0  0  0
  127.8789  136.8462  160.0998 H   0  0  0  0  0  0  0  0  0  0  0  0
  124.7066  134.8688  163.3871 H   0  0  0  0  0  0  0  0  0  0  0  0
  123.9557  132.5733  163.2289 H   0  0  0  0  0  0  0  0  0  0  0  0
  124.7733  131.1078  161.3967 H   0  0  0  0  0  0  0  0  0  0  0  0
  126.3445  131.9995  159.7413 H   0  0  0  0  0  0  0  0  0  0  0  0
  131.9477  133.5701  159.6268 H   0  0  0  0  0  0  0  0  0  0  0  0
  131.0397  134.0005  161.0959 H   0  0  0  0  0  0  0  0  0  0  0  0
  133.7798  135.3526  158.7185 H   0  0  0  0  0  0  0  0  0  0  0  0
  134.4160  138.9401  162.1104 H   0  0  0  0  0  0  0  0  0  0  0  0
  132.9345  139.1934  164.0076 H   0  0  0  0  0  0  0  0  0  0  0  0
  131.0143  137.6474  164.3168 H   0  0  0  0  0  0  0  0  0  0  0  0
  130.6291  135.8536  162.6929 H   0  0  0  0  0  0  0  0  0  0  0  0
  129.9224  134.4572  156.5179 H   0  0  0  0  0  0  0  0  0  0  0  0
  130.8100  133.0415  154.7092 H   0  0  0  0  0  0  0  0  0  0  0  0
  1  2  1  0
  1 33  1  0
  1 34  1  0
  1 35  1  0
  2 32  2  0
  2  3  1  0
  3  4  2  0
  3 36  1  0
  4  5  1  0
  4 37  1  0
  5  6  1  0
  5 31  2  0
  6  7  1  1
  6  8  1  0
  6 18  1  0
  8  9  1  0
  8 38  1  0
  8 39  1  0
  9 17  2  0
  9 10  1  0
 10 11  2  0
 10 40  1  0
 11 12  1  0
 12 17  1  0
 12 13  1  0
 13 14  2  0
 13 41  1  0
 14 15  1  0
 14 42  1  0
 15 16  2  0
 15 43  1  0
 16 17  1  0
 16 44  1  0
 18 19  1  0
 18 20  1  0
 18 21  1  0
 21 22  1  0
 21 45  1  0
 21 46  1  0
 22 30  2  0
 22 23  1  0
 23 24  2  0
 23 47  1  0
 24 25  1  0
 25 30  1  0
 25 26  1  0
 26 27  2  0
 26 48  1  0
 27 28  1  0
 27 49  1  0
 28 29  2  0
 28 50  1  0
 29 30  1  0
 29 51  1  0
 31 32  1  0
 31 52  1  0
 32 53  1  0
M  CHG  1  18   1
M  END
>  <DOCK_score>  (1) 
-45.277561

>  <SMILES>  (1) 
Cc1ccc([C@H](Cc2cnn3ccccc23)[NH2+]Cc2cnn3ccccc23)cc1

$$$$
