O=C1CC[C@H](NC(NC2CCCCCC2)=[NH+]C[C@@H](O)c2cccc(-c3cccc(F)c3)c2)CN1
     RDKit          3D

 70 73  0  0  1  0  0  0  0  0999 V2000
  123.7171  133.6367  161.5165 O   0  0  0  0  0  0  0  0  0  0  0  0
  124.8880  133.9034  161.3465 C   0  0  0  0  0  0  0  0  0  0  0  0
  125.7803  132.8457  160.7630 C   0  0  0  0  0  0  0  0  0  0  0  0
  127.2463  133.1968  161.0283 C   0  0  0  0  0  0  0  0  0  0  0  0
  127.4763  134.6575  160.6223 C   0  0  2  0  0  0  0  0  0  0  0  0
  127.1229  134.8164  159.6035 H   0  0  0  0  0  0  0  0  0  0  0  0
  128.9052  134.9705  160.7012 N   0  0  0  0  0  0  0  0  0  0  0  0
  129.7121  134.7807  159.6044 C   0  0  0  0  0  0  0  0  0  0  0  0
  129.1779  134.2972  158.4335 N   0  0  0  0  0  0  0  0  0  0  0  0
  130.0038  133.4943  157.5282 C   0  0  0  0  0  0  0  0  0  0  0  0
  129.1785  133.1509  156.2713 C   0  0  0  0  0  0  0  0  0  0  0  0
  130.1272  132.7951  155.1588 C   0  0  0  0  0  0  0  0  0  0  0  0
  130.3772  131.2781  155.0596 C   0  0  0  0  0  0  0  0  0  0  0  0
  130.5506  130.6098  156.4369 C   0  0  0  0  0  0  0  0  0  0  0  0
  131.3937  131.4320  157.3736 C   0  0  0  0  0  0  0  0  0  0  0  0
  130.4590  132.3061  158.2346 C   0  0  0  0  0  0  0  0  0  0  0  0
  130.9836  135.0591  159.6746 N   0  0  0  0  0  0  0  0  0  0  0  0
  131.5527  134.9252  158.9008 H   0  0  0  0  0  0  0  0  0  0  0  0
  131.5528  135.5742  160.9223 C   0  0  0  0  0  0  0  0  0  0  0  0
  133.0520  135.8165  160.7371 C   0  0  1  0  0  0  0  0  0  0  0  0
  133.5419  134.8790  160.4742 H   0  0  0  0  0  0  0  0  0  0  0  0
  133.2550  136.7695  159.6917 O   0  0  0  0  0  0  0  0  0  0  0  0
  133.6376  136.3465  162.0205 C   0  0  0  0  0  0  0  0  0  0  0  0
  134.6420  135.6445  162.6628 C   0  0  0  0  0  0  0  0  0  0  0  0
  135.1803  136.1225  163.8437 C   0  0  0  0  0  0  0  0  0  0  0  0
  134.7248  137.3089  164.3825 C   0  0  0  0  0  0  0  0  0  0  0  0
  133.7133  138.0197  163.7402 C   0  0  0  0  0  0  0  0  0  0  0  0
  133.2157  139.2929  164.3174 C   0  0  0  0  0  0  0  0  0  0  0  0
  133.2458  139.4944  165.6961 C   0  0  0  0  0  0  0  0  0  0  0  0
  132.7820  140.6798  166.2290 C   0  0  0  0  0  0  0  0  0  0  0  0
  132.2874  141.6686  165.3981 C   0  0  0  0  0  0  0  0  0  0  0  0
  132.2546  141.4749  164.0268 C   0  0  0  0  0  0  0  0  0  0  0  0
  131.7699  142.4439  163.2198 F   0  0  0  0  0  0  0  0  0  0  0  0
  132.7222  140.2929  163.4828 C   0  0  0  0  0  0  0  0  0  0  0  0
  133.1708  137.5307  162.5532 C   0  0  0  0  0  0  0  0  0  0  0  0
  126.6994  135.5603  161.5814 C   0  0  0  0  0  0  0  0  0  0  0  0
  125.3140  135.1203  161.6871 N   0  0  0  0  0  0  0  0  0  0  0  0
  125.5497  131.8841  161.2216 H   0  0  0  0  0  0  0  0  0  0  0  0
  125.6119  132.7824  159.6880 H   0  0  0  0  0  0  0  0  0  0  0  0
  127.8920  132.5460  160.4386 H   0  0  0  0  0  0  0  0  0  0  0  0
  127.4674  133.0713  162.0882 H   0  0  0  0  0  0  0  0  0  0  0  0
  129.2822  135.3117  161.5273 H   0  0  0  0  0  0  0  0  0  0  0  0
  128.2542  134.4878  158.2067 H   0  0  0  0  0  0  0  0  0  0  0  0
  130.8721  134.0814  157.2291 H   0  0  0  0  0  0  0  0  0  0  0  0
  128.5265  132.3031  156.4817 H   0  0  0  0  0  0  0  0  0  0  0  0
  128.5793  134.0135  155.9797 H   0  0  0  0  0  0  0  0  0  0  0  0
  131.0784  133.2985  155.3320 H   0  0  0  0  0  0  0  0  0  0  0  0
  129.7112  133.1465  154.2145 H   0  0  0  0  0  0  0  0  0  0  0  0
  131.2782  131.1079  154.4703 H   0  0  0  0  0  0  0  0  0  0  0  0
  129.5328  130.8154  154.5483 H   0  0  0  0  0  0  0  0  0  0  0  0
  131.0224  129.6368  156.2998 H   0  0  0  0  0  0  0  0  0  0  0  0
  129.5676  130.4630  156.8841 H   0  0  0  0  0  0  0  0  0  0  0  0
  132.0644  132.0701  156.7981 H   0  0  0  0  0  0  0  0  0  0  0  0
  131.9747  130.7723  158.0180 H   0  0  0  0  0  0  0  0  0  0  0  0
  130.9924  132.6129  159.1343 H   0  0  0  0  0  0  0  0  0  0  0  0
  129.5911  131.7142  158.5255 H   0  0  0  0  0  0  0  0  0  0  0  0
  131.3980  134.8473  161.7197 H   0  0  0  0  0  0  0  0  0  0  0  0
  131.0629  136.5117  161.1853 H   0  0  0  0  0  0  0  0  0  0  0  0
  132.9025  136.4939  158.8343 H   0  0  0  0  0  0  0  0  0  0  0  0
  135.0039  134.7177  162.2429 H   0  0  0  0  0  0  0  0  0  0  0  0
  135.9613  135.5684  164.3432 H   0  0  0  0  0  0  0  0  0  0  0  0
  135.1487  137.6833  165.3026 H   0  0  0  0  0  0  0  0  0  0  0  0
  133.6313  138.7233  166.3469 H   0  0  0  0  0  0  0  0  0  0  0  0
  132.8057  140.8361  167.2975 H   0  0  0  0  0  0  0  0  0  0  0  0
  131.9258  142.5949  165.8195 H   0  0  0  0  0  0  0  0  0  0  0  0
  132.7008  140.1434  162.4133 H   0  0  0  0  0  0  0  0  0  0  0  0
  132.3862  138.0776  162.0514 H   0  0  0  0  0  0  0  0  0  0  0  0
  127.1650  135.5246  162.5664 H   0  0  0  0  0  0  0  0  0  0  0  0
  126.7247  136.5853  161.2115 H   0  0  0  0  0  0  0  0  0  0  0  0
  124.6610  135.7520  162.0267 H   0  0  0  0  0  0  0  0  0  0  0  0
  1  2  2  0
  2 37  1  0
  2  3  1  0
  3  4  1  0
  3 38  1  0
  3 39  1  0
  4  5  1  0
  4 40  1  0
  4 41  1  0
  5  6  1  6
  5  7  1  0
  5 36  1  0
  7 42  1  0
  8  7  1  0
  8  9  1  0
  8 17  2  0
  9 10  1  0
  9 43  1  0
 10 16  1  0
 10 11  1  0
 10 44  1  0
 11 12  1  0
 11 45  1  0
 11 46  1  0
 12 13  1  0
 12 47  1  0
 12 48  1  0
 13 14  1  0
 13 49  1  0
 13 50  1  0
 14 15  1  0
 14 51  1  0
 14 52  1  0
 15 16  1  0
 15 53  1  0
 15 54  1  0
 16 55  1  0
 16 56  1  0
 17 18  1  0
 17 19  1  0
 19 20  1  0
 19 57  1  0
 19 58  1  0
 20 21  1  6
 20 22  1  0
 20 23  1  0
 22 59  1  0
 23 35  1  0
 23 24  2  0
 24 25  1  0
 24 60  1  0
 25 26  2  0
 25 61  1  0
 26 27  1  0
 26 62  1  0
 27 28  1  0
 27 35  2  0
 28 34  1  0
 28 29  2  0
 29 30  1  0
 29 63  1  0
 30 31  2  0
 30 64  1  0
 31 32  1  0
 31 65  1  0
 32 33  1  0
 32 34  2  0
 34 66  1  0
 35 67  1  0
 36 37  1  0
 36 68  1  0
 36 69  1  0
 37 70  1  0
M  CHG  1  17   1
M  END
>  <DOCK_score>  (1) 
-54.470596

>  <SMILES>  (1) 
O=C1CC[C@H](NC(NC2CCCCCC2)=[NH+]C[C@@H](O)c2cccc(-c3cccc(F)c3)c2)CN1

$$$$
