OC[C@H](Nc1[nH]cc(-c2ccccc2)[nH+]1)c1cccs1
     RDKit          3D

 36 38  0  0  1  0  0  0  0  0999 V2000
  129.8755  137.5903  158.8900 O   0  0  0  0  0  0  0  0  0  0  0  0
  129.7017  136.6139  159.9188 C   0  0  0  0  0  0  0  0  0  0  0  0
  129.2863  135.2814  159.2923 C   0  0  2  0  0  0  0  0  0  0  0  0
  129.1537  134.5366  160.0770 H   0  0  0  0  0  0  0  0  0  0  0  0
  130.3269  134.8327  158.3640 N   0  0  0  0  0  0  0  0  0  0  0  0
  130.1722  133.6429  157.6733 C   0  0  0  0  0  0  0  0  0  0  0  0
  129.4862  132.5535  158.1147 N   0  0  0  0  0  0  0  0  0  0  0  0
  129.0213  132.4719  158.9621 H   0  0  0  0  0  0  0  0  0  0  0  0
  129.5728  131.5912  157.1382 C   0  0  0  0  0  0  0  0  0  0  0  0
  130.3037  132.1217  156.1266 C   0  0  0  0  0  0  0  0  0  0  0  0
  130.6523  131.4452  154.8534 C   0  0  0  0  0  0  0  0  0  0  0  0
  130.2376  131.9859  153.6376 C   0  0  0  0  0  0  0  0  0  0  0  0
  130.5707  131.3556  152.4558 C   0  0  0  0  0  0  0  0  0  0  0  0
  131.3032  130.1819  152.4774 C   0  0  0  0  0  0  0  0  0  0  0  0
  131.7127  129.6383  153.6813 C   0  0  0  0  0  0  0  0  0  0  0  0
  131.3910  130.2633  154.8688 C   0  0  0  0  0  0  0  0  0  0  0  0
  130.6622  133.3798  156.4864 N   0  0  0  0  0  0  0  0  0  0  0  0
  131.1928  133.9889  155.9494 H   0  0  0  0  0  0  0  0  0  0  0  0
  127.9897  135.4601  158.5452 C   0  0  0  0  0  0  0  0  0  0  0  0
  126.7728  135.2997  159.0674 C   0  0  0  0  0  0  0  0  0  0  0  0
  125.7269  135.5212  158.1882 C   0  0  0  0  0  0  0  0  0  0  0  0
  126.0945  135.8527  156.9495 C   0  0  0  0  0  0  0  0  0  0  0  0
  127.8497  135.9046  156.8492 S   0  0  0  0  0  0  0  0  0  0  0  0
  130.5510  137.3588  158.2379 H   0  0  0  0  0  0  0  0  0  0  0  0
  128.9274  136.9478  160.6095 H   0  0  0  0  0  0  0  0  0  0  0  0
  130.6395  136.4847  160.4592 H   0  0  0  0  0  0  0  0  0  0  0  0
  131.1245  135.3691  158.2332 H   0  0  0  0  0  0  0  0  0  0  0  0
  129.1386  130.6027  157.1686 H   0  0  0  0  0  0  0  0  0  0  0  0
  129.6611  132.8989  153.6200 H   0  0  0  0  0  0  0  0  0  0  0  0
  130.2545  131.7766  151.5129 H   0  0  0  0  0  0  0  0  0  0  0  0
  131.5579  129.6898  151.5504 H   0  0  0  0  0  0  0  0  0  0  0  0
  132.2851  128.7225  153.6919 H   0  0  0  0  0  0  0  0  0  0  0  0
  131.7115  129.8378  155.8084 H   0  0  0  0  0  0  0  0  0  0  0  0
  126.6156  135.0208  160.0989 H   0  0  0  0  0  0  0  0  0  0  0  0
  124.6918  135.4288  158.4819 H   0  0  0  0  0  0  0  0  0  0  0  0
  125.4179  136.0583  156.1332 H   0  0  0  0  0  0  0  0  0  0  0  0
  1  2  1  0
  1 24  1  0
  2  3  1  0
  2 25  1  0
  2 26  1  0
  3  4  1  1
  3  5  1  0
  3 19  1  0
  5 27  1  0
  6  5  1  0
  6 17  2  0
  6  7  1  0
  7  8  1  0
  7  9  1  0
  9 10  2  0
  9 28  1  0
 10 11  1  0
 10 17  1  0
 11 16  1  0
 11 12  2  0
 12 13  1  0
 12 29  1  0
 13 14  2  0
 13 30  1  0
 14 15  1  0
 14 31  1  0
 15 16  2  0
 15 32  1  0
 16 33  1  0
 17 18  1  0
 19 23  1  0
 19 20  2  0
 20 21  1  0
 20 34  1  0
 21 22  2  0
 21 35  1  0
 22 23  1  0
 22 36  1  0
M  CHG  1  17   1
M  END
>  <DOCK_score>  (1) 
-59.284161

>  <SMILES>  (1) 
OC[C@H](Nc1[nH]cc(-c2ccccc2)[nH+]1)c1cccs1

$$$$
