O[C@H](c1ccccc1)C(Cc1ccccc1)[NH2+]C1=CCCC1
     RDKit          3D

 46 48  0  0  1  0  0  0  0  0999 V2000
  129.7931  136.3664  159.9090 O   0  0  0  0  0  0  0  0  0  0  0  0
  129.4476  135.8391  158.6265 C   0  0  2  0  0  0  0  0  0  0  0  0
  129.8337  136.4966  157.8474 H   0  0  0  0  0  0  0  0  0  0  0  0
  127.9480  135.7471  158.5086 C   0  0  0  0  0  0  0  0  0  0  0  0
  127.3422  135.8821  157.2735 C   0  0  0  0  0  0  0  0  0  0  0  0
  125.9670  135.7938  157.1648 C   0  0  0  0  0  0  0  0  0  0  0  0
  125.1970  135.5787  158.2926 C   0  0  0  0  0  0  0  0  0  0  0  0
  125.8024  135.4488  159.5285 C   0  0  0  0  0  0  0  0  0  0  0  0
  127.1779  135.5333  159.6366 C   0  0  0  0  0  0  0  0  0  0  0  0
  130.0583  134.4455  158.4668 C   0  0  1  0  0  0  0  0  0  0  0  0
  129.6884  133.8810  157.0935 C   0  0  0  0  0  0  0  0  0  0  0  0
  130.2898  132.5082  156.9361 C   0  0  0  0  0  0  0  0  0  0  0  0
  130.6428  132.0480  155.6813 C   0  0  0  0  0  0  0  0  0  0  0  0
  131.1989  130.7907  155.5374 C   0  0  0  0  0  0  0  0  0  0  0  0
  131.3923  129.9894  156.6471 C   0  0  0  0  0  0  0  0  0  0  0  0
  131.0345  130.4475  157.9012 C   0  0  0  0  0  0  0  0  0  0  0  0
  130.4832  131.7070  158.0458 C   0  0  0  0  0  0  0  0  0  0  0  0
  131.5201  134.5351  158.5816 N   0  0  0  0  0  0  0  0  0  0  0  0
  131.8448  135.3632  158.1051 H   0  0  0  0  0  0  0  0  0  0  0  0
  131.9411  133.7193  158.1630 H   0  0  0  0  0  0  0  0  0  0  0  0
  131.8779  134.6037  159.9314 C   0  0  0  0  0  0  0  0  0  0  0  0
  132.5318  135.5954  160.4723 C   0  0  0  0  0  0  0  0  0  0  0  0
  132.7582  135.3578  161.9473 C   0  0  0  0  0  0  0  0  0  0  0  0
  132.4957  133.8469  162.1467 C   0  0  0  0  0  0  0  0  0  0  0  0
  131.5592  133.5394  160.9553 C   0  0  0  0  0  0  0  0  0  0  0  0
  130.7413  136.5097  160.0328 H   0  0  0  0  0  0  0  0  0  0  0  0
  127.9436  136.0536  156.3928 H   0  0  0  0  0  0  0  0  0  0  0  0
  125.4939  135.8956  156.1994 H   0  0  0  0  0  0  0  0  0  0  0  0
  124.1224  135.5123  158.2081 H   0  0  0  0  0  0  0  0  0  0  0  0
  125.2008  135.2810  160.4095 H   0  0  0  0  0  0  0  0  0  0  0  0
  127.6510  135.4318  160.6021 H   0  0  0  0  0  0  0  0  0  0  0  0
  129.6722  133.7881  159.2458 H   0  0  0  0  0  0  0  0  0  0  0  0
  128.6037  133.8144  157.0082 H   0  0  0  0  0  0  0  0  0  0  0  0
  130.0744  134.5384  156.3144 H   0  0  0  0  0  0  0  0  0  0  0  0
  130.4875  132.6723  154.8138 H   0  0  0  0  0  0  0  0  0  0  0  0
  131.4781  130.4327  154.5574 H   0  0  0  0  0  0  0  0  0  0  0  0
  131.8227  129.0053  156.5341 H   0  0  0  0  0  0  0  0  0  0  0  0
  131.1852  129.8214  158.7682 H   0  0  0  0  0  0  0  0  0  0  0  0
  130.2033  132.0647  159.0256 H   0  0  0  0  0  0  0  0  0  0  0  0
  132.8669  136.4711  159.9362 H   0  0  0  0  0  0  0  0  0  0  0  0
  132.0568  135.9464  162.5386 H   0  0  0  0  0  0  0  0  0  0  0  0
  133.7848  135.6038  162.2184 H   0  0  0  0  0  0  0  0  0  0  0  0
  131.9951  133.6589  163.0966 H   0  0  0  0  0  0  0  0  0  0  0  0
  133.4214  133.2761  162.0744 H   0  0  0  0  0  0  0  0  0  0  0  0
  131.7706  132.5490  160.5521 H   0  0  0  0  0  0  0  0  0  0  0  0
  130.5162  133.6077  161.2647 H   0  0  0  0  0  0  0  0  0  0  0  0
  1  2  1  0
  1 26  1  0
  2  3  1  6
  2  4  1  0
  2 10  1  0
  4  9  1  0
  4  5  2  0
  5  6  1  0
  5 27  1  0
  6  7  2  0
  6 28  1  0
  7  8  1  0
  7 29  1  0
  8  9  2  0
  8 30  1  0
  9 31  1  0
 10 11  1  0
 10 18  1  0
 10 32  1  1
 11 12  1  0
 11 33  1  0
 11 34  1  0
 12 17  1  0
 12 13  2  0
 13 14  1  0
 13 35  1  0
 14 15  2  0
 14 36  1  0
 15 16  1  0
 15 37  1  0
 16 17  2  0
 16 38  1  0
 17 39  1  0
 18 19  1  0
 18 20  1  0
 18 21  1  0
 21 25  1  0
 21 22  2  0
 22 23  1  0
 22 40  1  0
 23 24  1  0
 23 41  1  0
 23 42  1  0
 24 25  1  0
 24 43  1  0
 24 44  1  0
 25 45  1  0
 25 46  1  0
M  CHG  1  18   1
M  END
>  <DOCK_score>  (1) 
-56.264545

>  <SMILES>  (1) 
O[C@H](c1ccccc1)C(Cc1ccccc1)[NH2+]C1=CCCC1

$$$$
