O=C1CC[C@H](NC(NC2CC=CC2)=[NH+][C@H]2COc3cc(NCc4cccc(O)c4)ccc3C2)CN1
     RDKit          3D

 69 73  0  0  1  0  0  0  0  0999 V2000
  124.2308  133.9606  160.6015 O   0  0  0  0  0  0  0  0  0  0  0  0
  125.4134  134.1218  160.3858 C   0  0  0  0  0  0  0  0  0  0  0  0
  126.1797  132.9973  159.7504 C   0  0  0  0  0  0  0  0  0  0  0  0
  127.6815  133.2076  159.9583 C   0  0  0  0  0  0  0  0  0  0  0  0
  128.0284  134.6481  159.5631 C   0  0  2  0  0  0  0  0  0  0  0  0
  127.6475  134.8547  158.5630 H   0  0  0  0  0  0  0  0  0  0  0  0
  129.4822  134.8274  159.5856 N   0  0  0  0  0  0  0  0  0  0  0  0
  130.2822  134.0601  158.7722 C   0  0  0  0  0  0  0  0  0  0  0  0
  129.8031  133.6082  157.5654 N   0  0  0  0  0  0  0  0  0  0  0  0
  130.6554  132.7906  156.6987 C   0  0  0  0  0  0  0  0  0  0  0  0
  130.1760  132.8530  155.2299 C   0  0  0  0  0  0  0  0  0  0  0  0
  130.3935  131.4557  154.6958 C   0  0  0  0  0  0  0  0  0  0  0  0
  130.5630  130.6015  155.6682 C   0  0  0  0  0  0  0  0  0  0  0  0
  130.4860  131.2861  157.0130 C   0  0  0  0  0  0  0  0  0  0  0  0
  131.4947  133.7611  159.1452 N   0  0  0  0  0  0  0  0  0  0  0  0
  132.0591  133.2198  158.5714 H   0  0  0  0  0  0  0  0  0  0  0  0
  132.0052  134.2427  160.4312 C   0  0  1  0  0  0  0  0  0  0  0  0
  131.1822  134.3428  161.1389 H   0  0  0  0  0  0  0  0  0  0  0  0
  133.0412  133.2532  160.9796 C   0  0  0  0  0  0  0  0  0  0  0  0
  133.4432  133.6949  162.2767 O   0  0  0  0  0  0  0  0  0  0  0  0
  133.8030  134.9970  162.4216 C   0  0  0  0  0  0  0  0  0  0  0  0
  134.5242  135.3625  163.5526 C   0  0  0  0  0  0  0  0  0  0  0  0
  134.9022  136.6828  163.7411 C   0  0  0  0  0  0  0  0  0  0  0  0
  135.6261  137.0486  164.8780 N   0  0  0  0  0  0  0  0  0  0  0  0
  136.3943  138.2960  164.8874 C   0  0  0  0  0  0  0  0  0  0  0  0
  137.0780  138.4550  166.2210 C   0  0  0  0  0  0  0  0  0  0  0  0
  136.4371  139.1187  167.2511 C   0  0  0  0  0  0  0  0  0  0  0  0
  137.0594  139.2613  168.4774 C   0  0  0  0  0  0  0  0  0  0  0  0
  138.3281  138.7505  168.6732 C   0  0  0  0  0  0  0  0  0  0  0  0
  138.9752  138.0893  167.6398 C   0  0  0  0  0  0  0  0  0  0  0  0
  140.2234  137.5863  167.8295 O   0  0  0  0  0  0  0  0  0  0  0  0
  138.3463  137.9425  166.4117 C   0  0  0  0  0  0  0  0  0  0  0  0
  134.5582  137.6414  162.7955 C   0  0  0  0  0  0  0  0  0  0  0  0
  133.8439  137.2754  161.6734 C   0  0  0  0  0  0  0  0  0  0  0  0
  133.4656  135.9561  161.4818 C   0  0  0  0  0  0  0  0  0  0  0  0
  132.6887  135.5988  160.2397 C   0  0  0  0  0  0  0  0  0  0  0  0
  127.3783  135.6012  160.5668 C   0  0  0  0  0  0  0  0  0  0  0  0
  125.9636  135.2882  160.7251 N   0  0  0  0  0  0  0  0  0  0  0  0
  125.8800  132.0528  160.2048 H   0  0  0  0  0  0  0  0  0  0  0  0
  125.9636  132.9699  158.6825 H   0  0  0  0  0  0  0  0  0  0  0  0
  127.9334  133.0437  161.0061 H   0  0  0  0  0  0  0  0  0  0  0  0
  128.2397  132.5106  159.3334 H   0  0  0  0  0  0  0  0  0  0  0  0
  129.8804  135.4875  160.1742 H   0  0  0  0  0  0  0  0  0  0  0  0
  128.9006  133.8307  157.2877 H   0  0  0  0  0  0  0  0  0  0  0  0
  131.6994  133.0927  156.7827 H   0  0  0  0  0  0  0  0  0  0  0  0
  129.1189  133.1156  155.1863 H   0  0  0  0  0  0  0  0  0  0  0  0
  130.7704  133.5724  154.6666 H   0  0  0  0  0  0  0  0  0  0  0  0
  130.4072  131.1980  153.6470 H   0  0  0  0  0  0  0  0  0  0  0  0
  130.7353  129.5444  155.5297 H   0  0  0  0  0  0  0  0  0  0  0  0
  131.2912  130.9406  157.6615 H   0  0  0  0  0  0  0  0  0  0  0  0
  129.5183  131.1022  157.4798 H   0  0  0  0  0  0  0  0  0  0  0  0
  132.5987  132.2596  161.0503 H   0  0  0  0  0  0  0  0  0  0  0  0
  133.9070  133.2237  160.3179 H   0  0  0  0  0  0  0  0  0  0  0  0
  134.7910  134.6158  164.2857 H   0  0  0  0  0  0  0  0  0  0  0  0
  135.6203  136.4768  165.6615 H   0  0  0  0  0  0  0  0  0  0  0  0
  137.1435  138.2673  164.0961 H   0  0  0  0  0  0  0  0  0  0  0  0
  135.7222  139.1379  164.7210 H   0  0  0  0  0  0  0  0  0  0  0  0
  135.4473  139.5229  167.0986 H   0  0  0  0  0  0  0  0  0  0  0  0
  136.5550  139.7765  169.2815 H   0  0  0  0  0  0  0  0  0  0  0  0
  138.8156  138.8663  169.6299 H   0  0  0  0  0  0  0  0  0  0  0  0
  140.5781  137.7381  168.7162 H   0  0  0  0  0  0  0  0  0  0  0  0
  138.8483  137.4284  165.6054 H   0  0  0  0  0  0  0  0  0  0  0  0
  134.8499  138.6713  162.9388 H   0  0  0  0  0  0  0  0  0  0  0  0
  133.5782  138.0218  160.9394 H   0  0  0  0  0  0  0  0  0  0  0  0
  133.3688  135.5453  159.3895 H   0  0  0  0  0  0  0  0  0  0  0  0
  131.9337  136.3623  160.0527 H   0  0  0  0  0  0  0  0  0  0  0  0
  127.4827  136.6260  160.2102 H   0  0  0  0  0  0  0  0  0  0  0  0
  127.8785  135.5057  161.5305 H   0  0  0  0  0  0  0  0  0  0  0  0
  125.3862  135.9709  161.1011 H   0  0  0  0  0  0  0  0  0  0  0  0
  1  2  2  0
  2 38  1  0
  2  3  1  0
  3  4  1  0
  3 39  1  0
  3 40  1  0
  4  5  1  0
  4 41  1  0
  4 42  1  0
  5  6  1  6
  5  7  1  0
  5 37  1  0
  7 43  1  0
  8  7  1  0
  8  9  1  0
  8 15  2  0
  9 10  1  0
  9 44  1  0
 10 14  1  0
 10 11  1  0
 10 45  1  0
 11 12  1  0
 11 46  1  0
 11 47  1  0
 12 13  2  0
 12 48  1  0
 13 14  1  0
 13 49  1  0
 14 50  1  0
 14 51  1  0
 15 16  1  0
 15 17  1  0
 17 18  1  1
 17 36  1  0
 17 19  1  0
 19 20  1  0
 19 52  1  0
 19 53  1  0
 20 21  1  0
 21 35  2  0
 21 22  1  0
 22 23  2  0
 22 54  1  0
 23 24  1  0
 23 33  1  0
 24 25  1  0
 24 55  1  0
 25 26  1  0
 25 56  1  0
 25 57  1  0
 26 32  1  0
 26 27  2  0
 27 28  1  0
 27 58  1  0
 28 29  2  0
 28 59  1  0
 29 30  1  0
 29 60  1  0
 30 31  1  0
 30 32  2  0
 31 61  1  0
 32 62  1  0
 33 34  2  0
 33 63  1  0
 34 35  1  0
 34 64  1  0
 35 36  1  0
 36 65  1  0
 36 66  1  0
 37 38  1  0
 37 67  1  0
 37 68  1  0
 38 69  1  0
M  CHG  1  15   1
M  END
>  <DOCK_score>  (1) 
-44.378551

>  <SMILES>  (1) 
O=C1CC[C@H](NC(NC2CC=CC2)=[NH+][C@H]2COc3cc(NCc4cccc(O)c4)ccc3C2)CN1

$$$$
