C[C@@H]([NH2+]CCC1CCC=C1c1cc(CO)ccc1O)c1cc2ccccc2[nH]1
     RDKit          3D

 57 60  0  0  1  0  0  0  0  0999 V2000
  130.3011  138.1286  159.6676 C   0  0  0  0  0  0  0  0  0  0  0  0
  131.3965  137.4927  160.5258 C   0  0  1  0  0  0  0  0  0  0  0  0
  130.9804  137.2043  161.4910 H   0  0  0  0  0  0  0  0  0  0  0  0
  131.9236  136.3027  159.8445 N   0  0  0  0  0  0  0  0  0  0  0  0
  132.8330  136.0763  160.2182 H   0  0  0  0  0  0  0  0  0  0  0  0
  132.0030  136.4887  158.8559 H   0  0  0  0  0  0  0  0  0  0  0  0
  131.0107  135.1718  160.0581 C   0  0  0  0  0  0  0  0  0  0  0  0
  131.5597  133.9323  159.3485 C   0  0  0  0  0  0  0  0  0  0  0  0
  130.6090  132.7543  159.5710 C   0  0  2  0  0  0  0  0  0  0  0  0
  131.3043  131.4200  159.2085 C   0  0  0  0  0  0  0  0  0  0  0  0
  130.8716  131.2356  157.7359 C   0  0  0  0  0  0  0  0  0  0  0  0
  129.5785  132.0076  157.6133 C   0  0  0  0  0  0  0  0  0  0  0  0
  129.4319  132.8429  158.6276 C   0  0  0  0  0  0  0  0  0  0  0  0
  128.2766  133.7454  158.8106 C   0  0  0  0  0  0  0  0  0  0  0  0
  127.4804  133.6426  159.9515 C   0  0  0  0  0  0  0  0  0  0  0  0
  126.4027  134.4878  160.1167 C   0  0  0  0  0  0  0  0  0  0  0  0
  125.5394  134.3717  161.3466 C   0  0  0  0  0  0  0  0  0  0  0  0
  124.1624  134.4251  160.9687 O   0  0  0  0  0  0  0  0  0  0  0  0
  126.1076  135.4381  159.1546 C   0  0  0  0  0  0  0  0  0  0  0  0
  126.8891  135.5493  158.0203 C   0  0  0  0  0  0  0  0  0  0  0  0
  127.9750  134.7079  157.8398 C   0  0  0  0  0  0  0  0  0  0  0  0
  128.7433  134.8160  156.7250 O   0  0  0  0  0  0  0  0  0  0  0  0
  132.5103  138.4859  160.7356 C   0  0  0  0  0  0  0  0  0  0  0  0
  133.5784  138.6267  159.9348 C   0  0  0  0  0  0  0  0  0  0  0  0
  134.4022  139.6961  160.5036 C   0  0  0  0  0  0  0  0  0  0  0  0
  135.6104  140.2909  160.1348 C   0  0  0  0  0  0  0  0  0  0  0  0
  136.1327  141.2959  160.8989 C   0  0  0  0  0  0  0  0  0  0  0  0
  135.4719  141.7306  162.0397 C   0  0  0  0  0  0  0  0  0  0  0  0
  134.2791  141.1575  162.4222 C   0  0  0  0  0  0  0  0  0  0  0  0
  133.7285  140.1331  161.6585 C   0  0  0  0  0  0  0  0  0  0  0  0
  132.5800  139.3815  161.7677 N   0  0  0  0  0  0  0  0  0  0  0  0
  131.9200  139.4717  162.4728 H   0  0  0  0  0  0  0  0  0  0  0  0
  130.7174  138.4171  158.7023 H   0  0  0  0  0  0  0  0  0  0  0  0
  129.4955  137.4101  159.5157 H   0  0  0  0  0  0  0  0  0  0  0  0
  129.9101  139.0115  160.1730 H   0  0  0  0  0  0  0  0  0  0  0  0
  130.0284  135.4163  159.6542 H   0  0  0  0  0  0  0  0  0  0  0  0
  130.9248  134.9709  161.1259 H   0  0  0  0  0  0  0  0  0  0  0  0
  132.5420  133.6877  159.7525 H   0  0  0  0  0  0  0  0  0  0  0  0
  131.6457  134.1332  158.2807 H   0  0  0  0  0  0  0  0  0  0  0  0
  130.2655  132.7330  160.6053 H   0  0  0  0  0  0  0  0  0  0  0  0
  130.9368  130.6024  159.8286 H   0  0  0  0  0  0  0  0  0  0  0  0
  132.3873  131.5121  159.2887 H   0  0  0  0  0  0  0  0  0  0  0  0
  130.7056  130.1805  157.5184 H   0  0  0  0  0  0  0  0  0  0  0  0
  131.6249  131.6481  157.0646 H   0  0  0  0  0  0  0  0  0  0  0  0
  128.8699  131.8927  156.8064 H   0  0  0  0  0  0  0  0  0  0  0  0
  127.7078  132.9026  160.7046 H   0  0  0  0  0  0  0  0  0  0  0  0
  125.7430  133.4241  161.8452 H   0  0  0  0  0  0  0  0  0  0  0  0
  125.7621  135.1947  162.0257 H   0  0  0  0  0  0  0  0  0  0  0  0
  123.9095  135.2429  160.5187 H   0  0  0  0  0  0  0  0  0  0  0  0
  125.2622  136.0963  159.2911 H   0  0  0  0  0  0  0  0  0  0  0  0
  126.6532  136.2931  157.2735 H   0  0  0  0  0  0  0  0  0  0  0  0
  129.4761  134.1859  156.6896 H   0  0  0  0  0  0  0  0  0  0  0  0
  133.7899  138.0595  159.0403 H   0  0  0  0  0  0  0  0  0  0  0  0
  136.1305  139.9575  159.2489 H   0  0  0  0  0  0  0  0  0  0  0  0
  137.0672  141.7557  160.6131 H   0  0  0  0  0  0  0  0  0  0  0  0
  135.8975  142.5259  162.6337 H   0  0  0  0  0  0  0  0  0  0  0  0
  133.7726  141.5026  163.3114 H   0  0  0  0  0  0  0  0  0  0  0  0
  1  2  1  0
  1 33  1  0
  1 34  1  0
  1 35  1  0
  2  3  1  1
  2  4  1  0
  2 23  1  0
  4  5  1  0
  4  6  1  0
  4  7  1  0
  7  8  1  0
  7 36  1  0
  7 37  1  0
  8  9  1  0
  8 38  1  0
  8 39  1  0
  9 13  1  0
  9 10  1  0
  9 40  1  1
 10 11  1  0
 10 41  1  0
 10 42  1  0
 11 12  1  0
 11 43  1  0
 11 44  1  0
 12 13  2  0
 12 45  1  0
 13 14  1  0
 14 21  1  0
 14 15  2  0
 15 16  1  0
 15 46  1  0
 16 17  1  0
 16 19  2  0
 17 18  1  0
 17 47  1  0
 17 48  1  0
 18 49  1  0
 19 20  1  0
 19 50  1  0
 20 21  2  0
 20 51  1  0
 21 22  1  0
 22 52  1  0
 23 31  1  0
 23 24  2  0
 24 25  1  0
 24 53  1  0
 25 30  2  0
 25 26  1  0
 26 27  2  0
 26 54  1  0
 27 28  1  0
 27 55  1  0
 28 29  2  0
 28 56  1  0
 29 30  1  0
 29 57  1  0
 30 31  1  0
 31 32  1  0
M  CHG  1   4   1
M  END
>  <DOCK_score>  (1) 
-54.883961

>  <SMILES>  (1) 
C[C@@H]([NH2+]CCC1CCC=C1c1cc(CO)ccc1O)c1cc2ccccc2[nH]1

$$$$
