C1=CCCC(Nc2ccc(-c3n[nH]cc3C[NH2+]CC3CC(C4CC4)C3)o2)CC1
     RDKit          3D

 61 65  0  0  1  0  0  0  0  0999 V2000
  128.3681  138.5343  165.6748 C   0  0  0  0  0  0  0  0  0  0  0  0
  127.5608  139.4525  165.2471 C   0  0  0  0  0  0  0  0  0  0  0  0
  127.2772  139.5927  163.7668 C   0  0  0  0  0  0  0  0  0  0  0  0
  126.4034  138.4172  163.3232 C   0  0  0  0  0  0  0  0  0  0  0  0
  127.2591  137.2130  162.9719 C   0  0  0  0  0  0  0  0  0  0  0  0
  126.3995  136.1829  162.3838 N   0  0  0  0  0  0  0  0  0  0  0  0
  126.9172  135.2990  161.4441 C   0  0  0  0  0  0  0  0  0  0  0  0
  126.2295  134.3055  160.8278 C   0  0  0  0  0  0  0  0  0  0  0  0
  127.1312  133.6586  159.9597 C   0  0  0  0  0  0  0  0  0  0  0  0
  128.3266  134.2920  160.0906 C   0  0  0  0  0  0  0  0  0  0  0  0
  129.5700  133.9518  159.3684 C   0  0  0  0  0  0  0  0  0  0  0  0
  129.7150  132.9827  158.4863 N   0  0  0  0  0  0  0  0  0  0  0  0
  131.0425  132.9965  158.0398 N   0  0  0  0  0  0  0  0  0  0  0  0
  131.4297  132.3918  157.3875 H   0  0  0  0  0  0  0  0  0  0  0  0
  131.6906  133.9970  158.6749 C   0  0  0  0  0  0  0  0  0  0  0  0
  130.8130  134.6060  159.5007 C   0  0  0  0  0  0  0  0  0  0  0  0
  131.1085  135.7760  160.4032 C   0  0  0  0  0  0  0  0  0  0  0  0
  130.8535  137.0290  159.6798 N   0  0  0  0  0  0  0  0  0  0  0  0
  131.4474  137.0739  158.8653 H   0  0  0  0  0  0  0  0  0  0  0  0
  129.8867  137.0610  159.3933 H   0  0  0  0  0  0  0  0  0  0  0  0
  131.1417  138.1695  160.5596 C   0  0  0  0  0  0  0  0  0  0  0  0
  132.6079  138.1209  160.9939 C   0  0  2  0  0  0  0  0  0  0  0  0
  133.1651  139.4844  161.4360 C   0  0  0  0  0  0  0  0  0  0  0  0
  134.4618  139.1042  160.7020 C   0  0  2  0  0  0  0  0  0  0  0  0
  135.0980  140.2658  159.9361 C   0  0  0  0  0  0  0  0  0  0  0  0
  136.6224  140.2758  159.8064 C   0  0  0  0  0  0  0  0  0  0  0  0
  135.9274  141.2707  160.7381 C   0  0  0  0  0  0  0  0  0  0  0  0
  133.6004  138.1838  159.8211 C   0  0  0  0  0  0  0  0  0  0  0  0
  128.1846  135.2813  160.9976 O   0  0  0  0  0  0  0  0  0  0  0  0
  127.9853  136.6167  164.1647 C   0  0  0  0  0  0  0  0  0  0  0  0
  129.0388  137.5903  164.7000 C   0  0  0  0  0  0  0  0  0  0  0  0
  128.5641  138.4421  166.7329 H   0  0  0  0  0  0  0  0  0  0  0  0
  127.0876  140.1217  165.9502 H   0  0  0  0  0  0  0  0  0  0  0  0
  128.2154  139.5809  163.2118 H   0  0  0  0  0  0  0  0  0  0  0  0
  126.7516  140.5294  163.5820 H   0  0  0  0  0  0  0  0  0  0  0  0
  125.8224  138.7118  162.4493 H   0  0  0  0  0  0  0  0  0  0  0  0
  125.7238  138.1507  164.1326 H   0  0  0  0  0  0  0  0  0  0  0  0
  127.9979  137.5150  162.2294 H   0  0  0  0  0  0  0  0  0  0  0  0
  125.4690  136.1176  162.6501 H   0  0  0  0  0  0  0  0  0  0  0  0
  125.1888  134.0571  160.9748 H   0  0  0  0  0  0  0  0  0  0  0  0
  126.9141  132.8206  159.3139 H   0  0  0  0  0  0  0  0  0  0  0  0
  132.7291  134.2634  158.5448 H   0  0  0  0  0  0  0  0  0  0  0  0
  130.4670  135.7274  161.2830 H   0  0  0  0  0  0  0  0  0  0  0  0
  132.1531  135.7415  160.7128 H   0  0  0  0  0  0  0  0  0  0  0  0
  130.9524  139.0992  160.0229 H   0  0  0  0  0  0  0  0  0  0  0  0
  130.5002  138.1209  161.4395 H   0  0  0  0  0  0  0  0  0  0  0  0
  132.8142  137.3145  161.6977 H   0  0  0  0  0  0  0  0  0  0  0  0
  132.6450  140.3333  160.9921 H   0  0  0  0  0  0  0  0  0  0  0  0
  133.2856  139.5777  162.5153 H   0  0  0  0  0  0  0  0  0  0  0  0
  135.1758  138.5674  161.3266 H   0  0  0  0  0  0  0  0  0  0  0  0
  134.5186  140.6483  159.0959 H   0  0  0  0  0  0  0  0  0  0  0  0
  137.1721  139.4547  160.2667 H   0  0  0  0  0  0  0  0  0  0  0  0
  137.0463  140.6649  158.8806 H   0  0  0  0  0  0  0  0  0  0  0  0
  135.8940  142.3143  160.4253 H   0  0  0  0  0  0  0  0  0  0  0  0
  136.0198  141.1042  161.8112 H   0  0  0  0  0  0  0  0  0  0  0  0
  134.0723  137.2273  159.5966 H   0  0  0  0  0  0  0  0  0  0  0  0
  133.1988  138.6758  158.9351 H   0  0  0  0  0  0  0  0  0  0  0  0
  127.2635  136.3974  164.9514 H   0  0  0  0  0  0  0  0  0  0  0  0
  128.4757  135.6918  163.8606 H   0  0  0  0  0  0  0  0  0  0  0  0
  129.4659  138.1597  163.8744 H   0  0  0  0  0  0  0  0  0  0  0  0
  129.8257  137.0353  165.2107 H   0  0  0  0  0  0  0  0  0  0  0  0
  1 31  1  0
  1  2  2  0
  1 32  1  0
  2  3  1  0
  2 33  1  0
  3  4  1  0
  3 34  1  0
  3 35  1  0
  4  5  1  0
  4 36  1  0
  4 37  1  0
  5  6  1  0
  5 30  1  0
  5 38  1  0
  6  7  1  0
  6 39  1  0
  7 29  1  0
  7  8  2  0
  8  9  1  0
  8 40  1  0
  9 10  2  0
  9 41  1  0
 10 11  1  0
 10 29  1  0
 11 16  1  0
 11 12  2  0
 12 13  1  0
 13 14  1  0
 13 15  1  0
 15 16  2  0
 15 42  1  0
 16 17  1  0
 17 18  1  0
 17 43  1  0
 17 44  1  0
 18 19  1  0
 18 20  1  0
 18 21  1  0
 21 22  1  0
 21 45  1  0
 21 46  1  0
 22 28  1  0
 22 23  1  0
 22 47  1  1
 23 24  1  0
 23 48  1  0
 23 49  1  0
 24 25  1  0
 24 28  1  0
 24 50  1  1
 25 27  1  0
 25 26  1  0
 25 51  1  0
 26 27  1  0
 26 52  1  0
 26 53  1  0
 27 54  1  0
 27 55  1  0
 28 56  1  0
 28 57  1  0
 30 31  1  0
 30 58  1  0
 30 59  1  0
 31 60  1  0
 31 61  1  0
M  CHG  1  18   1
M  END
>  <DOCK_score>  (1) 
-45.163788

>  <SMILES>  (1) 
C1=CCCC(Nc2ccc(-c3n[nH]cc3C[NH2+]CC3CC(C4CC4)C3)o2)CC1

$$$$
