Cn1c(=[NH+]C2=C[C@@H](Nc3cccc(O)c3)CCC2)[nH]c2ccccc21
     RDKit          3D

 48 51  0  0  1  0  0  0  0  0999 V2000
  132.6076  138.8371  159.4391 C   0  0  0  0  0  0  0  0  0  0  0  0
  131.9947  138.2366  160.6265 N   0  0  0  0  0  0  0  0  0  0  0  0
  131.7100  136.9095  160.7980 C   0  0  0  0  0  0  0  0  0  0  0  0
  131.9431  135.9556  159.9184 N   0  0  0  0  0  0  0  0  0  0  0  0
  132.6880  136.0356  159.3022 H   0  0  0  0  0  0  0  0  0  0  0  0
  131.1398  134.8597  159.8753 C   0  0  0  0  0  0  0  0  0  0  0  0
  129.8793  134.9999  160.2307 C   0  0  0  0  0  0  0  0  0  0  0  0
  128.8850  133.8755  160.2396 C   0  0  1  0  0  0  0  0  0  0  0  0
  128.7259  133.5421  161.2651 H   0  0  0  0  0  0  0  0  0  0  0  0
  127.6147  134.3462  159.6820 N   0  0  0  0  0  0  0  0  0  0  0  0
  126.4112  133.7855  160.1157 C   0  0  0  0  0  0  0  0  0  0  0  0
  126.1785  132.4252  159.9521 C   0  0  0  0  0  0  0  0  0  0  0  0
  124.9903  131.8701  160.3855 C   0  0  0  0  0  0  0  0  0  0  0  0
  124.0259  132.6671  160.9730 C   0  0  0  0  0  0  0  0  0  0  0  0
  124.2506  134.0269  161.1342 C   0  0  0  0  0  0  0  0  0  0  0  0
  123.3011  134.8091  161.7116 O   0  0  0  0  0  0  0  0  0  0  0  0
  125.4439  134.5871  160.7055 C   0  0  0  0  0  0  0  0  0  0  0  0
  129.4048  132.7062  159.4009 C   0  0  0  0  0  0  0  0  0  0  0  0
  130.8409  132.3931  159.8389 C   0  0  0  0  0  0  0  0  0  0  0  0
  131.7441  133.5567  159.4247 C   0  0  0  0  0  0  0  0  0  0  0  0
  131.1385  136.7343  162.0287 N   0  0  0  0  0  0  0  0  0  0  0  0
  130.8371  135.8908  162.4008 H   0  0  0  0  0  0  0  0  0  0  0  0
  131.0674  137.9760  162.6561 C   0  0  0  0  0  0  0  0  0  0  0  0
  130.5907  138.3808  163.8948 C   0  0  0  0  0  0  0  0  0  0  0  0
  130.6450  139.7139  164.2512 C   0  0  0  0  0  0  0  0  0  0  0  0
  131.1741  140.6485  163.3779 C   0  0  0  0  0  0  0  0  0  0  0  0
  131.6515  140.2554  162.1431 C   0  0  0  0  0  0  0  0  0  0  0  0
  131.6008  138.9183  161.7757 C   0  0  0  0  0  0  0  0  0  0  0  0
  131.8274  139.1331  158.7378 H   0  0  0  0  0  0  0  0  0  0  0  0
  133.1845  139.7142  159.7322 H   0  0  0  0  0  0  0  0  0  0  0  0
  133.2669  138.1107  158.9638 H   0  0  0  0  0  0  0  0  0  0  0  0
  129.5417  135.9802  160.5328 H   0  0  0  0  0  0  0  0  0  0  0  0
  127.6095  135.0472  159.0116 H   0  0  0  0  0  0  0  0  0  0  0  0
  126.9288  131.8011  159.4896 H   0  0  0  0  0  0  0  0  0  0  0  0
  124.8126  130.8122  160.2609 H   0  0  0  0  0  0  0  0  0  0  0  0
  123.0962  132.2308  161.3074 H   0  0  0  0  0  0  0  0  0  0  0  0
  123.5480  135.7416  161.7805 H   0  0  0  0  0  0  0  0  0  0  0  0
  125.6203  135.6453  160.8299 H   0  0  0  0  0  0  0  0  0  0  0  0
  129.3952  132.9795  158.3458 H   0  0  0  0  0  0  0  0  0  0  0  0
  128.7743  131.8316  159.5614 H   0  0  0  0  0  0  0  0  0  0  0  0
  130.8749  132.2705  160.9214 H   0  0  0  0  0  0  0  0  0  0  0  0
  131.1795  131.4766  159.3558 H   0  0  0  0  0  0  0  0  0  0  0  0
  132.7263  133.4317  159.8808 H   0  0  0  0  0  0  0  0  0  0  0  0
  131.8499  133.5636  158.3399 H   0  0  0  0  0  0  0  0  0  0  0  0
  130.1779  137.6544  164.5792 H   0  0  0  0  0  0  0  0  0  0  0  0
  130.2735  140.0285  165.2152 H   0  0  0  0  0  0  0  0  0  0  0  0
  131.2141  141.6893  163.6634 H   0  0  0  0  0  0  0  0  0  0  0  0
  132.0631  140.9877  161.4642 H   0  0  0  0  0  0  0  0  0  0  0  0
  1  2  1  0
  1 29  1  0
  1 30  1  0
  1 31  1  0
  2 28  1  0
  2  3  1  0
  3  4  2  0
  3 21  1  0
  4  5  1  0
  4  6  1  0
  6 20  1  0
  6  7  2  0
  7  8  1  0
  7 32  1  0
  8  9  1  1
  8 10  1  0
  8 18  1  0
 10 11  1  0
 10 33  1  0
 11 17  1  0
 11 12  2  0
 12 13  1  0
 12 34  1  0
 13 14  2  0
 13 35  1  0
 14 15  1  0
 14 36  1  0
 15 16  1  0
 15 17  2  0
 16 37  1  0
 17 38  1  0
 18 19  1  0
 18 39  1  0
 18 40  1  0
 19 20  1  0
 19 41  1  0
 19 42  1  0
 20 43  1  0
 20 44  1  0
 21 22  1  0
 21 23  1  0
 23 28  2  0
 23 24  1  0
 24 25  2  0
 24 45  1  0
 25 26  1  0
 25 46  1  0
 26 27  2  0
 26 47  1  0
 27 28  1  0
 27 48  1  0
M  CHG  1   4   1
M  END
>  <DOCK_score>  (1) 
-41.256176

>  <SMILES>  (1) 
Cn1c(=[NH+]C2=C[C@@H](Nc3cccc(O)c3)CCC2)[nH]c2ccccc21

$$$$
