Nc1ccc(-c2c[nH]c(Nc3ccc(N)c([C@H](O)c4ccccc4)c3)[nH+]2)cc1
     RDKit          3D

 50 53  0  0  1  0  0  0  0  0999 V2000
  131.2844  129.1891  151.5651 N   0  0  0  0  0  0  0  0  0  0  0  0
  131.0214  129.9212  152.7254 C   0  0  0  0  0  0  0  0  0  0  0  0
  130.1400  130.9943  152.6837 C   0  0  0  0  0  0  0  0  0  0  0  0
  129.8750  131.7155  153.8288 C   0  0  0  0  0  0  0  0  0  0  0  0
  130.5001  131.3734  155.0269 C   0  0  0  0  0  0  0  0  0  0  0  0
  130.2203  132.1508  156.2591 C   0  0  0  0  0  0  0  0  0  0  0  0
  129.7013  131.6597  157.4118 C   0  0  0  0  0  0  0  0  0  0  0  0
  129.6089  132.7142  158.2885 N   0  0  0  0  0  0  0  0  0  0  0  0
  129.2735  132.6777  159.1979 H   0  0  0  0  0  0  0  0  0  0  0  0
  130.0748  133.8191  157.6445 C   0  0  0  0  0  0  0  0  0  0  0  0
  130.1513  135.0936  158.1815 N   0  0  0  0  0  0  0  0  0  0  0  0
  129.2298  135.5000  159.1547 C   0  0  0  0  0  0  0  0  0  0  0  0
  127.8726  135.5217  158.8600 C   0  0  0  0  0  0  0  0  0  0  0  0
  126.9639  135.9168  159.8212 C   0  0  0  0  0  0  0  0  0  0  0  0
  127.4073  136.3036  161.0790 C   0  0  0  0  0  0  0  0  0  0  0  0
  126.4865  136.7095  162.0517 N   0  0  0  0  0  0  0  0  0  0  0  0
  128.7648  136.2872  161.3720 C   0  0  0  0  0  0  0  0  0  0  0  0
  129.2463  136.7073  162.7369 C   0  0  2  0  0  0  0  0  0  0  0  0
  130.3328  136.6293  162.7787 H   0  0  0  0  0  0  0  0  0  0  0  0
  128.6691  135.8556  163.7286 O   0  0  0  0  0  0  0  0  0  0  0  0
  128.8346  138.1332  162.9980 C   0  0  0  0  0  0  0  0  0  0  0  0
  128.7131  139.0212  161.9456 C   0  0  0  0  0  0  0  0  0  0  0  0
  128.3316  140.3282  162.1847 C   0  0  0  0  0  0  0  0  0  0  0  0
  128.0800  140.7494  163.4770 C   0  0  0  0  0  0  0  0  0  0  0  0
  128.2061  139.8626  164.5299 C   0  0  0  0  0  0  0  0  0  0  0  0
  128.5839  138.5547  164.2904 C   0  0  0  0  0  0  0  0  0  0  0  0
  129.6734  135.8867  160.4125 C   0  0  0  0  0  0  0  0  0  0  0  0
  130.4437  133.4770  156.4340 N   0  0  0  0  0  0  0  0  0  0  0  0
  130.8151  134.0772  155.7685 H   0  0  0  0  0  0  0  0  0  0  0  0
  131.3879  130.2994  155.0656 C   0  0  0  0  0  0  0  0  0  0  0  0
  131.6462  129.5780  153.9193 C   0  0  0  0  0  0  0  0  0  0  0  0
  131.9028  128.4414  151.5933 H   0  0  0  0  0  0  0  0  0  0  0  0
  130.8460  129.4243  150.7333 H   0  0  0  0  0  0  0  0  0  0  0  0
  129.6588  131.2613  151.7544 H   0  0  0  0  0  0  0  0  0  0  0  0
  129.1869  132.5472  153.7965 H   0  0  0  0  0  0  0  0  0  0  0  0
  129.4150  130.6362  157.6039 H   0  0  0  0  0  0  0  0  0  0  0  0
  130.8432  135.7047  157.8834 H   0  0  0  0  0  0  0  0  0  0  0  0
  127.5280  135.2252  157.8804 H   0  0  0  0  0  0  0  0  0  0  0  0
  125.9082  135.9297  159.5934 H   0  0  0  0  0  0  0  0  0  0  0  0
  126.7967  136.9804  162.9301 H   0  0  0  0  0  0  0  0  0  0  0  0
  125.5386  136.7213  161.8472 H   0  0  0  0  0  0  0  0  0  0  0  0
  128.9358  136.0685  164.6333 H   0  0  0  0  0  0  0  0  0  0  0  0
  128.9133  138.6932  160.9363 H   0  0  0  0  0  0  0  0  0  0  0  0
  128.2335  141.0212  161.3621 H   0  0  0  0  0  0  0  0  0  0  0  0
  127.7853  141.7714  163.6642 H   0  0  0  0  0  0  0  0  0  0  0  0
  128.0100  140.1917  165.5397 H   0  0  0  0  0  0  0  0  0  0  0  0
  128.6827  137.8619  165.1131 H   0  0  0  0  0  0  0  0  0  0  0  0
  130.7291  135.8736  160.6403 H   0  0  0  0  0  0  0  0  0  0  0  0
  131.8735  130.0329  155.9927 H   0  0  0  0  0  0  0  0  0  0  0  0
  132.3340  128.7459  153.9487 H   0  0  0  0  0  0  0  0  0  0  0  0
  1  2  1  0
  1 32  1  0
  1 33  1  0
  2 31  2  0
  2  3  1  0
  3  4  2  0
  3 34  1  0
  4  5  1  0
  4 35  1  0
  5  6  1  0
  5 30  2  0
  6 28  1  0
  6  7  2  0
  7  8  1  0
  7 36  1  0
  8  9  1  0
  8 10  1  0
 10 11  1  0
 10 28  2  0
 11 12  1  0
 11 37  1  0
 12 27  1  0
 12 13  2  0
 13 14  1  0
 13 38  1  0
 14 15  2  0
 14 39  1  0
 15 16  1  0
 15 17  1  0
 16 40  1  0
 16 41  1  0
 17 18  1  0
 17 27  2  0
 18 19  1  6
 18 20  1  0
 18 21  1  0
 20 42  1  0
 21 26  1  0
 21 22  2  0
 22 23  1  0
 22 43  1  0
 23 24  2  0
 23 44  1  0
 24 25  1  0
 24 45  1  0
 25 26  2  0
 25 46  1  0
 26 47  1  0
 27 48  1  0
 28 29  1  0
 30 31  1  0
 30 49  1  0
 31 50  1  0
M  CHG  1  28   1
M  END
>  <DOCK_score>  (1) 
-56.601494

>  <SMILES>  (1) 
Nc1ccc(-c2c[nH]c(Nc3ccc(N)c([C@H](O)c4ccccc4)c3)[nH+]2)cc1

$$$$
