C[C@@H](Nc1[nH]cc(-c2ccc(Br)cc2)[nH+]1)c1ccccc1-c1ccccc1
     RDKit          3D

 48 51  0  0  1  0  0  0  0  0999 V2000
  129.2647  136.9189  160.0920 C   0  0  0  0  0  0  0  0  0  0  0  0
  129.3959  135.3976  159.9957 C   0  0  1  0  0  0  0  0  0  0  0  0
  128.4171  134.9602  159.7984 H   0  0  0  0  0  0  0  0  0  0  0  0
  130.3127  135.0545  158.9058 N   0  0  0  0  0  0  0  0  0  0  0  0
  130.1496  133.8678  158.2117 C   0  0  0  0  0  0  0  0  0  0  0  0
  129.6258  132.7185  158.7185 N   0  0  0  0  0  0  0  0  0  0  0  0
  129.3026  132.5845  159.6232 H   0  0  0  0  0  0  0  0  0  0  0  0
  129.6397  131.7831  157.7124 C   0  0  0  0  0  0  0  0  0  0  0  0
  130.1711  132.3871  156.6208 C   0  0  0  0  0  0  0  0  0  0  0  0
  130.3842  131.7604  155.2934 C   0  0  0  0  0  0  0  0  0  0  0  0
  130.3251  132.5356  154.1365 C   0  0  0  0  0  0  0  0  0  0  0  0
  130.5297  131.9486  152.9045 C   0  0  0  0  0  0  0  0  0  0  0  0
  130.7815  130.5908  152.8153 C   0  0  0  0  0  0  0  0  0  0  0  0
  131.0525  129.7914  151.1231 Br  0  0  0  0  0  0  0  0  0  0  0  0
  130.8359  129.8152  153.9608 C   0  0  0  0  0  0  0  0  0  0  0  0
  130.6384  130.3932  155.1982 C   0  0  0  0  0  0  0  0  0  0  0  0
  130.4691  133.6675  156.9564 N   0  0  0  0  0  0  0  0  0  0  0  0
  130.8587  134.3284  156.3628 H   0  0  0  0  0  0  0  0  0  0  0  0
  129.9352  134.8566  161.2948 C   0  0  0  0  0  0  0  0  0  0  0  0
  131.1693  135.2684  161.7561 C   0  0  0  0  0  0  0  0  0  0  0  0
  131.6650  134.7735  162.9486 C   0  0  0  0  0  0  0  0  0  0  0  0
  130.9280  133.8637  163.6855 C   0  0  0  0  0  0  0  0  0  0  0  0
  129.6908  133.4488  163.2362 C   0  0  0  0  0  0  0  0  0  0  0  0
  129.1889  133.9403  162.0326 C   0  0  0  0  0  0  0  0  0  0  0  0
  127.8615  133.4939  161.5417 C   0  0  0  0  0  0  0  0  0  0  0  0
  127.6321  132.1458  161.2740 C   0  0  0  0  0  0  0  0  0  0  0  0
  126.3938  131.7355  160.8231 C   0  0  0  0  0  0  0  0  0  0  0  0
  125.3853  132.6613  160.6256 C   0  0  0  0  0  0  0  0  0  0  0  0
  125.6092  134.0014  160.8847 C   0  0  0  0  0  0  0  0  0  0  0  0
  126.8418  134.4221  161.3413 C   0  0  0  0  0  0  0  0  0  0  0  0
  128.7927  137.3009  159.1868 H   0  0  0  0  0  0  0  0  0  0  0  0
  128.6537  137.1768  160.9570 H   0  0  0  0  0  0  0  0  0  0  0  0
  130.2543  137.3627  160.2007 H   0  0  0  0  0  0  0  0  0  0  0  0
  131.0340  135.6588  158.6705 H   0  0  0  0  0  0  0  0  0  0  0  0
  129.2931  130.7623  157.7781 H   0  0  0  0  0  0  0  0  0  0  0  0
  130.1240  133.5946  154.2046 H   0  0  0  0  0  0  0  0  0  0  0  0
  130.4889  132.5492  152.0079 H   0  0  0  0  0  0  0  0  0  0  0  0
  131.0330  128.7560  153.8860 H   0  0  0  0  0  0  0  0  0  0  0  0
  130.6811  129.7876  156.0913 H   0  0  0  0  0  0  0  0  0  0  0  0
  131.7486  135.9787  161.1850 H   0  0  0  0  0  0  0  0  0  0  0  0
  132.6308  135.0987  163.3060 H   0  0  0  0  0  0  0  0  0  0  0  0
  131.3194  133.4810  164.6163 H   0  0  0  0  0  0  0  0  0  0  0  0
  129.1145  132.7418  163.8142 H   0  0  0  0  0  0  0  0  0  0  0  0
  128.4205  131.4228  161.4230 H   0  0  0  0  0  0  0  0  0  0  0  0
  126.2137  130.6903  160.6196 H   0  0  0  0  0  0  0  0  0  0  0  0
  124.4194  132.3364  160.2680 H   0  0  0  0  0  0  0  0  0  0  0  0
  124.8180  134.7200  160.7290 H   0  0  0  0  0  0  0  0  0  0  0  0
  127.0155  135.4688  161.5433 H   0  0  0  0  0  0  0  0  0  0  0  0
  1  2  1  0
  1 31  1  0
  1 32  1  0
  1 33  1  0
  2  3  1  6
  2  4  1  0
  2 19  1  0
  4 34  1  0
  5  4  1  0
  5 17  2  0
  5  6  1  0
  6  7  1  0
  6  8  1  0
  8  9  2  0
  8 35  1  0
  9 10  1  0
  9 17  1  0
 10 16  1  0
 10 11  2  0
 11 12  1  0
 11 36  1  0
 12 13  2  0
 12 37  1  0
 13 14  1  0
 13 15  1  0
 15 16  2  0
 15 38  1  0
 16 39  1  0
 17 18  1  0
 19 24  1  0
 19 20  2  0
 20 21  1  0
 20 40  1  0
 21 22  2  0
 21 41  1  0
 22 23  1  0
 22 42  1  0
 23 24  2  0
 23 43  1  0
 24 25  1  0
 25 30  1  0
 25 26  2  0
 26 27  1  0
 26 44  1  0
 27 28  2  0
 27 45  1  0
 28 29  1  0
 28 46  1  0
 29 30  2  0
 29 47  1  0
 30 48  1  0
M  CHG  1  17   1
M  END
>  <DOCK_score>  (1) 
-56.480877

>  <SMILES>  (1) 
C[C@@H](Nc1[nH]cc(-c2ccc(Br)cc2)[nH+]1)c1ccccc1-c1ccccc1

$$$$
