CCSc1c[nH]c(Nc2ccc(N)cc2)[nH+]1
     RDKit          3D

 31 32  0  0  1  0  0  0  0  0999 V2000
  130.6864  132.5914  153.5453 C   0  0  0  0  0  0  0  0  0  0  0  0
  130.0902  131.4597  154.3848 C   0  0  0  0  0  0  0  0  0  0  0  0
  131.0959  131.2182  155.8752 S   0  0  0  0  0  0  0  0  0  0  0  0
  130.3419  132.3023  157.0418 C   0  0  0  0  0  0  0  0  0  0  0  0
  129.3369  131.9827  157.8849 C   0  0  0  0  0  0  0  0  0  0  0  0
  129.0532  133.1206  158.6173 N   0  0  0  0  0  0  0  0  0  0  0  0
  128.3768  133.2092  159.3068 H   0  0  0  0  0  0  0  0  0  0  0  0
  129.9022  134.0919  158.1877 C   0  0  0  0  0  0  0  0  0  0  0  0
  129.9509  135.3918  158.6640 N   0  0  0  0  0  0  0  0  0  0  0  0
  129.0736  135.7998  159.6765 C   0  0  0  0  0  0  0  0  0  0  0  0
  129.5760  136.2683  160.8836 C   0  0  0  0  0  0  0  0  0  0  0  0
  128.7109  136.6650  161.8839 C   0  0  0  0  0  0  0  0  0  0  0  0
  127.3386  136.6066  161.6789 C   0  0  0  0  0  0  0  0  0  0  0  0
  126.4619  137.0148  162.6906 N   0  0  0  0  0  0  0  0  0  0  0  0
  126.8363  136.1437  160.4697 C   0  0  0  0  0  0  0  0  0  0  0  0
  127.7012  135.7413  159.4716 C   0  0  0  0  0  0  0  0  0  0  0  0
  130.6641  133.5935  157.2420 N   0  0  0  0  0  0  0  0  0  0  0  0
  131.3537  134.0797  156.7634 H   0  0  0  0  0  0  0  0  0  0  0  0
  131.7054  132.3327  153.2580 H   0  0  0  0  0  0  0  0  0  0  0  0
  130.0821  132.7365  152.6498 H   0  0  0  0  0  0  0  0  0  0  0  0
  130.6960  133.5112  154.1300 H   0  0  0  0  0  0  0  0  0  0  0  0
  130.0805  130.5399  153.8001 H   0  0  0  0  0  0  0  0  0  0  0  0
  129.0711  131.7184  154.6721 H   0  0  0  0  0  0  0  0  0  0  0  0
  128.8487  131.0232  157.9706 H   0  0  0  0  0  0  0  0  0  0  0  0
  130.5926  136.0194  158.2962 H   0  0  0  0  0  0  0  0  0  0  0  0
  130.6432  136.3182  161.0413 H   0  0  0  0  0  0  0  0  0  0  0  0
  129.1016  137.0252  162.8242 H   0  0  0  0  0  0  0  0  0  0  0  0
  126.8128  137.3384  163.5350 H   0  0  0  0  0  0  0  0  0  0  0  0
  125.5034  136.9738  162.5475 H   0  0  0  0  0  0  0  0  0  0  0  0
  125.7691  136.0985  160.3102 H   0  0  0  0  0  0  0  0  0  0  0  0
  127.3107  135.3809  158.5314 H   0  0  0  0  0  0  0  0  0  0  0  0
  1  2  1  0
  1 19  1  0
  1 20  1  0
  1 21  1  0
  2  3  1  0
  2 22  1  0
  2 23  1  0
  3  4  1  0
  4 17  1  0
  4  5  2  0
  5  6  1  0
  5 24  1  0
  6  7  1  0
  6  8  1  0
  8  9  1  0
  8 17  2  0
  9 10  1  0
  9 25  1  0
 10 16  1  0
 10 11  2  0
 11 12  1  0
 11 26  1  0
 12 13  2  0
 12 27  1  0
 13 14  1  0
 13 15  1  0
 14 28  1  0
 14 29  1  0
 15 16  2  0
 15 30  1  0
 16 31  1  0
 17 18  1  0
M  CHG  1  17   1
M  END
>  <DOCK_score>  (1) 
-45.510189

>  <SMILES>  (1) 
CCSc1c[nH]c(Nc2ccc(N)cc2)[nH+]1

$$$$
