C1=CCCC(C[NH2+]Cc2c[nH]nc2-c2ccc(N[C@H]3CC34CCOCC4)o2)CC1
     RDKit          3D

 62 66  0  0  1  0  0  0  0  0999 V2000
  135.3567  139.9976  161.9026 C   0  0  0  0  0  0  0  0  0  0  0  0
  134.6423  140.4442  160.9187 C   0  0  0  0  0  0  0  0  0  0  0  0
  134.1832  139.5090  159.8204 C   0  0  0  0  0  0  0  0  0  0  0  0
  133.0939  138.5930  160.3824 C   0  0  0  0  0  0  0  0  0  0  0  0
  133.7072  137.3802  161.0598 C   0  0  0  0  0  0  0  0  0  0  0  0
  132.5857  136.4089  161.4332 C   0  0  0  0  0  0  0  0  0  0  0  0
  132.1916  135.6365  160.2474 N   0  0  0  0  0  0  0  0  0  0  0  0
  132.9861  135.1174  159.9050 H   0  0  0  0  0  0  0  0  0  0  0  0
  131.8662  136.2659  159.5290 H   0  0  0  0  0  0  0  0  0  0  0  0
  131.1147  134.7039  160.6060 C   0  0  0  0  0  0  0  0  0  0  0  0
  130.7105  133.9116  159.3895 C   0  0  0  0  0  0  0  0  0  0  0  0
  131.5484  133.3314  158.5040 C   0  0  0  0  0  0  0  0  0  0  0  0
  130.8010  132.7178  157.5608 N   0  0  0  0  0  0  0  0  0  0  0  0
  131.1408  132.2204  156.8006 H   0  0  0  0  0  0  0  0  0  0  0  0
  129.4508  132.9191  157.8738 N   0  0  0  0  0  0  0  0  0  0  0  0
  129.3893  133.6438  158.9737 C   0  0  0  0  0  0  0  0  0  0  0  0
  128.1558  134.0909  159.6532 C   0  0  0  0  0  0  0  0  0  0  0  0
  126.9650  133.4358  159.6535 C   0  0  0  0  0  0  0  0  0  0  0  0
  126.0710  134.2146  160.4147 C   0  0  0  0  0  0  0  0  0  0  0  0
  126.7609  135.2993  160.8476 C   0  0  0  0  0  0  0  0  0  0  0  0
  126.2512  136.3241  161.6364 N   0  0  0  0  0  0  0  0  0  0  0  0
  127.1125  137.4409  162.0328 C   0  0  1  0  0  0  0  0  0  0  0  0
  127.7933  137.8055  161.2638 H   0  0  0  0  0  0  0  0  0  0  0  0
  126.5344  138.4669  163.0104 C   0  0  0  0  0  0  0  0  0  0  0  0
  127.5984  137.4776  163.4803 C   0  0  0  0  0  0  0  0  0  0  0  0
  129.0083  138.0150  163.7482 C   0  0  0  0  0  0  0  0  0  0  0  0
  129.9784  136.8289  163.8028 C   0  0  0  0  0  0  0  0  0  0  0  0
  129.5063  135.8755  164.7562 O   0  0  0  0  0  0  0  0  0  0  0  0
  128.2563  135.2703  164.4206 C   0  0  0  0  0  0  0  0  0  0  0  0
  127.1600  136.3420  164.4111 C   0  0  0  0  0  0  0  0  0  0  0  0
  128.0185  135.2193  160.3807 O   0  0  0  0  0  0  0  0  0  0  0  0
  134.4957  137.7167  162.3131 C   0  0  0  0  0  0  0  0  0  0  0  0
  135.7420  138.5351  161.9663 C   0  0  0  0  0  0  0  0  0  0  0  0
  135.6796  140.6724  162.6814 H   0  0  0  0  0  0  0  0  0  0  0  0
  134.3731  141.4893  160.8816 H   0  0  0  0  0  0  0  0  0  0  0  0
  135.0249  138.9081  159.4760 H   0  0  0  0  0  0  0  0  0  0  0  0
  133.7808  140.0895  158.9902 H   0  0  0  0  0  0  0  0  0  0  0  0
  132.4486  138.2616  159.5688 H   0  0  0  0  0  0  0  0  0  0  0  0
  132.4987  139.1468  161.1085 H   0  0  0  0  0  0  0  0  0  0  0  0
  134.3739  136.8862  160.3529 H   0  0  0  0  0  0  0  0  0  0  0  0
  131.7274  136.9698  161.8032 H   0  0  0  0  0  0  0  0  0  0  0  0
  132.9374  135.7289  162.2093 H   0  0  0  0  0  0  0  0  0  0  0  0
  130.2566  135.2649  160.9759 H   0  0  0  0  0  0  0  0  0  0  0  0
  131.4663  134.0241  161.3820 H   0  0  0  0  0  0  0  0  0  0  0  0
  132.6276  133.3540  158.5428 H   0  0  0  0  0  0  0  0  0  0  0  0
  126.7449  132.5002  159.1610 H   0  0  0  0  0  0  0  0  0  0  0  0
  125.0343  133.9895  160.6169 H   0  0  0  0  0  0  0  0  0  0  0  0
  125.3252  136.2997  161.9245 H   0  0  0  0  0  0  0  0  0  0  0  0
  126.8349  139.5071  162.8844 H   0  0  0  0  0  0  0  0  0  0  0  0
  125.5133  138.3110  163.3585 H   0  0  0  0  0  0  0  0  0  0  0  0
  129.3013  138.6911  162.9451 H   0  0  0  0  0  0  0  0  0  0  0  0
  129.0235  138.5447  164.7007 H   0  0  0  0  0  0  0  0  0  0  0  0
  130.9667  137.1805  164.0988 H   0  0  0  0  0  0  0  0  0  0  0  0
  130.0374  136.3616  162.8196 H   0  0  0  0  0  0  0  0  0  0  0  0
  128.0121  134.5062  165.1587 H   0  0  0  0  0  0  0  0  0  0  0  0
  128.3269  134.8134  163.4332 H   0  0  0  0  0  0  0  0  0  0  0  0
  127.0182  136.7296  165.4201 H   0  0  0  0  0  0  0  0  0  0  0  0
  126.2261  135.9119  164.0496 H   0  0  0  0  0  0  0  0  0  0  0  0
  133.8648  138.2927  162.9900 H   0  0  0  0  0  0  0  0  0  0  0  0
  134.7988  136.7926  162.8052 H   0  0  0  0  0  0  0  0  0  0  0  0
  136.1315  138.2168  160.9993 H   0  0  0  0  0  0  0  0  0  0  0  0
  136.5032  138.3903  162.7330 H   0  0  0  0  0  0  0  0  0  0  0  0
  1 33  1  0
  1  2  2  0
  1 34  1  0
  2  3  1  0
  2 35  1  0
  3  4  1  0
  3 36  1  0
  3 37  1  0
  4  5  1  0
  4 38  1  0
  4 39  1  0
  5  6  1  0
  5 32  1  0
  5 40  1  0
  6  7  1  0
  6 41  1  0
  6 42  1  0
  7  8  1  0
  7  9  1  0
  7 10  1  0
 10 11  1  0
 10 43  1  0
 10 44  1  0
 11 16  1  0
 11 12  2  0
 12 13  1  0
 12 45  1  0
 13 14  1  0
 13 15  1  0
 15 16  2  0
 16 17  1  0
 17 31  1  0
 17 18  2  0
 18 19  1  0
 18 46  1  0
 19 20  2  0
 19 47  1  0
 20 21  1  0
 20 31  1  0
 21 22  1  0
 21 48  1  0
 22 23  1  6
 22 25  1  0
 22 24  1  0
 24 25  1  0
 24 49  1  0
 24 50  1  0
 25 30  1  0
 25 26  1  0
 26 27  1  0
 26 51  1  0
 26 52  1  0
 27 28  1  0
 27 53  1  0
 27 54  1  0
 28 29  1  0
 29 30  1  0
 29 55  1  0
 29 56  1  0
 30 57  1  0
 30 58  1  0
 32 33  1  0
 32 59  1  0
 32 60  1  0
 33 61  1  0
 33 62  1  0
M  CHG  1   7   1
M  END
>  <DOCK_score>  (1) 
-44.635967

>  <SMILES>  (1) 
C1=CCCC(C[NH2+]Cc2c[nH]nc2-c2ccc(N[C@H]3CC34CCOCC4)o2)CC1

$$$$
