[NH3+][C@H](Cc1cccc(OC[C@H]2[C@@H]3CC=CC[C@@H]32)c1)C(=O)Nc1cccc(O)c1
     RDKit          3D

 55 58  0  0  1  0  0  0  0  0999 V2000
  130.6188  133.6013  156.8741 N   0  0  0  0  0  0  0  0  0  0  0  0
  131.5357  133.9406  156.6249 H   0  0  0  0  0  0  0  0  0  0  0  0
  130.5396  132.6282  156.6195 H   0  0  0  0  0  0  0  0  0  0  0  0
  129.9176  134.1357  156.3831 H   0  0  0  0  0  0  0  0  0  0  0  0
  130.4198  133.7464  158.3223 C   0  0  2  0  0  0  0  0  0  0  0  0
  130.5054  134.7977  158.5973 H   0  0  0  0  0  0  0  0  0  0  0  0
  131.4830  132.9363  159.0668 C   0  0  0  0  0  0  0  0  0  0  0  0
  131.6061  133.4471  160.4792 C   0  0  0  0  0  0  0  0  0  0  0  0
  130.8224  132.9042  161.4810 C   0  0  0  0  0  0  0  0  0  0  0  0
  130.9366  133.3673  162.7786 C   0  0  0  0  0  0  0  0  0  0  0  0
  131.8267  134.3813  163.0756 C   0  0  0  0  0  0  0  0  0  0  0  0
  132.6101  134.9313  162.0717 C   0  0  0  0  0  0  0  0  0  0  0  0
  133.4867  135.9283  162.3615 O   0  0  0  0  0  0  0  0  0  0  0  0
  133.5497  136.3619  163.7217 C   0  0  0  0  0  0  0  0  0  0  0  0
  134.5840  137.4816  163.8528 C   0  0  1  0  0  0  0  0  0  0  0  0
  135.6021  137.2162  163.5676 H   0  0  0  0  0  0  0  0  0  0  0  0
  134.1190  138.9095  163.5603 C   0  0  2  0  0  0  0  0  0  0  0  0
  133.0848  139.0612  163.2508 H   0  0  0  0  0  0  0  0  0  0  0  0
  135.1525  139.8710  162.9523 C   0  0  0  0  0  0  0  0  0  0  0  0
  135.5331  140.8901  163.9983 C   0  0  0  0  0  0  0  0  0  0  0  0
  135.7811  140.5167  165.2291 C   0  0  0  0  0  0  0  0  0  0  0  0
  135.6904  139.0619  165.6199 C   0  0  0  0  0  0  0  0  0  0  0  0
  134.4106  138.4707  165.0070 C   0  0  2  0  0  0  0  0  0  0  0  0
  133.5676  138.3300  165.6837 H   0  0  0  0  0  0  0  0  0  0  0  0
  132.4975  134.4610  160.7710 C   0  0  0  0  0  0  0  0  0  0  0  0
  129.0502  133.2397  158.6945 C   0  0  0  0  0  0  0  0  0  0  0  0
  128.5357  132.3519  158.0478 O   0  0  0  0  0  0  0  0  0  0  0  0
  128.3971  133.7729  159.7459 N   0  0  0  0  0  0  0  0  0  0  0  0
  127.1255  133.3025  160.0914 C   0  0  0  0  0  0  0  0  0  0  0  0
  126.7777  131.9828  159.8312 C   0  0  0  0  0  0  0  0  0  0  0  0
  125.5242  131.5171  160.1770 C   0  0  0  0  0  0  0  0  0  0  0  0
  124.6094  132.3645  160.7731 C   0  0  0  0  0  0  0  0  0  0  0  0
  124.9493  133.6850  161.0303 C   0  0  0  0  0  0  0  0  0  0  0  0
  124.0486  134.5175  161.6156 O   0  0  0  0  0  0  0  0  0  0  0  0
  126.2082  134.1548  160.6893 C   0  0  0  0  0  0  0  0  0  0  0  0
  131.1931  131.8857  159.0844 H   0  0  0  0  0  0  0  0  0  0  0  0
  132.4413  133.0403  158.5580 H   0  0  0  0  0  0  0  0  0  0  0  0
  130.1231  132.1143  161.2499 H   0  0  0  0  0  0  0  0  0  0  0  0
  130.3264  132.9389  163.5599 H   0  0  0  0  0  0  0  0  0  0  0  0
  131.9122  134.7458  164.0887 H   0  0  0  0  0  0  0  0  0  0  0  0
  132.5721  136.7324  164.0305 H   0  0  0  0  0  0  0  0  0  0  0  0
  133.8381  135.5246  164.3569 H   0  0  0  0  0  0  0  0  0  0  0  0
  136.0370  139.3122  162.6466 H   0  0  0  0  0  0  0  0  0  0  0  0
  134.7190  140.3765  162.0893 H   0  0  0  0  0  0  0  0  0  0  0  0
  135.6018  141.9339  163.7302 H   0  0  0  0  0  0  0  0  0  0  0  0
  136.0525  141.2549  165.9692 H   0  0  0  0  0  0  0  0  0  0  0  0
  136.5602  138.5259  165.2397 H   0  0  0  0  0  0  0  0  0  0  0  0
  135.6535  138.9761  166.7058 H   0  0  0  0  0  0  0  0  0  0  0  0
  133.1061  134.8878  159.9876 H   0  0  0  0  0  0  0  0  0  0  0  0
  128.8086  134.4829  160.2630 H   0  0  0  0  0  0  0  0  0  0  0  0
  127.4892  131.3197  159.3618 H   0  0  0  0  0  0  0  0  0  0  0  0
  125.2569  130.4898  159.9777 H   0  0  0  0  0  0  0  0  0  0  0  0
  123.6287  131.9986  161.0388 H   0  0  0  0  0  0  0  0  0  0  0  0
  124.3764  135.4167  161.7542 H   0  0  0  0  0  0  0  0  0  0  0  0
  126.4747  135.1823  160.8891 H   0  0  0  0  0  0  0  0  0  0  0  0
  1  2  1  0
  1  3  1  0
  1  4  1  0
  1  5  1  0
  5  6  1  1
  5  7  1  0
  5 26  1  0
  7  8  1  0
  7 36  1  0
  7 37  1  0
  8 25  1  0
  8  9  2  0
  9 10  1  0
  9 38  1  0
 10 11  2  0
 10 39  1  0
 11 12  1  0
 11 40  1  0
 12 13  1  0
 12 25  2  0
 13 14  1  0
 14 15  1  0
 14 41  1  0
 14 42  1  0
 15 16  1  6
 15 23  1  0
 15 17  1  0
 17 18  1  1
 17 23  1  0
 17 19  1  0
 19 20  1  0
 19 43  1  0
 19 44  1  0
 20 21  2  0
 20 45  1  0
 21 22  1  0
 21 46  1  0
 22 23  1  0
 22 47  1  0
 22 48  1  0
 23 24  1  1
 25 49  1  0
 26 27  2  0
 26 28  1  0
 28 29  1  0
 28 50  1  0
 29 35  1  0
 29 30  2  0
 30 31  1  0
 30 51  1  0
 31 32  2  0
 31 52  1  0
 32 33  1  0
 32 53  1  0
 33 34  1  0
 33 35  2  0
 34 54  1  0
 35 55  1  0
M  CHG  1   1   1
M  END
>  <DOCK_score>  (1) 
-47.300766

>  <SMILES>  (1) 
[NH3+][C@H](Cc1cccc(OC[C@H]2[C@@H]3CC=CC[C@@H]32)c1)C(=O)Nc1cccc(O)c1

$$$$
