C[C@@H](Nc1cc(O)cc(O)c1)[C@H]([NH3+])C(=O)Nc1cccc(O)c1
     RDKit          3D

 43 44  0  0  1  0  0  0  0  0999 V2000
  129.7653  130.4149  157.7937 C   0  0  0  0  0  0  0  0  0  0  0  0
  129.3590  131.8676  157.5380 C   0  0  1  0  0  0  0  0  0  0  0  0
  128.4079  131.8906  157.0060 H   0  0  0  0  0  0  0  0  0  0  0  0
  129.2200  132.5682  158.8172 N   0  0  0  0  0  0  0  0  0  0  0  0
  127.9939  133.1337  159.1741 C   0  0  0  0  0  0  0  0  0  0  0  0
  127.9011  134.4989  159.4104 C   0  0  0  0  0  0  0  0  0  0  0  0
  126.6826  135.0601  159.7605 C   0  0  0  0  0  0  0  0  0  0  0  0
  126.5907  136.3968  159.9876 O   0  0  0  0  0  0  0  0  0  0  0  0
  125.5587  134.2569  159.8840 C   0  0  0  0  0  0  0  0  0  0  0  0
  125.6517  132.8924  159.6532 C   0  0  0  0  0  0  0  0  0  0  0  0
  124.5500  132.1062  159.7755 O   0  0  0  0  0  0  0  0  0  0  0  0
  126.8683  132.3303  159.2984 C   0  0  0  0  0  0  0  0  0  0  0  0
  130.4328  132.5564  156.6934 C   0  0  2  0  0  0  0  0  0  0  0  0
  131.4194  132.2373  157.0293 H   0  0  0  0  0  0  0  0  0  0  0  0
  130.3125  134.0130  156.8412 N   0  0  0  0  0  0  0  0  0  0  0  0
  129.3991  134.3082  156.5302 H   0  0  0  0  0  0  0  0  0  0  0  0
  130.4349  134.2639  157.8107 H   0  0  0  0  0  0  0  0  0  0  0  0
  131.0205  134.4672  156.2841 H   0  0  0  0  0  0  0  0  0  0  0  0
  130.2497  132.1816  155.2452 C   0  0  0  0  0  0  0  0  0  0  0  0
  129.5410  132.8569  154.5289 O   0  0  0  0  0  0  0  0  0  0  0  0
  130.8733  131.0961  154.7460 N   0  0  0  0  0  0  0  0  0  0  0  0
  130.7032  130.7481  153.4015 C   0  0  0  0  0  0  0  0  0  0  0  0
  130.4631  131.7345  152.4528 C   0  0  0  0  0  0  0  0  0  0  0  0
  130.2953  131.3910  151.1256 C   0  0  0  0  0  0  0  0  0  0  0  0
  130.3723  130.0670  150.7366 C   0  0  0  0  0  0  0  0  0  0  0  0
  130.6062  129.0772  151.6806 C   0  0  0  0  0  0  0  0  0  0  0  0
  130.6755  127.7751  151.2976 O   0  0  0  0  0  0  0  0  0  0  0  0
  130.7748  129.4178  153.0137 C   0  0  0  0  0  0  0  0  0  0  0  0
  129.0003  129.9241  158.3955 H   0  0  0  0  0  0  0  0  0  0  0  0
  129.8686  129.8936  156.8420 H   0  0  0  0  0  0  0  0  0  0  0  0
  130.7164  130.3918  158.3259 H   0  0  0  0  0  0  0  0  0  0  0  0
  129.9796  132.6392  159.4163 H   0  0  0  0  0  0  0  0  0  0  0  0
  128.7770  135.1239  159.3179 H   0  0  0  0  0  0  0  0  0  0  0  0
  127.4259  136.8721  159.8810 H   0  0  0  0  0  0  0  0  0  0  0  0
  124.6106  134.6941  160.1603 H   0  0  0  0  0  0  0  0  0  0  0  0
  124.7128  131.1702  159.5953 H   0  0  0  0  0  0  0  0  0  0  0  0
  126.9404  131.2678  159.1185 H   0  0  0  0  0  0  0  0  0  0  0  0
  131.4400  130.5561  155.3188 H   0  0  0  0  0  0  0  0  0  0  0  0
  130.4073  132.7702  152.7535 H   0  0  0  0  0  0  0  0  0  0  0  0
  130.1084  132.1590  150.3896 H   0  0  0  0  0  0  0  0  0  0  0  0
  130.2458  129.8020  149.6972 H   0  0  0  0  0  0  0  0  0  0  0  0
  130.5497  127.6370  150.3488 H   0  0  0  0  0  0  0  0  0  0  0  0
  130.9617  128.6492  153.7491 H   0  0  0  0  0  0  0  0  0  0  0  0
  1  2  1  0
  1 29  1  0
  1 30  1  0
  1 31  1  0
  2  3  1  6
  2  4  1  0
  2 13  1  0
  4  5  1  0
  4 32  1  0
  5 12  1  0
  5  6  2  0
  6  7  1  0
  6 33  1  0
  7  8  1  0
  7  9  2  0
  8 34  1  0
  9 10  1  0
  9 35  1  0
 10 11  1  0
 10 12  2  0
 11 36  1  0
 12 37  1  0
 13 14  1  1
 13 15  1  0
 13 19  1  0
 15 16  1  0
 15 17  1  0
 15 18  1  0
 19 20  2  0
 19 21  1  0
 21 22  1  0
 21 38  1  0
 22 28  1  0
 22 23  2  0
 23 24  1  0
 23 39  1  0
 24 25  2  0
 24 40  1  0
 25 26  1  0
 25 41  1  0
 26 27  1  0
 26 28  2  0
 27 42  1  0
 28 43  1  0
M  CHG  1  15   1
M  END
>  <DOCK_score>  (1) 
-41.863964

>  <SMILES>  (1) 
C[C@@H](Nc1cc(O)cc(O)c1)[C@H]([NH3+])C(=O)Nc1cccc(O)c1

$$$$
