Cc1cccc(C2=CC[NH+]([C@@H](C)c3cnn(-c4ccccc4)c3)CC2)c1C
     RDKit          3D

 55 58  0  0  1  0  0  0  0  0999 V2000
  135.3468  141.4602  162.2871 C   0  0  0  0  0  0  0  0  0  0  0  0
  135.2430  140.4689  161.1567 C   0  0  0  0  0  0  0  0  0  0  0  0
  136.1631  140.5009  160.1238 C   0  0  0  0  0  0  0  0  0  0  0  0
  136.0748  139.5946  159.0825 C   0  0  0  0  0  0  0  0  0  0  0  0
  135.0667  138.6523  159.0677 C   0  0  0  0  0  0  0  0  0  0  0  0
  134.1355  138.6150  160.1059 C   0  0  0  0  0  0  0  0  0  0  0  0
  133.0532  137.6084  160.0963 C   0  0  0  0  0  0  0  0  0  0  0  0
  131.8039  138.0205  160.0877 C   0  0  0  0  0  0  0  0  0  0  0  0
  130.6335  137.0798  160.0829 C   0  0  0  0  0  0  0  0  0  0  0  0
  131.0558  135.7397  159.6593 N   0  0  2  0  0  0  0  0  0  0  0  0
  131.3297  135.7632  158.6884 H   0  0  0  0  0  0  0  0  0  0  0  0
  129.9438  134.7958  159.8337 C   0  0  1  0  0  0  0  0  0  0  0  0
  129.8820  134.4966  160.8800 H   0  0  0  0  0  0  0  0  0  0  0  0
  128.6341  135.4682  159.4172 C   0  0  0  0  0  0  0  0  0  0  0  0
  130.1786  133.5790  158.9763 C   0  0  0  0  0  0  0  0  0  0  0  0
  130.3012  132.2619  159.4321 C   0  0  0  0  0  0  0  0  0  0  0  0
  130.4974  131.4863  158.3965 N   0  0  0  0  0  0  0  0  0  0  0  0
  130.5061  132.2857  157.2462 N   0  0  0  0  0  0  0  0  0  0  0  0
  130.6883  131.8367  155.9306 C   0  0  0  0  0  0  0  0  0  0  0  0
  130.6748  132.7422  154.8783 C   0  0  0  0  0  0  0  0  0  0  0  0
  130.8551  132.2968  153.5835 C   0  0  0  0  0  0  0  0  0  0  0  0
  131.0492  130.9505  153.3346 C   0  0  0  0  0  0  0  0  0  0  0  0
  131.0633  130.0462  154.3807 C   0  0  0  0  0  0  0  0  0  0  0  0
  130.8831  130.4854  155.6778 C   0  0  0  0  0  0  0  0  0  0  0  0
  130.3137  133.5681  157.6298 C   0  0  0  0  0  0  0  0  0  0  0  0
  132.1972  135.3141  160.4847 C   0  0  0  0  0  0  0  0  0  0  0  0
  133.4196  136.1497  160.0962 C   0  0  0  0  0  0  0  0  0  0  0  0
  134.2268  139.5359  161.1506 C   0  0  0  0  0  0  0  0  0  0  0  0
  133.2215  139.5068  162.2729 C   0  0  0  0  0  0  0  0  0  0  0  0
  134.7691  142.3515  162.0428 H   0  0  0  0  0  0  0  0  0  0  0  0
  134.9551  141.0119  163.2004 H   0  0  0  0  0  0  0  0  0  0  0  0
  136.3915  141.7335  162.4357 H   0  0  0  0  0  0  0  0  0  0  0  0
  136.9539  141.2363  160.1309 H   0  0  0  0  0  0  0  0  0  0  0  0
  136.7961  139.6248  158.2793 H   0  0  0  0  0  0  0  0  0  0  0  0
  134.9990  137.9450  158.2543 H   0  0  0  0  0  0  0  0  0  0  0  0
  131.6113  139.0832  160.0836 H   0  0  0  0  0  0  0  0  0  0  0  0
  129.8741  137.4526  159.3956 H   0  0  0  0  0  0  0  0  0  0  0  0
  130.2115  137.0244  161.0864 H   0  0  0  0  0  0  0  0  0  0  0  0
  128.4642  136.3483  160.0374 H   0  0  0  0  0  0  0  0  0  0  0  0
  128.6960  135.7675  158.3710 H   0  0  0  0  0  0  0  0  0  0  0  0
  127.8089  134.7678  159.5467 H   0  0  0  0  0  0  0  0  0  0  0  0
  130.2431  131.9405  160.4616 H   0  0  0  0  0  0  0  0  0  0  0  0
  130.5239  133.7939  155.0722 H   0  0  0  0  0  0  0  0  0  0  0  0
  130.8446  133.0007  152.7645 H   0  0  0  0  0  0  0  0  0  0  0  0
  131.1858  130.6040  152.3209 H   0  0  0  0  0  0  0  0  0  0  0  0
  131.2152  128.9954  154.1832 H   0  0  0  0  0  0  0  0  0  0  0  0
  130.8942  129.7787  156.4942 H   0  0  0  0  0  0  0  0  0  0  0  0
  130.2727  134.4286  156.9784 H   0  0  0  0  0  0  0  0  0  0  0  0
  131.9659  135.4719  161.5382 H   0  0  0  0  0  0  0  0  0  0  0  0
  132.4039  134.2587  160.3070 H   0  0  0  0  0  0  0  0  0  0  0  0
  133.7559  135.8600  159.1007 H   0  0  0  0  0  0  0  0  0  0  0  0
  134.2207  135.9765  160.8147 H   0  0  0  0  0  0  0  0  0  0  0  0
  133.5798  138.8490  163.0646 H   0  0  0  0  0  0  0  0  0  0  0  0
  133.0898  140.5137  162.6689 H   0  0  0  0  0  0  0  0  0  0  0  0
  132.2677  139.1367  161.8969 H   0  0  0  0  0  0  0  0  0  0  0  0
  1  2  1  0
  1 30  1  0
  1 31  1  0
  1 32  1  0
  2 28  2  0
  2  3  1  0
  3  4  2  0
  3 33  1  0
  4  5  1  0
  4 34  1  0
  5  6  2  0
  5 35  1  0
  6  7  1  0
  6 28  1  0
  7 27  1  0
  7  8  2  0
  8  9  1  0
  8 36  1  0
  9 10  1  0
  9 37  1  0
  9 38  1  0
 10 11  1  6
 10 12  1  0
 10 26  1  0
 12 13  1  1
 12 14  1  0
 12 15  1  0
 14 39  1  0
 14 40  1  0
 14 41  1  0
 15 25  2  0
 15 16  1  0
 16 17  2  0
 16 42  1  0
 17 18  1  0
 18 19  1  0
 18 25  1  0
 19 24  1  0
 19 20  2  0
 20 21  1  0
 20 43  1  0
 21 22  2  0
 21 44  1  0
 22 23  1  0
 22 45  1  0
 23 24  2  0
 23 46  1  0
 24 47  1  0
 25 48  1  0
 26 27  1  0
 26 49  1  0
 26 50  1  0
 27 51  1  0
 27 52  1  0
 28 29  1  0
 29 53  1  0
 29 54  1  0
 29 55  1  0
M  CHG  1  10   1
M  END
>  <DOCK_score>  (1) 
-57.538025

>  <SMILES>  (1) 
Cc1cccc(C2=CC[NH+]([C@@H](C)c3cnn(-c4ccccc4)c3)CC2)c1C

$$$$
