O=C1C=C(c2ccc(Nc3ccc(NC4=[NH+]CCN4)cc3)cc2)CN1
     RDKit          3D

 45 48  0  0  0  0  0  0  0  0999 V2000
  127.3236  137.9510  170.9016 O   0  0  0  0  0  0  0  0  0  0  0  0
  127.5584  138.2568  169.7470 C   0  0  0  0  0  0  0  0  0  0  0  0
  126.9763  137.6083  168.5790 C   0  0  0  0  0  0  0  0  0  0  0  0
  127.4487  138.1908  167.4557 C   0  0  0  0  0  0  0  0  0  0  0  0
  127.1137  137.8287  166.0719 C   0  0  0  0  0  0  0  0  0  0  0  0
  126.5158  138.7701  165.2249 C   0  0  0  0  0  0  0  0  0  0  0  0
  126.2091  138.4296  163.9330 C   0  0  0  0  0  0  0  0  0  0  0  0
  126.4817  137.1463  163.4656 C   0  0  0  0  0  0  0  0  0  0  0  0
  126.1646  136.8035  162.1554 N   0  0  0  0  0  0  0  0  0  0  0  0
  127.1716  136.3888  161.2770 C   0  0  0  0  0  0  0  0  0  0  0  0
  126.8788  135.4899  160.2591 C   0  0  0  0  0  0  0  0  0  0  0  0
  127.8715  135.0857  159.3889 C   0  0  0  0  0  0  0  0  0  0  0  0
  129.1650  135.5680  159.5386 C   0  0  0  0  0  0  0  0  0  0  0  0
  130.1736  135.1527  158.6588 N   0  0  0  0  0  0  0  0  0  0  0  0
  130.1160  133.9087  158.0892 C   0  0  0  0  0  0  0  0  0  0  0  0
  129.5533  132.8728  158.6901 N   0  0  0  0  0  0  0  0  0  0  0  0
  129.1381  132.8893  159.5665 H   0  0  0  0  0  0  0  0  0  0  0  0
  129.6534  131.6928  157.8170 C   0  0  0  0  0  0  0  0  0  0  0  0
  130.3979  132.2263  156.5764 C   0  0  0  0  0  0  0  0  0  0  0  0
  130.6235  133.6446  156.8961 N   0  0  0  0  0  0  0  0  0  0  0  0
  129.4589  136.4621  160.5594 C   0  0  0  0  0  0  0  0  0  0  0  0
  128.4654  136.8715  161.4261 C   0  0  0  0  0  0  0  0  0  0  0  0
  127.0714  136.2055  164.3061 C   0  0  0  0  0  0  0  0  0  0  0  0
  127.3861  136.5395  165.5979 C   0  0  0  0  0  0  0  0  0  0  0  0
  128.3941  139.2837  167.8992 C   0  0  0  0  0  0  0  0  0  0  0  0
  128.3925  139.2417  169.3671 N   0  0  0  0  0  0  0  0  0  0  0  0
  126.2749  136.7876  168.6073 H   0  0  0  0  0  0  0  0  0  0  0  0
  126.3002  139.7643  165.5878 H   0  0  0  0  0  0  0  0  0  0  0  0
  125.7513  139.1561  163.2780 H   0  0  0  0  0  0  0  0  0  0  0  0
  125.2446  136.8515  161.8504 H   0  0  0  0  0  0  0  0  0  0  0  0
  125.8738  135.1110  160.1456 H   0  0  0  0  0  0  0  0  0  0  0  0
  127.6431  134.3903  158.5947 H   0  0  0  0  0  0  0  0  0  0  0  0
  130.9127  135.7463  158.4534 H   0  0  0  0  0  0  0  0  0  0  0  0
  128.6633  131.3282  157.5433 H   0  0  0  0  0  0  0  0  0  0  0  0
  130.2318  130.9074  158.3036 H   0  0  0  0  0  0  0  0  0  0  0  0
  129.7785  132.1274  155.6850 H   0  0  0  0  0  0  0  0  0  0  0  0
  131.3470  131.7072  156.4425 H   0  0  0  0  0  0  0  0  0  0  0  0
  131.0732  134.2849  156.3228 H   0  0  0  0  0  0  0  0  0  0  0  0
  130.4648  136.8376  160.6752 H   0  0  0  0  0  0  0  0  0  0  0  0
  128.6941  137.5671  162.2199 H   0  0  0  0  0  0  0  0  0  0  0  0
  127.2815  135.2114  163.9397 H   0  0  0  0  0  0  0  0  0  0  0  0
  127.8433  135.8092  166.2492 H   0  0  0  0  0  0  0  0  0  0  0  0
  129.3971  139.0906  167.5186 H   0  0  0  0  0  0  0  0  0  0  0  0
  128.0387  140.2531  167.5502 H   0  0  0  0  0  0  0  0  0  0  0  0
  128.9009  139.8203  169.9568 H   0  0  0  0  0  0  0  0  0  0  0  0
  1  2  2  0
  2 26  1  0
  2  3  1  0
  3  4  2  0
  3 27  1  0
  4  5  1  0
  4 25  1  0
  5 24  1  0
  5  6  2  0
  6  7  1  0
  6 28  1  0
  7  8  2  0
  7 29  1  0
  8  9  1  0
  8 23  1  0
  9 10  1  0
  9 30  1  0
 10 22  1  0
 10 11  2  0
 11 12  1  0
 11 31  1  0
 12 13  2  0
 12 32  1  0
 13 14  1  0
 13 21  1  0
 14 15  1  0
 14 33  1  0
 15 20  2  0
 15 16  1  0
 16 17  1  0
 16 18  1  0
 18 19  1  0
 18 34  1  0
 18 35  1  0
 19 20  1  0
 19 36  1  0
 19 37  1  0
 20 38  1  0
 21 22  2  0
 21 39  1  0
 22 40  1  0
 23 24  2  0
 23 41  1  0
 24 42  1  0
 25 26  1  0
 25 43  1  0
 25 44  1  0
 26 45  1  0
M  CHG  1  20   1
M  END
>  <DOCK_score>  (1) 
-40.949181

>  <SMILES>  (1) 
O=C1C=C(c2ccc(Nc3ccc(NC4=[NH+]CCN4)cc3)cc2)CN1

$$$$
