O=C(C[C@H](Nc1[nH]cc(-c2ccc(-c3ccccc3)cc2)[nH+]1)c1ccccc1)C1CC1
     RDKit          3D

 57 61  0  0  1  0  0  0  0  0999 V2000
  132.8406  139.3190  160.8104 O   0  0  0  0  0  0  0  0  0  0  0  0
  132.6035  138.5068  161.6720 C   0  0  0  0  0  0  0  0  0  0  0  0
  131.1789  138.2415  162.0860 C   0  0  0  0  0  0  0  0  0  0  0  0
  130.8417  136.7697  161.8387 C   0  0  2  0  0  0  0  0  0  0  0  0
  131.5131  136.1400  162.4227 H   0  0  0  0  0  0  0  0  0  0  0  0
  131.0015  136.4647  160.4147 N   0  0  0  0  0  0  0  0  0  0  0  0
  130.7505  135.1857  159.9484 C   0  0  0  0  0  0  0  0  0  0  0  0
  130.3524  134.1289  160.7081 N   0  0  0  0  0  0  0  0  0  0  0  0
  130.1947  134.1365  161.6652 H   0  0  0  0  0  0  0  0  0  0  0  0
  130.2156  133.0497  159.8698 C   0  0  0  0  0  0  0  0  0  0  0  0
  130.5289  133.4787  158.6215 C   0  0  0  0  0  0  0  0  0  0  0  0
  130.5166  132.6570  157.3876 C   0  0  0  0  0  0  0  0  0  0  0  0
  130.2329  133.2500  156.1573 C   0  0  0  0  0  0  0  0  0  0  0  0
  130.2267  132.4874  155.0105 C   0  0  0  0  0  0  0  0  0  0  0  0
  130.4938  131.1203  155.0805 C   0  0  0  0  0  0  0  0  0  0  0  0
  130.4816  130.2982  153.8462 C   0  0  0  0  0  0  0  0  0  0  0  0
  131.3035  129.1770  153.7444 C   0  0  0  0  0  0  0  0  0  0  0  0
  131.2844  128.4130  152.5953 C   0  0  0  0  0  0  0  0  0  0  0  0
  130.4599  128.7644  151.5415 C   0  0  0  0  0  0  0  0  0  0  0  0
  129.6462  129.8791  151.6349 C   0  0  0  0  0  0  0  0  0  0  0  0
  129.6531  130.6475  152.7812 C   0  0  0  0  0  0  0  0  0  0  0  0
  130.7722  130.5262  156.3112 C   0  0  0  0  0  0  0  0  0  0  0  0
  130.7834  131.2896  157.4576 C   0  0  0  0  0  0  0  0  0  0  0  0
  130.8578  134.7926  158.7027 N   0  0  0  0  0  0  0  0  0  0  0  0
  131.1254  135.3527  157.9573 H   0  0  0  0  0  0  0  0  0  0  0  0
  129.4172  136.5043  162.2524 C   0  0  0  0  0  0  0  0  0  0  0  0
  129.1359  136.1064  163.5460 C   0  0  0  0  0  0  0  0  0  0  0  0
  127.8288  135.8672  163.9268 C   0  0  0  0  0  0  0  0  0  0  0  0
  126.8038  136.0171  163.0114 C   0  0  0  0  0  0  0  0  0  0  0  0
  127.0855  136.4100  161.7165 C   0  0  0  0  0  0  0  0  0  0  0  0
  128.3923  136.6534  161.3368 C   0  0  0  0  0  0  0  0  0  0  0  0
  133.7321  137.7587  162.3336 C   0  0  0  0  0  0  0  0  0  0  0  0
  135.1595  138.2112  162.0193 C   0  0  0  0  0  0  0  0  0  0  0  0
  134.6283  136.8982  161.4406 C   0  0  0  0  0  0  0  0  0  0  0  0
  130.5076  138.8711  161.5020 H   0  0  0  0  0  0  0  0  0  0  0  0
  131.0602  138.4683  163.1455 H   0  0  0  0  0  0  0  0  0  0  0  0
  131.2832  137.1590  159.7986 H   0  0  0  0  0  0  0  0  0  0  0  0
  129.9126  132.0516  160.1500 H   0  0  0  0  0  0  0  0  0  0  0  0
  130.0218  134.3078  156.1036 H   0  0  0  0  0  0  0  0  0  0  0  0
  130.0114  132.9474  154.0573 H   0  0  0  0  0  0  0  0  0  0  0  0
  131.9506  128.9041  154.5649 H   0  0  0  0  0  0  0  0  0  0  0  0
  131.9173  127.5414  152.5170 H   0  0  0  0  0  0  0  0  0  0  0  0
  130.4516  128.1661  150.6424 H   0  0  0  0  0  0  0  0  0  0  0  0
  129.0048  130.1489  150.8090 H   0  0  0  0  0  0  0  0  0  0  0  0
  129.0177  131.5179  152.8529 H   0  0  0  0  0  0  0  0  0  0  0  0
  130.9783  129.4676  156.3653 H   0  0  0  0  0  0  0  0  0  0  0  0
  130.9992  130.8296  158.4106 H   0  0  0  0  0  0  0  0  0  0  0  0
  129.9371  135.9856  164.2601 H   0  0  0  0  0  0  0  0  0  0  0  0
  127.6086  135.5605  164.9387 H   0  0  0  0  0  0  0  0  0  0  0  0
  125.7827  135.8277  163.3082 H   0  0  0  0  0  0  0  0  0  0  0  0
  126.2847  136.5271  161.0014 H   0  0  0  0  0  0  0  0  0  0  0  0
  128.6125  136.9603  160.3251 H   0  0  0  0  0  0  0  0  0  0  0  0
  133.5290  137.3964  163.3413 H   0  0  0  0  0  0  0  0  0  0  0  0
  135.2822  139.0501  161.3342 H   0  0  0  0  0  0  0  0  0  0  0  0
  135.8958  138.1467  162.8206 H   0  0  0  0  0  0  0  0  0  0  0  0
  135.0152  135.9700  161.8611 H   0  0  0  0  0  0  0  0  0  0  0  0
  134.4016  136.8733  160.3748 H   0  0  0  0  0  0  0  0  0  0  0  0
  1  2  2  0
  2  3  1  0
  2 32  1  0
  3  4  1  0
  3 35  1  0
  3 36  1  0
  4  5  1  1
  4  6  1  0
  4 26  1  0
  6 37  1  0
  7  6  1  0
  7 24  2  0
  7  8  1  0
  8  9  1  0
  8 10  1  0
 10 11  2  0
 10 38  1  0
 11 12  1  0
 11 24  1  0
 12 23  1  0
 12 13  2  0
 13 14  1  0
 13 39  1  0
 14 15  2  0
 14 40  1  0
 15 16  1  0
 15 22  1  0
 16 21  1  0
 16 17  2  0
 17 18  1  0
 17 41  1  0
 18 19  2  0
 18 42  1  0
 19 20  1  0
 19 43  1  0
 20 21  2  0
 20 44  1  0
 21 45  1  0
 22 23  2  0
 22 46  1  0
 23 47  1  0
 24 25  1  0
 26 31  1  0
 26 27  2  0
 27 28  1  0
 27 48  1  0
 28 29  2  0
 28 49  1  0
 29 30  1  0
 29 50  1  0
 30 31  2  0
 30 51  1  0
 31 52  1  0
 32 34  1  0
 32 33  1  0
 32 53  1  0
 33 34  1  0
 33 54  1  0
 33 55  1  0
 34 56  1  0
 34 57  1  0
M  CHG  1  24   1
M  END
>  <DOCK_score>  (1) 
-57.507313

>  <SMILES>  (1) 
O=C(C[C@H](Nc1[nH]cc(-c2ccc(-c3ccccc3)cc2)[nH+]1)c1ccccc1)C1CC1

$$$$
