Cc1c([C@H](Nc2[nH]cc(-c3ccc(Br)cc3)[nH+]2)c2cccc(O)c2)ccc2c1CCC2
     RDKit          3D

 56 60  0  0  1  0  0  0  0  0999 V2000
  132.9087  136.0384  160.5652 C   0  0  0  0  0  0  0  0  0  0  0  0
  131.8778  137.0664  160.9547 C   0  0  0  0  0  0  0  0  0  0  0  0
  130.5337  136.7561  160.8800 C   0  0  0  0  0  0  0  0  0  0  0  0
  130.0996  135.3918  160.4097 C   0  0  2  0  0  0  0  0  0  0  0  0
  130.5085  134.6312  161.0748 H   0  0  0  0  0  0  0  0  0  0  0  0
  130.5909  135.1653  159.0483 N   0  0  0  0  0  0  0  0  0  0  0  0
  130.3145  133.9725  158.4021 C   0  0  0  0  0  0  0  0  0  0  0  0
  129.5957  132.9390  158.9191 N   0  0  0  0  0  0  0  0  0  0  0  0
  129.1885  132.9058  159.7988 H   0  0  0  0  0  0  0  0  0  0  0  0
  129.5536  131.9514  157.9650 C   0  0  0  0  0  0  0  0  0  0  0  0
  130.2474  132.4094  156.8936 C   0  0  0  0  0  0  0  0  0  0  0  0
  130.4702  131.6801  155.6213 C   0  0  0  0  0  0  0  0  0  0  0  0
  130.0100  132.2145  154.4192 C   0  0  0  0  0  0  0  0  0  0  0  0
  130.2250  131.5349  153.2375 C   0  0  0  0  0  0  0  0  0  0  0  0
  130.8858  130.3189  153.2463 C   0  0  0  0  0  0  0  0  0  0  0  0
  131.1693  129.3892  151.6241 Br  0  0  0  0  0  0  0  0  0  0  0  0
  131.3401  129.7810  154.4381 C   0  0  0  0  0  0  0  0  0  0  0  0
  131.1355  130.4554  155.6246 C   0  0  0  0  0  0  0  0  0  0  0  0
  130.6975  133.6546  157.1897 N   0  0  0  0  0  0  0  0  0  0  0  0
  131.2212  134.2184  156.5992 H   0  0  0  0  0  0  0  0  0  0  0  0
  128.5948  135.3121  160.4205 C   0  0  0  0  0  0  0  0  0  0  0  0
  127.9341  134.8770  161.5547 C   0  0  0  0  0  0  0  0  0  0  0  0
  126.5537  134.8036  161.5681 C   0  0  0  0  0  0  0  0  0  0  0  0
  125.8306  135.1649  160.4476 C   0  0  0  0  0  0  0  0  0  0  0  0
  126.4910  135.6011  159.3084 C   0  0  0  0  0  0  0  0  0  0  0  0
  125.7819  135.9575  158.2052 O   0  0  0  0  0  0  0  0  0  0  0  0
  127.8763  135.6788  159.2994 C   0  0  0  0  0  0  0  0  0  0  0  0
  129.5874  137.7002  161.2313 C   0  0  0  0  0  0  0  0  0  0  0  0
  129.9878  138.9485  161.6673 C   0  0  0  0  0  0  0  0  0  0  0  0
  131.3344  139.2610  161.7436 C   0  0  0  0  0  0  0  0  0  0  0  0
  132.2809  138.3185  161.3865 C   0  0  0  0  0  0  0  0  0  0  0  0
  133.6690  138.8982  161.5558 C   0  0  0  0  0  0  0  0  0  0  0  0
  133.4622  140.4256  161.6336 C   0  0  0  0  0  0  0  0  0  0  0  0
  132.0220  140.5378  162.1773 C   0  0  0  0  0  0  0  0  0  0  0  0
  133.1573  136.1546  159.5103 H   0  0  0  0  0  0  0  0  0  0  0  0
  133.8065  136.1779  161.1675 H   0  0  0  0  0  0  0  0  0  0  0  0
  132.5081  135.0393  160.7363 H   0  0  0  0  0  0  0  0  0  0  0  0
  131.1096  135.8511  158.5995 H   0  0  0  0  0  0  0  0  0  0  0  0
  129.0626  130.9934  158.0519 H   0  0  0  0  0  0  0  0  0  0  0  0
  129.4902  133.1611  154.4119 H   0  0  0  0  0  0  0  0  0  0  0  0
  129.8724  131.9502  152.3049 H   0  0  0  0  0  0  0  0  0  0  0  0
  131.8555  128.8319  154.4395 H   0  0  0  0  0  0  0  0  0  0  0  0
  131.4903  130.0349  156.5539 H   0  0  0  0  0  0  0  0  0  0  0  0
  128.4974  134.5945  162.4317 H   0  0  0  0  0  0  0  0  0  0  0  0
  126.0400  134.4639  162.4554 H   0  0  0  0  0  0  0  0  0  0  0  0
  124.7522  135.1080  160.4588 H   0  0  0  0  0  0  0  0  0  0  0  0
  126.3292  136.2476  157.4626 H   0  0  0  0  0  0  0  0  0  0  0  0
  128.3924  136.0229  158.4152 H   0  0  0  0  0  0  0  0  0  0  0  0
  128.5361  137.4609  161.1692 H   0  0  0  0  0  0  0  0  0  0  0  0
  129.2479  139.6841  161.9460 H   0  0  0  0  0  0  0  0  0  0  0  0
  134.1228  138.5305  162.4760 H   0  0  0  0  0  0  0  0  0  0  0  0
  134.2920  138.6440  160.6982 H   0  0  0  0  0  0  0  0  0  0  0  0
  133.5395  140.8780  160.6449 H   0  0  0  0  0  0  0  0  0  0  0  0
  134.1731  140.8812  162.3229 H   0  0  0  0  0  0  0  0  0  0  0  0
  131.5206  141.4033  161.7440 H   0  0  0  0  0  0  0  0  0  0  0  0
  132.0330  140.6111  163.2647 H   0  0  0  0  0  0  0  0  0  0  0  0
  1  2  1  0
  1 35  1  0
  1 36  1  0
  1 37  1  0
  2 31  2  0
  2  3  1  0
  3  4  1  0
  3 28  2  0
  4  5  1  1
  4  6  1  0
  4 21  1  0
  6 38  1  0
  7  6  1  0
  7 19  2  0
  7  8  1  0
  8  9  1  0
  8 10  1  0
 10 11  2  0
 10 39  1  0
 11 12  1  0
 11 19  1  0
 12 18  1  0
 12 13  2  0
 13 14  1  0
 13 40  1  0
 14 15  2  0
 14 41  1  0
 15 16  1  0
 15 17  1  0
 17 18  2  0
 17 42  1  0
 18 43  1  0
 19 20  1  0
 21 27  1  0
 21 22  2  0
 22 23  1  0
 22 44  1  0
 23 24  2  0
 23 45  1  0
 24 25  1  0
 24 46  1  0
 25 26  1  0
 25 27  2  0
 26 47  1  0
 27 48  1  0
 28 29  1  0
 28 49  1  0
 29 30  2  0
 29 50  1  0
 30 34  1  0
 30 31  1  0
 31 32  1  0
 32 33  1  0
 32 51  1  0
 32 52  1  0
 33 34  1  0
 33 53  1  0
 33 54  1  0
 34 55  1  0
 34 56  1  0
M  CHG  1  19   1
M  END
>  <DOCK_score>  (1) 
-58.974464

>  <SMILES>  (1) 
Cc1c([C@H](Nc2[nH]cc(-c3ccc(Br)cc3)[nH+]2)c2cccc(O)c2)ccc2c1CCC2

$$$$
