CC(c1cc(-c2ccccc2)ccn1)[N@@H+]1CC=C(c2ccccc2)CC1
     RDKit          3D

 51 54  0  0  1  0  0  0  0  0999 V2000
  128.6637  134.5763  158.2836 C   0  0  0  0  0  0  0  0  0  0  0  0
  129.7114  134.1654  159.3202 C   0  0  1  0  0  0  0  0  0  0  0  0
  130.3951  132.9004  158.8689 C   0  0  0  0  0  0  0  0  0  0  0  0
  130.5289  132.6429  157.5197 C   0  0  0  0  0  0  0  0  0  0  0  0
  131.1650  131.4667  157.1138 C   0  0  0  0  0  0  0  0  0  0  0  0
  131.3312  131.1480  155.6745 C   0  0  0  0  0  0  0  0  0  0  0  0
  131.3694  129.8206  155.2520 C   0  0  0  0  0  0  0  0  0  0  0  0
  131.5184  129.5298  153.9111 C   0  0  0  0  0  0  0  0  0  0  0  0
  131.6414  130.5530  152.9884 C   0  0  0  0  0  0  0  0  0  0  0  0
  131.6098  131.8723  153.4028 C   0  0  0  0  0  0  0  0  0  0  0  0
  131.4554  132.1747  154.7405 C   0  0  0  0  0  0  0  0  0  0  0  0
  131.6404  130.5986  158.1010 C   0  0  0  0  0  0  0  0  0  0  0  0
  131.4646  130.9333  159.4277 C   0  0  0  0  0  0  0  0  0  0  0  0
  130.8624  132.0567  159.7687 N   0  0  0  0  0  0  0  0  0  0  0  0
  130.7070  135.2363  159.4614 N   0  0  2  0  0  0  0  0  0  0  0  0
  130.9191  135.6238  158.5543 H   0  0  0  0  0  0  0  0  0  0  0  0
  131.9359  134.6983  160.0640 C   0  0  0  0  0  0  0  0  0  0  0  0
  132.8932  135.8087  160.3878 C   0  0  0  0  0  0  0  0  0  0  0  0
  132.5236  137.0679  160.4806 C   0  0  0  0  0  0  0  0  0  0  0  0
  133.5420  138.0870  160.8108 C   0  0  0  0  0  0  0  0  0  0  0  0
  133.4026  138.8714  161.9564 C   0  0  0  0  0  0  0  0  0  0  0  0
  134.3592  139.8177  162.2615 C   0  0  0  0  0  0  0  0  0  0  0  0
  135.4494  139.9969  161.4288 C   0  0  0  0  0  0  0  0  0  0  0  0
  135.5909  139.2260  160.2888 C   0  0  0  0  0  0  0  0  0  0  0  0
  134.6440  138.2727  159.9752 C   0  0  0  0  0  0  0  0  0  0  0  0
  131.1018  137.5075  160.2632 C   0  0  0  0  0  0  0  0  0  0  0  0
  130.1729  136.2929  160.3354 C   0  0  0  0  0  0  0  0  0  0  0  0
  129.1505  134.7490  157.3237 H   0  0  0  0  0  0  0  0  0  0  0  0
  127.9251  133.7817  158.1789 H   0  0  0  0  0  0  0  0  0  0  0  0
  128.1693  135.4914  158.6100 H   0  0  0  0  0  0  0  0  0  0  0  0
  129.2247  133.9927  160.2801 H   0  0  0  0  0  0  0  0  0  0  0  0
  130.1478  133.3403  156.7884 H   0  0  0  0  0  0  0  0  0  0  0  0
  131.2783  129.0209  155.9722 H   0  0  0  0  0  0  0  0  0  0  0  0
  131.5436  128.5014  153.5821 H   0  0  0  0  0  0  0  0  0  0  0  0
  131.7621  130.3206  151.9406 H   0  0  0  0  0  0  0  0  0  0  0  0
  131.7057  132.6674  152.6781 H   0  0  0  0  0  0  0  0  0  0  0  0
  131.4314  133.2052  155.0630 H   0  0  0  0  0  0  0  0  0  0  0  0
  132.1381  129.6795  157.8290 H   0  0  0  0  0  0  0  0  0  0  0  0
  131.8284  130.2689  160.1975 H   0  0  0  0  0  0  0  0  0  0  0  0
  132.4075  134.0082  159.3645 H   0  0  0  0  0  0  0  0  0  0  0  0
  131.6797  134.1647  160.9794 H   0  0  0  0  0  0  0  0  0  0  0  0
  133.9320  135.5627  160.5516 H   0  0  0  0  0  0  0  0  0  0  0  0
  132.5498  138.7353  162.6049 H   0  0  0  0  0  0  0  0  0  0  0  0
  134.2546  140.4227  163.1500 H   0  0  0  0  0  0  0  0  0  0  0  0
  136.1933  140.7419  161.6697 H   0  0  0  0  0  0  0  0  0  0  0  0
  136.4441  139.3710  159.6428 H   0  0  0  0  0  0  0  0  0  0  0  0
  134.7553  137.6718  159.0847 H   0  0  0  0  0  0  0  0  0  0  0  0
  131.0123  137.9752  159.2827 H   0  0  0  0  0  0  0  0  0  0  0  0
  130.8220  138.2250  161.0346 H   0  0  0  0  0  0  0  0  0  0  0  0
  130.1251  135.9293  161.3619 H   0  0  0  0  0  0  0  0  0  0  0  0
  129.1749  136.5751  160.0004 H   0  0  0  0  0  0  0  0  0  0  0  0
  1  2  1  0
  1 28  1  0
  1 29  1  0
  1 30  1  0
  2  3  1  0
  2 15  1  0
  2 31  1  1
  3 14  1  0
  3  4  2  0
  4  5  1  0
  4 32  1  0
  5  6  1  0
  5 12  2  0
  6 11  1  0
  6  7  2  0
  7  8  1  0
  7 33  1  0
  8  9  2  0
  8 34  1  0
  9 10  1  0
  9 35  1  0
 10 11  2  0
 10 36  1  0
 11 37  1  0
 12 13  1  0
 12 38  1  0
 13 14  2  0
 13 39  1  0
 15 16  1  6
 15 27  1  0
 15 17  1  0
 17 18  1  0
 17 40  1  0
 17 41  1  0
 18 19  2  0
 18 42  1  0
 19 20  1  0
 19 26  1  0
 20 25  1  0
 20 21  2  0
 21 22  1  0
 21 43  1  0
 22 23  2  0
 22 44  1  0
 23 24  1  0
 23 45  1  0
 24 25  2  0
 24 46  1  0
 25 47  1  0
 26 27  1  0
 26 48  1  0
 26 49  1  0
 27 50  1  0
 27 51  1  0
M  CHG  1  15   1
M  END
>  <DOCK_score>  (1) 
-56.16927

>  <SMILES>  (1) 
CC(c1cc(-c2ccccc2)ccn1)[N@@H+]1CC=C(c2ccccc2)CC1

$$$$
