FC(F)(F)c1cccc(C2=CC(=C[C@H](Nc3[nH]cc(-c4cccnc4)[nH+]3)c3cccnc3)CCC2)c1
     RDKit          3D

 61 65  0  0  1  0  0  0  0  0999 V2000
  138.0856  137.4109  165.6664 F   0  0  0  0  0  0  0  0  0  0  0  0
  138.1920  136.0829  165.2393 C   0  0  0  0  0  0  0  0  0  0  0  0
  138.0731  135.2281  166.3404 F   0  0  0  0  0  0  0  0  0  0  0  0
  139.4359  135.8875  164.6294 F   0  0  0  0  0  0  0  0  0  0  0  0
  137.0951  135.7839  164.2502 C   0  0  0  0  0  0  0  0  0  0  0  0
  136.9984  134.5234  163.6871 C   0  0  0  0  0  0  0  0  0  0  0  0
  135.9944  134.2392  162.7782 C   0  0  0  0  0  0  0  0  0  0  0  0
  135.0786  135.2105  162.4309 C   0  0  0  0  0  0  0  0  0  0  0  0
  135.1736  136.4875  162.9908 C   0  0  0  0  0  0  0  0  0  0  0  0
  134.2033  137.5320  162.6205 C   0  0  0  0  0  0  0  0  0  0  0  0
  132.9601  137.1594  162.2862 C   0  0  0  0  0  0  0  0  0  0  0  0
  131.9627  138.1662  161.8945 C   0  0  0  0  0  0  0  0  0  0  0  0
  130.8045  137.8098  161.3412 C   0  0  0  0  0  0  0  0  0  0  0  0
  130.4460  136.3513  161.2169 C   0  0  2  0  0  0  0  0  0  0  0  0
  130.9053  135.7934  162.0329 H   0  0  0  0  0  0  0  0  0  0  0  0
  130.9357  135.8355  159.9361 N   0  0  0  0  0  0  0  0  0  0  0  0
  130.7228  134.5103  159.5967 C   0  0  0  0  0  0  0  0  0  0  0  0
  130.0809  133.5885  160.3650 N   0  0  0  0  0  0  0  0  0  0  0  0
  129.6934  133.7404  161.2411 H   0  0  0  0  0  0  0  0  0  0  0  0
  130.0806  132.4038  159.6695 C   0  0  0  0  0  0  0  0  0  0  0  0
  130.7289  132.6336  158.5007 C   0  0  0  0  0  0  0  0  0  0  0  0
  130.9758  131.6380  157.4291 C   0  0  0  0  0  0  0  0  0  0  0  0
  131.0565  132.0386  156.0922 C   0  0  0  0  0  0  0  0  0  0  0  0
  131.2930  131.0717  155.1305 C   0  0  0  0  0  0  0  0  0  0  0  0
  131.4302  129.7510  155.5182 C   0  0  0  0  0  0  0  0  0  0  0  0
  131.3441  129.4025  156.7873 N   0  0  0  0  0  0  0  0  0  0  0  0
  131.1252  130.2876  157.7381 C   0  0  0  0  0  0  0  0  0  0  0  0
  131.1112  133.9352  158.4849 N   0  0  0  0  0  0  0  0  0  0  0  0
  131.5950  134.3706  157.7656 H   0  0  0  0  0  0  0  0  0  0  0  0
  128.9486  136.1949  161.2818 C   0  0  0  0  0  0  0  0  0  0  0  0
  128.1869  136.2390  160.1239 C   0  0  0  0  0  0  0  0  0  0  0  0
  126.8129  136.0905  160.2316 C   0  0  0  0  0  0  0  0  0  0  0  0
  126.2516  135.9046  161.4810 C   0  0  0  0  0  0  0  0  0  0  0  0
  127.0069  135.8681  162.5612 N   0  0  0  0  0  0  0  0  0  0  0  0
  128.3174  136.0000  162.4957 C   0  0  0  0  0  0  0  0  0  0  0  0
  132.2951  139.6222  162.1477 C   0  0  0  0  0  0  0  0  0  0  0  0
  133.7632  139.8318  161.7505 C   0  0  0  0  0  0  0  0  0  0  0  0
  134.6507  138.9636  162.6410 C   0  0  0  0  0  0  0  0  0  0  0  0
  136.1906  136.7668  163.9086 C   0  0  0  0  0  0  0  0  0  0  0  0
  137.7092  133.7569  163.9584 H   0  0  0  0  0  0  0  0  0  0  0  0
  135.9249  133.2532  162.3431 H   0  0  0  0  0  0  0  0  0  0  0  0
  134.2931  134.9860  161.7246 H   0  0  0  0  0  0  0  0  0  0  0  0
  132.6901  136.1137  162.2999 H   0  0  0  0  0  0  0  0  0  0  0  0
  130.1224  138.5660  160.9818 H   0  0  0  0  0  0  0  0  0  0  0  0
  131.4090  136.4225  159.3260 H   0  0  0  0  0  0  0  0  0  0  0  0
  129.6502  131.4678  159.9932 H   0  0  0  0  0  0  0  0  0  0  0  0
  130.9413  133.0766  155.8173 H   0  0  0  0  0  0  0  0  0  0  0  0
  131.3651  131.3449  154.0882 H   0  0  0  0  0  0  0  0  0  0  0  0
  131.6110  128.9935  154.7700 H   0  0  0  0  0  0  0  0  0  0  0  0
  131.0614  129.9635  158.7665 H   0  0  0  0  0  0  0  0  0  0  0  0
  128.6532  136.3859  159.1608 H   0  0  0  0  0  0  0  0  0  0  0  0
  126.1889  136.1192  159.3506 H   0  0  0  0  0  0  0  0  0  0  0  0
  125.1817  135.7885  161.5736 H   0  0  0  0  0  0  0  0  0  0  0  0
  128.9039  135.9597  163.4017 H   0  0  0  0  0  0  0  0  0  0  0  0
  131.6523  140.2601  161.5410 H   0  0  0  0  0  0  0  0  0  0  0  0
  132.1587  139.8555  163.2036 H   0  0  0  0  0  0  0  0  0  0  0  0
  133.9030  139.5465  160.7079 H   0  0  0  0  0  0  0  0  0  0  0  0
  134.0297  140.8807  161.8803 H   0  0  0  0  0  0  0  0  0  0  0  0
  135.6794  139.0217  162.2855 H   0  0  0  0  0  0  0  0  0  0  0  0
  134.6045  139.3369  163.6641 H   0  0  0  0  0  0  0  0  0  0  0  0
  136.2676  137.7501  164.3485 H   0  0  0  0  0  0  0  0  0  0  0  0
  1  2  1  0
  2  3  1  0
  2  4  1  0
  2  5  1  0
  5 39  2  0
  5  6  1  0
  6  7  2  0
  6 40  1  0
  7  8  1  0
  7 41  1  0
  8  9  2  0
  8 42  1  0
  9 10  1  0
  9 39  1  0
 10 38  1  0
 10 11  2  0
 11 12  1  0
 11 43  1  0
 12 13  2  0
 12 36  1  0
 13 14  1  0
 13 44  1  0
 14 15  1  1
 14 16  1  0
 14 30  1  0
 16 45  1  0
 17 16  1  0
 17 28  2  0
 17 18  1  0
 18 19  1  0
 18 20  1  0
 20 21  2  0
 20 46  1  0
 21 22  1  0
 21 28  1  0
 22 27  1  0
 22 23  2  0
 23 24  1  0
 23 47  1  0
 24 25  2  0
 24 48  1  0
 25 26  1  0
 25 49  1  0
 26 27  2  0
 27 50  1  0
 28 29  1  0
 30 35  1  0
 30 31  2  0
 31 32  1  0
 31 51  1  0
 32 33  2  0
 32 52  1  0
 33 34  1  0
 33 53  1  0
 34 35  2  0
 35 54  1  0
 36 37  1  0
 36 55  1  0
 36 56  1  0
 37 38  1  0
 37 57  1  0
 37 58  1  0
 38 59  1  0
 38 60  1  0
 39 61  1  0
M  CHG  1  28   1
M  END
>  <DOCK_score>  (1) 
-60.859612

>  <SMILES>  (1) 
FC(F)(F)c1cccc(C2=CC(=C[C@H](Nc3[nH]cc(-c4cccnc4)[nH+]3)c3cccnc3)CCC2)c1

$$$$
