C[C@H](CCNc1cccc(C([NH3+])C(=O)Nc2cccc(O)c2)c1)Nc1nc(-c2ccccc2)c[nH]1
     RDKit          3D

 66 69  0  0  1  0  0  0  0  0999 V2000
  127.3336  133.6053  160.4229 C   0  0  0  0  0  0  0  0  0  0  0  0
  128.3858  134.4657  161.1256 C   0  0  2  0  0  0  0  0  0  0  0  0
  128.6685  133.9964  162.0679 H   0  0  0  0  0  0  0  0  0  0  0  0
  127.8072  135.8551  161.4011 C   0  0  0  0  0  0  0  0  0  0  0  0
  126.9225  135.8009  162.6482 C   0  0  0  0  0  0  0  0  0  0  0  0
  126.3686  137.1312  162.9120 N   0  0  0  0  0  0  0  0  0  0  0  0
  127.2241  138.2089  163.1518 C   0  0  0  0  0  0  0  0  0  0  0  0
  126.7676  139.5106  162.9861 C   0  0  0  0  0  0  0  0  0  0  0  0
  127.6145  140.5738  163.2291 C   0  0  0  0  0  0  0  0  0  0  0  0
  128.9192  140.3439  163.6263 C   0  0  0  0  0  0  0  0  0  0  0  0
  129.3785  139.0496  163.7866 C   0  0  0  0  0  0  0  0  0  0  0  0
  130.8008  138.8040  164.2197 C   0  0  2  0  0  0  0  0  0  0  0  0
  131.0281  139.4266  165.5307 N   0  0  0  0  0  0  0  0  0  0  0  0
  130.3964  139.0255  166.2076 H   0  0  0  0  0  0  0  0  0  0  0  0
  131.9804  139.2622  165.8206 H   0  0  0  0  0  0  0  0  0  0  0  0
  130.8634  140.4198  165.4643 H   0  0  0  0  0  0  0  0  0  0  0  0
  131.7442  139.4031  163.2088 C   0  0  0  0  0  0  0  0  0  0  0  0
  132.1185  140.5500  163.3336 O   0  0  0  0  0  0  0  0  0  0  0  0
  132.1722  138.6644  162.1658 N   0  0  0  0  0  0  0  0  0  0  0  0
  133.0482  139.2207  161.2272 C   0  0  0  0  0  0  0  0  0  0  0  0
  133.9432  140.2110  161.6125 C   0  0  0  0  0  0  0  0  0  0  0  0
  134.8118  140.7559  160.6871 C   0  0  0  0  0  0  0  0  0  0  0  0
  134.7852  140.3262  159.3737 C   0  0  0  0  0  0  0  0  0  0  0  0
  133.8894  139.3415  158.9820 C   0  0  0  0  0  0  0  0  0  0  0  0
  133.8642  138.9204  157.6902 O   0  0  0  0  0  0  0  0  0  0  0  0
  133.0201  138.7880  159.9091 C   0  0  0  0  0  0  0  0  0  0  0  0
  128.5349  137.9816  163.5509 C   0  0  0  0  0  0  0  0  0  0  0  0
  129.5670  134.5897  160.2680 N   0  0  0  0  0  0  0  0  0  0  0  0
  130.8205  134.7452  160.8348 C   0  0  0  0  0  0  0  0  0  0  0  0
  131.0767  134.7958  162.1193 N   0  0  0  0  0  0  0  0  0  0  0  0
  132.4114  134.9590  162.3000 C   0  0  0  0  0  0  0  0  0  0  0  0
  133.1089  135.0667  163.6046 C   0  0  0  0  0  0  0  0  0  0  0  0
  134.4225  134.6194  163.7346 C   0  0  0  0  0  0  0  0  0  0  0  0
  135.0667  134.7227  164.9507 C   0  0  0  0  0  0  0  0  0  0  0  0
  134.4113  135.2690  166.0395 C   0  0  0  0  0  0  0  0  0  0  0  0
  133.1073  135.7141  165.9164 C   0  0  0  0  0  0  0  0  0  0  0  0
  132.4532  135.6159  164.7051 C   0  0  0  0  0  0  0  0  0  0  0  0
  132.9957  135.0000  161.0770 C   0  0  0  0  0  0  0  0  0  0  0  0
  131.9905  134.8649  160.1503 N   0  0  0  0  0  0  0  0  0  0  0  0
  132.0956  134.8562  159.1860 H   0  0  0  0  0  0  0  0  0  0  0  0
  127.0508  134.0746  159.4807 H   0  0  0  0  0  0  0  0  0  0  0  0
  127.7457  132.6154  160.2267 H   0  0  0  0  0  0  0  0  0  0  0  0
  126.4547  133.5130  161.0610 H   0  0  0  0  0  0  0  0  0  0  0  0
  128.6211  136.5618  161.5635 H   0  0  0  0  0  0  0  0  0  0  0  0
  127.2118  136.1766  160.5469 H   0  0  0  0  0  0  0  0  0  0  0  0
  126.1087  135.0940  162.4859 H   0  0  0  0  0  0  0  0  0  0  0  0
  127.5181  135.4793  163.5026 H   0  0  0  0  0  0  0  0  0  0  0  0
  125.4077  137.2637  162.9203 H   0  0  0  0  0  0  0  0  0  0  0  0
  125.7502  139.6908  162.6716 H   0  0  0  0  0  0  0  0  0  0  0  0
  127.2592  141.5860  163.1044 H   0  0  0  0  0  0  0  0  0  0  0  0
  129.5808  141.1771  163.8114 H   0  0  0  0  0  0  0  0  0  0  0  0
  130.9787  137.7310  164.2913 H   0  0  0  0  0  0  0  0  0  0  0  0
  131.8729  137.7472  162.0659 H   0  0  0  0  0  0  0  0  0  0  0  0
  133.9629  140.5516  162.6372 H   0  0  0  0  0  0  0  0  0  0  0  0
  135.5098  141.5227  160.9893 H   0  0  0  0  0  0  0  0  0  0  0  0
  135.4628  140.7571  158.6515 H   0  0  0  0  0  0  0  0  0  0  0  0
  133.2077  138.2327  157.5133 H   0  0  0  0  0  0  0  0  0  0  0  0
  132.3225  138.0213  159.6061 H   0  0  0  0  0  0  0  0  0  0  0  0
  128.8940  136.9709  163.6769 H   0  0  0  0  0  0  0  0  0  0  0  0
  129.4709  134.5629  159.3032 H   0  0  0  0  0  0  0  0  0  0  0  0
  134.9339  134.1889  162.8862 H   0  0  0  0  0  0  0  0  0  0  0  0
  136.0845  134.3760  165.0526 H   0  0  0  0  0  0  0  0  0  0  0  0
  134.9193  135.3481  166.9892 H   0  0  0  0  0  0  0  0  0  0  0  0
  132.6003  136.1394  166.7698 H   0  0  0  0  0  0  0  0  0  0  0  0
  131.4354  135.9643  164.6101 H   0  0  0  0  0  0  0  0  0  0  0  0
  134.0495  135.1164  160.8709 H   0  0  0  0  0  0  0  0  0  0  0  0
  1  2  1  0
  1 41  1  0
  1 42  1  0
  1 43  1  0
  2  3  1  1
  2  4  1  0
  2 28  1  0
  4  5  1  0
  4 44  1  0
  4 45  1  0
  5  6  1  0
  5 46  1  0
  5 47  1  0
  6  7  1  0
  6 48  1  0
  7 27  1  0
  7  8  2  0
  8  9  1  0
  8 49  1  0
  9 10  2  0
  9 50  1  0
 10 11  1  0
 10 51  1  0
 11 12  1  0
 11 27  2  0
 12 13  1  0
 12 17  1  0
 12 52  1  1
 13 14  1  0
 13 15  1  0
 13 16  1  0
 17 18  2  0
 17 19  1  0
 19 20  1  0
 19 53  1  0
 20 26  1  0
 20 21  2  0
 21 22  1  0
 21 54  1  0
 22 23  2  0
 22 55  1  0
 23 24  1  0
 23 56  1  0
 24 25  1  0
 24 26  2  0
 25 57  1  0
 26 58  1  0
 27 59  1  0
 28 29  1  0
 28 60  1  0
 29 39  1  0
 29 30  2  0
 30 31  1  0
 31 32  1  0
 31 38  2  0
 32 37  1  0
 32 33  2  0
 33 34  1  0
 33 61  1  0
 34 35  2  0
 34 62  1  0
 35 36  1  0
 35 63  1  0
 36 37  2  0
 36 64  1  0
 37 65  1  0
 38 39  1  0
 38 66  1  0
 39 40  1  0
M  CHG  1  13   1
M  END
>  <DOCK_score>  (1) 
-46.857487

>  <SMILES>  (1) 
C[C@H](CCNc1cccc(C([NH3+])C(=O)Nc2cccc(O)c2)c1)Nc1nc(-c2ccccc2)c[nH]1

$$$$
