COCCc1ccc2c(c1)C[C@@H](NC(NC1CC=CC1)=[NH+][C@@H]1C=C[C@@H](O)[C@H]1Cl)C2
     RDKit          3D

 60 63  0  0  1  0  0  0  0  0999 V2000
  138.1733  133.7681  163.5708 C   0  0  0  0  0  0  0  0  0  0  0  0
  137.2336  134.8421  163.4970 O   0  0  0  0  0  0  0  0  0  0  0  0
  136.8566  135.3731  164.7690 C   0  0  0  0  0  0  0  0  0  0  0  0
  135.8530  136.5107  164.5695 C   0  0  0  0  0  0  0  0  0  0  0  0
  134.6307  135.9840  163.8627 C   0  0  0  0  0  0  0  0  0  0  0  0
  133.5689  135.4859  164.5947 C   0  0  0  0  0  0  0  0  0  0  0  0
  132.4497  135.0041  163.9449 C   0  0  0  0  0  0  0  0  0  0  0  0
  132.3869  135.0181  162.5614 C   0  0  0  0  0  0  0  0  0  0  0  0
  133.4483  135.5160  161.8296 C   0  0  0  0  0  0  0  0  0  0  0  0
  134.5699  135.9988  162.4830 C   0  0  0  0  0  0  0  0  0  0  0  0
  133.1390  135.4225  160.3508 C   0  0  0  0  0  0  0  0  0  0  0  0
  131.6107  135.2226  160.2697 C   0  0  1  0  0  0  0  0  0  0  0  0
  131.0991  136.1805  160.1759 H   0  0  0  0  0  0  0  0  0  0  0  0
  131.2596  134.3362  159.1574 N   0  0  0  0  0  0  0  0  0  0  0  0
  129.9421  134.0292  158.9124 C   0  0  0  0  0  0  0  0  0  0  0  0
  129.6129  133.1972  157.8684 N   0  0  0  0  0  0  0  0  0  0  0  0
  130.6660  132.6381  157.0173 C   0  0  0  0  0  0  0  0  0  0  0  0
  130.1016  132.2153  155.6411 C   0  0  0  0  0  0  0  0  0  0  0  0
  130.8479  130.9476  155.2936 C   0  0  0  0  0  0  0  0  0  0  0  0
  131.4296  130.4406  156.3464 C   0  0  0  0  0  0  0  0  0  0  0  0
  131.1680  131.2847  157.5720 C   0  0  0  0  0  0  0  0  0  0  0  0
  129.0052  134.5267  159.6697 N   0  0  0  0  0  0  0  0  0  0  0  0
  129.1297  135.3919  160.0901 H   0  0  0  0  0  0  0  0  0  0  0  0
  127.7640  133.7789  159.8860 C   0  0  2  0  0  0  0  0  0  0  0  0
  127.9530  132.7068  159.8309 H   0  0  0  0  0  0  0  0  0  0  0  0
  126.7222  134.1828  158.8690 C   0  0  0  0  0  0  0  0  0  0  0  0
  125.8461  134.9973  159.3915 C   0  0  0  0  0  0  0  0  0  0  0  0
  126.1525  135.2650  160.8467 C   0  0  1  0  0  0  0  0  0  0  0  0
  126.6167  136.2447  160.9595 H   0  0  0  0  0  0  0  0  0  0  0  0
  124.9628  135.1853  161.6344 O   0  0  0  0  0  0  0  0  0  0  0  0
  127.1433  134.1495  161.2530 C   0  0  1  0  0  0  0  0  0  0  0  0
  127.9019  134.5300  161.9370 H   0  0  0  0  0  0  0  0  0  0  0  0
  126.2755  132.7423  161.9725 Cl  0  0  0  0  0  0  0  0  0  0  0  0
  131.2915  134.5558  161.6246 C   0  0  0  0  0  0  0  0  0  0  0  0
  139.0847  134.1157  164.0573 H   0  0  0  0  0  0  0  0  0  0  0  0
  137.7438  132.9486  164.1470 H   0  0  0  0  0  0  0  0  0  0  0  0
  138.4081  133.4210  162.5647 H   0  0  0  0  0  0  0  0  0  0  0  0
  137.7406  135.7540  165.2803 H   0  0  0  0  0  0  0  0  0  0  0  0
  136.3997  134.5869  165.3700 H   0  0  0  0  0  0  0  0  0  0  0  0
  136.3097  137.2970  163.9683 H   0  0  0  0  0  0  0  0  0  0  0  0
  135.5654  136.9158  165.5396 H   0  0  0  0  0  0  0  0  0  0  0  0
  133.6145  135.4739  165.6737 H   0  0  0  0  0  0  0  0  0  0  0  0
  131.6205  134.6151  164.5174 H   0  0  0  0  0  0  0  0  0  0  0  0
  135.3996  136.3884  161.9119 H   0  0  0  0  0  0  0  0  0  0  0  0
  133.6558  134.5702  159.9095 H   0  0  0  0  0  0  0  0  0  0  0  0
  133.4274  136.3431  159.8435 H   0  0  0  0  0  0  0  0  0  0  0  0
  131.9569  133.9658  158.5938 H   0  0  0  0  0  0  0  0  0  0  0  0
  128.6834  132.9806  157.6955 H   0  0  0  0  0  0  0  0  0  0  0  0
  131.4892  133.3434  156.9025 H   0  0  0  0  0  0  0  0  0  0  0  0
  129.0320  132.0182  155.7138 H   0  0  0  0  0  0  0  0  0  0  0  0
  130.2966  132.9876  154.8971 H   0  0  0  0  0  0  0  0  0  0  0  0
  130.8941  130.5179  154.3037 H   0  0  0  0  0  0  0  0  0  0  0  0
  132.0207  129.5367  156.3420 H   0  0  0  0  0  0  0  0  0  0  0  0
  132.0876  131.4248  158.1400 H   0  0  0  0  0  0  0  0  0  0  0  0
  130.4025  130.8224  158.1951 H   0  0  0  0  0  0  0  0  0  0  0  0
  126.7069  133.8455  157.8431 H   0  0  0  0  0  0  0  0  0  0  0  0
  125.0109  135.4224  158.8547 H   0  0  0  0  0  0  0  0  0  0  0  0
  124.3048  135.8616  161.4225 H   0  0  0  0  0  0  0  0  0  0  0  0
  130.3184  134.8855  161.9884 H   0  0  0  0  0  0  0  0  0  0  0  0
  131.3113  133.4704  161.5259 H   0  0  0  0  0  0  0  0  0  0  0  0
  1  2  1  0
  1 35  1  0
  1 36  1  0
  1 37  1  0
  2  3  1  0
  3  4  1  0
  3 38  1  0
  3 39  1  0
  4  5  1  0
  4 40  1  0
  4 41  1  0
  5 10  2  0
  5  6  1  0
  6  7  2  0
  6 42  1  0
  7  8  1  0
  7 43  1  0
  8 34  1  0
  8  9  2  0
  9 10  1  0
  9 11  1  0
 10 44  1  0
 11 12  1  0
 11 45  1  0
 11 46  1  0
 12 13  1  6
 12 14  1  0
 12 34  1  0
 14 47  1  0
 15 14  1  0
 15 16  1  0
 15 22  2  0
 16 17  1  0
 16 48  1  0
 17 21  1  0
 17 18  1  0
 17 49  1  0
 18 19  1  0
 18 50  1  0
 18 51  1  0
 19 20  2  0
 19 52  1  0
 20 21  1  0
 20 53  1  0
 21 54  1  0
 21 55  1  0
 22 23  1  0
 22 24  1  0
 24 25  1  1
 24 31  1  0
 24 26  1  0
 26 27  2  0
 26 56  1  0
 27 28  1  0
 27 57  1  0
 28 29  1  6
 28 30  1  0
 28 31  1  0
 30 58  1  0
 31 32  1  1
 31 33  1  0
 34 59  1  0
 34 60  1  0
M  CHG  1  22   1
M  END
>  <DOCK_score>  (1) 
-47.617718

>  <SMILES>  (1) 
COCCc1ccc2c(c1)C[C@@H](NC(NC1CC=CC1)=[NH+][C@@H]1C=C[C@@H](O)[C@H]1Cl)C2

$$$$
