C1=C[C@@H]2C=C(COc3ccccc3N3CC[NH+](C(c4ccccc4)c4ccccc4)CC3)C1CCC2
     RDKit          3D

 73 78  0  0  1  0  0  0  0  0999 V2000
  128.6135  142.1084  164.4313 C   0  0  0  0  0  0  0  0  0  0  0  0
  128.0897  141.3323  165.3606 C   0  0  0  0  0  0  0  0  0  0  0  0
  128.4282  139.8863  165.2701 C   0  0  2  0  0  0  0  0  0  0  0  0
  128.1934  139.4211  166.2274 H   0  0  0  0  0  0  0  0  0  0  0  0
  129.8930  139.6178  164.9602 C   0  0  0  0  0  0  0  0  0  0  0  0
  130.4253  140.4066  164.0158 C   0  0  0  0  0  0  0  0  0  0  0  0
  131.8618  140.2875  163.5757 C   0  0  0  0  0  0  0  0  0  0  0  0
  131.9088  139.9852  162.1799 O   0  0  0  0  0  0  0  0  0  0  0  0
  133.1402  139.8437  161.6199 C   0  0  0  0  0  0  0  0  0  0  0  0
  134.0400  140.8963  161.6464 C   0  0  0  0  0  0  0  0  0  0  0  0
  135.2934  140.7492  161.0814 C   0  0  0  0  0  0  0  0  0  0  0  0
  135.6491  139.5563  160.4797 C   0  0  0  0  0  0  0  0  0  0  0  0
  134.7550  138.5028  160.4442 C   0  0  0  0  0  0  0  0  0  0  0  0
  133.4975  138.6413  161.0135 C   0  0  0  0  0  0  0  0  0  0  0  0
  132.5901  137.5763  160.9786 N   0  0  0  0  0  0  0  0  0  0  0  0
  133.2005  136.3839  160.3735 C   0  0  0  0  0  0  0  0  0  0  0  0
  132.1981  135.2282  160.4082 C   0  0  0  0  0  0  0  0  0  0  0  0
  130.9869  135.6078  159.6693 N   0  0  0  0  0  0  0  0  0  0  0  0
  131.2303  135.8263  158.7148 H   0  0  0  0  0  0  0  0  0  0  0  0
  130.0323  134.4913  159.6876 C   0  0  0  0  0  0  0  0  0  0  0  0
  128.7894  134.8806  158.9294 C   0  0  0  0  0  0  0  0  0  0  0  0
  127.5674  134.3386  159.2807 C   0  0  0  0  0  0  0  0  0  0  0  0
  126.4264  134.6993  158.5884 C   0  0  0  0  0  0  0  0  0  0  0  0
  126.5094  135.5941  157.5379 C   0  0  0  0  0  0  0  0  0  0  0  0
  127.7324  136.1323  157.1833 C   0  0  0  0  0  0  0  0  0  0  0  0
  128.8724  135.7754  157.8791 C   0  0  0  0  0  0  0  0  0  0  0  0
  130.6590  133.2840  159.0390 C   0  0  0  0  0  0  0  0  0  0  0  0
  130.5136  133.0757  157.6801 C   0  0  0  0  0  0  0  0  0  0  0  0
  131.0925  131.9709  157.0844 C   0  0  0  0  0  0  0  0  0  0  0  0
  131.8080  131.0686  157.8493 C   0  0  0  0  0  0  0  0  0  0  0  0
  131.9489  131.2740  159.2091 C   0  0  0  0  0  0  0  0  0  0  0  0
  131.3744  132.3818  159.8039 C   0  0  0  0  0  0  0  0  0  0  0  0
  130.3752  136.7850  160.3000 C   0  0  0  0  0  0  0  0  0  0  0  0
  131.3623  137.9538  160.2642 C   0  0  0  0  0  0  0  0  0  0  0  0
  129.4703  141.4303  163.4215 C   0  0  1  0  0  0  0  0  0  0  0  0
  128.6295  140.6975  162.3489 C   0  0  0  0  0  0  0  0  0  0  0  0
  128.3692  139.2708  162.8602 C   0  0  0  0  0  0  0  0  0  0  0  0
  127.5949  139.1644  164.1845 C   0  0  0  0  0  0  0  0  0  0  0  0
  128.4315  143.1727  164.4054 H   0  0  0  0  0  0  0  0  0  0  0  0
  127.4533  141.7232  166.1407 H   0  0  0  0  0  0  0  0  0  0  0  0
  130.4626  138.8523  165.4662 H   0  0  0  0  0  0  0  0  0  0  0  0
  132.3777  141.2295  163.7612 H   0  0  0  0  0  0  0  0  0  0  0  0
  132.3486  139.4899  164.1369 H   0  0  0  0  0  0  0  0  0  0  0  0
  133.7639  141.8310  162.1118 H   0  0  0  0  0  0  0  0  0  0  0  0
  135.9954  141.5697  161.1068 H   0  0  0  0  0  0  0  0  0  0  0  0
  136.6278  139.4473  160.0361 H   0  0  0  0  0  0  0  0  0  0  0  0
  135.0352  137.5720  159.9736 H   0  0  0  0  0  0  0  0  0  0  0  0
  133.4718  136.5991  159.3399 H   0  0  0  0  0  0  0  0  0  0  0  0
  134.0934  136.1082  160.9344 H   0  0  0  0  0  0  0  0  0  0  0  0
  131.9374  135.0044  161.4428 H   0  0  0  0  0  0  0  0  0  0  0  0
  132.6438  134.3468  159.9470 H   0  0  0  0  0  0  0  0  0  0  0  0
  129.7696  134.2547  160.7187 H   0  0  0  0  0  0  0  0  0  0  0  0
  127.5032  133.6360  160.0985 H   0  0  0  0  0  0  0  0  0  0  0  0
  125.4711  134.2787  158.8652 H   0  0  0  0  0  0  0  0  0  0  0  0
  125.6188  135.8725  156.9942 H   0  0  0  0  0  0  0  0  0  0  0  0
  127.7972  136.8311  156.3625 H   0  0  0  0  0  0  0  0  0  0  0  0
  129.8279  136.1956  157.6017 H   0  0  0  0  0  0  0  0  0  0  0  0
  129.9509  133.7784  157.0834 H   0  0  0  0  0  0  0  0  0  0  0  0
  130.9821  131.8101  156.0222 H   0  0  0  0  0  0  0  0  0  0  0  0
  132.2565  130.2030  157.3846 H   0  0  0  0  0  0  0  0  0  0  0  0
  132.5075  130.5690  159.8067 H   0  0  0  0  0  0  0  0  0  0  0  0
  131.4842  132.5421  160.8663 H   0  0  0  0  0  0  0  0  0  0  0  0
  130.1239  136.5532  161.3349 H   0  0  0  0  0  0  0  0  0  0  0  0
  129.4695  137.0578  159.7584 H   0  0  0  0  0  0  0  0  0  0  0  0
  130.9143  138.8231  160.7454 H   0  0  0  0  0  0  0  0  0  0  0  0
  131.6034  138.1952  159.2290 H   0  0  0  0  0  0  0  0  0  0  0  0
  130.0715  142.1890  162.9204 H   0  0  0  0  0  0  0  0  0  0  0  0
  127.6823  141.2168  162.2025 H   0  0  0  0  0  0  0  0  0  0  0  0
  129.1805  140.6591  161.4092 H   0  0  0  0  0  0  0  0  0  0  0  0
  127.8112  138.7312  162.0949 H   0  0  0  0  0  0  0  0  0  0  0  0
  129.3312  138.7750  162.9906 H   0  0  0  0  0  0  0  0  0  0  0  0
  127.4645  138.1163  164.4538 H   0  0  0  0  0  0  0  0  0  0  0  0
  126.6219  139.6453  164.0840 H   0  0  0  0  0  0  0  0  0  0  0  0
  1 35  1  0
  1  2  2  0
  1 39  1  0
  2  3  1  0
  2 40  1  0
  3  4  1  1
  3 38  1  0
  3  5  1  0
  5  6  2  0
  5 41  1  0
  6  7  1  0
  6 35  1  0
  7  8  1  0
  7 42  1  0
  7 43  1  0
  8  9  1  0
  9 14  1  0
  9 10  2  0
 10 11  1  0
 10 44  1  0
 11 12  2  0
 11 45  1  0
 12 13  1  0
 12 46  1  0
 13 14  2  0
 13 47  1  0
 14 15  1  0
 15 34  1  0
 15 16  1  0
 16 17  1  0
 16 48  1  0
 16 49  1  0
 17 18  1  0
 17 50  1  0
 17 51  1  0
 18 19  1  0
 18 20  1  0
 18 33  1  0
 20 21  1  0
 20 27  1  0
 20 52  1  0
 21 26  1  0
 21 22  2  0
 22 23  1  0
 22 53  1  0
 23 24  2  0
 23 54  1  0
 24 25  1  0
 24 55  1  0
 25 26  2  0
 25 56  1  0
 26 57  1  0
 27 32  1  0
 27 28  2  0
 28 29  1  0
 28 58  1  0
 29 30  2  0
 29 59  1  0
 30 31  1  0
 30 60  1  0
 31 32  2  0
 31 61  1  0
 32 62  1  0
 33 34  1  0
 33 63  1  0
 33 64  1  0
 34 65  1  0
 34 66  1  0
 35 36  1  0
 35 67  1  6
 36 37  1  0
 36 68  1  0
 36 69  1  0
 37 38  1  0
 37 70  1  0
 37 71  1  0
 38 72  1  0
 38 73  1  0
M  CHG  1  18   1
M  END
>  <DOCK_score>  (1) 
-59.9081

>  <SMILES>  (1) 
C1=C[C@@H]2C=C(COc3ccccc3N3CC[NH+](C(c4ccccc4)c4ccccc4)CC3)C1CCC2

$$$$
