O=C1CC[C@H]([NH+]=C(NC2CC=CC2)N[C@H]2CC=C(C3CC(Br)C3)C2)CN1
     RDKit          3D

 56 59  0  0  1  0  0  0  0  0999 V2000
  124.2601  133.7162  161.6185 O   0  0  0  0  0  0  0  0  0  0  0  0
  125.3887  134.0538  161.3300 C   0  0  0  0  0  0  0  0  0  0  0  0
  126.3683  132.9888  160.9284 C   0  0  0  0  0  0  0  0  0  0  0  0
  127.7966  133.5296  161.0308 C   0  0  0  0  0  0  0  0  0  0  0  0
  127.8534  134.8862  160.3182 C   0  0  2  0  0  0  0  0  0  0  0  0
  127.4473  134.7878  159.3115 H   0  0  0  0  0  0  0  0  0  0  0  0
  129.2424  135.3469  160.2485 N   0  0  0  0  0  0  0  0  0  0  0  0
  129.4966  136.1857  160.6640 H   0  0  0  0  0  0  0  0  0  0  0  0
  130.1365  134.6297  159.6279 C   0  0  0  0  0  0  0  0  0  0  0  0
  129.7666  133.8373  158.5670 N   0  0  0  0  0  0  0  0  0  0  0  0
  130.7716  133.0312  157.8695 C   0  0  0  0  0  0  0  0  0  0  0  0
  130.3014  132.6720  156.4408 C   0  0  0  0  0  0  0  0  0  0  0  0
  130.7966  131.2614  156.2174 C   0  0  0  0  0  0  0  0  0  0  0  0
  131.1246  130.6938  157.3461 C   0  0  0  0  0  0  0  0  0  0  0  0
  130.9021  131.6301  158.5108 C   0  0  0  0  0  0  0  0  0  0  0  0
  131.4494  134.6655  160.0343 N   0  0  0  0  0  0  0  0  0  0  0  0
  131.8435  135.5098  161.1648 C   0  0  1  0  0  0  0  0  0  0  0  0
  131.0245  135.6144  161.8763 H   0  0  0  0  0  0  0  0  0  0  0  0
  133.1121  134.9570  161.8548 C   0  0  0  0  0  0  0  0  0  0  0  0
  133.9016  136.1841  162.2471 C   0  0  0  0  0  0  0  0  0  0  0  0
  133.4790  137.2397  161.6061 C   0  0  0  0  0  0  0  0  0  0  0  0
  134.0540  138.6231  161.7693 C   0  0  2  0  0  0  0  0  0  0  0  0
  133.7869  139.5467  160.5690 C   0  0  0  0  0  0  0  0  0  0  0  0
  135.2240  140.0676  160.7527 C   0  0  1  0  0  0  0  0  0  0  0  0
  135.3542  141.5947  161.9839 Br  0  0  0  0  0  0  0  0  0  0  0  0
  135.5467  138.7160  161.4115 C   0  0  0  0  0  0  0  0  0  0  0  0
  132.3371  136.8924  160.6795 C   0  0  0  0  0  0  0  0  0  0  0  0
  127.0186  135.8918  161.1122 C   0  0  0  0  0  0  0  0  0  0  0  0
  125.6917  135.3515  161.3810 N   0  0  0  0  0  0  0  0  0  0  0  0
  126.2587  132.1284  161.5886 H   0  0  0  0  0  0  0  0  0  0  0  0
  126.1698  132.6829  159.9012 H   0  0  0  0  0  0  0  0  0  0  0  0
  128.0675  133.6541  162.0793 H   0  0  0  0  0  0  0  0  0  0  0  0
  128.4872  132.8348  160.5530 H   0  0  0  0  0  0  0  0  0  0  0  0
  128.8404  133.8120  158.2802 H   0  0  0  0  0  0  0  0  0  0  0  0
  131.7339  133.5426  157.8477 H   0  0  0  0  0  0  0  0  0  0  0  0
  129.2136  132.7066  156.3793 H   0  0  0  0  0  0  0  0  0  0  0  0
  130.7455  133.3509  155.7130 H   0  0  0  0  0  0  0  0  0  0  0  0
  130.8699  130.7859  155.2505 H   0  0  0  0  0  0  0  0  0  0  0  0
  131.5053  129.6871  157.4356 H   0  0  0  0  0  0  0  0  0  0  0  0
  131.7546  131.6011  159.1897 H   0  0  0  0  0  0  0  0  0  0  0  0
  129.9856  131.3676  159.0395 H   0  0  0  0  0  0  0  0  0  0  0  0
  132.1148  134.1318  159.5725 H   0  0  0  0  0  0  0  0  0  0  0  0
  132.8426  134.3801  162.7394 H   0  0  0  0  0  0  0  0  0  0  0  0
  133.6853  134.3430  161.1600 H   0  0  0  0  0  0  0  0  0  0  0  0
  134.7093  136.1876  162.9640 H   0  0  0  0  0  0  0  0  0  0  0  0
  133.8065  139.0736  162.7305 H   0  0  0  0  0  0  0  0  0  0  0  0
  133.6329  139.0117  159.6320 H   0  0  0  0  0  0  0  0  0  0  0  0
  133.0212  140.2990  160.7589 H   0  0  0  0  0  0  0  0  0  0  0  0
  135.7527  140.2331  159.8140 H   0  0  0  0  0  0  0  0  0  0  0  0
  136.1997  138.7985  162.2803 H   0  0  0  0  0  0  0  0  0  0  0  0
  135.8746  137.9532  160.7051 H   0  0  0  0  0  0  0  0  0  0  0  0
  132.6894  136.8299  159.6497 H   0  0  0  0  0  0  0  0  0  0  0  0
  131.5406  137.6315  160.7649 H   0  0  0  0  0  0  0  0  0  0  0  0
  127.5199  136.1115  162.0549 H   0  0  0  0  0  0  0  0  0  0  0  0
  126.9172  136.8110  160.5353 H   0  0  0  0  0  0  0  0  0  0  0  0
  124.9859  135.9742  161.6152 H   0  0  0  0  0  0  0  0  0  0  0  0
  1  2  2  0
  2 29  1  0
  2  3  1  0
  3  4  1  0
  3 30  1  0
  3 31  1  0
  4  5  1  0
  4 32  1  0
  4 33  1  0
  5  6  1  6
  5  7  1  0
  5 28  1  0
  7  8  1  0
  9  7  2  0
  9 10  1  0
  9 16  1  0
 10 11  1  0
 10 34  1  0
 11 15  1  0
 11 12  1  0
 11 35  1  0
 12 13  1  0
 12 36  1  0
 12 37  1  0
 13 14  2  0
 13 38  1  0
 14 15  1  0
 14 39  1  0
 15 40  1  0
 15 41  1  0
 16 17  1  0
 16 42  1  0
 17 18  1  1
 17 27  1  0
 17 19  1  0
 19 20  1  0
 19 43  1  0
 19 44  1  0
 20 21  2  0
 20 45  1  0
 21 22  1  0
 21 27  1  0
 22 26  1  0
 22 23  1  0
 22 46  1  1
 23 24  1  0
 23 47  1  0
 23 48  1  0
 24 25  1  0
 24 26  1  0
 24 49  1  6
 26 50  1  0
 26 51  1  0
 27 52  1  0
 27 53  1  0
 28 29  1  0
 28 54  1  0
 28 55  1  0
 29 56  1  0
M  CHG  1   7   1
M  END
>  <DOCK_score>  (1) 
-44.733288

>  <SMILES>  (1) 
O=C1CC[C@H]([NH+]=C(NC2CC=CC2)N[C@H]2CC=C(C3CC(Br)C3)C2)CN1

$$$$
