Cc1ccc2c(c1)CC(NC(N[C@H]1CCC(=O)NC1)=[NH+]C1CC1)CO2
     RDKit          3D

 52 55  0  0  1  0  0  0  0  0999 V2000
  136.3042  139.8265  162.5071 C   0  0  0  0  0  0  0  0  0  0  0  0
  134.8810  139.6132  162.0598 C   0  0  0  0  0  0  0  0  0  0  0  0
  133.9469  140.6200  162.2216 C   0  0  0  0  0  0  0  0  0  0  0  0
  132.6429  140.4215  161.8170 C   0  0  0  0  0  0  0  0  0  0  0  0
  132.2657  139.2141  161.2372 C   0  0  0  0  0  0  0  0  0  0  0  0
  133.2032  138.2096  161.0741 C   0  0  0  0  0  0  0  0  0  0  0  0
  134.5094  138.4123  161.4877 C   0  0  0  0  0  0  0  0  0  0  0  0
  132.8367  136.8868  160.4500 C   0  0  0  0  0  0  0  0  0  0  0  0
  131.3168  136.7080  160.4766 C   0  0  2  0  0  0  0  0  0  0  0  0
  130.9376  135.5772  159.6258 N   0  0  0  0  0  0  0  0  0  0  0  0
  129.8191  134.8361  159.9255 C   0  0  0  0  0  0  0  0  0  0  0  0
  129.0564  135.1561  161.0236 N   0  0  0  0  0  0  0  0  0  0  0  0
  127.6171  134.8825  161.0207 C   0  0  1  0  0  0  0  0  0  0  0  0
  127.2350  134.9451  160.0019 H   0  0  0  0  0  0  0  0  0  0  0  0
  127.3592  133.4788  161.5816 C   0  0  0  0  0  0  0  0  0  0  0  0
  125.8753  133.1508  161.4018 C   0  0  0  0  0  0  0  0  0  0  0  0
  125.0335  134.2917  161.8966 C   0  0  0  0  0  0  0  0  0  0  0  0
  123.8617  134.0818  162.1289 O   0  0  0  0  0  0  0  0  0  0  0  0
  125.5054  135.5231  162.0947 N   0  0  0  0  0  0  0  0  0  0  0  0
  126.8988  135.9051  161.9019 C   0  0  0  0  0  0  0  0  0  0  0  0
  129.4817  133.8302  159.1685 N   0  0  0  0  0  0  0  0  0  0  0  0
  128.5480  133.5838  159.0769 H   0  0  0  0  0  0  0  0  0  0  0  0
  130.5128  133.0715  158.4558 C   0  0  0  0  0  0  0  0  0  0  0  0
  130.5526  133.1936  156.9312 C   0  0  0  0  0  0  0  0  0  0  0  0
  130.0528  131.9020  157.5831 C   0  0  0  0  0  0  0  0  0  0  0  0
  130.6714  137.9942  159.9451 C   0  0  0  0  0  0  0  0  0  0  0  0
  130.9730  139.0568  160.8505 O   0  0  0  0  0  0  0  0  0  0  0  0
  136.8839  140.2473  161.6856 H   0  0  0  0  0  0  0  0  0  0  0  0
  136.3201  140.5140  163.3527 H   0  0  0  0  0  0  0  0  0  0  0  0
  136.7379  138.8724  162.8063 H   0  0  0  0  0  0  0  0  0  0  0  0
  134.2371  141.5598  162.6675 H   0  0  0  0  0  0  0  0  0  0  0  0
  131.9134  141.2072  161.9471 H   0  0  0  0  0  0  0  0  0  0  0  0
  135.2408  137.6277  161.3620 H   0  0  0  0  0  0  0  0  0  0  0  0
  133.3070  136.0787  161.0104 H   0  0  0  0  0  0  0  0  0  0  0  0
  133.1867  136.8642  159.4181 H   0  0  0  0  0  0  0  0  0  0  0  0
  130.9853  136.5258  161.4990 H   0  0  0  0  0  0  0  0  0  0  0  0
  131.4758  135.3513  158.8511 H   0  0  0  0  0  0  0  0  0  0  0  0
  129.4711  135.5630  161.8004 H   0  0  0  0  0  0  0  0  0  0  0  0
  127.9659  132.7510  161.0426 H   0  0  0  0  0  0  0  0  0  0  0  0
  127.6122  133.4549  162.6416 H   0  0  0  0  0  0  0  0  0  0  0  0
  125.6320  132.2501  161.9655 H   0  0  0  0  0  0  0  0  0  0  0  0
  125.6714  132.9823  160.3443 H   0  0  0  0  0  0  0  0  0  0  0  0
  124.8824  136.2075  162.3850 H   0  0  0  0  0  0  0  0  0  0  0  0
  127.3952  135.9578  162.8708 H   0  0  0  0  0  0  0  0  0  0  0  0
  126.9380  136.8837  161.4233 H   0  0  0  0  0  0  0  0  0  0  0  0
  131.4640  132.9666  158.9773 H   0  0  0  0  0  0  0  0  0  0  0  0
  129.8119  133.8384  156.4583 H   0  0  0  0  0  0  0  0  0  0  0  0
  131.5303  133.1687  156.4498 H   0  0  0  0  0  0  0  0  0  0  0  0
  130.7018  131.0278  157.5302 H   0  0  0  0  0  0  0  0  0  0  0  0
  128.9833  131.6968  157.5394 H   0  0  0  0  0  0  0  0  0  0  0  0
  129.5913  137.8631  159.8796 H   0  0  0  0  0  0  0  0  0  0  0  0
  131.0734  138.2269  158.9590 H   0  0  0  0  0  0  0  0  0  0  0  0
  1  2  1  0
  1 28  1  0
  1 29  1  0
  1 30  1  0
  2  7  2  0
  2  3  1  0
  3  4  2  0
  3 31  1  0
  4  5  1  0
  4 32  1  0
  5 27  1  0
  5  6  2  0
  6  7  1  0
  6  8  1  0
  7 33  1  0
  8  9  1  0
  8 34  1  0
  8 35  1  0
  9 10  1  0
  9 26  1  0
  9 36  1  1
 10 37  1  0
 11 10  1  0
 11 12  1  0
 11 21  2  0
 12 13  1  0
 12 38  1  0
 13 14  1  6
 13 20  1  0
 13 15  1  0
 15 16  1  0
 15 39  1  0
 15 40  1  0
 16 17  1  0
 16 41  1  0
 16 42  1  0
 17 18  2  0
 17 19  1  0
 19 20  1  0
 19 43  1  0
 20 44  1  0
 20 45  1  0
 21 22  1  0
 21 23  1  0
 23 25  1  0
 23 24  1  0
 23 46  1  0
 24 25  1  0
 24 47  1  0
 24 48  1  0
 25 49  1  0
 25 50  1  0
 26 27  1  0
 26 51  1  0
 26 52  1  0
M  CHG  1  21   1
M  END
>  <DOCK_score>  (1) 
-43.865963

>  <SMILES>  (1) 
Cc1ccc2c(c1)CC(NC(N[C@H]1CCC(=O)NC1)=[NH+]C1CC1)CO2

$$$$
