C1=CC2CCC1C[C@@H]2C[NH2+]Cc1c[nH]nc1-c1ccc(Nc2cnc(-c3ccccc3)cn2)o1
     RDKit          3D

 63 68  0  0  1  0  0  0  0  0999 V2000
  135.9220  139.3523  160.6967 C   0  0  0  0  0  0  0  0  0  0  0  0
  135.7323  138.5598  161.7490 C   0  0  0  0  0  0  0  0  0  0  0  0
  134.2820  138.1464  161.9514 C   0  0  1  0  0  0  0  0  0  0  0  0
  133.4473  139.4233  162.1134 C   0  0  0  0  0  0  0  0  0  0  0  0
  133.6656  140.3346  160.9036 C   0  0  0  0  0  0  0  0  0  0  0  0
  134.6466  139.6690  159.9298 C   0  0  2  0  0  0  0  0  0  0  0  0
  134.0305  138.3464  159.4533 C   0  0  0  0  0  0  0  0  0  0  0  0
  133.8202  137.4267  160.6768 C   0  0  2  0  0  0  0  0  0  0  0  0
  134.3952  136.5096  160.5488 H   0  0  0  0  0  0  0  0  0  0  0  0
  132.3338  137.0838  160.7951 C   0  0  0  0  0  0  0  0  0  0  0  0
  132.0012  136.0129  159.8462 N   0  0  0  0  0  0  0  0  0  0  0  0
  132.2012  136.3219  158.9067 H   0  0  0  0  0  0  0  0  0  0  0  0
  132.5529  135.1946  160.0557 H   0  0  0  0  0  0  0  0  0  0  0  0
  130.5741  135.6835  159.9599 C   0  0  0  0  0  0  0  0  0  0  0  0
  130.2329  134.5850  158.9864 C   0  0  0  0  0  0  0  0  0  0  0  0
  131.0885  133.9877  158.1296 C   0  0  0  0  0  0  0  0  0  0  0  0
  130.4016  133.0558  157.4340 N   0  0  0  0  0  0  0  0  0  0  0  0
  130.7665  132.4729  156.7498 H   0  0  0  0  0  0  0  0  0  0  0  0
  129.0696  133.0809  157.8666 N   0  0  0  0  0  0  0  0  0  0  0  0
  128.9612  134.0020  158.8038 C   0  0  0  0  0  0  0  0  0  0  0  0
  127.7271  134.3603  159.5329 C   0  0  0  0  0  0  0  0  0  0  0  0
  126.5024  133.7997  159.3491 C   0  0  0  0  0  0  0  0  0  0  0  0
  125.6240  134.4342  160.2488 C   0  0  0  0  0  0  0  0  0  0  0  0
  126.3513  135.3549  160.9294 C   0  0  0  0  0  0  0  0  0  0  0  0
  125.8653  136.2073  161.9148 N   0  0  0  0  0  0  0  0  0  0  0  0
  126.7020  136.6333  162.9394 C   0  0  0  0  0  0  0  0  0  0  0  0
  128.0300  136.2105  162.9760 C   0  0  0  0  0  0  0  0  0  0  0  0
  128.8239  136.6140  163.9476 N   0  0  0  0  0  0  0  0  0  0  0  0
  128.3579  137.4257  164.8936 C   0  0  0  0  0  0  0  0  0  0  0  0
  129.2509  137.8798  165.9873 C   0  0  0  0  0  0  0  0  0  0  0  0
  129.5030  139.2390  166.1657 C   0  0  0  0  0  0  0  0  0  0  0  0
  130.3294  139.6561  167.1891 C   0  0  0  0  0  0  0  0  0  0  0  0
  130.9173  138.7272  168.0293 C   0  0  0  0  0  0  0  0  0  0  0  0
  130.6755  137.3770  167.8530 C   0  0  0  0  0  0  0  0  0  0  0  0
  129.8455  136.9486  166.8370 C   0  0  0  0  0  0  0  0  0  0  0  0
  127.0310  137.8485  164.8564 C   0  0  0  0  0  0  0  0  0  0  0  0
  126.2376  137.4471  163.8801 N   0  0  0  0  0  0  0  0  0  0  0  0
  127.6211  135.3043  160.4913 O   0  0  0  0  0  0  0  0  0  0  0  0
  136.8897  139.7439  160.4198 H   0  0  0  0  0  0  0  0  0  0  0  0
  136.5334  138.2394  162.3985 H   0  0  0  0  0  0  0  0  0  0  0  0
  134.1717  137.4996  162.8218 H   0  0  0  0  0  0  0  0  0  0  0  0
  133.7535  139.9445  163.0205 H   0  0  0  0  0  0  0  0  0  0  0  0
  132.3919  139.1606  162.1845 H   0  0  0  0  0  0  0  0  0  0  0  0
  134.0751  141.2882  161.2364 H   0  0  0  0  0  0  0  0  0  0  0  0
  132.7135  140.5043  160.4005 H   0  0  0  0  0  0  0  0  0  0  0  0
  134.8564  140.3243  159.0845 H   0  0  0  0  0  0  0  0  0  0  0  0
  133.0734  138.5445  158.9709 H   0  0  0  0  0  0  0  0  0  0  0  0
  134.7033  137.8678  158.7417 H   0  0  0  0  0  0  0  0  0  0  0  0
  132.1177  136.7501  161.8100 H   0  0  0  0  0  0  0  0  0  0  0  0
  131.7377  137.9679  160.5688 H   0  0  0  0  0  0  0  0  0  0  0  0
  130.3580  135.3497  160.9747 H   0  0  0  0  0  0  0  0  0  0  0  0
  129.9780  136.5677  159.7336 H   0  0  0  0  0  0  0  0  0  0  0  0
  132.1392  134.2136  158.0215 H   0  0  0  0  0  0  0  0  0  0  0  0
  126.2517  133.0161  158.6494 H   0  0  0  0  0  0  0  0  0  0  0  0
  124.5704  134.2300  160.3702 H   0  0  0  0  0  0  0  0  0  0  0  0
  124.9424  136.5045  161.8869 H   0  0  0  0  0  0  0  0  0  0  0  0
  128.4081  135.5517  162.2084 H   0  0  0  0  0  0  0  0  0  0  0  0
  129.0486  139.9646  165.5071 H   0  0  0  0  0  0  0  0  0  0  0  0
  130.5211  140.7094  167.3318 H   0  0  0  0  0  0  0  0  0  0  0  0
  131.5673  139.0577  168.8260 H   0  0  0  0  0  0  0  0  0  0  0  0
  131.1367  136.6564  168.5121 H   0  0  0  0  0  0  0  0  0  0  0  0
  129.6569  135.8940  166.7008 H   0  0  0  0  0  0  0  0  0  0  0  0
  126.6523  138.5072  165.6239 H   0  0  0  0  0  0  0  0  0  0  0  0
  1  6  1  0
  1  2  2  0
  1 39  1  0
  2  3  1  0
  2 40  1  0
  3  8  1  0
  3  4  1  0
  3 41  1  1
  4  5  1  0
  4 42  1  0
  4 43  1  0
  5  6  1  0
  5 44  1  0
  5 45  1  0
  6  7  1  0
  6 46  1  6
  7  8  1  0
  7 47  1  0
  7 48  1  0
  8  9  1  6
  8 10  1  0
 10 11  1  0
 10 49  1  0
 10 50  1  0
 11 12  1  0
 11 13  1  0
 11 14  1  0
 14 15  1  0
 14 51  1  0
 14 52  1  0
 15 20  1  0
 15 16  2  0
 16 17  1  0
 16 53  1  0
 17 18  1  0
 17 19  1  0
 19 20  2  0
 20 21  1  0
 21 38  1  0
 21 22  2  0
 22 23  1  0
 22 54  1  0
 23 24  2  0
 23 55  1  0
 24 25  1  0
 24 38  1  0
 25 26  1  0
 25 56  1  0
 26 37  1  0
 26 27  2  0
 27 28  1  0
 27 57  1  0
 28 29  2  0
 29 30  1  0
 29 36  1  0
 30 35  1  0
 30 31  2  0
 31 32  1  0
 31 58  1  0
 32 33  2  0
 32 59  1  0
 33 34  1  0
 33 60  1  0
 34 35  2  0
 34 61  1  0
 35 62  1  0
 36 37  2  0
 36 63  1  0
M  CHG  1  11   1
M  END
>  <DOCK_score>  (1) 
-49.799847

>  <SMILES>  (1) 
C1=CC2CCC1C[C@@H]2C[NH2+]Cc1c[nH]nc1-c1ccc(Nc2cnc(-c3ccccc3)cn2)o1

$$$$
