Nc1ccc(Nc2[nH]cc(C3=CCCC3)[nH+]2)c(OC2CC=CC2)c1
     RDKit          3D

 47 50  0  0  1  0  0  0  0  0999 V2000
  125.3134  134.6317  160.7604 N   0  0  0  0  0  0  0  0  0  0  0  0
  126.6375  134.9433  160.4321 C   0  0  0  0  0  0  0  0  0  0  0  0
  127.1497  136.1990  160.7309 C   0  0  0  0  0  0  0  0  0  0  0  0
  128.4569  136.5087  160.4080 C   0  0  0  0  0  0  0  0  0  0  0  0
  129.2624  135.5637  159.7898 C   0  0  0  0  0  0  0  0  0  0  0  0
  130.5917  135.8769  159.4679 N   0  0  0  0  0  0  0  0  0  0  0  0
  131.2966  136.7821  160.2426 C   0  0  0  0  0  0  0  0  0  0  0  0
  131.1129  136.9977  161.5745 N   0  0  0  0  0  0  0  0  0  0  0  0
  130.4701  136.5488  162.1456 H   0  0  0  0  0  0  0  0  0  0  0  0
  132.0050  137.9673  161.9602 C   0  0  0  0  0  0  0  0  0  0  0  0
  132.7095  138.3175  160.8527 C   0  0  0  0  0  0  0  0  0  0  0  0
  133.7837  139.3297  160.7891 C   0  0  0  0  0  0  0  0  0  0  0  0
  134.4554  139.6439  159.6941 C   0  0  0  0  0  0  0  0  0  0  0  0
  135.4785  140.7184  159.9813 C   0  0  0  0  0  0  0  0  0  0  0  0
  135.0548  141.3163  161.3424 C   0  0  0  0  0  0  0  0  0  0  0  0
  134.2683  140.1416  161.9679 C   0  0  0  0  0  0  0  0  0  0  0  0
  132.2542  137.5686  159.8157 N   0  0  0  0  0  0  0  0  0  0  0  0
  132.5835  137.6105  158.9043 H   0  0  0  0  0  0  0  0  0  0  0  0
  128.7491  134.3053  159.4839 C   0  0  0  0  0  0  0  0  0  0  0  0
  129.5356  133.3795  158.8725 O   0  0  0  0  0  0  0  0  0  0  0  0
  128.8840  132.4366  158.0191 C   0  0  0  0  0  0  0  0  0  0  0  0
  128.6311  131.1017  158.7576 C   0  0  0  0  0  0  0  0  0  0  0  0
  129.8297  130.2447  158.4232 C   0  0  0  0  0  0  0  0  0  0  0  0
  130.4791  130.7243  157.3975 C   0  0  0  0  0  0  0  0  0  0  0  0
  129.8217  131.9813  156.8768 C   0  0  0  0  0  0  0  0  0  0  0  0
  127.4388  133.9964  159.8080 C   0  0  0  0  0  0  0  0  0  0  0  0
  124.9555  133.7545  160.5520 H   0  0  0  0  0  0  0  0  0  0  0  0
  124.7534  135.2929  161.1964 H   0  0  0  0  0  0  0  0  0  0  0  0
  126.5254  136.9343  161.2167 H   0  0  0  0  0  0  0  0  0  0  0  0
  128.8534  137.4858  160.6414 H   0  0  0  0  0  0  0  0  0  0  0  0
  131.0166  135.4591  158.7026 H   0  0  0  0  0  0  0  0  0  0  0  0
  132.1238  138.3736  162.9539 H   0  0  0  0  0  0  0  0  0  0  0  0
  134.2929  139.1953  158.7252 H   0  0  0  0  0  0  0  0  0  0  0  0
  135.4556  141.4846  159.2066 H   0  0  0  0  0  0  0  0  0  0  0  0
  136.4739  140.2797  160.0529 H   0  0  0  0  0  0  0  0  0  0  0  0
  134.4130  142.1863  161.2039 H   0  0  0  0  0  0  0  0  0  0  0  0
  135.9264  141.5682  161.9465 H   0  0  0  0  0  0  0  0  0  0  0  0
  133.4221  140.5159  162.5443 H   0  0  0  0  0  0  0  0  0  0  0  0
  134.9225  139.5405  162.5995 H   0  0  0  0  0  0  0  0  0  0  0  0
  127.9554  132.8473  157.6228 H   0  0  0  0  0  0  0  0  0  0  0  0
  127.7164  130.6339  158.3937 H   0  0  0  0  0  0  0  0  0  0  0  0
  128.5716  131.2682  159.8331 H   0  0  0  0  0  0  0  0  0  0  0  0
  130.1098  129.3501  158.9596 H   0  0  0  0  0  0  0  0  0  0  0  0
  131.3695  130.2812  156.9765 H   0  0  0  0  0  0  0  0  0  0  0  0
  130.5716  132.7458  156.6736 H   0  0  0  0  0  0  0  0  0  0  0  0
  129.2478  131.7644  155.9758 H   0  0  0  0  0  0  0  0  0  0  0  0
  127.0403  133.0201  159.5753 H   0  0  0  0  0  0  0  0  0  0  0  0
  1  2  1  0
  1 27  1  0
  1 28  1  0
  2 26  2  0
  2  3  1  0
  3  4  2  0
  3 29  1  0
  4  5  1  0
  4 30  1  0
  5  6  1  0
  5 19  2  0
  6 31  1  0
  7  6  1  0
  7 17  2  0
  7  8  1  0
  8  9  1  0
  8 10  1  0
 10 11  2  0
 10 32  1  0
 11 12  1  0
 11 17  1  0
 12 16  1  0
 12 13  2  0
 13 14  1  0
 13 33  1  0
 14 15  1  0
 14 34  1  0
 14 35  1  0
 15 16  1  0
 15 36  1  0
 15 37  1  0
 16 38  1  0
 16 39  1  0
 17 18  1  0
 19 20  1  0
 19 26  1  0
 20 21  1  0
 21 25  1  0
 21 22  1  0
 21 40  1  0
 22 23  1  0
 22 41  1  0
 22 42  1  0
 23 24  2  0
 23 43  1  0
 24 25  1  0
 24 44  1  0
 25 45  1  0
 25 46  1  0
 26 47  1  0
M  CHG  1  17   1
M  END
>  <DOCK_score>  (1) 
-45.760406

>  <SMILES>  (1) 
Nc1ccc(Nc2[nH]cc(C3=CCCC3)[nH+]2)c(OC2CC=CC2)c1

$$$$
