[NH3+][C@@H](C(=O)Nc1cccc(O)c1)c1cccc(NC2CN(C3CC3)C2)c1
     RDKit          3D

 51 54  0  0  1  0  0  0  0  0999 V2000
  130.5921  134.1952  157.4496 N   0  0  0  0  0  0  0  0  0  0  0  0
  130.7019  133.1961  157.5384 H   0  0  0  0  0  0  0  0  0  0  0  0
  129.9789  134.3985  156.6745 H   0  0  0  0  0  0  0  0  0  0  0  0
  131.4928  134.6193  157.2861 H   0  0  0  0  0  0  0  0  0  0  0  0
  130.0135  134.7362  158.6868 C   0  0  1  0  0  0  0  0  0  0  0  0
  129.8949  135.8155  158.5908 H   0  0  0  0  0  0  0  0  0  0  0  0
  128.6681  134.1027  158.9310 C   0  0  0  0  0  0  0  0  0  0  0  0
  128.2340  133.2814  158.1513 O   0  0  0  0  0  0  0  0  0  0  0  0
  127.9449  134.4528  160.0131 N   0  0  0  0  0  0  0  0  0  0  0  0
  126.6933  133.8688  160.2369 C   0  0  0  0  0  0  0  0  0  0  0  0
  126.4382  132.5781  159.7906 C   0  0  0  0  0  0  0  0  0  0  0  0
  125.2044  131.9996  160.0167 C   0  0  0  0  0  0  0  0  0  0  0  0
  124.2172  132.7066  160.6769 C   0  0  0  0  0  0  0  0  0  0  0  0
  124.4646  133.9981  161.1198 C   0  0  0  0  0  0  0  0  0  0  0  0
  123.4928  134.6923  161.7684 O   0  0  0  0  0  0  0  0  0  0  0  0
  125.7034  134.5801  160.8999 C   0  0  0  0  0  0  0  0  0  0  0  0
  130.9294  134.4324  159.8443 C   0  0  0  0  0  0  0  0  0  0  0  0
  130.7741  133.2583  160.5584 C   0  0  0  0  0  0  0  0  0  0  0  0
  131.6159  132.9731  161.6175 C   0  0  0  0  0  0  0  0  0  0  0  0
  132.6081  133.8659  161.9730 C   0  0  0  0  0  0  0  0  0  0  0  0
  132.7632  135.0487  161.2615 C   0  0  0  0  0  0  0  0  0  0  0  0
  133.7650  135.9540  161.6186 N   0  0  0  0  0  0  0  0  0  0  0  0
  133.7743  136.5454  162.9588 C   0  0  0  0  0  0  0  0  0  0  0  0
  132.8479  137.7663  163.1037 C   0  0  0  0  0  0  0  0  0  0  0  0
  133.9494  138.3829  163.8799 N   0  0  0  0  0  0  0  0  0  0  0  0
  134.1325  139.7923  163.5085 C   0  0  0  0  0  0  0  0  0  0  0  0
  134.6277  140.7503  164.5939 C   0  0  0  0  0  0  0  0  0  0  0  0
  133.1737  140.8148  164.1220 C   0  0  0  0  0  0  0  0  0  0  0  0
  134.9403  137.5217  163.1973 C   0  0  0  0  0  0  0  0  0  0  0  0
  131.9191  135.3295  160.1943 C   0  0  0  0  0  0  0  0  0  0  0  0
  128.2922  135.1096  160.6367 H   0  0  0  0  0  0  0  0  0  0  0  0
  127.2064  132.0252  159.2706 H   0  0  0  0  0  0  0  0  0  0  0  0
  125.0093  130.9946  159.6727 H   0  0  0  0  0  0  0  0  0  0  0  0
  123.2523  132.2531  160.8486 H   0  0  0  0  0  0  0  0  0  0  0  0
  123.7585  135.5821  162.0382 H   0  0  0  0  0  0  0  0  0  0  0  0
  125.8978  135.5851  161.2442 H   0  0  0  0  0  0  0  0  0  0  0  0
  129.9961  132.5606  160.2856 H   0  0  0  0  0  0  0  0  0  0  0  0
  131.4946  132.0532  162.1704 H   0  0  0  0  0  0  0  0  0  0  0  0
  133.2622  133.6448  162.8035 H   0  0  0  0  0  0  0  0  0  0  0  0
  134.4548  136.1911  160.9791 H   0  0  0  0  0  0  0  0  0  0  0  0
  133.6524  135.8059  163.7504 H   0  0  0  0  0  0  0  0  0  0  0  0
  132.6377  138.2723  162.1614 H   0  0  0  0  0  0  0  0  0  0  0  0
  131.9512  137.5699  163.6916 H   0  0  0  0  0  0  0  0  0  0  0  0
  134.4713  139.9694  162.4878 H   0  0  0  0  0  0  0  0  0  0  0  0
  134.8175  140.3347  165.5835 H   0  0  0  0  0  0  0  0  0  0  0  0
  135.2925  141.5578  164.2874 H   0  0  0  0  0  0  0  0  0  0  0  0
  132.8821  141.6647  163.5049 H   0  0  0  0  0  0  0  0  0  0  0  0
  132.4071  140.4416  164.8010 H   0  0  0  0  0  0  0  0  0  0  0  0
  135.7122  137.1303  163.8598 H   0  0  0  0  0  0  0  0  0  0  0  0
  135.3446  137.9547  162.2824 H   0  0  0  0  0  0  0  0  0  0  0  0
  132.0373  136.2480  159.6388 H   0  0  0  0  0  0  0  0  0  0  0  0
  1  2  1  0
  1  3  1  0
  1  4  1  0
  1  5  1  0
  5  6  1  6
  5  7  1  0
  5 17  1  0
  7  8  2  0
  7  9  1  0
  9 10  1  0
  9 31  1  0
 10 16  1  0
 10 11  2  0
 11 12  1  0
 11 32  1  0
 12 13  2  0
 12 33  1  0
 13 14  1  0
 13 34  1  0
 14 15  1  0
 14 16  2  0
 15 35  1  0
 16 36  1  0
 17 30  1  0
 17 18  2  0
 18 19  1  0
 18 37  1  0
 19 20  2  0
 19 38  1  0
 20 21  1  0
 20 39  1  0
 21 22  1  0
 21 30  2  0
 22 23  1  0
 22 40  1  0
 23 29  1  0
 23 24  1  0
 23 41  1  0
 24 25  1  0
 24 42  1  0
 24 43  1  0
 25 26  1  0
 25 29  1  0
 26 28  1  0
 26 27  1  0
 26 44  1  0
 27 28  1  0
 27 45  1  0
 27 46  1  0
 28 47  1  0
 28 48  1  0
 29 49  1  0
 29 50  1  0
 30 51  1  0
M  CHG  1   1   1
M  END
>  <DOCK_score>  (1) 
-45.069103

>  <SMILES>  (1) 
[NH3+][C@@H](C(=O)Nc1cccc(O)c1)c1cccc(NC2CN(C3CC3)C2)c1

$$$$
