C#CC[C@@H](CC#CC(Cc1ccccc1)Cc1ccccc1)[NH+]=C(NC1CC=CC1)NC1CCOCC1
     RDKit          3D

 77 80  0  0  1  0  0  0  0  0999 V2000
  125.5345  133.2167  161.4088 C   0  0  0  0  0  0  0  0  0  0  0  0
  125.9072  134.3199  161.5590 C   0  0  0  0  0  0  0  0  0  0  0  0
  126.3746  135.7029  161.7471 C   0  0  0  0  0  0  0  0  0  0  0  0
  127.9024  135.7187  161.8264 C   0  0  1  0  0  0  0  0  0  0  0  0
  128.2484  136.7430  161.9657 H   0  0  0  0  0  0  0  0  0  0  0  0
  128.3609  134.8604  163.0070 C   0  0  0  0  0  0  0  0  0  0  0  0
  127.7992  135.4027  164.2550 C   0  0  0  0  0  0  0  0  0  0  0  0
  127.3513  135.8351  165.2504 C   0  0  0  0  0  0  0  0  0  0  0  0
  126.7897  136.3773  166.4983 C   0  0  0  0  0  0  0  0  0  0  0  0
  127.2482  135.5190  167.6791 C   0  0  0  0  0  0  0  0  0  0  0  0
  126.3253  135.7410  168.8496 C   0  0  0  0  0  0  0  0  0  0  0  0
  126.6025  136.7346  169.7697 C   0  0  0  0  0  0  0  0  0  0  0  0
  125.7534  136.9413  170.8408 C   0  0  0  0  0  0  0  0  0  0  0  0
  124.6324  136.1477  170.9972 C   0  0  0  0  0  0  0  0  0  0  0  0
  124.3582  135.1503  170.0803 C   0  0  0  0  0  0  0  0  0  0  0  0
  125.2044  134.9471  169.0063 C   0  0  0  0  0  0  0  0  0  0  0  0
  127.2754  137.8148  166.6938 C   0  0  0  0  0  0  0  0  0  0  0  0
  126.8238  138.6602  165.5309 C   0  0  0  0  0  0  0  0  0  0  0  0
  127.6310  138.7900  164.4162 C   0  0  0  0  0  0  0  0  0  0  0  0
  127.2146  139.5616  163.3475 C   0  0  0  0  0  0  0  0  0  0  0  0
  125.9956  140.2114  163.3975 C   0  0  0  0  0  0  0  0  0  0  0  0
  125.1909  140.0861  164.5146 C   0  0  0  0  0  0  0  0  0  0  0  0
  125.6049  139.3104  165.5811 C   0  0  0  0  0  0  0  0  0  0  0  0
  128.4614  135.1791  160.5844 N   0  0  0  0  0  0  0  0  0  0  0  0
  127.9695  134.5118  160.0807 H   0  0  0  0  0  0  0  0  0  0  0  0
  129.6198  135.5957  160.1560 C   0  0  0  0  0  0  0  0  0  0  0  0
  130.1444  135.0894  158.9904 N   0  0  0  0  0  0  0  0  0  0  0  0
  129.4014  134.0815  158.2298 C   0  0  0  0  0  0  0  0  0  0  0  0
  129.3287  132.7445  159.0034 C   0  0  0  0  0  0  0  0  0  0  0  0
  129.4534  131.6783  157.9400 C   0  0  0  0  0  0  0  0  0  0  0  0
  129.9167  132.1770  156.8264 C   0  0  0  0  0  0  0  0  0  0  0  0
  130.1784  133.6591  156.9613 C   0  0  0  0  0  0  0  0  0  0  0  0
  130.3170  136.5417  160.8696 N   0  0  0  0  0  0  0  0  0  0  0  0
  131.2071  137.4748  160.1743 C   0  0  0  0  0  0  0  0  0  0  0  0
  131.8488  138.4243  161.1907 C   0  0  0  0  0  0  0  0  0  0  0  0
  132.7151  139.4447  160.4476 C   0  0  0  0  0  0  0  0  0  0  0  0
  131.9104  140.1521  159.5020 O   0  0  0  0  0  0  0  0  0  0  0  0
  131.3226  139.3211  158.4988 C   0  0  0  0  0  0  0  0  0  0  0  0
  130.4005  138.2957  159.1636 C   0  0  0  0  0  0  0  0  0  0  0  0
  125.2010  132.2302  161.2746 H   0  0  0  0  0  0  0  0  0  0  0  0
  125.9587  136.1043  162.6712 H   0  0  0  0  0  0  0  0  0  0  0  0
  126.0481  136.3143  160.9059 H   0  0  0  0  0  0  0  0  0  0  0  0
  129.4492  134.8717  163.0634 H   0  0  0  0  0  0  0  0  0  0  0  0
  128.0148  133.8363  162.8678 H   0  0  0  0  0  0  0  0  0  0  0  0
  125.7012  136.3660  166.4420 H   0  0  0  0  0  0  0  0  0  0  0  0
  127.2267  134.4673  167.3937 H   0  0  0  0  0  0  0  0  0  0  0  0
  128.2637  135.7989  167.9590 H   0  0  0  0  0  0  0  0  0  0  0  0
  127.4806  137.3519  169.6498 H   0  0  0  0  0  0  0  0  0  0  0  0
  125.9678  137.7204  171.5574 H   0  0  0  0  0  0  0  0  0  0  0  0
  123.9710  136.3068  171.8360 H   0  0  0  0  0  0  0  0  0  0  0  0
  123.4825  134.5300  170.2026 H   0  0  0  0  0  0  0  0  0  0  0  0
  124.9902  134.1677  168.2899 H   0  0  0  0  0  0  0  0  0  0  0  0
  126.8596  138.2164  167.6179 H   0  0  0  0  0  0  0  0  0  0  0  0
  128.3639  137.8261  166.7502 H   0  0  0  0  0  0  0  0  0  0  0  0
  128.5853  138.2857  164.3788 H   0  0  0  0  0  0  0  0  0  0  0  0
  127.8434  139.6597  162.4748 H   0  0  0  0  0  0  0  0  0  0  0  0
  125.6719  140.8172  162.5640 H   0  0  0  0  0  0  0  0  0  0  0  0
  124.2387  140.5941  164.5538 H   0  0  0  0  0  0  0  0  0  0  0  0
  124.9763  139.2126  166.4538 H   0  0  0  0  0  0  0  0  0  0  0  0
  131.0065  135.3993  158.6716 H   0  0  0  0  0  0  0  0  0  0  0  0
  128.4046  134.4422  157.9762 H   0  0  0  0  0  0  0  0  0  0  0  0
  130.1528  132.6712  159.7130 H   0  0  0  0  0  0  0  0  0  0  0  0
  128.3729  132.6560  159.5197 H   0  0  0  0  0  0  0  0  0  0  0  0
  129.1929  130.6399  158.0826 H   0  0  0  0  0  0  0  0  0  0  0  0
  130.0900  131.6056  155.9265 H   0  0  0  0  0  0  0  0  0  0  0  0
  129.8002  134.1924  156.0892 H   0  0  0  0  0  0  0  0  0  0  0  0
  131.2443  133.8483  157.0884 H   0  0  0  0  0  0  0  0  0  0  0  0
  130.2195  136.5913  161.8334 H   0  0  0  0  0  0  0  0  0  0  0  0
  131.9848  136.9168  159.6530 H   0  0  0  0  0  0  0  0  0  0  0  0
  131.0687  138.9448  161.7462 H   0  0  0  0  0  0  0  0  0  0  0  0
  132.4698  137.8534  161.8810 H   0  0  0  0  0  0  0  0  0  0  0  0
  133.5194  138.9268  159.9250 H   0  0  0  0  0  0  0  0  0  0  0  0
  133.1404  140.1495  161.1621 H   0  0  0  0  0  0  0  0  0  0  0  0
  132.1086  138.8015  157.9508 H   0  0  0  0  0  0  0  0  0  0  0  0
  130.7448  139.9366  157.8094 H   0  0  0  0  0  0  0  0  0  0  0  0
  129.9855  137.6328  158.4043 H   0  0  0  0  0  0  0  0  0  0  0  0
  129.5909  138.8135  159.6781 H   0  0  0  0  0  0  0  0  0  0  0  0
  1  2  3  0
  1 40  1  0
  2  3  1  0
  3  4  1  0
  3 41  1  0
  3 42  1  0
  4  5  1  1
  4  6  1  0
  4 24  1  0
  6  7  1  0
  6 43  1  0
  6 44  1  0
  7  8  3  0
  8  9  1  0
  9 10  1  0
  9 17  1  0
  9 45  1  0
 10 11  1  0
 10 46  1  0
 10 47  1  0
 11 16  1  0
 11 12  2  0
 12 13  1  0
 12 48  1  0
 13 14  2  0
 13 49  1  0
 14 15  1  0
 14 50  1  0
 15 16  2  0
 15 51  1  0
 16 52  1  0
 17 18  1  0
 17 53  1  0
 17 54  1  0
 18 23  1  0
 18 19  2  0
 19 20  1  0
 19 55  1  0
 20 21  2  0
 20 56  1  0
 21 22  1  0
 21 57  1  0
 22 23  2  0
 22 58  1  0
 23 59  1  0
 24 25  1  0
 26 24  2  0
 26 27  1  0
 26 33  1  0
 27 28  1  0
 27 60  1  0
 28 32  1  0
 28 29  1  0
 28 61  1  0
 29 30  1  0
 29 62  1  0
 29 63  1  0
 30 31  2  0
 30 64  1  0
 31 32  1  0
 31 65  1  0
 32 66  1  0
 32 67  1  0
 33 34  1  0
 33 68  1  0
 34 39  1  0
 34 35  1  0
 34 69  1  0
 35 36  1  0
 35 70  1  0
 35 71  1  0
 36 37  1  0
 36 72  1  0
 36 73  1  0
 37 38  1  0
 38 39  1  0
 38 74  1  0
 38 75  1  0
 39 76  1  0
 39 77  1  0
M  CHG  1  24   1
M  END
>  <DOCK_score>  (1) 
-56.264793

>  <SMILES>  (1) 
C#CC[C@@H](CC#CC(Cc1ccccc1)Cc1ccccc1)[NH+]=C(NC1CC=CC1)NC1CCOCC1

$$$$
