Cc1c[nH]c(N[C@@H](CC2CC=C(c3ccc(-c4ccccc4)cc3)CC2)c2ccccc2)[nH+]1
     RDKit          3D

 65 69  0  0  1  0  0  0  0  0999 V2000
  130.2066  131.3730  154.8833 C   0  0  0  0  0  0  0  0  0  0  0  0
  129.8893  132.1190  156.1535 C   0  0  0  0  0  0  0  0  0  0  0  0
  129.2435  131.6177  157.2201 C   0  0  0  0  0  0  0  0  0  0  0  0
  129.1657  132.6271  158.1530 N   0  0  0  0  0  0  0  0  0  0  0  0
  128.7551  132.5717  159.0300 H   0  0  0  0  0  0  0  0  0  0  0  0
  129.7744  133.7168  157.6121 C   0  0  0  0  0  0  0  0  0  0  0  0
  129.9165  134.9516  158.2228 N   0  0  0  0  0  0  0  0  0  0  0  0
  128.9134  135.4122  159.1860 C   0  0  1  0  0  0  0  0  0  0  0  0
  128.8607  134.7111  160.0189 H   0  0  0  0  0  0  0  0  0  0  0  0
  129.3055  136.7959  159.7083 C   0  0  0  0  0  0  0  0  0  0  0  0
  130.6710  136.7142  160.3937 C   0  0  2  0  0  0  0  0  0  0  0  0
  130.5945  135.7496  161.5788 C   0  0  0  0  0  0  0  0  0  0  0  0
  131.8393  135.8533  162.4108 C   0  0  0  0  0  0  0  0  0  0  0  0
  132.6793  136.8589  162.3463 C   0  0  0  0  0  0  0  0  0  0  0  0
  133.8611  136.8355  163.2321 C   0  0  0  0  0  0  0  0  0  0  0  0
  135.1456  136.8529  162.6841 C   0  0  0  0  0  0  0  0  0  0  0  0
  136.2466  136.8316  163.5105 C   0  0  0  0  0  0  0  0  0  0  0  0
  136.0794  136.7931  164.8949 C   0  0  0  0  0  0  0  0  0  0  0  0
  137.2659  136.7702  165.7841 C   0  0  0  0  0  0  0  0  0  0  0  0
  137.2000  136.1331  167.0222 C   0  0  0  0  0  0  0  0  0  0  0  0
  138.3072  136.1154  167.8457 C   0  0  0  0  0  0  0  0  0  0  0  0
  139.4810  136.7277  167.4446 C   0  0  0  0  0  0  0  0  0  0  0  0
  139.5506  137.3659  166.2193 C   0  0  0  0  0  0  0  0  0  0  0  0
  138.4511  137.3859  165.3853 C   0  0  0  0  0  0  0  0  0  0  0  0
  134.7970  136.7703  165.4429 C   0  0  0  0  0  0  0  0  0  0  0  0
  133.6948  136.7965  164.6183 C   0  0  0  0  0  0  0  0  0  0  0  0
  132.5067  138.0348  161.4296 C   0  0  0  0  0  0  0  0  0  0  0  0
  131.0675  138.0996  160.9188 C   0  0  0  0  0  0  0  0  0  0  0  0
  127.5685  135.4927  158.5109 C   0  0  0  0  0  0  0  0  0  0  0  0
  126.4145  135.2829  159.2424 C   0  0  0  0  0  0  0  0  0  0  0  0
  125.1806  135.3604  158.6240 C   0  0  0  0  0  0  0  0  0  0  0  0
  125.1012  135.6396  157.2724 C   0  0  0  0  0  0  0  0  0  0  0  0
  126.2554  135.8443  156.5400 C   0  0  0  0  0  0  0  0  0  0  0  0
  127.4892  135.7705  157.1591 C   0  0  0  0  0  0  0  0  0  0  0  0
  130.1988  133.4011  156.4114 N   0  0  0  0  0  0  0  0  0  0  0  0
  130.6650  133.9986  155.8059 H   0  0  0  0  0  0  0  0  0  0  0  0
  129.3865  131.4951  154.1756 H   0  0  0  0  0  0  0  0  0  0  0  0
  131.1240  131.7698  154.4483 H   0  0  0  0  0  0  0  0  0  0  0  0
  130.3388  130.3143  155.1069 H   0  0  0  0  0  0  0  0  0  0  0  0
  128.8588  130.6140  157.3253 H   0  0  0  0  0  0  0  0  0  0  0  0
  130.6804  135.5115  158.0128 H   0  0  0  0  0  0  0  0  0  0  0  0
  128.5591  137.1386  160.4249 H   0  0  0  0  0  0  0  0  0  0  0  0
  129.3583  137.4970  158.8753 H   0  0  0  0  0  0  0  0  0  0  0  0
  131.4174  136.3616  159.6819 H   0  0  0  0  0  0  0  0  0  0  0  0
  130.4914  134.7296  161.2084 H   0  0  0  0  0  0  0  0  0  0  0  0
  129.7285  136.0008  162.1914 H   0  0  0  0  0  0  0  0  0  0  0  0
  132.0562  135.0535  163.1032 H   0  0  0  0  0  0  0  0  0  0  0  0
  135.2752  136.8827  161.6123 H   0  0  0  0  0  0  0  0  0  0  0  0
  137.2400  136.8450  163.0869 H   0  0  0  0  0  0  0  0  0  0  0  0
  136.2842  135.6548  167.3365 H   0  0  0  0  0  0  0  0  0  0  0  0
  138.2573  135.6221  168.8053 H   0  0  0  0  0  0  0  0  0  0  0  0
  140.3449  136.7113  168.0924 H   0  0  0  0  0  0  0  0  0  0  0  0
  140.4682  137.8458  165.9128 H   0  0  0  0  0  0  0  0  0  0  0  0
  138.5079  137.8809  164.4271 H   0  0  0  0  0  0  0  0  0  0  0  0
  134.6686  136.7361  166.5147 H   0  0  0  0  0  0  0  0  0  0  0  0
  132.7019  136.7827  165.0428 H   0  0  0  0  0  0  0  0  0  0  0  0
  132.7420  138.9517  161.9700 H   0  0  0  0  0  0  0  0  0  0  0  0
  133.1835  137.9339  160.5811 H   0  0  0  0  0  0  0  0  0  0  0  0
  130.9962  138.8307  160.1135 H   0  0  0  0  0  0  0  0  0  0  0  0
  130.4028  138.3865  161.7336 H   0  0  0  0  0  0  0  0  0  0  0  0
  126.4766  135.0613  160.2976 H   0  0  0  0  0  0  0  0  0  0  0  0
  124.2787  135.2001  159.1962 H   0  0  0  0  0  0  0  0  0  0  0  0
  124.1373  135.6978  156.7887 H   0  0  0  0  0  0  0  0  0  0  0  0
  126.1934  136.0621  155.4839 H   0  0  0  0  0  0  0  0  0  0  0  0
  128.3910  135.9305  156.5869 H   0  0  0  0  0  0  0  0  0  0  0  0
  1  2  1  0
  1 37  1  0
  1 38  1  0
  1 39  1  0
  2 35  1  0
  2  3  2  0
  3  4  1  0
  3 40  1  0
  4  5  1  0
  4  6  1  0
  6  7  1  0
  6 35  2  0
  7  8  1  0
  7 41  1  0
  8  9  1  1
  8 10  1  0
  8 29  1  0
 10 11  1  0
 10 42  1  0
 10 43  1  0
 11 28  1  0
 11 12  1  0
 11 44  1  6
 12 13  1  0
 12 45  1  0
 12 46  1  0
 13 14  2  0
 13 47  1  0
 14 15  1  0
 14 27  1  0
 15 26  1  0
 15 16  2  0
 16 17  1  0
 16 48  1  0
 17 18  2  0
 17 49  1  0
 18 19  1  0
 18 25  1  0
 19 24  1  0
 19 20  2  0
 20 21  1  0
 20 50  1  0
 21 22  2  0
 21 51  1  0
 22 23  1  0
 22 52  1  0
 23 24  2  0
 23 53  1  0
 24 54  1  0
 25 26  2  0
 25 55  1  0
 26 56  1  0
 27 28  1  0
 27 57  1  0
 27 58  1  0
 28 59  1  0
 28 60  1  0
 29 34  1  0
 29 30  2  0
 30 31  1  0
 30 61  1  0
 31 32  2  0
 31 62  1  0
 32 33  1  0
 32 63  1  0
 33 34  2  0
 33 64  1  0
 34 65  1  0
 35 36  1  0
M  CHG  1  35   1
M  END
>  <DOCK_score>  (1) 
-56.66008

>  <SMILES>  (1) 
Cc1c[nH]c(N[C@@H](CC2CC=C(c3ccc(-c4ccccc4)cc3)CC2)c2ccccc2)[nH+]1

$$$$
