CCc1ccc(-c2c[nH]c(NC(C[C@](O)(CC)c3ccccc3)c3ccccc3)[nH+]2)cc1
     RDKit          3D

 64 67  0  0  1  0  0  0  0  0999 V2000
  129.5588  129.4693  151.1028 C   0  0  0  0  0  0  0  0  0  0  0  0
  130.9298  129.8330  151.6763 C   0  0  0  0  0  0  0  0  0  0  0  0
  130.7516  130.5209  153.0053 C   0  0  0  0  0  0  0  0  0  0  0  0
  130.7195  129.7749  154.1691 C   0  0  0  0  0  0  0  0  0  0  0  0
  130.5625  130.4008  155.3891 C   0  0  0  0  0  0  0  0  0  0  0  0
  130.4253  131.7866  155.4459 C   0  0  0  0  0  0  0  0  0  0  0  0
  130.2508  132.4643  156.7537 C   0  0  0  0  0  0  0  0  0  0  0  0
  129.6512  131.9393  157.8508 C   0  0  0  0  0  0  0  0  0  0  0  0
  129.7090  132.8974  158.8336 N   0  0  0  0  0  0  0  0  0  0  0  0
  129.3640  132.8158  159.7366 H   0  0  0  0  0  0  0  0  0  0  0  0
  130.3354  133.9839  158.3052 C   0  0  0  0  0  0  0  0  0  0  0  0
  130.5907  135.1706  158.9710 N   0  0  0  0  0  0  0  0  0  0  0  0
  130.1751  135.3315  160.3666 C   0  0  1  0  0  0  0  0  0  0  0  0
  130.5738  136.7238  160.8601 C   0  0  0  0  0  0  0  0  0  0  0  0
  132.0579  136.7272  161.2322 C   0  0  2  0  0  0  0  0  0  0  0  0
  132.7913  135.9623  160.2735 O   0  0  0  0  0  0  0  0  0  0  0  0
  132.2369  136.1109  162.6210 C   0  0  0  0  0  0  0  0  0  0  0  0
  133.7209  136.1143  162.9932 C   0  0  0  0  0  0  0  0  0  0  0  0
  132.5701  138.1445  161.2419 C   0  0  0  0  0  0  0  0  0  0  0  0
  131.7177  139.1852  161.5599 C   0  0  0  0  0  0  0  0  0  0  0  0
  132.1887  140.4848  161.5735 C   0  0  0  0  0  0  0  0  0  0  0  0
  133.5090  140.7448  161.2590 C   0  0  0  0  0  0  0  0  0  0  0  0
  134.3605  139.7044  160.9355 C   0  0  0  0  0  0  0  0  0  0  0  0
  133.8907  138.4043  160.9271 C   0  0  0  0  0  0  0  0  0  0  0  0
  128.6799  135.1721  160.4670 C   0  0  0  0  0  0  0  0  0  0  0  0
  128.1149  134.6653  161.6223 C   0  0  0  0  0  0  0  0  0  0  0  0
  126.7429  134.5235  161.7161 C   0  0  0  0  0  0  0  0  0  0  0  0
  125.9369  134.8790  160.6508 C   0  0  0  0  0  0  0  0  0  0  0  0
  126.5023  135.3809  159.4935 C   0  0  0  0  0  0  0  0  0  0  0  0
  127.8739  135.5274  159.4017 C   0  0  0  0  0  0  0  0  0  0  0  0
  130.6577  133.7214  157.0622 N   0  0  0  0  0  0  0  0  0  0  0  0
  131.1143  134.3286  156.4592 H   0  0  0  0  0  0  0  0  0  0  0  0
  130.4532  132.5332  154.2692 C   0  0  0  0  0  0  0  0  0  0  0  0
  130.6162  131.8973  153.0554 C   0  0  0  0  0  0  0  0  0  0  0  0
  129.0423  128.8012  151.7921 H   0  0  0  0  0  0  0  0  0  0  0  0
  128.9700  130.3761  150.9661 H   0  0  0  0  0  0  0  0  0  0  0  0
  129.6874  128.9712  150.1418 H   0  0  0  0  0  0  0  0  0  0  0  0
  131.5188  128.9261  151.8130 H   0  0  0  0  0  0  0  0  0  0  0  0
  131.4464  130.5011  150.9871 H   0  0  0  0  0  0  0  0  0  0  0  0
  130.8215  128.7007  154.1233 H   0  0  0  0  0  0  0  0  0  0  0  0
  130.5416  129.8172  156.2976 H   0  0  0  0  0  0  0  0  0  0  0  0
  129.2140  130.9554  157.9364 H   0  0  0  0  0  0  0  0  0  0  0  0
  131.0448  135.8955  158.5135 H   0  0  0  0  0  0  0  0  0  0  0  0
  130.6632  134.5747  160.9806 H   0  0  0  0  0  0  0  0  0  0  0  0
  130.3955  137.4539  160.0708 H   0  0  0  0  0  0  0  0  0  0  0  0
  129.9790  136.9829  161.7359 H   0  0  0  0  0  0  0  0  0  0  0  0
  132.7232  136.2964  159.3686 H   0  0  0  0  0  0  0  0  0  0  0  0
  131.6776  136.6943  163.3524 H   0  0  0  0  0  0  0  0  0  0  0  0
  131.8665  135.0857  162.6141 H   0  0  0  0  0  0  0  0  0  0  0  0
  134.0914  137.1394  163.0002 H   0  0  0  0  0  0  0  0  0  0  0  0
  133.8485  135.6751  163.9826 H   0  0  0  0  0  0  0  0  0  0  0  0
  134.2803  135.5308  162.2619 H   0  0  0  0  0  0  0  0  0  0  0  0
  130.6848  138.9827  161.8015 H   0  0  0  0  0  0  0  0  0  0  0  0
  131.5236  141.2975  161.8256 H   0  0  0  0  0  0  0  0  0  0  0  0
  133.8756  141.7607  161.2654 H   0  0  0  0  0  0  0  0  0  0  0  0
  135.3922  139.9074  160.6893 H   0  0  0  0  0  0  0  0  0  0  0  0
  134.5556  137.5917  160.6742 H   0  0  0  0  0  0  0  0  0  0  0  0
  128.7449  134.3834  162.4530 H   0  0  0  0  0  0  0  0  0  0  0  0
  126.3014  134.1310  162.6202 H   0  0  0  0  0  0  0  0  0  0  0  0
  124.8655  134.7640  160.7225 H   0  0  0  0  0  0  0  0  0  0  0  0
  125.8727  135.6581  158.6611 H   0  0  0  0  0  0  0  0  0  0  0  0
  128.3156  135.9193  158.4974 H   0  0  0  0  0  0  0  0  0  0  0  0
  130.3469  133.6073  154.3074 H   0  0  0  0  0  0  0  0  0  0  0  0
  130.6385  132.4749  152.1431 H   0  0  0  0  0  0  0  0  0  0  0  0
  1  2  1  0
  1 35  1  0
  1 36  1  0
  1 37  1  0
  2  3  1  0
  2 38  1  0
  2 39  1  0
  3 34  2  0
  3  4  1  0
  4  5  2  0
  4 40  1  0
  5  6  1  0
  5 41  1  0
  6  7  1  0
  6 33  2  0
  7 31  1  0
  7  8  2  0
  8  9  1  0
  8 42  1  0
  9 10  1  0
  9 11  1  0
 11 12  1  0
 11 31  2  0
 12 13  1  0
 12 43  1  0
 13 14  1  0
 13 25  1  0
 13 44  1  1
 14 15  1  0
 14 45  1  0
 14 46  1  0
 15 16  1  6
 15 17  1  0
 15 19  1  0
 16 47  1  0
 17 18  1  0
 17 48  1  0
 17 49  1  0
 18 50  1  0
 18 51  1  0
 18 52  1  0
 19 24  1  0
 19 20  2  0
 20 21  1  0
 20 53  1  0
 21 22  2  0
 21 54  1  0
 22 23  1  0
 22 55  1  0
 23 24  2  0
 23 56  1  0
 24 57  1  0
 25 30  1  0
 25 26  2  0
 26 27  1  0
 26 58  1  0
 27 28  2  0
 27 59  1  0
 28 29  1  0
 28 60  1  0
 29 30  2  0
 29 61  1  0
 30 62  1  0
 31 32  1  0
 33 34  1  0
 33 63  1  0
 34 64  1  0
M  CHG  1  31   1
M  END
>  <DOCK_score>  (1) 
-67.864098

>  <SMILES>  (1) 
CCc1ccc(-c2c[nH]c(NC(C[C@](O)(CC)c3ccccc3)c3ccccc3)[nH+]2)cc1

$$$$
