Nc1ccc(-c2c[nH]c(N[C@@H](c3ccccc3)c3ccccc3O)[nH+]2)cc1
     RDKit          3D

 48 51  0  0  1  0  0  0  0  0999 V2000
  130.8293  129.1160  150.9680 N   0  0  0  0  0  0  0  0  0  0  0  0
  130.7726  129.7404  152.2164 C   0  0  0  0  0  0  0  0  0  0  0  0
  130.0710  130.9306  152.3658 C   0  0  0  0  0  0  0  0  0  0  0  0
  130.0137  131.5486  153.5972 C   0  0  0  0  0  0  0  0  0  0  0  0
  130.6604  130.9787  154.6927 C   0  0  0  0  0  0  0  0  0  0  0  0
  130.6002  131.6417  156.0184 C   0  0  0  0  0  0  0  0  0  0  0  0
  130.0840  131.1098  157.1537 C   0  0  0  0  0  0  0  0  0  0  0  0
  130.2315  132.0561  158.1402 N   0  0  0  0  0  0  0  0  0  0  0  0
  129.9571  131.9682  159.0664 H   0  0  0  0  0  0  0  0  0  0  0  0
  130.8338  133.1384  157.5771 C   0  0  0  0  0  0  0  0  0  0  0  0
  131.1617  134.3118  158.2347 N   0  0  0  0  0  0  0  0  0  0  0  0
  130.8596  134.4615  159.6604 C   0  0  1  0  0  0  0  0  0  0  0  0
  131.0677  133.5241  160.1763 H   0  0  0  0  0  0  0  0  0  0  0  0
  131.7157  135.5564  160.2431 C   0  0  0  0  0  0  0  0  0  0  0  0
  132.9534  135.2543  160.7795 C   0  0  0  0  0  0  0  0  0  0  0  0
  133.7404  136.2591  161.3104 C   0  0  0  0  0  0  0  0  0  0  0  0
  133.2857  137.5647  161.3129 C   0  0  0  0  0  0  0  0  0  0  0  0
  132.0460  137.8659  160.7809 C   0  0  0  0  0  0  0  0  0  0  0  0
  131.2608  136.8617  160.2464 C   0  0  0  0  0  0  0  0  0  0  0  0
  129.4050  134.8165  159.8311 C   0  0  0  0  0  0  0  0  0  0  0  0
  128.7489  135.5346  158.8497 C   0  0  0  0  0  0  0  0  0  0  0  0
  127.4146  135.8607  159.0057 C   0  0  0  0  0  0  0  0  0  0  0  0
  126.7332  135.4697  160.1441 C   0  0  0  0  0  0  0  0  0  0  0  0
  127.3847  134.7517  161.1277 C   0  0  0  0  0  0  0  0  0  0  0  0
  128.7239  134.4232  160.9735 C   0  0  0  0  0  0  0  0  0  0  0  0
  129.3671  133.7172  161.9404 O   0  0  0  0  0  0  0  0  0  0  0  0
  131.0475  132.8892  156.3080 N   0  0  0  0  0  0  0  0  0  0  0  0
  131.4614  133.4988  155.6771 H   0  0  0  0  0  0  0  0  0  0  0  0
  131.3683  129.7876  154.5393 C   0  0  0  0  0  0  0  0  0  0  0  0
  131.4176  129.1698  153.3076 C   0  0  0  0  0  0  0  0  0  0  0  0
  130.3790  129.5130  150.2063 H   0  0  0  0  0  0  0  0  0  0  0  0
  131.3187  128.2849  150.8631 H   0  0  0  0  0  0  0  0  0  0  0  0
  129.5705  131.3721  151.5167 H   0  0  0  0  0  0  0  0  0  0  0  0
  129.4681  132.4735  153.7128 H   0  0  0  0  0  0  0  0  0  0  0  0
  129.6415  130.1306  157.2623 H   0  0  0  0  0  0  0  0  0  0  0  0
  131.5916  135.0348  157.7516 H   0  0  0  0  0  0  0  0  0  0  0  0
  133.3069  134.2339  160.7809 H   0  0  0  0  0  0  0  0  0  0  0  0
  134.7089  136.0238  161.7263 H   0  0  0  0  0  0  0  0  0  0  0  0
  133.8992  138.3491  161.7308 H   0  0  0  0  0  0  0  0  0  0  0  0
  131.6907  138.8859  160.7832 H   0  0  0  0  0  0  0  0  0  0  0  0
  130.2919  137.0970  159.8312 H   0  0  0  0  0  0  0  0  0  0  0  0
  129.2788  135.8411  157.9600 H   0  0  0  0  0  0  0  0  0  0  0  0
  126.9033  136.4216  158.2375 H   0  0  0  0  0  0  0  0  0  0  0  0
  125.6918  135.7288  160.2649 H   0  0  0  0  0  0  0  0  0  0  0  0
  126.8521  134.4465  162.0163 H   0  0  0  0  0  0  0  0  0  0  0  0
  128.8102  133.4890  162.6972 H   0  0  0  0  0  0  0  0  0  0  0  0
  131.8737  129.3465  155.3857 H   0  0  0  0  0  0  0  0  0  0  0  0
  131.9617  128.2443  153.1893 H   0  0  0  0  0  0  0  0  0  0  0  0
  1  2  1  0
  1 31  1  0
  1 32  1  0
  2 30  2  0
  2  3  1  0
  3  4  2  0
  3 33  1  0
  4  5  1  0
  4 34  1  0
  5  6  1  0
  5 29  2  0
  6 27  1  0
  6  7  2  0
  7  8  1  0
  7 35  1  0
  8  9  1  0
  8 10  1  0
 10 11  1  0
 10 27  2  0
 11 12  1  0
 11 36  1  0
 12 13  1  1
 12 14  1  0
 12 20  1  0
 14 19  1  0
 14 15  2  0
 15 16  1  0
 15 37  1  0
 16 17  2  0
 16 38  1  0
 17 18  1  0
 17 39  1  0
 18 19  2  0
 18 40  1  0
 19 41  1  0
 20 25  1  0
 20 21  2  0
 21 22  1  0
 21 42  1  0
 22 23  2  0
 22 43  1  0
 23 24  1  0
 23 44  1  0
 24 25  2  0
 24 45  1  0
 25 26  1  0
 26 46  1  0
 27 28  1  0
 29 30  1  0
 29 47  1  0
 30 48  1  0
M  CHG  1  27   1
M  END
>  <DOCK_score>  (1) 
-58.525639

>  <SMILES>  (1) 
Nc1ccc(-c2c[nH]c(N[C@@H](c3ccccc3)c3ccccc3O)[nH+]2)cc1

$$$$
