Cc1cccc(CCSc2ccc(Nc3[nH]cc(-c4ccccc4)[nH+]3)c(SC3CCCCC3)c2)c1
     RDKit          3D

 69 73  0  0  1  0  0  0  0  0999 V2000
  133.4415  135.2587  169.9922 C   0  0  0  0  0  0  0  0  0  0  0  0
  132.8140  136.4435  169.3037 C   0  0  0  0  0  0  0  0  0  0  0  0
  133.3899  137.6950  169.4193 C   0  0  0  0  0  0  0  0  0  0  0  0
  132.8144  138.7815  168.7880 C   0  0  0  0  0  0  0  0  0  0  0  0
  131.6655  138.6159  168.0370 C   0  0  0  0  0  0  0  0  0  0  0  0
  131.0871  137.3655  167.9254 C   0  0  0  0  0  0  0  0  0  0  0  0
  129.8321  137.1860  167.1107 C   0  0  0  0  0  0  0  0  0  0  0  0
  130.2056  136.8670  165.6617 C   0  0  0  0  0  0  0  0  0  0  0  0
  128.6949  136.6509  164.6813 S   0  0  0  0  0  0  0  0  0  0  0  0
  129.3151  136.2963  163.0706 C   0  0  0  0  0  0  0  0  0  0  0  0
  128.4328  136.0649  162.0225 C   0  0  0  0  0  0  0  0  0  0  0  0
  128.9159  135.7859  160.7578 C   0  0  0  0  0  0  0  0  0  0  0  0
  130.2828  135.7367  160.5313 C   0  0  0  0  0  0  0  0  0  0  0  0
  130.7719  135.4478  159.2480 N   0  0  0  0  0  0  0  0  0  0  0  0
  130.4527  134.2457  158.6401 C   0  0  0  0  0  0  0  0  0  0  0  0
  129.6725  133.2677  159.1772 N   0  0  0  0  0  0  0  0  0  0  0  0
  129.2441  133.2875  160.0473 H   0  0  0  0  0  0  0  0  0  0  0  0
  129.6044  132.2478  158.2599 C   0  0  0  0  0  0  0  0  0  0  0  0
  130.3439  132.6309  157.1896 C   0  0  0  0  0  0  0  0  0  0  0  0
  130.5598  131.8435  155.9511 C   0  0  0  0  0  0  0  0  0  0  0  0
  130.1537  132.3527  154.7188 C   0  0  0  0  0  0  0  0  0  0  0  0
  130.3618  131.6181  153.5692 C   0  0  0  0  0  0  0  0  0  0  0  0
  130.9620  130.3737  153.6397 C   0  0  0  0  0  0  0  0  0  0  0  0
  131.3623  129.8611  154.8604 C   0  0  0  0  0  0  0  0  0  0  0  0
  131.1644  130.5894  156.0160 C   0  0  0  0  0  0  0  0  0  0  0  0
  130.8473  133.8633  157.4498 N   0  0  0  0  0  0  0  0  0  0  0  0
  131.4111  134.3784  156.8516 H   0  0  0  0  0  0  0  0  0  0  0  0
  131.1719  135.9691  161.5812 C   0  0  0  0  0  0  0  0  0  0  0  0
  132.9096  135.9072  161.2965 S   0  0  0  0  0  0  0  0  0  0  0  0
  133.4574  137.5755  161.7516 C   0  0  0  0  0  0  0  0  0  0  0  0
  133.1713  138.5387  160.5978 C   0  0  0  0  0  0  0  0  0  0  0  0
  133.6333  139.9458  160.9818 C   0  0  0  0  0  0  0  0  0  0  0  0
  135.1356  139.9283  161.2709 C   0  0  0  0  0  0  0  0  0  0  0  0
  135.4217  138.9650  162.4247 C   0  0  0  0  0  0  0  0  0  0  0  0
  134.9596  137.5578  162.0408 C   0  0  0  0  0  0  0  0  0  0  0  0
  130.6852  136.2478  162.8497 C   0  0  0  0  0  0  0  0  0  0  0  0
  131.6629  136.2787  168.5565 C   0  0  0  0  0  0  0  0  0  0  0  0
  134.1617  134.7889  169.3224 H   0  0  0  0  0  0  0  0  0  0  0  0
  133.9501  135.5917  170.8969 H   0  0  0  0  0  0  0  0  0  0  0  0
  132.6665  134.5387  170.2551 H   0  0  0  0  0  0  0  0  0  0  0  0
  134.2894  137.8238  170.0033 H   0  0  0  0  0  0  0  0  0  0  0  0
  133.2641  139.7593  168.8786 H   0  0  0  0  0  0  0  0  0  0  0  0
  131.2181  139.4642  167.5404 H   0  0  0  0  0  0  0  0  0  0  0  0
  129.2449  138.1040  167.1409 H   0  0  0  0  0  0  0  0  0  0  0  0
  129.2450  136.3656  167.5237 H   0  0  0  0  0  0  0  0  0  0  0  0
  130.7928  135.9492  165.6317 H   0  0  0  0  0  0  0  0  0  0  0  0
  130.7926  137.6875  165.2488 H   0  0  0  0  0  0  0  0  0  0  0  0
  127.3675  136.1026  162.1962 H   0  0  0  0  0  0  0  0  0  0  0  0
  128.2278  135.6059  159.9453 H   0  0  0  0  0  0  0  0  0  0  0  0
  131.3336  136.0903  158.7870 H   0  0  0  0  0  0  0  0  0  0  0  0
  129.0648  131.3188  158.3698 H   0  0  0  0  0  0  0  0  0  0  0  0
  129.6810  133.3222  154.6631 H   0  0  0  0  0  0  0  0  0  0  0  0
  130.0519  132.0136  152.6132 H   0  0  0  0  0  0  0  0  0  0  0  0
  131.1187  129.8008  152.7376 H   0  0  0  0  0  0  0  0  0  0  0  0
  131.8309  128.8894  154.9096 H   0  0  0  0  0  0  0  0  0  0  0  0
  131.4777  130.1884  156.9685 H   0  0  0  0  0  0  0  0  0  0  0  0
  132.9200  137.9043  162.6412 H   0  0  0  0  0  0  0  0  0  0  0  0
  133.7087  138.2099  159.7083 H   0  0  0  0  0  0  0  0  0  0  0  0
  132.1011  138.5513  160.3919 H   0  0  0  0  0  0  0  0  0  0  0  0
  133.0960  140.2747  161.8714 H   0  0  0  0  0  0  0  0  0  0  0  0
  133.4296  140.6322  160.1598 H   0  0  0  0  0  0  0  0  0  0  0  0
  135.4647  140.9307  161.5445 H   0  0  0  0  0  0  0  0  0  0  0  0
  135.6730  139.5994  160.3814 H   0  0  0  0  0  0  0  0  0  0  0  0
  134.8844  139.2937  163.3142 H   0  0  0  0  0  0  0  0  0  0  0  0
  136.4920  138.9524  162.6308 H   0  0  0  0  0  0  0  0  0  0  0  0
  135.1634  136.8716  162.8628 H   0  0  0  0  0  0  0  0  0  0  0  0
  135.4971  137.2290  161.1512 H   0  0  0  0  0  0  0  0  0  0  0  0
  131.3710  136.4270  163.6645 H   0  0  0  0  0  0  0  0  0  0  0  0
  131.2133  135.3010  168.4660 H   0  0  0  0  0  0  0  0  0  0  0  0
  1  2  1  0
  1 38  1  0
  1 39  1  0
  1 40  1  0
  2 37  2  0
  2  3  1  0
  3  4  2  0
  3 41  1  0
  4  5  1  0
  4 42  1  0
  5  6  2  0
  5 43  1  0
  6  7  1  0
  6 37  1  0
  7  8  1  0
  7 44  1  0
  7 45  1  0
  8  9  1  0
  8 46  1  0
  8 47  1  0
  9 10  1  0
 10 36  1  0
 10 11  2  0
 11 12  1  0
 11 48  1  0
 12 13  2  0
 12 49  1  0
 13 14  1  0
 13 28  1  0
 14 50  1  0
 15 14  1  0
 15 26  2  0
 15 16  1  0
 16 17  1  0
 16 18  1  0
 18 19  2  0
 18 51  1  0
 19 20  1  0
 19 26  1  0
 20 25  1  0
 20 21  2  0
 21 22  1  0
 21 52  1  0
 22 23  2  0
 22 53  1  0
 23 24  1  0
 23 54  1  0
 24 25  2  0
 24 55  1  0
 25 56  1  0
 26 27  1  0
 28 29  1  0
 28 36  2  0
 29 30  1  0
 30 35  1  0
 30 31  1  0
 30 57  1  0
 31 32  1  0
 31 58  1  0
 31 59  1  0
 32 33  1  0
 32 60  1  0
 32 61  1  0
 33 34  1  0
 33 62  1  0
 33 63  1  0
 34 35  1  0
 34 64  1  0
 34 65  1  0
 35 66  1  0
 35 67  1  0
 36 68  1  0
 37 69  1  0
M  CHG  1  26   1
M  END
>  <DOCK_score>  (1) 
-56.136662

>  <SMILES>  (1) 
Cc1cccc(CCSc2ccc(Nc3[nH]cc(-c4ccccc4)[nH+]3)c(SC3CCCCC3)c2)c1

$$$$
