Cc1ccc(C[NH2+]CC2=C([C@@H]3C[C@H]3Cn3cnc4c(NCC5=CCCC5)ncnc43)CCC2)nc1
     RDKit          3D

 71 76  0  0  1  0  0  0  0  0999 V2000
  136.3957  141.8065  159.4935 C   0  0  0  0  0  0  0  0  0  0  0  0
  135.4256  140.7416  159.9364 C   0  0  0  0  0  0  0  0  0  0  0  0
  134.7110  140.0096  159.0003 C   0  0  0  0  0  0  0  0  0  0  0  0
  133.8343  139.0360  159.4536 C   0  0  0  0  0  0  0  0  0  0  0  0
  133.6951  138.8359  160.8142 C   0  0  0  0  0  0  0  0  0  0  0  0
  132.7409  137.7839  161.3184 C   0  0  0  0  0  0  0  0  0  0  0  0
  132.7687  137.7610  162.7868 N   0  0  0  0  0  0  0  0  0  0  0  0
  132.4926  138.6638  163.1427 H   0  0  0  0  0  0  0  0  0  0  0  0
  133.7029  137.5466  163.1022 H   0  0  0  0  0  0  0  0  0  0  0  0
  131.8387  136.7355  163.2784 C   0  0  0  0  0  0  0  0  0  0  0  0
  131.8673  136.7119  164.7849 C   0  0  0  0  0  0  0  0  0  0  0  0
  131.0906  137.4303  165.5493 C   0  0  0  0  0  0  0  0  0  0  0  0
  130.0480  138.3925  165.0414 C   0  0  2  0  0  0  0  0  0  0  0  0
  130.4220  139.2056  164.4192 H   0  0  0  0  0  0  0  0  0  0  0  0
  128.8582  138.6923  165.9554 C   0  0  0  0  0  0  0  0  0  0  0  0
  128.6662  137.8261  164.7088 C   0  0  1  0  0  0  0  0  0  0  0  0
  128.5111  136.7576  164.8576 H   0  0  0  0  0  0  0  0  0  0  0  0
  127.9147  138.4442  163.5281 C   0  0  0  0  0  0  0  0  0  0  0  0
  128.4305  137.8869  162.2753 N   0  0  0  0  0  0  0  0  0  0  0  0
  129.4633  138.3829  161.5367 C   0  0  0  0  0  0  0  0  0  0  0  0
  129.6541  137.6406  160.4848 N   0  0  0  0  0  0  0  0  0  0  0  0
  128.7585  136.6243  160.4817 C   0  0  0  0  0  0  0  0  0  0  0  0
  128.4939  135.5428  159.6239 C   0  0  0  0  0  0  0  0  0  0  0  0
  129.2448  135.3478  158.4780 N   0  0  0  0  0  0  0  0  0  0  0  0
  128.9544  134.2146  157.5960 C   0  0  0  0  0  0  0  0  0  0  0  0
  129.7666  133.0209  158.0280 C   0  0  0  0  0  0  0  0  0  0  0  0
  130.9620  132.7417  157.5844 C   0  0  0  0  0  0  0  0  0  0  0  0
  131.4963  131.4784  158.2184 C   0  0  0  0  0  0  0  0  0  0  0  0
  130.2532  130.7871  158.8251 C   0  0  0  0  0  0  0  0  0  0  0  0
  129.3067  131.9937  159.0361 C   0  0  0  0  0  0  0  0  0  0  0  0
  127.5062  134.7115  159.9392 N   0  0  0  0  0  0  0  0  0  0  0  0
  126.7847  134.8896  161.0310 C   0  0  0  0  0  0  0  0  0  0  0  0
  126.9961  135.8878  161.8626 N   0  0  0  0  0  0  0  0  0  0  0  0
  127.9666  136.7667  161.6334 C   0  0  0  0  0  0  0  0  0  0  0  0
  131.3746  137.1712  167.0113 C   0  0  0  0  0  0  0  0  0  0  0  0
  132.7541  136.4725  167.0251 C   0  0  0  0  0  0  0  0  0  0  0  0
  132.7985  135.8534  165.6088 C   0  0  0  0  0  0  0  0  0  0  0  0
  134.3913  139.5509  161.6758 N   0  0  0  0  0  0  0  0  0  0  0  0
  135.2377  140.4818  161.2807 C   0  0  0  0  0  0  0  0  0  0  0  0
  137.3828  141.3648  159.3572 H   0  0  0  0  0  0  0  0  0  0  0  0
  136.0569  142.2372  158.5513 H   0  0  0  0  0  0  0  0  0  0  0  0
  136.4488  142.5876  160.2518 H   0  0  0  0  0  0  0  0  0  0  0  0
  134.8377  140.1905  157.9433 H   0  0  0  0  0  0  0  0  0  0  0  0
  133.2648  138.4438  158.7526 H   0  0  0  0  0  0  0  0  0  0  0  0
  133.0392  136.8085  160.9339 H   0  0  0  0  0  0  0  0  0  0  0  0
  131.7317  138.0155  160.9776 H   0  0  0  0  0  0  0  0  0  0  0  0
  132.1371  135.7602  162.8940 H   0  0  0  0  0  0  0  0  0  0  0  0
  130.8295  136.9671  162.9376 H   0  0  0  0  0  0  0  0  0  0  0  0
  128.8295  138.1935  166.9241 H   0  0  0  0  0  0  0  0  0  0  0  0
  128.4494  139.7026  165.9346 H   0  0  0  0  0  0  0  0  0  0  0  0
  126.8518  138.2187  163.6157 H   0  0  0  0  0  0  0  0  0  0  0  0
  128.0583  139.5247  163.5314 H   0  0  0  0  0  0  0  0  0  0  0  0
  130.0381  139.2622  161.7872 H   0  0  0  0  0  0  0  0  0  0  0  0
  129.9632  135.9615  158.2585 H   0  0  0  0  0  0  0  0  0  0  0  0
  127.8933  133.9720  157.6534 H   0  0  0  0  0  0  0  0  0  0  0  0
  129.2120  134.4773  156.5700 H   0  0  0  0  0  0  0  0  0  0  0  0
  131.4987  133.3355  156.8592 H   0  0  0  0  0  0  0  0  0  0  0  0
  131.9556  130.8398  157.4639 H   0  0  0  0  0  0  0  0  0  0  0  0
  132.2155  131.7211  159.0006 H   0  0  0  0  0  0  0  0  0  0  0  0
  129.8260  130.0673  158.1268 H   0  0  0  0  0  0  0  0  0  0  0  0
  130.4950  130.3111  159.7754 H   0  0  0  0  0  0  0  0  0  0  0  0
  129.4057  132.3847  160.0487 H   0  0  0  0  0  0  0  0  0  0  0  0
  128.2745  131.7041  158.8392 H   0  0  0  0  0  0  0  0  0  0  0  0
  125.9914  134.1901  161.2496 H   0  0  0  0  0  0  0  0  0  0  0  0
  130.6133  136.5168  167.4357 H   0  0  0  0  0  0  0  0  0  0  0  0
  131.4192  138.1107  167.5625 H   0  0  0  0  0  0  0  0  0  0  0  0
  132.7931  135.6987  167.7918 H   0  0  0  0  0  0  0  0  0  0  0  0
  133.5578  137.1961  167.1613 H   0  0  0  0  0  0  0  0  0  0  0  0
  133.8107  135.8973  165.2068 H   0  0  0  0  0  0  0  0  0  0  0  0
  132.4431  134.8232  165.6334 H   0  0  0  0  0  0  0  0  0  0  0  0
  135.7905  141.0474  162.0160 H   0  0  0  0  0  0  0  0  0  0  0  0
  1  2  1  0
  1 40  1  0
  1 41  1  0
  1 42  1  0
  2 39  2  0
  2  3  1  0
  3  4  2  0
  3 43  1  0
  4  5  1  0
  4 44  1  0
  5  6  1  0
  5 38  2  0
  6  7  1  0
  6 45  1  0
  6 46  1  0
  7  8  1  0
  7  9  1  0
  7 10  1  0
 10 11  1  0
 10 47  1  0
 10 48  1  0
 11 37  1  0
 11 12  2  0
 12 13  1  0
 12 35  1  0
 13 14  1  6
 13 16  1  0
 13 15  1  0
 15 16  1  0
 15 49  1  0
 15 50  1  0
 16 17  1  1
 16 18  1  0
 18 19  1  0
 18 51  1  0
 18 52  1  0
 19 34  1  0
 19 20  1  0
 20 21  2  0
 20 53  1  0
 21 22  1  0
 22 34  2  0
 22 23  1  0
 23 24  1  0
 23 31  2  0
 24 25  1  0
 24 54  1  0
 25 26  1  0
 25 55  1  0
 25 56  1  0
 26 30  1  0
 26 27  2  0
 27 28  1  0
 27 57  1  0
 28 29  1  0
 28 58  1  0
 28 59  1  0
 29 30  1  0
 29 60  1  0
 29 61  1  0
 30 62  1  0
 30 63  1  0
 31 32  1  0
 32 33  2  0
 32 64  1  0
 33 34  1  0
 35 36  1  0
 35 65  1  0
 35 66  1  0
 36 37  1  0
 36 67  1  0
 36 68  1  0
 37 69  1  0
 37 70  1  0
 38 39  1  0
 39 71  1  0
M  CHG  1   7   1
M  END
>  <DOCK_score>  (1) 
-45.459499

>  <SMILES>  (1) 
Cc1ccc(C[NH2+]CC2=C([C@@H]3C[C@H]3Cn3cnc4c(NCC5=CCCC5)ncnc43)CCC2)nc1

$$$$
