[NH3+][C@@H](C(=O)Nc1cccc(O)c1)c1cccc(NCCC2=CCCCCC2)c1
     RDKit          3D

 58 60  0  0  1  0  0  0  0  0999 V2000
  130.8419  134.1216  157.4252 N   0  0  0  0  0  0  0  0  0  0  0  0
  131.7186  134.5959  157.2690 H   0  0  0  0  0  0  0  0  0  0  0  0
  131.0048  133.1284  157.4968 H   0  0  0  0  0  0  0  0  0  0  0  0
  130.2179  134.3054  156.6539 H   0  0  0  0  0  0  0  0  0  0  0  0
  130.2366  134.6096  158.6717 C   0  0  1  0  0  0  0  0  0  0  0  0
  130.0606  135.6826  158.5944 H   0  0  0  0  0  0  0  0  0  0  0  0
  128.9271  133.9014  158.9052 C   0  0  0  0  0  0  0  0  0  0  0  0
  128.5365  133.0716  158.1113 O   0  0  0  0  0  0  0  0  0  0  0  0
  128.1901  134.1899  159.9960 N   0  0  0  0  0  0  0  0  0  0  0  0
  126.9742  133.5322  160.2127 C   0  0  0  0  0  0  0  0  0  0  0  0
  126.7903  132.2377  159.7429 C   0  0  0  0  0  0  0  0  0  0  0  0
  125.5920  131.5864  159.9619 C   0  0  0  0  0  0  0  0  0  0  0  0
  124.5695  132.2242  160.6385 C   0  0  0  0  0  0  0  0  0  0  0  0
  124.7455  133.5191  161.1051 C   0  0  0  0  0  0  0  0  0  0  0  0
  123.7390  134.1451  161.7698 O   0  0  0  0  0  0  0  0  0  0  0  0
  125.9487  134.1739  160.8922 C   0  0  0  0  0  0  0  0  0  0  0  0
  131.1686  134.3352  159.8237 C   0  0  0  0  0  0  0  0  0  0  0  0
  131.0766  133.1422  160.5175 C   0  0  0  0  0  0  0  0  0  0  0  0
  131.9297  132.8863  161.5750 C   0  0  0  0  0  0  0  0  0  0  0  0
  132.8805  133.8198  161.9388 C   0  0  0  0  0  0  0  0  0  0  0  0
  132.9717  135.0213  161.2480 C   0  0  0  0  0  0  0  0  0  0  0  0
  133.9286  135.9697  161.6165 N   0  0  0  0  0  0  0  0  0  0  0  0
  134.5290  135.9237  162.9521 C   0  0  0  0  0  0  0  0  0  0  0  0
  134.9082  137.3399  163.3899 C   0  0  0  0  0  0  0  0  0  0  0  0
  135.5258  137.2926  164.7637 C   0  0  0  0  0  0  0  0  0  0  0  0
  136.7362  137.7180  164.9408 C   0  0  0  0  0  0  0  0  0  0  0  0
  137.3689  137.6751  166.3152 C   0  0  0  0  0  0  0  0  0  0  0  0
  136.7170  138.7476  167.1909 C   0  0  0  0  0  0  0  0  0  0  0  0
  135.4456  138.2147  167.8338 C   0  0  0  0  0  0  0  0  0  0  0  0
  134.3370  137.9129  166.8409 C   0  0  0  0  0  0  0  0  0  0  0  0
  134.7282  136.7477  165.9292 C   0  0  0  0  0  0  0  0  0  0  0  0
  132.1130  135.2751  160.1858 C   0  0  0  0  0  0  0  0  0  0  0  0
  128.5025  134.8534  160.6308 H   0  0  0  0  0  0  0  0  0  0  0  0
  127.5862  131.7388  159.2100 H   0  0  0  0  0  0  0  0  0  0  0  0
  125.4523  130.5786  159.5995 H   0  0  0  0  0  0  0  0  0  0  0  0
  123.6322  131.7138  160.8047 H   0  0  0  0  0  0  0  0  0  0  0  0
  123.9552  135.0432  162.0555 H   0  0  0  0  0  0  0  0  0  0  0  0
  126.0876  135.1817  161.2549 H   0  0  0  0  0  0  0  0  0  0  0  0
  130.3365  132.4090  160.2327 H   0  0  0  0  0  0  0  0  0  0  0  0
  131.8552  131.9538  162.1147 H   0  0  0  0  0  0  0  0  0  0  0  0
  133.5495  133.6175  162.7622 H   0  0  0  0  0  0  0  0  0  0  0  0
  134.1957  136.6587  160.9883 H   0  0  0  0  0  0  0  0  0  0  0  0
  135.4222  135.2996  162.9277 H   0  0  0  0  0  0  0  0  0  0  0  0
  133.8122  135.5048  163.6585 H   0  0  0  0  0  0  0  0  0  0  0  0
  134.0148  137.9640  163.4143 H   0  0  0  0  0  0  0  0  0  0  0  0
  135.6248  137.7588  162.6836 H   0  0  0  0  0  0  0  0  0  0  0  0
  137.2973  138.1050  164.1030 H   0  0  0  0  0  0  0  0  0  0  0  0
  137.2102  136.6930  166.7607 H   0  0  0  0  0  0  0  0  0  0  0  0
  138.4380  137.8707  166.2322 H   0  0  0  0  0  0  0  0  0  0  0  0
  137.4182  139.0514  167.9679 H   0  0  0  0  0  0  0  0  0  0  0  0
  136.4688  139.6118  166.5746 H   0  0  0  0  0  0  0  0  0  0  0  0
  135.0817  138.9525  168.5489 H   0  0  0  0  0  0  0  0  0  0  0  0
  135.6881  137.2997  168.3743 H   0  0  0  0  0  0  0  0  0  0  0  0
  134.1498  138.7975  166.2323 H   0  0  0  0  0  0  0  0  0  0  0  0
  133.4292  137.6534  167.3855 H   0  0  0  0  0  0  0  0  0  0  0  0
  133.8290  136.2552  165.5589 H   0  0  0  0  0  0  0  0  0  0  0  0
  135.3345  136.0324  166.4849 H   0  0  0  0  0  0  0  0  0  0  0  0
  132.1843  136.2065  159.6436 H   0  0  0  0  0  0  0  0  0  0  0  0
  1  2  1  0
  1  3  1  0
  1  4  1  0
  1  5  1  0
  5  6  1  6
  5  7  1  0
  5 17  1  0
  7  8  2  0
  7  9  1  0
  9 10  1  0
  9 33  1  0
 10 16  1  0
 10 11  2  0
 11 12  1  0
 11 34  1  0
 12 13  2  0
 12 35  1  0
 13 14  1  0
 13 36  1  0
 14 15  1  0
 14 16  2  0
 15 37  1  0
 16 38  1  0
 17 32  1  0
 17 18  2  0
 18 19  1  0
 18 39  1  0
 19 20  2  0
 19 40  1  0
 20 21  1  0
 20 41  1  0
 21 22  1  0
 21 32  2  0
 22 23  1  0
 22 42  1  0
 23 24  1  0
 23 43  1  0
 23 44  1  0
 24 25  1  0
 24 45  1  0
 24 46  1  0
 25 31  1  0
 25 26  2  0
 26 27  1  0
 26 47  1  0
 27 28  1  0
 27 48  1  0
 27 49  1  0
 28 29  1  0
 28 50  1  0
 28 51  1  0
 29 30  1  0
 29 52  1  0
 29 53  1  0
 30 31  1  0
 30 54  1  0
 30 55  1  0
 31 56  1  0
 31 57  1  0
 32 58  1  0
M  CHG  1   1   1
M  END
>  <DOCK_score>  (1) 
-43.149815

>  <SMILES>  (1) 
[NH3+][C@@H](C(=O)Nc1cccc(O)c1)c1cccc(NCCC2=CCCCCC2)c1

$$$$
