CCc1ccc(-c2c[nH]c(N[C@H](C3=CCOCC3)C(c3ccccc3)c3ccccc3)[nH+]2)cc1
     RDKit          3D

 66 70  0  0  1  0  0  0  0  0999 V2000
  130.4066  128.8115  151.8614 C   0  0  0  0  0  0  0  0  0  0  0  0
  131.5688  129.7326  152.2370 C   0  0  0  0  0  0  0  0  0  0  0  0
  131.2583  130.4288  153.5370 C   0  0  0  0  0  0  0  0  0  0  0  0
  131.6334  129.8495  154.7353 C   0  0  0  0  0  0  0  0  0  0  0  0
  131.3567  130.4850  155.9288 C   0  0  0  0  0  0  0  0  0  0  0  0
  130.6878  131.7077  155.9253 C   0  0  0  0  0  0  0  0  0  0  0  0
  130.3828  132.3929  157.2050 C   0  0  0  0  0  0  0  0  0  0  0  0
  129.6302  131.8950  158.2173 C   0  0  0  0  0  0  0  0  0  0  0  0
  129.6056  132.8512  159.2033 N   0  0  0  0  0  0  0  0  0  0  0  0
  129.1462  132.7863  160.0551 H   0  0  0  0  0  0  0  0  0  0  0  0
  130.3446  133.9064  158.7643 C   0  0  0  0  0  0  0  0  0  0  0  0
  130.5702  135.0794  159.4640 N   0  0  0  0  0  0  0  0  0  0  0  0
  129.9904  135.2602  160.7972 C   0  0  2  0  0  0  0  0  0  0  0  0
  130.3607  134.4810  161.4632 H   0  0  0  0  0  0  0  0  0  0  0  0
  128.4885  135.1729  160.7077 C   0  0  0  0  0  0  0  0  0  0  0  0
  127.8747  134.2490  161.3855 C   0  0  0  0  0  0  0  0  0  0  0  0
  126.3826  134.0759  161.3618 C   0  0  0  0  0  0  0  0  0  0  0  0
  125.7602  135.2372  160.8086 O   0  0  0  0  0  0  0  0  0  0  0  0
  126.3398  135.6438  159.5626 C   0  0  0  0  0  0  0  0  0  0  0  0
  127.7578  136.1541  159.8333 C   0  0  0  0  0  0  0  0  0  0  0  0
  130.3897  136.6317  161.3452 C   0  0  0  0  0  0  0  0  0  0  0  0
  129.7931  136.8178  162.7167 C   0  0  0  0  0  0  0  0  0  0  0  0
  129.4670  138.0850  163.1623 C   0  0  0  0  0  0  0  0  0  0  0  0
  128.9154  138.2552  164.4184 C   0  0  0  0  0  0  0  0  0  0  0  0
  128.6992  137.1598  165.2325 C   0  0  0  0  0  0  0  0  0  0  0  0
  129.0307  135.8926  164.7890 C   0  0  0  0  0  0  0  0  0  0  0  0
  129.5774  135.7218  163.5309 C   0  0  0  0  0  0  0  0  0  0  0  0
  131.8915  136.7191  161.4347 C   0  0  0  0  0  0  0  0  0  0  0  0
  132.5387  136.3310  162.5928 C   0  0  0  0  0  0  0  0  0  0  0  0
  133.9167  136.4066  162.6730 C   0  0  0  0  0  0  0  0  0  0  0  0
  134.6466  136.8801  161.5990 C   0  0  0  0  0  0  0  0  0  0  0  0
  133.9990  137.2734  160.4427 C   0  0  0  0  0  0  0  0  0  0  0  0
  132.6214  137.1928  160.3605 C   0  0  0  0  0  0  0  0  0  0  0  0
  130.8121  133.6264  157.5724 N   0  0  0  0  0  0  0  0  0  0  0  0
  131.3734  134.2091  157.0372 H   0  0  0  0  0  0  0  0  0  0  0  0
  130.3071  132.2844  154.7149 C   0  0  0  0  0  0  0  0  0  0  0  0
  130.5941  131.6426  153.5274 C   0  0  0  0  0  0  0  0  0  0  0  0
  129.4966  129.4012  151.7496 H   0  0  0  0  0  0  0  0  0  0  0  0
  130.6311  128.3081  150.9211 H   0  0  0  0  0  0  0  0  0  0  0  0
  130.2639  128.0687  152.6461 H   0  0  0  0  0  0  0  0  0  0  0  0
  132.4785  129.1436  152.3484 H   0  0  0  0  0  0  0  0  0  0  0  0
  131.7113  130.4761  151.4518 H   0  0  0  0  0  0  0  0  0  0  0  0
  132.1474  128.8997  154.7370 H   0  0  0  0  0  0  0  0  0  0  0  0
  131.6544  130.0337  156.8636 H   0  0  0  0  0  0  0  0  0  0  0  0
  129.1431  130.9315  158.2431 H   0  0  0  0  0  0  0  0  0  0  0  0
  131.1124  135.7816  159.0716 H   0  0  0  0  0  0  0  0  0  0  0  0
  128.4627  133.5789  161.9950 H   0  0  0  0  0  0  0  0  0  0  0  0
  126.0184  133.9197  162.3771 H   0  0  0  0  0  0  0  0  0  0  0  0
  126.1347  133.2077  160.7513 H   0  0  0  0  0  0  0  0  0  0  0  0
  125.7407  136.4408  159.1218 H   0  0  0  0  0  0  0  0  0  0  0  0
  126.3790  134.7943  158.8808 H   0  0  0  0  0  0  0  0  0  0  0  0
  127.7063  137.1199  160.3358 H   0  0  0  0  0  0  0  0  0  0  0  0
  128.2900  136.2645  158.8883 H   0  0  0  0  0  0  0  0  0  0  0  0
  130.0194  137.4110  160.6792 H   0  0  0  0  0  0  0  0  0  0  0  0
  129.6396  138.9417  162.5278 H   0  0  0  0  0  0  0  0  0  0  0  0
  128.6570  139.2449  164.7651 H   0  0  0  0  0  0  0  0  0  0  0  0
  128.2727  137.2926  166.2158 H   0  0  0  0  0  0  0  0  0  0  0  0
  128.8624  135.0364  165.4254 H   0  0  0  0  0  0  0  0  0  0  0  0
  129.8363  134.7323  163.1844 H   0  0  0  0  0  0  0  0  0  0  0  0
  131.9680  135.9650  163.4335 H   0  0  0  0  0  0  0  0  0  0  0  0
  134.4226  136.0997  163.5766 H   0  0  0  0  0  0  0  0  0  0  0  0
  135.7229  136.9435  161.6632 H   0  0  0  0  0  0  0  0  0  0  0  0
  134.5692  137.6438  159.6036 H   0  0  0  0  0  0  0  0  0  0  0  0
  132.1155  137.5003  159.4572 H   0  0  0  0  0  0  0  0  0  0  0  0
  129.7883  133.2317  154.7064 H   0  0  0  0  0  0  0  0  0  0  0  0
  130.2992  132.0885  152.5888 H   0  0  0  0  0  0  0  0  0  0  0  0
  1  2  1  0
  1 38  1  0
  1 39  1  0
  1 40  1  0
  2  3  1  0
  2 41  1  0
  2 42  1  0
  3 37  2  0
  3  4  1  0
  4  5  2  0
  4 43  1  0
  5  6  1  0
  5 44  1  0
  6  7  1  0
  6 36  2  0
  7 34  1  0
  7  8  2  0
  8  9  1  0
  8 45  1  0
  9 10  1  0
  9 11  1  0
 11 12  1  0
 11 34  2  0
 12 13  1  0
 12 46  1  0
 13 14  1  1
 13 15  1  0
 13 21  1  0
 15 20  1  0
 15 16  2  0
 16 17  1  0
 16 47  1  0
 17 18  1  0
 17 48  1  0
 17 49  1  0
 18 19  1  0
 19 20  1  0
 19 50  1  0
 19 51  1  0
 20 52  1  0
 20 53  1  0
 21 22  1  0
 21 28  1  0
 21 54  1  0
 22 27  1  0
 22 23  2  0
 23 24  1  0
 23 55  1  0
 24 25  2  0
 24 56  1  0
 25 26  1  0
 25 57  1  0
 26 27  2  0
 26 58  1  0
 27 59  1  0
 28 33  1  0
 28 29  2  0
 29 30  1  0
 29 60  1  0
 30 31  2  0
 30 61  1  0
 31 32  1  0
 31 62  1  0
 32 33  2  0
 32 63  1  0
 33 64  1  0
 34 35  1  0
 36 37  1  0
 36 65  1  0
 37 66  1  0
M  CHG  1  34   1
M  END
>  <DOCK_score>  (1) 
-61.002926

>  <SMILES>  (1) 
CCc1ccc(-c2c[nH]c(N[C@H](C3=CCOCC3)C(c3ccccc3)c3ccccc3)[nH+]2)cc1

$$$$
