CC(C)Sc1ccccc1C[C@H](Nc1[nH]cc(-c2ccccc2)[nH+]1)C(=O)Nc1cccc(O)c1
     RDKit          3D

 63 66  0  0  1  0  0  0  0  0999 V2000
  134.5537  135.7882  165.5476 C   0  0  0  0  0  0  0  0  0  0  0  0
  134.7286  136.3313  164.1280 C   0  0  0  0  0  0  0  0  0  0  0  0
  134.9868  135.1700  163.1659 C   0  0  0  0  0  0  0  0  0  0  0  0
  133.2224  137.2087  163.6264 S   0  0  0  0  0  0  0  0  0  0  0  0
  133.6055  137.7533  161.9949 C   0  0  0  0  0  0  0  0  0  0  0  0
  134.9207  138.0374  161.6463 C   0  0  0  0  0  0  0  0  0  0  0  0
  135.2171  138.4642  160.3672 C   0  0  0  0  0  0  0  0  0  0  0  0
  134.2071  138.6097  159.4333 C   0  0  0  0  0  0  0  0  0  0  0  0
  132.8983  138.3225  159.7751 C   0  0  0  0  0  0  0  0  0  0  0  0
  132.5936  137.9002  161.0541 C   0  0  0  0  0  0  0  0  0  0  0  0
  131.1662  137.5929  161.4272 C   0  0  0  0  0  0  0  0  0  0  0  0
  130.8696  136.1198  161.1391 C   0  0  2  0  0  0  0  0  0  0  0  0
  131.5414  135.4926  161.7250 H   0  0  0  0  0  0  0  0  0  0  0  0
  131.0700  135.8510  159.7131 N   0  0  0  0  0  0  0  0  0  0  0  0
  130.8602  134.5774  159.2125 C   0  0  0  0  0  0  0  0  0  0  0  0
  130.4684  133.4950  159.9384 N   0  0  0  0  0  0  0  0  0  0  0  0
  130.2871  133.4772  160.8912 H   0  0  0  0  0  0  0  0  0  0  0  0
  130.3763  132.4324  159.0728 C   0  0  0  0  0  0  0  0  0  0  0  0
  130.7085  132.8969  157.8428 C   0  0  0  0  0  0  0  0  0  0  0  0
  130.7437  132.1033  156.5901 C   0  0  0  0  0  0  0  0  0  0  0  0
  130.4757  132.7149  155.3667 C   0  0  0  0  0  0  0  0  0  0  0  0
  130.5165  131.9730  154.2038 C   0  0  0  0  0  0  0  0  0  0  0  0
  130.8097  130.6217  154.2524 C   0  0  0  0  0  0  0  0  0  0  0  0
  131.0708  130.0085  155.4640 C   0  0  0  0  0  0  0  0  0  0  0  0
  131.0395  130.7419  156.6326 C   0  0  0  0  0  0  0  0  0  0  0  0
  131.0061  134.2153  157.9614 N   0  0  0  0  0  0  0  0  0  0  0  0
  131.2791  134.7978  157.2353 H   0  0  0  0  0  0  0  0  0  0  0  0
  129.4422  135.8125  161.5124 C   0  0  0  0  0  0  0  0  0  0  0  0
  128.6686  135.4086  160.6700 O   0  0  0  0  0  0  0  0  0  0  0  0
  129.0252  135.9866  162.7822 N   0  0  0  0  0  0  0  0  0  0  0  0
  127.6999  135.7015  163.1287 C   0  0  0  0  0  0  0  0  0  0  0  0
  127.0850  136.4000  164.1602 C   0  0  0  0  0  0  0  0  0  0  0  0
  125.7747  136.1228  164.4980 C   0  0  0  0  0  0  0  0  0  0  0  0
  125.0761  135.1419  163.8198 C   0  0  0  0  0  0  0  0  0  0  0  0
  125.6871  134.4370  162.7923 C   0  0  0  0  0  0  0  0  0  0  0  0
  124.9990  133.4729  162.1263 O   0  0  0  0  0  0  0  0  0  0  0  0
  127.0000  134.7167  162.4463 C   0  0  0  0  0  0  0  0  0  0  0  0
  133.7681  135.0326  165.5533 H   0  0  0  0  0  0  0  0  0  0  0  0
  135.4896  135.3419  165.8838 H   0  0  0  0  0  0  0  0  0  0  0  0
  134.2788  136.6033  166.2172 H   0  0  0  0  0  0  0  0  0  0  0  0
  135.5746  137.0183  164.1035 H   0  0  0  0  0  0  0  0  0  0  0  0
  135.1113  135.5569  162.1546 H   0  0  0  0  0  0  0  0  0  0  0  0
  135.8918  134.6427  163.4672 H   0  0  0  0  0  0  0  0  0  0  0  0
  134.1408  134.4830  163.1904 H   0  0  0  0  0  0  0  0  0  0  0  0
  135.7097  137.9246  162.3751 H   0  0  0  0  0  0  0  0  0  0  0  0
  136.2389  138.6850  160.0956 H   0  0  0  0  0  0  0  0  0  0  0  0
  134.4418  138.9444  158.4337 H   0  0  0  0  0  0  0  0  0  0  0  0
  132.1129  138.4330  159.0421 H   0  0  0  0  0  0  0  0  0  0  0  0
  130.4944  138.2201  160.8411 H   0  0  0  0  0  0  0  0  0  0  0  0
  131.0169  137.7929  162.4882 H   0  0  0  0  0  0  0  0  0  0  0  0
  131.3500  136.5654  159.1196 H   0  0  0  0  0  0  0  0  0  0  0  0
  130.0902  131.4215  159.3231 H   0  0  0  0  0  0  0  0  0  0  0  0
  130.2416  133.7686  155.3284 H   0  0  0  0  0  0  0  0  0  0  0  0
  130.3144  132.4471  153.2546 H   0  0  0  0  0  0  0  0  0  0  0  0
  130.8360  130.0447  153.3396 H   0  0  0  0  0  0  0  0  0  0  0  0
  131.2998  128.9535  155.4958 H   0  0  0  0  0  0  0  0  0  0  0  0
  131.2439  130.2620  157.5783 H   0  0  0  0  0  0  0  0  0  0  0  0
  129.6439  136.3096  163.4558 H   0  0  0  0  0  0  0  0  0  0  0  0
  127.6302  137.1636  164.6950 H   0  0  0  0  0  0  0  0  0  0  0  0
  125.2967  136.6702  165.2970 H   0  0  0  0  0  0  0  0  0  0  0  0
  124.0533  134.9240  164.0895 H   0  0  0  0  0  0  0  0  0  0  0  0
  125.5074  133.0378  161.4282 H   0  0  0  0  0  0  0  0  0  0  0  0
  127.4771  134.1695  161.6467 H   0  0  0  0  0  0  0  0  0  0  0  0
  1  2  1  0
  1 38  1  0
  1 39  1  0
  1 40  1  0
  2  3  1  0
  2  4  1  0
  2 41  1  0
  3 42  1  0
  3 43  1  0
  3 44  1  0
  4  5  1  0
  5 10  2  0
  5  6  1  0
  6  7  2  0
  6 45  1  0
  7  8  1  0
  7 46  1  0
  8  9  2  0
  8 47  1  0
  9 10  1  0
  9 48  1  0
 10 11  1  0
 11 12  1  0
 11 49  1  0
 11 50  1  0
 12 13  1  1
 12 14  1  0
 12 28  1  0
 14 51  1  0
 15 14  1  0
 15 26  2  0
 15 16  1  0
 16 17  1  0
 16 18  1  0
 18 19  2  0
 18 52  1  0
 19 20  1  0
 19 26  1  0
 20 25  1  0
 20 21  2  0
 21 22  1  0
 21 53  1  0
 22 23  2  0
 22 54  1  0
 23 24  1  0
 23 55  1  0
 24 25  2  0
 24 56  1  0
 25 57  1  0
 26 27  1  0
 28 29  2  0
 28 30  1  0
 30 31  1  0
 30 58  1  0
 31 37  1  0
 31 32  2  0
 32 33  1  0
 32 59  1  0
 33 34  2  0
 33 60  1  0
 34 35  1  0
 34 61  1  0
 35 36  1  0
 35 37  2  0
 36 62  1  0
 37 63  1  0
M  CHG  1  26   1
M  END
>  <DOCK_score>  (1) 
-58.241741

>  <SMILES>  (1) 
CC(C)Sc1ccccc1C[C@H](Nc1[nH]cc(-c2ccccc2)[nH+]1)C(=O)Nc1cccc(O)c1

$$$$
