O=Cc1ccc([C@@H](O)c2cccc(C(c3cccnc3)[NH+]3CC(O)C4(CCCC4)C3)c2)cc1
     RDKit          3D

 64 68  0  0  1  0  0  0  0  0999 V2000
  128.9309  141.3210  164.5778 O   0  0  0  0  0  0  0  0  0  0  0  0
  129.0081  140.2912  165.2135 C   0  0  0  0  0  0  0  0  0  0  0  0
  128.3303  139.0768  164.7325 C   0  0  0  0  0  0  0  0  0  0  0  0
  128.4220  137.8859  165.4599 C   0  0  0  0  0  0  0  0  0  0  0  0
  127.7794  136.7535  165.0057 C   0  0  0  0  0  0  0  0  0  0  0  0
  127.0550  136.7906  163.8269 C   0  0  0  0  0  0  0  0  0  0  0  0
  126.3611  135.5468  163.3344 C   0  0  1  0  0  0  0  0  0  0  0  0
  126.5425  134.7291  164.0320 H   0  0  0  0  0  0  0  0  0  0  0  0
  124.9560  135.7904  163.2410 O   0  0  0  0  0  0  0  0  0  0  0  0
  126.8981  135.1764  161.9758 C   0  0  0  0  0  0  0  0  0  0  0  0
  126.0466  135.1191  160.8881 C   0  0  0  0  0  0  0  0  0  0  0  0
  126.5397  134.7833  159.6413 C   0  0  0  0  0  0  0  0  0  0  0  0
  127.8830  134.4962  159.4838 C   0  0  0  0  0  0  0  0  0  0  0  0
  128.7333  134.5488  160.5721 C   0  0  0  0  0  0  0  0  0  0  0  0
  130.1974  134.2355  160.4003 C   0  0  1  0  0  0  0  0  0  0  0  0
  130.3706  133.2442  159.2785 C   0  0  0  0  0  0  0  0  0  0  0  0
  130.5525  133.6831  157.9756 C   0  0  0  0  0  0  0  0  0  0  0  0
  130.7122  132.7354  156.9765 C   0  0  0  0  0  0  0  0  0  0  0  0
  130.6752  131.3940  157.3083 C   0  0  0  0  0  0  0  0  0  0  0  0
  130.4952  131.0131  158.5577 N   0  0  0  0  0  0  0  0  0  0  0  0
  130.3444  131.8866  159.5342 C   0  0  0  0  0  0  0  0  0  0  0  0
  130.9279  135.4692  160.0807 N   0  0  2  0  0  0  0  0  0  0  0  0
  130.5769  135.8756  159.2264 H   0  0  0  0  0  0  0  0  0  0  0  0
  132.3843  135.1951  159.9652 C   0  0  0  0  0  0  0  0  0  0  0  0
  133.0596  136.5643  160.2079 C   0  0  2  0  0  0  0  0  0  0  0  0
  134.2673  136.3984  160.9535 O   0  0  0  0  0  0  0  0  0  0  0  0
  132.0340  137.3675  161.0191 C   0  0  0  0  0  0  0  0  0  0  0  0
  131.6303  138.6466  160.2734 C   0  0  0  0  0  0  0  0  0  0  0  0
  131.4260  139.6898  161.4025 C   0  0  0  0  0  0  0  0  0  0  0  0
  132.5469  139.3311  162.4104 C   0  0  0  0  0  0  0  0  0  0  0  0
  132.6114  137.7880  162.3729 C   0  0  0  0  0  0  0  0  0  0  0  0
  130.8209  136.4416  161.2012 C   0  0  0  0  0  0  0  0  0  0  0  0
  128.2407  134.8886  161.8184 C   0  0  0  0  0  0  0  0  0  0  0  0
  126.9643  137.9638  163.0983 C   0  0  0  0  0  0  0  0  0  0  0  0
  127.5961  139.1060  163.5425 C   0  0  0  0  0  0  0  0  0  0  0  0
  129.5706  140.2666  166.1351 H   0  0  0  0  0  0  0  0  0  0  0  0
  128.9906  137.8543  166.3777 H   0  0  0  0  0  0  0  0  0  0  0  0
  127.8452  135.8344  165.5688 H   0  0  0  0  0  0  0  0  0  0  0  0
  124.7206  136.5071  162.6360 H   0  0  0  0  0  0  0  0  0  0  0  0
  124.9966  135.3397  161.0119 H   0  0  0  0  0  0  0  0  0  0  0  0
  125.8753  134.7418  158.7910 H   0  0  0  0  0  0  0  0  0  0  0  0
  128.2677  134.2305  158.5102 H   0  0  0  0  0  0  0  0  0  0  0  0
  130.5889  133.8103  161.3245 H   0  0  0  0  0  0  0  0  0  0  0  0
  130.5732  134.7380  157.7454 H   0  0  0  0  0  0  0  0  0  0  0  0
  130.8596  133.0413  155.9512 H   0  0  0  0  0  0  0  0  0  0  0  0
  130.7953  130.6495  156.5352 H   0  0  0  0  0  0  0  0  0  0  0  0
  130.1991  131.5367  160.5455 H   0  0  0  0  0  0  0  0  0  0  0  0
  132.6972  134.4772  160.7234 H   0  0  0  0  0  0  0  0  0  0  0  0
  132.6234  134.8248  158.9683 H   0  0  0  0  0  0  0  0  0  0  0  0
  133.2650  137.0597  159.2590 H   0  0  0  0  0  0  0  0  0  0  0  0
  134.9333  135.8568  160.5080 H   0  0  0  0  0  0  0  0  0  0  0  0
  132.4261  138.9636  159.5996 H   0  0  0  0  0  0  0  0  0  0  0  0
  130.7019  138.4916  159.7237 H   0  0  0  0  0  0  0  0  0  0  0  0
  130.4437  139.5752  161.8608 H   0  0  0  0  0  0  0  0  0  0  0  0
  131.5574  140.7034  161.0236 H   0  0  0  0  0  0  0  0  0  0  0  0
  132.2859  139.6777  163.4103 H   0  0  0  0  0  0  0  0  0  0  0  0
  133.4978  139.7604  162.0952 H   0  0  0  0  0  0  0  0  0  0  0  0
  132.0135  137.3682  163.1817 H   0  0  0  0  0  0  0  0  0  0  0  0
  133.6452  137.4533  162.4593 H   0  0  0  0  0  0  0  0  0  0  0  0
  129.8925  137.0081  161.1264 H   0  0  0  0  0  0  0  0  0  0  0  0
  130.8773  135.9258  162.1598 H   0  0  0  0  0  0  0  0  0  0  0  0
  128.9051  134.9294  162.6689 H   0  0  0  0  0  0  0  0  0  0  0  0
  126.3969  137.9846  162.1796 H   0  0  0  0  0  0  0  0  0  0  0  0
  127.5238  140.0210  162.9734 H   0  0  0  0  0  0  0  0  0  0  0  0
  1  2  2  0
  2  3  1  0
  2 36  1  0
  3 35  2  0
  3  4  1  0
  4  5  2  0
  4 37  1  0
  5  6  1  0
  5 38  1  0
  6  7  1  0
  6 34  2  0
  7  8  1  1
  7  9  1  0
  7 10  1  0
  9 39  1  0
 10 33  1  0
 10 11  2  0
 11 12  1  0
 11 40  1  0
 12 13  2  0
 12 41  1  0
 13 14  1  0
 13 42  1  0
 14 15  1  0
 14 33  2  0
 15 16  1  0
 15 22  1  0
 15 43  1  1
 16 21  1  0
 16 17  2  0
 17 18  1  0
 17 44  1  0
 18 19  2  0
 18 45  1  0
 19 20  1  0
 19 46  1  0
 20 21  2  0
 21 47  1  0
 22 23  1  6
 22 32  1  0
 22 24  1  0
 24 25  1  0
 24 48  1  0
 24 49  1  0
 25 26  1  0
 25 27  1  0
 25 50  1  6
 26 51  1  0
 27 31  1  0
 27 28  1  0
 27 32  1  0
 28 29  1  0
 28 52  1  0
 28 53  1  0
 29 30  1  0
 29 54  1  0
 29 55  1  0
 30 31  1  0
 30 56  1  0
 30 57  1  0
 31 58  1  0
 31 59  1  0
 32 60  1  0
 32 61  1  0
 33 62  1  0
 34 35  1  0
 34 63  1  0
 35 64  1  0
M  CHG  1  22   1
M  END
>  <DOCK_score>  (1) 
-45.579109

>  <SMILES>  (1) 
O=Cc1ccc([C@@H](O)c2cccc(C(c3cccnc3)[NH+]3CC(O)C4(CCCC4)C3)c2)cc1

$$$$
