CCc1ccc(-c2c[nH]c(Nc3c[nH]c(Nc4ccc(Nc5[nH]cc(C)[nH+]5)cc4)n3)n2)cc1
     RDKit          3D

 59 63  0  0  1  0  0  0  0  0999 V2000
  138.9462  135.9803  164.9611 C   0  0  0  0  0  0  0  0  0  0  0  0
  138.2813  137.0368  165.8446 C   0  0  0  0  0  0  0  0  0  0  0  0
  136.7999  137.0622  165.5692 C   0  0  0  0  0  0  0  0  0  0  0  0
  135.9494  136.2510  166.2984 C   0  0  0  0  0  0  0  0  0  0  0  0
  134.5913  136.2744  166.0543 C   0  0  0  0  0  0  0  0  0  0  0  0
  134.0783  137.1095  165.0632 C   0  0  0  0  0  0  0  0  0  0  0  0
  132.6202  137.1345  164.7921 C   0  0  0  0  0  0  0  0  0  0  0  0
  132.0228  136.8345  163.6121 C   0  0  0  0  0  0  0  0  0  0  0  0
  130.6703  136.9819  163.8012 N   0  0  0  0  0  0  0  0  0  0  0  0
  129.9781  136.8355  163.1376 H   0  0  0  0  0  0  0  0  0  0  0  0
  130.4812  137.3774  165.0901 C   0  0  0  0  0  0  0  0  0  0  0  0
  129.2574  137.6408  165.6816 N   0  0  0  0  0  0  0  0  0  0  0  0
  128.0741  137.5058  164.9374 C   0  0  0  0  0  0  0  0  0  0  0  0
  126.8237  137.7361  165.3905 C   0  0  0  0  0  0  0  0  0  0  0  0
  125.9648  137.4839  164.3380 N   0  0  0  0  0  0  0  0  0  0  0  0
  124.9978  137.5603  164.3513 H   0  0  0  0  0  0  0  0  0  0  0  0
  126.7318  137.1079  163.2800 C   0  0  0  0  0  0  0  0  0  0  0  0
  126.2624  136.7653  162.0220 N   0  0  0  0  0  0  0  0  0  0  0  0
  127.1636  136.4006  161.0145 C   0  0  0  0  0  0  0  0  0  0  0  0
  126.7779  135.4991  160.0307 C   0  0  0  0  0  0  0  0  0  0  0  0
  127.6645  135.1442  159.0338 C   0  0  0  0  0  0  0  0  0  0  0  0
  128.9459  135.6798  159.0210 C   0  0  0  0  0  0  0  0  0  0  0  0
  129.8470  135.3154  158.0133 N   0  0  0  0  0  0  0  0  0  0  0  0
  129.7659  134.0602  157.4321 C   0  0  0  0  0  0  0  0  0  0  0  0
  129.3282  132.9267  158.0442 N   0  0  0  0  0  0  0  0  0  0  0  0
  129.0179  132.8485  158.9599 H   0  0  0  0  0  0  0  0  0  0  0  0
  129.4069  131.9125  157.1172 C   0  0  0  0  0  0  0  0  0  0  0  0
  129.8918  132.4525  155.9859 C   0  0  0  0  0  0  0  0  0  0  0  0
  130.1532  131.7153  154.6978 C   0  0  0  0  0  0  0  0  0  0  0  0
  130.1035  133.7618  156.1997 N   0  0  0  0  0  0  0  0  0  0  0  0
  130.4513  134.3882  155.5459 H   0  0  0  0  0  0  0  0  0  0  0  0
  129.3334  136.5772  160.0076 C   0  0  0  0  0  0  0  0  0  0  0  0
  128.4448  136.9366  161.0014 C   0  0  0  0  0  0  0  0  0  0  0  0
  127.9918  137.1300  163.6479 N   0  0  0  0  0  0  0  0  0  0  0  0
  131.6492  137.4672  165.6787 N   0  0  0  0  0  0  0  0  0  0  0  0
  134.9406  137.9212  164.3282 C   0  0  0  0  0  0  0  0  0  0  0  0
  136.2963  137.8939  164.5851 C   0  0  0  0  0  0  0  0  0  0  0  0
  140.0176  135.9618  165.1603 H   0  0  0  0  0  0  0  0  0  0  0  0
  138.7757  136.2242  163.9125 H   0  0  0  0  0  0  0  0  0  0  0  0
  138.5188  135.0020  165.1806 H   0  0  0  0  0  0  0  0  0  0  0  0
  138.4516  136.7935  166.8937 H   0  0  0  0  0  0  0  0  0  0  0  0
  138.7086  138.0157  165.6255 H   0  0  0  0  0  0  0  0  0  0  0  0
  136.3485  135.6006  167.0625 H   0  0  0  0  0  0  0  0  0  0  0  0
  133.9277  135.6436  166.6271 H   0  0  0  0  0  0  0  0  0  0  0  0
  132.5158  136.5345  162.6992 H   0  0  0  0  0  0  0  0  0  0  0  0
  129.2173  137.9185  166.6102 H   0  0  0  0  0  0  0  0  0  0  0  0
  126.5476  138.0561  166.3845 H   0  0  0  0  0  0  0  0  0  0  0  0
  125.3100  136.7766  161.8403 H   0  0  0  0  0  0  0  0  0  0  0  0
  125.7830  135.0791  160.0432 H   0  0  0  0  0  0  0  0  0  0  0  0
  127.3631  134.4468  158.2662 H   0  0  0  0  0  0  0  0  0  0  0  0
  130.5280  135.9416  157.7219 H   0  0  0  0  0  0  0  0  0  0  0  0
  129.1346  130.8787  157.2706 H   0  0  0  0  0  0  0  0  0  0  0  0
  131.1734  131.3317  154.6993 H   0  0  0  0  0  0  0  0  0  0  0  0
  129.4531  130.8850  154.6058 H   0  0  0  0  0  0  0  0  0  0  0  0
  130.0221  132.3959  153.8565 H   0  0  0  0  0  0  0  0  0  0  0  0
  130.3297  136.9938  159.9978 H   0  0  0  0  0  0  0  0  0  0  0  0
  128.7460  137.6348  161.7684 H   0  0  0  0  0  0  0  0  0  0  0  0
  134.5486  138.5704  163.5594 H   0  0  0  0  0  0  0  0  0  0  0  0
  136.9655  138.5226  164.0163 H   0  0  0  0  0  0  0  0  0  0  0  0
  1  2  1  0
  1 38  1  0
  1 39  1  0
  1 40  1  0
  2  3  1  0
  2 41  1  0
  2 42  1  0
  3 37  2  0
  3  4  1  0
  4  5  2  0
  4 43  1  0
  5  6  1  0
  5 44  1  0
  6  7  1  0
  6 36  2  0
  7 35  1  0
  7  8  2  0
  8  9  1  0
  8 45  1  0
  9 10  1  0
  9 11  1  0
 11 12  1  0
 11 35  2  0
 12 13  1  0
 12 46  1  0
 13 34  1  0
 13 14  2  0
 14 15  1  0
 14 47  1  0
 15 16  1  0
 15 17  1  0
 17 18  1  0
 17 34  2  0
 18 19  1  0
 18 48  1  0
 19 33  1  0
 19 20  2  0
 20 21  1  0
 20 49  1  0
 21 22  2  0
 21 50  1  0
 22 23  1  0
 22 32  1  0
 23 51  1  0
 24 23  1  0
 24 30  2  0
 24 25  1  0
 25 26  1  0
 25 27  1  0
 27 28  2  0
 27 52  1  0
 28 29  1  0
 28 30  1  0
 29 53  1  0
 29 54  1  0
 29 55  1  0
 30 31  1  0
 32 33  2  0
 32 56  1  0
 33 57  1  0
 36 37  1  0
 36 58  1  0
 37 59  1  0
M  CHG  1  30   1
M  END
>  <DOCK_score>  (1) 
-51.32999

>  <SMILES>  (1) 
CCc1ccc(-c2c[nH]c(Nc3c[nH]c(Nc4ccc(Nc5[nH]cc(C)[nH+]5)cc4)n3)n2)cc1

$$$$
