Cc1ccc2c(c1)[C@@H]([NH+]=C(NC1C=CCCC1)NC1COc3cc(Cl)ccc3C1)CO2
     RDKit          3D

 60 64  0  0  1  0  0  0  0  0999 V2000
  130.3869  131.0054  153.3843 C   0  0  0  0  0  0  0  0  0  0  0  0
  130.7829  131.0217  154.8381 C   0  0  0  0  0  0  0  0  0  0  0  0
  131.2975  129.8826  155.4299 C   0  0  0  0  0  0  0  0  0  0  0  0
  131.6581  129.8909  156.7612 C   0  0  0  0  0  0  0  0  0  0  0  0
  131.5064  131.0479  157.5218 C   0  0  0  0  0  0  0  0  0  0  0  0
  130.9964  132.1878  156.9141 C   0  0  0  0  0  0  0  0  0  0  0  0
  130.6335  132.1763  155.5856 C   0  0  0  0  0  0  0  0  0  0  0  0
  130.9718  133.2791  157.9668 C   0  0  1  0  0  0  0  0  0  0  0  0
  131.3828  134.2089  157.5738 H   0  0  0  0  0  0  0  0  0  0  0  0
  129.6136  133.4843  158.4765 N   0  0  0  0  0  0  0  0  0  0  0  0
  128.8806  132.9500  158.1326 H   0  0  0  0  0  0  0  0  0  0  0  0
  129.3900  134.3849  159.3918 C   0  0  0  0  0  0  0  0  0  0  0  0
  128.3681  134.2088  160.2944 N   0  0  0  0  0  0  0  0  0  0  0  0
  127.1715  133.4570  159.9085 C   0  0  2  0  0  0  0  0  0  0  0  0
  125.9850  133.9932  160.6546 C   0  0  0  0  0  0  0  0  0  0  0  0
  125.0719  133.2514  161.1946 C   0  0  0  0  0  0  0  0  0  0  0  0
  125.0776  131.7512  161.1587 C   0  0  0  0  0  0  0  0  0  0  0  0
  126.0321  131.2536  160.0711 C   0  0  0  0  0  0  0  0  0  0  0  0
  127.3751  131.9763  160.2364 C   0  0  0  0  0  0  0  0  0  0  0  0
  130.1763  135.5110  159.4547 N   0  0  0  0  0  0  0  0  0  0  0  0
  129.9252  136.5233  160.4835 C   0  0  2  0  0  0  0  0  0  0  0  0
  128.5133  137.0974  160.3100 C   0  0  0  0  0  0  0  0  0  0  0  0
  128.2601  138.0025  161.3857 O   0  0  0  0  0  0  0  0  0  0  0  0
  129.2014  138.9435  161.6581 C   0  0  0  0  0  0  0  0  0  0  0  0
  128.8385  140.0393  162.4347 C   0  0  0  0  0  0  0  0  0  0  0  0
  129.7681  141.0143  162.7376 C   0  0  0  0  0  0  0  0  0  0  0  0
  129.3106  142.3799  163.7069 Cl  0  0  0  0  0  0  0  0  0  0  0  0
  131.0650  140.9021  162.2673 C   0  0  0  0  0  0  0  0  0  0  0  0
  131.4269  139.8164  161.4945 C   0  0  0  0  0  0  0  0  0  0  0  0
  130.4981  138.8359  161.1869 C   0  0  0  0  0  0  0  0  0  0  0  0
  130.9311  137.6677  160.3376 C   0  0  0  0  0  0  0  0  0  0  0  0
  131.8906  132.6878  159.0621 C   0  0  0  0  0  0  0  0  0  0  0  0
  131.7856  131.2721  158.8352 O   0  0  0  0  0  0  0  0  0  0  0  0
  129.3418  130.7086  153.2957 H   0  0  0  0  0  0  0  0  0  0  0  0
  130.5189  132.0009  152.9606 H   0  0  0  0  0  0  0  0  0  0  0  0
  131.0134  130.2950  152.8450 H   0  0  0  0  0  0  0  0  0  0  0  0
  131.4173  128.9816  154.8465 H   0  0  0  0  0  0  0  0  0  0  0  0
  132.0593  128.9971  157.2155 H   0  0  0  0  0  0  0  0  0  0  0  0
  130.2319  133.0680  155.1275 H   0  0  0  0  0  0  0  0  0  0  0  0
  128.4394  134.5824  161.1867 H   0  0  0  0  0  0  0  0  0  0  0  0
  127.0035  133.5700  158.8374 H   0  0  0  0  0  0  0  0  0  0  0  0
  125.8869  135.0648  160.7471 H   0  0  0  0  0  0  0  0  0  0  0  0
  124.2551  133.7428  161.7022 H   0  0  0  0  0  0  0  0  0  0  0  0
  124.0706  131.3910  160.9481 H   0  0  0  0  0  0  0  0  0  0  0  0
  125.4026  131.3698  162.1267 H   0  0  0  0  0  0  0  0  0  0  0  0
  125.6154  131.4751  159.0885 H   0  0  0  0  0  0  0  0  0  0  0  0
  126.1797  130.1784  160.1726 H   0  0  0  0  0  0  0  0  0  0  0  0
  128.1084  131.5472  159.5538 H   0  0  0  0  0  0  0  0  0  0  0  0
  127.7261  131.8732  161.2632 H   0  0  0  0  0  0  0  0  0  0  0  0
  130.8974  135.6353  158.8178 H   0  0  0  0  0  0  0  0  0  0  0  0
  130.0207  136.0739  161.4719 H   0  0  0  0  0  0  0  0  0  0  0  0
  128.4469  137.6285  159.3604 H   0  0  0  0  0  0  0  0  0  0  0  0
  127.7828  136.2889  160.3310 H   0  0  0  0  0  0  0  0  0  0  0  0
  127.8268  140.1274  162.8020 H   0  0  0  0  0  0  0  0  0  0  0  0
  131.7934  141.6631  162.5045 H   0  0  0  0  0  0  0  0  0  0  0  0
  132.4393  139.7312  161.1284 H   0  0  0  0  0  0  0  0  0  0  0  0
  131.9151  137.3291  160.6614 H   0  0  0  0  0  0  0  0  0  0  0  0
  130.9799  137.9768  159.2936 H   0  0  0  0  0  0  0  0  0  0  0  0
  131.5243  132.9480  160.0552 H   0  0  0  0  0  0  0  0  0  0  0  0
  132.9182  133.0254  158.9277 H   0  0  0  0  0  0  0  0  0  0  0  0
  1  2  1  0
  1 34  1  0
  1 35  1  0
  1 36  1  0
  2  7  2  0
  2  3  1  0
  3  4  2  0
  3 37  1  0
  4  5  1  0
  4 38  1  0
  5 33  1  0
  5  6  2  0
  6  7  1  0
  6  8  1  0
  7 39  1  0
  8  9  1  6
  8 10  1  0
  8 32  1  0
 10 11  1  0
 12 10  2  0
 12 13  1  0
 12 20  1  0
 13 14  1  0
 13 40  1  0
 14 19  1  0
 14 15  1  0
 14 41  1  6
 15 16  2  0
 15 42  1  0
 16 17  1  0
 16 43  1  0
 17 18  1  0
 17 44  1  0
 17 45  1  0
 18 19  1  0
 18 46  1  0
 18 47  1  0
 19 48  1  0
 19 49  1  0
 20 21  1  0
 20 50  1  0
 21 31  1  0
 21 22  1  0
 21 51  1  1
 22 23  1  0
 22 52  1  0
 22 53  1  0
 23 24  1  0
 24 30  2  0
 24 25  1  0
 25 26  2  0
 25 54  1  0
 26 27  1  0
 26 28  1  0
 28 29  2  0
 28 55  1  0
 29 30  1  0
 29 56  1  0
 30 31  1  0
 31 57  1  0
 31 58  1  0
 32 33  1  0
 32 59  1  0
 32 60  1  0
M  CHG  1  10   1
M  END
>  <DOCK_score>  (1) 
-56.85606

>  <SMILES>  (1) 
Cc1ccc2c(c1)[C@@H]([NH+]=C(NC1C=CCCC1)NC1COc3cc(Cl)ccc3C1)CO2

$$$$
