O=C1CC[C@H](NC(NC2CC2)=[NH+]C2C=CCC2)CN1
     RDKit          3D

 42 44  0  0  1  0  0  0  0  0999 V2000
  123.6694  133.5989  161.6823 O   0  0  0  0  0  0  0  0  0  0  0  0
  124.8027  133.9345  161.4106 C   0  0  0  0  0  0  0  0  0  0  0  0
  125.7730  132.8741  160.9755 C   0  0  0  0  0  0  0  0  0  0  0  0
  127.2065  133.3956  161.1037 C   0  0  0  0  0  0  0  0  0  0  0  0
  127.2810  134.7760  160.4403 C   0  0  2  0  0  0  0  0  0  0  0  0
  126.8815  134.7175  159.4279 H   0  0  0  0  0  0  0  0  0  0  0  0
  128.6751  135.2241  160.3932 N   0  0  0  0  0  0  0  0  0  0  0  0
  129.4598  134.9161  159.3072 C   0  0  0  0  0  0  0  0  0  0  0  0
  128.9364  134.1875  158.2655 N   0  0  0  0  0  0  0  0  0  0  0  0
  129.7727  133.8591  157.1082 C   0  0  0  0  0  0  0  0  0  0  0  0
  129.8288  132.3943  156.6702 C   0  0  0  0  0  0  0  0  0  0  0  0
  131.0354  133.0331  157.3608 C   0  0  0  0  0  0  0  0  0  0  0  0
  130.7001  135.3147  159.2654 N   0  0  0  0  0  0  0  0  0  0  0  0
  131.1208  135.5020  158.4117 H   0  0  0  0  0  0  0  0  0  0  0  0
  131.4568  135.4859  160.5082 C   0  0  1  0  0  0  0  0  0  0  0  0
  132.9377  135.3375  160.2474 C   0  0  0  0  0  0  0  0  0  0  0  0
  133.5273  136.5015  160.2094 C   0  0  0  0  0  0  0  0  0  0  0  0
  132.5376  137.6202  160.4386 C   0  0  0  0  0  0  0  0  0  0  0  0
  131.2945  136.9276  161.0434 C   0  0  0  0  0  0  0  0  0  0  0  0
  126.4522  135.7637  161.2626 C   0  0  0  0  0  0  0  0  0  0  0  0
  125.1207  135.2254  161.5146 N   0  0  0  0  0  0  0  0  0  0  0  0
  125.5763  132.6072  159.9371 H   0  0  0  0  0  0  0  0  0  0  0  0
  125.6512  131.9920  161.6040 H   0  0  0  0  0  0  0  0  0  0  0  0
  127.8921  132.7110  160.6042 H   0  0  0  0  0  0  0  0  0  0  0  0
  127.4735  133.4797  162.1570 H   0  0  0  0  0  0  0  0  0  0  0  0
  129.0444  135.7381  161.1283 H   0  0  0  0  0  0  0  0  0  0  0  0
  128.0134  133.8907  158.2968 H   0  0  0  0  0  0  0  0  0  0  0  0
  129.8164  134.6199  156.3289 H   0  0  0  0  0  0  0  0  0  0  0  0
  129.2437  131.6749  157.2430 H   0  0  0  0  0  0  0  0  0  0  0  0
  129.9095  132.1911  155.6023 H   0  0  0  0  0  0  0  0  0  0  0  0
  131.9099  133.2501  156.7472 H   0  0  0  0  0  0  0  0  0  0  0  0
  131.2441  132.7339  158.3880 H   0  0  0  0  0  0  0  0  0  0  0  0
  131.1283  134.7627  161.2546 H   0  0  0  0  0  0  0  0  0  0  0  0
  133.4423  134.3924  160.1108 H   0  0  0  0  0  0  0  0  0  0  0  0
  134.5835  136.6459  160.0373 H   0  0  0  0  0  0  0  0  0  0  0  0
  132.9444  138.3494  161.1391 H   0  0  0  0  0  0  0  0  0  0  0  0
  132.2842  138.1023  159.4943 H   0  0  0  0  0  0  0  0  0  0  0  0
  130.3750  137.3812  160.6732 H   0  0  0  0  0  0  0  0  0  0  0  0
  131.3271  136.9466  162.1326 H   0  0  0  0  0  0  0  0  0  0  0  0
  126.9504  135.9470  162.2146 H   0  0  0  0  0  0  0  0  0  0  0  0
  126.3667  136.7037  160.7175 H   0  0  0  0  0  0  0  0  0  0  0  0
  124.4214  135.8465  161.7717 H   0  0  0  0  0  0  0  0  0  0  0  0
  1  2  2  0
  2 21  1  0
  2  3  1  0
  3  4  1  0
  3 22  1  0
  3 23  1  0
  4  5  1  0
  4 24  1  0
  4 25  1  0
  5  6  1  6
  5  7  1  0
  5 20  1  0
  7 26  1  0
  8  7  1  0
  8  9  1  0
  8 13  2  0
  9 10  1  0
  9 27  1  0
 10 12  1  0
 10 11  1  0
 10 28  1  0
 11 12  1  0
 11 29  1  0
 11 30  1  0
 12 31  1  0
 12 32  1  0
 13 14  1  0
 13 15  1  0
 15 19  1  0
 15 16  1  0
 15 33  1  1
 16 17  2  0
 16 34  1  0
 17 18  1  0
 17 35  1  0
 18 19  1  0
 18 36  1  0
 18 37  1  0
 19 38  1  0
 19 39  1  0
 20 21  1  0
 20 40  1  0
 20 41  1  0
 21 42  1  0
M  CHG  1  13   1
M  END
>  <DOCK_score>  (1) 
-41.13345

>  <SMILES>  (1) 
O=C1CC[C@H](NC(NC2CC2)=[NH+]C2C=CCC2)CN1

$$$$
