C[C@H](OCC1=CC[NH+](C(CO)Cc2ccccc2)CC1)c1nnc(-c2cccc(F)c2)s1
     RDKit          3D

 61 64  0  0  1  0  0  0  0  0999 V2000
  127.5003  131.7685  160.0498 C   0  0  0  0  0  0  0  0  0  0  0  0
  129.0254  131.6777  160.1326 C   0  0  2  0  0  0  0  0  0  0  0  0
  129.3052  130.9588  160.9025 H   0  0  0  0  0  0  0  0  0  0  0  0
  129.5617  132.9607  160.4615 O   0  0  0  0  0  0  0  0  0  0  0  0
  130.8846  132.9171  161.0002 C   0  0  0  0  0  0  0  0  0  0  0  0
  131.5317  134.2701  160.8536 C   0  0  0  0  0  0  0  0  0  0  0  0
  132.6237  134.3674  160.1566 C   0  0  0  0  0  0  0  0  0  0  0  0
  133.3547  135.6625  159.9518 C   0  0  0  0  0  0  0  0  0  0  0  0
  132.4758  136.7996  160.2489 N   0  0  2  0  0  0  0  0  0  0  0  0
  131.7413  136.8484  159.5589 H   0  0  0  0  0  0  0  0  0  0  0  0
  133.2563  138.0439  160.2251 C   0  0  1  0  0  0  0  0  0  0  0  0
  132.3135  139.2337  160.0348 C   0  0  0  0  0  0  0  0  0  0  0  0
  131.2986  138.8910  159.0891 O   0  0  0  0  0  0  0  0  0  0  0  0
  134.0113  138.1978  161.5470 C   0  0  0  0  0  0  0  0  0  0  0  0
  134.8119  139.4743  161.5225 C   0  0  0  0  0  0  0  0  0  0  0  0
  135.0564  140.1594  162.6980 C   0  0  0  0  0  0  0  0  0  0  0  0
  135.7949  141.3278  162.6763 C   0  0  0  0  0  0  0  0  0  0  0  0
  136.2798  141.8166  161.4776 C   0  0  0  0  0  0  0  0  0  0  0  0
  136.0309  141.1343  160.3013 C   0  0  0  0  0  0  0  0  0  0  0  0
  135.2968  139.9632  160.3238 C   0  0  0  0  0  0  0  0  0  0  0  0
  131.8879  136.6123  161.5851 C   0  0  0  0  0  0  0  0  0  0  0  0
  130.8880  135.4548  161.5193 C   0  0  0  0  0  0  0  0  0  0  0  0
  129.5748  131.2294  158.8029 C   0  0  0  0  0  0  0  0  0  0  0  0
  130.2714  130.1582  158.5995 N   0  0  0  0  0  0  0  0  0  0  0  0
  130.6562  129.9187  157.4211 N   0  0  0  0  0  0  0  0  0  0  0  0
  130.3168  130.7945  156.5135 C   0  0  0  0  0  0  0  0  0  0  0  0
  130.6534  130.7370  155.0744 C   0  0  0  0  0  0  0  0  0  0  0  0
  130.2277  131.7504  154.2144 C   0  0  0  0  0  0  0  0  0  0  0  0
  130.5441  131.6923  152.8730 C   0  0  0  0  0  0  0  0  0  0  0  0
  131.2826  130.6323  152.3782 C   0  0  0  0  0  0  0  0  0  0  0  0
  131.7087  129.6225  153.2256 C   0  0  0  0  0  0  0  0  0  0  0  0
  132.4300  128.5903  152.7360 F   0  0  0  0  0  0  0  0  0  0  0  0
  131.4023  129.6728  154.5725 C   0  0  0  0  0  0  0  0  0  0  0  0
  129.3846  132.0587  157.3164 S   0  0  0  0  0  0  0  0  0  0  0  0
  127.0912  130.7898  159.7990 H   0  0  0  0  0  0  0  0  0  0  0  0
  127.1029  132.0929  161.0116 H   0  0  0  0  0  0  0  0  0  0  0  0
  127.2204  132.4875  159.2798 H   0  0  0  0  0  0  0  0  0  0  0  0
  131.4718  132.1731  160.4617 H   0  0  0  0  0  0  0  0  0  0  0  0
  130.8383  132.6488  162.0556 H   0  0  0  0  0  0  0  0  0  0  0  0
  133.0253  133.4733  159.7033 H   0  0  0  0  0  0  0  0  0  0  0  0
  133.6901  135.7271  158.9165 H   0  0  0  0  0  0  0  0  0  0  0  0
  134.2220  135.6952  160.6112 H   0  0  0  0  0  0  0  0  0  0  0  0
  133.9692  138.0099  159.4014 H   0  0  0  0  0  0  0  0  0  0  0  0
  132.8788  140.0899  159.6669 H   0  0  0  0  0  0  0  0  0  0  0  0
  131.8507  139.4868  160.9887 H   0  0  0  0  0  0  0  0  0  0  0  0
  131.6387  138.6541  158.2155 H   0  0  0  0  0  0  0  0  0  0  0  0
  133.2983  138.2316  162.3707 H   0  0  0  0  0  0  0  0  0  0  0  0
  134.6831  137.3502  161.6825 H   0  0  0  0  0  0  0  0  0  0  0  0
  134.6738  139.7797  163.6339 H   0  0  0  0  0  0  0  0  0  0  0  0
  135.9891  141.8609  163.5950 H   0  0  0  0  0  0  0  0  0  0  0  0
  136.8531  142.7318  161.4599 H   0  0  0  0  0  0  0  0  0  0  0  0
  136.4094  141.5164  159.3648 H   0  0  0  0  0  0  0  0  0  0  0  0
  135.1019  139.4303  159.4050 H   0  0  0  0  0  0  0  0  0  0  0  0
  132.6747  136.3760  162.3014 H   0  0  0  0  0  0  0  0  0  0  0  0
  131.3734  137.5237  161.8897 H   0  0  0  0  0  0  0  0  0  0  0  0
  130.0135  135.7625  160.9461 H   0  0  0  0  0  0  0  0  0  0  0  0
  130.5825  135.1820  162.5294 H   0  0  0  0  0  0  0  0  0  0  0  0
  129.6510  132.5787  154.5986 H   0  0  0  0  0  0  0  0  0  0  0  0
  130.2147  132.4764  152.2073 H   0  0  0  0  0  0  0  0  0  0  0  0
  131.5281  130.5919  151.3273 H   0  0  0  0  0  0  0  0  0  0  0  0
  131.7383  128.8879  155.2339 H   0  0  0  0  0  0  0  0  0  0  0  0
  1  2  1  0
  1 35  1  0
  1 36  1  0
  1 37  1  0
  2  3  1  1
  2  4  1  0
  2 23  1  0
  4  5  1  0
  5  6  1  0
  5 38  1  0
  5 39  1  0
  6 22  1  0
  6  7  2  0
  7  8  1  0
  7 40  1  0
  8  9  1  0
  8 41  1  0
  8 42  1  0
  9 10  1  6
  9 11  1  0
  9 21  1  0
 11 12  1  0
 11 14  1  0
 11 43  1  6
 12 13  1  0
 12 44  1  0
 12 45  1  0
 13 46  1  0
 14 15  1  0
 14 47  1  0
 14 48  1  0
 15 20  1  0
 15 16  2  0
 16 17  1  0
 16 49  1  0
 17 18  2  0
 17 50  1  0
 18 19  1  0
 18 51  1  0
 19 20  2  0
 19 52  1  0
 20 53  1  0
 21 22  1  0
 21 54  1  0
 21 55  1  0
 22 56  1  0
 22 57  1  0
 23 34  1  0
 23 24  2  0
 24 25  1  0
 25 26  2  0
 26 27  1  0
 26 34  1  0
 27 33  1  0
 27 28  2  0
 28 29  1  0
 28 58  1  0
 29 30  2  0
 29 59  1  0
 30 31  1  0
 30 60  1  0
 31 32  1  0
 31 33  2  0
 33 61  1  0
M  CHG  1   9   1
M  END
>  <DOCK_score>  (1) 
-57.774242

>  <SMILES>  (1) 
C[C@H](OCC1=CC[NH+](C(CO)Cc2ccccc2)CC1)c1nnc(-c2cccc(F)c2)s1

$$$$
