CCc1ccc(-c2c[nH]c(N[C@H](c3cccc4c3CC(O)CC4)c3cccc4ccccc34)[nH+]2)cc1
     RDKit          3D

 68 73  0  0  1  0  0  0  0  0999 V2000
  129.9769  129.2740  151.3623 C   0  0  0  0  0  0  0  0  0  0  0  0
  131.3432  129.7117  151.8939 C   0  0  0  0  0  0  0  0  0  0  0  0
  131.1679  130.4016  153.2222 C   0  0  0  0  0  0  0  0  0  0  0  0
  131.2061  129.6642  154.3920 C   0  0  0  0  0  0  0  0  0  0  0  0
  131.0520  130.2917  155.6115 C   0  0  0  0  0  0  0  0  0  0  0  0
  130.8459  131.6692  155.6624 C   0  0  0  0  0  0  0  0  0  0  0  0
  130.6738  132.3484  156.9698 C   0  0  0  0  0  0  0  0  0  0  0  0
  130.1434  131.7995  158.0906 C   0  0  0  0  0  0  0  0  0  0  0  0
  130.1730  132.7700  159.0623 N   0  0  0  0  0  0  0  0  0  0  0  0
  129.8605  132.6779  159.9760 H   0  0  0  0  0  0  0  0  0  0  0  0
  130.7213  133.8847  158.5064 C   0  0  0  0  0  0  0  0  0  0  0  0
  130.9299  135.0899  159.1547 N   0  0  0  0  0  0  0  0  0  0  0  0
  130.5484  135.2408  160.5610 C   0  0  2  0  0  0  0  0  0  0  0  0
  130.7992  134.3302  161.1052 H   0  0  0  0  0  0  0  0  0  0  0  0
  129.0650  135.4897  160.6552 C   0  0  0  0  0  0  0  0  0  0  0  0
  128.3057  135.5418  159.5044 C   0  0  0  0  0  0  0  0  0  0  0  0
  126.9445  135.7660  159.5900 C   0  0  0  0  0  0  0  0  0  0  0  0
  126.3560  135.9461  160.8249 C   0  0  0  0  0  0  0  0  0  0  0  0
  127.1190  135.8964  161.9842 C   0  0  0  0  0  0  0  0  0  0  0  0
  128.4747  135.6704  161.8991 C   0  0  0  0  0  0  0  0  0  0  0  0
  129.3649  135.6137  163.1129 C   0  0  0  0  0  0  0  0  0  0  0  0
  128.5358  135.3978  164.3773 C   0  0  1  0  0  0  0  0  0  0  0  0
  129.3651  135.5586  165.5299 O   0  0  0  0  0  0  0  0  0  0  0  0
  127.4099  136.4384  164.4009 C   0  0  0  0  0  0  0  0  0  0  0  0
  126.4106  136.0922  163.2991 C   0  0  0  0  0  0  0  0  0  0  0  0
  131.2923  136.4057  161.1612 C   0  0  0  0  0  0  0  0  0  0  0  0
  130.7550  137.6558  161.1189 C   0  0  0  0  0  0  0  0  0  0  0  0
  131.4280  138.7448  161.6687 C   0  0  0  0  0  0  0  0  0  0  0  0
  132.6424  138.5906  162.2642 C   0  0  0  0  0  0  0  0  0  0  0  0
  133.2288  137.3153  162.3271 C   0  0  0  0  0  0  0  0  0  0  0  0
  134.4807  137.1166  162.9342 C   0  0  0  0  0  0  0  0  0  0  0  0
  135.0106  135.8643  162.9903 C   0  0  0  0  0  0  0  0  0  0  0  0
  134.3371  134.7748  162.4408 C   0  0  0  0  0  0  0  0  0  0  0  0
  133.1257  134.9298  161.8405 C   0  0  0  0  0  0  0  0  0  0  0  0
  132.5417  136.2066  161.7724 C   0  0  0  0  0  0  0  0  0  0  0  0
  131.0246  133.6271  157.2575 N   0  0  0  0  0  0  0  0  0  0  0  0
  131.4326  134.2515  156.6374 H   0  0  0  0  0  0  0  0  0  0  0  0
  130.8025  132.4061  154.4802 C   0  0  0  0  0  0  0  0  0  0  0  0
  130.9637  131.7690  153.2667 C   0  0  0  0  0  0  0  0  0  0  0  0
  129.5146  128.5865  152.0706 H   0  0  0  0  0  0  0  0  0  0  0  0
  129.3389  130.1488  151.2360 H   0  0  0  0  0  0  0  0  0  0  0  0
  130.1036  128.7750  150.4016 H   0  0  0  0  0  0  0  0  0  0  0  0
  131.9810  128.8369  152.0203 H   0  0  0  0  0  0  0  0  0  0  0  0
  131.8054  130.3992  151.1856 H   0  0  0  0  0  0  0  0  0  0  0  0
  131.3611  128.5962  154.3510 H   0  0  0  0  0  0  0  0  0  0  0  0
  131.0867  129.7157  156.5245 H   0  0  0  0  0  0  0  0  0  0  0  0
  129.7689  130.7923  158.1984 H   0  0  0  0  0  0  0  0  0  0  0  0
  131.3286  135.8346  158.6777 H   0  0  0  0  0  0  0  0  0  0  0  0
  128.7725  135.4035  158.5404 H   0  0  0  0  0  0  0  0  0  0  0  0
  126.3442  135.8049  158.6929 H   0  0  0  0  0  0  0  0  0  0  0  0
  125.2932  136.1266  160.8906 H   0  0  0  0  0  0  0  0  0  0  0  0
  130.0719  134.7915  163.0020 H   0  0  0  0  0  0  0  0  0  0  0  0
  129.9149  136.5508  163.1994 H   0  0  0  0  0  0  0  0  0  0  0  0
  128.1086  134.3950  164.3694 H   0  0  0  0  0  0  0  0  0  0  0  0
  129.7713  136.4330  165.6033 H   0  0  0  0  0  0  0  0  0  0  0  0
  126.9105  136.4170  165.3695 H   0  0  0  0  0  0  0  0  0  0  0  0
  127.8239  137.4311  164.2234 H   0  0  0  0  0  0  0  0  0  0  0  0
  125.8862  135.1745  163.5650 H   0  0  0  0  0  0  0  0  0  0  0  0
  125.6885  136.9028  163.2011 H   0  0  0  0  0  0  0  0  0  0  0  0
  129.7930  137.8056  160.6517 H   0  0  0  0  0  0  0  0  0  0  0  0
  130.9796  139.7262  161.6215 H   0  0  0  0  0  0  0  0  0  0  0  0
  133.1522  139.4439  162.6866 H   0  0  0  0  0  0  0  0  0  0  0  0
  135.0140  137.9515  163.3642 H   0  0  0  0  0  0  0  0  0  0  0  0
  135.9710  135.7138  163.4608 H   0  0  0  0  0  0  0  0  0  0  0  0
  134.7836  133.7926  162.4918 H   0  0  0  0  0  0  0  0  0  0  0  0
  132.6154  134.0764  161.4190 H   0  0  0  0  0  0  0  0  0  0  0  0
  130.6429  133.4737  154.5137 H   0  0  0  0  0  0  0  0  0  0  0  0
  130.9307  132.3392  152.3500 H   0  0  0  0  0  0  0  0  0  0  0  0
  1  2  1  0
  1 40  1  0
  1 41  1  0
  1 42  1  0
  2  3  1  0
  2 43  1  0
  2 44  1  0
  3 39  2  0
  3  4  1  0
  4  5  2  0
  4 45  1  0
  5  6  1  0
  5 46  1  0
  6  7  1  0
  6 38  2  0
  7 36  1  0
  7  8  2  0
  8  9  1  0
  8 47  1  0
  9 10  1  0
  9 11  1  0
 11 12  1  0
 11 36  2  0
 12 13  1  0
 12 48  1  0
 13 14  1  1
 13 15  1  0
 13 26  1  0
 15 20  1  0
 15 16  2  0
 16 17  1  0
 16 49  1  0
 17 18  2  0
 17 50  1  0
 18 19  1  0
 18 51  1  0
 19 25  1  0
 19 20  2  0
 20 21  1  0
 21 22  1  0
 21 52  1  0
 21 53  1  0
 22 23  1  0
 22 24  1  0
 22 54  1  6
 23 55  1  0
 24 25  1  0
 24 56  1  0
 24 57  1  0
 25 58  1  0
 25 59  1  0
 26 35  1  0
 26 27  2  0
 27 28  1  0
 27 60  1  0
 28 29  2  0
 28 61  1  0
 29 30  1  0
 29 62  1  0
 30 35  2  0
 30 31  1  0
 31 32  2  0
 31 63  1  0
 32 33  1  0
 32 64  1  0
 33 34  2  0
 33 65  1  0
 34 35  1  0
 34 66  1  0
 36 37  1  0
 38 39  1  0
 38 67  1  0
 39 68  1  0
M  CHG  1  36   1
M  END
>  <DOCK_score>  (1) 
-61.771076

>  <SMILES>  (1) 
CCc1ccc(-c2c[nH]c(N[C@H](c3cccc4c3CC(O)CC4)c3cccc4ccccc34)[nH+]2)cc1

$$$$
