COc1ccc([C@H](Nc2[nH]cc(-c3ccc(N)cc3)[nH+]2)C2=CCC=C(C)C2)cc1
     RDKit          3D

 56 59  0  0  1  0  0  0  0  0999 V2000
  131.0776  140.9214  162.9074 C   0  0  0  0  0  0  0  0  0  0  0  0
  130.8855  140.6888  161.5103 O   0  0  0  0  0  0  0  0  0  0  0  0
  130.6090  139.4137  161.1298 C   0  0  0  0  0  0  0  0  0  0  0  0
  130.4115  139.1162  159.7893 C   0  0  0  0  0  0  0  0  0  0  0  0
  130.1308  137.8195  159.4047 C   0  0  0  0  0  0  0  0  0  0  0  0
  130.0467  136.8183  160.3547 C   0  0  0  0  0  0  0  0  0  0  0  0
  129.7404  135.4045  159.9325 C   0  0  2  0  0  0  0  0  0  0  0  0
  130.2108  134.7080  160.6266 H   0  0  0  0  0  0  0  0  0  0  0  0
  130.2606  135.1745  158.5823 N   0  0  0  0  0  0  0  0  0  0  0  0
  130.0974  133.9393  157.9788 C   0  0  0  0  0  0  0  0  0  0  0  0
  129.4702  132.8647  158.5296 N   0  0  0  0  0  0  0  0  0  0  0  0
  129.0607  132.8264  159.4081 H   0  0  0  0  0  0  0  0  0  0  0  0
  129.5245  131.8432  157.6111 C   0  0  0  0  0  0  0  0  0  0  0  0
  130.1828  132.3235  156.5273 C   0  0  0  0  0  0  0  0  0  0  0  0
  130.4803  131.5726  155.2830 C   0  0  0  0  0  0  0  0  0  0  0  0
  129.9827  132.0218  154.0608 C   0  0  0  0  0  0  0  0  0  0  0  0
  130.2648  131.3251  152.9048 C   0  0  0  0  0  0  0  0  0  0  0  0
  131.0350  130.1698  152.9587 C   0  0  0  0  0  0  0  0  0  0  0  0
  131.3148  129.4627  151.7869 N   0  0  0  0  0  0  0  0  0  0  0  0
  131.5279  129.7168  154.1773 C   0  0  0  0  0  0  0  0  0  0  0  0
  131.2531  130.4136  155.3351 C   0  0  0  0  0  0  0  0  0  0  0  0
  130.5168  133.6138  156.7803 N   0  0  0  0  0  0  0  0  0  0  0  0
  130.9923  134.2012  156.1722 H   0  0  0  0  0  0  0  0  0  0  0  0
  128.2487  135.1901  159.9393 C   0  0  0  0  0  0  0  0  0  0  0  0
  127.5806  135.4382  158.8543 C   0  0  0  0  0  0  0  0  0  0  0  0
  126.0965  135.2534  158.7532 C   0  0  0  0  0  0  0  0  0  0  0  0
  125.4605  135.2342  160.1106 C   0  0  0  0  0  0  0  0  0  0  0  0
  126.1280  134.9910  161.1973 C   0  0  0  0  0  0  0  0  0  0  0  0
  125.3915  134.9959  162.5120 C   0  0  0  0  0  0  0  0  0  0  0  0
  127.5997  134.7052  161.2007 C   0  0  0  0  0  0  0  0  0  0  0  0
  130.2375  137.1133  161.6920 C   0  0  0  0  0  0  0  0  0  0  0  0
  130.5240  138.4075  162.0810 C   0  0  0  0  0  0  0  0  0  0  0  0
  130.1738  140.6434  163.4496 H   0  0  0  0  0  0  0  0  0  0  0  0
  131.9146  140.3211  163.2641 H   0  0  0  0  0  0  0  0  0  0  0  0
  131.2908  141.9773  163.0738 H   0  0  0  0  0  0  0  0  0  0  0  0
  130.4774  139.8979  159.0468 H   0  0  0  0  0  0  0  0  0  0  0  0
  129.9773  137.5872  158.3611 H   0  0  0  0  0  0  0  0  0  0  0  0
  130.7193  135.8878  158.1114 H   0  0  0  0  0  0  0  0  0  0  0  0
  129.1205  130.8488  157.7299 H   0  0  0  0  0  0  0  0  0  0  0  0
  129.3801  132.9170  154.0187 H   0  0  0  0  0  0  0  0  0  0  0  0
  129.8834  131.6752  151.9569 H   0  0  0  0  0  0  0  0  0  0  0  0
  131.8528  128.6556  151.8244 H   0  0  0  0  0  0  0  0  0  0  0  0
  130.9714  129.7772  150.9368 H   0  0  0  0  0  0  0  0  0  0  0  0
  132.1262  128.8186  154.2172 H   0  0  0  0  0  0  0  0  0  0  0  0
  131.6364  130.0617  156.2814 H   0  0  0  0  0  0  0  0  0  0  0  0
  128.1178  135.7894  157.9856 H   0  0  0  0  0  0  0  0  0  0  0  0
  125.8840  134.3124  158.2458 H   0  0  0  0  0  0  0  0  0  0  0  0
  125.6751  136.0742  158.1727 H   0  0  0  0  0  0  0  0  0  0  0  0
  124.4017  135.4315  160.1879 H   0  0  0  0  0  0  0  0  0  0  0  0
  125.4086  136.0006  162.9344 H   0  0  0  0  0  0  0  0  0  0  0  0
  124.3587  134.6869  162.3510 H   0  0  0  0  0  0  0  0  0  0  0  0
  125.8745  134.3036  163.2017 H   0  0  0  0  0  0  0  0  0  0  0  0
  127.7547  133.6302  161.2919 H   0  0  0  0  0  0  0  0  0  0  0  0
  128.0587  135.2050  162.0537 H   0  0  0  0  0  0  0  0  0  0  0  0
  130.1665  136.3304  162.4326 H   0  0  0  0  0  0  0  0  0  0  0  0
  130.6773  138.6365  163.1253 H   0  0  0  0  0  0  0  0  0  0  0  0
  1  2  1  0
  1 33  1  0
  1 34  1  0
  1 35  1  0
  2  3  1  0
  3 32  2  0
  3  4  1  0
  4  5  2  0
  4 36  1  0
  5  6  1  0
  5 37  1  0
  6  7  1  0
  6 31  2  0
  7  8  1  1
  7  9  1  0
  7 24  1  0
  9 38  1  0
 10  9  1  0
 10 22  2  0
 10 11  1  0
 11 12  1  0
 11 13  1  0
 13 14  2  0
 13 39  1  0
 14 15  1  0
 14 22  1  0
 15 21  1  0
 15 16  2  0
 16 17  1  0
 16 40  1  0
 17 18  2  0
 17 41  1  0
 18 19  1  0
 18 20  1  0
 19 42  1  0
 19 43  1  0
 20 21  2  0
 20 44  1  0
 21 45  1  0
 22 23  1  0
 24 30  1  0
 24 25  2  0
 25 26  1  0
 25 46  1  0
 26 27  1  0
 26 47  1  0
 26 48  1  0
 27 28  2  0
 27 49  1  0
 28 29  1  0
 28 30  1  0
 29 50  1  0
 29 51  1  0
 29 52  1  0
 30 53  1  0
 30 54  1  0
 31 32  1  0
 31 55  1  0
 32 56  1  0
M  CHG  1  22   1
M  END
>  <DOCK_score>  (1) 
-60.804203

>  <SMILES>  (1) 
COc1ccc([C@H](Nc2[nH]cc(-c3ccc(N)cc3)[nH+]2)C2=CCC=C(C)C2)cc1

$$$$
