CCc1ccc(-c2c[nH]c(N[C@@H](C)c3ccnn3C3CC3(F)F)[nH+]2)cc1
     RDKit          3D

 48 51  0  0  1  0  0  0  0  0999 V2000
  130.4099  128.4314  151.7051 C   0  0  0  0  0  0  0  0  0  0  0  0
  131.4897  129.4730  152.0048 C   0  0  0  0  0  0  0  0  0  0  0  0
  131.1449  130.2021  153.2779 C   0  0  0  0  0  0  0  0  0  0  0  0
  131.5991  129.7204  154.4919 C   0  0  0  0  0  0  0  0  0  0  0  0
  131.2913  130.3869  155.6606 C   0  0  0  0  0  0  0  0  0  0  0  0
  130.5117  131.5414  155.6166 C   0  0  0  0  0  0  0  0  0  0  0  0
  130.1729  132.2591  156.8698 C   0  0  0  0  0  0  0  0  0  0  0  0
  129.4927  131.7456  157.9247 C   0  0  0  0  0  0  0  0  0  0  0  0
  129.4015  132.7437  158.8641 N   0  0  0  0  0  0  0  0  0  0  0  0
  128.9692  132.6798  159.7301 H   0  0  0  0  0  0  0  0  0  0  0  0
  130.0292  133.8389  158.3554 C   0  0  0  0  0  0  0  0  0  0  0  0
  130.1604  135.0613  158.9917 N   0  0  0  0  0  0  0  0  0  0  0  0
  129.1347  135.5088  159.9372 C   0  0  1  0  0  0  0  0  0  0  0  0
  129.0579  134.7927  160.7556 H   0  0  0  0  0  0  0  0  0  0  0  0
  129.5185  136.8810  160.4945 C   0  0  0  0  0  0  0  0  0  0  0  0
  127.8078  135.6071  159.2297 C   0  0  0  0  0  0  0  0  0  0  0  0
  127.6211  135.8944  157.9206 C   0  0  0  0  0  0  0  0  0  0  0  0
  126.2451  135.8849  157.6699 C   0  0  0  0  0  0  0  0  0  0  0  0
  125.6274  135.6099  158.7900 N   0  0  0  0  0  0  0  0  0  0  0  0
  126.5926  135.4302  159.7893 N   0  0  0  0  0  0  0  0  0  0  0  0
  126.3293  135.1071  161.1938 C   0  0  2  0  0  0  0  0  0  0  0  0
  126.4599  133.6431  161.6184 C   0  0  0  0  0  0  0  0  0  0  0  0
  125.0760  134.2876  161.5072 C   0  0  0  0  0  0  0  0  0  0  0  0
  124.3988  134.5727  162.6978 F   0  0  0  0  0  0  0  0  0  0  0  0
  124.2687  133.9046  160.4308 F   0  0  0  0  0  0  0  0  0  0  0  0
  130.4939  133.5436  157.1659 N   0  0  0  0  0  0  0  0  0  0  0  0
  130.9865  134.1477  156.5886 H   0  0  0  0  0  0  0  0  0  0  0  0
  130.0519  132.0193  154.3907 C   0  0  0  0  0  0  0  0  0  0  0  0
  130.3707  131.3478  153.2279 C   0  0  0  0  0  0  0  0  0  0  0  0
  130.3548  127.7189  152.5281 H   0  0  0  0  0  0  0  0  0  0  0  0
  129.4468  128.9286  151.5899 H   0  0  0  0  0  0  0  0  0  0  0  0
  130.6592  127.9042  150.7843 H   0  0  0  0  0  0  0  0  0  0  0  0
  132.4525  128.9764  152.1196 H   0  0  0  0  0  0  0  0  0  0  0  0
  131.5446  130.1861  151.1813 H   0  0  0  0  0  0  0  0  0  0  0  0
  132.1991  128.8231  154.5253 H   0  0  0  0  0  0  0  0  0  0  0  0
  131.6503  130.0124  156.6078 H   0  0  0  0  0  0  0  0  0  0  0  0
  129.0980  130.7440  158.0097 H   0  0  0  0  0  0  0  0  0  0  0  0
  130.9316  135.6215  158.8117 H   0  0  0  0  0  0  0  0  0  0  0  0
  128.7554  137.2138  161.1981 H   0  0  0  0  0  0  0  0  0  0  0  0
  130.4783  136.8099  161.0063 H   0  0  0  0  0  0  0  0  0  0  0  0
  129.5954  137.5969  159.6761 H   0  0  0  0  0  0  0  0  0  0  0  0
  128.3975  136.0935  157.1967 H   0  0  0  0  0  0  0  0  0  0  0  0
  125.7737  136.0757  156.7171 H   0  0  0  0  0  0  0  0  0  0  0  0
  126.6261  135.8688  161.9150 H   0  0  0  0  0  0  0  0  0  0  0  0
  126.7417  132.9203  160.8527 H   0  0  0  0  0  0  0  0  0  0  0  0
  126.8424  133.4414  162.6190 H   0  0  0  0  0  0  0  0  0  0  0  0
  129.4473  132.9133  154.3508 H   0  0  0  0  0  0  0  0  0  0  0  0
  130.0147  131.7170  152.2774 H   0  0  0  0  0  0  0  0  0  0  0  0
  1  2  1  0
  1 30  1  0
  1 31  1  0
  1 32  1  0
  2  3  1  0
  2 33  1  0
  2 34  1  0
  3 29  2  0
  3  4  1  0
  4  5  2  0
  4 35  1  0
  5  6  1  0
  5 36  1  0
  6  7  1  0
  6 28  2  0
  7 26  1  0
  7  8  2  0
  8  9  1  0
  8 37  1  0
  9 10  1  0
  9 11  1  0
 11 12  1  0
 11 26  2  0
 12 13  1  0
 12 38  1  0
 13 14  1  1
 13 15  1  0
 13 16  1  0
 15 39  1  0
 15 40  1  0
 15 41  1  0
 16 20  1  0
 16 17  2  0
 17 18  1  0
 17 42  1  0
 18 19  2  0
 18 43  1  0
 19 20  1  0
 20 21  1  0
 21 23  1  0
 21 22  1  0
 21 44  1  1
 22 23  1  0
 22 45  1  0
 22 46  1  0
 23 24  1  0
 23 25  1  0
 26 27  1  0
 28 29  1  0
 28 47  1  0
 29 48  1  0
M  CHG  1  26   1
M  END
>  <DOCK_score>  (1) 
-59.043907

>  <SMILES>  (1) 
CCc1ccc(-c2c[nH]c(N[C@@H](C)c3ccnn3C3CC3(F)F)[nH+]2)cc1

$$$$
