CCc1ccc(-c2c[nH]c(N[C@H](c3ccccc3)c3ccc(N[C@H]4CCC(=O)NC4)cc3)[nH+]2)cc1
     RDKit          3D

 67 71  0  0  1  0  0  0  0  0999 V2000
  129.7542  128.4799  150.8156 C   0  0  0  0  0  0  0  0  0  0  0  0
  130.8780  129.5047  150.9833 C   0  0  0  0  0  0  0  0  0  0  0  0
  130.7736  130.1466  152.3429 C   0  0  0  0  0  0  0  0  0  0  0  0
  131.4347  129.5868  153.4219 C   0  0  0  0  0  0  0  0  0  0  0  0
  131.3426  130.1704  154.6691 C   0  0  0  0  0  0  0  0  0  0  0  0
  130.5818  131.3258  154.8404 C   0  0  0  0  0  0  0  0  0  0  0  0
  130.4786  131.9574  156.1785 C   0  0  0  0  0  0  0  0  0  0  0  0
  129.9781  131.3782  157.2979 C   0  0  0  0  0  0  0  0  0  0  0  0
  130.0742  132.3079  158.3047 N   0  0  0  0  0  0  0  0  0  0  0  0
  129.7980  132.1868  159.2267 H   0  0  0  0  0  0  0  0  0  0  0  0
  130.6226  133.4321  157.7685 C   0  0  0  0  0  0  0  0  0  0  0  0
  130.8839  134.6070  158.4525 N   0  0  0  0  0  0  0  0  0  0  0  0
  130.5647  134.7108  159.8785 C   0  0  2  0  0  0  0  0  0  0  0  0
  130.8183  133.7752  160.3768 H   0  0  0  0  0  0  0  0  0  0  0  0
  129.0924  134.9855  160.0450 C   0  0  0  0  0  0  0  0  0  0  0  0
  128.4268  134.5291  161.1674 C   0  0  0  0  0  0  0  0  0  0  0  0
  127.0772  134.7853  161.3225 C   0  0  0  0  0  0  0  0  0  0  0  0
  126.3910  135.4887  160.3503 C   0  0  0  0  0  0  0  0  0  0  0  0
  127.0554  135.9404  159.2254 C   0  0  0  0  0  0  0  0  0  0  0  0
  128.4061  135.6889  159.0729 C   0  0  0  0  0  0  0  0  0  0  0  0
  131.3580  135.8369  160.4901 C   0  0  0  0  0  0  0  0  0  0  0  0
  131.2023  137.1269  160.0171 C   0  0  0  0  0  0  0  0  0  0  0  0
  131.9236  138.1619  160.5790 C   0  0  0  0  0  0  0  0  0  0  0  0
  132.8147  137.9041  161.6130 C   0  0  0  0  0  0  0  0  0  0  0  0
  133.5497  138.9476  162.1801 N   0  0  0  0  0  0  0  0  0  0  0  0
  133.9520  138.8800  163.5872 C   0  0  1  0  0  0  0  0  0  0  0  0
  134.5780  138.0020  163.7467 H   0  0  0  0  0  0  0  0  0  0  0  0
  134.7316  140.1466  163.9608 C   0  0  0  0  0  0  0  0  0  0  0  0
  135.2941  139.9690  165.3734 C   0  0  0  0  0  0  0  0  0  0  0  0
  134.2115  139.4918  166.2983 C   0  0  0  0  0  0  0  0  0  0  0  0
  134.3851  139.6073  167.4931 O   0  0  0  0  0  0  0  0  0  0  0  0
  133.0693  138.9482  165.8761 N   0  0  0  0  0  0  0  0  0  0  0  0
  132.7085  138.7914  164.4727 C   0  0  0  0  0  0  0  0  0  0  0  0
  132.9731  136.6060  162.0819 C   0  0  0  0  0  0  0  0  0  0  0  0
  132.2444  135.5766  161.5192 C   0  0  0  0  0  0  0  0  0  0  0  0
  130.8629  133.2188  156.4979 N   0  0  0  0  0  0  0  0  0  0  0  0
  131.2533  133.8602  155.8838 H   0  0  0  0  0  0  0  0  0  0  0  0
  129.9183  131.8850  153.7498 C   0  0  0  0  0  0  0  0  0  0  0  0
  130.0175  131.2928  152.5072 C   0  0  0  0  0  0  0  0  0  0  0  0
  128.7901  128.9803  150.9080 H   0  0  0  0  0  0  0  0  0  0  0  0
  129.8297  128.0157  149.8322 H   0  0  0  0  0  0  0  0  0  0  0  0
  129.8416  127.7145  151.5865 H   0  0  0  0  0  0  0  0  0  0  0  0
  130.7909  130.2696  150.2127 H   0  0  0  0  0  0  0  0  0  0  0  0
  131.8423  129.0038  150.8913 H   0  0  0  0  0  0  0  0  0  0  0  0
  132.0238  128.6916  153.2880 H   0  0  0  0  0  0  0  0  0  0  0  0
  131.8624  129.7355  155.5098 H   0  0  0  0  0  0  0  0  0  0  0  0
  129.5820  130.3771  157.3822 H   0  0  0  0  0  0  0  0  0  0  0  0
  131.2783  135.3614  157.9876 H   0  0  0  0  0  0  0  0  0  0  0  0
  128.9619  133.9758  161.9249 H   0  0  0  0  0  0  0  0  0  0  0  0
  126.5581  134.4320  162.2012 H   0  0  0  0  0  0  0  0  0  0  0  0
  125.3357  135.6849  160.4694 H   0  0  0  0  0  0  0  0  0  0  0  0
  126.5192  136.4896  158.4657 H   0  0  0  0  0  0  0  0  0  0  0  0
  128.9252  136.0415  158.1938 H   0  0  0  0  0  0  0  0  0  0  0  0
  130.5127  137.3258  159.2100 H   0  0  0  0  0  0  0  0  0  0  0  0
  131.7981  139.1699  160.2121 H   0  0  0  0  0  0  0  0  0  0  0  0
  133.7938  139.7171  161.6423 H   0  0  0  0  0  0  0  0  0  0  0  0
  135.5497  140.2953  163.2561 H   0  0  0  0  0  0  0  0  0  0  0  0
  134.0647  141.0085  163.9368 H   0  0  0  0  0  0  0  0  0  0  0  0
  135.6818  140.9229  165.7313 H   0  0  0  0  0  0  0  0  0  0  0  0
  136.1012  139.2366  165.3523 H   0  0  0  0  0  0  0  0  0  0  0  0
  132.4392  138.6376  166.5450 H   0  0  0  0  0  0  0  0  0  0  0  0
  132.0085  139.5778  164.1906 H   0  0  0  0  0  0  0  0  0  0  0  0
  132.2346  137.8199  164.3321 H   0  0  0  0  0  0  0  0  0  0  0  0
  133.6654  136.4022  162.8852 H   0  0  0  0  0  0  0  0  0  0  0  0
  132.3667  134.5674  161.8835 H   0  0  0  0  0  0  0  0  0  0  0  0
  129.3271  132.7799  153.8769 H   0  0  0  0  0  0  0  0  0  0  0  0
  129.5040  131.7253  151.6614 H   0  0  0  0  0  0  0  0  0  0  0  0
  1  2  1  0
  1 40  1  0
  1 41  1  0
  1 42  1  0
  2  3  1  0
  2 43  1  0
  2 44  1  0
  3 39  2  0
  3  4  1  0
  4  5  2  0
  4 45  1  0
  5  6  1  0
  5 46  1  0
  6  7  1  0
  6 38  2  0
  7 36  1  0
  7  8  2  0
  8  9  1  0
  8 47  1  0
  9 10  1  0
  9 11  1  0
 11 12  1  0
 11 36  2  0
 12 13  1  0
 12 48  1  0
 13 14  1  1
 13 15  1  0
 13 21  1  0
 15 20  1  0
 15 16  2  0
 16 17  1  0
 16 49  1  0
 17 18  2  0
 17 50  1  0
 18 19  1  0
 18 51  1  0
 19 20  2  0
 19 52  1  0
 20 53  1  0
 21 35  1  0
 21 22  2  0
 22 23  1  0
 22 54  1  0
 23 24  2  0
 23 55  1  0
 24 25  1  0
 24 34  1  0
 25 26  1  0
 25 56  1  0
 26 27  1  6
 26 33  1  0
 26 28  1  0
 28 29  1  0
 28 57  1  0
 28 58  1  0
 29 30  1  0
 29 59  1  0
 29 60  1  0
 30 31  2  0
 30 32  1  0
 32 33  1  0
 32 61  1  0
 33 62  1  0
 33 63  1  0
 34 35  2  0
 34 64  1  0
 35 65  1  0
 36 37  1  0
 38 39  1  0
 38 66  1  0
 39 67  1  0
M  CHG  1  36   1
M  END
>  <DOCK_score>  (1) 
-60.831722

>  <SMILES>  (1) 
CCc1ccc(-c2c[nH]c(N[C@H](c3ccccc3)c3ccc(N[C@H]4CCC(=O)NC4)cc3)[nH+]2)cc1

$$$$
