CCCc1ccc(-c2c[nH]c(Nc3ccc(Nc4ccccc4)cc3)[nH+]2)cc1
     RDKit          3D

 53 56  0  0  1  0  0  0  0  0999 V2000
  129.0358  130.2746  151.1844 C   0  0  0  0  0  0  0  0  0  0  0  0
  129.9909  129.1256  151.5136 C   0  0  0  0  0  0  0  0  0  0  0  0
  131.2955  129.6924  152.0770 C   0  0  0  0  0  0  0  0  0  0  0  0
  131.0027  130.4769  153.3300 C   0  0  0  0  0  0  0  0  0  0  0  0
  131.0169  129.8425  154.5592 C   0  0  0  0  0  0  0  0  0  0  0  0
  130.7495  130.5559  155.7099 C   0  0  0  0  0  0  0  0  0  0  0  0
  130.4647  131.9180  155.6319 C   0  0  0  0  0  0  0  0  0  0  0  0
  130.1759  132.6900  156.8651 C   0  0  0  0  0  0  0  0  0  0  0  0
  129.6041  132.2045  157.9951 C   0  0  0  0  0  0  0  0  0  0  0  0
  129.5275  133.2488  158.8836 N   0  0  0  0  0  0  0  0  0  0  0  0
  129.1671  133.2123  159.7835 H   0  0  0  0  0  0  0  0  0  0  0  0
  130.0479  134.3453  158.2673 C   0  0  0  0  0  0  0  0  0  0  0  0
  130.1542  135.6092  158.8237 N   0  0  0  0  0  0  0  0  0  0  0  0
  129.2221  136.0347  159.7782 C   0  0  0  0  0  0  0  0  0  0  0  0
  129.6012  136.9341  160.7662 C   0  0  0  0  0  0  0  0  0  0  0  0
  128.6808  137.3580  161.7038 C   0  0  0  0  0  0  0  0  0  0  0  0
  127.3772  136.8806  161.6625 C   0  0  0  0  0  0  0  0  0  0  0  0
  126.4441  137.3100  162.6133 N   0  0  0  0  0  0  0  0  0  0  0  0
  126.8239  138.2187  163.6039 C   0  0  0  0  0  0  0  0  0  0  0  0
  127.3194  137.7588  164.8177 C   0  0  0  0  0  0  0  0  0  0  0  0
  127.6987  138.6601  165.7929 C   0  0  0  0  0  0  0  0  0  0  0  0
  127.5763  140.0188  165.5662 C   0  0  0  0  0  0  0  0  0  0  0  0
  127.0784  140.4799  164.3612 C   0  0  0  0  0  0  0  0  0  0  0  0
  126.7018  139.5844  163.3798 C   0  0  0  0  0  0  0  0  0  0  0  0
  126.9995  135.9767  160.6778 C   0  0  0  0  0  0  0  0  0  0  0  0
  127.9201  135.5528  159.7403 C   0  0  0  0  0  0  0  0  0  0  0  0
  130.4370  134.0063  157.0623 N   0  0  0  0  0  0  0  0  0  0  0  0
  130.8467  134.6016  156.4152 H   0  0  0  0  0  0  0  0  0  0  0  0
  130.4466  132.5508  154.3902 C   0  0  0  0  0  0  0  0  0  0  0  0
  130.7211  131.8287  153.2466 C   0  0  0  0  0  0  0  0  0  0  0  0
  128.1062  129.8708  150.7830 H   0  0  0  0  0  0  0  0  0  0  0  0
  128.8240  130.8420  152.0906 H   0  0  0  0  0  0  0  0  0  0  0  0
  129.4966  130.9296  150.4450 H   0  0  0  0  0  0  0  0  0  0  0  0
  130.2026  128.5583  150.6073 H   0  0  0  0  0  0  0  0  0  0  0  0
  129.5301  128.4706  152.2528 H   0  0  0  0  0  0  0  0  0  0  0  0
  131.7563  130.3475  151.3375 H   0  0  0  0  0  0  0  0  0  0  0  0
  131.9761  128.8739  152.3114 H   0  0  0  0  0  0  0  0  0  0  0  0
  131.2374  128.7869  154.6184 H   0  0  0  0  0  0  0  0  0  0  0  0
  130.7612  130.0597  156.6691 H   0  0  0  0  0  0  0  0  0  0  0  0
  129.2756  131.1897  158.1651 H   0  0  0  0  0  0  0  0  0  0  0  0
  130.8744  136.1995  158.5523 H   0  0  0  0  0  0  0  0  0  0  0  0
  130.6149  137.3054  160.7984 H   0  0  0  0  0  0  0  0  0  0  0  0
  128.9743  138.0612  162.4693 H   0  0  0  0  0  0  0  0  0  0  0  0
  125.5336  136.9766  162.5845 H   0  0  0  0  0  0  0  0  0  0  0  0
  127.4115  136.6977  164.9968 H   0  0  0  0  0  0  0  0  0  0  0  0
  128.0872  138.3033  166.7353 H   0  0  0  0  0  0  0  0  0  0  0  0
  127.8696  140.7213  166.3321 H   0  0  0  0  0  0  0  0  0  0  0  0
  126.9837  141.5417  164.1877 H   0  0  0  0  0  0  0  0  0  0  0  0
  126.3124  139.9452  162.4391 H   0  0  0  0  0  0  0  0  0  0  0  0
  125.9857  135.6056  160.6454 H   0  0  0  0  0  0  0  0  0  0  0  0
  127.6265  134.8500  158.9745 H   0  0  0  0  0  0  0  0  0  0  0  0
  130.2224  133.6052  154.3236 H   0  0  0  0  0  0  0  0  0  0  0  0
  130.7121  132.3191  152.2844 H   0  0  0  0  0  0  0  0  0  0  0  0
  1  2  1  0
  1 31  1  0
  1 32  1  0
  1 33  1  0
  2  3  1  0
  2 34  1  0
  2 35  1  0
  3  4  1  0
  3 36  1  0
  3 37  1  0
  4 30  2  0
  4  5  1  0
  5  6  2  0
  5 38  1  0
  6  7  1  0
  6 39  1  0
  7  8  1  0
  7 29  2  0
  8 27  1  0
  8  9  2  0
  9 10  1  0
  9 40  1  0
 10 11  1  0
 10 12  1  0
 12 13  1  0
 12 27  2  0
 13 14  1  0
 13 41  1  0
 14 26  1  0
 14 15  2  0
 15 16  1  0
 15 42  1  0
 16 17  2  0
 16 43  1  0
 17 18  1  0
 17 25  1  0
 18 19  1  0
 18 44  1  0
 19 24  1  0
 19 20  2  0
 20 21  1  0
 20 45  1  0
 21 22  2  0
 21 46  1  0
 22 23  1  0
 22 47  1  0
 23 24  2  0
 23 48  1  0
 24 49  1  0
 25 26  2  0
 25 50  1  0
 26 51  1  0
 27 28  1  0
 29 30  1  0
 29 52  1  0
 30 53  1  0
M  CHG  1  27   1
M  END
>  <DOCK_score>  (1) 
-57.5009

>  <SMILES>  (1) 
CCCc1ccc(-c2c[nH]c(Nc3ccc(Nc4ccccc4)cc3)[nH+]2)cc1

$$$$
