C1=CC[C@H]2[C@@H](C1)[C@@H]2[NH2+]Cc1c[nH]nc1-c1ccc(Nc2c[nH]c3ccccc23)o1
     RDKit          3D

 53 58  0  0  1  0  0  0  0  0999 V2000
  134.2477  140.0559  161.4947 C   0  0  0  0  0  0  0  0  0  0  0  0
  133.0070  140.4757  161.4917 C   0  0  0  0  0  0  0  0  0  0  0  0
  131.8675  139.4927  161.3793 C   0  0  0  0  0  0  0  0  0  0  0  0
  132.2102  138.4716  160.2826 C   0  0  1  0  0  0  0  0  0  0  0  0
  131.7119  138.6041  159.3222 H   0  0  0  0  0  0  0  0  0  0  0  0
  133.6688  137.9782  160.2856 C   0  0  1  0  0  0  0  0  0  0  0  0
  134.1486  137.7799  159.3273 H   0  0  0  0  0  0  0  0  0  0  0  0
  134.5569  138.5829  161.3846 C   0  0  0  0  0  0  0  0  0  0  0  0
  132.5405  137.0480  160.7355 C   0  0  2  0  0  0  0  0  0  0  0  0
  132.4642  136.8290  161.8006 H   0  0  0  0  0  0  0  0  0  0  0  0
  132.1707  135.9478  159.8350 N   0  0  0  0  0  0  0  0  0  0  0  0
  132.3592  136.2163  158.8809 H   0  0  0  0  0  0  0  0  0  0  0  0
  132.7108  135.1276  160.0666 H   0  0  0  0  0  0  0  0  0  0  0  0
  130.7399  135.6508  159.9866 C   0  0  0  0  0  0  0  0  0  0  0  0
  130.3607  134.5221  159.0628 C   0  0  0  0  0  0  0  0  0  0  0  0
  131.1893  133.8758  158.2151 C   0  0  0  0  0  0  0  0  0  0  0  0
  130.4725  132.9310  157.5684 N   0  0  0  0  0  0  0  0  0  0  0  0
  130.8140  132.3153  156.9013 H   0  0  0  0  0  0  0  0  0  0  0  0
  129.1493  132.9986  158.0230 N   0  0  0  0  0  0  0  0  0  0  0  0
  129.0751  133.9572  158.9253 C   0  0  0  0  0  0  0  0  0  0  0  0
  127.8615  134.3672  159.6611 C   0  0  0  0  0  0  0  0  0  0  0  0
  126.6261  133.8155  159.5294 C   0  0  0  0  0  0  0  0  0  0  0  0
  125.7739  134.5067  160.4126 C   0  0  0  0  0  0  0  0  0  0  0  0
  126.5291  135.4442  161.0390 C   0  0  0  0  0  0  0  0  0  0  0  0
  126.0763  136.3456  161.9938 N   0  0  0  0  0  0  0  0  0  0  0  0
  126.9492  136.8071  162.9948 C   0  0  0  0  0  0  0  0  0  0  0  0
  127.9842  136.1316  163.5295 C   0  0  0  0  0  0  0  0  0  0  0  0
  128.6063  136.9092  164.4780 N   0  0  0  0  0  0  0  0  0  0  0  0
  129.3791  136.6408  164.9992 H   0  0  0  0  0  0  0  0  0  0  0  0
  127.9651  138.1230  164.5815 C   0  0  0  0  0  0  0  0  0  0  0  0
  128.1743  139.2504  165.3703 C   0  0  0  0  0  0  0  0  0  0  0  0
  127.3411  140.3396  165.2417 C   0  0  0  0  0  0  0  0  0  0  0  0
  126.2931  140.3256  164.3310 C   0  0  0  0  0  0  0  0  0  0  0  0
  126.0701  139.2295  163.5465 C   0  0  0  0  0  0  0  0  0  0  0  0
  126.9019  138.1144  163.6606 C   0  0  0  0  0  0  0  0  0  0  0  0
  127.7904  135.3497  160.5837 O   0  0  0  0  0  0  0  0  0  0  0  0
  135.0550  140.7687  161.5760 H   0  0  0  0  0  0  0  0  0  0  0  0
  132.7980  141.5323  161.5708 H   0  0  0  0  0  0  0  0  0  0  0  0
  130.9523  140.0219  161.1137 H   0  0  0  0  0  0  0  0  0  0  0  0
  131.7329  138.9773  162.3302 H   0  0  0  0  0  0  0  0  0  0  0  0
  134.3475  138.0929  162.3355 H   0  0  0  0  0  0  0  0  0  0  0  0
  135.6064  138.4445  161.1247 H   0  0  0  0  0  0  0  0  0  0  0  0
  130.5364  135.3607  161.0174 H   0  0  0  0  0  0  0  0  0  0  0  0
  130.1564  136.5368  159.7364 H   0  0  0  0  0  0  0  0  0  0  0  0
  132.2417  134.0770  158.0797 H   0  0  0  0  0  0  0  0  0  0  0  0
  126.3508  133.0029  158.8735 H   0  0  0  0  0  0  0  0  0  0  0  0
  124.7202  134.3246  160.5632 H   0  0  0  0  0  0  0  0  0  0  0  0
  125.1577  136.6567  161.9700 H   0  0  0  0  0  0  0  0  0  0  0  0
  128.2825  135.1310  163.2531 H   0  0  0  0  0  0  0  0  0  0  0  0
  128.9869  139.2707  166.0815 H   0  0  0  0  0  0  0  0  0  0  0  0
  127.5049  141.2132  165.8550 H   0  0  0  0  0  0  0  0  0  0  0  0
  125.6493  141.1881  164.2419 H   0  0  0  0  0  0  0  0  0  0  0  0
  125.2532  139.2261  162.8401 H   0  0  0  0  0  0  0  0  0  0  0  0
  1  8  1  0
  1  2  2  0
  1 37  1  0
  2  3  1  0
  2 38  1  0
  3  4  1  0
  3 39  1  0
  3 40  1  0
  4  5  1  6
  4  9  1  0
  4  6  1  0
  6  7  1  6
  6  8  1  0
  6  9  1  0
  8 41  1  0
  8 42  1  0
  9 10  1  1
  9 11  1  0
 11 12  1  0
 11 13  1  0
 11 14  1  0
 14 15  1  0
 14 43  1  0
 14 44  1  0
 15 20  1  0
 15 16  2  0
 16 17  1  0
 16 45  1  0
 17 18  1  0
 17 19  1  0
 19 20  2  0
 20 21  1  0
 21 36  1  0
 21 22  2  0
 22 23  1  0
 22 46  1  0
 23 24  2  0
 23 47  1  0
 24 25  1  0
 24 36  1  0
 25 26  1  0
 25 48  1  0
 26 35  1  0
 26 27  2  0
 27 28  1  0
 27 49  1  0
 28 29  1  0
 28 30  1  0
 30 35  2  0
 30 31  1  0
 31 32  2  0
 31 50  1  0
 32 33  1  0
 32 51  1  0
 33 34  2  0
 33 52  1  0
 34 35  1  0
 34 53  1  0
M  CHG  1  11   1
M  END
>  <DOCK_score>  (1) 
-49.891636

>  <SMILES>  (1) 
C1=CC[C@H]2[C@@H](C1)[C@@H]2[NH2+]Cc1c[nH]nc1-c1ccc(Nc2c[nH]c3ccccc23)o1

$$$$
