Fc1ccc([C@H](Nc2[nH]cc(-c3cccnc3)[nH+]2)c2cccs2)cc1
     RDKit          3D

 41 44  0  0  1  0  0  0  0  0999 V2000
  130.2061  140.8380  161.6331 F   0  0  0  0  0  0  0  0  0  0  0  0
  129.9147  139.5905  161.2043 C   0  0  0  0  0  0  0  0  0  0  0  0
  129.1498  138.7478  161.9930 C   0  0  0  0  0  0  0  0  0  0  0  0
  128.8519  137.4720  161.5531 C   0  0  0  0  0  0  0  0  0  0  0  0
  129.3171  137.0372  160.3261 C   0  0  0  0  0  0  0  0  0  0  0  0
  128.9920  135.6455  159.8477 C   0  0  2  0  0  0  0  0  0  0  0  0
  128.8791  134.9835  160.7061 H   0  0  0  0  0  0  0  0  0  0  0  0
  130.0771  135.1568  158.9933 N   0  0  0  0  0  0  0  0  0  0  0  0
  130.0014  133.8931  158.4333 C   0  0  0  0  0  0  0  0  0  0  0  0
  129.3673  132.8203  158.9802 N   0  0  0  0  0  0  0  0  0  0  0  0
  128.8882  132.8046  159.8235 H   0  0  0  0  0  0  0  0  0  0  0  0
  129.5310  131.7637  158.1176 C   0  0  0  0  0  0  0  0  0  0  0  0
  130.2597  132.2209  157.0693 C   0  0  0  0  0  0  0  0  0  0  0  0
  130.6831  131.4286  155.8888 C   0  0  0  0  0  0  0  0  0  0  0  0
  130.2777  131.7979  154.6030 C   0  0  0  0  0  0  0  0  0  0  0  0
  130.7041  131.0289  153.5341 C   0  0  0  0  0  0  0  0  0  0  0  0
  131.5010  129.9234  153.7712 C   0  0  0  0  0  0  0  0  0  0  0  0
  131.8631  129.5964  154.9966 N   0  0  0  0  0  0  0  0  0  0  0  0
  131.4866  130.3007  156.0443 C   0  0  0  0  0  0  0  0  0  0  0  0
  130.5334  133.5309  157.2914 N   0  0  0  0  0  0  0  0  0  0  0  0
  131.0415  134.1077  156.6997 H   0  0  0  0  0  0  0  0  0  0  0  0
  127.7066  135.6722  159.0614 C   0  0  0  0  0  0  0  0  0  0  0  0
  126.4873  135.5030  159.5750 C   0  0  0  0  0  0  0  0  0  0  0  0
  125.4534  135.5691  158.6571 C   0  0  0  0  0  0  0  0  0  0  0  0
  125.8330  135.7918  157.3979 C   0  0  0  0  0  0  0  0  0  0  0  0
  127.5843  135.9387  157.3271 S   0  0  0  0  0  0  0  0  0  0  0  0
  130.0853  137.8758  159.5401 C   0  0  0  0  0  0  0  0  0  0  0  0
  130.3801  139.1538  159.9755 C   0  0  0  0  0  0  0  0  0  0  0  0
  128.7865  139.0872  162.9517 H   0  0  0  0  0  0  0  0  0  0  0  0
  128.2550  136.8147  162.1680 H   0  0  0  0  0  0  0  0  0  0  0  0
  130.8486  135.7187  158.8201 H   0  0  0  0  0  0  0  0  0  0  0  0
  129.1523  130.7609  158.2493 H   0  0  0  0  0  0  0  0  0  0  0  0
  129.6508  132.6634  154.4471 H   0  0  0  0  0  0  0  0  0  0  0  0
  130.4140  131.2866  152.5262 H   0  0  0  0  0  0  0  0  0  0  0  0
  131.8321  129.3188  152.9398 H   0  0  0  0  0  0  0  0  0  0  0  0
  131.8038  130.0016  157.0323 H   0  0  0  0  0  0  0  0  0  0  0  0
  126.3194  135.3282  160.6275 H   0  0  0  0  0  0  0  0  0  0  0  0
  124.4176  135.4496  158.9390 H   0  0  0  0  0  0  0  0  0  0  0  0
  125.1668  135.8732  156.5518 H   0  0  0  0  0  0  0  0  0  0  0  0
  130.4516  137.5335  158.5835 H   0  0  0  0  0  0  0  0  0  0  0  0
  130.9767  139.8102  159.3595 H   0  0  0  0  0  0  0  0  0  0  0  0
  1  2  1  0
  2 28  2  0
  2  3  1  0
  3  4  2  0
  3 29  1  0
  4  5  1  0
  4 30  1  0
  5  6  1  0
  5 27  2  0
  6  7  1  1
  6  8  1  0
  6 22  1  0
  8 31  1  0
  9  8  1  0
  9 20  2  0
  9 10  1  0
 10 11  1  0
 10 12  1  0
 12 13  2  0
 12 32  1  0
 13 14  1  0
 13 20  1  0
 14 19  1  0
 14 15  2  0
 15 16  1  0
 15 33  1  0
 16 17  2  0
 16 34  1  0
 17 18  1  0
 17 35  1  0
 18 19  2  0
 19 36  1  0
 20 21  1  0
 22 26  1  0
 22 23  2  0
 23 24  1  0
 23 37  1  0
 24 25  2  0
 24 38  1  0
 25 26  1  0
 25 39  1  0
 27 28  1  0
 27 40  1  0
 28 41  1  0
M  CHG  1  20   1
M  END
>  <DOCK_score>  (1) 
-58.262043

>  <SMILES>  (1) 
Fc1ccc([C@H](Nc2[nH]cc(-c3cccnc3)[nH+]2)c2cccs2)cc1

$$$$
