CC1(C)C(Nc2ccc(-c3c[nH]c(Nc4ccc(O)cc4)[nH+]3)cc2)C[C@H]1O
     RDKit          3D

 52 55  0  0  1  0  0  0  0  0999 V2000
  136.6971  137.7818  164.5544 C   0  0  0  0  0  0  0  0  0  0  0  0
  136.0322  138.8271  163.6564 C   0  0  0  0  0  0  0  0  0  0  0  0
  136.7079  138.9544  162.2897 C   0  0  0  0  0  0  0  0  0  0  0  0
  134.5028  138.6880  163.5771 C   0  0  1  0  0  0  0  0  0  0  0  0
  134.0225  137.3299  163.8436 N   0  0  0  0  0  0  0  0  0  0  0  0
  133.2972  136.6414  162.8681 C   0  0  0  0  0  0  0  0  0  0  0  0
  133.5316  136.8943  161.5217 C   0  0  0  0  0  0  0  0  0  0  0  0
  132.8170  136.2159  160.5571 C   0  0  0  0  0  0  0  0  0  0  0  0
  131.8591  135.2756  160.9333 C   0  0  0  0  0  0  0  0  0  0  0  0
  131.0886  134.5449  159.8973 C   0  0  0  0  0  0  0  0  0  0  0  0
  131.5273  134.2235  158.6549 C   0  0  0  0  0  0  0  0  0  0  0  0
  130.5020  133.5538  158.0309 N   0  0  0  0  0  0  0  0  0  0  0  0
  130.5141  133.1957  157.1295 H   0  0  0  0  0  0  0  0  0  0  0  0
  129.4665  133.4861  158.9116 C   0  0  0  0  0  0  0  0  0  0  0  0
  128.2401  132.8889  158.6706 N   0  0  0  0  0  0  0  0  0  0  0  0
  127.0892  133.3733  159.3039 C   0  0  0  0  0  0  0  0  0  0  0  0
  126.0390  132.5113  159.5909 C   0  0  0  0  0  0  0  0  0  0  0  0
  124.9064  132.9890  160.2202 C   0  0  0  0  0  0  0  0  0  0  0  0
  124.8132  134.3316  160.5560 C   0  0  0  0  0  0  0  0  0  0  0  0
  123.6951  134.8024  161.1703 O   0  0  0  0  0  0  0  0  0  0  0  0
  125.8596  135.1945  160.2650 C   0  0  0  0  0  0  0  0  0  0  0  0
  126.9951  134.7174  159.6404 C   0  0  0  0  0  0  0  0  0  0  0  0
  129.8230  134.0751  160.0273 N   0  0  0  0  0  0  0  0  0  0  0  0
  129.2693  134.1625  160.8189 H   0  0  0  0  0  0  0  0  0  0  0  0
  131.6222  135.0271  162.2842 C   0  0  0  0  0  0  0  0  0  0  0  0
  132.3427  135.7043  163.2454 C   0  0  0  0  0  0  0  0  0  0  0  0
  134.4335  139.6171  164.8006 C   0  0  0  0  0  0  0  0  0  0  0  0
  135.7945  140.1767  164.3541 C   0  0  1  0  0  0  0  0  0  0  0  0
  135.7160  141.0180  163.6654 H   0  0  0  0  0  0  0  0  0  0  0  0
  136.6930  140.4278  165.4365 O   0  0  0  0  0  0  0  0  0  0  0  0
  136.4806  136.7842  164.1723 H   0  0  0  0  0  0  0  0  0  0  0  0
  137.7751  137.9420  164.5618 H   0  0  0  0  0  0  0  0  0  0  0  0
  136.3089  137.8745  165.5687 H   0  0  0  0  0  0  0  0  0  0  0  0
  136.3271  139.8377  161.7769 H   0  0  0  0  0  0  0  0  0  0  0  0
  137.7853  139.0488  162.4243 H   0  0  0  0  0  0  0  0  0  0  0  0
  136.4925  138.0673  161.6939 H   0  0  0  0  0  0  0  0  0  0  0  0
  134.0700  139.1206  162.6751 H   0  0  0  0  0  0  0  0  0  0  0  0
  134.2082  136.9085  164.6974 H   0  0  0  0  0  0  0  0  0  0  0  0
  134.2738  137.6229  161.2308 H   0  0  0  0  0  0  0  0  0  0  0  0
  132.9990  136.4134  159.5110 H   0  0  0  0  0  0  0  0  0  0  0  0
  132.4966  134.4502  158.2362 H   0  0  0  0  0  0  0  0  0  0  0  0
  128.1788  132.1353  158.0632 H   0  0  0  0  0  0  0  0  0  0  0  0
  126.1095  131.4668  159.3252 H   0  0  0  0  0  0  0  0  0  0  0  0
  124.0911  132.3179  160.4471 H   0  0  0  0  0  0  0  0  0  0  0  0
  123.7222  135.7494  161.3647 H   0  0  0  0  0  0  0  0  0  0  0  0
  125.7862  136.2397  160.5268 H   0  0  0  0  0  0  0  0  0  0  0  0
  127.8094  135.3895  159.4133 H   0  0  0  0  0  0  0  0  0  0  0  0
  130.8778  134.3020  162.5779 H   0  0  0  0  0  0  0  0  0  0  0  0
  132.1622  135.5094  164.2922 H   0  0  0  0  0  0  0  0  0  0  0  0
  133.6242  140.3455  164.7503 H   0  0  0  0  0  0  0  0  0  0  0  0
  134.4700  139.0883  165.7529 H   0  0  0  0  0  0  0  0  0  0  0  0
  137.6209  140.4892  165.1713 H   0  0  0  0  0  0  0  0  0  0  0  0
  1  2  1  0
  1 31  1  0
  1 32  1  0
  1 33  1  0
  2 28  1  0
  2  3  1  0
  2  4  1  0
  3 34  1  0
  3 35  1  0
  3 36  1  0
  4  5  1  0
  4 27  1  0
  4 37  1  6
  5  6  1  0
  5 38  1  0
  6 26  1  0
  6  7  2  0
  7  8  1  0
  7 39  1  0
  8  9  2  0
  8 40  1  0
  9 10  1  0
  9 25  1  0
 10 23  1  0
 10 11  2  0
 11 12  1  0
 11 41  1  0
 12 13  1  0
 12 14  1  0
 14 15  1  0
 14 23  2  0
 15 16  1  0
 15 42  1  0
 16 22  1  0
 16 17  2  0
 17 18  1  0
 17 43  1  0
 18 19  2  0
 18 44  1  0
 19 20  1  0
 19 21  1  0
 20 45  1  0
 21 22  2  0
 21 46  1  0
 22 47  1  0
 23 24  1  0
 25 26  2  0
 25 48  1  0
 26 49  1  0
 27 28  1  0
 27 50  1  0
 27 51  1  0
 28 29  1  6
 28 30  1  0
 30 52  1  0
M  CHG  1  23   1
M  END
>  <DOCK_score>  (1) 
-44.512527

>  <SMILES>  (1) 
CC1(C)C(Nc2ccc(-c3c[nH]c(Nc4ccc(O)cc4)[nH+]3)cc2)C[C@H]1O

$$$$
