Cc1ccc(CCc2ccc(C3=CC[N@@H+](C(c4ccccc4)c4ccccc4)CC3)cc2)cc1
     RDKit          3D

 68 72  0  0  1  0  0  0  0  0999 V2000
  135.0373  139.5383  167.1932 C   0  0  0  0  0  0  0  0  0  0  0  0
  135.5819  140.0009  165.8664 C   0  0  0  0  0  0  0  0  0  0  0  0
  135.9377  141.3249  165.6890 C   0  0  0  0  0  0  0  0  0  0  0  0
  136.4373  141.7491  164.4719 C   0  0  0  0  0  0  0  0  0  0  0  0
  136.5819  140.8494  163.4325 C   0  0  0  0  0  0  0  0  0  0  0  0
  137.1266  141.3119  162.1058 C   0  0  0  0  0  0  0  0  0  0  0  0
  135.9725  141.7739  161.2137 C   0  0  0  0  0  0  0  0  0  0  0  0
  135.0191  140.6278  160.9935 C   0  0  0  0  0  0  0  0  0  0  0  0
  133.9623  140.4342  161.8656 C   0  0  0  0  0  0  0  0  0  0  0  0
  133.0849  139.3877  161.6690 C   0  0  0  0  0  0  0  0  0  0  0  0
  133.2650  138.5240  160.5880 C   0  0  0  0  0  0  0  0  0  0  0  0
  132.3288  137.4008  160.3715 C   0  0  0  0  0  0  0  0  0  0  0  0
  132.7999  136.1725  160.3768 C   0  0  0  0  0  0  0  0  0  0  0  0
  131.9324  134.9642  160.1718 C   0  0  0  0  0  0  0  0  0  0  0  0
  130.6566  135.3485  159.5566 N   0  0  1  0  0  0  0  0  0  0  0  0
  130.8198  135.6725  158.6151 H   0  0  0  0  0  0  0  0  0  0  0  0
  129.7546  134.1893  159.5304 C   0  0  0  0  0  0  0  0  0  0  0  0
  128.4452  134.5858  158.8985 C   0  0  0  0  0  0  0  0  0  0  0  0
  127.2757  133.9531  159.2764 C   0  0  0  0  0  0  0  0  0  0  0  0
  126.0741  134.3198  158.7000 C   0  0  0  0  0  0  0  0  0  0  0  0
  126.0432  135.3126  157.7385 C   0  0  0  0  0  0  0  0  0  0  0  0
  127.2133  135.9420  157.3571 C   0  0  0  0  0  0  0  0  0  0  0  0
  128.4144  135.5782  157.9367 C   0  0  0  0  0  0  0  0  0  0  0  0
  130.3846  133.0807  158.7273 C   0  0  0  0  0  0  0  0  0  0  0  0
  130.1516  132.9939  157.3675 C   0  0  0  0  0  0  0  0  0  0  0  0
  130.7329  131.9794  156.6301 C   0  0  0  0  0  0  0  0  0  0  0  0
  131.5396  131.0462  157.2540 C   0  0  0  0  0  0  0  0  0  0  0  0
  131.7688  131.1303  158.6146 C   0  0  0  0  0  0  0  0  0  0  0  0
  131.1909  132.1472  159.3514 C   0  0  0  0  0  0  0  0  0  0  0  0
  130.0483  136.4279  160.3504 C   0  0  0  0  0  0  0  0  0  0  0  0
  130.8719  137.7031  160.1528 C   0  0  0  0  0  0  0  0  0  0  0  0
  134.3358  138.7217  159.7155 C   0  0  0  0  0  0  0  0  0  0  0  0
  135.2028  139.7755  159.9198 C   0  0  0  0  0  0  0  0  0  0  0  0
  136.2218  139.5264  163.6085 C   0  0  0  0  0  0  0  0  0  0  0  0
  135.7261  139.1012  164.8269 C   0  0  0  0  0  0  0  0  0  0  0  0
  133.9521  139.6406  167.1962 H   0  0  0  0  0  0  0  0  0  0  0  0
  135.3042  138.4934  167.3511 H   0  0  0  0  0  0  0  0  0  0  0  0
  135.4616  140.1464  167.9921 H   0  0  0  0  0  0  0  0  0  0  0  0
  135.8249  142.0279  166.5011 H   0  0  0  0  0  0  0  0  0  0  0  0
  136.7148  142.7837  164.3332 H   0  0  0  0  0  0  0  0  0  0  0  0
  137.6526  140.4890  161.6220 H   0  0  0  0  0  0  0  0  0  0  0  0
  137.8167  142.1405  162.2654 H   0  0  0  0  0  0  0  0  0  0  0  0
  136.3666  142.1085  160.2541 H   0  0  0  0  0  0  0  0  0  0  0  0
  135.4466  142.5970  161.6974 H   0  0  0  0  0  0  0  0  0  0  0  0
  133.8240  141.1034  162.7018 H   0  0  0  0  0  0  0  0  0  0  0  0
  132.2604  139.2376  162.3502 H   0  0  0  0  0  0  0  0  0  0  0  0
  133.8581  136.0266  160.5358 H   0  0  0  0  0  0  0  0  0  0  0  0
  131.7403  134.4908  161.1347 H   0  0  0  0  0  0  0  0  0  0  0  0
  132.4489  134.2593  159.5203 H   0  0  0  0  0  0  0  0  0  0  0  0
  129.5768  133.8443  160.5490 H   0  0  0  0  0  0  0  0  0  0  0  0
  127.3004  133.1746  160.0247 H   0  0  0  0  0  0  0  0  0  0  0  0
  125.1598  133.8283  158.9983 H   0  0  0  0  0  0  0  0  0  0  0  0
  125.1047  135.5967  157.2857 H   0  0  0  0  0  0  0  0  0  0  0  0
  127.1892  136.7176  156.6059 H   0  0  0  0  0  0  0  0  0  0  0  0
  129.3287  136.0697  157.6384 H   0  0  0  0  0  0  0  0  0  0  0  0
  129.5181  133.7206  156.8808 H   0  0  0  0  0  0  0  0  0  0  0  0
  130.5542  131.9139  155.5669 H   0  0  0  0  0  0  0  0  0  0  0  0
  131.9911  130.2518  156.6784 H   0  0  0  0  0  0  0  0  0  0  0  0
  132.3991  130.4012  159.1021 H   0  0  0  0  0  0  0  0  0  0  0  0
  131.3696  132.2127  160.4144 H   0  0  0  0  0  0  0  0  0  0  0  0
  129.0253  136.5973  160.0144 H   0  0  0  0  0  0  0  0  0  0  0  0
  130.0489  136.1517  161.4048 H   0  0  0  0  0  0  0  0  0  0  0  0
  130.7267  138.0756  159.1387 H   0  0  0  0  0  0  0  0  0  0  0  0
  130.5468  138.4596  160.8670 H   0  0  0  0  0  0  0  0  0  0  0  0
  134.4831  138.0540  158.8796 H   0  0  0  0  0  0  0  0  0  0  0  0
  136.0293  139.9322  159.2428 H   0  0  0  0  0  0  0  0  0  0  0  0
  136.3306  138.8243  162.7951 H   0  0  0  0  0  0  0  0  0  0  0  0
  135.4485  138.0668  164.9656 H   0  0  0  0  0  0  0  0  0  0  0  0
  1  2  1  0
  1 36  1  0
  1 37  1  0
  1 38  1  0
  2 35  2  0
  2  3  1  0
  3  4  2  0
  3 39  1  0
  4  5  1  0
  4 40  1  0
  5  6  1  0
  5 34  2  0
  6  7  1  0
  6 41  1  0
  6 42  1  0
  7  8  1  0
  7 43  1  0
  7 44  1  0
  8 33  1  0
  8  9  2  0
  9 10  1  0
  9 45  1  0
 10 11  2  0
 10 46  1  0
 11 12  1  0
 11 32  1  0
 12 31  1  0
 12 13  2  0
 13 14  1  0
 13 47  1  0
 14 15  1  0
 14 48  1  0
 14 49  1  0
 15 16  1  6
 15 17  1  0
 15 30  1  0
 17 18  1  0
 17 24  1  0
 17 50  1  0
 18 23  1  0
 18 19  2  0
 19 20  1  0
 19 51  1  0
 20 21  2  0
 20 52  1  0
 21 22  1  0
 21 53  1  0
 22 23  2  0
 22 54  1  0
 23 55  1  0
 24 29  1  0
 24 25  2  0
 25 26  1  0
 25 56  1  0
 26 27  2  0
 26 57  1  0
 27 28  1  0
 27 58  1  0
 28 29  2  0
 28 59  1  0
 29 60  1  0
 30 31  1  0
 30 61  1  0
 30 62  1  0
 31 63  1  0
 31 64  1  0
 32 33  2  0
 32 65  1  0
 33 66  1  0
 34 35  1  0
 34 67  1  0
 35 68  1  0
M  CHG  1  15   1
M  END
>  <DOCK_score>  (1) 
-62.528549

>  <SMILES>  (1) 
Cc1ccc(CCc2ccc(C3=CC[N@@H+](C(c4ccccc4)c4ccccc4)CC3)cc2)cc1

$$$$
