CCc1ccc([C@H](Nc2[nH]cc(-c3cccnc3)[nH+]2)c2cccnc2)cc1
     RDKit          3D

 49 52  0  0  1  0  0  0  0  0999 V2000
  131.1772  141.1707  162.2641 C   0  0  0  0  0  0  0  0  0  0  0  0
  129.8376  141.0403  161.5366 C   0  0  0  0  0  0  0  0  0  0  0  0
  129.6365  139.6100  161.1068 C   0  0  0  0  0  0  0  0  0  0  0  0
  129.0021  138.7174  161.9504 C   0  0  0  0  0  0  0  0  0  0  0  0
  128.8128  137.4067  161.5540 C   0  0  0  0  0  0  0  0  0  0  0  0
  129.2677  136.9859  160.3183 C   0  0  0  0  0  0  0  0  0  0  0  0
  129.0661  135.5556  159.8882 C   0  0  2  0  0  0  0  0  0  0  0  0
  129.0624  134.9093  160.7659 H   0  0  0  0  0  0  0  0  0  0  0  0
  130.1550  135.1571  158.9928 N   0  0  0  0  0  0  0  0  0  0  0  0
  130.1843  133.8772  158.4658 C   0  0  0  0  0  0  0  0  0  0  0  0
  129.6907  132.7608  159.0673 N   0  0  0  0  0  0  0  0  0  0  0  0
  129.2586  132.7188  159.9348 H   0  0  0  0  0  0  0  0  0  0  0  0
  129.9149  131.7044  158.2181 C   0  0  0  0  0  0  0  0  0  0  0  0
  130.5457  132.2040  157.1267 C   0  0  0  0  0  0  0  0  0  0  0  0
  130.9910  131.4273  155.9439 C   0  0  0  0  0  0  0  0  0  0  0  0
  131.0381  132.0224  154.6799 C   0  0  0  0  0  0  0  0  0  0  0  0
  131.4650  131.2564  153.6092 C   0  0  0  0  0  0  0  0  0  0  0  0
  131.8179  129.9357  153.8202 C   0  0  0  0  0  0  0  0  0  0  0  0
  131.7584  129.3999  155.0239 N   0  0  0  0  0  0  0  0  0  0  0  0
  131.3634  130.0909  156.0738 C   0  0  0  0  0  0  0  0  0  0  0  0
  130.6972  133.5400  157.3077 N   0  0  0  0  0  0  0  0  0  0  0  0
  131.1181  134.1485  156.6803 H   0  0  0  0  0  0  0  0  0  0  0  0
  127.7497  135.4293  159.1656 C   0  0  0  0  0  0  0  0  0  0  0  0
  126.7627  134.5828  159.6475 C   0  0  0  0  0  0  0  0  0  0  0  0
  125.5659  134.5019  158.9527 C   0  0  0  0  0  0  0  0  0  0  0  0
  125.4010  135.2548  157.8051 C   0  0  0  0  0  0  0  0  0  0  0  0
  126.3637  136.0455  157.3733 N   0  0  0  0  0  0  0  0  0  0  0  0
  127.5131  136.1509  158.0112 C   0  0  0  0  0  0  0  0  0  0  0  0
  129.9072  137.8770  159.4771 C   0  0  0  0  0  0  0  0  0  0  0  0
  130.0915  139.1891  159.8712 C   0  0  0  0  0  0  0  0  0  0  0  0
  131.9848  140.8757  161.5941 H   0  0  0  0  0  0  0  0  0  0  0  0
  131.1785  140.5240  163.1416 H   0  0  0  0  0  0  0  0  0  0  0  0
  131.3226  142.2054  162.5750 H   0  0  0  0  0  0  0  0  0  0  0  0
  129.0301  141.3353  162.2066 H   0  0  0  0  0  0  0  0  0  0  0  0
  129.8362  141.6869  160.6591 H   0  0  0  0  0  0  0  0  0  0  0  0
  128.6506  139.0452  162.9177 H   0  0  0  0  0  0  0  0  0  0  0  0
  128.3128  136.7106  162.2111 H   0  0  0  0  0  0  0  0  0  0  0  0
  130.8553  135.7898  158.7692 H   0  0  0  0  0  0  0  0  0  0  0  0
  129.6442  130.6730  158.3889 H   0  0  0  0  0  0  0  0  0  0  0  0
  130.7524  133.0550  154.5429 H   0  0  0  0  0  0  0  0  0  0  0  0
  131.5176  131.6838  152.6188 H   0  0  0  0  0  0  0  0  0  0  0  0
  132.1479  129.3340  152.9864 H   0  0  0  0  0  0  0  0  0  0  0  0
  131.3281  129.6173  157.0438 H   0  0  0  0  0  0  0  0  0  0  0  0
  126.9210  134.0035  160.5451 H   0  0  0  0  0  0  0  0  0  0  0  0
  124.7737  133.8559  159.3014 H   0  0  0  0  0  0  0  0  0  0  0  0
  124.4729  135.1948  157.2562 H   0  0  0  0  0  0  0  0  0  0  0  0
  128.2784  136.8092  157.6270 H   0  0  0  0  0  0  0  0  0  0  0  0
  130.2627  137.5482  158.5116 H   0  0  0  0  0  0  0  0  0  0  0  0
  130.5911  139.8854  159.2138 H   0  0  0  0  0  0  0  0  0  0  0  0
  1  2  1  0
  1 31  1  0
  1 32  1  0
  1 33  1  0
  2  3  1  0
  2 34  1  0
  2 35  1  0
  3 30  2  0
  3  4  1  0
  4  5  2  0
  4 36  1  0
  5  6  1  0
  5 37  1  0
  6  7  1  0
  6 29  2  0
  7  8  1  1
  7  9  1  0
  7 23  1  0
  9 38  1  0
 10  9  1  0
 10 21  2  0
 10 11  1  0
 11 12  1  0
 11 13  1  0
 13 14  2  0
 13 39  1  0
 14 15  1  0
 14 21  1  0
 15 20  1  0
 15 16  2  0
 16 17  1  0
 16 40  1  0
 17 18  2  0
 17 41  1  0
 18 19  1  0
 18 42  1  0
 19 20  2  0
 20 43  1  0
 21 22  1  0
 23 28  1  0
 23 24  2  0
 24 25  1  0
 24 44  1  0
 25 26  2  0
 25 45  1  0
 26 27  1  0
 26 46  1  0
 27 28  2  0
 28 47  1  0
 29 30  1  0
 29 48  1  0
 30 49  1  0
M  CHG  1  21   1
M  END
>  <DOCK_score>  (1) 
-60.764206

>  <SMILES>  (1) 
CCc1ccc([C@H](Nc2[nH]cc(-c3cccnc3)[nH+]2)c2cccnc2)cc1

$$$$
