Nc1ccc(-c2c[nH]c(N[C@@H](c3cnn4ccccc34)C(Cc3ccccc3)Cc3ccccc3)[nH+]2)cc1
     RDKit          3D

 69 74  0  0  1  0  0  0  0  0999 V2000
  131.2809  129.6903  152.1196 N   0  0  0  0  0  0  0  0  0  0  0  0
  131.1604  130.3578  153.3407 C   0  0  0  0  0  0  0  0  0  0  0  0
  130.6383  131.6452  153.3793 C   0  0  0  0  0  0  0  0  0  0  0  0
  130.5186  132.3062  154.5836 C   0  0  0  0  0  0  0  0  0  0  0  0
  130.9215  131.6818  155.7631 C   0  0  0  0  0  0  0  0  0  0  0  0
  130.7944  132.3910  157.0599 C   0  0  0  0  0  0  0  0  0  0  0  0
  130.5804  131.8131  158.2677 C   0  0  0  0  0  0  0  0  0  0  0  0
  130.5292  132.8293  159.1924 N   0  0  0  0  0  0  0  0  0  0  0  0
  130.3877  132.7310  160.1469 H   0  0  0  0  0  0  0  0  0  0  0  0
  130.7136  133.9984  158.5208 C   0  0  0  0  0  0  0  0  0  0  0  0
  130.7314  135.2606  159.0892 N   0  0  0  0  0  0  0  0  0  0  0  0
  130.5409  135.4163  160.5335 C   0  0  1  0  0  0  0  0  0  0  0  0
  129.7706  134.7248  160.8750 H   0  0  0  0  0  0  0  0  0  0  0  0
  131.8351  135.1184  161.2459 C   0  0  0  0  0  0  0  0  0  0  0  0
  133.0316  134.7525  160.6508 C   0  0  0  0  0  0  0  0  0  0  0  0
  133.9384  134.5757  161.5864 N   0  0  0  0  0  0  0  0  0  0  0  0
  133.3563  134.8233  162.8357 N   0  0  0  0  0  0  0  0  0  0  0  0
  133.8517  134.7815  164.1073 C   0  0  0  0  0  0  0  0  0  0  0  0
  133.0624  135.0705  165.1630 C   0  0  0  0  0  0  0  0  0  0  0  0
  131.7156  135.4197  164.9699 C   0  0  0  0  0  0  0  0  0  0  0  0
  131.2075  135.4659  163.7085 C   0  0  0  0  0  0  0  0  0  0  0  0
  132.0451  135.1612  162.6186 C   0  0  0  0  0  0  0  0  0  0  0  0
  130.1093  136.8520  160.8391 C   0  0  0  0  0  0  0  0  0  0  0  0
  131.1905  137.8227  160.3597 C   0  0  0  0  0  0  0  0  0  0  0  0
  131.0292  139.1435  161.0671 C   0  0  0  0  0  0  0  0  0  0  0  0
  130.2329  140.1301  160.5160 C   0  0  0  0  0  0  0  0  0  0  0  0
  130.0810  141.3398  161.1673 C   0  0  0  0  0  0  0  0  0  0  0  0
  130.7338  141.5669  162.3644 C   0  0  0  0  0  0  0  0  0  0  0  0
  131.5343  140.5825  162.9130 C   0  0  0  0  0  0  0  0  0  0  0  0
  131.6819  139.3706  162.2643 C   0  0  0  0  0  0  0  0  0  0  0  0
  128.7954  137.1545  160.1158 C   0  0  0  0  0  0  0  0  0  0  0  0
  127.7304  136.1986  160.5880 C   0  0  0  0  0  0  0  0  0  0  0  0
  127.5402  134.9968  159.9318 C   0  0  0  0  0  0  0  0  0  0  0  0
  126.5667  134.1177  160.3680 C   0  0  0  0  0  0  0  0  0  0  0  0
  125.7761  134.4450  161.4536 C   0  0  0  0  0  0  0  0  0  0  0  0
  125.9627  135.6490  162.1066 C   0  0  0  0  0  0  0  0  0  0  0  0
  126.9399  136.5259  161.6737 C   0  0  0  0  0  0  0  0  0  0  0  0
  130.8661  133.7328  157.2463 N   0  0  0  0  0  0  0  0  0  0  0  0
  131.0093  134.3906  156.5481 H   0  0  0  0  0  0  0  0  0  0  0  0
  131.4495  130.3923  155.7215 C   0  0  0  0  0  0  0  0  0  0  0  0
  131.5623  129.7332  154.5156 C   0  0  0  0  0  0  0  0  0  0  0  0
  131.0004  130.1254  151.2993 H   0  0  0  0  0  0  0  0  0  0  0  0
  131.6453  128.7918  152.0919 H   0  0  0  0  0  0  0  0  0  0  0  0
  130.3262  132.1285  152.4653 H   0  0  0  0  0  0  0  0  0  0  0  0
  130.1129  133.3066  154.6131 H   0  0  0  0  0  0  0  0  0  0  0  0
  130.4705  130.7571  158.4654 H   0  0  0  0  0  0  0  0  0  0  0  0
  130.8700  136.0419  158.5314 H   0  0  0  0  0  0  0  0  0  0  0  0
  133.1931  134.6314  159.5899 H   0  0  0  0  0  0  0  0  0  0  0  0
  134.8853  134.5144  164.2699 H   0  0  0  0  0  0  0  0  0  0  0  0
  133.4689  135.0334  166.1628 H   0  0  0  0  0  0  0  0  0  0  0  0
  131.0873  135.6508  165.8174 H   0  0  0  0  0  0  0  0  0  0  0  0
  130.1739  135.7325  163.5453 H   0  0  0  0  0  0  0  0  0  0  0  0
  129.9675  136.9679  161.9135 H   0  0  0  0  0  0  0  0  0  0  0  0
  132.1743  137.4093  160.5819 H   0  0  0  0  0  0  0  0  0  0  0  0
  131.0936  137.9722  159.2844 H   0  0  0  0  0  0  0  0  0  0  0  0
  129.7264  139.9542  159.5786 H   0  0  0  0  0  0  0  0  0  0  0  0
  129.4560  142.1091  160.7386 H   0  0  0  0  0  0  0  0  0  0  0  0
  130.6188  142.5138  162.8711 H   0  0  0  0  0  0  0  0  0  0  0  0
  132.0446  140.7600  163.8481 H   0  0  0  0  0  0  0  0  0  0  0  0
  132.3076  138.6015  162.6926 H   0  0  0  0  0  0  0  0  0  0  0  0
  128.4879  138.1774  160.3336 H   0  0  0  0  0  0  0  0  0  0  0  0
  128.9370  137.0388  159.0414 H   0  0  0  0  0  0  0  0  0  0  0  0
  128.1550  134.7430  159.0809 H   0  0  0  0  0  0  0  0  0  0  0  0
  126.4205  133.1772  159.8576 H   0  0  0  0  0  0  0  0  0  0  0  0
  125.0124  133.7602  161.7916 H   0  0  0  0  0  0  0  0  0  0  0  0
  125.3449  135.9049  162.9545 H   0  0  0  0  0  0  0  0  0  0  0  0
  127.0854  137.4667  162.1836 H   0  0  0  0  0  0  0  0  0  0  0  0
  131.7661  129.9083  156.6335 H   0  0  0  0  0  0  0  0  0  0  0  0
  131.9675  128.7326  154.4833 H   0  0  0  0  0  0  0  0  0  0  0  0
  1  2  1  0
  1 42  1  0
  1 43  1  0
  2 41  2  0
  2  3  1  0
  3  4  2  0
  3 44  1  0
  4  5  1  0
  4 45  1  0
  5  6  1  0
  5 40  2  0
  6 38  1  0
  6  7  2  0
  7  8  1  0
  7 46  1  0
  8  9  1  0
  8 10  1  0
 10 11  1  0
 10 38  2  0
 11 12  1  0
 11 47  1  0
 12 13  1  1
 12 14  1  0
 12 23  1  0
 14 22  2  0
 14 15  1  0
 15 16  2  0
 15 48  1  0
 16 17  1  0
 17 22  1  0
 17 18  1  0
 18 19  2  0
 18 49  1  0
 19 20  1  0
 19 50  1  0
 20 21  2  0
 20 51  1  0
 21 22  1  0
 21 52  1  0
 23 24  1  0
 23 31  1  0
 23 53  1  0
 24 25  1  0
 24 54  1  0
 24 55  1  0
 25 30  1  0
 25 26  2  0
 26 27  1  0
 26 56  1  0
 27 28  2  0
 27 57  1  0
 28 29  1  0
 28 58  1  0
 29 30  2  0
 29 59  1  0
 30 60  1  0
 31 32  1  0
 31 61  1  0
 31 62  1  0
 32 37  1  0
 32 33  2  0
 33 34  1  0
 33 63  1  0
 34 35  2  0
 34 64  1  0
 35 36  1  0
 35 65  1  0
 36 37  2  0
 36 66  1  0
 37 67  1  0
 38 39  1  0
 40 41  1  0
 40 68  1  0
 41 69  1  0
M  CHG  1  38   1
M  END
>  <DOCK_score>  (1) 
-66.659111

>  <SMILES>  (1) 
Nc1ccc(-c2c[nH]c(N[C@@H](c3cnn4ccccc34)C(Cc3ccccc3)Cc3ccccc3)[nH+]2)cc1

$$$$
