[NH3+][C@@H](C(=O)N[C@@H]1C[C@H]1O)c1cnn(-c2ccccc2)c1
     RDKit          3D

 37 39  0  0  1  0  0  0  0  0999 V2000
  130.0644  136.3406  158.7716 N   0  0  0  0  0  0  0  0  0  0  0  0
  129.4502  136.3842  157.9723 H   0  0  0  0  0  0  0  0  0  0  0  0
  130.0199  137.2123  159.2780 H   0  0  0  0  0  0  0  0  0  0  0  0
  131.0107  136.1802  158.4604 H   0  0  0  0  0  0  0  0  0  0  0  0
  129.6454  135.2413  159.6515 C   0  0  1  0  0  0  0  0  0  0  0  0
  130.3088  135.1941  160.5150 H   0  0  0  0  0  0  0  0  0  0  0  0
  128.2321  135.4807  160.1163 C   0  0  0  0  0  0  0  0  0  0  0  0
  127.3335  135.5664  159.3062 O   0  0  0  0  0  0  0  0  0  0  0  0
  127.9666  135.5997  161.4324 N   0  0  0  0  0  0  0  0  0  0  0  0
  126.5927  135.8326  161.8843 C   0  0  2  0  0  0  0  0  0  0  0  0
  125.9570  136.3841  161.1915 H   0  0  0  0  0  0  0  0  0  0  0  0
  126.3701  136.0594  163.3809 C   0  0  0  0  0  0  0  0  0  0  0  0
  125.9338  134.7431  162.7328 C   0  0  1  0  0  0  0  0  0  0  0  0
  126.5227  133.8531  162.9549 H   0  0  0  0  0  0  0  0  0  0  0  0
  124.5323  134.5266  162.5566 O   0  0  0  0  0  0  0  0  0  0  0  0
  129.7118  133.9395  158.8953 C   0  0  0  0  0  0  0  0  0  0  0  0
  129.3881  132.6759  159.4019 C   0  0  0  0  0  0  0  0  0  0  0  0
  129.5697  131.7947  158.4516 N   0  0  0  0  0  0  0  0  0  0  0  0
  130.0099  132.4703  157.3060 N   0  0  0  0  0  0  0  0  0  0  0  0
  130.3125  131.8856  156.0684 C   0  0  0  0  0  0  0  0  0  0  0  0
  130.1281  132.6053  154.8954 C   0  0  0  0  0  0  0  0  0  0  0  0
  130.4321  132.0282  153.6779 C   0  0  0  0  0  0  0  0  0  0  0  0
  130.9098  130.7315  153.6257 C   0  0  0  0  0  0  0  0  0  0  0  0
  131.0889  130.0103  154.7919 C   0  0  0  0  0  0  0  0  0  0  0  0
  130.7916  130.5837  156.0127 C   0  0  0  0  0  0  0  0  0  0  0  0
  130.0945  133.7861  157.6064 C   0  0  0  0  0  0  0  0  0  0  0  0
  128.6852  135.5312  162.0803 H   0  0  0  0  0  0  0  0  0  0  0  0
  127.2458  136.0355  164.0293 H   0  0  0  0  0  0  0  0  0  0  0  0
  125.5877  136.7601  163.6728 H   0  0  0  0  0  0  0  0  0  0  0  0
  123.9875  135.3017  162.7497 H   0  0  0  0  0  0  0  0  0  0  0  0
  129.0476  132.4643  160.4046 H   0  0  0  0  0  0  0  0  0  0  0  0
  129.7514  133.6166  154.9352 H   0  0  0  0  0  0  0  0  0  0  0  0
  130.2926  132.5888  152.7654 H   0  0  0  0  0  0  0  0  0  0  0  0
  131.1429  130.2810  152.6723 H   0  0  0  0  0  0  0  0  0  0  0  0
  131.4613  128.9975  154.7480 H   0  0  0  0  0  0  0  0  0  0  0  0
  130.9314  130.0199  156.9232 H   0  0  0  0  0  0  0  0  0  0  0  0
  130.4068  134.5737  156.9367 H   0  0  0  0  0  0  0  0  0  0  0  0
  1  2  1  0
  1  3  1  0
  1  4  1  0
  1  5  1  0
  5  6  1  1
  5  7  1  0
  5 16  1  0
  7  8  2  0
  7  9  1  0
  9 10  1  0
  9 27  1  0
 10 11  1  6
 10 13  1  0
 10 12  1  0
 12 13  1  0
 12 28  1  0
 12 29  1  0
 13 14  1  1
 13 15  1  0
 15 30  1  0
 16 26  2  0
 16 17  1  0
 17 18  2  0
 17 31  1  0
 18 19  1  0
 19 20  1  0
 19 26  1  0
 20 25  1  0
 20 21  2  0
 21 22  1  0
 21 32  1  0
 22 23  2  0
 22 33  1  0
 23 24  1  0
 23 34  1  0
 24 25  2  0
 24 35  1  0
 25 36  1  0
 26 37  1  0
M  CHG  1   1   1
M  END
>  <DOCK_score>  (1) 
-43.311241

>  <SMILES>  (1) 
[NH3+][C@@H](C(=O)N[C@@H]1C[C@H]1O)c1cnn(-c2ccccc2)c1

$$$$
