N#Cc1cccc([C@@H](O)C[NH+]=C(NC2CC=CC2)N[C@H]2C[C@@H](O)C2)c1
     RDKit          3D

 50 52  0  0  1  0  0  0  0  0999 V2000
  136.9560  137.2279  162.3945 N   0  0  0  0  0  0  0  0  0  0  0  0
  135.9723  137.5223  161.9087 C   0  0  0  0  0  0  0  0  0  0  0  0
  134.7323  137.8934  161.2963 C   0  0  0  0  0  0  0  0  0  0  0  0
  134.6821  138.9727  160.4117 C   0  0  0  0  0  0  0  0  0  0  0  0
  133.4841  139.3251  159.8258 C   0  0  0  0  0  0  0  0  0  0  0  0
  132.3337  138.6117  160.1128 C   0  0  0  0  0  0  0  0  0  0  0  0
  132.3761  137.5414  160.9884 C   0  0  0  0  0  0  0  0  0  0  0  0
  131.1179  136.7706  161.2947 C   0  0  1  0  0  0  0  0  0  0  0  0
  131.3447  135.9700  161.9987 H   0  0  0  0  0  0  0  0  0  0  0  0
  130.1487  137.6496  161.8691 O   0  0  0  0  0  0  0  0  0  0  0  0
  130.5598  136.1706  160.0027 C   0  0  0  0  0  0  0  0  0  0  0  0
  129.3368  135.4212  160.3007 N   0  0  0  0  0  0  0  0  0  0  0  0
  128.7707  135.6913  161.0404 H   0  0  0  0  0  0  0  0  0  0  0  0
  129.0123  134.3884  159.5748 C   0  0  0  0  0  0  0  0  0  0  0  0
  129.8177  134.0022  158.5297 N   0  0  0  0  0  0  0  0  0  0  0  0
  129.8859  132.5916  158.1398 C   0  0  0  0  0  0  0  0  0  0  0  0
  130.5746  131.7455  159.2358 C   0  0  0  0  0  0  0  0  0  0  0  0
  131.3914  130.7255  158.4760 C   0  0  0  0  0  0  0  0  0  0  0  0
  131.5406  131.0776  157.2279 C   0  0  0  0  0  0  0  0  0  0  0  0
  130.8491  132.3914  156.9469 C   0  0  0  0  0  0  0  0  0  0  0  0
  127.8645  133.6851  159.8545 N   0  0  0  0  0  0  0  0  0  0  0  0
  127.0063  134.0967  160.9683 C   0  0  1  0  0  0  0  0  0  0  0  0
  127.5207  134.0758  161.9290 H   0  0  0  0  0  0  0  0  0  0  0  0
  126.2429  135.4057  160.7066 C   0  0  0  0  0  0  0  0  0  0  0  0
  125.0361  134.7477  161.3961 C   0  0  1  0  0  0  0  0  0  0  0  0
  125.0106  134.9042  162.4746 H   0  0  0  0  0  0  0  0  0  0  0  0
  123.7879  135.0353  160.7627 O   0  0  0  0  0  0  0  0  0  0  0  0
  125.6386  133.3941  160.9842 C   0  0  0  0  0  0  0  0  0  0  0  0
  133.5665  137.1817  161.5858 C   0  0  0  0  0  0  0  0  0  0  0  0
  135.5792  139.5305  160.1870 H   0  0  0  0  0  0  0  0  0  0  0  0
  133.4439  140.1598  159.1416 H   0  0  0  0  0  0  0  0  0  0  0  0
  131.3983  138.8921  159.6515 H   0  0  0  0  0  0  0  0  0  0  0  0
  130.4354  138.0668  162.6929 H   0  0  0  0  0  0  0  0  0  0  0  0
  131.2993  135.4999  159.5645 H   0  0  0  0  0  0  0  0  0  0  0  0
  130.3331  136.9712  159.2986 H   0  0  0  0  0  0  0  0  0  0  0  0
  130.3406  134.6637  158.0503 H   0  0  0  0  0  0  0  0  0  0  0  0
  128.8936  132.2027  157.9110 H   0  0  0  0  0  0  0  0  0  0  0  0
  131.2236  132.3721  159.8474 H   0  0  0  0  0  0  0  0  0  0  0  0
  129.8289  131.2494  159.8570 H   0  0  0  0  0  0  0  0  0  0  0  0
  131.7974  129.8232  158.9088 H   0  0  0  0  0  0  0  0  0  0  0  0
  132.0863  130.5049  156.4927 H   0  0  0  0  0  0  0  0  0  0  0  0
  130.2902  132.3342  156.0129 H   0  0  0  0  0  0  0  0  0  0  0  0
  131.5753  133.2032  156.9047 H   0  0  0  0  0  0  0  0  0  0  0  0
  127.6229  132.9165  159.3144 H   0  0  0  0  0  0  0  0  0  0  0  0
  126.6436  136.2611  161.2504 H   0  0  0  0  0  0  0  0  0  0  0  0
  126.0817  135.6133  159.6487 H   0  0  0  0  0  0  0  0  0  0  0  0
  123.5710  135.9771  160.7305 H   0  0  0  0  0  0  0  0  0  0  0  0
  125.3121  133.0516  160.0023 H   0  0  0  0  0  0  0  0  0  0  0  0
  125.5514  132.6256  161.7522 H   0  0  0  0  0  0  0  0  0  0  0  0
  133.5974  136.3487  162.2725 H   0  0  0  0  0  0  0  0  0  0  0  0
  1  2  3  0
  2  3  1  0
  3 29  2  0
  3  4  1  0
  4  5  2  0
  4 30  1  0
  5  6  1  0
  5 31  1  0
  6  7  2  0
  6 32  1  0
  7  8  1  0
  7 29  1  0
  8  9  1  1
  8 10  1  0
  8 11  1  0
 10 33  1  0
 11 12  1  0
 11 34  1  0
 11 35  1  0
 12 13  1  0
 14 12  2  0
 14 15  1  0
 14 21  1  0
 15 16  1  0
 15 36  1  0
 16 20  1  0
 16 17  1  0
 16 37  1  0
 17 18  1  0
 17 38  1  0
 17 39  1  0
 18 19  2  0
 18 40  1  0
 19 20  1  0
 19 41  1  0
 20 42  1  0
 20 43  1  0
 21 22  1  0
 21 44  1  0
 22 23  1  1
 22 28  1  0
 22 24  1  0
 24 25  1  0
 24 45  1  0
 24 46  1  0
 25 26  1  1
 25 27  1  0
 25 28  1  0
 27 47  1  0
 28 48  1  0
 28 49  1  0
 29 50  1  0
M  CHG  1  12   1
M  END
>  <DOCK_score>  (1) 
-42.226002

>  <SMILES>  (1) 
N#Cc1cccc([C@@H](O)C[NH+]=C(NC2CC=CC2)N[C@H]2C[C@@H](O)C2)c1

$$$$
