O=C1NCC1=Cc1ccc(C(O)c2cccc([C@@H](c3cccnc3)[NH+]3CC(O)C4(CCC4)C3)c2)cc1
     RDKit          3D

 68 73  0  0  1  0  0  0  0  0999 V2000
  132.6982  138.3981  162.5756 O   0  0  0  0  0  0  0  0  0  0  0  0
  133.2525  139.4815  162.5623 C   0  0  0  0  0  0  0  0  0  0  0  0
  134.4750  139.8992  162.1480 N   0  0  0  0  0  0  0  0  0  0  0  0
  134.2143  141.2961  162.5332 C   0  0  0  0  0  0  0  0  0  0  0  0
  132.8484  140.8306  162.9894 C   0  0  0  0  0  0  0  0  0  0  0  0
  131.7566  141.3955  163.5428 C   0  0  0  0  0  0  0  0  0  0  0  0
  130.5195  140.6123  163.6946 C   0  0  0  0  0  0  0  0  0  0  0  0
  129.9735  140.4000  164.9643 C   0  0  0  0  0  0  0  0  0  0  0  0
  128.8144  139.6652  165.0984 C   0  0  0  0  0  0  0  0  0  0  0  0
  128.1918  139.1381  163.9803 C   0  0  0  0  0  0  0  0  0  0  0  0
  126.9256  138.3359  164.1358 C   0  0  1  0  0  0  0  0  0  0  0  0
  126.1179  138.4893  162.9669 O   0  0  0  0  0  0  0  0  0  0  0  0
  127.2721  136.8808  164.3195 C   0  0  0  0  0  0  0  0  0  0  0  0
  127.4753  136.3735  165.5894 C   0  0  0  0  0  0  0  0  0  0  0  0
  127.7880  135.0378  165.7581 C   0  0  0  0  0  0  0  0  0  0  0  0
  127.9087  134.2116  164.6562 C   0  0  0  0  0  0  0  0  0  0  0  0
  127.7109  134.7199  163.3862 C   0  0  0  0  0  0  0  0  0  0  0  0
  127.8426  133.8193  162.1851 C   0  0  1  0  0  0  0  0  0  0  0  0
  128.5661  133.0325  162.3985 H   0  0  0  0  0  0  0  0  0  0  0  0
  126.5048  133.2001  161.8725 C   0  0  0  0  0  0  0  0  0  0  0  0
  126.3481  131.8223  161.8874 C   0  0  0  0  0  0  0  0  0  0  0  0
  125.0993  131.2970  161.5934 C   0  0  0  0  0  0  0  0  0  0  0  0
  124.0593  132.1579  161.2973 C   0  0  0  0  0  0  0  0  0  0  0  0
  124.2448  133.4633  161.2925 N   0  0  0  0  0  0  0  0  0  0  0  0
  125.4173  133.9981  161.5729 C   0  0  0  0  0  0  0  0  0  0  0  0
  128.2999  134.6053  161.0315 N   0  0  1  0  0  0  0  0  0  0  0  0
  127.6398  135.3389  160.8210 H   0  0  0  0  0  0  0  0  0  0  0  0
  129.6461  135.1782  161.2945 C   0  0  0  0  0  0  0  0  0  0  0  0
  130.2342  135.4546  159.8914 C   0  0  1  0  0  0  0  0  0  0  0  0
  131.6340  135.1680  159.8728 O   0  0  0  0  0  0  0  0  0  0  0  0
  129.4804  134.4984  158.9591 C   0  0  0  0  0  0  0  0  0  0  0  0
  130.3535  133.6433  158.0421 C   0  0  0  0  0  0  0  0  0  0  0  0
  129.2687  133.8420  156.9678 C   0  0  0  0  0  0  0  0  0  0  0  0
  128.8772  135.1343  157.7075 C   0  0  0  0  0  0  0  0  0  0  0  0
  128.4942  133.7257  159.8475 C   0  0  0  0  0  0  0  0  0  0  0  0
  127.3925  136.0548  163.2178 C   0  0  0  0  0  0  0  0  0  0  0  0
  128.7263  139.3435  162.7203 C   0  0  0  0  0  0  0  0  0  0  0  0
  129.8845  140.0763  162.5698 C   0  0  0  0  0  0  0  0  0  0  0  0
  135.2361  139.4471  161.7515 H   0  0  0  0  0  0  0  0  0  0  0  0
  134.1819  141.9839  161.6882 H   0  0  0  0  0  0  0  0  0  0  0  0
  134.8481  141.6526  163.3453 H   0  0  0  0  0  0  0  0  0  0  0  0
  131.7896  142.4227  163.8746 H   0  0  0  0  0  0  0  0  0  0  0  0
  130.4580  140.8111  165.8377 H   0  0  0  0  0  0  0  0  0  0  0  0
  128.3889  139.5044  166.0778 H   0  0  0  0  0  0  0  0  0  0  0  0
  126.3752  138.6910  165.0069 H   0  0  0  0  0  0  0  0  0  0  0  0
  125.2848  137.9992  162.9974 H   0  0  0  0  0  0  0  0  0  0  0  0
  127.3857  137.0199  166.4499 H   0  0  0  0  0  0  0  0  0  0  0  0
  127.9423  134.6404  166.7504 H   0  0  0  0  0  0  0  0  0  0  0  0
  128.1576  133.1687  164.7877 H   0  0  0  0  0  0  0  0  0  0  0  0
  127.1793  131.1739  162.1221 H   0  0  0  0  0  0  0  0  0  0  0  0
  124.9411  130.2286  161.5961 H   0  0  0  0  0  0  0  0  0  0  0  0
  123.0834  131.7567  161.0668 H   0  0  0  0  0  0  0  0  0  0  0  0
  125.5298  135.0722  161.5639 H   0  0  0  0  0  0  0  0  0  0  0  0
  129.5604  136.1060  161.8601 H   0  0  0  0  0  0  0  0  0  0  0  0
  130.2654  134.4612  161.8335 H   0  0  0  0  0  0  0  0  0  0  0  0
  130.0535  136.4895  159.6009 H   0  0  0  0  0  0  0  0  0  0  0  0
  132.0516  135.3024  159.0110 H   0  0  0  0  0  0  0  0  0  0  0  0
  131.3080  134.1057  157.7907 H   0  0  0  0  0  0  0  0  0  0  0  0
  130.4561  132.6102  158.3743 H   0  0  0  0  0  0  0  0  0  0  0  0
  128.4922  133.0772  156.9853 H   0  0  0  0  0  0  0  0  0  0  0  0
  129.6702  134.0156  155.9694 H   0  0  0  0  0  0  0  0  0  0  0  0
  127.8006  135.2922  157.7724 H   0  0  0  0  0  0  0  0  0  0  0  0
  129.4161  136.0166  157.3618 H   0  0  0  0  0  0  0  0  0  0  0  0
  128.9230  132.7699  160.1491 H   0  0  0  0  0  0  0  0  0  0  0  0
  127.5488  133.5728  159.3270 H   0  0  0  0  0  0  0  0  0  0  0  0
  127.2383  136.4521  162.2256 H   0  0  0  0  0  0  0  0  0  0  0  0
  128.2348  138.9288  161.8526 H   0  0  0  0  0  0  0  0  0  0  0  0
  130.3004  140.2358  161.5860 H   0  0  0  0  0  0  0  0  0  0  0  0
  1  2  2  0
  2  5  1  0
  2  3  1  0
  3  4  1  0
  3 39  1  0
  4  5  1  0
  4 40  1  0
  4 41  1  0
  5  6  2  0
  6  7  1  0
  6 42  1  0
  7 38  1  0
  7  8  2  0
  8  9  1  0
  8 43  1  0
  9 10  2  0
  9 44  1  0
 10 11  1  0
 10 37  1  0
 11 12  1  0
 11 13  1  0
 11 45  1  1
 12 46  1  0
 13 36  1  0
 13 14  2  0
 14 15  1  0
 14 47  1  0
 15 16  2  0
 15 48  1  0
 16 17  1  0
 16 49  1  0
 17 18  1  0
 17 36  2  0
 18 19  1  1
 18 20  1  0
 18 26  1  0
 20 25  1  0
 20 21  2  0
 21 22  1  0
 21 50  1  0
 22 23  2  0
 22 51  1  0
 23 24  1  0
 23 52  1  0
 24 25  2  0
 25 53  1  0
 26 27  1  6
 26 35  1  0
 26 28  1  0
 28 29  1  0
 28 54  1  0
 28 55  1  0
 29 30  1  0
 29 31  1  0
 29 56  1  6
 30 57  1  0
 31 34  1  0
 31 32  1  0
 31 35  1  0
 32 33  1  0
 32 58  1  0
 32 59  1  0
 33 34  1  0
 33 60  1  0
 33 61  1  0
 34 62  1  0
 34 63  1  0
 35 64  1  0
 35 65  1  0
 36 66  1  0
 37 38  2  0
 37 67  1  0
 38 68  1  0
M  CHG  1  26   1
M  END
>  <DOCK_score>  (1) 
-46.651775

>  <SMILES>  (1) 
O=C1NCC1=Cc1ccc(C(O)c2cccc([C@@H](c3cccnc3)[NH+]3CC(O)C4(CCC4)C3)c2)cc1

$$$$
