CCc1ccc(-c2c[nH]c(N[C@@H](C#Cc3ccccc3)c3ccccc3)[nH+]2)cc1
     RDKit          3D

 53 56  0  0  1  0  0  0  0  0999 V2000
  130.7754  129.1102  151.6362 C   0  0  0  0  0  0  0  0  0  0  0  0
  132.0018  129.6213  152.3951 C   0  0  0  0  0  0  0  0  0  0  0  0
  131.5564  130.3505  153.6365 C   0  0  0  0  0  0  0  0  0  0  0  0
  131.3976  129.6574  154.8230 C   0  0  0  0  0  0  0  0  0  0  0  0
  130.9955  130.3210  155.9642 C   0  0  0  0  0  0  0  0  0  0  0  0
  130.7383  131.6900  155.9170 C   0  0  0  0  0  0  0  0  0  0  0  0
  130.3005  132.4079  157.1390 C   0  0  0  0  0  0  0  0  0  0  0  0
  129.5867  131.8782  158.1632 C   0  0  0  0  0  0  0  0  0  0  0  0
  129.4007  132.8832  159.0811 N   0  0  0  0  0  0  0  0  0  0  0  0
  128.9249  132.8112  159.9233 H   0  0  0  0  0  0  0  0  0  0  0  0
  130.0069  133.9986  158.5906 C   0  0  0  0  0  0  0  0  0  0  0  0
  130.0495  135.2336  159.2145 N   0  0  0  0  0  0  0  0  0  0  0  0
  128.9552  135.6471  160.0963 C   0  0  1  0  0  0  0  0  0  0  0  0
  128.8650  134.9389  160.9199 H   0  0  0  0  0  0  0  0  0  0  0  0
  129.2366  136.9892  160.6315 C   0  0  0  0  0  0  0  0  0  0  0  0
  129.4610  138.0595  161.0585 C   0  0  0  0  0  0  0  0  0  0  0  0
  129.7348  139.3651  161.5792 C   0  0  0  0  0  0  0  0  0  0  0  0
  130.9092  140.0291  161.2233 C   0  0  0  0  0  0  0  0  0  0  0  0
  131.1649  141.2888  161.7251 C   0  0  0  0  0  0  0  0  0  0  0  0
  130.2645  141.8893  162.5868 C   0  0  0  0  0  0  0  0  0  0  0  0
  129.1008  141.2340  162.9478 C   0  0  0  0  0  0  0  0  0  0  0  0
  128.8310  139.9761  162.4491 C   0  0  0  0  0  0  0  0  0  0  0  0
  127.6659  135.6775  159.3165 C   0  0  0  0  0  0  0  0  0  0  0  0
  126.4668  135.4165  159.9530 C   0  0  0  0  0  0  0  0  0  0  0  0
  125.2839  135.4484  159.2384 C   0  0  0  0  0  0  0  0  0  0  0  0
  125.3008  135.7331  157.8858 C   0  0  0  0  0  0  0  0  0  0  0  0
  126.5004  135.9888  157.2483 C   0  0  0  0  0  0  0  0  0  0  0  0
  127.6831  135.9608  157.9637 C   0  0  0  0  0  0  0  0  0  0  0  0
  130.5484  133.7091  157.4326 N   0  0  0  0  0  0  0  0  0  0  0  0
  131.0450  134.3271  156.8737 H   0  0  0  0  0  0  0  0  0  0  0  0
  130.8946  132.3822  154.7173 C   0  0  0  0  0  0  0  0  0  0  0  0
  131.3026  131.7093  153.5836 C   0  0  0  0  0  0  0  0  0  0  0  0
  130.1443  129.9533  151.3556 H   0  0  0  0  0  0  0  0  0  0  0  0
  131.0977  128.5827  150.7384 H   0  0  0  0  0  0  0  0  0  0  0  0
  130.2108  128.4302  152.2742 H   0  0  0  0  0  0  0  0  0  0  0  0
  132.6329  128.7780  152.6757 H   0  0  0  0  0  0  0  0  0  0  0  0
  132.5665  130.3012  151.7571 H   0  0  0  0  0  0  0  0  0  0  0  0
  131.5925  128.5957  154.8573 H   0  0  0  0  0  0  0  0  0  0  0  0
  130.8763  129.7799  156.8913 H   0  0  0  0  0  0  0  0  0  0  0  0
  129.2320  130.8612  158.2419 H   0  0  0  0  0  0  0  0  0  0  0  0
  130.8042  135.8252  159.0679 H   0  0  0  0  0  0  0  0  0  0  0  0
  131.6147  139.5599  160.5536 H   0  0  0  0  0  0  0  0  0  0  0  0
  132.0716  141.8056  161.4471 H   0  0  0  0  0  0  0  0  0  0  0  0
  130.4712  142.8737  162.9799 H   0  0  0  0  0  0  0  0  0  0  0  0
  128.4024  141.7078  163.6214 H   0  0  0  0  0  0  0  0  0  0  0  0
  127.9223  139.4654  162.7319 H   0  0  0  0  0  0  0  0  0  0  0  0
  126.4539  135.1909  161.0090 H   0  0  0  0  0  0  0  0  0  0  0  0
  124.3466  135.2482  159.7365 H   0  0  0  0  0  0  0  0  0  0  0  0
  124.3769  135.7553  157.3271 H   0  0  0  0  0  0  0  0  0  0  0  0
  126.5138  136.2108  156.1915 H   0  0  0  0  0  0  0  0  0  0  0  0
  128.6201  136.1606  157.4656 H   0  0  0  0  0  0  0  0  0  0  0  0
  130.6965  133.4431  154.6750 H   0  0  0  0  0  0  0  0  0  0  0  0
  131.4238  132.2445  152.6535 H   0  0  0  0  0  0  0  0  0  0  0  0
  1  2  1  0
  1 33  1  0
  1 34  1  0
  1 35  1  0
  2  3  1  0
  2 36  1  0
  2 37  1  0
  3 32  2  0
  3  4  1  0
  4  5  2  0
  4 38  1  0
  5  6  1  0
  5 39  1  0
  6  7  1  0
  6 31  2  0
  7 29  1  0
  7  8  2  0
  8  9  1  0
  8 40  1  0
  9 10  1  0
  9 11  1  0
 11 12  1  0
 11 29  2  0
 12 13  1  0
 12 41  1  0
 13 14  1  1
 13 15  1  0
 13 23  1  0
 15 16  3  0
 16 17  1  0
 17 22  1  0
 17 18  2  0
 18 19  1  0
 18 42  1  0
 19 20  2  0
 19 43  1  0
 20 21  1  0
 20 44  1  0
 21 22  2  0
 21 45  1  0
 22 46  1  0
 23 28  1  0
 23 24  2  0
 24 25  1  0
 24 47  1  0
 25 26  2  0
 25 48  1  0
 26 27  1  0
 26 49  1  0
 27 28  2  0
 27 50  1  0
 28 51  1  0
 29 30  1  0
 31 32  1  0
 31 52  1  0
 32 53  1  0
M  CHG  1  29   1
M  END
>  <DOCK_score>  (1) 
-59.999298

>  <SMILES>  (1) 
CCc1ccc(-c2c[nH]c(N[C@@H](C#Cc3ccccc3)c3ccccc3)[nH+]2)cc1

$$$$
