CCc1ccc(-c2c[nH]c(N[C@@H](c3ccc(-c4ccccc4)cc3)c3ccccc3N)[nH+]2)cc1
     RDKit          3D

 63 67  0  0  1  0  0  0  0  0999 V2000
  129.6435  128.7898  150.8573 C   0  0  0  0  0  0  0  0  0  0  0  0
  130.8977  129.6082  151.1704 C   0  0  0  0  0  0  0  0  0  0  0  0
  130.7906  130.1797  152.5607 C   0  0  0  0  0  0  0  0  0  0  0  0
  131.2715  129.4608  153.6397 C   0  0  0  0  0  0  0  0  0  0  0  0
  131.1814  129.9815  154.9147 C   0  0  0  0  0  0  0  0  0  0  0  0
  130.5941  131.2295  155.1149 C   0  0  0  0  0  0  0  0  0  0  0  0
  130.4893  131.7920  156.4835 C   0  0  0  0  0  0  0  0  0  0  0  0
  129.8355  131.2292  157.5298 C   0  0  0  0  0  0  0  0  0  0  0  0
  129.9899  132.0775  158.5992 N   0  0  0  0  0  0  0  0  0  0  0  0
  129.6338  131.9470  159.4920 H   0  0  0  0  0  0  0  0  0  0  0  0
  130.7343  133.1347  158.1748 C   0  0  0  0  0  0  0  0  0  0  0  0
  131.1153  134.2159  158.9508 N   0  0  0  0  0  0  0  0  0  0  0  0
  130.7134  134.2855  160.3579 C   0  0  1  0  0  0  0  0  0  0  0  0
  130.7907  133.2955  160.8072 H   0  0  0  0  0  0  0  0  0  0  0  0
  131.6173  135.2423  161.0918 C   0  0  0  0  0  0  0  0  0  0  0  0
  131.2842  136.5827  161.1696 C   0  0  0  0  0  0  0  0  0  0  0  0
  132.1061  137.4623  161.8445 C   0  0  0  0  0  0  0  0  0  0  0  0
  133.2786  136.9997  162.4395 C   0  0  0  0  0  0  0  0  0  0  0  0
  134.1690  137.9424  163.1610 C   0  0  0  0  0  0  0  0  0  0  0  0
  135.5408  137.7049  163.2156 C   0  0  0  0  0  0  0  0  0  0  0  0
  136.3651  138.5872  163.8842 C   0  0  0  0  0  0  0  0  0  0  0  0
  135.8305  139.6992  164.5088 C   0  0  0  0  0  0  0  0  0  0  0  0
  134.4685  139.9374  164.4620 C   0  0  0  0  0  0  0  0  0  0  0  0
  133.6355  139.0646  163.7916 C   0  0  0  0  0  0  0  0  0  0  0  0
  133.6115  135.6499  162.3532 C   0  0  0  0  0  0  0  0  0  0  0  0
  132.7798  134.7780  161.6803 C   0  0  0  0  0  0  0  0  0  0  0  0
  129.2891  134.7692  160.4501 C   0  0  0  0  0  0  0  0  0  0  0  0
  128.7846  135.6215  159.4872 C   0  0  0  0  0  0  0  0  0  0  0  0
  127.4765  136.0620  159.5686 C   0  0  0  0  0  0  0  0  0  0  0  0
  126.6720  135.6595  160.6191 C   0  0  0  0  0  0  0  0  0  0  0  0
  127.1715  134.8118  161.5878 C   0  0  0  0  0  0  0  0  0  0  0  0
  128.4839  134.3631  161.5064 C   0  0  0  0  0  0  0  0  0  0  0  0
  128.9926  133.5059  162.4849 N   0  0  0  0  0  0  0  0  0  0  0  0
  131.0357  132.9577  156.9115 N   0  0  0  0  0  0  0  0  0  0  0  0
  131.5631  133.5645  156.3688 H   0  0  0  0  0  0  0  0  0  0  0  0
  130.1060  131.9473  154.0244 C   0  0  0  0  0  0  0  0  0  0  0  0
  130.2067  131.4193  152.7533 C   0  0  0  0  0  0  0  0  0  0  0  0
  129.7209  128.3766  149.8517 H   0  0  0  0  0  0  0  0  0  0  0  0
  129.5514  127.9772  151.5779 H   0  0  0  0  0  0  0  0  0  0  0  0
  128.7651  129.4321  150.9198 H   0  0  0  0  0  0  0  0  0  0  0  0
  131.7759  128.9667  151.1076 H   0  0  0  0  0  0  0  0  0  0  0  0
  130.9896  130.4216  150.4494 H   0  0  0  0  0  0  0  0  0  0  0  0
  131.7221  128.4918  153.4839 H   0  0  0  0  0  0  0  0  0  0  0  0
  131.5614  129.4212  155.7561 H   0  0  0  0  0  0  0  0  0  0  0  0
  129.2963  130.2935  157.5234 H   0  0  0  0  0  0  0  0  0  0  0  0
  131.6486  134.9274  158.5630 H   0  0  0  0  0  0  0  0  0  0  0  0
  130.3776  136.9405  160.7048 H   0  0  0  0  0  0  0  0  0  0  0  0
  131.8432  138.5080  161.9080 H   0  0  0  0  0  0  0  0  0  0  0  0
  135.9590  136.8345  162.7321 H   0  0  0  0  0  0  0  0  0  0  0  0
  137.4291  138.4063  163.9238 H   0  0  0  0  0  0  0  0  0  0  0  0
  136.4783  140.3851  165.0345 H   0  0  0  0  0  0  0  0  0  0  0  0
  134.0561  140.8073  164.9514 H   0  0  0  0  0  0  0  0  0  0  0  0
  132.5723  139.2509  163.7562 H   0  0  0  0  0  0  0  0  0  0  0  0
  134.5188  135.2862  162.8125 H   0  0  0  0  0  0  0  0  0  0  0  0
  133.0369  133.7311  161.6133 H   0  0  0  0  0  0  0  0  0  0  0  0
  129.4115  135.9412  158.6681 H   0  0  0  0  0  0  0  0  0  0  0  0
  127.0832  136.7247  158.8119 H   0  0  0  0  0  0  0  0  0  0  0  0
  125.6518  136.0083  160.6815 H   0  0  0  0  0  0  0  0  0  0  0  0
  126.5429  134.4981  162.4082 H   0  0  0  0  0  0  0  0  0  0  0  0
  129.9091  133.1936  162.4271 H   0  0  0  0  0  0  0  0  0  0  0  0
  128.4293  133.2229  163.2221 H   0  0  0  0  0  0  0  0  0  0  0  0
  129.6498  132.9148  154.1738 H   0  0  0  0  0  0  0  0  0  0  0  0
  129.8292  131.9749  151.9076 H   0  0  0  0  0  0  0  0  0  0  0  0
  1  2  1  0
  1 38  1  0
  1 39  1  0
  1 40  1  0
  2  3  1  0
  2 41  1  0
  2 42  1  0
  3 37  2  0
  3  4  1  0
  4  5  2  0
  4 43  1  0
  5  6  1  0
  5 44  1  0
  6  7  1  0
  6 36  2  0
  7 34  1  0
  7  8  2  0
  8  9  1  0
  8 45  1  0
  9 10  1  0
  9 11  1  0
 11 12  1  0
 11 34  2  0
 12 13  1  0
 12 46  1  0
 13 14  1  1
 13 15  1  0
 13 27  1  0
 15 26  1  0
 15 16  2  0
 16 17  1  0
 16 47  1  0
 17 18  2  0
 17 48  1  0
 18 19  1  0
 18 25  1  0
 19 24  1  0
 19 20  2  0
 20 21  1  0
 20 49  1  0
 21 22  2  0
 21 50  1  0
 22 23  1  0
 22 51  1  0
 23 24  2  0
 23 52  1  0
 24 53  1  0
 25 26  2  0
 25 54  1  0
 26 55  1  0
 27 32  1  0
 27 28  2  0
 28 29  1  0
 28 56  1  0
 29 30  2  0
 29 57  1  0
 30 31  1  0
 30 58  1  0
 31 32  2  0
 31 59  1  0
 32 33  1  0
 33 60  1  0
 33 61  1  0
 34 35  1  0
 36 37  1  0
 36 62  1  0
 37 63  1  0
M  CHG  1  34   1
M  END
>  <DOCK_score>  (1) 
-61.840759

>  <SMILES>  (1) 
CCc1ccc(-c2c[nH]c(N[C@@H](c3ccc(-c4ccccc4)cc3)c3ccccc3N)[nH+]2)cc1

$$$$
