O=C1CC(NC(NC2Cc3ccccc3C2)=[NH+]CC2=CCCC2)CC(=O)N1
     RDKit          3D

 54 57  0  0  1  0  0  0  0  0999 V2000
  127.0446  138.1623  162.9055 O   0  0  0  0  0  0  0  0  0  0  0  0
  127.7144  137.1658  163.0727 C   0  0  0  0  0  0  0  0  0  0  0  0
  128.5578  136.6445  161.9393 C   0  0  0  0  0  0  0  0  0  0  0  0
  129.7792  135.9167  162.5109 C   0  0  0  0  0  0  0  0  0  0  0  0
  130.5435  135.3067  161.4200 N   0  0  0  0  0  0  0  0  0  0  0  0
  131.5454  136.0166  160.8018 C   0  0  0  0  0  0  0  0  0  0  0  0
  131.8304  137.2990  161.2073 N   0  0  0  0  0  0  0  0  0  0  0  0
  133.1942  137.8198  161.0852 C   0  0  0  0  0  0  0  0  0  0  0  0
  133.4276  138.9832  162.0723 C   0  0  0  0  0  0  0  0  0  0  0  0
  134.3418  139.9442  161.3430 C   0  0  0  0  0  0  0  0  0  0  0  0
  135.1252  140.9792  161.8260 C   0  0  0  0  0  0  0  0  0  0  0  0
  135.8904  141.7345  160.9593 C   0  0  0  0  0  0  0  0  0  0  0  0
  135.8750  141.4574  159.6049 C   0  0  0  0  0  0  0  0  0  0  0  0
  135.0945  140.4258  159.1214 C   0  0  0  0  0  0  0  0  0  0  0  0
  134.3265  139.6671  159.9889 C   0  0  0  0  0  0  0  0  0  0  0  0
  133.4009  138.5009  159.7157 C   0  0  0  0  0  0  0  0  0  0  0  0
  132.2252  135.4738  159.8311 N   0  0  0  0  0  0  0  0  0  0  0  0
  132.5941  136.0300  159.1272 H   0  0  0  0  0  0  0  0  0  0  0  0
  132.4324  134.0238  159.8034 C   0  0  0  0  0  0  0  0  0  0  0  0
  131.3071  133.3701  159.0436 C   0  0  0  0  0  0  0  0  0  0  0  0
  130.3102  134.0148  158.5012 C   0  0  0  0  0  0  0  0  0  0  0  0
  129.3581  133.0647  157.8125 C   0  0  0  0  0  0  0  0  0  0  0  0
  130.1522  131.7455  157.6689 C   0  0  0  0  0  0  0  0  0  0  0  0
  131.1811  131.8818  158.8152 C   0  0  0  0  0  0  0  0  0  0  0  0
  129.2921  134.8258  163.4707 C   0  0  0  0  0  0  0  0  0  0  0  0
  128.4134  135.4495  164.5227 C   0  0  0  0  0  0  0  0  0  0  0  0
  128.3546  134.9450  165.6235 O   0  0  0  0  0  0  0  0  0  0  0  0
  127.6941  136.5520  164.2652 N   0  0  0  0  0  0  0  0  0  0  0  0
  128.8878  137.4755  161.3158 H   0  0  0  0  0  0  0  0  0  0  0  0
  127.9676  135.9509  161.3406 H   0  0  0  0  0  0  0  0  0  0  0  0
  130.4106  136.6231  163.0497 H   0  0  0  0  0  0  0  0  0  0  0  0
  130.3425  134.4019  161.1339 H   0  0  0  0  0  0  0  0  0  0  0  0
  131.1283  137.8590  161.5740 H   0  0  0  0  0  0  0  0  0  0  0  0
  133.9254  137.0259  161.2374 H   0  0  0  0  0  0  0  0  0  0  0  0
  132.4826  139.4697  162.3137 H   0  0  0  0  0  0  0  0  0  0  0  0
  133.9088  138.6185  162.9798 H   0  0  0  0  0  0  0  0  0  0  0  0
  135.1377  141.1962  162.8838 H   0  0  0  0  0  0  0  0  0  0  0  0
  136.4998  142.5411  161.3391 H   0  0  0  0  0  0  0  0  0  0  0  0
  136.4725  142.0473  158.9256 H   0  0  0  0  0  0  0  0  0  0  0  0
  135.0833  140.2097  158.0633 H   0  0  0  0  0  0  0  0  0  0  0  0
  133.8638  137.8070  159.0141 H   0  0  0  0  0  0  0  0  0  0  0  0
  132.4484  138.8562  159.3225 H   0  0  0  0  0  0  0  0  0  0  0  0
  133.3798  133.8014  159.3123 H   0  0  0  0  0  0  0  0  0  0  0  0
  132.4531  133.6402  160.8234 H   0  0  0  0  0  0  0  0  0  0  0  0
  130.1835  135.0868  158.5378 H   0  0  0  0  0  0  0  0  0  0  0  0
  129.0786  133.4483  156.8313 H   0  0  0  0  0  0  0  0  0  0  0  0
  128.4715  132.9092  158.4272 H   0  0  0  0  0  0  0  0  0  0  0  0
  130.6499  131.6919  156.7008 H   0  0  0  0  0  0  0  0  0  0  0  0
  129.5064  130.8813  157.8235 H   0  0  0  0  0  0  0  0  0  0  0  0
  132.1411  131.4610  158.5159 H   0  0  0  0  0  0  0  0  0  0  0  0
  130.8158  131.3889  159.7163 H   0  0  0  0  0  0  0  0  0  0  0  0
  130.1496  134.3506  163.9472 H   0  0  0  0  0  0  0  0  0  0  0  0
  128.7232  134.0793  162.9166 H   0  0  0  0  0  0  0  0  0  0  0  0
  127.1341  136.9176  164.9679 H   0  0  0  0  0  0  0  0  0  0  0  0
  1  2  2  0
  2 28  1  0
  2  3  1  0
  3  4  1  0
  3 29  1  0
  3 30  1  0
  4  5  1  0
  4 25  1  0
  4 31  1  0
  5 32  1  0
  6  5  1  0
  6  7  1  0
  6 17  2  0
  7  8  1  0
  7 33  1  0
  8 16  1  0
  8  9  1  0
  8 34  1  0
  9 10  1  0
  9 35  1  0
  9 36  1  0
 10 15  2  0
 10 11  1  0
 11 12  2  0
 11 37  1  0
 12 13  1  0
 12 38  1  0
 13 14  2  0
 13 39  1  0
 14 15  1  0
 14 40  1  0
 15 16  1  0
 16 41  1  0
 16 42  1  0
 17 18  1  0
 17 19  1  0
 19 20  1  0
 19 43  1  0
 19 44  1  0
 20 24  1  0
 20 21  2  0
 21 22  1  0
 21 45  1  0
 22 23  1  0
 22 46  1  0
 22 47  1  0
 23 24  1  0
 23 48  1  0
 23 49  1  0
 24 50  1  0
 24 51  1  0
 25 26  1  0
 25 52  1  0
 25 53  1  0
 26 27  2  0
 26 28  1  0
 28 54  1  0
M  CHG  1  17   1
M  END
>  <DOCK_score>  (1) 
-45.120502

>  <SMILES>  (1) 
O=C1CC(NC(NC2Cc3ccccc3C2)=[NH+]CC2=CCCC2)CC(=O)N1

$$$$
