Nc1ccc(-c2c[nH]c(N[C@@H](c3ccccc3)c3cccc(N)c3)[nH+]2)cc1
     RDKit          3D

 49 52  0  0  1  0  0  0  0  0999 V2000
  131.1694  129.4500  152.1267 N   0  0  0  0  0  0  0  0  0  0  0  0
  130.9064  130.1944  153.2791 C   0  0  0  0  0  0  0  0  0  0  0  0
  130.1725  131.3719  153.1923 C   0  0  0  0  0  0  0  0  0  0  0  0
  129.9115  132.1081  154.3287 C   0  0  0  0  0  0  0  0  0  0  0  0
  130.3841  131.6708  155.5651 C   0  0  0  0  0  0  0  0  0  0  0  0
  130.1049  132.4613  156.7890 C   0  0  0  0  0  0  0  0  0  0  0  0
  129.4264  132.0292  157.8804 C   0  0  0  0  0  0  0  0  0  0  0  0
  129.3993  133.0747  158.7728 N   0  0  0  0  0  0  0  0  0  0  0  0
  128.9871  133.0702  159.6509 H   0  0  0  0  0  0  0  0  0  0  0  0
  130.0628  134.1150  158.1989 C   0  0  0  0  0  0  0  0  0  0  0  0
  130.2614  135.3593  158.7723 N   0  0  0  0  0  0  0  0  0  0  0  0
  129.7359  135.6416  160.1104 C   0  0  1  0  0  0  0  0  0  0  0  0
  130.1758  134.9480  160.8273 H   0  0  0  0  0  0  0  0  0  0  0  0
  130.0854  137.0548  160.4996 C   0  0  0  0  0  0  0  0  0  0  0  0
  130.2730  137.3790  161.8302 C   0  0  0  0  0  0  0  0  0  0  0  0
  130.5975  138.6747  162.1868 C   0  0  0  0  0  0  0  0  0  0  0  0
  130.7259  139.6479  161.2136 C   0  0  0  0  0  0  0  0  0  0  0  0
  130.5337  139.3247  159.8832 C   0  0  0  0  0  0  0  0  0  0  0  0
  130.2130  138.0284  159.5263 C   0  0  0  0  0  0  0  0  0  0  0  0
  128.2379  135.4775  160.1068 C   0  0  0  0  0  0  0  0  0  0  0  0
  127.5184  135.7278  158.9525 C   0  0  0  0  0  0  0  0  0  0  0  0
  126.1438  135.5788  158.9449 C   0  0  0  0  0  0  0  0  0  0  0  0
  125.4845  135.1789  160.0910 C   0  0  0  0  0  0  0  0  0  0  0  0
  126.2042  134.9262  161.2518 C   0  0  0  0  0  0  0  0  0  0  0  0
  125.5407  134.5217  162.4124 N   0  0  0  0  0  0  0  0  0  0  0  0
  127.5858  135.0719  161.2544 C   0  0  0  0  0  0  0  0  0  0  0  0
  130.4828  133.7446  157.0138 N   0  0  0  0  0  0  0  0  0  0  0  0
  130.9842  134.2996  156.3961 H   0  0  0  0  0  0  0  0  0  0  0  0
  131.1242  130.4925  155.6488 C   0  0  0  0  0  0  0  0  0  0  0  0
  131.3784  129.7568  154.5106 C   0  0  0  0  0  0  0  0  0  0  0  0
  130.8397  129.7552  151.2665 H   0  0  0  0  0  0  0  0  0  0  0  0
  131.6811  128.6286  152.1861 H   0  0  0  0  0  0  0  0  0  0  0  0
  129.8070  131.7106  152.2341 H   0  0  0  0  0  0  0  0  0  0  0  0
  129.3411  133.0226  154.2609 H   0  0  0  0  0  0  0  0  0  0  0  0
  128.9912  131.0509  158.0220 H   0  0  0  0  0  0  0  0  0  0  0  0
  130.7483  136.0443  158.2881 H   0  0  0  0  0  0  0  0  0  0  0  0
  130.1689  136.6196  162.5909 H   0  0  0  0  0  0  0  0  0  0  0  0
  130.7473  138.9273  163.2261 H   0  0  0  0  0  0  0  0  0  0  0  0
  130.9762  140.6609  161.4924 H   0  0  0  0  0  0  0  0  0  0  0  0
  130.6337  140.0850  159.1229 H   0  0  0  0  0  0  0  0  0  0  0  0
  130.0624  137.7758  158.4872 H   0  0  0  0  0  0  0  0  0  0  0  0
  128.0313  136.0406  158.0551 H   0  0  0  0  0  0  0  0  0  0  0  0
  125.5849  135.7751  158.0420 H   0  0  0  0  0  0  0  0  0  0  0  0
  124.4109  135.0624  160.0843 H   0  0  0  0  0  0  0  0  0  0  0  0
  124.5764  134.4168  162.4084 H   0  0  0  0  0  0  0  0  0  0  0  0
  126.0443  134.3455  163.2225 H   0  0  0  0  0  0  0  0  0  0  0  0
  128.1488  134.8724  162.1543 H   0  0  0  0  0  0  0  0  0  0  0  0
  131.4951  130.1541  156.6050 H   0  0  0  0  0  0  0  0  0  0  0  0
  131.9480  128.8415  154.5755 H   0  0  0  0  0  0  0  0  0  0  0  0
  1  2  1  0
  1 31  1  0
  1 32  1  0
  2 30  2  0
  2  3  1  0
  3  4  2  0
  3 33  1  0
  4  5  1  0
  4 34  1  0
  5  6  1  0
  5 29  2  0
  6 27  1  0
  6  7  2  0
  7  8  1  0
  7 35  1  0
  8  9  1  0
  8 10  1  0
 10 11  1  0
 10 27  2  0
 11 12  1  0
 11 36  1  0
 12 13  1  1
 12 14  1  0
 12 20  1  0
 14 19  1  0
 14 15  2  0
 15 16  1  0
 15 37  1  0
 16 17  2  0
 16 38  1  0
 17 18  1  0
 17 39  1  0
 18 19  2  0
 18 40  1  0
 19 41  1  0
 20 26  1  0
 20 21  2  0
 21 22  1  0
 21 42  1  0
 22 23  2  0
 22 43  1  0
 23 24  1  0
 23 44  1  0
 24 25  1  0
 24 26  2  0
 25 45  1  0
 25 46  1  0
 26 47  1  0
 27 28  1  0
 29 30  1  0
 29 48  1  0
 30 49  1  0
M  CHG  1  27   1
M  END
>  <DOCK_score>  (1) 
-58.551102

>  <SMILES>  (1) 
Nc1ccc(-c2c[nH]c(N[C@@H](c3ccccc3)c3cccc(N)c3)[nH+]2)cc1

$$$$
