CCc1ccc(-c2c[nH]c(N[C@H](c3ccccc3)c3nc(C4=COCCO4)no3)[nH+]2)cc1
     RDKit          3D

 56 60  0  0  1  0  0  0  0  0999 V2000
  130.2454  128.3308  151.6870 C   0  0  0  0  0  0  0  0  0  0  0  0
  131.3582  129.3520  151.9309 C   0  0  0  0  0  0  0  0  0  0  0  0
  131.0313  130.1688  153.1545 C   0  0  0  0  0  0  0  0  0  0  0  0
  131.4619  129.7474  154.3991 C   0  0  0  0  0  0  0  0  0  0  0  0
  131.1704  130.4942  155.5226 C   0  0  0  0  0  0  0  0  0  0  0  0
  130.4307  131.6693  155.4023 C   0  0  0  0  0  0  0  0  0  0  0  0
  130.1095  132.4733  156.6066 C   0  0  0  0  0  0  0  0  0  0  0  0
  129.4064  132.0486  157.6856 C   0  0  0  0  0  0  0  0  0  0  0  0
  129.3438  133.1048  158.5617 N   0  0  0  0  0  0  0  0  0  0  0  0
  128.9047  133.1086  159.4266 H   0  0  0  0  0  0  0  0  0  0  0  0
  130.0112  134.1451  157.9920 C   0  0  0  0  0  0  0  0  0  0  0  0
  130.1803  135.3990  158.5536 N   0  0  0  0  0  0  0  0  0  0  0  0
  129.6153  135.6930  159.8729 C   0  0  2  0  0  0  0  0  0  0  0  0
  130.0431  135.0143  160.6107 H   0  0  0  0  0  0  0  0  0  0  0  0
  128.1198  135.5117  159.8307 C   0  0  0  0  0  0  0  0  0  0  0  0
  127.4395  135.1136  160.9664 C   0  0  0  0  0  0  0  0  0  0  0  0
  126.0672  134.9516  160.9289 C   0  0  0  0  0  0  0  0  0  0  0  0
  125.3763  135.1786  159.7533 C   0  0  0  0  0  0  0  0  0  0  0  0
  126.0573  135.5715  158.6162 C   0  0  0  0  0  0  0  0  0  0  0  0
  127.4291  135.7379  158.6549 C   0  0  0  0  0  0  0  0  0  0  0  0
  129.9382  137.1154  160.2520 C   0  0  0  0  0  0  0  0  0  0  0  0
  130.1090  137.5761  161.4655 N   0  0  0  0  0  0  0  0  0  0  0  0
  130.3787  138.8952  161.3191 C   0  0  0  0  0  0  0  0  0  0  0  0
  130.6491  139.8610  162.4027 C   0  0  0  0  0  0  0  0  0  0  0  0
  130.9040  141.1305  162.0919 C   0  0  0  0  0  0  0  0  0  0  0  0
  131.1618  142.0594  163.0442 O   0  0  0  0  0  0  0  0  0  0  0  0
  130.7971  141.7242  164.3884 C   0  0  0  0  0  0  0  0  0  0  0  0
  131.2582  140.2852  164.6614 C   0  0  0  0  0  0  0  0  0  0  0  0
  130.6373  139.4302  163.6937 O   0  0  0  0  0  0  0  0  0  0  0  0
  130.3553  139.1528  160.0339 N   0  0  0  0  0  0  0  0  0  0  0  0
  130.1095  138.1410  159.4117 O   0  0  0  0  0  0  0  0  0  0  0  0
  130.4723  133.7621  156.8264 N   0  0  0  0  0  0  0  0  0  0  0  0
  130.9884  134.3128  156.2171 H   0  0  0  0  0  0  0  0  0  0  0  0
  129.9944  132.0864  154.1460 C   0  0  0  0  0  0  0  0  0  0  0  0
  130.2967  131.3346  153.0287 C   0  0  0  0  0  0  0  0  0  0  0  0
  130.4818  127.7402  150.8020 H   0  0  0  0  0  0  0  0  0  0  0  0
  130.1614  127.6723  152.5515 H   0  0  0  0  0  0  0  0  0  0  0  0
  129.3004  128.8521  151.5343 H   0  0  0  0  0  0  0  0  0  0  0  0
  132.3029  128.8313  152.0832 H   0  0  0  0  0  0  0  0  0  0  0  0
  131.4419  130.0111  151.0659 H   0  0  0  0  0  0  0  0  0  0  0  0
  132.0309  128.8342  154.4918 H   0  0  0  0  0  0  0  0  0  0  0  0
  131.5112  130.1665  156.4936 H   0  0  0  0  0  0  0  0  0  0  0  0
  128.9773  131.0678  157.8286 H   0  0  0  0  0  0  0  0  0  0  0  0
  130.6730  136.0830  158.0735 H   0  0  0  0  0  0  0  0  0  0  0  0
  127.9797  134.9327  161.8839 H   0  0  0  0  0  0  0  0  0  0  0  0
  125.5352  134.6449  161.8172 H   0  0  0  0  0  0  0  0  0  0  0  0
  124.3045  135.0493  159.7233 H   0  0  0  0  0  0  0  0  0  0  0  0
  125.5176  135.7489  157.6978 H   0  0  0  0  0  0  0  0  0  0  0  0
  127.9610  136.0448  157.7666 H   0  0  0  0  0  0  0  0  0  0  0  0
  130.9009  141.4285  161.0537 H   0  0  0  0  0  0  0  0  0  0  0  0
  129.7154  141.7927  164.5044 H   0  0  0  0  0  0  0  0  0  0  0  0
  131.2859  142.4059  165.0843 H   0  0  0  0  0  0  0  0  0  0  0  0
  130.9565  139.9858  165.6651 H   0  0  0  0  0  0  0  0  0  0  0  0
  132.3423  140.2208  164.5681 H   0  0  0  0  0  0  0  0  0  0  0  0
  129.4207  132.9961  154.0470 H   0  0  0  0  0  0  0  0  0  0  0  0
  129.9588  131.6568  152.0548 H   0  0  0  0  0  0  0  0  0  0  0  0
  1  2  1  0
  1 36  1  0
  1 37  1  0
  1 38  1  0
  2  3  1  0
  2 39  1  0
  2 40  1  0
  3 35  2  0
  3  4  1  0
  4  5  2  0
  4 41  1  0
  5  6  1  0
  5 42  1  0
  6  7  1  0
  6 34  2  0
  7 32  1  0
  7  8  2  0
  8  9  1  0
  8 43  1  0
  9 10  1  0
  9 11  1  0
 11 12  1  0
 11 32  2  0
 12 13  1  0
 12 44  1  0
 13 14  1  1
 13 15  1  0
 13 21  1  0
 15 20  1  0
 15 16  2  0
 16 17  1  0
 16 45  1  0
 17 18  2  0
 17 46  1  0
 18 19  1  0
 18 47  1  0
 19 20  2  0
 19 48  1  0
 20 49  1  0
 21 31  1  0
 21 22  2  0
 22 23  1  0
 23 24  1  0
 23 30  2  0
 24 29  1  0
 24 25  2  0
 25 26  1  0
 25 50  1  0
 26 27  1  0
 27 28  1  0
 27 51  1  0
 27 52  1  0
 28 29  1  0
 28 53  1  0
 28 54  1  0
 30 31  1  0
 32 33  1  0
 34 35  1  0
 34 55  1  0
 35 56  1  0
M  CHG  1  32   1
M  END
>  <DOCK_score>  (1) 
-60.407589

>  <SMILES>  (1) 
CCc1ccc(-c2c[nH]c(N[C@H](c3ccccc3)c3nc(C4=COCCO4)no3)[nH+]2)cc1

$$$$
