Fc1ccc([C@H](Cc2ccc(N3CCC3)cc2)Nc2[nH]cc(-c3ccc(C(F)(F)F)cc3)[nH+]2)cc1
     RDKit          3D

 60 64  0  0  1  0  0  0  0  0999 V2000
  124.1751  135.8727  157.0038 F   0  0  0  0  0  0  0  0  0  0  0  0
  125.3301  135.7903  157.6996 C   0  0  0  0  0  0  0  0  0  0  0  0
  125.3039  135.5061  159.0545 C   0  0  0  0  0  0  0  0  0  0  0  0
  126.4860  135.4224  159.7654 C   0  0  0  0  0  0  0  0  0  0  0  0
  127.6944  135.6219  159.1243 C   0  0  0  0  0  0  0  0  0  0  0  0
  128.9829  135.5299  159.9005 C   0  0  2  0  0  0  0  0  0  0  0  0
  128.8631  134.8223  160.7207 H   0  0  0  0  0  0  0  0  0  0  0  0
  129.3388  136.9075  160.4632 C   0  0  0  0  0  0  0  0  0  0  0  0
  130.6272  136.8154  161.2394 C   0  0  0  0  0  0  0  0  0  0  0  0
  131.8351  137.0207  160.5983 C   0  0  0  0  0  0  0  0  0  0  0  0
  133.0173  136.9427  161.3079 C   0  0  0  0  0  0  0  0  0  0  0  0
  132.9927  136.6464  162.6649 C   0  0  0  0  0  0  0  0  0  0  0  0
  134.1868  136.5615  163.3846 N   0  0  0  0  0  0  0  0  0  0  0  0
  134.2867  135.2716  164.0924 C   0  0  0  0  0  0  0  0  0  0  0  0
  135.7656  135.2250  163.6831 C   0  0  0  0  0  0  0  0  0  0  0  0
  135.2935  136.1098  162.5209 C   0  0  0  0  0  0  0  0  0  0  0  0
  131.7779  136.4352  163.3046 C   0  0  0  0  0  0  0  0  0  0  0  0
  130.5991  136.5203  162.5902 C   0  0  0  0  0  0  0  0  0  0  0  0
  130.0556  135.0726  159.0138 N   0  0  0  0  0  0  0  0  0  0  0  0
  129.9562  133.8439  158.3837 C   0  0  0  0  0  0  0  0  0  0  0  0
  129.3059  132.7527  158.8724 N   0  0  0  0  0  0  0  0  0  0  0  0
  128.8331  132.6964  159.7175 H   0  0  0  0  0  0  0  0  0  0  0  0
  129.4425  131.7460  157.9478 C   0  0  0  0  0  0  0  0  0  0  0  0
  130.1715  132.2503  156.9215 C   0  0  0  0  0  0  0  0  0  0  0  0
  130.5702  131.5212  155.6930 C   0  0  0  0  0  0  0  0  0  0  0  0
  130.1633  131.9829  154.4425 C   0  0  0  0  0  0  0  0  0  0  0  0
  130.5376  131.3007  153.3026 C   0  0  0  0  0  0  0  0  0  0  0  0
  131.3159  130.1604  153.4000 C   0  0  0  0  0  0  0  0  0  0  0  0
  131.7216  129.4208  152.1513 C   0  0  0  0  0  0  0  0  0  0  0  0
  131.1959  130.0728  151.0307 F   0  0  0  0  0  0  0  0  0  0  0  0
  133.1173  129.3899  152.0607 F   0  0  0  0  0  0  0  0  0  0  0  0
  131.2286  128.1126  152.2037 F   0  0  0  0  0  0  0  0  0  0  0  0
  131.7177  129.6949  154.6384 C   0  0  0  0  0  0  0  0  0  0  0  0
  131.3536  130.3720  155.7846 C   0  0  0  0  0  0  0  0  0  0  0  0
  130.4767  133.5381  157.2202 N   0  0  0  0  0  0  0  0  0  0  0  0
  130.9951  134.1376  156.6610 H   0  0  0  0  0  0  0  0  0  0  0  0
  127.7216  135.9113  157.7726 C   0  0  0  0  0  0  0  0  0  0  0  0
  126.5410  135.9903  157.0586 C   0  0  0  0  0  0  0  0  0  0  0  0
  124.3601  135.3502  159.5556 H   0  0  0  0  0  0  0  0  0  0  0  0
  126.4658  135.2008  160.8222 H   0  0  0  0  0  0  0  0  0  0  0  0
  129.4586  137.6151  159.6427 H   0  0  0  0  0  0  0  0  0  0  0  0
  128.5407  137.2477  161.1229 H   0  0  0  0  0  0  0  0  0  0  0  0
  131.8537  137.2463  159.5424 H   0  0  0  0  0  0  0  0  0  0  0  0
  133.9601  137.1074  160.8076 H   0  0  0  0  0  0  0  0  0  0  0  0
  134.1365  135.3541  165.1688 H   0  0  0  0  0  0  0  0  0  0  0  0
  133.6865  134.4813  163.6417 H   0  0  0  0  0  0  0  0  0  0  0  0
  136.1138  134.2377  163.3796 H   0  0  0  0  0  0  0  0  0  0  0  0
  136.4376  135.7252  164.3804 H   0  0  0  0  0  0  0  0  0  0  0  0
  134.9618  135.5433  161.6507 H   0  0  0  0  0  0  0  0  0  0  0  0
  135.9965  136.9028  162.2654 H   0  0  0  0  0  0  0  0  0  0  0  0
  131.7553  136.2043  164.3594 H   0  0  0  0  0  0  0  0  0  0  0  0
  129.6543  136.3565  163.0871 H   0  0  0  0  0  0  0  0  0  0  0  0
  130.8355  135.6305  158.8681 H   0  0  0  0  0  0  0  0  0  0  0  0
  129.0452  130.7446  158.0236 H   0  0  0  0  0  0  0  0  0  0  0  0
  129.5565  132.8730  154.3654 H   0  0  0  0  0  0  0  0  0  0  0  0
  130.2230  131.6576  152.3331 H   0  0  0  0  0  0  0  0  0  0  0  0
  132.3210  128.8020  154.7086 H   0  0  0  0  0  0  0  0  0  0  0  0
  131.6715  130.0095  156.7511 H   0  0  0  0  0  0  0  0  0  0  0  0
  128.6659  136.0717  157.2739 H   0  0  0  0  0  0  0  0  0  0  0  0
  126.5627  136.2117  156.0017 H   0  0  0  0  0  0  0  0  0  0  0  0
  1  2  1  0
  2 38  2  0
  2  3  1  0
  3  4  2  0
  3 39  1  0
  4  5  1  0
  4 40  1  0
  5  6  1  0
  5 37  2  0
  6  7  1  1
  6  8  1  0
  6 19  1  0
  8  9  1  0
  8 41  1  0
  8 42  1  0
  9 18  1  0
  9 10  2  0
 10 11  1  0
 10 43  1  0
 11 12  2  0
 11 44  1  0
 12 13  1  0
 12 17  1  0
 13 16  1  0
 13 14  1  0
 14 15  1  0
 14 45  1  0
 14 46  1  0
 15 16  1  0
 15 47  1  0
 15 48  1  0
 16 49  1  0
 16 50  1  0
 17 18  2  0
 17 51  1  0
 18 52  1  0
 19 53  1  0
 20 19  1  0
 20 35  2  0
 20 21  1  0
 21 22  1  0
 21 23  1  0
 23 24  2  0
 23 54  1  0
 24 25  1  0
 24 35  1  0
 25 34  1  0
 25 26  2  0
 26 27  1  0
 26 55  1  0
 27 28  2  0
 27 56  1  0
 28 29  1  0
 28 33  1  0
 29 30  1  0
 29 31  1  0
 29 32  1  0
 33 34  2  0
 33 57  1  0
 34 58  1  0
 35 36  1  0
 37 38  1  0
 37 59  1  0
 38 60  1  0
M  CHG  1  35   1
M  END
>  <DOCK_score>  (1) 
-61.594807

>  <SMILES>  (1) 
Fc1ccc([C@H](Cc2ccc(N3CCC3)cc2)Nc2[nH]cc(-c3ccc(C(F)(F)F)cc3)[nH+]2)cc1

$$$$
