Cc1nc(CSc2ccc(Sc3ccccc3)c(NC(=O)[C@@H](C)[NH3+])c2)[nH]c1C
     RDKit          3D

 53 55  0  0  1  0  0  0  0  0999 V2000
  128.6098  136.4934  165.2821 C   0  0  0  0  0  0  0  0  0  0  0  0
  127.5360  136.1071  164.2980 C   0  0  0  0  0  0  0  0  0  0  0  0
  127.2186  134.8575  163.9280 N   0  0  0  0  0  0  0  0  0  0  0  0
  126.2454  134.8999  163.0597 C   0  0  0  0  0  0  0  0  0  0  0  0
  125.6039  133.7062  162.4005 C   0  0  0  0  0  0  0  0  0  0  0  0
  125.4111  134.0268  160.6255 S   0  0  0  0  0  0  0  0  0  0  0  0
  127.0209  133.7024  159.9868 C   0  0  0  0  0  0  0  0  0  0  0  0
  127.3536  132.4224  159.5603 C   0  0  0  0  0  0  0  0  0  0  0  0
  128.6148  132.1648  159.0589 C   0  0  0  0  0  0  0  0  0  0  0  0
  129.5532  133.1839  158.9801 C   0  0  0  0  0  0  0  0  0  0  0  0
  131.1639  132.8523  158.3474 S   0  0  0  0  0  0  0  0  0  0  0  0
  130.8380  132.2841  156.7118 C   0  0  0  0  0  0  0  0  0  0  0  0
  130.1822  133.1089  155.8054 C   0  0  0  0  0  0  0  0  0  0  0  0
  129.9328  132.6619  154.5229 C   0  0  0  0  0  0  0  0  0  0  0  0
  130.3258  131.3914  154.1429 C   0  0  0  0  0  0  0  0  0  0  0  0
  130.9736  130.5658  155.0439 C   0  0  0  0  0  0  0  0  0  0  0  0
  131.2311  131.0078  156.3264 C   0  0  0  0  0  0  0  0  0  0  0  0
  129.2223  134.4698  159.4076 C   0  0  0  0  0  0  0  0  0  0  0  0
  130.1681  135.5004  159.3295 N   0  0  0  0  0  0  0  0  0  0  0  0
  130.1378  136.5118  160.2197 C   0  0  0  0  0  0  0  0  0  0  0  0
  129.2916  136.5298  161.0886 O   0  0  0  0  0  0  0  0  0  0  0  0
  131.1551  137.6205  160.1356 C   0  0  1  0  0  0  0  0  0  0  0  0
  132.0835  137.2306  159.7182 H   0  0  0  0  0  0  0  0  0  0  0  0
  130.6202  138.7363  159.2358 C   0  0  0  0  0  0  0  0  0  0  0  0
  131.4091  138.1550  161.4801 N   0  0  0  0  0  0  0  0  0  0  0  0
  132.0903  138.8972  161.4238 H   0  0  0  0  0  0  0  0  0  0  0  0
  130.5496  138.5157  161.8665 H   0  0  0  0  0  0  0  0  0  0  0  0
  131.7618  137.4191  162.0735 H   0  0  0  0  0  0  0  0  0  0  0  0
  127.9563  134.7260  159.9106 C   0  0  0  0  0  0  0  0  0  0  0  0
  125.9040  136.1902  162.8544 N   0  0  0  0  0  0  0  0  0  0  0  0
  125.2086  136.5142  162.2609 H   0  0  0  0  0  0  0  0  0  0  0  0
  126.7231  136.9555  163.6401 C   0  0  0  0  0  0  0  0  0  0  0  0
  126.7157  138.4586  163.7487 C   0  0  0  0  0  0  0  0  0  0  0  0
  128.1871  136.5280  166.2863 H   0  0  0  0  0  0  0  0  0  0  0  0
  129.4131  135.7572  165.2513 H   0  0  0  0  0  0  0  0  0  0  0  0
  129.0060  137.4747  165.0209 H   0  0  0  0  0  0  0  0  0  0  0  0
  124.6252  133.5274  162.8457 H   0  0  0  0  0  0  0  0  0  0  0  0
  126.2345  132.8289  162.5449 H   0  0  0  0  0  0  0  0  0  0  0  0
  126.6249  131.6276  159.6210 H   0  0  0  0  0  0  0  0  0  0  0  0
  128.8708  131.1690  158.7284 H   0  0  0  0  0  0  0  0  0  0  0  0
  129.8714  134.0995  156.1027 H   0  0  0  0  0  0  0  0  0  0  0  0
  129.4272  133.3038  153.8169 H   0  0  0  0  0  0  0  0  0  0  0  0
  130.1262  131.0431  153.1405 H   0  0  0  0  0  0  0  0  0  0  0  0
  131.2787  129.5742  154.7437 H   0  0  0  0  0  0  0  0  0  0  0  0
  131.7370  130.3626  157.0293 H   0  0  0  0  0  0  0  0  0  0  0  0
  130.8447  135.4862  158.6346 H   0  0  0  0  0  0  0  0  0  0  0  0
  129.6917  139.1261  159.6531 H   0  0  0  0  0  0  0  0  0  0  0  0
  131.3560  139.5381  159.1749 H   0  0  0  0  0  0  0  0  0  0  0  0
  130.4317  138.3397  158.2382 H   0  0  0  0  0  0  0  0  0  0  0  0
  127.6975  135.7207  160.2422 H   0  0  0  0  0  0  0  0  0  0  0  0
  126.0325  138.7623  164.5419 H   0  0  0  0  0  0  0  0  0  0  0  0
  127.7209  138.8109  163.9803 H   0  0  0  0  0  0  0  0  0  0  0  0
  126.3886  138.8896  162.8025 H   0  0  0  0  0  0  0  0  0  0  0  0
  1  2  1  0
  1 34  1  0
  1 35  1  0
  1 36  1  0
  2 32  2  0
  2  3  1  0
  3  4  2  0
  4  5  1  0
  4 30  1  0
  5  6  1  0
  5 37  1  0
  5 38  1  0
  6  7  1  0
  7 29  1  0
  7  8  2  0
  8  9  1  0
  8 39  1  0
  9 10  2  0
  9 40  1  0
 10 11  1  0
 10 18  1  0
 11 12  1  0
 12 17  1  0
 12 13  2  0
 13 14  1  0
 13 41  1  0
 14 15  2  0
 14 42  1  0
 15 16  1  0
 15 43  1  0
 16 17  2  0
 16 44  1  0
 17 45  1  0
 18 19  1  0
 18 29  2  0
 19 20  1  0
 19 46  1  0
 20 21  2  0
 20 22  1  0
 22 23  1  6
 22 24  1  0
 22 25  1  0
 24 47  1  0
 24 48  1  0
 24 49  1  0
 25 26  1  0
 25 27  1  0
 25 28  1  0
 29 50  1  0
 30 31  1  0
 30 32  1  0
 32 33  1  0
 33 51  1  0
 33 52  1  0
 33 53  1  0
M  CHG  1  25   1
M  END
>  <DOCK_score>  (1) 
-45.61441

>  <SMILES>  (1) 
Cc1nc(CSc2ccc(Sc3ccccc3)c(NC(=O)[C@@H](C)[NH3+])c2)[nH]c1C

$$$$
