O=C1CC[C@H](NC(NC2CC=CC2)=[NH+][C@H]2CCc3cccc(Br)c3C2)CN1
     RDKit          3D

 55 58  0  0  1  0  0  0  0  0999 V2000
  124.0303  133.6741  162.3235 O   0  0  0  0  0  0  0  0  0  0  0  0
  125.1471  134.0484  162.0347 C   0  0  0  0  0  0  0  0  0  0  0  0
  126.1188  133.0374  161.4973 C   0  0  0  0  0  0  0  0  0  0  0  0
  127.5468  133.5769  161.6087 C   0  0  0  0  0  0  0  0  0  0  0  0
  127.5741  134.9988  161.0354 C   0  0  2  0  0  0  0  0  0  0  0  0
  127.1383  135.0013  160.0363 H   0  0  0  0  0  0  0  0  0  0  0  0
  128.9577  135.4756  160.9691 N   0  0  0  0  0  0  0  0  0  0  0  0
  129.7079  135.2541  159.8385 C   0  0  0  0  0  0  0  0  0  0  0  0
  129.4722  134.1428  159.0641 N   0  0  0  0  0  0  0  0  0  0  0  0
  130.2716  133.9066  157.8593 C   0  0  0  0  0  0  0  0  0  0  0  0
  129.5244  134.3887  156.5941 C   0  0  0  0  0  0  0  0  0  0  0  0
  129.8653  133.3673  155.5341 C   0  0  0  0  0  0  0  0  0  0  0  0
  130.3490  132.2791  156.0685 C   0  0  0  0  0  0  0  0  0  0  0  0
  130.4115  132.3932  157.5738 C   0  0  0  0  0  0  0  0  0  0  0  0
  130.6424  136.0974  159.5008 N   0  0  0  0  0  0  0  0  0  0  0  0
  130.8691  136.2216  158.5658 H   0  0  0  0  0  0  0  0  0  0  0  0
  131.3507  136.8582  160.5332 C   0  0  1  0  0  0  0  0  0  0  0  0
  131.3904  136.2775  161.4548 H   0  0  0  0  0  0  0  0  0  0  0  0
  132.7745  137.1714  160.0586 C   0  0  0  0  0  0  0  0  0  0  0  0
  133.5593  137.7475  161.2355 C   0  0  0  0  0  0  0  0  0  0  0  0
  132.7987  138.8785  161.8767 C   0  0  0  0  0  0  0  0  0  0  0  0
  133.5041  139.7480  162.6991 C   0  0  0  0  0  0  0  0  0  0  0  0
  132.8641  140.8000  163.3205 C   0  0  0  0  0  0  0  0  0  0  0  0
  131.5092  140.9922  163.1244 C   0  0  0  0  0  0  0  0  0  0  0  0
  130.8066  140.1313  162.3056 C   0  0  0  0  0  0  0  0  0  0  0  0
  128.9533  140.3944  162.0376 Br  0  0  0  0  0  0  0  0  0  0  0  0
  131.4506  139.0720  161.6768 C   0  0  0  0  0  0  0  0  0  0  0  0
  130.6263  138.1787  160.7871 C   0  0  0  0  0  0  0  0  0  0  0  0
  126.7600  135.9124  161.9525 C   0  0  0  0  0  0  0  0  0  0  0  0
  125.4467  135.3358  162.2116 N   0  0  0  0  0  0  0  0  0  0  0  0
  126.0348  132.1142  162.0705 H   0  0  0  0  0  0  0  0  0  0  0  0
  125.8889  132.8347  160.4512 H   0  0  0  0  0  0  0  0  0  0  0  0
  128.2253  132.9395  161.0418 H   0  0  0  0  0  0  0  0  0  0  0  0
  127.8503  133.5975  162.6554 H   0  0  0  0  0  0  0  0  0  0  0  0
  129.3447  135.9477  161.7230 H   0  0  0  0  0  0  0  0  0  0  0  0
  128.7794  133.5130  159.3176 H   0  0  0  0  0  0  0  0  0  0  0  0
  131.2493  134.3813  157.9417 H   0  0  0  0  0  0  0  0  0  0  0  0
  128.4492  134.4071  156.7720 H   0  0  0  0  0  0  0  0  0  0  0  0
  129.8780  135.3763  156.2976 H   0  0  0  0  0  0  0  0  0  0  0  0
  129.7271  133.5180  154.4736 H   0  0  0  0  0  0  0  0  0  0  0  0
  130.6638  131.4111  155.5080 H   0  0  0  0  0  0  0  0  0  0  0  0
  131.3683  132.0241  157.9433 H   0  0  0  0  0  0  0  0  0  0  0  0
  129.5901  131.8428  158.0325 H   0  0  0  0  0  0  0  0  0  0  0  0
  133.2546  136.2571  159.7096 H   0  0  0  0  0  0  0  0  0  0  0  0
  132.7395  137.8997  159.2484 H   0  0  0  0  0  0  0  0  0  0  0  0
  133.7272  136.9633  161.9737 H   0  0  0  0  0  0  0  0  0  0  0  0
  134.5206  138.1177  160.8796 H   0  0  0  0  0  0  0  0  0  0  0  0
  134.5625  139.5986  162.8537 H   0  0  0  0  0  0  0  0  0  0  0  0
  133.4196  141.4714  163.9588 H   0  0  0  0  0  0  0  0  0  0  0  0
  131.0022  141.8128  163.6102 H   0  0  0  0  0  0  0  0  0  0  0  0
  130.4513  138.6814  159.8359 H   0  0  0  0  0  0  0  0  0  0  0  0
  129.6692  137.9770  161.2680 H   0  0  0  0  0  0  0  0  0  0  0  0
  127.2900  136.0402  162.8963 H   0  0  0  0  0  0  0  0  0  0  0  0
  126.6386  136.8854  161.4764 H   0  0  0  0  0  0  0  0  0  0  0  0
  124.7468  135.9254  162.5333 H   0  0  0  0  0  0  0  0  0  0  0  0
  1  2  2  0
  2 30  1  0
  2  3  1  0
  3  4  1  0
  3 31  1  0
  3 32  1  0
  4  5  1  0
  4 33  1  0
  4 34  1  0
  5  6  1  6
  5  7  1  0
  5 29  1  0
  7 35  1  0
  8  7  1  0
  8  9  1  0
  8 15  2  0
  9 10  1  0
  9 36  1  0
 10 14  1  0
 10 11  1  0
 10 37  1  0
 11 12  1  0
 11 38  1  0
 11 39  1  0
 12 13  2  0
 12 40  1  0
 13 14  1  0
 13 41  1  0
 14 42  1  0
 14 43  1  0
 15 16  1  0
 15 17  1  0
 17 18  1  1
 17 28  1  0
 17 19  1  0
 19 20  1  0
 19 44  1  0
 19 45  1  0
 20 21  1  0
 20 46  1  0
 20 47  1  0
 21 27  2  0
 21 22  1  0
 22 23  2  0
 22 48  1  0
 23 24  1  0
 23 49  1  0
 24 25  2  0
 24 50  1  0
 25 26  1  0
 25 27  1  0
 27 28  1  0
 28 51  1  0
 28 52  1  0
 29 30  1  0
 29 53  1  0
 29 54  1  0
 30 55  1  0
M  CHG  1  15   1
M  END
>  <DOCK_score>  (1) 
-45.311646

>  <SMILES>  (1) 
O=C1CC[C@H](NC(NC2CC=CC2)=[NH+][C@H]2CCc3cccc(Br)c3C2)CN1

$$$$
