CCC[NH2+]Cc1c[nH]nc1-c1ccc(Nc2c(N)cc(Cl)nc2-c2ccc(CC)cc2)o1
     RDKit          3D

 60 63  0  0  0  0  0  0  0  0999 V2000
  132.2932  133.6611  160.8277 C   0  0  0  0  0  0  0  0  0  0  0  0
  132.8014  133.4223  159.4043 C   0  0  0  0  0  0  0  0  0  0  0  0
  131.6979  132.7654  158.5726 C   0  0  0  0  0  0  0  0  0  0  0  0
  130.5242  133.6479  158.5321 N   0  0  0  0  0  0  0  0  0  0  0  0
  130.7806  134.5296  158.1141 H   0  0  0  0  0  0  0  0  0  0  0  0
  130.1892  133.8053  159.4707 H   0  0  0  0  0  0  0  0  0  0  0  0
  129.4646  133.0172  157.7335 C   0  0  0  0  0  0  0  0  0  0  0  0
  129.0817  131.7002  158.3577 C   0  0  0  0  0  0  0  0  0  0  0  0
  129.6360  130.4996  158.0845 C   0  0  0  0  0  0  0  0  0  0  0  0
  129.0204  129.5710  158.8481 N   0  0  0  0  0  0  0  0  0  0  0  0
  129.2174  128.6213  158.8582 H   0  0  0  0  0  0  0  0  0  0  0  0
  128.0490  130.2166  159.6235 N   0  0  0  0  0  0  0  0  0  0  0  0
  128.0808  131.5023  159.3323 C   0  0  0  0  0  0  0  0  0  0  0  0
  127.2212  132.5495  159.9216 C   0  0  0  0  0  0  0  0  0  0  0  0
  125.9511  132.3758  160.3736 C   0  0  0  0  0  0  0  0  0  0  0  0
  125.5134  133.6261  160.8519 C   0  0  0  0  0  0  0  0  0  0  0  0
  126.5321  134.5018  160.6606 C   0  0  0  0  0  0  0  0  0  0  0  0
  126.5154  135.8514  160.9912 N   0  0  0  0  0  0  0  0  0  0  0  0
  127.6375  136.6466  160.7397 C   0  0  0  0  0  0  0  0  0  0  0  0
  128.1261  136.7965  159.4367 C   0  0  0  0  0  0  0  0  0  0  0  0
  127.5064  136.1575  158.3629 N   0  0  0  0  0  0  0  0  0  0  0  0
  129.2428  137.6037  159.2387 C   0  0  0  0  0  0  0  0  0  0  0  0
  129.8366  138.2181  160.3265 C   0  0  0  0  0  0  0  0  0  0  0  0
  131.2340  139.2191  160.0838 Cl  0  0  0  0  0  0  0  0  0  0  0  0
  129.3591  138.0558  161.5448 N   0  0  0  0  0  0  0  0  0  0  0  0
  128.2926  137.2999  161.7847 C   0  0  0  0  0  0  0  0  0  0  0  0
  127.7953  137.1492  163.1730 C   0  0  0  0  0  0  0  0  0  0  0  0
  127.3888  138.2696  163.8961 C   0  0  0  0  0  0  0  0  0  0  0  0
  126.9214  138.1224  165.1862 C   0  0  0  0  0  0  0  0  0  0  0  0
  126.8671  136.8676  165.7661 C   0  0  0  0  0  0  0  0  0  0  0  0
  126.3616  136.7143  167.1776 C   0  0  0  0  0  0  0  0  0  0  0  0
  127.5328  136.8349  168.1547 C   0  0  0  0  0  0  0  0  0  0  0  0
  127.2746  135.7530  165.0554 C   0  0  0  0  0  0  0  0  0  0  0  0
  127.7380  135.8871  163.7625 C   0  0  0  0  0  0  0  0  0  0  0  0
  127.5604  133.8438  160.0980 O   0  0  0  0  0  0  0  0  0  0  0  0
  131.4223  134.3157  160.7976 H   0  0  0  0  0  0  0  0  0  0  0  0
  132.0162  132.7084  161.2792 H   0  0  0  0  0  0  0  0  0  0  0  0
  133.0794  134.1291  161.4203 H   0  0  0  0  0  0  0  0  0  0  0  0
  133.6723  132.7676  159.4344 H   0  0  0  0  0  0  0  0  0  0  0  0
  133.0783  134.3751  158.9529 H   0  0  0  0  0  0  0  0  0  0  0  0
  131.4209  131.8128  159.0241 H   0  0  0  0  0  0  0  0  0  0  0  0
  132.0597  132.5954  157.5586 H   0  0  0  0  0  0  0  0  0  0  0  0
  129.8264  132.8471  156.7194 H   0  0  0  0  0  0  0  0  0  0  0  0
  128.5937  133.6720  157.7036 H   0  0  0  0  0  0  0  0  0  0  0  0
  130.4321  130.3143  157.3787 H   0  0  0  0  0  0  0  0  0  0  0  0
  125.3865  131.4551  160.3688 H   0  0  0  0  0  0  0  0  0  0  0  0
  124.5490  133.8469  161.2852 H   0  0  0  0  0  0  0  0  0  0  0  0
  125.7253  136.2417  161.3964 H   0  0  0  0  0  0  0  0  0  0  0  0
  126.8652  135.4482  158.5253 H   0  0  0  0  0  0  0  0  0  0  0  0
  127.7168  136.4226  157.4539 H   0  0  0  0  0  0  0  0  0  0  0  0
  129.6445  137.7449  158.2463 H   0  0  0  0  0  0  0  0  0  0  0  0
  127.4354  139.2502  163.4461 H   0  0  0  0  0  0  0  0  0  0  0  0
  126.6020  138.9891  165.7460 H   0  0  0  0  0  0  0  0  0  0  0  0
  125.6306  137.4950  167.3885 H   0  0  0  0  0  0  0  0  0  0  0  0
  125.8925  135.7371  167.2914 H   0  0  0  0  0  0  0  0  0  0  0  0
  128.2637  136.0542  167.9438 H   0  0  0  0  0  0  0  0  0  0  0  0
  128.0019  137.8121  168.0408 H   0  0  0  0  0  0  0  0  0  0  0  0
  127.1671  136.7240  169.1755 H   0  0  0  0  0  0  0  0  0  0  0  0
  127.2297  134.7758  165.5132 H   0  0  0  0  0  0  0  0  0  0  0  0
  128.0552  135.0162  163.2083 H   0  0  0  0  0  0  0  0  0  0  0  0
  1  2  1  0
  1 36  1  0
  1 37  1  0
  1 38  1  0
  2  3  1  0
  2 39  1  0
  2 40  1  0
  3  4  1  0
  3 41  1  0
  3 42  1  0
  4  5  1  0
  4  6  1  0
  4  7  1  0
  7  8  1  0
  7 43  1  0
  7 44  1  0
  8 13  1  0
  8  9  2  0
  9 10  1  0
  9 45  1  0
 10 11  1  0
 10 12  1  0
 12 13  2  0
 13 14  1  0
 14 35  1  0
 14 15  2  0
 15 16  1  0
 15 46  1  0
 16 17  2  0
 16 47  1  0
 17 18  1  0
 17 35  1  0
 18 19  1  0
 18 48  1  0
 19 26  1  0
 19 20  2  0
 20 21  1  0
 20 22  1  0
 21 49  1  0
 21 50  1  0
 22 23  2  0
 22 51  1  0
 23 24  1  0
 23 25  1  0
 25 26  2  0
 26 27  1  0
 27 34  1  0
 27 28  2  0
 28 29  1  0
 28 52  1  0
 29 30  2  0
 29 53  1  0
 30 31  1  0
 30 33  1  0
 31 32  1  0
 31 54  1  0
 31 55  1  0
 32 56  1  0
 32 57  1  0
 32 58  1  0
 33 34  2  0
 33 59  1  0
 34 60  1  0
M  CHG  1   4   1
M  END
>  <DOCK_score>  (1) 
-43.752922

>  <SMILES>  (1) 
CCC[NH2+]Cc1c[nH]nc1-c1ccc(Nc2c(N)cc(Cl)nc2-c2ccc(CC)cc2)o1

$$$$
