O=C1CC[C@H](NC(NC2CCC2)=[NH+][C@@H]2CCOC2)CN1
     RDKit          3D

 45 47  0  0  1  0  0  0  0  0999 V2000
  123.6612  133.6647  161.5903 O   0  0  0  0  0  0  0  0  0  0  0  0
  124.8094  133.9561  161.3303 C   0  0  0  0  0  0  0  0  0  0  0  0
  125.7677  132.8468  161.0039 C   0  0  0  0  0  0  0  0  0  0  0  0
  127.2083  133.3472  161.1374 C   0  0  0  0  0  0  0  0  0  0  0  0
  127.3330  134.6728  160.3769 C   0  0  2  0  0  0  0  0  0  0  0  0
  126.9607  134.5503  159.3599 H   0  0  0  0  0  0  0  0  0  0  0  0
  128.7376  135.0877  160.3395 N   0  0  0  0  0  0  0  0  0  0  0  0
  129.5462  134.6841  159.3034 C   0  0  0  0  0  0  0  0  0  0  0  0
  129.0368  133.8910  158.3026 N   0  0  0  0  0  0  0  0  0  0  0  0
  129.8985  133.4609  157.1986 C   0  0  0  0  0  0  0  0  0  0  0  0
  129.3979  132.1948  156.4838 C   0  0  0  0  0  0  0  0  0  0  0  0
  130.8694  131.7470  156.4183 C   0  0  0  0  0  0  0  0  0  0  0  0
  131.1128  132.6331  157.6515 C   0  0  0  0  0  0  0  0  0  0  0  0
  130.7959  135.0532  159.2702 N   0  0  0  0  0  0  0  0  0  0  0  0
  131.2452  135.1680  158.4183 H   0  0  0  0  0  0  0  0  0  0  0  0
  131.5217  135.2949  160.5196 C   0  0  2  0  0  0  0  0  0  0  0  0
  131.1340  134.6660  161.3211 H   0  0  0  0  0  0  0  0  0  0  0  0
  131.4615  136.7910  160.9130 C   0  0  0  0  0  0  0  0  0  0  0  0
  132.8819  137.1053  161.4215 C   0  0  0  0  0  0  0  0  0  0  0  0
  133.6369  135.8835  161.3626 O   0  0  0  0  0  0  0  0  0  0  0  0
  133.0433  135.0707  160.3275 C   0  0  0  0  0  0  0  0  0  0  0  0
  126.5040  135.7334  161.1025 C   0  0  0  0  0  0  0  0  0  0  0  0
  125.1533  135.2443  161.3492 N   0  0  0  0  0  0  0  0  0  0  0  0
  125.6077  132.0161  161.6912 H   0  0  0  0  0  0  0  0  0  0  0  0
  125.5962  132.5092  159.9818 H   0  0  0  0  0  0  0  0  0  0  0  0
  127.8924  132.6135  160.7107 H   0  0  0  0  0  0  0  0  0  0  0  0
  127.4467  133.5036  162.1894 H   0  0  0  0  0  0  0  0  0  0  0  0
  129.0970  135.6471  161.0456 H   0  0  0  0  0  0  0  0  0  0  0  0
  128.1069  133.6163  158.3275 H   0  0  0  0  0  0  0  0  0  0  0  0
  130.1535  134.2741  156.5190 H   0  0  0  0  0  0  0  0  0  0  0  0
  128.7749  131.5568  157.1107 H   0  0  0  0  0  0  0  0  0  0  0  0
  128.9563  132.3907  155.5066 H   0  0  0  0  0  0  0  0  0  0  0  0
  131.3897  132.0908  155.5242 H   0  0  0  0  0  0  0  0  0  0  0  0
  131.0136  130.6837  156.6093 H   0  0  0  0  0  0  0  0  0  0  0  0
  132.0536  133.1822  157.6158 H   0  0  0  0  0  0  0  0  0  0  0  0
  130.9595  132.1151  158.5983 H   0  0  0  0  0  0  0  0  0  0  0  0
  130.7292  136.9481  161.7049 H   0  0  0  0  0  0  0  0  0  0  0  0
  131.2228  137.4046  160.0443 H   0  0  0  0  0  0  0  0  0  0  0  0
  133.3454  137.8586  160.7846 H   0  0  0  0  0  0  0  0  0  0  0  0
  132.8361  137.4662  162.4491 H   0  0  0  0  0  0  0  0  0  0  0  0
  133.3602  135.4123  159.3421 H   0  0  0  0  0  0  0  0  0  0  0  0
  133.3000  134.0209  160.4693 H   0  0  0  0  0  0  0  0  0  0  0  0
  126.9794  135.9738  162.0535 H   0  0  0  0  0  0  0  0  0  0  0  0
  126.4519  136.6323  160.4883 H   0  0  0  0  0  0  0  0  0  0  0  0
  124.4611  135.8969  161.5386 H   0  0  0  0  0  0  0  0  0  0  0  0
  1  2  2  0
  2 23  1  0
  2  3  1  0
  3  4  1  0
  3 24  1  0
  3 25  1  0
  4  5  1  0
  4 26  1  0
  4 27  1  0
  5  6  1  6
  5  7  1  0
  5 22  1  0
  7 28  1  0
  8  7  1  0
  8  9  1  0
  8 14  2  0
  9 10  1  0
  9 29  1  0
 10 13  1  0
 10 11  1  0
 10 30  1  0
 11 12  1  0
 11 31  1  0
 11 32  1  0
 12 13  1  0
 12 33  1  0
 12 34  1  0
 13 35  1  0
 13 36  1  0
 14 15  1  0
 14 16  1  0
 16 17  1  1
 16 21  1  0
 16 18  1  0
 18 19  1  0
 18 37  1  0
 18 38  1  0
 19 20  1  0
 19 39  1  0
 19 40  1  0
 20 21  1  0
 21 41  1  0
 21 42  1  0
 22 23  1  0
 22 43  1  0
 22 44  1  0
 23 45  1  0
M  CHG  1  14   1
M  END
>  <DOCK_score>  (1) 
-43.893547

>  <SMILES>  (1) 
O=C1CC[C@H](NC(NC2CCC2)=[NH+][C@@H]2CCOC2)CN1

$$$$
