Clc1ccc(SC2=CCCC2)c(Nc2[nH]cc(C3=CCC=CC3)[nH+]2)c1
     RDKit          3D

 46 49  0  0  1  0  0  0  0  0999 V2000
  134.3715  134.8728  162.4466 Cl  0  0  0  0  0  0  0  0  0  0  0  0
  132.9245  134.3046  161.6743 C   0  0  0  0  0  0  0  0  0  0  0  0
  131.9025  133.7645  162.4354 C   0  0  0  0  0  0  0  0  0  0  0  0
  130.7477  133.3102  161.8265 C   0  0  0  0  0  0  0  0  0  0  0  0
  130.6088  133.3988  160.4489 C   0  0  0  0  0  0  0  0  0  0  0  0
  129.1349  132.8266  159.6711 S   0  0  0  0  0  0  0  0  0  0  0  0
  127.8842  133.8242  160.4095 C   0  0  0  0  0  0  0  0  0  0  0  0
  126.6380  133.4417  160.5979 C   0  0  0  0  0  0  0  0  0  0  0  0
  125.8311  134.5374  161.2546 C   0  0  0  0  0  0  0  0  0  0  0  0
  126.6745  135.8186  161.0616 C   0  0  0  0  0  0  0  0  0  0  0  0
  128.0990  135.2311  160.9173 C   0  0  0  0  0  0  0  0  0  0  0  0
  131.6411  133.9384  159.6808 C   0  0  0  0  0  0  0  0  0  0  0  0
  131.5087  134.0266  158.2898 N   0  0  0  0  0  0  0  0  0  0  0  0
  131.3172  132.8793  157.5383 C   0  0  0  0  0  0  0  0  0  0  0  0
  131.2401  131.6124  158.0314 N   0  0  0  0  0  0  0  0  0  0  0  0
  131.3091  131.3540  158.9638 H   0  0  0  0  0  0  0  0  0  0  0  0
  131.0413  130.7689  156.9669 C   0  0  0  0  0  0  0  0  0  0  0  0
  131.0117  131.5433  155.8509 C   0  0  0  0  0  0  0  0  0  0  0  0
  130.8231  131.0660  154.4656 C   0  0  0  0  0  0  0  0  0  0  0  0
  130.2328  131.8603  153.5987 C   0  0  0  0  0  0  0  0  0  0  0  0
  130.0024  131.4686  152.1699 C   0  0  0  0  0  0  0  0  0  0  0  0
  130.9000  130.3382  151.7663 C   0  0  0  0  0  0  0  0  0  0  0  0
  131.4774  129.5526  152.6225 C   0  0  0  0  0  0  0  0  0  0  0  0
  131.3067  129.6932  154.1049 C   0  0  0  0  0  0  0  0  0  0  0  0
  131.1803  132.8344  156.2357 N   0  0  0  0  0  0  0  0  0  0  0  0
  131.1973  133.6009  155.6415 H   0  0  0  0  0  0  0  0  0  0  0  0
  132.7962  134.3923  160.2996 C   0  0  0  0  0  0  0  0  0  0  0  0
  132.0075  133.6982  163.5082 H   0  0  0  0  0  0  0  0  0  0  0  0
  129.9522  132.8897  162.4236 H   0  0  0  0  0  0  0  0  0  0  0  0
  126.2456  132.4746  160.3200 H   0  0  0  0  0  0  0  0  0  0  0  0
  124.8635  134.6426  160.7637 H   0  0  0  0  0  0  0  0  0  0  0  0
  125.6981  134.3269  162.3158 H   0  0  0  0  0  0  0  0  0  0  0  0
  126.3744  136.3518  160.1596 H   0  0  0  0  0  0  0  0  0  0  0  0
  126.6082  136.4657  161.9364 H   0  0  0  0  0  0  0  0  0  0  0  0
  128.6045  135.2131  161.8828 H   0  0  0  0  0  0  0  0  0  0  0  0
  128.6762  135.8107  160.1967 H   0  0  0  0  0  0  0  0  0  0  0  0
  131.5512  134.8914  157.8524 H   0  0  0  0  0  0  0  0  0  0  0  0
  130.9320  129.6953  157.0083 H   0  0  0  0  0  0  0  0  0  0  0  0
  129.9052  132.8352  153.9284 H   0  0  0  0  0  0  0  0  0  0  0  0
  128.9638  131.1614  152.0468 H   0  0  0  0  0  0  0  0  0  0  0  0
  130.1996  132.3269  151.5279 H   0  0  0  0  0  0  0  0  0  0  0  0
  131.0747  130.1699  150.7139 H   0  0  0  0  0  0  0  0  0  0  0  0
  132.1100  128.7607  152.2498 H   0  0  0  0  0  0  0  0  0  0  0  0
  130.5861  128.9533  154.4533 H   0  0  0  0  0  0  0  0  0  0  0  0
  132.2647  129.5150  154.5934 H   0  0  0  0  0  0  0  0  0  0  0  0
  133.5957  134.8139  159.7083 H   0  0  0  0  0  0  0  0  0  0  0  0
  1  2  1  0
  2 27  2  0
  2  3  1  0
  3  4  2  0
  3 28  1  0
  4  5  1  0
  4 29  1  0
  5  6  1  0
  5 12  2  0
  6  7  1  0
  7 11  1  0
  7  8  2  0
  8  9  1  0
  8 30  1  0
  9 10  1  0
  9 31  1  0
  9 32  1  0
 10 11  1  0
 10 33  1  0
 10 34  1  0
 11 35  1  0
 11 36  1  0
 12 13  1  0
 12 27  1  0
 13 37  1  0
 14 13  1  0
 14 25  2  0
 14 15  1  0
 15 16  1  0
 15 17  1  0
 17 18  2  0
 17 38  1  0
 18 19  1  0
 18 25  1  0
 19 24  1  0
 19 20  2  0
 20 21  1  0
 20 39  1  0
 21 22  1  0
 21 40  1  0
 21 41  1  0
 22 23  2  0
 22 42  1  0
 23 24  1  0
 23 43  1  0
 24 44  1  0
 24 45  1  0
 25 26  1  0
 27 46  1  0
M  CHG  1  25   1
M  END
>  <DOCK_score>  (1) 
-56.335678

>  <SMILES>  (1) 
Clc1ccc(SC2=CCCC2)c(Nc2[nH]cc(C3=CCC=CC3)[nH+]2)c1

$$$$
