CCc1ccc(-c2c[nH]c(N[C@@H](Cc3ccc(-c4ccccc4)cc3)C3CCC3)[nH+]2)cc1
     RDKit          3D

 64 68  0  0  1  0  0  0  0  0999 V2000
  129.8488  128.9028  151.0829 C   0  0  0  0  0  0  0  0  0  0  0  0
  131.0216  129.8328  151.3993 C   0  0  0  0  0  0  0  0  0  0  0  0
  130.8121  130.4631  152.7520 C   0  0  0  0  0  0  0  0  0  0  0  0
  131.3010  129.8398  153.8855 C   0  0  0  0  0  0  0  0  0  0  0  0
  131.1170  130.4149  155.1265 C   0  0  0  0  0  0  0  0  0  0  0  0
  130.4272  131.6210  155.2372 C   0  0  0  0  0  0  0  0  0  0  0  0
  130.2215  132.2415  156.5687 C   0  0  0  0  0  0  0  0  0  0  0  0
  129.5694  131.6820  157.6178 C   0  0  0  0  0  0  0  0  0  0  0  0
  129.6124  132.5925  158.6455 N   0  0  0  0  0  0  0  0  0  0  0  0
  129.2300  132.4794  159.5297 H   0  0  0  0  0  0  0  0  0  0  0  0
  130.2902  133.6828  158.1939 C   0  0  0  0  0  0  0  0  0  0  0  0
  130.5535  134.8285  158.9251 N   0  0  0  0  0  0  0  0  0  0  0  0
  129.6248  135.2578  159.9736 C   0  0  1  0  0  0  0  0  0  0  0  0
  129.5430  134.4763  160.7290 H   0  0  0  0  0  0  0  0  0  0  0  0
  130.1461  136.5417  160.6223 C   0  0  0  0  0  0  0  0  0  0  0  0
  131.2197  136.1988  161.6229 C   0  0  0  0  0  0  0  0  0  0  0  0
  132.5419  136.1385  161.2212 C   0  0  0  0  0  0  0  0  0  0  0  0
  133.5297  135.8297  162.1344 C   0  0  0  0  0  0  0  0  0  0  0  0
  133.1917  135.5681  163.4607 C   0  0  0  0  0  0  0  0  0  0  0  0
  134.2487  135.2295  164.4455 C   0  0  0  0  0  0  0  0  0  0  0  0
  134.0898  135.5714  165.7870 C   0  0  0  0  0  0  0  0  0  0  0  0
  135.0740  135.2498  166.6996 C   0  0  0  0  0  0  0  0  0  0  0  0
  136.2211  134.5987  166.2830 C   0  0  0  0  0  0  0  0  0  0  0  0
  136.3864  134.2618  164.9516 C   0  0  0  0  0  0  0  0  0  0  0  0
  135.4063  134.5738  164.0314 C   0  0  0  0  0  0  0  0  0  0  0  0
  131.8576  135.6252  163.8584 C   0  0  0  0  0  0  0  0  0  0  0  0
  130.8784  135.9401  162.9381 C   0  0  0  0  0  0  0  0  0  0  0  0
  128.2480  135.5195  159.3596 C   0  0  0  0  0  0  0  0  0  0  0  0
  127.1793  135.9186  160.3908 C   0  0  0  0  0  0  0  0  0  0  0  0
  126.2001  135.0334  159.6019 C   0  0  0  0  0  0  0  0  0  0  0  0
  127.4272  134.2412  159.1205 C   0  0  0  0  0  0  0  0  0  0  0  0
  130.6577  133.4670  156.9545 N   0  0  0  0  0  0  0  0  0  0  0  0
  131.1592  134.0856  156.4006 H   0  0  0  0  0  0  0  0  0  0  0  0
  129.9318  132.2421  154.0920 C   0  0  0  0  0  0  0  0  0  0  0  0
  130.1265  131.6606  152.8557 C   0  0  0  0  0  0  0  0  0  0  0  0
  130.0003  128.4470  150.1044 H   0  0  0  0  0  0  0  0  0  0  0  0
  129.7893  128.1226  151.8418 H   0  0  0  0  0  0  0  0  0  0  0  0
  128.9215  129.4757  151.0772 H   0  0  0  0  0  0  0  0  0  0  0  0
  131.9485  129.2605  151.4046 H   0  0  0  0  0  0  0  0  0  0  0  0
  131.0809  130.6135  150.6402 H   0  0  0  0  0  0  0  0  0  0  0  0
  131.8313  128.9028  153.7991 H   0  0  0  0  0  0  0  0  0  0  0  0
  131.5034  129.9297  156.0105 H   0  0  0  0  0  0  0  0  0  0  0  0
  129.1048  130.7073  157.6408 H   0  0  0  0  0  0  0  0  0  0  0  0
  131.3528  135.3470  158.7433 H   0  0  0  0  0  0  0  0  0  0  0  0
  130.5605  137.1945  159.8541 H   0  0  0  0  0  0  0  0  0  0  0  0
  129.3266  137.0515  161.1290 H   0  0  0  0  0  0  0  0  0  0  0  0
  132.8023  136.3374  160.1922 H   0  0  0  0  0  0  0  0  0  0  0  0
  134.5623  135.7872  161.8208 H   0  0  0  0  0  0  0  0  0  0  0  0
  133.1964  136.0833  166.1127 H   0  0  0  0  0  0  0  0  0  0  0  0
  134.9500  135.5106  167.7402 H   0  0  0  0  0  0  0  0  0  0  0  0
  136.9908  134.3531  166.9996 H   0  0  0  0  0  0  0  0  0  0  0  0
  137.2842  133.7538  164.6317 H   0  0  0  0  0  0  0  0  0  0  0  0
  135.5364  134.3105  162.9920 H   0  0  0  0  0  0  0  0  0  0  0  0
  131.5901  135.4236  164.8853 H   0  0  0  0  0  0  0  0  0  0  0  0
  129.8441  135.9842  163.2453 H   0  0  0  0  0  0  0  0  0  0  0  0
  128.2895  136.1801  158.4936 H   0  0  0  0  0  0  0  0  0  0  0  0
  127.3852  135.5530  161.3968 H   0  0  0  0  0  0  0  0  0  0  0  0
  126.9251  136.9784  160.3682 H   0  0  0  0  0  0  0  0  0  0  0  0
  125.6805  135.5618  158.8027 H   0  0  0  0  0  0  0  0  0  0  0  0
  125.5269  134.4540  160.2340 H   0  0  0  0  0  0  0  0  0  0  0  0
  127.3730  133.9467  158.0724 H   0  0  0  0  0  0  0  0  0  0  0  0
  127.7019  133.4166  159.7782 H   0  0  0  0  0  0  0  0  0  0  0  0
  129.3961  133.1766  154.1720 H   0  0  0  0  0  0  0  0  0  0  0  0
  129.7427  132.1407  151.9677 H   0  0  0  0  0  0  0  0  0  0  0  0
  1  2  1  0
  1 36  1  0
  1 37  1  0
  1 38  1  0
  2  3  1  0
  2 39  1  0
  2 40  1  0
  3 35  2  0
  3  4  1  0
  4  5  2  0
  4 41  1  0
  5  6  1  0
  5 42  1  0
  6  7  1  0
  6 34  2  0
  7 32  1  0
  7  8  2  0
  8  9  1  0
  8 43  1  0
  9 10  1  0
  9 11  1  0
 11 12  1  0
 11 32  2  0
 12 13  1  0
 12 44  1  0
 13 14  1  1
 13 15  1  0
 13 28  1  0
 15 16  1  0
 15 45  1  0
 15 46  1  0
 16 27  1  0
 16 17  2  0
 17 18  1  0
 17 47  1  0
 18 19  2  0
 18 48  1  0
 19 20  1  0
 19 26  1  0
 20 25  1  0
 20 21  2  0
 21 22  1  0
 21 49  1  0
 22 23  2  0
 22 50  1  0
 23 24  1  0
 23 51  1  0
 24 25  2  0
 24 52  1  0
 25 53  1  0
 26 27  2  0
 26 54  1  0
 27 55  1  0
 28 31  1  0
 28 29  1  0
 28 56  1  0
 29 30  1  0
 29 57  1  0
 29 58  1  0
 30 31  1  0
 30 59  1  0
 30 60  1  0
 31 61  1  0
 31 62  1  0
 32 33  1  0
 34 35  1  0
 34 63  1  0
 35 64  1  0
M  CHG  1  32   1
M  END
>  <DOCK_score>  (1) 
-63.092663

>  <SMILES>  (1) 
CCc1ccc(-c2c[nH]c(N[C@@H](Cc3ccc(-c4ccccc4)cc3)C3CCC3)[nH+]2)cc1

$$$$
