CCc1ccc(-c2c[nH]c(N[C@H](c3ccncn3)c3cccc(CC)c3C)[nH+]2)cc1
     RDKit          3D

 58 61  0  0  1  0  0  0  0  0999 V2000
  130.1685  128.4844  151.5064 C   0  0  0  0  0  0  0  0  0  0  0  0
  131.1773  129.6232  151.6675 C   0  0  0  0  0  0  0  0  0  0  0  0
  130.9589  130.3043  152.9940 C   0  0  0  0  0  0  0  0  0  0  0  0
  131.6322  129.8571  154.1171 C   0  0  0  0  0  0  0  0  0  0  0  0
  131.4360  130.4768  155.3345 C   0  0  0  0  0  0  0  0  0  0  0  0
  130.5580  131.5552  155.4310 C   0  0  0  0  0  0  0  0  0  0  0  0
  130.3431  132.2254  156.7367 C   0  0  0  0  0  0  0  0  0  0  0  0
  129.8620  131.6433  157.8630 C   0  0  0  0  0  0  0  0  0  0  0  0
  129.8244  132.6177  158.8305 N   0  0  0  0  0  0  0  0  0  0  0  0
  129.5254  132.5065  159.7466 H   0  0  0  0  0  0  0  0  0  0  0  0
  130.2840  133.7679  158.2667 C   0  0  0  0  0  0  0  0  0  0  0  0
  130.4053  134.9883  158.9088 N   0  0  0  0  0  0  0  0  0  0  0  0
  130.0220  135.1164  160.3170 C   0  0  2  0  0  0  0  0  0  0  0  0
  130.3437  134.2297  160.8633 H   0  0  0  0  0  0  0  0  0  0  0  0
  128.5247  135.2539  160.4194 C   0  0  0  0  0  0  0  0  0  0  0  0
  127.8512  134.7867  161.5372 C   0  0  0  0  0  0  0  0  0  0  0  0
  126.4748  134.9389  161.5888 C   0  0  0  0  0  0  0  0  0  0  0  0
  125.8520  135.5128  160.5717 N   0  0  0  0  0  0  0  0  0  0  0  0
  126.5249  135.9409  159.5227 C   0  0  0  0  0  0  0  0  0  0  0  0
  127.8346  135.8174  159.4410 N   0  0  0  0  0  0  0  0  0  0  0  0
  130.6801  136.3367  160.9077 C   0  0  0  0  0  0  0  0  0  0  0  0
  129.9051  137.3551  161.4310 C   0  0  0  0  0  0  0  0  0  0  0  0
  130.5089  138.4720  161.9771 C   0  0  0  0  0  0  0  0  0  0  0  0
  131.8878  138.5752  161.9912 C   0  0  0  0  0  0  0  0  0  0  0  0
  132.6621  137.5599  161.4627 C   0  0  0  0  0  0  0  0  0  0  0  0
  134.1648  137.6729  161.4773 C   0  0  0  0  0  0  0  0  0  0  0  0
  134.7092  137.0672  162.7725 C   0  0  0  0  0  0  0  0  0  0  0  0
  132.0583  136.4403  160.9212 C   0  0  0  0  0  0  0  0  0  0  0  0
  132.9028  135.3331  160.3450 C   0  0  0  0  0  0  0  0  0  0  0  0
  130.5877  133.5308  157.0139 N   0  0  0  0  0  0  0  0  0  0  0  0
  130.9343  134.1839  156.3859 H   0  0  0  0  0  0  0  0  0  0  0  0
  129.8787  131.9977  154.2973 C   0  0  0  0  0  0  0  0  0  0  0  0
  130.0867  131.3737  153.0841 C   0  0  0  0  0  0  0  0  0  0  0  0
  130.3265  127.9919  150.5470 H   0  0  0  0  0  0  0  0  0  0  0  0
  130.3033  127.7626  152.3120 H   0  0  0  0  0  0  0  0  0  0  0  0
  129.1564  128.8876  151.5456 H   0  0  0  0  0  0  0  0  0  0  0  0
  131.0427  130.3448  150.8621 H   0  0  0  0  0  0  0  0  0  0  0  0
  132.1896  129.2198  151.6284 H   0  0  0  0  0  0  0  0  0  0  0  0
  132.3121  129.0215  154.0410 H   0  0  0  0  0  0  0  0  0  0  0  0
  131.9619  130.1272  156.2105 H   0  0  0  0  0  0  0  0  0  0  0  0
  129.5647  130.6113  157.9773 H   0  0  0  0  0  0  0  0  0  0  0  0
  130.7442  135.7587  158.4264 H   0  0  0  0  0  0  0  0  0  0  0  0
  128.3867  134.3186  162.3500 H   0  0  0  0  0  0  0  0  0  0  0  0
  125.9173  134.5902  162.4455 H   0  0  0  0  0  0  0  0  0  0  0  0
  125.9889  136.4052  158.7082 H   0  0  0  0  0  0  0  0  0  0  0  0
  128.8282  137.2762  161.4164 H   0  0  0  0  0  0  0  0  0  0  0  0
  129.9037  139.2656  162.3896 H   0  0  0  0  0  0  0  0  0  0  0  0
  132.3594  139.4497  162.4146 H   0  0  0  0  0  0  0  0  0  0  0  0
  134.5777  137.1359  160.6233 H   0  0  0  0  0  0  0  0  0  0  0  0
  134.4508  138.7231  161.4187 H   0  0  0  0  0  0  0  0  0  0  0  0
  134.2963  137.6044  163.6265 H   0  0  0  0  0  0  0  0  0  0  0  0
  134.4233  136.0171  162.8309 H   0  0  0  0  0  0  0  0  0  0  0  0
  135.7962  137.1490  162.7830 H   0  0  0  0  0  0  0  0  0  0  0  0
  133.0808  135.5249  159.2869 H   0  0  0  0  0  0  0  0  0  0  0  0
  133.8560  135.2913  160.8723 H   0  0  0  0  0  0  0  0  0  0  0  0
  132.3824  134.3821  160.4593 H   0  0  0  0  0  0  0  0  0  0  0  0
  129.1938  132.8297  154.3674 H   0  0  0  0  0  0  0  0  0  0  0  0
  129.5639  131.7183  152.2041 H   0  0  0  0  0  0  0  0  0  0  0  0
  1  2  1  0
  1 34  1  0
  1 35  1  0
  1 36  1  0
  2  3  1  0
  2 37  1  0
  2 38  1  0
  3 33  2  0
  3  4  1  0
  4  5  2  0
  4 39  1  0
  5  6  1  0
  5 40  1  0
  6  7  1  0
  6 32  2  0
  7 30  1  0
  7  8  2  0
  8  9  1  0
  8 41  1  0
  9 10  1  0
  9 11  1  0
 11 12  1  0
 11 30  2  0
 12 13  1  0
 12 42  1  0
 13 14  1  1
 13 15  1  0
 13 21  1  0
 15 20  1  0
 15 16  2  0
 16 17  1  0
 16 43  1  0
 17 18  2  0
 17 44  1  0
 18 19  1  0
 19 20  2  0
 19 45  1  0
 21 28  1  0
 21 22  2  0
 22 23  1  0
 22 46  1  0
 23 24  2  0
 23 47  1  0
 24 25  1  0
 24 48  1  0
 25 26  1  0
 25 28  2  0
 26 27  1  0
 26 49  1  0
 26 50  1  0
 27 51  1  0
 27 52  1  0
 27 53  1  0
 28 29  1  0
 29 54  1  0
 29 55  1  0
 29 56  1  0
 30 31  1  0
 32 33  1  0
 32 57  1  0
 33 58  1  0
M  CHG  1  30   1
M  END
>  <DOCK_score>  (1) 
-59.161919

>  <SMILES>  (1) 
CCc1ccc(-c2c[nH]c(N[C@H](c3ccncn3)c3cccc(CC)c3C)[nH+]2)cc1

$$$$
