Nc1ccc(-c2c[nH]c(N[C@H]3COCCC3(O)C[NH+]3CC4CC=CCC4C3)n2)cc1
     RDKit          3D

 62 66  0  0  1  0  0  0  0  0999 V2000
  134.7519  140.6948  167.6147 N   0  0  0  0  0  0  0  0  0  0  0  0
  134.4895  140.1567  166.3524 C   0  0  0  0  0  0  0  0  0  0  0  0
  134.1906  138.8055  166.2227 C   0  0  0  0  0  0  0  0  0  0  0  0
  133.9308  138.2723  164.9779 C   0  0  0  0  0  0  0  0  0  0  0  0
  133.9686  139.0893  163.8491 C   0  0  0  0  0  0  0  0  0  0  0  0
  133.6895  138.5179  162.5087 C   0  0  0  0  0  0  0  0  0  0  0  0
  134.5367  138.5151  161.4503 C   0  0  0  0  0  0  0  0  0  0  0  0
  133.8822  137.8871  160.4172 N   0  0  0  0  0  0  0  0  0  0  0  0
  134.2322  137.7293  159.5264 H   0  0  0  0  0  0  0  0  0  0  0  0
  132.6503  137.5325  160.8737 C   0  0  0  0  0  0  0  0  0  0  0  0
  131.6753  136.8795  160.1389 N   0  0  0  0  0  0  0  0  0  0  0  0
  130.3865  136.5562  160.7562 C   0  0  1  0  0  0  0  0  0  0  0  0
  130.5472  136.2220  161.7811 H   0  0  0  0  0  0  0  0  0  0  0  0
  129.4936  137.7998  160.7576 C   0  0  0  0  0  0  0  0  0  0  0  0
  128.2165  137.4669  161.3059 O   0  0  0  0  0  0  0  0  0  0  0  0
  127.5083  136.4658  160.5721 C   0  0  0  0  0  0  0  0  0  0  0  0
  128.3220  135.1690  160.5647 C   0  0  0  0  0  0  0  0  0  0  0  0
  129.7007  135.4440  159.9567 C   0  0  1  0  0  0  0  0  0  0  0  0
  129.5499  135.8564  158.5968 O   0  0  0  0  0  0  0  0  0  0  0  0
  130.5506  134.1733  160.0149 C   0  0  0  0  0  0  0  0  0  0  0  0
  129.8915  133.1078  159.2478 N   0  0  0  0  0  0  0  0  0  0  0  0
  128.9810  132.9190  159.6395 H   0  0  0  0  0  0  0  0  0  0  0  0
  129.7472  133.5280  157.8272 C   0  0  0  0  0  0  0  0  0  0  0  0
  129.9562  132.2274  157.0417 C   0  0  1  0  0  0  0  0  0  0  0  0
  130.4655  132.4041  155.6205 C   0  0  0  0  0  0  0  0  0  0  0  0
  130.9756  131.0615  155.1502 C   0  0  0  0  0  0  0  0  0  0  0  0
  131.2790  130.0761  155.9382 C   0  0  0  0  0  0  0  0  0  0  0  0
  131.1860  130.1316  157.4458 C   0  0  0  0  0  0  0  0  0  0  0  0
  131.1336  131.5957  157.8465 C   0  0  2  0  0  0  0  0  0  0  0  0
  130.7191  131.8763  159.2889 C   0  0  0  0  0  0  0  0  0  0  0  0
  132.5389  137.9110  162.1236 N   0  0  0  0  0  0  0  0  0  0  0  0
  134.2685  140.4442  163.9816 C   0  0  0  0  0  0  0  0  0  0  0  0
  134.5272  140.9733  165.2285 C   0  0  0  0  0  0  0  0  0  0  0  0
  134.7256  140.1256  168.3996 H   0  0  0  0  0  0  0  0  0  0  0  0
  134.9606  141.6376  167.7060 H   0  0  0  0  0  0  0  0  0  0  0  0
  134.1663  138.1719  167.0969 H   0  0  0  0  0  0  0  0  0  0  0  0
  133.6990  137.2222  164.8775 H   0  0  0  0  0  0  0  0  0  0  0  0
  135.5354  138.9253  161.4245 H   0  0  0  0  0  0  0  0  0  0  0  0
  131.8453  136.6363  159.2155 H   0  0  0  0  0  0  0  0  0  0  0  0
  129.9575  138.5797  161.3616 H   0  0  0  0  0  0  0  0  0  0  0  0
  129.3674  138.1579  159.7358 H   0  0  0  0  0  0  0  0  0  0  0  0
  127.3561  136.8054  159.5477 H   0  0  0  0  0  0  0  0  0  0  0  0
  126.5417  136.2856  161.0428 H   0  0  0  0  0  0  0  0  0  0  0  0
  127.8043  134.4176  159.9686 H   0  0  0  0  0  0  0  0  0  0  0  0
  128.4400  134.8061  161.5858 H   0  0  0  0  0  0  0  0  0  0  0  0
  130.3848  136.0543  158.1509 H   0  0  0  0  0  0  0  0  0  0  0  0
  131.5334  134.3734  159.5880 H   0  0  0  0  0  0  0  0  0  0  0  0
  130.6625  133.8582  161.0523 H   0  0  0  0  0  0  0  0  0  0  0  0
  128.7502  133.9293  157.6456 H   0  0  0  0  0  0  0  0  0  0  0  0
  130.5101  134.2609  157.5648 H   0  0  0  0  0  0  0  0  0  0  0  0
  129.0670  131.5982  157.0767 H   0  0  0  0  0  0  0  0  0  0  0  0
  129.6532  132.7382  154.9751 H   0  0  0  0  0  0  0  0  0  0  0  0
  131.2745  133.1345  155.6053 H   0  0  0  0  0  0  0  0  0  0  0  0
  131.0959  130.9123  154.0873 H   0  0  0  0  0  0  0  0  0  0  0  0
  131.6203  129.1561  155.4873 H   0  0  0  0  0  0  0  0  0  0  0  0
  132.0621  129.6577  157.8885 H   0  0  0  0  0  0  0  0  0  0  0  0
  130.2811  129.6238  157.7798 H   0  0  0  0  0  0  0  0  0  0  0  0
  132.0712  132.1006  157.6142 H   0  0  0  0  0  0  0  0  0  0  0  0
  131.6014  132.0380  159.9079 H   0  0  0  0  0  0  0  0  0  0  0  0
  130.1336  131.0440  159.6794 H   0  0  0  0  0  0  0  0  0  0  0  0
  134.2987  141.0789  163.1084 H   0  0  0  0  0  0  0  0  0  0  0  0
  134.7597  142.0228  165.3316 H   0  0  0  0  0  0  0  0  0  0  0  0
  1  2  1  0
  1 34  1  0
  1 35  1  0
  2 33  2  0
  2  3  1  0
  3  4  2  0
  3 36  1  0
  4  5  1  0
  4 37  1  0
  5  6  1  0
  5 32  2  0
  6 31  1  0
  6  7  2  0
  7  8  1  0
  7 38  1  0
  8  9  1  0
  8 10  1  0
 10 11  1  0
 10 31  2  0
 11 12  1  0
 11 39  1  0
 12 13  1  1
 12 18  1  0
 12 14  1  0
 14 15  1  0
 14 40  1  0
 14 41  1  0
 15 16  1  0
 16 17  1  0
 16 42  1  0
 16 43  1  0
 17 18  1  0
 17 44  1  0
 17 45  1  0
 18 19  1  6
 18 20  1  0
 19 46  1  0
 20 21  1  0
 20 47  1  0
 20 48  1  0
 21 22  1  0
 21 30  1  0
 21 23  1  0
 23 24  1  0
 23 49  1  0
 23 50  1  0
 24 29  1  0
 24 25  1  0
 24 51  1  6
 25 26  1  0
 25 52  1  0
 25 53  1  0
 26 27  2  0
 26 54  1  0
 27 28  1  0
 27 55  1  0
 28 29  1  0
 28 56  1  0
 28 57  1  0
 29 30  1  0
 29 58  1  6
 30 59  1  0
 30 60  1  0
 32 33  1  0
 32 61  1  0
 33 62  1  0
M  CHG  1  21   1
M  END
>  <DOCK_score>  (1) 
-56.238098

>  <SMILES>  (1) 
Nc1ccc(-c2c[nH]c(N[C@H]3COCCC3(O)C[NH+]3CC4CC=CCC4C3)n2)cc1

$$$$
