Cc1cccc(N2CC[NH+](C(c3ccccc3)c3ccccc3)CC2)c1C[C@@H]1C[C@H]2CC[C@H]2C1
     RDKit          3D

 73 78  0  0  1  0  0  0  0  0999 V2000
  136.1767  141.1340  162.7699 C   0  0  0  0  0  0  0  0  0  0  0  0
  135.4953  140.5327  161.5677 C   0  0  0  0  0  0  0  0  0  0  0  0
  135.7546  141.0330  160.3046 C   0  0  0  0  0  0  0  0  0  0  0  0
  135.1320  140.4839  159.1989 C   0  0  0  0  0  0  0  0  0  0  0  0
  134.2481  139.4336  159.3525 C   0  0  0  0  0  0  0  0  0  0  0  0
  133.9887  138.9260  160.6190 C   0  0  0  0  0  0  0  0  0  0  0  0
  133.0992  137.8609  160.7776 N   0  0  0  0  0  0  0  0  0  0  0  0
  133.6003  136.6521  160.1083 C   0  0  0  0  0  0  0  0  0  0  0  0
  132.6287  135.4959  160.3554 C   0  0  0  0  0  0  0  0  0  0  0  0
  131.3022  135.8509  159.8341 N   0  0  0  0  0  0  0  0  0  0  0  0
  131.3695  136.0409  158.8455 H   0  0  0  0  0  0  0  0  0  0  0  0
  130.3744  134.7337  160.0553 C   0  0  0  0  0  0  0  0  0  0  0  0
  129.0133  135.0975  159.5205 C   0  0  0  0  0  0  0  0  0  0  0  0
  127.8776  134.5637  160.1003 C   0  0  0  0  0  0  0  0  0  0  0  0
  126.6288  134.9009  159.6125 C   0  0  0  0  0  0  0  0  0  0  0  0
  126.5160  135.7645  158.5396 C   0  0  0  0  0  0  0  0  0  0  0  0
  127.6522  136.2942  157.9560 C   0  0  0  0  0  0  0  0  0  0  0  0
  128.9007  135.9605  158.4466 C   0  0  0  0  0  0  0  0  0  0  0  0
  130.8839  133.5086  159.3407 C   0  0  0  0  0  0  0  0  0  0  0  0
  130.4996  133.2594  158.0364 C   0  0  0  0  0  0  0  0  0  0  0  0
  130.9704  132.1379  157.3794 C   0  0  0  0  0  0  0  0  0  0  0  0
  131.8188  131.2613  158.0296 C   0  0  0  0  0  0  0  0  0  0  0  0
  132.1983  131.5073  159.3358 C   0  0  0  0  0  0  0  0  0  0  0  0
  131.7310  132.6311  159.9913 C   0  0  0  0  0  0  0  0  0  0  0  0
  130.8045  137.0452  160.5292 C   0  0  0  0  0  0  0  0  0  0  0  0
  131.7609  138.2144  160.2836 C   0  0  0  0  0  0  0  0  0  0  0  0
  134.6125  139.4832  161.7285 C   0  0  0  0  0  0  0  0  0  0  0  0
  134.3305  138.9387  163.1052 C   0  0  0  0  0  0  0  0  0  0  0  0
  135.6309  138.4256  163.7269 C   0  0  2  0  0  0  0  0  0  0  0  0
  136.4509  139.1034  163.4892 H   0  0  0  0  0  0  0  0  0  0  0  0
  135.9235  137.0189  163.1990 C   0  0  0  0  0  0  0  0  0  0  0  0
  135.9901  136.0713  164.4076 C   0  0  1  0  0  0  0  0  0  0  0  0
  135.2054  135.3155  164.4415 H   0  0  0  0  0  0  0  0  0  0  0  0
  137.4128  135.5773  164.7274 C   0  0  0  0  0  0  0  0  0  0  0  0
  137.6413  136.9276  165.4268 C   0  0  0  0  0  0  0  0  0  0  0  0
  136.1239  136.9785  165.6518 C   0  0  1  0  0  0  0  0  0  0  0  0
  135.7625  136.5606  166.5914 H   0  0  0  0  0  0  0  0  0  0  0  0
  135.4723  138.3111  165.2501 C   0  0  0  0  0  0  0  0  0  0  0  0
  137.1519  140.6667  162.9062 H   0  0  0  0  0  0  0  0  0  0  0  0
  136.3053  142.2054  162.6164 H   0  0  0  0  0  0  0  0  0  0  0  0
  135.5655  140.9648  163.6563 H   0  0  0  0  0  0  0  0  0  0  0  0
  136.4453  141.8541  160.1816 H   0  0  0  0  0  0  0  0  0  0  0  0
  135.3372  140.8764  158.2139 H   0  0  0  0  0  0  0  0  0  0  0  0
  133.7621  139.0053  158.4885 H   0  0  0  0  0  0  0  0  0  0  0  0
  133.6810  136.8365  159.0370 H   0  0  0  0  0  0  0  0  0  0  0  0
  134.5810  136.3949  160.5084 H   0  0  0  0  0  0  0  0  0  0  0  0
  132.5586  135.3028  161.4259 H   0  0  0  0  0  0  0  0  0  0  0  0
  132.9913  134.6020  159.8480 H   0  0  0  0  0  0  0  0  0  0  0  0
  130.3020  134.5276  161.1232 H   0  0  0  0  0  0  0  0  0  0  0  0
  127.9657  133.8860  160.9364 H   0  0  0  0  0  0  0  0  0  0  0  0
  125.7414  134.4872  160.0682 H   0  0  0  0  0  0  0  0  0  0  0  0
  125.5407  136.0259  158.1561 H   0  0  0  0  0  0  0  0  0  0  0  0
  127.5642  136.9691  157.1175 H   0  0  0  0  0  0  0  0  0  0  0  0
  129.7881  136.3744  157.9911 H   0  0  0  0  0  0  0  0  0  0  0  0
  129.8344  133.9427  157.5296 H   0  0  0  0  0  0  0  0  0  0  0  0
  130.6737  131.9456  156.3589 H   0  0  0  0  0  0  0  0  0  0  0  0
  132.1833  130.3832  157.5170 H   0  0  0  0  0  0  0  0  0  0  0  0
  132.8607  130.8221  159.8438 H   0  0  0  0  0  0  0  0  0  0  0  0
  132.0279  132.8236  161.0117 H   0  0  0  0  0  0  0  0  0  0  0  0
  130.7438  136.8442  161.5988 H   0  0  0  0  0  0  0  0  0  0  0  0
  129.8146  137.2999  160.1506 H   0  0  0  0  0  0  0  0  0  0  0  0
  131.3997  139.0968  160.8114 H   0  0  0  0  0  0  0  0  0  0  0  0
  131.8114  138.4245  159.2152 H   0  0  0  0  0  0  0  0  0  0  0  0
  133.6147  138.1199  163.0324 H   0  0  0  0  0  0  0  0  0  0  0  0
  133.9159  139.7293  163.7306 H   0  0  0  0  0  0  0  0  0  0  0  0
  136.8848  137.0326  162.6855 H   0  0  0  0  0  0  0  0  0  0  0  0
  135.1406  136.6920  162.5146 H   0  0  0  0  0  0  0  0  0  0  0  0
  137.4366  134.7247  165.4060 H   0  0  0  0  0  0  0  0  0  0  0  0
  138.0333  135.4317  163.8430 H   0  0  0  0  0  0  0  0  0  0  0  0
  138.0104  137.7076  164.7606 H   0  0  0  0  0  0  0  0  0  0  0  0
  138.2172  136.8499  166.3490 H   0  0  0  0  0  0  0  0  0  0  0  0
  134.4156  138.3072  165.5175 H   0  0  0  0  0  0  0  0  0  0  0  0
  135.9801  139.1401  165.7431 H   0  0  0  0  0  0  0  0  0  0  0  0
  1  2  1  0
  1 39  1  0
  1 40  1  0
  1 41  1  0
  2 27  2  0
  2  3  1  0
  3  4  2  0
  3 42  1  0
  4  5  1  0
  4 43  1  0
  5  6  2  0
  5 44  1  0
  6  7  1  0
  6 27  1  0
  7 26  1  0
  7  8  1  0
  8  9  1  0
  8 45  1  0
  8 46  1  0
  9 10  1  0
  9 47  1  0
  9 48  1  0
 10 11  1  0
 10 12  1  0
 10 25  1  0
 12 13  1  0
 12 19  1  0
 12 49  1  0
 13 18  1  0
 13 14  2  0
 14 15  1  0
 14 50  1  0
 15 16  2  0
 15 51  1  0
 16 17  1  0
 16 52  1  0
 17 18  2  0
 17 53  1  0
 18 54  1  0
 19 24  1  0
 19 20  2  0
 20 21  1  0
 20 55  1  0
 21 22  2  0
 21 56  1  0
 22 23  1  0
 22 57  1  0
 23 24  2  0
 23 58  1  0
 24 59  1  0
 25 26  1  0
 25 60  1  0
 25 61  1  0
 26 62  1  0
 26 63  1  0
 27 28  1  0
 28 29  1  0
 28 64  1  0
 28 65  1  0
 29 30  1  1
 29 38  1  0
 29 31  1  0
 31 32  1  0
 31 66  1  0
 31 67  1  0
 32 33  1  1
 32 36  1  0
 32 34  1  0
 34 35  1  0
 34 68  1  0
 34 69  1  0
 35 36  1  0
 35 70  1  0
 35 71  1  0
 36 37  1  1
 36 38  1  0
 38 72  1  0
 38 73  1  0
M  CHG  1  10   1
M  END
>  <DOCK_score>  (1) 
-59.550873

>  <SMILES>  (1) 
Cc1cccc(N2CC[NH+](C(c3ccccc3)c3ccccc3)CC2)c1C[C@@H]1C[C@H]2CC[C@H]2C1

$$$$
