CCc1ccc(-c2c[nH]c(N[C@H](C)CC3=C[C@@H]4C[C@H]3[C@H](O)[C@@H]4O)[nH+]2)cc1
     RDKit          3D

 54 57  0  0  1  0  0  0  0  0999 V2000
  130.2866  128.6213  151.6498 C   0  0  0  0  0  0  0  0  0  0  0  0
  131.4156  129.5939  151.9968 C   0  0  0  0  0  0  0  0  0  0  0  0
  131.0656  130.3390  153.2591 C   0  0  0  0  0  0  0  0  0  0  0  0
  131.4419  129.8269  154.4877 C   0  0  0  0  0  0  0  0  0  0  0  0
  131.1253  130.5052  155.6471 C   0  0  0  0  0  0  0  0  0  0  0  0
  130.4254  131.7085  155.5784 C   0  0  0  0  0  0  0  0  0  0  0  0
  130.0822  132.4422  156.8211 C   0  0  0  0  0  0  0  0  0  0  0  0
  129.3176  131.9743  157.8386 C   0  0  0  0  0  0  0  0  0  0  0  0
  129.2561  132.9711  158.7820 N   0  0  0  0  0  0  0  0  0  0  0  0
  128.7809  132.9340  159.6267 H   0  0  0  0  0  0  0  0  0  0  0  0
  129.9857  134.0198  158.3129 C   0  0  0  0  0  0  0  0  0  0  0  0
  130.1761  135.2257  158.9656 N   0  0  0  0  0  0  0  0  0  0  0  0
  129.1427  135.7422  159.8663 C   0  0  2  0  0  0  0  0  0  0  0  0
  128.9751  135.0293  160.6737 H   0  0  0  0  0  0  0  0  0  0  0  0
  127.8420  135.9453  159.0869 C   0  0  0  0  0  0  0  0  0  0  0  0
  129.5996  137.0793  160.4532 C   0  0  0  0  0  0  0  0  0  0  0  0
  130.8808  136.8794  161.2210 C   0  0  0  0  0  0  0  0  0  0  0  0
  131.5190  135.7361  161.3712 C   0  0  0  0  0  0  0  0  0  0  0  0
  132.7706  135.9876  162.2208 C   0  0  2  0  0  0  0  0  0  0  0  0
  133.2143  135.1140  162.6986 H   0  0  0  0  0  0  0  0  0  0  0  0
  132.2324  137.1288  163.1592 C   0  0  0  0  0  0  0  0  0  0  0  0
  131.6632  137.9719  161.9601 C   0  0  1  0  0  0  0  0  0  0  0  0
  131.1123  138.8803  162.2039 H   0  0  0  0  0  0  0  0  0  0  0  0
  132.9578  138.1561  161.1056 C   0  0  2  0  0  0  0  0  0  0  0  0
  133.5572  138.9826  161.4873 H   0  0  0  0  0  0  0  0  0  0  0  0
  132.6268  138.3700  159.7321 O   0  0  0  0  0  0  0  0  0  0  0  0
  133.7074  136.8129  161.2821 C   0  0  2  0  0  0  0  0  0  0  0  0
  134.6768  136.9742  161.7536 H   0  0  0  0  0  0  0  0  0  0  0  0
  133.8659  136.1569  160.0226 O   0  0  0  0  0  0  0  0  0  0  0  0
  130.4737  133.7017  157.1388 N   0  0  0  0  0  0  0  0  0  0  0  0
  131.0278  134.2747  156.5859 H   0  0  0  0  0  0  0  0  0  0  0  0
  130.0441  132.2169  154.3381 C   0  0  0  0  0  0  0  0  0  0  0  0
  130.3710  131.5330  153.1848 C   0  0  0  0  0  0  0  0  0  0  0  0
  130.1554  127.9113  152.4663 H   0  0  0  0  0  0  0  0  0  0  0  0
  129.3610  129.1773  151.4995 H   0  0  0  0  0  0  0  0  0  0  0  0
  130.5390  128.0824  150.7366 H   0  0  0  0  0  0  0  0  0  0  0  0
  131.5465  130.3043  151.1800 H   0  0  0  0  0  0  0  0  0  0  0  0
  132.3408  129.0384  152.1467 H   0  0  0  0  0  0  0  0  0  0  0  0
  131.9842  128.8945  154.5398 H   0  0  0  0  0  0  0  0  0  0  0  0
  131.4190  130.1042  156.6060 H   0  0  0  0  0  0  0  0  0  0  0  0
  128.8473  131.0038  157.8966 H   0  0  0  0  0  0  0  0  0  0  0  0
  130.9938  135.7286  158.8264 H   0  0  0  0  0  0  0  0  0  0  0  0
  128.0095  136.6581  158.2796 H   0  0  0  0  0  0  0  0  0  0  0  0
  127.5163  134.9927  158.6689 H   0  0  0  0  0  0  0  0  0  0  0  0
  127.0730  136.3296  159.7571 H   0  0  0  0  0  0  0  0  0  0  0  0
  128.8307  137.4638  161.1233 H   0  0  0  0  0  0  0  0  0  0  0  0
  129.7673  137.7921  159.6458 H   0  0  0  0  0  0  0  0  0  0  0  0
  131.2122  134.7835  160.9650 H   0  0  0  0  0  0  0  0  0  0  0  0
  131.4498  136.7806  163.8334 H   0  0  0  0  0  0  0  0  0  0  0  0
  133.0324  137.6450  163.6902 H   0  0  0  0  0  0  0  0  0  0  0  0
  132.0765  137.6743  159.3471 H   0  0  0  0  0  0  0  0  0  0  0  0
  134.3860  136.6589  159.3802 H   0  0  0  0  0  0  0  0  0  0  0  0
  129.4973  133.1465  154.2792 H   0  0  0  0  0  0  0  0  0  0  0  0
  130.0800  131.9282  152.2228 H   0  0  0  0  0  0  0  0  0  0  0  0
  1  2  1  0
  1 34  1  0
  1 35  1  0
  1 36  1  0
  2  3  1  0
  2 37  1  0
  2 38  1  0
  3 33  2  0
  3  4  1  0
  4  5  2  0
  4 39  1  0
  5  6  1  0
  5 40  1  0
  6  7  1  0
  6 32  2  0
  7 30  1  0
  7  8  2  0
  8  9  1  0
  8 41  1  0
  9 10  1  0
  9 11  1  0
 11 12  1  0
 11 30  2  0
 12 13  1  0
 12 42  1  0
 13 14  1  1
 13 15  1  0
 13 16  1  0
 15 43  1  0
 15 44  1  0
 15 45  1  0
 16 17  1  0
 16 46  1  0
 16 47  1  0
 17 22  1  0
 17 18  2  0
 18 19  1  0
 18 48  1  0
 19 20  1  1
 19 27  1  0
 19 21  1  0
 21 22  1  0
 21 49  1  0
 21 50  1  0
 22 23  1  1
 22 24  1  0
 24 25  1  1
 24 26  1  0
 24 27  1  0
 26 51  1  0
 27 28  1  1
 27 29  1  0
 29 52  1  0
 30 31  1  0
 32 33  1  0
 32 53  1  0
 33 54  1  0
M  CHG  1  30   1
M  END
>  <DOCK_score>  (1) 
-55.958694

>  <SMILES>  (1) 
CCc1ccc(-c2c[nH]c(N[C@H](C)CC3=C[C@@H]4C[C@H]3[C@H](O)[C@@H]4O)[nH+]2)cc1

$$$$
