Cn1nccc1[C@H](COc1cccc2ccccc12)[NH+]=C1NCCN1
     RDKit          3D

 47 50  0  0  1  0  0  0  0  0999 V2000
  128.4489  136.2437  158.2476 C   0  0  0  0  0  0  0  0  0  0  0  0
  128.1050  136.0997  159.6643 N   0  0  0  0  0  0  0  0  0  0  0  0
  126.8459  136.3290  160.2342 N   0  0  0  0  0  0  0  0  0  0  0  0
  126.9302  136.0965  161.5190 C   0  0  0  0  0  0  0  0  0  0  0  0
  128.2423  135.7072  161.8073 C   0  0  0  0  0  0  0  0  0  0  0  0
  128.9448  135.7222  160.6508 C   0  0  0  0  0  0  0  0  0  0  0  0
  130.4023  135.3736  160.4919 C   0  0  2  0  0  0  0  0  0  0  0  0
  130.6848  134.6402  161.2470 H   0  0  0  0  0  0  0  0  0  0  0  0
  131.2501  136.6356  160.6641 C   0  0  0  0  0  0  0  0  0  0  0  0
  132.6322  136.3051  160.5135 O   0  0  0  0  0  0  0  0  0  0  0  0
  133.5259  137.3200  160.6381 C   0  0  0  0  0  0  0  0  0  0  0  0
  133.4697  138.3938  159.7944 C   0  0  0  0  0  0  0  0  0  0  0  0
  134.3750  139.4444  159.9127 C   0  0  0  0  0  0  0  0  0  0  0  0
  135.3494  139.4285  160.8638 C   0  0  0  0  0  0  0  0  0  0  0  0
  135.4445  138.3398  161.7471 C   0  0  0  0  0  0  0  0  0  0  0  0
  136.4374  138.2909  162.7407 C   0  0  0  0  0  0  0  0  0  0  0  0
  136.4990  137.2205  163.5789 C   0  0  0  0  0  0  0  0  0  0  0  0
  135.5909  136.1692  163.4679 C   0  0  0  0  0  0  0  0  0  0  0  0
  134.6159  136.1830  162.5179 C   0  0  0  0  0  0  0  0  0  0  0  0
  134.5215  137.2704  161.6347 C   0  0  0  0  0  0  0  0  0  0  0  0
  130.6274  134.8124  159.1576 N   0  0  0  0  0  0  0  0  0  0  0  0
  131.2413  135.2476  158.5456 H   0  0  0  0  0  0  0  0  0  0  0  0
  130.0028  133.7281  158.7928 C   0  0  0  0  0  0  0  0  0  0  0  0
  129.1272  133.0517  159.5970 N   0  0  0  0  0  0  0  0  0  0  0  0
  128.6101  131.8852  158.8684 C   0  0  0  0  0  0  0  0  0  0  0  0
  129.3086  131.9439  157.4981 C   0  0  0  0  0  0  0  0  0  0  0  0
  130.1572  133.1413  157.5669 N   0  0  0  0  0  0  0  0  0  0  0  0
  128.2817  135.2963  157.7350 H   0  0  0  0  0  0  0  0  0  0  0  0
  127.8233  137.0152  157.7984 H   0  0  0  0  0  0  0  0  0  0  0  0
  129.4975  136.5268  158.1553 H   0  0  0  0  0  0  0  0  0  0  0  0
  126.1247  136.1858  162.2328 H   0  0  0  0  0  0  0  0  0  0  0  0
  128.6274  135.4433  162.7812 H   0  0  0  0  0  0  0  0  0  0  0  0
  131.0825  137.0533  161.6569 H   0  0  0  0  0  0  0  0  0  0  0  0
  130.9675  137.3690  159.9089 H   0  0  0  0  0  0  0  0  0  0  0  0
  132.7094  138.4296  159.0282 H   0  0  0  0  0  0  0  0  0  0  0  0
  134.3063  140.2836  159.2363 H   0  0  0  0  0  0  0  0  0  0  0  0
  136.0469  140.2496  160.9386 H   0  0  0  0  0  0  0  0  0  0  0  0
  137.1481  139.0984  162.8381 H   0  0  0  0  0  0  0  0  0  0  0  0
  137.2631  137.1851  164.3415 H   0  0  0  0  0  0  0  0  0  0  0  0
  135.6616  135.3314  164.1456 H   0  0  0  0  0  0  0  0  0  0  0  0
  133.9192  135.3612  162.4433 H   0  0  0  0  0  0  0  0  0  0  0  0
  128.8849  133.3029  160.5020 H   0  0  0  0  0  0  0  0  0  0  0  0
  127.5292  131.9568  158.7476 H   0  0  0  0  0  0  0  0  0  0  0  0
  128.8734  130.9652  159.3903 H   0  0  0  0  0  0  0  0  0  0  0  0
  128.5728  132.0445  156.7003 H   0  0  0  0  0  0  0  0  0  0  0  0
  129.9185  131.0541  157.3417 H   0  0  0  0  0  0  0  0  0  0  0  0
  130.7344  133.4639  156.8571 H   0  0  0  0  0  0  0  0  0  0  0  0
  1  2  1  0
  1 28  1  0
  1 29  1  0
  1 30  1  0
  2  6  1  0
  2  3  1  0
  3  4  2  0
  4  5  1  0
  4 31  1  0
  5  6  2  0
  5 32  1  0
  6  7  1  0
  7  8  1  1
  7  9  1  0
  7 21  1  0
  9 10  1  0
  9 33  1  0
  9 34  1  0
 10 11  1  0
 11 20  1  0
 11 12  2  0
 12 13  1  0
 12 35  1  0
 13 14  2  0
 13 36  1  0
 14 15  1  0
 14 37  1  0
 15 20  2  0
 15 16  1  0
 16 17  2  0
 16 38  1  0
 17 18  1  0
 17 39  1  0
 18 19  2  0
 18 40  1  0
 19 20  1  0
 19 41  1  0
 21 22  1  0
 21 23  2  0
 23 27  1  0
 23 24  1  0
 24 25  1  0
 24 42  1  0
 25 26  1  0
 25 43  1  0
 25 44  1  0
 26 27  1  0
 26 45  1  0
 26 46  1  0
 27 47  1  0
M  CHG  1  21   1
M  END
>  <DOCK_score>  (1) 
-48.238777

>  <SMILES>  (1) 
Cn1nccc1[C@H](COc1cccc2ccccc12)[NH+]=C1NCCN1

$$$$
