Cc1ccccc1N1CC[NH+]([C@@H](c2ccccc2)c2ccccc2-c2ccccc2)CC1
     RDKit          3D

 63 67  0  0  1  0  0  0  0  0999 V2000
  133.2912  139.2376  163.1439 C   0  0  0  0  0  0  0  0  0  0  0  0
  133.9193  139.5842  161.8186 C   0  0  0  0  0  0  0  0  0  0  0  0
  134.8630  140.5899  161.7427 C   0  0  0  0  0  0  0  0  0  0  0  0
  135.4356  140.9125  160.5262 C   0  0  0  0  0  0  0  0  0  0  0  0
  135.0696  140.2261  159.3824 C   0  0  0  0  0  0  0  0  0  0  0  0
  134.1304  139.2163  159.4522 C   0  0  0  0  0  0  0  0  0  0  0  0
  133.5531  138.8898  160.6729 C   0  0  0  0  0  0  0  0  0  0  0  0
  132.6023  137.8692  160.7469 N   0  0  0  0  0  0  0  0  0  0  0  0
  131.4039  138.2083  159.9666 C   0  0  0  0  0  0  0  0  0  0  0  0
  130.3659  137.0946  160.1217 C   0  0  0  0  0  0  0  0  0  0  0  0
  130.9352  135.8253  159.6502 N   0  0  0  0  0  0  0  0  0  0  0  0
  131.2030  135.9162  158.6817 H   0  0  0  0  0  0  0  0  0  0  0  0
  129.9325  134.7600  159.7829 C   0  0  1  0  0  0  0  0  0  0  0  0
  129.6428  134.6618  160.8290 H   0  0  0  0  0  0  0  0  0  0  0  0
  128.7206  135.1051  158.9562 C   0  0  0  0  0  0  0  0  0  0  0  0
  127.4702  134.6612  159.3438 C   0  0  0  0  0  0  0  0  0  0  0  0
  126.3581  134.9816  158.5879 C   0  0  0  0  0  0  0  0  0  0  0  0
  126.4976  135.7378  157.4392 C   0  0  0  0  0  0  0  0  0  0  0  0
  127.7486  136.1776  157.0490 C   0  0  0  0  0  0  0  0  0  0  0  0
  128.8603  135.8610  157.8073 C   0  0  0  0  0  0  0  0  0  0  0  0
  130.5163  133.4577  159.2991 C   0  0  0  0  0  0  0  0  0  0  0  0
  130.9572  133.3390  157.9963 C   0  0  0  0  0  0  0  0  0  0  0  0
  131.4931  132.1444  157.5511 C   0  0  0  0  0  0  0  0  0  0  0  0
  131.5906  131.0622  158.4075 C   0  0  0  0  0  0  0  0  0  0  0  0
  131.1528  131.1697  159.7118 C   0  0  0  0  0  0  0  0  0  0  0  0
  130.6172  132.3728  160.1674 C   0  0  0  0  0  0  0  0  0  0  0  0
  130.1505  132.4961  161.5705 C   0  0  0  0  0  0  0  0  0  0  0  0
  131.0302  132.9175  162.5656 C   0  0  0  0  0  0  0  0  0  0  0  0
  130.5891  133.0364  163.8680 C   0  0  0  0  0  0  0  0  0  0  0  0
  129.2797  132.7263  164.1884 C   0  0  0  0  0  0  0  0  0  0  0  0
  128.4037  132.3021  163.2057 C   0  0  0  0  0  0  0  0  0  0  0  0
  128.8324  132.1856  161.8989 C   0  0  0  0  0  0  0  0  0  0  0  0
  132.1168  135.4880  160.4550 C   0  0  0  0  0  0  0  0  0  0  0  0
  133.1693  136.5880  160.3025 C   0  0  0  0  0  0  0  0  0  0  0  0
  133.8869  138.4707  163.6389 H   0  0  0  0  0  0  0  0  0  0  0  0
  133.2517  140.1282  163.7712 H   0  0  0  0  0  0  0  0  0  0  0  0
  132.2807  138.8633  162.9803 H   0  0  0  0  0  0  0  0  0  0  0  0
  135.1508  141.1278  162.6337 H   0  0  0  0  0  0  0  0  0  0  0  0
  136.1704  141.7019  160.4689 H   0  0  0  0  0  0  0  0  0  0  0  0
  135.5188  140.4804  158.4338 H   0  0  0  0  0  0  0  0  0  0  0  0
  133.8447  138.6813  158.5586 H   0  0  0  0  0  0  0  0  0  0  0  0
  131.6717  138.3119  158.9151 H   0  0  0  0  0  0  0  0  0  0  0  0
  130.9868  139.1474  160.3303 H   0  0  0  0  0  0  0  0  0  0  0  0
  129.4818  137.3374  159.5324 H   0  0  0  0  0  0  0  0  0  0  0  0
  130.0882  137.0005  161.1716 H   0  0  0  0  0  0  0  0  0  0  0  0
  127.3618  134.0669  160.2391 H   0  0  0  0  0  0  0  0  0  0  0  0
  125.3806  134.6380  158.8929 H   0  0  0  0  0  0  0  0  0  0  0  0
  125.6291  135.9852  156.8468 H   0  0  0  0  0  0  0  0  0  0  0  0
  127.8576  136.7685  156.1515 H   0  0  0  0  0  0  0  0  0  0  0  0
  129.8376  136.2045  157.5022 H   0  0  0  0  0  0  0  0  0  0  0  0
  130.8832  134.1806  157.3236 H   0  0  0  0  0  0  0  0  0  0  0  0
  131.8366  132.0559  156.5310 H   0  0  0  0  0  0  0  0  0  0  0  0
  132.0097  130.1315  158.0544 H   0  0  0  0  0  0  0  0  0  0  0  0
  131.2290  130.3241  160.3792 H   0  0  0  0  0  0  0  0  0  0  0  0
  132.0541  133.1553  162.3173 H   0  0  0  0  0  0  0  0  0  0  0  0
  131.2688  133.3672  164.6393 H   0  0  0  0  0  0  0  0  0  0  0  0
  128.9401  132.8162  165.2097 H   0  0  0  0  0  0  0  0  0  0  0  0
  127.3824  132.0613  163.4612 H   0  0  0  0  0  0  0  0  0  0  0  0
  128.1476  131.8545  161.1322 H   0  0  0  0  0  0  0  0  0  0  0  0
  131.8301  135.4021  161.5031 H   0  0  0  0  0  0  0  0  0  0  0  0
  132.5308  134.5396  160.1127 H   0  0  0  0  0  0  0  0  0  0  0  0
  133.4663  136.6649  159.2566 H   0  0  0  0  0  0  0  0  0  0  0  0
  134.0404  136.3452  160.9111 H   0  0  0  0  0  0  0  0  0  0  0  0
  1  2  1  0
  1 35  1  0
  1 36  1  0
  1 37  1  0
  2  7  2  0
  2  3  1  0
  3  4  2  0
  3 38  1  0
  4  5  1  0
  4 39  1  0
  5  6  2  0
  5 40  1  0
  6  7  1  0
  6 41  1  0
  7  8  1  0
  8 34  1  0
  8  9  1  0
  9 10  1  0
  9 42  1  0
  9 43  1  0
 10 11  1  0
 10 44  1  0
 10 45  1  0
 11 12  1  0
 11 13  1  0
 11 33  1  0
 13 14  1  1
 13 15  1  0
 13 21  1  0
 15 20  1  0
 15 16  2  0
 16 17  1  0
 16 46  1  0
 17 18  2  0
 17 47  1  0
 18 19  1  0
 18 48  1  0
 19 20  2  0
 19 49  1  0
 20 50  1  0
 21 26  1  0
 21 22  2  0
 22 23  1  0
 22 51  1  0
 23 24  2  0
 23 52  1  0
 24 25  1  0
 24 53  1  0
 25 26  2  0
 25 54  1  0
 26 27  1  0
 27 32  1  0
 27 28  2  0
 28 29  1  0
 28 55  1  0
 29 30  2  0
 29 56  1  0
 30 31  1  0
 30 57  1  0
 31 32  2  0
 31 58  1  0
 32 59  1  0
 33 34  1  0
 33 60  1  0
 33 61  1  0
 34 62  1  0
 34 63  1  0
M  CHG  1  11   1
M  END
>  <DOCK_score>  (1) 
-59.536377

>  <SMILES>  (1) 
Cc1ccccc1N1CC[NH+]([C@@H](c2ccccc2)c2ccccc2-c2ccccc2)CC1

$$$$
