FC(F)(F)[C@@H](Nc1[nH]cc(-c2ccc(-c3ccccc3)cc2)[nH+]1)C1=COCCC1
     RDKit          3D

 50 53  0  0  1  0  0  0  0  0999 V2000
  129.8767  136.0090  163.0322 F   0  0  0  0  0  0  0  0  0  0  0  0
  130.0215  135.7963  161.6570 C   0  0  0  0  0  0  0  0  0  0  0  0
  129.2846  136.7570  160.9563 F   0  0  0  0  0  0  0  0  0  0  0  0
  129.5525  134.5194  161.3307 F   0  0  0  0  0  0  0  0  0  0  0  0
  131.4992  135.9096  161.2764 C   0  0  1  0  0  0  0  0  0  0  0  0
  132.0733  135.1610  161.8223 H   0  0  0  0  0  0  0  0  0  0  0  0
  131.6510  135.6869  159.8364 N   0  0  0  0  0  0  0  0  0  0  0  0
  131.2524  134.4855  159.2760 C   0  0  0  0  0  0  0  0  0  0  0  0
  130.7135  133.4351  159.9533 N   0  0  0  0  0  0  0  0  0  0  0  0
  130.5407  133.3943  160.9070 H   0  0  0  0  0  0  0  0  0  0  0  0
  130.4591  132.4437  159.0374 C   0  0  0  0  0  0  0  0  0  0  0  0
  130.8496  132.9163  157.8272 C   0  0  0  0  0  0  0  0  0  0  0  0
  130.7647  132.1897  156.5378 C   0  0  0  0  0  0  0  0  0  0  0  0
  130.0074  132.7139  155.4902 C   0  0  0  0  0  0  0  0  0  0  0  0
  129.9288  132.0388  154.2923 C   0  0  0  0  0  0  0  0  0  0  0  0
  130.6066  130.8309  154.1268 C   0  0  0  0  0  0  0  0  0  0  0  0
  130.5220  130.1040  152.8369 C   0  0  0  0  0  0  0  0  0  0  0  0
  130.6241  128.7147  152.8086 C   0  0  0  0  0  0  0  0  0  0  0  0
  130.5403  128.0433  151.6056 C   0  0  0  0  0  0  0  0  0  0  0  0
  130.3652  128.7474  150.4285 C   0  0  0  0  0  0  0  0  0  0  0  0
  130.2679  130.1276  150.4494 C   0  0  0  0  0  0  0  0  0  0  0  0
  130.3455  130.8091  151.6469 C   0  0  0  0  0  0  0  0  0  0  0  0
  131.3589  130.3041  155.1758 C   0  0  0  0  0  0  0  0  0  0  0  0
  131.4424  130.9818  156.3720 C   0  0  0  0  0  0  0  0  0  0  0  0
  131.3372  134.1698  158.0068 N   0  0  0  0  0  0  0  0  0  0  0  0
  131.6902  134.7417  157.3074 H   0  0  0  0  0  0  0  0  0  0  0  0
  132.0045  137.2852  161.6280 C   0  0  0  0  0  0  0  0  0  0  0  0
  132.5121  137.4837  162.8158 C   0  0  0  0  0  0  0  0  0  0  0  0
  132.9893  138.6785  163.2294 O   0  0  0  0  0  0  0  0  0  0  0  0
  133.2593  139.6678  162.2322 C   0  0  0  0  0  0  0  0  0  0  0  0
  132.0515  139.7405  161.2878 C   0  0  0  0  0  0  0  0  0  0  0  0
  131.8999  138.3791  160.6006 C   0  0  0  0  0  0  0  0  0  0  0  0
  132.0307  136.3813  159.2757 H   0  0  0  0  0  0  0  0  0  0  0  0
  130.0303  131.4737  159.2416 H   0  0  0  0  0  0  0  0  0  0  0  0
  129.4823  133.6490  155.6186 H   0  0  0  0  0  0  0  0  0  0  0  0
  129.3428  132.4449  153.4810 H   0  0  0  0  0  0  0  0  0  0  0  0
  130.7650  128.1639  153.7269 H   0  0  0  0  0  0  0  0  0  0  0  0
  130.6159  126.9662  151.5832 H   0  0  0  0  0  0  0  0  0  0  0  0
  130.3039  128.2182  149.4890 H   0  0  0  0  0  0  0  0  0  0  0  0
  130.1318  130.6725  149.5269 H   0  0  0  0  0  0  0  0  0  0  0  0
  130.2700  131.8863  151.6623 H   0  0  0  0  0  0  0  0  0  0  0  0
  131.8800  129.3667  155.0487 H   0  0  0  0  0  0  0  0  0  0  0  0
  132.0286  130.5757  157.1829 H   0  0  0  0  0  0  0  0  0  0  0  0
  132.5563  136.6495  163.5003 H   0  0  0  0  0  0  0  0  0  0  0  0
  134.1499  139.3887  161.6691 H   0  0  0  0  0  0  0  0  0  0  0  0
  133.4134  140.6368  162.7070 H   0  0  0  0  0  0  0  0  0  0  0  0
  132.2165  140.5146  160.5383 H   0  0  0  0  0  0  0  0  0  0  0  0
  131.1507  139.9669  161.8582 H   0  0  0  0  0  0  0  0  0  0  0  0
  132.6884  138.2568  159.8580 H   0  0  0  0  0  0  0  0  0  0  0  0
  130.9277  138.3256  160.1103 H   0  0  0  0  0  0  0  0  0  0  0  0
  1  2  1  0
  2  3  1  0
  2  4  1  0
  2  5  1  0
  5  6  1  1
  5  7  1  0
  5 27  1  0
  7 33  1  0
  8  7  1  0
  8 25  2  0
  8  9  1  0
  9 10  1  0
  9 11  1  0
 11 12  2  0
 11 34  1  0
 12 13  1  0
 12 25  1  0
 13 24  1  0
 13 14  2  0
 14 15  1  0
 14 35  1  0
 15 16  2  0
 15 36  1  0
 16 17  1  0
 16 23  1  0
 17 22  1  0
 17 18  2  0
 18 19  1  0
 18 37  1  0
 19 20  2  0
 19 38  1  0
 20 21  1  0
 20 39  1  0
 21 22  2  0
 21 40  1  0
 22 41  1  0
 23 24  2  0
 23 42  1  0
 24 43  1  0
 25 26  1  0
 27 32  1  0
 27 28  2  0
 28 29  1  0
 28 44  1  0
 29 30  1  0
 30 31  1  0
 30 45  1  0
 30 46  1  0
 31 32  1  0
 31 47  1  0
 31 48  1  0
 32 49  1  0
 32 50  1  0
M  CHG  1  25   1
M  END
>  <DOCK_score>  (1) 
-56.575134

>  <SMILES>  (1) 
FC(F)(F)[C@@H](Nc1[nH]cc(-c2ccc(-c3ccccc3)cc2)[nH+]1)C1=COCCC1

$$$$
