CC1(C)C(O)C[C@@H]1CNc1ccccc1C[NH2+]C1=CCCC1
     RDKit          3D

 51 53  0  0  1  0  0  0  0  0999 V2000
  125.4328  132.5147  160.4107 C   0  0  0  0  0  0  0  0  0  0  0  0
  125.6829  133.9428  160.8998 C   0  0  0  0  0  0  0  0  0  0  0  0
  125.2329  135.0029  159.8925 C   0  0  0  0  0  0  0  0  0  0  0  0
  125.1819  134.2006  162.3306 C   0  0  2  0  0  0  0  0  0  0  0  0
  123.9852  134.9794  162.3865 O   0  0  0  0  0  0  0  0  0  0  0  0
  126.4631  135.0232  162.5467 C   0  0  0  0  0  0  0  0  0  0  0  0
  127.1054  134.1693  161.4383 C   0  0  2  0  0  0  0  0  0  0  0  0
  127.5821  133.2613  161.8078 H   0  0  0  0  0  0  0  0  0  0  0  0
  128.0005  134.9679  160.4887 C   0  0  0  0  0  0  0  0  0  0  0  0
  129.4059  134.7336  160.8295 N   0  0  0  0  0  0  0  0  0  0  0  0
  130.1043  133.6833  160.2295 C   0  0  0  0  0  0  0  0  0  0  0  0
  129.4112  132.6298  159.6462 C   0  0  0  0  0  0  0  0  0  0  0  0
  130.1047  131.5933  159.0534 C   0  0  0  0  0  0  0  0  0  0  0  0
  131.4877  131.6033  159.0395 C   0  0  0  0  0  0  0  0  0  0  0  0
  132.1805  132.6501  159.6192 C   0  0  0  0  0  0  0  0  0  0  0  0
  131.4930  133.6924  160.2095 C   0  0  0  0  0  0  0  0  0  0  0  0
  132.2488  134.8361  160.8356 C   0  0  0  0  0  0  0  0  0  0  0  0
  132.4726  135.8838  159.8304 N   0  0  0  0  0  0  0  0  0  0  0  0
  133.0091  135.5056  159.0641 H   0  0  0  0  0  0  0  0  0  0  0  0
  131.5839  136.2157  159.4872 H   0  0  0  0  0  0  0  0  0  0  0  0
  133.1736  136.9446  160.4112 C   0  0  0  0  0  0  0  0  0  0  0  0
  133.9948  137.7280  159.7663 C   0  0  0  0  0  0  0  0  0  0  0  0
  134.5838  138.7733  160.6848 C   0  0  0  0  0  0  0  0  0  0  0  0
  133.6715  138.7607  161.9332 C   0  0  0  0  0  0  0  0  0  0  0  0
  133.0854  137.3311  161.8692 C   0  0  0  0  0  0  0  0  0  0  0  0
  126.1090  132.2895  159.5860 H   0  0  0  0  0  0  0  0  0  0  0  0
  125.6102  131.8149  161.2273 H   0  0  0  0  0  0  0  0  0  0  0  0
  124.4015  132.4225  160.0705 H   0  0  0  0  0  0  0  0  0  0  0  0
  124.2109  134.7935  159.5767 H   0  0  0  0  0  0  0  0  0  0  0  0
  125.2747  135.9875  160.3583 H   0  0  0  0  0  0  0  0  0  0  0  0
  125.8926  134.9831  159.0250 H   0  0  0  0  0  0  0  0  0  0  0  0
  125.1319  133.3012  162.9443 H   0  0  0  0  0  0  0  0  0  0  0  0
  124.0693  135.8583  161.9919 H   0  0  0  0  0  0  0  0  0  0  0  0
  126.3570  136.0748  162.2798 H   0  0  0  0  0  0  0  0  0  0  0  0
  126.9140  134.8793  163.5286 H   0  0  0  0  0  0  0  0  0  0  0  0
  127.8174  134.6490  159.4626 H   0  0  0  0  0  0  0  0  0  0  0  0
  127.7755  136.0301  160.5847 H   0  0  0  0  0  0  0  0  0  0  0  0
  129.8514  135.3079  161.4719 H   0  0  0  0  0  0  0  0  0  0  0  0
  128.3313  132.6219  159.6561 H   0  0  0  0  0  0  0  0  0  0  0  0
  129.5666  130.7741  158.5999 H   0  0  0  0  0  0  0  0  0  0  0  0
  132.0276  130.7917  158.5747 H   0  0  0  0  0  0  0  0  0  0  0  0
  133.2604  132.6547  159.6066 H   0  0  0  0  0  0  0  0  0  0  0  0
  131.6694  135.2446  161.6635 H   0  0  0  0  0  0  0  0  0  0  0  0
  133.2090  134.4772  161.2064 H   0  0  0  0  0  0  0  0  0  0  0  0
  134.2218  137.6416  158.7140 H   0  0  0  0  0  0  0  0  0  0  0  0
  134.5638  139.7543  160.2098 H   0  0  0  0  0  0  0  0  0  0  0  0
  135.6044  138.5050  160.9576 H   0  0  0  0  0  0  0  0  0  0  0  0
  132.8845  139.5102  161.8504 H   0  0  0  0  0  0  0  0  0  0  0  0
  134.2521  138.9050  162.8444 H   0  0  0  0  0  0  0  0  0  0  0  0
  132.0467  137.3315  162.1998 H   0  0  0  0  0  0  0  0  0  0  0  0
  133.6787  136.6499  162.4793 H   0  0  0  0  0  0  0  0  0  0  0  0
  1  2  1  0
  1 26  1  0
  1 27  1  0
  1 28  1  0
  2  7  1  0
  2  3  1  0
  2  4  1  0
  3 29  1  0
  3 30  1  0
  3 31  1  0
  4  5  1  0
  4  6  1  0
  4 32  1  1
  5 33  1  0
  6  7  1  0
  6 34  1  0
  6 35  1  0
  7  8  1  1
  7  9  1  0
  9 10  1  0
  9 36  1  0
  9 37  1  0
 10 11  1  0
 10 38  1  0
 11 16  1  0
 11 12  2  0
 12 13  1  0
 12 39  1  0
 13 14  2  0
 13 40  1  0
 14 15  1  0
 14 41  1  0
 15 16  2  0
 15 42  1  0
 16 17  1  0
 17 18  1  0
 17 43  1  0
 17 44  1  0
 18 19  1  0
 18 20  1  0
 18 21  1  0
 21 25  1  0
 21 22  2  0
 22 23  1  0
 22 45  1  0
 23 24  1  0
 23 46  1  0
 23 47  1  0
 24 25  1  0
 24 48  1  0
 24 49  1  0
 25 50  1  0
 25 51  1  0
M  CHG  1  18   1
M  END
>  <DOCK_score>  (1) 
-41.70607

>  <SMILES>  (1) 
CC1(C)C(O)C[C@@H]1CNc1ccccc1C[NH2+]C1=CCCC1

$$$$
