Nc1cccc(NC(=O)[C@@H](NC2=[NH+]CCN2)c2cccc(O)c2)c1
     RDKit          3D

 44 46  0  0  1  0  0  0  0  0999 V2000
  130.1833  133.3165  153.3876 N   0  0  0  0  0  0  0  0  0  0  0  0
  130.1730  132.6455  154.6125 C   0  0  0  0  0  0  0  0  0  0  0  0
  130.8156  131.4197  154.7398 C   0  0  0  0  0  0  0  0  0  0  0  0
  130.8061  130.7557  155.9510 C   0  0  0  0  0  0  0  0  0  0  0  0
  130.1583  131.3076  157.0397 C   0  0  0  0  0  0  0  0  0  0  0  0
  129.5140  132.5323  156.9193 C   0  0  0  0  0  0  0  0  0  0  0  0
  128.8587  133.0903  158.0224 N   0  0  0  0  0  0  0  0  0  0  0  0
  129.3027  132.8366  159.2693 C   0  0  0  0  0  0  0  0  0  0  0  0
  130.2705  132.1246  159.4353 O   0  0  0  0  0  0  0  0  0  0  0  0
  128.5968  133.4375  160.4574 C   0  0  1  0  0  0  0  0  0  0  0  0
  129.0955  133.1223  161.3741 H   0  0  0  0  0  0  0  0  0  0  0  0
  128.6330  134.8987  160.3594 N   0  0  0  0  0  0  0  0  0  0  0  0
  129.8342  135.5522  160.3235 C   0  0  0  0  0  0  0  0  0  0  0  0
  129.9294  136.8683  160.2301 N   0  0  0  0  0  0  0  0  0  0  0  0
  129.1809  137.4833  160.1789 H   0  0  0  0  0  0  0  0  0  0  0  0
  131.3496  137.2523  160.2195 C   0  0  0  0  0  0  0  0  0  0  0  0
  132.0872  135.9013  160.3152 C   0  0  0  0  0  0  0  0  0  0  0  0
  130.9943  134.9181  160.3739 N   0  0  0  0  0  0  0  0  0  0  0  0
  127.1640  132.9709  160.4793 C   0  0  0  0  0  0  0  0  0  0  0  0
  126.8327  131.7327  159.9601 C   0  0  0  0  0  0  0  0  0  0  0  0
  125.5201  131.2993  159.9837 C   0  0  0  0  0  0  0  0  0  0  0  0
  124.5341  132.1074  160.5163 C   0  0  0  0  0  0  0  0  0  0  0  0
  124.8630  133.3522  161.0327 C   0  0  0  0  0  0  0  0  0  0  0  0
  123.8949  134.1492  161.5566 O   0  0  0  0  0  0  0  0  0  0  0  0
  126.1819  133.7824  161.0127 C   0  0  0  0  0  0  0  0  0  0  0  0
  129.5215  133.2020  155.7041 C   0  0  0  0  0  0  0  0  0  0  0  0
  129.7349  134.1722  153.2996 H   0  0  0  0  0  0  0  0  0  0  0  0
  130.6388  132.9270  152.6250 H   0  0  0  0  0  0  0  0  0  0  0  0
  131.3225  130.9857  153.8906 H   0  0  0  0  0  0  0  0  0  0  0  0
  131.3064  129.8035  156.0474 H   0  0  0  0  0  0  0  0  0  0  0  0
  130.1529  130.7860  157.9854 H   0  0  0  0  0  0  0  0  0  0  0  0
  128.0846  133.6598  157.8896 H   0  0  0  0  0  0  0  0  0  0  0  0
  127.8053  135.4028  160.3201 H   0  0  0  0  0  0  0  0  0  0  0  0
  131.5874  137.8811  161.0775 H   0  0  0  0  0  0  0  0  0  0  0  0
  131.6016  137.7622  159.2897 H   0  0  0  0  0  0  0  0  0  0  0  0
  132.6922  135.8576  161.2209 H   0  0  0  0  0  0  0  0  0  0  0  0
  132.7059  135.7356  159.4333 H   0  0  0  0  0  0  0  0  0  0  0  0
  131.1066  133.9568  160.4389 H   0  0  0  0  0  0  0  0  0  0  0  0
  127.6013  131.1015  159.5390 H   0  0  0  0  0  0  0  0  0  0  0  0
  125.2645  130.3303  159.5813 H   0  0  0  0  0  0  0  0  0  0  0  0
  123.5081  131.7705  160.5302 H   0  0  0  0  0  0  0  0  0  0  0  0
  124.2208  134.9960  161.8912 H   0  0  0  0  0  0  0  0  0  0  0  0
  126.4404  134.7514  161.4139 H   0  0  0  0  0  0  0  0  0  0  0  0
  129.0252  134.1566  155.6091 H   0  0  0  0  0  0  0  0  0  0  0  0
  1  2  1  0
  1 27  1  0
  1 28  1  0
  2 26  2  0
  2  3  1  0
  3  4  2  0
  3 29  1  0
  4  5  1  0
  4 30  1  0
  5  6  2  0
  5 31  1  0
  6  7  1  0
  6 26  1  0
  7  8  1  0
  7 32  1  0
  8  9  2  0
  8 10  1  0
 10 11  1  1
 10 12  1  0
 10 19  1  0
 12 13  1  0
 12 33  1  0
 13 18  2  0
 13 14  1  0
 14 15  1  0
 14 16  1  0
 16 17  1  0
 16 34  1  0
 16 35  1  0
 17 18  1  0
 17 36  1  0
 17 37  1  0
 18 38  1  0
 19 25  1  0
 19 20  2  0
 20 21  1  0
 20 39  1  0
 21 22  2  0
 21 40  1  0
 22 23  1  0
 22 41  1  0
 23 24  1  0
 23 25  2  0
 24 42  1  0
 25 43  1  0
 26 44  1  0
M  CHG  1  18   1
M  END
>  <DOCK_score>  (1) 
-43.296516

>  <SMILES>  (1) 
Nc1cccc(NC(=O)[C@@H](NC2=[NH+]CCN2)c2cccc(O)c2)c1

$$$$
