CC=C[C@H](Nc1[nH]cc(-c2ccc(N)cc2)[nH+]1)c1ccccc1
     RDKit          3D

 44 46  0  0  1  0  0  0  0  0999 V2000
  130.4403  137.9263  161.8396 C   0  0  0  0  0  0  0  0  0  0  0  0
  130.0077  136.6242  161.2164 C   0  0  0  0  0  0  0  0  0  0  0  0
  129.8342  136.5441  159.9204 C   0  0  0  0  0  0  0  0  0  0  0  0
  129.4015  135.2420  159.2972 C   0  0  2  0  0  0  0  0  0  0  0  0
  129.2841  134.4879  160.0756 H   0  0  0  0  0  0  0  0  0  0  0  0
  130.4159  134.7991  158.3374 N   0  0  0  0  0  0  0  0  0  0  0  0
  130.2366  133.6191  157.6358 C   0  0  0  0  0  0  0  0  0  0  0  0
  129.5503  132.5306  158.0781 N   0  0  0  0  0  0  0  0  0  0  0  0
  129.1030  132.4421  158.9342 H   0  0  0  0  0  0  0  0  0  0  0  0
  129.6083  131.5793  157.0872 C   0  0  0  0  0  0  0  0  0  0  0  0
  130.3277  132.1143  156.0701 C   0  0  0  0  0  0  0  0  0  0  0  0
  130.6504  131.4484  154.7842 C   0  0  0  0  0  0  0  0  0  0  0  0
  130.2205  132.0071  153.5816 C   0  0  0  0  0  0  0  0  0  0  0  0
  130.5266  131.3895  152.3873 C   0  0  0  0  0  0  0  0  0  0  0  0
  131.2529  130.2045  152.3827 C   0  0  0  0  0  0  0  0  0  0  0  0
  131.5570  129.5772  151.1722 N   0  0  0  0  0  0  0  0  0  0  0  0
  131.6778  129.6428  153.5808 C   0  0  0  0  0  0  0  0  0  0  0  0
  131.3791  130.2600  154.7772 C   0  0  0  0  0  0  0  0  0  0  0  0
  130.6953  133.3685  156.4337 N   0  0  0  0  0  0  0  0  0  0  0  0
  131.2160  133.9814  155.8914 H   0  0  0  0  0  0  0  0  0  0  0  0
  128.0878  135.4378  158.5852 C   0  0  0  0  0  0  0  0  0  0  0  0
  126.8988  135.2365  159.2609 C   0  0  0  0  0  0  0  0  0  0  0  0
  125.6937  135.4204  158.6090 C   0  0  0  0  0  0  0  0  0  0  0  0
  125.6778  135.7966  157.2789 C   0  0  0  0  0  0  0  0  0  0  0  0
  126.8669  135.9927  156.6019 C   0  0  0  0  0  0  0  0  0  0  0  0
  128.0719  135.8131  157.2549 C   0  0  0  0  0  0  0  0  0  0  0  0
  130.5314  137.8003  162.9184 H   0  0  0  0  0  0  0  0  0  0  0  0
  131.4037  138.2247  161.4261 H   0  0  0  0  0  0  0  0  0  0  0  0
  129.6988  138.6960  161.6251 H   0  0  0  0  0  0  0  0  0  0  0  0
  129.8406  135.7571  161.8383 H   0  0  0  0  0  0  0  0  0  0  0  0
  130.0012  137.4112  159.2987 H   0  0  0  0  0  0  0  0  0  0  0  0
  131.2132  135.3326  158.1937 H   0  0  0  0  0  0  0  0  0  0  0  0
  129.1658  130.5944  157.1139 H   0  0  0  0  0  0  0  0  0  0  0  0
  129.6517  132.9252  153.5850 H   0  0  0  0  0  0  0  0  0  0  0  0
  130.1973  131.8241  151.4552 H   0  0  0  0  0  0  0  0  0  0  0  0
  132.0648  128.7512  151.1679 H   0  0  0  0  0  0  0  0  0  0  0  0
  131.2614  129.9694  150.3353 H   0  0  0  0  0  0  0  0  0  0  0  0
  132.2421  128.7219  153.5750 H   0  0  0  0  0  0  0  0  0  0  0  0
  131.7096  129.8232  155.7080 H   0  0  0  0  0  0  0  0  0  0  0  0
  126.9113  134.9390  160.2990 H   0  0  0  0  0  0  0  0  0  0  0  0
  124.7647  135.2675  159.1382 H   0  0  0  0  0  0  0  0  0  0  0  0
  124.7363  135.9377  156.7689 H   0  0  0  0  0  0  0  0  0  0  0  0
  126.8545  136.2867  155.5626 H   0  0  0  0  0  0  0  0  0  0  0  0
  129.0009  135.9663  156.7259 H   0  0  0  0  0  0  0  0  0  0  0  0
  1  2  1  0
  1 27  1  0
  1 28  1  0
  1 29  1  0
  2  3  2  0
  2 30  1  0
  3  4  1  0
  3 31  1  0
  4  5  1  1
  4  6  1  0
  4 21  1  0
  6 32  1  0
  7  6  1  0
  7 19  2  0
  7  8  1  0
  8  9  1  0
  8 10  1  0
 10 11  2  0
 10 33  1  0
 11 12  1  0
 11 19  1  0
 12 18  1  0
 12 13  2  0
 13 14  1  0
 13 34  1  0
 14 15  2  0
 14 35  1  0
 15 16  1  0
 15 17  1  0
 16 36  1  0
 16 37  1  0
 17 18  2  0
 17 38  1  0
 18 39  1  0
 19 20  1  0
 21 26  1  0
 21 22  2  0
 22 23  1  0
 22 40  1  0
 23 24  2  0
 23 41  1  0
 24 25  1  0
 24 42  1  0
 25 26  2  0
 25 43  1  0
 26 44  1  0
M  CHG  1  19   1
M  END
>  <DOCK_score>  (1) 
-58.888454

>  <SMILES>  (1) 
CC=C[C@H](Nc1[nH]cc(-c2ccc(N)cc2)[nH+]1)c1ccccc1

$$$$
