Cc1n[nH]cc1CNc1n[nH]cc1C[NH2+]C1CCC=CCC1
     RDKit          3D

 47 49  0  0  1  0  0  0  0  0999 V2000
  128.7896  140.9041  163.1764 C   0  0  0  0  0  0  0  0  0  0  0  0
  128.0464  139.5974  163.2833 C   0  0  0  0  0  0  0  0  0  0  0  0
  126.7523  139.4596  163.4185 N   0  0  0  0  0  0  0  0  0  0  0  0
  126.4621  138.0906  163.4803 N   0  0  0  0  0  0  0  0  0  0  0  0
  125.5807  137.6980  163.5794 H   0  0  0  0  0  0  0  0  0  0  0  0
  127.6248  137.4142  163.3721 C   0  0  0  0  0  0  0  0  0  0  0  0
  128.6210  138.3224  163.2548 C   0  0  0  0  0  0  0  0  0  0  0  0
  130.0892  138.0146  163.1119 C   0  0  0  0  0  0  0  0  0  0  0  0
  130.2695  136.9361  162.1371 N   0  0  0  0  0  0  0  0  0  0  0  0
  131.4373  136.8759  161.3677 C   0  0  0  0  0  0  0  0  0  0  0  0
  132.4413  137.7193  161.4230 N   0  0  0  0  0  0  0  0  0  0  0  0
  133.4087  137.3082  160.4971 N   0  0  0  0  0  0  0  0  0  0  0  0
  134.2564  137.7474  160.3260 H   0  0  0  0  0  0  0  0  0  0  0  0
  132.9579  136.1906  159.8895 C   0  0  0  0  0  0  0  0  0  0  0  0
  131.7399  135.9022  160.4020 C   0  0  0  0  0  0  0  0  0  0  0  0
  130.8655  134.7389  160.0109 C   0  0  0  0  0  0  0  0  0  0  0  0
  131.5359  133.9515  158.9674 N   0  0  0  0  0  0  0  0  0  0  0  0
  132.4164  133.6070  159.3196 H   0  0  0  0  0  0  0  0  0  0  0  0
  131.7013  134.5342  158.1604 H   0  0  0  0  0  0  0  0  0  0  0  0
  130.6835  132.8175  158.5861 C   0  0  0  0  0  0  0  0  0  0  0  0
  131.0518  132.3853  157.1778 C   0  0  0  0  0  0  0  0  0  0  0  0
  130.0701  131.3313  156.6609 C   0  0  0  0  0  0  0  0  0  0  0  0
  130.5361  129.9679  157.1250 C   0  0  0  0  0  0  0  0  0  0  0  0
  130.4310  129.6292  158.3707 C   0  0  0  0  0  0  0  0  0  0  0  0
  129.8408  130.5924  159.3783 C   0  0  0  0  0  0  0  0  0  0  0  0
  130.8455  131.7205  159.6223 C   0  0  0  0  0  0  0  0  0  0  0  0
  128.8643  141.1950  162.1285 H   0  0  0  0  0  0  0  0  0  0  0  0
  128.2521  141.6741  163.7298 H   0  0  0  0  0  0  0  0  0  0  0  0
  129.7900  140.7883  163.5936 H   0  0  0  0  0  0  0  0  0  0  0  0
  127.7401  136.3404  163.3806 H   0  0  0  0  0  0  0  0  0  0  0  0
  130.4908  137.7037  164.0763 H   0  0  0  0  0  0  0  0  0  0  0  0
  130.6157  138.9056  162.7694 H   0  0  0  0  0  0  0  0  0  0  0  0
  129.5795  136.2636  162.0248 H   0  0  0  0  0  0  0  0  0  0  0  0
  133.4764  135.6280  159.1272 H   0  0  0  0  0  0  0  0  0  0  0  0
  129.9144  135.1111  159.6303 H   0  0  0  0  0  0  0  0  0  0  0  0
  130.6869  134.1094  160.8826 H   0  0  0  0  0  0  0  0  0  0  0  0
  129.6453  133.1493  158.5886 H   0  0  0  0  0  0  0  0  0  0  0  0
  132.0582  131.9666  157.1825 H   0  0  0  0  0  0  0  0  0  0  0  0
  131.0272  133.2527  156.5181 H   0  0  0  0  0  0  0  0  0  0  0  0
  129.0749  131.5324  157.0576 H   0  0  0  0  0  0  0  0  0  0  0  0
  130.0446  131.3579  155.5715 H   0  0  0  0  0  0  0  0  0  0  0  0
  130.9582  129.2737  156.4135 H   0  0  0  0  0  0  0  0  0  0  0  0
  130.7660  128.6541  158.6922 H   0  0  0  0  0  0  0  0  0  0  0  0
  128.9122  131.0078  158.9869 H   0  0  0  0  0  0  0  0  0  0  0  0
  129.6445  130.0685  160.3138 H   0  0  0  0  0  0  0  0  0  0  0  0
  130.6820  132.1381  160.6158 H   0  0  0  0  0  0  0  0  0  0  0  0
  131.8571  131.3190  159.5641 H   0  0  0  0  0  0  0  0  0  0  0  0
  1  2  1  0
  1 27  1  0
  1 28  1  0
  1 29  1  0
  2  7  1  0
  2  3  2  0
  3  4  1  0
  4  5  1  0
  4  6  1  0
  6  7  2  0
  6 30  1  0
  7  8  1  0
  8  9  1  0
  8 31  1  0
  8 32  1  0
  9 10  1  0
  9 33  1  0
 10 15  1  0
 10 11  2  0
 11 12  1  0
 12 13  1  0
 12 14  1  0
 14 15  2  0
 14 34  1  0
 15 16  1  0
 16 17  1  0
 16 35  1  0
 16 36  1  0
 17 18  1  0
 17 19  1  0
 17 20  1  0
 20 26  1  0
 20 21  1  0
 20 37  1  0
 21 22  1  0
 21 38  1  0
 21 39  1  0
 22 23  1  0
 22 40  1  0
 22 41  1  0
 23 24  2  0
 23 42  1  0
 24 25  1  0
 24 43  1  0
 25 26  1  0
 25 44  1  0
 25 45  1  0
 26 46  1  0
 26 47  1  0
M  CHG  1  17   1
M  END
>  <DOCK_score>  (1) 
-41.435314

>  <SMILES>  (1) 
Cc1n[nH]cc1CNc1n[nH]cc1C[NH2+]C1CCC=CCC1

$$$$
