Cc1nc(Br)ccc1C=CC[C@H](Nc1[nH]cc(-c2ccc(N)cc2)[nH+]1)c1ccccc1
     RDKit          3D

 56 59  0  0  1  0  0  0  0  0999 V2000
  133.4698  139.7335  162.4001 C   0  0  0  0  0  0  0  0  0  0  0  0
  134.1304  139.5247  161.0618 C   0  0  0  0  0  0  0  0  0  0  0  0
  135.4153  139.7788  160.9212 N   0  0  0  0  0  0  0  0  0  0  0  0
  136.0377  139.6057  159.7703 C   0  0  0  0  0  0  0  0  0  0  0  0
  137.8846  139.9918  159.6444 Br  0  0  0  0  0  0  0  0  0  0  0  0
  135.3599  139.1465  158.6537 C   0  0  0  0  0  0  0  0  0  0  0  0
  134.0090  138.8653  158.7502 C   0  0  0  0  0  0  0  0  0  0  0  0
  133.3773  139.0584  159.9844 C   0  0  0  0  0  0  0  0  0  0  0  0
  131.9356  138.7730  160.1432 C   0  0  0  0  0  0  0  0  0  0  0  0
  131.5359  137.5635  160.5099 C   0  0  0  0  0  0  0  0  0  0  0  0
  130.0661  137.2725  160.6716 C   0  0  0  0  0  0  0  0  0  0  0  0
  129.8000  135.7994  160.3554 C   0  0  2  0  0  0  0  0  0  0  0  0
  130.3719  135.1719  161.0390 H   0  0  0  0  0  0  0  0  0  0  0  0
  130.2052  135.5149  158.9766 N   0  0  0  0  0  0  0  0  0  0  0  0
  130.0582  134.2384  158.4612 C   0  0  0  0  0  0  0  0  0  0  0  0
  129.5478  133.1682  159.1288 N   0  0  0  0  0  0  0  0  0  0  0  0
  129.2245  133.1621  160.0432 H   0  0  0  0  0  0  0  0  0  0  0  0
  129.5755  132.0968  158.2675 C   0  0  0  0  0  0  0  0  0  0  0  0
  130.1016  132.5440  157.1006 C   0  0  0  0  0  0  0  0  0  0  0  0
  130.3252  131.7351  155.8772 C   0  0  0  0  0  0  0  0  0  0  0  0
  129.6912  132.0825  154.6853 C   0  0  0  0  0  0  0  0  0  0  0  0
  129.9045  131.3323  153.5481 C   0  0  0  0  0  0  0  0  0  0  0  0
  130.7419  130.2239  153.5924 C   0  0  0  0  0  0  0  0  0  0  0  0
  130.9518  129.4626  152.4402 N   0  0  0  0  0  0  0  0  0  0  0  0
  131.3708  129.8727  154.7810 C   0  0  0  0  0  0  0  0  0  0  0  0
  131.1649  130.6233  155.9193 C   0  0  0  0  0  0  0  0  0  0  0  0
  130.3827  133.8629  157.2480 N   0  0  0  0  0  0  0  0  0  0  0  0
  130.7650  134.4361  156.5652 H   0  0  0  0  0  0  0  0  0  0  0  0
  128.3302  135.5083  160.5173 C   0  0  0  0  0  0  0  0  0  0  0  0
  127.8392  135.0895  161.7397 C   0  0  0  0  0  0  0  0  0  0  0  0
  126.4903  134.8267  161.8894 C   0  0  0  0  0  0  0  0  0  0  0  0
  125.6340  134.9737  160.8142 C   0  0  0  0  0  0  0  0  0  0  0  0
  126.1259  135.3874  159.5904 C   0  0  0  0  0  0  0  0  0  0  0  0
  127.4741  135.6545  159.4418 C   0  0  0  0  0  0  0  0  0  0  0  0
  133.0903  140.7534  162.4628 H   0  0  0  0  0  0  0  0  0  0  0  0
  132.6437  139.0310  162.5111 H   0  0  0  0  0  0  0  0  0  0  0  0
  134.1974  139.5672  163.1943 H   0  0  0  0  0  0  0  0  0  0  0  0
  135.8804  139.0097  157.7174 H   0  0  0  0  0  0  0  0  0  0  0  0
  133.4559  138.5054  157.8952 H   0  0  0  0  0  0  0  0  0  0  0  0
  131.2080  139.5498  159.9603 H   0  0  0  0  0  0  0  0  0  0  0  0
  132.2635  136.7866  160.6928 H   0  0  0  0  0  0  0  0  0  0  0  0
  129.7647  137.4841  161.6975 H   0  0  0  0  0  0  0  0  0  0  0  0
  129.4940  137.8999  159.9882 H   0  0  0  0  0  0  0  0  0  0  0  0
  130.5763  136.2210  158.4247 H   0  0  0  0  0  0  0  0  0  0  0  0
  129.2422  131.0918  158.4799 H   0  0  0  0  0  0  0  0  0  0  0  0
  129.0367  132.9408  154.6514 H   0  0  0  0  0  0  0  0  0  0  0  0
  129.4171  131.6037  152.6233 H   0  0  0  0  0  0  0  0  0  0  0  0
  131.5366  128.6886  152.4706 H   0  0  0  0  0  0  0  0  0  0  0  0
  130.5135  129.7065  151.6106 H   0  0  0  0  0  0  0  0  0  0  0  0
  132.0211  129.0110  154.8132 H   0  0  0  0  0  0  0  0  0  0  0  0
  131.6541  130.3502  156.8425 H   0  0  0  0  0  0  0  0  0  0  0  0
  128.5087  134.9711  162.5788 H   0  0  0  0  0  0  0  0  0  0  0  0
  126.1059  134.5038  162.8456 H   0  0  0  0  0  0  0  0  0  0  0  0
  124.5805  134.7658  160.9304 H   0  0  0  0  0  0  0  0  0  0  0  0
  125.4569  135.5023  158.7503 H   0  0  0  0  0  0  0  0  0  0  0  0
  127.8585  135.9777  158.4857 H   0  0  0  0  0  0  0  0  0  0  0  0
  1  2  1  0
  1 35  1  0
  1 36  1  0
  1 37  1  0
  2  8  2  0
  2  3  1  0
  3  4  2  0
  4  5  1  0
  4  6  1  0
  6  7  2  0
  6 38  1  0
  7  8  1  0
  7 39  1  0
  8  9  1  0
  9 10  2  0
  9 40  1  0
 10 11  1  0
 10 41  1  0
 11 12  1  0
 11 42  1  0
 11 43  1  0
 12 13  1  1
 12 14  1  0
 12 29  1  0
 14 44  1  0
 15 14  1  0
 15 27  2  0
 15 16  1  0
 16 17  1  0
 16 18  1  0
 18 19  2  0
 18 45  1  0
 19 20  1  0
 19 27  1  0
 20 26  1  0
 20 21  2  0
 21 22  1  0
 21 46  1  0
 22 23  2  0
 22 47  1  0
 23 24  1  0
 23 25  1  0
 24 48  1  0
 24 49  1  0
 25 26  2  0
 25 50  1  0
 26 51  1  0
 27 28  1  0
 29 34  1  0
 29 30  2  0
 30 31  1  0
 30 52  1  0
 31 32  2  0
 31 53  1  0
 32 33  1  0
 32 54  1  0
 33 34  2  0
 33 55  1  0
 34 56  1  0
M  CHG  1  27   1
M  END
>  <DOCK_score>  (1) 
-62.226593

>  <SMILES>  (1) 
Cc1nc(Br)ccc1C=CC[C@H](Nc1[nH]cc(-c2ccc(N)cc2)[nH+]1)c1ccccc1

$$$$
