Clc1cccc(N2CC[NH+](C(c3ccccc3)c3ccccc3)CC2)c1CBr
     RDKit          3D

 53 56  0  0  0  0  0  0  0  0999 V2000
  135.7760  141.0063  163.3051 Cl  0  0  0  0  0  0  0  0  0  0  0  0
  135.1631  140.2999  161.8425 C   0  0  0  0  0  0  0  0  0  0  0  0
  135.6013  140.7639  160.6141 C   0  0  0  0  0  0  0  0  0  0  0  0
  135.1150  140.2041  159.4473 C   0  0  0  0  0  0  0  0  0  0  0  0
  134.1908  139.1792  159.5037 C   0  0  0  0  0  0  0  0  0  0  0  0
  133.7490  138.7106  160.7344 C   0  0  0  0  0  0  0  0  0  0  0  0
  132.8144  137.6744  160.7943 N   0  0  0  0  0  0  0  0  0  0  0  0
  133.3637  136.4362  160.2241 C   0  0  0  0  0  0  0  0  0  0  0  0
  132.3333  135.3133  160.3627 C   0  0  0  0  0  0  0  0  0  0  0  0
  131.0999  135.6910  159.6602 N   0  0  0  0  0  0  0  0  0  0  0  0
  131.3046  135.8545  158.6858 H   0  0  0  0  0  0  0  0  0  0  0  0
  130.1174  134.6052  159.7782 C   0  0  0  0  0  0  0  0  0  0  0  0
  128.8519  134.9925  159.0576 C   0  0  0  0  0  0  0  0  0  0  0  0
  127.6330  134.5046  159.4904 C   0  0  0  0  0  0  0  0  0  0  0  0
  126.4716  134.8637  158.8324 C   0  0  0  0  0  0  0  0  0  0  0  0
  126.5300  135.7023  157.7352 C   0  0  0  0  0  0  0  0  0  0  0  0
  127.7493  136.1862  157.2990 C   0  0  0  0  0  0  0  0  0  0  0  0
  128.9102  135.8312  157.9603 C   0  0  0  0  0  0  0  0  0  0  0  0
  130.6806  133.3493  159.1647 C   0  0  0  0  0  0  0  0  0  0  0  0
  130.4672  133.0781  157.8262 C   0  0  0  0  0  0  0  0  0  0  0  0
  130.9879  131.9284  157.2623 C   0  0  0  0  0  0  0  0  0  0  0  0
  131.7132  131.0448  158.0394 C   0  0  0  0  0  0  0  0  0  0  0  0
  131.9222  131.3134  159.3792 C   0  0  0  0  0  0  0  0  0  0  0  0
  131.4060  132.4657  159.9418 C   0  0  0  0  0  0  0  0  0  0  0  0
  130.5499  136.9154  160.2568 C   0  0  0  0  0  0  0  0  0  0  0  0
  131.5656  138.0516  160.1173 C   0  0  0  0  0  0  0  0  0  0  0  0
  134.2385  139.2748  161.9055 C   0  0  0  0  0  0  0  0  0  0  0  0
  133.7616  138.7701  163.2430 C   0  0  0  0  0  0  0  0  0  0  0  0
  132.1774  139.7912  163.8019 Br  0  0  0  0  0  0  0  0  0  0  0  0
  136.3242  141.5648  160.5671 H   0  0  0  0  0  0  0  0  0  0  0  0
  135.4586  140.5685  158.4904 H   0  0  0  0  0  0  0  0  0  0  0  0
  133.8085  138.7453  158.5915 H   0  0  0  0  0  0  0  0  0  0  0  0
  133.5929  136.5915  159.1699 H   0  0  0  0  0  0  0  0  0  0  0  0
  134.2738  136.1625  160.7579 H   0  0  0  0  0  0  0  0  0  0  0  0
  132.1147  135.1490  161.4178 H   0  0  0  0  0  0  0  0  0  0  0  0
  132.7333  134.3974  159.9276 H   0  0  0  0  0  0  0  0  0  0  0  0
  129.8964  134.4281  160.8307 H   0  0  0  0  0  0  0  0  0  0  0  0
  127.5879  133.8457  160.3450 H   0  0  0  0  0  0  0  0  0  0  0  0
  125.5191  134.4854  159.1729 H   0  0  0  0  0  0  0  0  0  0  0  0
  125.6230  135.9794  157.2183 H   0  0  0  0  0  0  0  0  0  0  0  0
  127.7949  136.8411  156.4415 H   0  0  0  0  0  0  0  0  0  0  0  0
  129.8628  136.2089  157.6193 H   0  0  0  0  0  0  0  0  0  0  0  0
  129.8966  133.7663  157.2200 H   0  0  0  0  0  0  0  0  0  0  0  0
  130.8242  131.7184  156.2156 H   0  0  0  0  0  0  0  0  0  0  0  0
  132.1163  130.1443  157.5998 H   0  0  0  0  0  0  0  0  0  0  0  0
  132.4887  130.6229  159.9864 H   0  0  0  0  0  0  0  0  0  0  0  0
  131.5690  132.6754  160.9887 H   0  0  0  0  0  0  0  0  0  0  0  0
  130.3405  136.7430  161.3123 H   0  0  0  0  0  0  0  0  0  0  0  0
  129.6278  137.1875  159.7430 H   0  0  0  0  0  0  0  0  0  0  0  0
  131.1638  138.9566  160.5731 H   0  0  0  0  0  0  0  0  0  0  0  0
  131.7651  138.2337  159.0612 H   0  0  0  0  0  0  0  0  0  0  0  0
  133.5033  137.7142  163.1618 H   0  0  0  0  0  0  0  0  0  0  0  0
  134.5534  138.8946  163.9817 H   0  0  0  0  0  0  0  0  0  0  0  0
  1  2  1  0
  2 27  2  0
  2  3  1  0
  3  4  2  0
  3 30  1  0
  4  5  1  0
  4 31  1  0
  5  6  2  0
  5 32  1  0
  6  7  1  0
  6 27  1  0
  7 26  1  0
  7  8  1  0
  8  9  1  0
  8 33  1  0
  8 34  1  0
  9 10  1  0
  9 35  1  0
  9 36  1  0
 10 11  1  0
 10 12  1  0
 10 25  1  0
 12 13  1  0
 12 19  1  0
 12 37  1  0
 13 18  1  0
 13 14  2  0
 14 15  1  0
 14 38  1  0
 15 16  2  0
 15 39  1  0
 16 17  1  0
 16 40  1  0
 17 18  2  0
 17 41  1  0
 18 42  1  0
 19 24  1  0
 19 20  2  0
 20 21  1  0
 20 43  1  0
 21 22  2  0
 21 44  1  0
 22 23  1  0
 22 45  1  0
 23 24  2  0
 23 46  1  0
 24 47  1  0
 25 26  1  0
 25 48  1  0
 25 49  1  0
 26 50  1  0
 26 51  1  0
 27 28  1  0
 28 29  1  0
 28 52  1  0
 28 53  1  0
M  CHG  1  10   1
M  END
>  <DOCK_score>  (1) 
-56.300358

>  <SMILES>  (1) 
Clc1cccc(N2CC[NH+](C(c3ccccc3)c3ccccc3)CC2)c1CBr

$$$$
