CC[C@@H](Nc1[nH]cc(-c2ccc(N)cc2)[nH+]1)c1ccc(Oc2ccccc2)cc1
     RDKit          3D

 54 57  0  0  1  0  0  0  0  0999 V2000
  130.3769  137.7463  160.1992 C   0  0  0  0  0  0  0  0  0  0  0  0
  129.2593  136.7582  160.5391 C   0  0  0  0  0  0  0  0  0  0  0  0
  129.7673  135.3278  160.3475 C   0  0  1  0  0  0  0  0  0  0  0  0
  128.9710  134.6239  160.5896 H   0  0  0  0  0  0  0  0  0  0  0  0
  130.1794  135.1385  158.9544 N   0  0  0  0  0  0  0  0  0  0  0  0
  130.0816  133.8886  158.3672 C   0  0  0  0  0  0  0  0  0  0  0  0
  129.6156  132.7627  158.9729 N   0  0  0  0  0  0  0  0  0  0  0  0
  129.2953  132.6919  159.8858 H   0  0  0  0  0  0  0  0  0  0  0  0
  129.6834  131.7440  158.0522 C   0  0  0  0  0  0  0  0  0  0  0  0
  130.1881  132.2773  156.9123 C   0  0  0  0  0  0  0  0  0  0  0  0
  130.4401  131.5488  155.6447 C   0  0  0  0  0  0  0  0  0  0  0  0
  129.7896  131.9377  154.4748 C   0  0  0  0  0  0  0  0  0  0  0  0
  130.0292  131.2625  153.2967 C   0  0  0  0  0  0  0  0  0  0  0  0
  130.9098  130.1880  153.2771 C   0  0  0  0  0  0  0  0  0  0  0  0
  131.1467  129.5020  152.0836 N   0  0  0  0  0  0  0  0  0  0  0  0
  131.5558  129.7946  154.4439 C   0  0  0  0  0  0  0  0  0  0  0  0
  131.3234  130.4706  155.6230 C   0  0  0  0  0  0  0  0  0  0  0  0
  130.4173  133.5958  157.1344 N   0  0  0  0  0  0  0  0  0  0  0  0
  130.7748  134.2216  156.4853 H   0  0  0  0  0  0  0  0  0  0  0  0
  130.9445  135.0868  161.2568 C   0  0  0  0  0  0  0  0  0  0  0  0
  130.7412  134.5974  162.5339 C   0  0  0  0  0  0  0  0  0  0  0  0
  131.8185  134.3751  163.3695 C   0  0  0  0  0  0  0  0  0  0  0  0
  133.1056  134.6433  162.9260 C   0  0  0  0  0  0  0  0  0  0  0  0
  134.1673  134.4251  163.7457 O   0  0  0  0  0  0  0  0  0  0  0  0
  135.1275  135.3841  163.8152 C   0  0  0  0  0  0  0  0  0  0  0  0
  136.4682  135.0294  163.7742 C   0  0  0  0  0  0  0  0  0  0  0  0
  137.4423  136.0066  163.8406 C   0  0  0  0  0  0  0  0  0  0  0  0
  137.0824  137.3363  163.9582 C   0  0  0  0  0  0  0  0  0  0  0  0
  135.7471  137.6922  164.0042 C   0  0  0  0  0  0  0  0  0  0  0  0
  134.7688  136.7193  163.9331 C   0  0  0  0  0  0  0  0  0  0  0  0
  133.3070  135.1343  161.6439 C   0  0  0  0  0  0  0  0  0  0  0  0
  132.2261  135.3548  160.8125 C   0  0  0  0  0  0  0  0  0  0  0  0
  131.2285  137.5720  160.8570 H   0  0  0  0  0  0  0  0  0  0  0  0
  130.6837  137.6054  159.1628 H   0  0  0  0  0  0  0  0  0  0  0  0
  130.0150  138.7653  160.3358 H   0  0  0  0  0  0  0  0  0  0  0  0
  128.4078  136.9325  159.8813 H   0  0  0  0  0  0  0  0  0  0  0  0
  128.9525  136.8991  161.5756 H   0  0  0  0  0  0  0  0  0  0  0  0
  130.5208  135.8890  158.4435 H   0  0  0  0  0  0  0  0  0  0  0  0
  129.3905  130.7161  158.2070 H   0  0  0  0  0  0  0  0  0  0  0  0
  129.1014  132.7701  154.4903 H   0  0  0  0  0  0  0  0  0  0  0  0
  129.5288  131.5663  152.3892 H   0  0  0  0  0  0  0  0  0  0  0  0
  131.7618  128.7511  152.0697 H   0  0  0  0  0  0  0  0  0  0  0  0
  130.6965  129.7749  151.2696 H   0  0  0  0  0  0  0  0  0  0  0  0
  132.2398  128.9590  154.4266 H   0  0  0  0  0  0  0  0  0  0  0  0
  131.8257  130.1652  156.5291 H   0  0  0  0  0  0  0  0  0  0  0  0
  129.7387  134.3930  162.8802 H   0  0  0  0  0  0  0  0  0  0  0  0
  131.6591  133.9932  164.3670 H   0  0  0  0  0  0  0  0  0  0  0  0
  136.7500  133.9904  163.6865 H   0  0  0  0  0  0  0  0  0  0  0  0
  138.4861  135.7312  163.8053 H   0  0  0  0  0  0  0  0  0  0  0  0
  137.8455  138.0985  164.0145 H   0  0  0  0  0  0  0  0  0  0  0  0
  135.4684  138.7316  164.0960 H   0  0  0  0  0  0  0  0  0  0  0  0
  133.7261  136.9978  163.9698 H   0  0  0  0  0  0  0  0  0  0  0  0
  134.3079  135.3443  161.2965 H   0  0  0  0  0  0  0  0  0  0  0  0
  132.3822  135.7368  159.8143 H   0  0  0  0  0  0  0  0  0  0  0  0
  1  2  1  0
  1 33  1  0
  1 34  1  0
  1 35  1  0
  2  3  1  0
  2 36  1  0
  2 37  1  0
  3  4  1  1
  3  5  1  0
  3 20  1  0
  5 38  1  0
  6  5  1  0
  6 18  2  0
  6  7  1  0
  7  8  1  0
  7  9  1  0
  9 10  2  0
  9 39  1  0
 10 11  1  0
 10 18  1  0
 11 17  1  0
 11 12  2  0
 12 13  1  0
 12 40  1  0
 13 14  2  0
 13 41  1  0
 14 15  1  0
 14 16  1  0
 15 42  1  0
 15 43  1  0
 16 17  2  0
 16 44  1  0
 17 45  1  0
 18 19  1  0
 20 32  1  0
 20 21  2  0
 21 22  1  0
 21 46  1  0
 22 23  2  0
 22 47  1  0
 23 24  1  0
 23 31  1  0
 24 25  1  0
 25 30  1  0
 25 26  2  0
 26 27  1  0
 26 48  1  0
 27 28  2  0
 27 49  1  0
 28 29  1  0
 28 50  1  0
 29 30  2  0
 29 51  1  0
 30 52  1  0
 31 32  2  0
 31 53  1  0
 32 54  1  0
M  CHG  1  18   1
M  END
>  <DOCK_score>  (1) 
-57.883629

>  <SMILES>  (1) 
CC[C@@H](Nc1[nH]cc(-c2ccc(N)cc2)[nH+]1)c1ccc(Oc2ccccc2)cc1

$$$$
