CCc1ccc(-c2c[nH]c(Nc3ccc(Nc4ccc(N)cc4)cc3)[nH+]2)cc1
     RDKit          3D

 52 55  0  0  1  0  0  0  0  0999 V2000
  130.2928  128.2787  151.6628 C   0  0  0  0  0  0  0  0  0  0  0  0
  131.3194  129.4015  151.8269 C   0  0  0  0  0  0  0  0  0  0  0  0
  131.0222  130.1734  153.0866 C   0  0  0  0  0  0  0  0  0  0  0  0
  131.5963  129.7855  154.2844 C   0  0  0  0  0  0  0  0  0  0  0  0
  131.3275  130.4888  155.4410 C   0  0  0  0  0  0  0  0  0  0  0  0
  130.4762  131.5916  155.4009 C   0  0  0  0  0  0  0  0  0  0  0  0
  130.1832  132.3513  156.6408 C   0  0  0  0  0  0  0  0  0  0  0  0
  129.6076  131.8545  157.7639 C   0  0  0  0  0  0  0  0  0  0  0  0
  129.5281  132.8900  158.6626 N   0  0  0  0  0  0  0  0  0  0  0  0
  129.1649  132.8445  159.5608 H   0  0  0  0  0  0  0  0  0  0  0  0
  130.0503  133.9926  158.0588 C   0  0  0  0  0  0  0  0  0  0  0  0
  130.1544  135.2510  158.6280 N   0  0  0  0  0  0  0  0  0  0  0  0
  129.2189  135.6669  159.5836 C   0  0  0  0  0  0  0  0  0  0  0  0
  129.6382  136.0094  160.8625 C   0  0  0  0  0  0  0  0  0  0  0  0
  128.7152  136.4140  161.8064 C   0  0  0  0  0  0  0  0  0  0  0  0
  127.3688  136.4893  161.4733 C   0  0  0  0  0  0  0  0  0  0  0  0
  126.4338  136.9053  162.4278 N   0  0  0  0  0  0  0  0  0  0  0  0
  126.8556  137.2457  163.7186 C   0  0  0  0  0  0  0  0  0  0  0  0
  126.3623  136.5525  164.8163 C   0  0  0  0  0  0  0  0  0  0  0  0
  126.7819  136.8857  166.0889 C   0  0  0  0  0  0  0  0  0  0  0  0
  127.6898  137.9204  166.2722 C   0  0  0  0  0  0  0  0  0  0  0  0
  128.1114  138.2612  167.5627 N   0  0  0  0  0  0  0  0  0  0  0  0
  128.1798  138.6167  165.1752 C   0  0  0  0  0  0  0  0  0  0  0  0
  127.7642  138.2807  163.9021 C   0  0  0  0  0  0  0  0  0  0  0  0
  126.9497  136.1471  160.1939 C   0  0  0  0  0  0  0  0  0  0  0  0
  127.8722  135.7371  159.2519 C   0  0  0  0  0  0  0  0  0  0  0  0
  130.4435  133.6655  156.8519 N   0  0  0  0  0  0  0  0  0  0  0  0
  130.8552  134.2672  156.2121 H   0  0  0  0  0  0  0  0  0  0  0  0
  129.8966  131.9744  154.1926 C   0  0  0  0  0  0  0  0  0  0  0  0
  130.1769  131.2670  153.0412 C   0  0  0  0  0  0  0  0  0  0  0  0
  129.2928  128.7076  151.5985 H   0  0  0  0  0  0  0  0  0  0  0  0
  130.5078  127.7202  150.7517 H   0  0  0  0  0  0  0  0  0  0  0  0
  130.3463  127.6087  152.5208 H   0  0  0  0  0  0  0  0  0  0  0  0
  131.2661  130.0710  150.9693 H   0  0  0  0  0  0  0  0  0  0  0  0
  132.3195  128.9720  151.8916 H   0  0  0  0  0  0  0  0  0  0  0  0
  132.2556  128.9306  154.3142 H   0  0  0  0  0  0  0  0  0  0  0  0
  131.7766  130.1855  156.3753 H   0  0  0  0  0  0  0  0  0  0  0  0
  129.2784  130.8382  157.9227 H   0  0  0  0  0  0  0  0  0  0  0  0
  130.8753  135.8442  158.3647 H   0  0  0  0  0  0  0  0  0  0  0  0
  130.6856  135.9551  161.1203 H   0  0  0  0  0  0  0  0  0  0  0  0
  129.0407  136.6760  162.8022 H   0  0  0  0  0  0  0  0  0  0  0  0
  125.4938  136.9578  162.1951 H   0  0  0  0  0  0  0  0  0  0  0  0
  125.6529  135.7508  164.6741 H   0  0  0  0  0  0  0  0  0  0  0  0
  126.4008  136.3442  166.9421 H   0  0  0  0  0  0  0  0  0  0  0  0
  128.7458  138.9837  167.6908 H   0  0  0  0  0  0  0  0  0  0  0  0
  127.7691  137.7748  168.3290 H   0  0  0  0  0  0  0  0  0  0  0  0
  128.8859  139.4214  165.3178 H   0  0  0  0  0  0  0  0  0  0  0  0
  128.1447  138.8227  163.0490 H   0  0  0  0  0  0  0  0  0  0  0  0
  125.9024  136.2021  159.9360 H   0  0  0  0  0  0  0  0  0  0  0  0
  127.5461  135.4706  158.2574 H   0  0  0  0  0  0  0  0  0  0  0  0
  129.2329  132.8255  154.1565 H   0  0  0  0  0  0  0  0  0  0  0  0
  129.7319  131.5654  152.1035 H   0  0  0  0  0  0  0  0  0  0  0  0
  1  2  1  0
  1 31  1  0
  1 32  1  0
  1 33  1  0
  2  3  1  0
  2 34  1  0
  2 35  1  0
  3 30  2  0
  3  4  1  0
  4  5  2  0
  4 36  1  0
  5  6  1  0
  5 37  1  0
  6  7  1  0
  6 29  2  0
  7 27  1  0
  7  8  2  0
  8  9  1  0
  8 38  1  0
  9 10  1  0
  9 11  1  0
 11 12  1  0
 11 27  2  0
 12 13  1  0
 12 39  1  0
 13 26  1  0
 13 14  2  0
 14 15  1  0
 14 40  1  0
 15 16  2  0
 15 41  1  0
 16 17  1  0
 16 25  1  0
 17 18  1  0
 17 42  1  0
 18 24  1  0
 18 19  2  0
 19 20  1  0
 19 43  1  0
 20 21  2  0
 20 44  1  0
 21 22  1  0
 21 23  1  0
 22 45  1  0
 22 46  1  0
 23 24  2  0
 23 47  1  0
 24 48  1  0
 25 26  2  0
 25 49  1  0
 26 50  1  0
 27 28  1  0
 29 30  1  0
 29 51  1  0
 30 52  1  0
M  CHG  1  27   1
M  END
>  <DOCK_score>  (1) 
-58.547291

>  <SMILES>  (1) 
CCc1ccc(-c2c[nH]c(Nc3ccc(Nc4ccc(N)cc4)cc3)[nH+]2)cc1

$$$$
