Cc1cccc([C@@H](Nc2[nH]cc(-c3ccc(N)cc3)[nH+]2)C2CCCC2O)c1CO
     RDKit          3D

 58 61  0  0  1  0  0  0  0  0999 V2000
  125.6001  134.5527  162.6997 C   0  0  0  0  0  0  0  0  0  0  0  0
  126.4412  135.0202  161.5400 C   0  0  0  0  0  0  0  0  0  0  0  0
  125.8336  135.4658  160.3807 C   0  0  0  0  0  0  0  0  0  0  0  0
  126.6049  135.8986  159.3187 C   0  0  0  0  0  0  0  0  0  0  0  0
  127.9842  135.8771  159.4120 C   0  0  0  0  0  0  0  0  0  0  0  0
  128.5915  135.4321  160.5711 C   0  0  0  0  0  0  0  0  0  0  0  0
  130.0950  135.4140  160.6749 C   0  0  1  0  0  0  0  0  0  0  0  0
  130.4035  134.6067  161.3388 H   0  0  0  0  0  0  0  0  0  0  0  0
  130.6736  135.2016  159.3458 N   0  0  0  0  0  0  0  0  0  0  0  0
  130.3735  134.0515  158.6360 C   0  0  0  0  0  0  0  0  0  0  0  0
  129.5634  133.0452  159.0632 N   0  0  0  0  0  0  0  0  0  0  0  0
  129.0963  133.0047  159.9125 H   0  0  0  0  0  0  0  0  0  0  0  0
  129.5263  132.0981  158.0673 C   0  0  0  0  0  0  0  0  0  0  0  0
  130.3215  132.5492  157.0660 C   0  0  0  0  0  0  0  0  0  0  0  0
  130.5906  131.8530  155.7839 C   0  0  0  0  0  0  0  0  0  0  0  0
  130.2503  132.4592  154.5756 C   0  0  0  0  0  0  0  0  0  0  0  0
  130.5065  131.8127  153.3849 C   0  0  0  0  0  0  0  0  0  0  0  0
  131.0928  130.5532  153.3889 C   0  0  0  0  0  0  0  0  0  0  0  0
  131.3456  129.8968  152.1820 N   0  0  0  0  0  0  0  0  0  0  0  0
  131.4278  129.9439  154.5929 C   0  0  0  0  0  0  0  0  0  0  0  0
  131.1786  130.5891  155.7859 C   0  0  0  0  0  0  0  0  0  0  0  0
  130.8273  133.7499  157.4438 N   0  0  0  0  0  0  0  0  0  0  0  0
  131.4292  134.2978  156.9160 H   0  0  0  0  0  0  0  0  0  0  0  0
  130.5834  136.7508  161.2361 C   0  0  2  0  0  0  0  0  0  0  0  0
  130.2151  137.8958  160.2701 C   0  0  0  0  0  0  0  0  0  0  0  0
  131.4258  138.8591  160.3436 C   0  0  0  0  0  0  0  0  0  0  0  0
  132.6289  137.8889  160.4455 C   0  0  0  0  0  0  0  0  0  0  0  0
  132.1181  136.7465  161.3477 C   0  0  2  0  0  0  0  0  0  0  0  0
  132.6381  135.4946  160.8954 O   0  0  0  0  0  0  0  0  0  0  0  0
  127.8199  135.0033  161.6350 C   0  0  0  0  0  0  0  0  0  0  0  0
  128.4821  134.5175  162.8987 C   0  0  0  0  0  0  0  0  0  0  0  0
  128.7100  133.1099  162.8062 O   0  0  0  0  0  0  0  0  0  0  0  0
  125.3833  135.3965  163.3548 H   0  0  0  0  0  0  0  0  0  0  0  0
  124.6660  134.1337  162.3255 H   0  0  0  0  0  0  0  0  0  0  0  0
  126.1428  133.7896  163.2578 H   0  0  0  0  0  0  0  0  0  0  0  0
  124.7563  135.4787  160.3064 H   0  0  0  0  0  0  0  0  0  0  0  0
  126.1303  136.2505  158.4147 H   0  0  0  0  0  0  0  0  0  0  0  0
  128.5870  136.2121  158.5808 H   0  0  0  0  0  0  0  0  0  0  0  0
  131.2672  135.8667  158.9633 H   0  0  0  0  0  0  0  0  0  0  0  0
  128.9731  131.1707  158.0815 H   0  0  0  0  0  0  0  0  0  0  0  0
  129.7902  133.4363  154.5719 H   0  0  0  0  0  0  0  0  0  0  0  0
  130.2472  132.2840  152.4484 H   0  0  0  0  0  0  0  0  0  0  0  0
  131.7548  129.0174  152.1842 H   0  0  0  0  0  0  0  0  0  0  0  0
  131.1118  130.3207  151.3415 H   0  0  0  0  0  0  0  0  0  0  0  0
  131.8834  128.9648  154.5941 H   0  0  0  0  0  0  0  0  0  0  0  0
  131.4393  130.1159  156.7210 H   0  0  0  0  0  0  0  0  0  0  0  0
  130.1385  136.9296  162.2150 H   0  0  0  0  0  0  0  0  0  0  0  0
  130.0917  137.5149  159.2564 H   0  0  0  0  0  0  0  0  0  0  0  0
  129.3071  138.3985  160.6029 H   0  0  0  0  0  0  0  0  0  0  0  0
  131.3633  139.4913  161.2293 H   0  0  0  0  0  0  0  0  0  0  0  0
  131.4950  139.4668  159.4413 H   0  0  0  0  0  0  0  0  0  0  0  0
  133.4822  138.3864  160.9064 H   0  0  0  0  0  0  0  0  0  0  0  0
  132.8975  137.5063  159.4609 H   0  0  0  0  0  0  0  0  0  0  0  0
  132.4179  136.9238  162.3805 H   0  0  0  0  0  0  0  0  0  0  0  0
  132.3767  134.7400  161.4407 H   0  0  0  0  0  0  0  0  0  0  0  0
  129.4341  135.0318  163.0307 H   0  0  0  0  0  0  0  0  0  0  0  0
  127.8355  134.7258  163.7510 H   0  0  0  0  0  0  0  0  0  0  0  0
  129.2788  132.8511  162.0682 H   0  0  0  0  0  0  0  0  0  0  0  0
  1  2  1  0
  1 33  1  0
  1 34  1  0
  1 35  1  0
  2 30  2  0
  2  3  1  0
  3  4  2  0
  3 36  1  0
  4  5  1  0
  4 37  1  0
  5  6  2  0
  5 38  1  0
  6  7  1  0
  6 30  1  0
  7  8  1  1
  7  9  1  0
  7 24  1  0
  9 39  1  0
 10  9  1  0
 10 22  2  0
 10 11  1  0
 11 12  1  0
 11 13  1  0
 13 14  2  0
 13 40  1  0
 14 15  1  0
 14 22  1  0
 15 21  1  0
 15 16  2  0
 16 17  1  0
 16 41  1  0
 17 18  2  0
 17 42  1  0
 18 19  1  0
 18 20  1  0
 19 43  1  0
 19 44  1  0
 20 21  2  0
 20 45  1  0
 21 46  1  0
 22 23  1  0
 24 28  1  0
 24 25  1  0
 24 47  1  1
 25 26  1  0
 25 48  1  0
 25 49  1  0
 26 27  1  0
 26 50  1  0
 26 51  1  0
 27 28  1  0
 27 52  1  0
 27 53  1  0
 28 29  1  0
 28 54  1  1
 29 55  1  0
 30 31  1  0
 31 32  1  0
 31 56  1  0
 31 57  1  0
 32 58  1  0
M  CHG  1  22   1
M  END
>  <DOCK_score>  (1) 
-60.861115

>  <SMILES>  (1) 
Cc1cccc([C@@H](Nc2[nH]cc(-c3ccc(N)cc3)[nH+]2)C2CCCC2O)c1CO

$$$$
