C1=C(c2cccc(-c3ccccc3)c2)CC[N@@H+](C(c2ccccc2)c2ccccc2)C1
     RDKit          3D

 59 63  0  0  1  0  0  0  0  0999 V2000
  131.5738  136.4811  160.7311 C   0  0  0  0  0  0  0  0  0  0  0  0
  132.8239  136.0850  160.6268 C   0  0  0  0  0  0  0  0  0  0  0  0
  133.9004  137.0026  161.0562 C   0  0  0  0  0  0  0  0  0  0  0  0
  134.0461  138.2472  160.4404 C   0  0  0  0  0  0  0  0  0  0  0  0
  135.0474  139.1068  160.8452 C   0  0  0  0  0  0  0  0  0  0  0  0
  135.9179  138.7369  161.8521 C   0  0  0  0  0  0  0  0  0  0  0  0
  135.7862  137.4947  162.4707 C   0  0  0  0  0  0  0  0  0  0  0  0
  136.7220  137.1002  163.5527 C   0  0  0  0  0  0  0  0  0  0  0  0
  136.2963  136.2476  164.5691 C   0  0  0  0  0  0  0  0  0  0  0  0
  137.1721  135.8805  165.5708 C   0  0  0  0  0  0  0  0  0  0  0  0
  138.4677  136.3652  165.5719 C   0  0  0  0  0  0  0  0  0  0  0  0
  138.8941  137.2161  164.5682 C   0  0  0  0  0  0  0  0  0  0  0  0
  138.0280  137.5858  163.5592 C   0  0  0  0  0  0  0  0  0  0  0  0
  134.7757  136.6254  162.0723 C   0  0  0  0  0  0  0  0  0  0  0  0
  133.1970  134.7318  160.0867 C   0  0  0  0  0  0  0  0  0  0  0  0
  131.9654  133.8228  160.0856 C   0  0  0  0  0  0  0  0  0  0  0  0
  130.8526  134.5402  159.4436 N   0  0  1  0  0  0  0  0  0  0  0  0
  131.1612  134.9275  158.5645 H   0  0  0  0  0  0  0  0  0  0  0  0
  129.7396  133.6111  159.2077 C   0  0  0  0  0  0  0  0  0  0  0  0
  128.6010  134.3477  158.5502 C   0  0  0  0  0  0  0  0  0  0  0  0
  127.2976  133.9433  158.7701 C   0  0  0  0  0  0  0  0  0  0  0  0
  126.2532  134.6193  158.1674 C   0  0  0  0  0  0  0  0  0  0  0  0
  126.5123  135.6993  157.3445 C   0  0  0  0  0  0  0  0  0  0  0  0
  127.8161  136.1001  157.1199 C   0  0  0  0  0  0  0  0  0  0  0  0
  128.8601  135.4275  157.7269 C   0  0  0  0  0  0  0  0  0  0  0  0
  130.2005  132.4931  158.3083 C   0  0  0  0  0  0  0  0  0  0  0  0
  130.0787  132.6146  156.9368 C   0  0  0  0  0  0  0  0  0  0  0  0
  130.5051  131.5907  156.1117 C   0  0  0  0  0  0  0  0  0  0  0  0
  131.0458  130.4421  156.6585 C   0  0  0  0  0  0  0  0  0  0  0  0
  131.1627  130.3184  158.0304 C   0  0  0  0  0  0  0  0  0  0  0  0
  130.7399  131.3438  158.8553 C   0  0  0  0  0  0  0  0  0  0  0  0
  130.4088  135.6235  160.3287 C   0  0  0  0  0  0  0  0  0  0  0  0
  131.3765  137.4678  161.1237 H   0  0  0  0  0  0  0  0  0  0  0  0
  133.3716  138.5396  159.6491 H   0  0  0  0  0  0  0  0  0  0  0  0
  135.1538  140.0704  160.3693 H   0  0  0  0  0  0  0  0  0  0  0  0
  136.7023  139.4120  162.1610 H   0  0  0  0  0  0  0  0  0  0  0  0
  135.2837  135.8719  164.5715 H   0  0  0  0  0  0  0  0  0  0  0  0
  136.8443  135.2168  166.3570 H   0  0  0  0  0  0  0  0  0  0  0  0
  139.1487  136.0784  166.3596 H   0  0  0  0  0  0  0  0  0  0  0  0
  139.9068  137.5915  164.5739 H   0  0  0  0  0  0  0  0  0  0  0  0
  138.3618  138.2504  162.7761 H   0  0  0  0  0  0  0  0  0  0  0  0
  134.6703  135.6618  162.5488 H   0  0  0  0  0  0  0  0  0  0  0  0
  133.5707  134.8377  159.0683 H   0  0  0  0  0  0  0  0  0  0  0  0
  133.9725  134.2919  160.7139 H   0  0  0  0  0  0  0  0  0  0  0  0
  131.6955  133.5715  161.1113 H   0  0  0  0  0  0  0  0  0  0  0  0
  132.1834  132.9118  159.5282 H   0  0  0  0  0  0  0  0  0  0  0  0
  129.4037  133.1975  160.1585 H   0  0  0  0  0  0  0  0  0  0  0  0
  127.0951  133.0995  159.4131 H   0  0  0  0  0  0  0  0  0  0  0  0
  125.2349  134.3034  158.3391 H   0  0  0  0  0  0  0  0  0  0  0  0
  125.6963  136.2271  156.8732 H   0  0  0  0  0  0  0  0  0  0  0  0
  128.0188  136.9412  156.4734 H   0  0  0  0  0  0  0  0  0  0  0  0
  129.8785  135.7432  157.5548 H   0  0  0  0  0  0  0  0  0  0  0  0
  129.6532  133.5106  156.5097 H   0  0  0  0  0  0  0  0  0  0  0  0
  130.4134  131.6872  155.0399 H   0  0  0  0  0  0  0  0  0  0  0  0
  131.3765  129.6411  156.0140 H   0  0  0  0  0  0  0  0  0  0  0  0
  131.5849  129.4208  158.4576 H   0  0  0  0  0  0  0  0  0  0  0  0
  130.8313  131.2473  159.9270 H   0  0  0  0  0  0  0  0  0  0  0  0
  129.6732  136.2362  159.8078 H   0  0  0  0  0  0  0  0  0  0  0  0
  129.9542  135.1955  161.2222 H   0  0  0  0  0  0  0  0  0  0  0  0
  1 32  1  0
  1  2  2  0
  1 33  1  0
  2  3  1  0
  2 15  1  0
  3 14  1  0
  3  4  2  0
  4  5  1  0
  4 34  1  0
  5  6  2  0
  5 35  1  0
  6  7  1  0
  6 36  1  0
  7  8  1  0
  7 14  2  0
  8 13  1  0
  8  9  2  0
  9 10  1  0
  9 37  1  0
 10 11  2  0
 10 38  1  0
 11 12  1  0
 11 39  1  0
 12 13  2  0
 12 40  1  0
 13 41  1  0
 14 42  1  0
 15 16  1  0
 15 43  1  0
 15 44  1  0
 16 17  1  0
 16 45  1  0
 16 46  1  0
 17 18  1  6
 17 19  1  0
 17 32  1  0
 19 20  1  0
 19 26  1  0
 19 47  1  0
 20 25  1  0
 20 21  2  0
 21 22  1  0
 21 48  1  0
 22 23  2  0
 22 49  1  0
 23 24  1  0
 23 50  1  0
 24 25  2  0
 24 51  1  0
 25 52  1  0
 26 31  1  0
 26 27  2  0
 27 28  1  0
 27 53  1  0
 28 29  2  0
 28 54  1  0
 29 30  1  0
 29 55  1  0
 30 31  2  0
 30 56  1  0
 31 57  1  0
 32 58  1  0
 32 59  1  0
M  CHG  1  17   1
M  END
>  <DOCK_score>  (1) 
-57.979107

>  <SMILES>  (1) 
C1=C(c2cccc(-c3ccccc3)c2)CC[N@@H+](C(c2ccccc2)c2ccccc2)C1

$$$$
