C=CC=CCC[C@H](Nc1[nH]cc(-c2ccc(F)cc2)[nH+]1)c1cccc2cc[nH]c12
     RDKit          3D

 53 56  0  0  1  0  0  0  0  0999 V2000
  128.4465  140.8930  164.5453 C   0  0  0  0  0  0  0  0  0  0  0  0
  129.3827  140.1877  163.9196 C   0  0  0  0  0  0  0  0  0  0  0  0
  129.0806  138.8328  163.4326 C   0  0  0  0  0  0  0  0  0  0  0  0
  130.0168  138.1276  162.8069 C   0  0  0  0  0  0  0  0  0  0  0  0
  129.7092  136.7372  162.3134 C   0  0  0  0  0  0  0  0  0  0  0  0
  129.9008  136.6803  160.7966 C   0  0  0  0  0  0  0  0  0  0  0  0
  129.5884  135.2689  160.2957 C   0  0  2  0  0  0  0  0  0  0  0  0
  129.9852  134.5374  160.9997 H   0  0  0  0  0  0  0  0  0  0  0  0
  130.2070  135.0685  158.9830 N   0  0  0  0  0  0  0  0  0  0  0  0
  130.0607  133.8586  158.3261 C   0  0  0  0  0  0  0  0  0  0  0  0
  129.3651  132.7845  158.7891 N   0  0  0  0  0  0  0  0  0  0  0  0
  128.8871  132.7289  159.6313 H   0  0  0  0  0  0  0  0  0  0  0  0
  129.4654  131.7925  157.8433 C   0  0  0  0  0  0  0  0  0  0  0  0
  130.2186  132.2891  156.8310 C   0  0  0  0  0  0  0  0  0  0  0  0
  130.5934  131.5709  155.5882 C   0  0  0  0  0  0  0  0  0  0  0  0
  130.2055  132.0723  154.3470 C   0  0  0  0  0  0  0  0  0  0  0  0
  130.5615  131.4040  153.1935 C   0  0  0  0  0  0  0  0  0  0  0  0
  131.2931  130.2300  153.2683 C   0  0  0  0  0  0  0  0  0  0  0  0
  131.6352  129.5763  152.1366 F   0  0  0  0  0  0  0  0  0  0  0  0
  131.6763  129.7250  154.5002 C   0  0  0  0  0  0  0  0  0  0  0  0
  131.3297  130.3897  155.6587 C   0  0  0  0  0  0  0  0  0  0  0  0
  130.5645  133.5607  157.1534 N   0  0  0  0  0  0  0  0  0  0  0  0
  131.1011  134.1539  156.6046 H   0  0  0  0  0  0  0  0  0  0  0  0
  128.0959  135.0958  160.1794 C   0  0  0  0  0  0  0  0  0  0  0  0
  127.3688  134.6265  161.2516 C   0  0  0  0  0  0  0  0  0  0  0  0
  125.9938  134.4632  161.1575 C   0  0  0  0  0  0  0  0  0  0  0  0
  125.3366  134.7660  159.9982 C   0  0  0  0  0  0  0  0  0  0  0  0
  126.0534  135.2429  158.8995 C   0  0  0  0  0  0  0  0  0  0  0  0
  125.6837  135.6537  157.5429 C   0  0  0  0  0  0  0  0  0  0  0  0
  126.8130  136.0398  156.9281 C   0  0  0  0  0  0  0  0  0  0  0  0
  127.8776  135.8976  157.7758 N   0  0  0  0  0  0  0  0  0  0  0  0
  128.7986  136.1057  157.5536 H   0  0  0  0  0  0  0  0  0  0  0  0
  127.4470  135.4147  158.9914 C   0  0  0  0  0  0  0  0  0  0  0  0
  128.6684  141.8877  164.9029 H   0  0  0  0  0  0  0  0  0  0  0  0
  127.4637  140.4715  164.6965 H   0  0  0  0  0  0  0  0  0  0  0  0
  130.3655  140.6092  163.7686 H   0  0  0  0  0  0  0  0  0  0  0  0
  128.0978  138.4113  163.5837 H   0  0  0  0  0  0  0  0  0  0  0  0
  130.9996  138.5490  162.6558 H   0  0  0  0  0  0  0  0  0  0  0  0
  130.3815  136.0250  162.7917 H   0  0  0  0  0  0  0  0  0  0  0  0
  128.6777  136.4845  162.5592 H   0  0  0  0  0  0  0  0  0  0  0  0
  129.2284  137.3927  160.3184 H   0  0  0  0  0  0  0  0  0  0  0  0
  130.9323  136.9331  160.5510 H   0  0  0  0  0  0  0  0  0  0  0  0
  130.7191  135.7835  158.5739 H   0  0  0  0  0  0  0  0  0  0  0  0
  129.0277  130.8067  157.8958 H   0  0  0  0  0  0  0  0  0  0  0  0
  129.6311  132.9850  154.2880 H   0  0  0  0  0  0  0  0  0  0  0  0
  130.2647  131.7940  152.2311 H   0  0  0  0  0  0  0  0  0  0  0  0
  132.2466  128.8093  154.5538 H   0  0  0  0  0  0  0  0  0  0  0  0
  131.6290  129.9953  156.6185 H   0  0  0  0  0  0  0  0  0  0  0  0
  127.8739  134.3836  162.1749 H   0  0  0  0  0  0  0  0  0  0  0  0
  125.4387  134.0943  162.0072 H   0  0  0  0  0  0  0  0  0  0  0  0
  124.2664  134.6364  159.9321 H   0  0  0  0  0  0  0  0  0  0  0  0
  124.6895  135.6569  157.1211 H   0  0  0  0  0  0  0  0  0  0  0  0
  126.8735  136.4007  155.9119 H   0  0  0  0  0  0  0  0  0  0  0  0
  1  2  2  0
  1 34  1  0
  1 35  1  0
  2  3  1  0
  2 36  1  0
  3  4  2  0
  3 37  1  0
  4  5  1  0
  4 38  1  0
  5  6  1  0
  5 39  1  0
  5 40  1  0
  6  7  1  0
  6 41  1  0
  6 42  1  0
  7  8  1  1
  7  9  1  0
  7 24  1  0
  9 43  1  0
 10  9  1  0
 10 22  2  0
 10 11  1  0
 11 12  1  0
 11 13  1  0
 13 14  2  0
 13 44  1  0
 14 15  1  0
 14 22  1  0
 15 21  1  0
 15 16  2  0
 16 17  1  0
 16 45  1  0
 17 18  2  0
 17 46  1  0
 18 19  1  0
 18 20  1  0
 20 21  2  0
 20 47  1  0
 21 48  1  0
 22 23  1  0
 24 33  1  0
 24 25  2  0
 25 26  1  0
 25 49  1  0
 26 27  2  0
 26 50  1  0
 27 28  1  0
 27 51  1  0
 28 33  2  0
 28 29  1  0
 29 30  2  0
 29 52  1  0
 30 31  1  0
 30 53  1  0
 31 32  1  0
 31 33  1  0
M  CHG  1  22   1
M  END
>  <DOCK_score>  (1) 
-58.952267

>  <SMILES>  (1) 
C=CC=CCC[C@H](Nc1[nH]cc(-c2ccc(F)cc2)[nH+]1)c1cccc2cc[nH]c12

$$$$
