Cn1nccc1C(Nc1[nH]cc(-c2ccc(N)cc2)[nH+]1)[C@H](CCO)c1ccccc1
     RDKit          3D

 57 60  0  0  1  0  0  0  0  0999 V2000
  127.6885  134.0772  162.6281 C   0  0  0  0  0  0  0  0  0  0  0  0
  127.3076  134.8784  161.4624 N   0  0  0  0  0  0  0  0  0  0  0  0
  126.0192  135.3419  161.1661 N   0  0  0  0  0  0  0  0  0  0  0  0
  126.0746  136.0155  160.0458 C   0  0  0  0  0  0  0  0  0  0  0  0
  127.3998  136.0104  159.5981 C   0  0  0  0  0  0  0  0  0  0  0  0
  128.1368  135.3049  160.4868 C   0  0  0  0  0  0  0  0  0  0  0  0
  129.6186  135.0429  160.4028 C   0  0  1  0  0  0  0  0  0  0  0  0
  130.0278  134.9994  158.9967 N   0  0  0  0  0  0  0  0  0  0  0  0
  130.0111  133.7987  158.3077 C   0  0  0  0  0  0  0  0  0  0  0  0
  129.6428  132.5943  158.8229 N   0  0  0  0  0  0  0  0  0  0  0  0
  129.3472  132.4239  159.7309 H   0  0  0  0  0  0  0  0  0  0  0  0
  129.7636  131.6644  157.8175 C   0  0  0  0  0  0  0  0  0  0  0  0
  130.2105  132.3260  156.7216 C   0  0  0  0  0  0  0  0  0  0  0  0
  130.4933  131.7258  155.3947 C   0  0  0  0  0  0  0  0  0  0  0  0
  130.3322  132.4850  154.2366 C   0  0  0  0  0  0  0  0  0  0  0  0
  130.6012  131.9270  153.0047 C   0  0  0  0  0  0  0  0  0  0  0  0
  131.0212  130.6053  152.9160 C   0  0  0  0  0  0  0  0  0  0  0  0
  131.2872  130.0406  151.6664 N   0  0  0  0  0  0  0  0  0  0  0  0
  131.1771  129.8446  154.0692 C   0  0  0  0  0  0  0  0  0  0  0  0
  130.9148  130.4002  155.3035 C   0  0  0  0  0  0  0  0  0  0  0  0
  130.3530  133.6336  157.0531 N   0  0  0  0  0  0  0  0  0  0  0  0
  130.6593  134.3347  156.4568 H   0  0  0  0  0  0  0  0  0  0  0  0
  130.3758  136.1622  161.1200 C   0  0  2  0  0  0  0  0  0  0  0  0
  129.8441  136.4345  162.0316 H   0  0  0  0  0  0  0  0  0  0  0  0
  130.4721  137.3824  160.2020 C   0  0  0  0  0  0  0  0  0  0  0  0
  130.7604  138.6296  161.0399 C   0  0  0  0  0  0  0  0  0  0  0  0
  129.7041  138.8248  161.9825 O   0  0  0  0  0  0  0  0  0  0  0  0
  131.7622  135.6865  161.4702 C   0  0  0  0  0  0  0  0  0  0  0  0
  132.4054  136.1920  162.5844 C   0  0  0  0  0  0  0  0  0  0  0  0
  133.6756  135.7525  162.9082 C   0  0  0  0  0  0  0  0  0  0  0  0
  134.3058  134.8141  162.1124 C   0  0  0  0  0  0  0  0  0  0  0  0
  133.6646  134.3125  160.9952 C   0  0  0  0  0  0  0  0  0  0  0  0
  132.3930  134.7489  160.6740 C   0  0  0  0  0  0  0  0  0  0  0  0
  127.9658  134.7388  163.4488 H   0  0  0  0  0  0  0  0  0  0  0  0
  126.8469  133.4546  162.9318 H   0  0  0  0  0  0  0  0  0  0  0  0
  128.5362  133.4421  162.3713 H   0  0  0  0  0  0  0  0  0  0  0  0
  125.2420  136.4962  159.5540 H   0  0  0  0  0  0  0  0  0  0  0  0
  127.7694  136.4861  158.7017 H   0  0  0  0  0  0  0  0  0  0  0  0
  129.8462  134.0882  160.8771 H   0  0  0  0  0  0  0  0  0  0  0  0
  130.3103  135.8119  158.5486 H   0  0  0  0  0  0  0  0  0  0  0  0
  129.5475  130.6086  157.8882 H   0  0  0  0  0  0  0  0  0  0  0  0
  130.0011  133.5107  154.3046 H   0  0  0  0  0  0  0  0  0  0  0  0
  130.4808  132.5161  152.1076 H   0  0  0  0  0  0  0  0  0  0  0  0
  131.5802  129.1173  151.6041 H   0  0  0  0  0  0  0  0  0  0  0  0
  131.1780  130.5698  150.8615 H   0  0  0  0  0  0  0  0  0  0  0  0
  131.5038  128.8176  153.9980 H   0  0  0  0  0  0  0  0  0  0  0  0
  131.0363  129.8090  156.1991 H   0  0  0  0  0  0  0  0  0  0  0  0
  131.2777  137.2336  159.4830 H   0  0  0  0  0  0  0  0  0  0  0  0
  129.5296  137.5121  159.6700 H   0  0  0  0  0  0  0  0  0  0  0  0
  131.7028  138.5001  161.5721 H   0  0  0  0  0  0  0  0  0  0  0  0
  130.8289  139.4989  160.3859 H   0  0  0  0  0  0  0  0  0  0  0  0
  129.8208  139.5997  162.5491 H   0  0  0  0  0  0  0  0  0  0  0  0
  131.9146  136.9278  163.2040 H   0  0  0  0  0  0  0  0  0  0  0  0
  134.1764  136.1441  163.7812 H   0  0  0  0  0  0  0  0  0  0  0  0
  135.2992  134.4727  162.3639 H   0  0  0  0  0  0  0  0  0  0  0  0
  134.1572  133.5794  160.3736 H   0  0  0  0  0  0  0  0  0  0  0  0
  131.8919  134.3570  159.8012 H   0  0  0  0  0  0  0  0  0  0  0  0
  1  2  1  0
  1 34  1  0
  1 35  1  0
  1 36  1  0
  2  6  1  0
  2  3  1  0
  3  4  2  0
  4  5  1  0
  4 37  1  0
  5  6  2  0
  5 38  1  0
  6  7  1  0
  7  8  1  0
  7 23  1  0
  7 39  1  1
  8 40  1  0
  9  8  1  0
  9 21  2  0
  9 10  1  0
 10 11  1  0
 10 12  1  0
 12 13  2  0
 12 41  1  0
 13 14  1  0
 13 21  1  0
 14 20  1  0
 14 15  2  0
 15 16  1  0
 15 42  1  0
 16 17  2  0
 16 43  1  0
 17 18  1  0
 17 19  1  0
 18 44  1  0
 18 45  1  0
 19 20  2  0
 19 46  1  0
 20 47  1  0
 21 22  1  0
 23 24  1  1
 23 25  1  0
 23 28  1  0
 25 26  1  0
 25 48  1  0
 25 49  1  0
 26 27  1  0
 26 50  1  0
 26 51  1  0
 27 52  1  0
 28 33  1  0
 28 29  2  0
 29 30  1  0
 29 53  1  0
 30 31  2  0
 30 54  1  0
 31 32  1  0
 31 55  1  0
 32 33  2  0
 32 56  1  0
 33 57  1  0
M  CHG  1  21   1
M  END
>  <DOCK_score>  (1) 
-57.697453

>  <SMILES>  (1) 
Cn1nccc1C(Nc1[nH]cc(-c2ccc(N)cc2)[nH+]1)[C@H](CCO)c1ccccc1

$$$$
