Cc1cccc([C@@H](C)C[NH+]=C(NC2CC=CC2)N[C@H]2C[C@@H](O)C2)c1
     RDKit          3D

 54 56  0  0  1  0  0  0  0  0999 V2000
  135.4104  141.0156  162.7133 C   0  0  0  0  0  0  0  0  0  0  0  0
  134.7204  140.2648  161.6037 C   0  0  0  0  0  0  0  0  0  0  0  0
  135.4116  139.9484  160.4486 C   0  0  0  0  0  0  0  0  0  0  0  0
  134.7789  139.2594  159.4315 C   0  0  0  0  0  0  0  0  0  0  0  0
  133.4562  138.8820  159.5708 C   0  0  0  0  0  0  0  0  0  0  0  0
  132.7635  139.2028  160.7230 C   0  0  0  0  0  0  0  0  0  0  0  0
  131.3202  138.7961  160.8725 C   0  0  1  0  0  0  0  0  0  0  0  0
  131.0965  138.6310  161.9265 H   0  0  0  0  0  0  0  0  0  0  0  0
  130.4185  139.9054  160.3274 C   0  0  0  0  0  0  0  0  0  0  0  0
  131.0705  137.5051  160.0900 C   0  0  0  0  0  0  0  0  0  0  0  0
  129.8583  136.8552  160.5944 N   0  0  0  0  0  0  0  0  0  0  0  0
  129.3567  137.2599  161.3193 H   0  0  0  0  0  0  0  0  0  0  0  0
  129.4538  135.7330  160.0691 C   0  0  0  0  0  0  0  0  0  0  0  0
  130.1647  135.1593  159.0415 N   0  0  0  0  0  0  0  0  0  0  0  0
  129.7101  133.8981  158.4510 C   0  0  0  0  0  0  0  0  0  0  0  0
  129.8511  132.7317  159.4566 C   0  0  0  0  0  0  0  0  0  0  0  0
  130.2802  131.5507  158.6163 C   0  0  0  0  0  0  0  0  0  0  0  0
  130.7198  131.9383  157.4500 C   0  0  0  0  0  0  0  0  0  0  0  0
  130.6582  133.4422  157.3176 C   0  0  0  0  0  0  0  0  0  0  0  0
  128.3164  135.1229  160.5423 N   0  0  0  0  0  0  0  0  0  0  0  0
  127.9273  135.2862  161.9453 C   0  0  1  0  0  0  0  0  0  0  0  0
  128.7811  135.4286  162.6076 H   0  0  0  0  0  0  0  0  0  0  0  0
  126.8047  136.3157  162.1574 C   0  0  0  0  0  0  0  0  0  0  0  0
  126.2219  135.3481  163.2010 C   0  0  1  0  0  0  0  0  0  0  0  0
  126.6090  135.5065  164.2076 H   0  0  0  0  0  0  0  0  0  0  0  0
  124.7964  135.2558  163.1629 O   0  0  0  0  0  0  0  0  0  0  0  0
  126.9369  134.2180  162.4382 C   0  0  0  0  0  0  0  0  0  0  0  0
  133.3965  139.8920  161.7407 C   0  0  0  0  0  0  0  0  0  0  0  0
  135.8711  140.3059  163.4005 H   0  0  0  0  0  0  0  0  0  0  0  0
  136.1788  141.6631  162.2908 H   0  0  0  0  0  0  0  0  0  0  0  0
  134.6807  141.6208  163.2512 H   0  0  0  0  0  0  0  0  0  0  0  0
  136.4463  140.2393  160.3413 H   0  0  0  0  0  0  0  0  0  0  0  0
  135.3190  139.0121  158.5297 H   0  0  0  0  0  0  0  0  0  0  0  0
  132.9630  138.3397  158.7775 H   0  0  0  0  0  0  0  0  0  0  0  0
  130.5964  140.8250  160.8849 H   0  0  0  0  0  0  0  0  0  0  0  0
  130.6422  140.0704  159.2734 H   0  0  0  0  0  0  0  0  0  0  0  0
  129.3746  139.6112  160.4356 H   0  0  0  0  0  0  0  0  0  0  0  0
  131.9208  136.8347  160.2142 H   0  0  0  0  0  0  0  0  0  0  0  0
  130.9441  137.7397  159.0331 H   0  0  0  0  0  0  0  0  0  0  0  0
  130.9673  135.5898  158.7076 H   0  0  0  0  0  0  0  0  0  0  0  0
  128.6844  133.9836  158.0924 H   0  0  0  0  0  0  0  0  0  0  0  0
  130.6115  132.9632  160.2024 H   0  0  0  0  0  0  0  0  0  0  0  0
  128.8948  132.5283  159.9386 H   0  0  0  0  0  0  0  0  0  0  0  0
  130.2292  130.5212  158.9387 H   0  0  0  0  0  0  0  0  0  0  0  0
  131.0800  131.2715  156.6805 H   0  0  0  0  0  0  0  0  0  0  0  0
  130.2505  133.7215  156.3462 H   0  0  0  0  0  0  0  0  0  0  0  0
  131.6488  133.8762  157.4537 H   0  0  0  0  0  0  0  0  0  0  0  0
  127.7735  134.5812  159.9484 H   0  0  0  0  0  0  0  0  0  0  0  0
  127.1511  137.2583  162.5814 H   0  0  0  0  0  0  0  0  0  0  0  0
  126.1668  136.4522  161.2843 H   0  0  0  0  0  0  0  0  0  0  0  0
  124.3435  136.0949  163.3239 H   0  0  0  0  0  0  0  0  0  0  0  0
  126.3351  133.7800  161.6418 H   0  0  0  0  0  0  0  0  0  0  0  0
  127.3898  133.4695  163.0884 H   0  0  0  0  0  0  0  0  0  0  0  0
  132.8566  140.1388  162.6429 H   0  0  0  0  0  0  0  0  0  0  0  0
  1  2  1  0
  1 29  1  0
  1 30  1  0
  1 31  1  0
  2 28  2  0
  2  3  1  0
  3  4  2  0
  3 32  1  0
  4  5  1  0
  4 33  1  0
  5  6  2  0
  5 34  1  0
  6  7  1  0
  6 28  1  0
  7  8  1  1
  7  9  1  0
  7 10  1  0
  9 35  1  0
  9 36  1  0
  9 37  1  0
 10 11  1  0
 10 38  1  0
 10 39  1  0
 11 12  1  0
 13 11  2  0
 13 14  1  0
 13 20  1  0
 14 15  1  0
 14 40  1  0
 15 19  1  0
 15 16  1  0
 15 41  1  0
 16 17  1  0
 16 42  1  0
 16 43  1  0
 17 18  2  0
 17 44  1  0
 18 19  1  0
 18 45  1  0
 19 46  1  0
 19 47  1  0
 20 21  1  0
 20 48  1  0
 21 22  1  1
 21 27  1  0
 21 23  1  0
 23 24  1  0
 23 49  1  0
 23 50  1  0
 24 25  1  1
 24 26  1  0
 24 27  1  0
 26 51  1  0
 27 52  1  0
 27 53  1  0
 28 54  1  0
M  CHG  1  11   1
M  END
>  <DOCK_score>  (1) 
-45.538662

>  <SMILES>  (1) 
Cc1cccc([C@@H](C)C[NH+]=C(NC2CC=CC2)N[C@H]2C[C@@H](O)C2)c1

$$$$
