CCc1ccc(-c2c[nH]c(Nc3ccc(N)cc3C)[nH+]2)cc1
     RDKit          3D

 43 45  0  0  1  0  0  0  0  0999 V2000
  130.1983  128.3191  151.7228 C   0  0  0  0  0  0  0  0  0  0  0  0
  131.2118  129.4579  151.8492 C   0  0  0  0  0  0  0  0  0  0  0  0
  130.9490  130.2259  153.1189 C   0  0  0  0  0  0  0  0  0  0  0  0
  131.5738  129.8491  154.2937 C   0  0  0  0  0  0  0  0  0  0  0  0
  131.3412  130.5520  155.4583 C   0  0  0  0  0  0  0  0  0  0  0  0
  130.4661  131.6368  155.4516 C   0  0  0  0  0  0  0  0  0  0  0  0
  130.2080  132.3928  156.7015 C   0  0  0  0  0  0  0  0  0  0  0  0
  129.6946  131.8852  157.8496 C   0  0  0  0  0  0  0  0  0  0  0  0
  129.6229  132.9222  158.7470 N   0  0  0  0  0  0  0  0  0  0  0  0
  129.2959  132.8714  159.6588 H   0  0  0  0  0  0  0  0  0  0  0  0
  130.0951  134.0348  158.1207 C   0  0  0  0  0  0  0  0  0  0  0  0
  130.1913  135.2973  158.6820 N   0  0  0  0  0  0  0  0  0  0  0  0
  129.2838  135.6944  159.6721 C   0  0  0  0  0  0  0  0  0  0  0  0
  129.7446  136.0562  160.9315 C   0  0  0  0  0  0  0  0  0  0  0  0
  128.8500  136.4475  161.9075 C   0  0  0  0  0  0  0  0  0  0  0  0
  127.4892  136.4798  161.6298 C   0  0  0  0  0  0  0  0  0  0  0  0
  126.5825  136.8764  162.6194 N   0  0  0  0  0  0  0  0  0  0  0  0
  127.0289  136.1176  160.3711 C   0  0  0  0  0  0  0  0  0  0  0  0
  127.9242  135.7316  159.3931 C   0  0  0  0  0  0  0  0  0  0  0  0
  127.4249  135.3450  158.0247 C   0  0  0  0  0  0  0  0  0  0  0  0
  130.4492  133.7127  156.9003 N   0  0  0  0  0  0  0  0  0  0  0  0
  130.8215  134.3216  156.2433 H   0  0  0  0  0  0  0  0  0  0  0  0
  129.8349  132.0088  154.2660 C   0  0  0  0  0  0  0  0  0  0  0  0
  130.0793  131.3021  153.1061 C   0  0  0  0  0  0  0  0  0  0  0  0
  130.3884  127.7638  150.8044 H   0  0  0  0  0  0  0  0  0  0  0  0
  130.2952  127.6505  152.5783 H   0  0  0  0  0  0  0  0  0  0  0  0
  129.1895  128.7311  151.6962 H   0  0  0  0  0  0  0  0  0  0  0  0
  132.2203  129.0466  151.8755 H   0  0  0  0  0  0  0  0  0  0  0  0
  131.1147  130.1272  150.9933 H   0  0  0  0  0  0  0  0  0  0  0  0
  132.2483  129.0058  154.2987 H   0  0  0  0  0  0  0  0  0  0  0  0
  131.8331  130.2595  156.3743 H   0  0  0  0  0  0  0  0  0  0  0  0
  129.3985  130.8614  158.0245 H   0  0  0  0  0  0  0  0  0  0  0  0
  130.8873  135.9063  158.3895 H   0  0  0  0  0  0  0  0  0  0  0  0
  130.8024  136.0318  161.1472 H   0  0  0  0  0  0  0  0  0  0  0  0
  129.2082  136.7293  162.8867 H   0  0  0  0  0  0  0  0  0  0  0  0
  126.9043  137.1295  163.4988 H   0  0  0  0  0  0  0  0  0  0  0  0
  125.6325  136.8988  162.4257 H   0  0  0  0  0  0  0  0  0  0  0  0
  125.9709  136.1423  160.1553 H   0  0  0  0  0  0  0  0  0  0  0  0
  127.2145  134.2757  158.0036 H   0  0  0  0  0  0  0  0  0  0  0  0
  126.5135  135.8992  157.8005 H   0  0  0  0  0  0  0  0  0  0  0  0
  128.1858  135.5802  157.2805 H   0  0  0  0  0  0  0  0  0  0  0  0
  129.1555  132.8483  154.2551 H   0  0  0  0  0  0  0  0  0  0  0  0
  129.5904  131.5893  152.1867 H   0  0  0  0  0  0  0  0  0  0  0  0
  1  2  1  0
  1 25  1  0
  1 26  1  0
  1 27  1  0
  2  3  1  0
  2 28  1  0
  2 29  1  0
  3 24  2  0
  3  4  1  0
  4  5  2  0
  4 30  1  0
  5  6  1  0
  5 31  1  0
  6  7  1  0
  6 23  2  0
  7 21  1  0
  7  8  2  0
  8  9  1  0
  8 32  1  0
  9 10  1  0
  9 11  1  0
 11 12  1  0
 11 21  2  0
 12 13  1  0
 12 33  1  0
 13 19  1  0
 13 14  2  0
 14 15  1  0
 14 34  1  0
 15 16  2  0
 15 35  1  0
 16 17  1  0
 16 18  1  0
 17 36  1  0
 17 37  1  0
 18 19  2  0
 18 38  1  0
 19 20  1  0
 20 39  1  0
 20 40  1  0
 20 41  1  0
 21 22  1  0
 23 24  1  0
 23 42  1  0
 24 43  1  0
M  CHG  1  21   1
M  END
>  <DOCK_score>  (1) 
-56.513798

>  <SMILES>  (1) 
CCc1ccc(-c2c[nH]c(Nc3ccc(N)cc3C)[nH+]2)cc1

$$$$
