CCc1ccc(-c2c[nH]c(N[C@H](C)CCc3cncc4ccccc34)[nH+]2)cc1
     RDKit          3D

 55 58  0  0  1  0  0  0  0  0999 V2000
  132.0715  129.6776  152.5545 C   0  0  0  0  0  0  0  0  0  0  0  0
  130.6564  129.7905  153.1250 C   0  0  0  0  0  0  0  0  0  0  0  0
  130.6912  130.5937  154.3996 C   0  0  0  0  0  0  0  0  0  0  0  0
  130.5336  131.9673  154.3530 C   0  0  0  0  0  0  0  0  0  0  0  0
  130.5589  132.7073  155.5175 C   0  0  0  0  0  0  0  0  0  0  0  0
  130.7551  132.0694  156.7412 C   0  0  0  0  0  0  0  0  0  0  0  0
  130.7888  132.8600  157.9958 C   0  0  0  0  0  0  0  0  0  0  0  0
  130.4127  132.4245  159.2238 C   0  0  0  0  0  0  0  0  0  0  0  0
  130.6046  133.4703  160.0936 N   0  0  0  0  0  0  0  0  0  0  0  0
  130.4250  133.4651  161.0468 H   0  0  0  0  0  0  0  0  0  0  0  0
  131.0929  134.5151  159.3711 C   0  0  0  0  0  0  0  0  0  0  0  0
  131.4206  135.7616  159.8764 N   0  0  0  0  0  0  0  0  0  0  0  0
  131.2491  136.0415  161.3041 C   0  0  2  0  0  0  0  0  0  0  0  0
  131.5544  135.1708  161.8842 H   0  0  0  0  0  0  0  0  0  0  0  0
  129.7788  136.3546  161.5894 C   0  0  0  0  0  0  0  0  0  0  0  0
  132.1116  137.2432  161.6953 C   0  0  0  0  0  0  0  0  0  0  0  0
  133.5598  136.7896  161.8903 C   0  0  0  0  0  0  0  0  0  0  0  0
  134.4093  137.9732  162.2757 C   0  0  0  0  0  0  0  0  0  0  0  0
  134.5777  138.3108  163.5845 C   0  0  0  0  0  0  0  0  0  0  0  0
  135.3234  139.3439  163.9507 N   0  0  0  0  0  0  0  0  0  0  0  0
  135.9401  140.1167  163.0872 C   0  0  0  0  0  0  0  0  0  0  0  0
  135.8272  139.8582  161.7120 C   0  0  0  0  0  0  0  0  0  0  0  0
  136.4659  140.6549  160.7486 C   0  0  0  0  0  0  0  0  0  0  0  0
  136.3206  140.3567  159.4280 C   0  0  0  0  0  0  0  0  0  0  0  0
  135.5467  139.2733  159.0157 C   0  0  0  0  0  0  0  0  0  0  0  0
  134.9121  138.4786  159.9218 C   0  0  0  0  0  0  0  0  0  0  0  0
  135.0394  138.7551  161.2908 C   0  0  0  0  0  0  0  0  0  0  0  0
  131.2071  134.1447  158.1190 N   0  0  0  0  0  0  0  0  0  0  0  0
  131.5358  134.7010  157.3956 H   0  0  0  0  0  0  0  0  0  0  0  0
  130.9189  130.6859  156.7816 C   0  0  0  0  0  0  0  0  0  0  0  0
  130.8862  129.9554  155.6112 C   0  0  0  0  0  0  0  0  0  0  0  0
  132.4595  130.6746  152.3452 H   0  0  0  0  0  0  0  0  0  0  0  0
  132.7169  129.1814  153.2791 H   0  0  0  0  0  0  0  0  0  0  0  0
  132.0463  129.0968  151.6325 H   0  0  0  0  0  0  0  0  0  0  0  0
  130.0109  130.2868  152.4002 H   0  0  0  0  0  0  0  0  0  0  0  0
  130.2684  128.7936  153.3342 H   0  0  0  0  0  0  0  0  0  0  0  0
  130.3864  132.4610  153.4037 H   0  0  0  0  0  0  0  0  0  0  0  0
  130.4311  133.7790  155.4805 H   0  0  0  0  0  0  0  0  0  0  0  0
  130.0343  131.4436  159.4706 H   0  0  0  0  0  0  0  0  0  0  0  0
  131.7639  136.4497  159.2850 H   0  0  0  0  0  0  0  0  0  0  0  0
  129.4736  137.2255  161.0091 H   0  0  0  0  0  0  0  0  0  0  0  0
  129.1644  135.4986  161.3107 H   0  0  0  0  0  0  0  0  0  0  0  0
  129.6513  136.5629  162.6516 H   0  0  0  0  0  0  0  0  0  0  0  0
  132.0689  137.9936  160.9060 H   0  0  0  0  0  0  0  0  0  0  0  0
  131.7369  137.6721  162.6249 H   0  0  0  0  0  0  0  0  0  0  0  0
  133.6024  136.0393  162.6797 H   0  0  0  0  0  0  0  0  0  0  0  0
  133.9344  136.3608  160.9609 H   0  0  0  0  0  0  0  0  0  0  0  0
  134.0931  137.7176  164.3459 H   0  0  0  0  0  0  0  0  0  0  0  0
  136.5337  140.9496  163.4342 H   0  0  0  0  0  0  0  0  0  0  0  0
  137.0688  141.4979  161.0529 H   0  0  0  0  0  0  0  0  0  0  0  0
  136.8127  140.9701  158.6877 H   0  0  0  0  0  0  0  0  0  0  0  0
  135.4485  139.0607  157.9614 H   0  0  0  0  0  0  0  0  0  0  0  0
  134.3154  137.6424  159.5887 H   0  0  0  0  0  0  0  0  0  0  0  0
  131.0715  130.1864  157.7270 H   0  0  0  0  0  0  0  0  0  0  0  0
  131.0133  128.8833  155.6413 H   0  0  0  0  0  0  0  0  0  0  0  0
  1  2  1  0
  1 32  1  0
  1 33  1  0
  1 34  1  0
  2  3  1  0
  2 35  1  0
  2 36  1  0
  3 31  2  0
  3  4  1  0
  4  5  2  0
  4 37  1  0
  5  6  1  0
  5 38  1  0
  6  7  1  0
  6 30  2  0
  7 28  1  0
  7  8  2  0
  8  9  1  0
  8 39  1  0
  9 10  1  0
  9 11  1  0
 11 12  1  0
 11 28  2  0
 12 13  1  0
 12 40  1  0
 13 14  1  1
 13 15  1  0
 13 16  1  0
 15 41  1  0
 15 42  1  0
 15 43  1  0
 16 17  1  0
 16 44  1  0
 16 45  1  0
 17 18  1  0
 17 46  1  0
 17 47  1  0
 18 27  1  0
 18 19  2  0
 19 20  1  0
 19 48  1  0
 20 21  2  0
 21 22  1  0
 21 49  1  0
 22 27  2  0
 22 23  1  0
 23 24  2  0
 23 50  1  0
 24 25  1  0
 24 51  1  0
 25 26  2  0
 25 52  1  0
 26 27  1  0
 26 53  1  0
 28 29  1  0
 30 31  1  0
 30 54  1  0
 31 55  1  0
M  CHG  1  28   1
M  END
>  <DOCK_score>  (1) 
-57.931946

>  <SMILES>  (1) 
CCc1ccc(-c2c[nH]c(N[C@H](C)CCc3cncc4ccccc34)[nH+]2)cc1

$$$$
