C[C@H](CCc1cncc2ccccc12)Nc1[nH]cc(-c2ccc(N)cc2)[nH+]1
     RDKit          3D

 51 54  0  0  1  0  0  0  0  0999 V2000
  128.4987  135.9641  160.3900 C   0  0  0  0  0  0  0  0  0  0  0  0
  129.9642  135.5251  160.3660 C   0  0  2  0  0  0  0  0  0  0  0  0
  130.0795  134.6116  160.9493 H   0  0  0  0  0  0  0  0  0  0  0  0
  130.8368  136.6282  160.9680 C   0  0  0  0  0  0  0  0  0  0  0  0
  130.6750  137.9105  160.1492 C   0  0  0  0  0  0  0  0  0  0  0  0
  131.5346  138.9970  160.7423 C   0  0  0  0  0  0  0  0  0  0  0  0
  132.8219  139.1667  160.3311 C   0  0  0  0  0  0  0  0  0  0  0  0
  133.5977  140.1175  160.8330 N   0  0  0  0  0  0  0  0  0  0  0  0
  133.1899  140.9509  161.7616 C   0  0  0  0  0  0  0  0  0  0  0  0
  131.8803  140.8577  162.2588 C   0  0  0  0  0  0  0  0  0  0  0  0
  131.3964  141.7239  163.2519 C   0  0  0  0  0  0  0  0  0  0  0  0
  130.1168  141.5868  163.6964 C   0  0  0  0  0  0  0  0  0  0  0  0
  129.2782  140.5993  163.1822 C   0  0  0  0  0  0  0  0  0  0  0  0
  129.7133  139.7409  162.2183 C   0  0  0  0  0  0  0  0  0  0  0  0
  131.0253  139.8525  161.7359 C   0  0  0  0  0  0  0  0  0  0  0  0
  130.3769  135.2764  158.9824 N   0  0  0  0  0  0  0  0  0  0  0  0
  130.2307  134.0142  158.4327 C   0  0  0  0  0  0  0  0  0  0  0  0
  129.7145  132.9277  159.0687 N   0  0  0  0  0  0  0  0  0  0  0  0
  129.3861  132.8981  159.9809 H   0  0  0  0  0  0  0  0  0  0  0  0
  129.7449  131.8796  158.1796 C   0  0  0  0  0  0  0  0  0  0  0  0
  130.2783  132.3564  157.0278 C   0  0  0  0  0  0  0  0  0  0  0  0
  130.5058  131.5803  155.7841 C   0  0  0  0  0  0  0  0  0  0  0  0
  129.8792  131.9618  154.5987 C   0  0  0  0  0  0  0  0  0  0  0  0
  130.0968  131.2423  153.4427 C   0  0  0  0  0  0  0  0  0  0  0  0
  130.9306  130.1305  153.4614 C   0  0  0  0  0  0  0  0  0  0  0  0
  131.1455  129.4002  152.2900 N   0  0  0  0  0  0  0  0  0  0  0  0
  131.5521  129.7452  154.6432 C   0  0  0  0  0  0  0  0  0  0  0  0
  131.3420  130.4650  155.8004 C   0  0  0  0  0  0  0  0  0  0  0  0
  130.5617  133.6702  157.2119 N   0  0  0  0  0  0  0  0  0  0  0  0
  130.9492  134.2605  156.5468 H   0  0  0  0  0  0  0  0  0  0  0  0
  127.8769  135.1783  159.9609 H   0  0  0  0  0  0  0  0  0  0  0  0
  128.1916  136.1492  161.4192 H   0  0  0  0  0  0  0  0  0  0  0  0
  128.3835  136.8776  159.8066 H   0  0  0  0  0  0  0  0  0  0  0  0
  130.5297  136.8132  161.9974 H   0  0  0  0  0  0  0  0  0  0  0  0
  131.8808  136.3156  160.9510 H   0  0  0  0  0  0  0  0  0  0  0  0
  130.9820  137.7255  159.1199 H   0  0  0  0  0  0  0  0  0  0  0  0
  129.6309  138.2231  160.1664 H   0  0  0  0  0  0  0  0  0  0  0  0
  133.2209  138.5104  159.5718 H   0  0  0  0  0  0  0  0  0  0  0  0
  133.8607  141.7069  162.1423 H   0  0  0  0  0  0  0  0  0  0  0  0
  132.0345  142.4940  163.6600 H   0  0  0  0  0  0  0  0  0  0  0  0
  129.7454  142.2540  164.4603 H   0  0  0  0  0  0  0  0  0  0  0  0
  128.2678  140.5132  163.5541 H   0  0  0  0  0  0  0  0  0  0  0  0
  129.0531  138.9800  161.8289 H   0  0  0  0  0  0  0  0  0  0  0  0
  130.7525  135.9962  158.4516 H   0  0  0  0  0  0  0  0  0  0  0  0
  129.4084  130.8699  158.3633 H   0  0  0  0  0  0  0  0  0  0  0  0
  129.2273  132.8227  154.5849 H   0  0  0  0  0  0  0  0  0  0  0  0
  129.6149  131.5401  152.5231 H   0  0  0  0  0  0  0  0  0  0  0  0
  131.7278  128.6245  152.3020 H   0  0  0  0  0  0  0  0  0  0  0  0
  130.7124  129.6687  151.4648 H   0  0  0  0  0  0  0  0  0  0  0  0
  132.1995  128.8808  154.6554 H   0  0  0  0  0  0  0  0  0  0  0  0
  131.8252  130.1652  156.7186 H   0  0  0  0  0  0  0  0  0  0  0  0
  1  2  1  0
  1 31  1  0
  1 32  1  0
  1 33  1  0
  2  3  1  1
  2  4  1  0
  2 16  1  0
  4  5  1  0
  4 34  1  0
  4 35  1  0
  5  6  1  0
  5 36  1  0
  5 37  1  0
  6 15  1  0
  6  7  2  0
  7  8  1  0
  7 38  1  0
  8  9  2  0
  9 10  1  0
  9 39  1  0
 10 15  2  0
 10 11  1  0
 11 12  2  0
 11 40  1  0
 12 13  1  0
 12 41  1  0
 13 14  2  0
 13 42  1  0
 14 15  1  0
 14 43  1  0
 16 44  1  0
 17 16  1  0
 17 29  2  0
 17 18  1  0
 18 19  1  0
 18 20  1  0
 20 21  2  0
 20 45  1  0
 21 22  1  0
 21 29  1  0
 22 28  1  0
 22 23  2  0
 23 24  1  0
 23 46  1  0
 24 25  2  0
 24 47  1  0
 25 26  1  0
 25 27  1  0
 26 48  1  0
 26 49  1  0
 27 28  2  0
 27 50  1  0
 28 51  1  0
 29 30  1  0
M  CHG  1  29   1
M  END
>  <DOCK_score>  (1) 
-56.917389

>  <SMILES>  (1) 
C[C@H](CCc1cncc2ccccc12)Nc1[nH]cc(-c2ccc(N)cc2)[nH+]1

$$$$
