Cc1cccc(O[C@H]2C[C@@H]([NH+]=C(NCc3cccs3)N[C@H]3C[C@@H](O)C3)C2)c1CCl
     RDKit          3D

 58 61  0  0  1  0  0  0  0  0999 V2000
  133.9859  139.4901  165.5540 C   0  0  0  0  0  0  0  0  0  0  0  0
  133.0221  140.1865  164.6281 C   0  0  0  0  0  0  0  0  0  0  0  0
  132.2046  141.1919  165.1109 C   0  0  0  0  0  0  0  0  0  0  0  0
  131.3192  141.8324  164.2643 C   0  0  0  0  0  0  0  0  0  0  0  0
  131.2536  141.4737  162.9317 C   0  0  0  0  0  0  0  0  0  0  0  0
  132.0687  140.4620  162.4460 C   0  0  0  0  0  0  0  0  0  0  0  0
  132.0022  140.1033  161.1369 O   0  0  0  0  0  0  0  0  0  0  0  0
  130.7424  139.6285  160.6576 C   0  0  1  0  0  0  0  0  0  0  0  0
  129.9445  140.3639  160.7611 H   0  0  0  0  0  0  0  0  0  0  0  0
  130.8156  138.9918  159.2596 C   0  0  0  0  0  0  0  0  0  0  0  0
  129.8316  137.9297  159.7780 C   0  0  1  0  0  0  0  0  0  0  0  0
  128.7847  138.2007  159.6413 H   0  0  0  0  0  0  0  0  0  0  0  0
  130.1348  136.5732  159.3153 N   0  0  0  0  0  0  0  0  0  0  0  0
  130.8977  136.4172  158.7370 H   0  0  0  0  0  0  0  0  0  0  0  0
  129.3792  135.5760  159.6805 C   0  0  0  0  0  0  0  0  0  0  0  0
  129.6636  134.3029  159.2463 N   0  0  0  0  0  0  0  0  0  0  0  0
  130.8160  134.0671  158.3730 C   0  0  0  0  0  0  0  0  0  0  0  0
  130.9052  132.5991  158.0444 C   0  0  0  0  0  0  0  0  0  0  0  0
  131.5863  131.6936  158.7484 C   0  0  0  0  0  0  0  0  0  0  0  0
  131.5204  130.4018  158.2555 C   0  0  0  0  0  0  0  0  0  0  0  0
  130.7934  130.2598  157.1463 C   0  0  0  0  0  0  0  0  0  0  0  0
  130.1337  131.8190  156.6698 S   0  0  0  0  0  0  0  0  0  0  0  0
  128.2977  135.7970  160.5000 N   0  0  0  0  0  0  0  0  0  0  0  0
  127.4485  134.6760  160.9104 C   0  0  1  0  0  0  0  0  0  0  0  0
  127.9929  133.7338  160.9741 H   0  0  0  0  0  0  0  0  0  0  0  0
  126.5889  134.9758  162.1498 C   0  0  0  0  0  0  0  0  0  0  0  0
  125.4524  134.2127  161.4491 C   0  0  1  0  0  0  0  0  0  0  0  0
  125.4500  133.1433  161.6595 H   0  0  0  0  0  0  0  0  0  0  0  0
  124.1679  134.8149  161.6205 O   0  0  0  0  0  0  0  0  0  0  0  0
  126.1346  134.5759  160.1175 C   0  0  0  0  0  0  0  0  0  0  0  0
  130.3676  138.2341  161.1869 C   0  0  0  0  0  0  0  0  0  0  0  0
  132.9563  139.8203  163.2980 C   0  0  0  0  0  0  0  0  0  0  0  0
  133.8475  138.7244  162.7725 C   0  0  0  0  0  0  0  0  0  0  0  0
  133.0092  137.1367  162.9387 Cl  0  0  0  0  0  0  0  0  0  0  0  0
  134.9394  140.0180  165.5500 H   0  0  0  0  0  0  0  0  0  0  0  0
  133.5782  139.4836  166.5649 H   0  0  0  0  0  0  0  0  0  0  0  0
  134.1369  138.4645  165.2168 H   0  0  0  0  0  0  0  0  0  0  0  0
  132.2578  141.4771  166.1512 H   0  0  0  0  0  0  0  0  0  0  0  0
  130.6815  142.6172  164.6438 H   0  0  0  0  0  0  0  0  0  0  0  0
  130.5651  141.9777  162.2696 H   0  0  0  0  0  0  0  0  0  0  0  0
  130.4032  139.6212  158.4710 H   0  0  0  0  0  0  0  0  0  0  0  0
  131.7996  138.5936  159.0122 H   0  0  0  0  0  0  0  0  0  0  0  0
  129.1012  133.5608  159.5181 H   0  0  0  0  0  0  0  0  0  0  0  0
  130.6975  134.6390  157.4527 H   0  0  0  0  0  0  0  0  0  0  0  0
  131.7274  134.3817  158.8813 H   0  0  0  0  0  0  0  0  0  0  0  0
  132.1446  131.9487  159.6370 H   0  0  0  0  0  0  0  0  0  0  0  0
  132.0229  129.5723  158.7309 H   0  0  0  0  0  0  0  0  0  0  0  0
  130.6344  129.3296  156.6209 H   0  0  0  0  0  0  0  0  0  0  0  0
  128.0968  136.6952  160.8065 H   0  0  0  0  0  0  0  0  0  0  0  0
  126.9467  134.4895  163.0574 H   0  0  0  0  0  0  0  0  0  0  0  0
  126.3819  136.0366  162.2914 H   0  0  0  0  0  0  0  0  0  0  0  0
  124.1077  135.7173  161.2782 H   0  0  0  0  0  0  0  0  0  0  0  0
  125.8021  135.5269  159.7017 H   0  0  0  0  0  0  0  0  0  0  0  0
  126.1262  133.7672  159.3868 H   0  0  0  0  0  0  0  0  0  0  0  0
  131.2288  137.6276  161.4670 H   0  0  0  0  0  0  0  0  0  0  0  0
  129.5937  138.2520  161.9542 H   0  0  0  0  0  0  0  0  0  0  0  0
  134.0699  138.9095  161.7216 H   0  0  0  0  0  0  0  0  0  0  0  0
  134.7761  138.7065  163.3429 H   0  0  0  0  0  0  0  0  0  0  0  0
  1  2  1  0
  1 35  1  0
  1 36  1  0
  1 37  1  0
  2 32  2  0
  2  3  1  0
  3  4  2  0
  3 38  1  0
  4  5  1  0
  4 39  1  0
  5  6  2  0
  5 40  1  0
  6  7  1  0
  6 32  1  0
  7  8  1  0
  8  9  1  6
  8 31  1  0
  8 10  1  0
 10 11  1  0
 10 41  1  0
 10 42  1  0
 11 12  1  1
 11 13  1  0
 11 31  1  0
 13 14  1  0
 15 13  2  0
 15 16  1  0
 15 23  1  0
 16 17  1  0
 16 43  1  0
 17 18  1  0
 17 44  1  0
 17 45  1  0
 18 22  1  0
 18 19  2  0
 19 20  1  0
 19 46  1  0
 20 21  2  0
 20 47  1  0
 21 22  1  0
 21 48  1  0
 23 24  1  0
 23 49  1  0
 24 25  1  1
 24 30  1  0
 24 26  1  0
 26 27  1  0
 26 50  1  0
 26 51  1  0
 27 28  1  1
 27 29  1  0
 27 30  1  0
 29 52  1  0
 30 53  1  0
 30 54  1  0
 31 55  1  0
 31 56  1  0
 32 33  1  0
 33 34  1  0
 33 57  1  0
 33 58  1  0
M  CHG  1  13   1
M  END
>  <DOCK_score>  (1) 
-47.746101

>  <SMILES>  (1) 
Cc1cccc(O[C@H]2C[C@@H]([NH+]=C(NCc3cccs3)N[C@H]3C[C@@H](O)C3)C2)c1CCl

$$$$
