Cc1ccc(-c2ccc(-c3c[nH]c(N[C@@H]4c5ccccc5-c5ccc(O)cc54)[nH+]3)cc2)cc1
     RDKit          3D

 57 62  0  0  1  0  0  0  0  0999 V2000
  139.6005  136.4872  169.2885 C   0  0  0  0  0  0  0  0  0  0  0  0
  138.5798  136.3710  168.1858 C   0  0  0  0  0  0  0  0  0  0  0  0
  138.9483  135.8523  166.9576 C   0  0  0  0  0  0  0  0  0  0  0  0
  138.0168  135.7391  165.9457 C   0  0  0  0  0  0  0  0  0  0  0  0
  136.7049  136.1589  166.1597 C   0  0  0  0  0  0  0  0  0  0  0  0
  135.7008  136.0460  165.0742 C   0  0  0  0  0  0  0  0  0  0  0  0
  134.3567  135.8440  165.3859 C   0  0  0  0  0  0  0  0  0  0  0  0
  133.4233  135.7439  164.3780 C   0  0  0  0  0  0  0  0  0  0  0  0
  133.8241  135.8344  163.0449 C   0  0  0  0  0  0  0  0  0  0  0  0
  132.8204  135.7220  161.9598 C   0  0  0  0  0  0  0  0  0  0  0  0
  132.8875  136.3220  160.7448 C   0  0  0  0  0  0  0  0  0  0  0  0
  131.7606  135.9490  160.0536 N   0  0  0  0  0  0  0  0  0  0  0  0
  131.5251  136.2168  159.1516 H   0  0  0  0  0  0  0  0  0  0  0  0
  131.0328  135.1390  160.8699 C   0  0  0  0  0  0  0  0  0  0  0  0
  129.8200  134.5527  160.5508 N   0  0  0  0  0  0  0  0  0  0  0  0
  129.4502  133.2652  161.1439 C   0  0  2  0  0  0  0  0  0  0  0  0
  129.7503  133.2349  162.1913 H   0  0  0  0  0  0  0  0  0  0  0  0
  130.1023  132.1365  160.3837 C   0  0  0  0  0  0  0  0  0  0  0  0
  131.4221  131.8181  160.1486 C   0  0  0  0  0  0  0  0  0  0  0  0
  131.7430  130.6994  159.4006 C   0  0  0  0  0  0  0  0  0  0  0  0
  130.7397  129.8983  158.8851 C   0  0  0  0  0  0  0  0  0  0  0  0
  129.4157  130.2092  159.1137 C   0  0  0  0  0  0  0  0  0  0  0  0
  129.0843  131.3365  159.8681 C   0  0  0  0  0  0  0  0  0  0  0  0
  127.7677  131.8960  160.2622 C   0  0  0  0  0  0  0  0  0  0  0  0
  126.4676  131.4606  159.9953 C   0  0  0  0  0  0  0  0  0  0  0  0
  125.3898  132.1670  160.4834 C   0  0  0  0  0  0  0  0  0  0  0  0
  125.5910  133.3127  161.2417 C   0  0  0  0  0  0  0  0  0  0  0  0
  124.5255  134.0064  161.7208 O   0  0  0  0  0  0  0  0  0  0  0  0
  126.8816  133.7494  161.5097 C   0  0  0  0  0  0  0  0  0  0  0  0
  127.9619  133.0459  161.0233 C   0  0  0  0  0  0  0  0  0  0  0  0
  131.6690  135.0056  162.0079 N   0  0  0  0  0  0  0  0  0  0  0  0
  131.3656  134.4785  162.7635 H   0  0  0  0  0  0  0  0  0  0  0  0
  135.1694  136.0313  162.7331 C   0  0  0  0  0  0  0  0  0  0  0  0
  136.1019  136.1362  163.7414 C   0  0  0  0  0  0  0  0  0  0  0  0
  136.3406  136.6858  167.3977 C   0  0  0  0  0  0  0  0  0  0  0  0
  137.2793  136.7889  168.4041 C   0  0  0  0  0  0  0  0  0  0  0  0
  139.5990  135.5734  169.8827 H   0  0  0  0  0  0  0  0  0  0  0  0
  140.5890  136.6366  168.8543 H   0  0  0  0  0  0  0  0  0  0  0  0
  139.3515  137.3355  169.9261 H   0  0  0  0  0  0  0  0  0  0  0  0
  139.9661  135.5317  166.7915 H   0  0  0  0  0  0  0  0  0  0  0  0
  138.3046  135.3302  164.9885 H   0  0  0  0  0  0  0  0  0  0  0  0
  134.0469  135.7700  166.4179 H   0  0  0  0  0  0  0  0  0  0  0  0
  132.3818  135.5914  164.6197 H   0  0  0  0  0  0  0  0  0  0  0  0
  133.6768  136.9672  160.3883 H   0  0  0  0  0  0  0  0  0  0  0  0
  129.2150  134.9944  159.9345 H   0  0  0  0  0  0  0  0  0  0  0  0
  132.2068  132.4421  160.5500 H   0  0  0  0  0  0  0  0  0  0  0  0
  132.7781  130.4512  159.2185 H   0  0  0  0  0  0  0  0  0  0  0  0
  130.9944  129.0259  158.3017 H   0  0  0  0  0  0  0  0  0  0  0  0
  128.6355  129.5814  158.7092 H   0  0  0  0  0  0  0  0  0  0  0  0
  126.3070  130.5702  159.4056 H   0  0  0  0  0  0  0  0  0  0  0  0
  124.3855  131.8282  160.2761 H   0  0  0  0  0  0  0  0  0  0  0  0
  124.7652  134.7885  162.2367 H   0  0  0  0  0  0  0  0  0  0  0  0
  127.0387  134.6407  162.0991 H   0  0  0  0  0  0  0  0  0  0  0  0
  135.4799  136.1018  161.7011 H   0  0  0  0  0  0  0  0  0  0  0  0
  137.1435  136.2886  163.5001 H   0  0  0  0  0  0  0  0  0  0  0  0
  135.3255  137.0123  167.5691 H   0  0  0  0  0  0  0  0  0  0  0  0
  136.9980  137.1969  169.3636 H   0  0  0  0  0  0  0  0  0  0  0  0
  1  2  1  0
  1 37  1  0
  1 38  1  0
  1 39  1  0
  2 36  2  0
  2  3  1  0
  3  4  2  0
  3 40  1  0
  4  5  1  0
  4 41  1  0
  5  6  1  0
  5 35  2  0
  6 34  1  0
  6  7  2  0
  7  8  1  0
  7 42  1  0
  8  9  2  0
  8 43  1  0
  9 10  1  0
  9 33  1  0
 10 31  1  0
 10 11  2  0
 11 12  1  0
 11 44  1  0
 12 13  1  0
 12 14  1  0
 14 15  1  0
 14 31  2  0
 15 16  1  0
 15 45  1  0
 16 17  1  1
 16 30  1  0
 16 18  1  0
 18 23  1  0
 18 19  2  0
 19 20  1  0
 19 46  1  0
 20 21  2  0
 20 47  1  0
 21 22  1  0
 21 48  1  0
 22 23  2  0
 22 49  1  0
 23 24  1  0
 24 30  2  0
 24 25  1  0
 25 26  2  0
 25 50  1  0
 26 27  1  0
 26 51  1  0
 27 28  1  0
 27 29  2  0
 28 52  1  0
 29 30  1  0
 29 53  1  0
 31 32  1  0
 33 34  2  0
 33 54  1  0
 34 55  1  0
 35 36  1  0
 35 56  1  0
 36 57  1  0
M  CHG  1  31   1
M  END
>  <DOCK_score>  (1) 
-46.052765

>  <SMILES>  (1) 
Cc1ccc(-c2ccc(-c3c[nH]c(N[C@@H]4c5ccccc5-c5ccc(O)cc54)[nH+]3)cc2)cc1

$$$$
