O[C@@H](C[NH+]=C(NC1CCCCC1)NC1CCCCC1)c1cccc(-c2cccc(F)c2)c1
     RDKit          3D

 69 72  0  0  1  0  0  0  0  0999 V2000
  126.6082  136.0469  162.2936 O   0  0  0  0  0  0  0  0  0  0  0  0
  127.6604  135.7801  163.2230 C   0  0  1  0  0  0  0  0  0  0  0  0
  127.7706  134.7028  163.3477 H   0  0  0  0  0  0  0  0  0  0  0  0
  128.9696  136.3688  162.6937 C   0  0  0  0  0  0  0  0  0  0  0  0
  129.2926  135.7582  161.4017 N   0  0  0  0  0  0  0  0  0  0  0  0
  128.7025  135.0894  161.0204 H   0  0  0  0  0  0  0  0  0  0  0  0
  130.3728  136.1137  160.7649 C   0  0  0  0  0  0  0  0  0  0  0  0
  131.2092  137.0615  161.3054 N   0  0  0  0  0  0  0  0  0  0  0  0
  132.4234  137.4610  160.5895 C   0  0  0  0  0  0  0  0  0  0  0  0
  133.4956  137.8790  161.5977 C   0  0  0  0  0  0  0  0  0  0  0  0
  134.7636  138.2961  160.8501 C   0  0  0  0  0  0  0  0  0  0  0  0
  134.4465  139.4731  159.9253 C   0  0  0  0  0  0  0  0  0  0  0  0
  133.3742  139.0551  158.9172 C   0  0  0  0  0  0  0  0  0  0  0  0
  132.1063  138.6379  159.6648 C   0  0  0  0  0  0  0  0  0  0  0  0
  130.6759  135.5408  159.5524 N   0  0  0  0  0  0  0  0  0  0  0  0
  130.2511  134.1687  159.2638 C   0  0  0  0  0  0  0  0  0  0  0  0
  130.8718  133.2166  160.2880 C   0  0  0  0  0  0  0  0  0  0  0  0
  130.4281  131.7837  159.9866 C   0  0  0  0  0  0  0  0  0  0  0  0
  130.8889  131.3921  158.5811 C   0  0  0  0  0  0  0  0  0  0  0  0
  130.2682  132.3442  157.5570 C   0  0  0  0  0  0  0  0  0  0  0  0
  130.7119  133.7771  157.8584 C   0  0  0  0  0  0  0  0  0  0  0  0
  127.3282  136.4081  164.5520 C   0  0  0  0  0  0  0  0  0  0  0  0
  127.2111  135.6158  165.6800 C   0  0  0  0  0  0  0  0  0  0  0  0
  126.9059  136.1854  166.9027 C   0  0  0  0  0  0  0  0  0  0  0  0
  126.7173  137.5491  167.0040 C   0  0  0  0  0  0  0  0  0  0  0  0
  126.8346  138.3519  165.8712 C   0  0  0  0  0  0  0  0  0  0  0  0
  126.6334  139.8185  165.9738 C   0  0  0  0  0  0  0  0  0  0  0  0
  126.9371  140.4845  167.1598 C   0  0  0  0  0  0  0  0  0  0  0  0
  126.7535  141.8494  167.2495 C   0  0  0  0  0  0  0  0  0  0  0  0
  126.2583  142.5560  166.1687 C   0  0  0  0  0  0  0  0  0  0  0  0
  125.9489  141.8995  164.9889 C   0  0  0  0  0  0  0  0  0  0  0  0
  125.4655  142.5948  163.9363 F   0  0  0  0  0  0  0  0  0  0  0  0
  126.1348  140.5331  164.8871 C   0  0  0  0  0  0  0  0  0  0  0  0
  127.1417  137.7725  164.6416 C   0  0  0  0  0  0  0  0  0  0  0  0
  125.7467  135.7014  162.5649 H   0  0  0  0  0  0  0  0  0  0  0  0
  128.8594  137.4460  162.5691 H   0  0  0  0  0  0  0  0  0  0  0  0
  129.7723  136.1652  163.4026 H   0  0  0  0  0  0  0  0  0  0  0  0
  130.9954  137.4659  162.1608 H   0  0  0  0  0  0  0  0  0  0  0  0
  132.7887  136.6219  159.9974 H   0  0  0  0  0  0  0  0  0  0  0  0
  133.1302  138.7180  162.1897 H   0  0  0  0  0  0  0  0  0  0  0  0
  133.7215  137.0404  162.2564 H   0  0  0  0  0  0  0  0  0  0  0  0
  135.1289  137.4570  160.2580 H   0  0  0  0  0  0  0  0  0  0  0  0
  135.5275  138.5939  161.5683 H   0  0  0  0  0  0  0  0  0  0  0  0
  135.3499  139.7704  159.3927 H   0  0  0  0  0  0  0  0  0  0  0  0
  134.0811  140.3122  160.5175 H   0  0  0  0  0  0  0  0  0  0  0  0
  133.7396  138.2160  158.3250 H   0  0  0  0  0  0  0  0  0  0  0  0
  133.1483  139.8935  158.2584 H   0  0  0  0  0  0  0  0  0  0  0  0
  131.3424  138.3401  158.9466 H   0  0  0  0  0  0  0  0  0  0  0  0
  131.7409  139.4770  160.2568 H   0  0  0  0  0  0  0  0  0  0  0  0
  131.1711  136.0450  158.8880 H   0  0  0  0  0  0  0  0  0  0  0  0
  129.1644  134.1053  159.3207 H   0  0  0  0  0  0  0  0  0  0  0  0
  131.9584  133.2800  160.2310 H   0  0  0  0  0  0  0  0  0  0  0  0
  130.5435  133.4955  161.2892 H   0  0  0  0  0  0  0  0  0  0  0  0
  129.3414  131.7203  160.0434 H   0  0  0  0  0  0  0  0  0  0  0  0
  130.8703  131.1053  160.7162 H   0  0  0  0  0  0  0  0  0  0  0  0
  130.5728  130.3712  158.3664 H   0  0  0  0  0  0  0  0  0  0  0  0
  131.9756  131.4555  158.5243 H   0  0  0  0  0  0  0  0  0  0  0  0
  129.1816  132.2808  157.6139 H   0  0  0  0  0  0  0  0  0  0  0  0
  130.5966  132.0652  156.5558 H   0  0  0  0  0  0  0  0  0  0  0  0
  130.2697  134.4555  157.1287 H   0  0  0  0  0  0  0  0  0  0  0  0
  131.7986  133.8405  157.8015 H   0  0  0  0  0  0  0  0  0  0  0  0
  127.3581  134.5485  165.6054 H   0  0  0  0  0  0  0  0  0  0  0  0
  126.8152  135.5622  167.7801 H   0  0  0  0  0  0  0  0  0  0  0  0
  126.4793  137.9930  167.9593 H   0  0  0  0  0  0  0  0  0  0  0  0
  127.3200  139.9337  168.0063 H   0  0  0  0  0  0  0  0  0  0  0  0
  126.9928  142.3660  168.1672 H   0  0  0  0  0  0  0  0  0  0  0  0
  126.1119  143.6234  166.2449 H   0  0  0  0  0  0  0  0  0  0  0  0
  125.8937  140.0210  163.9675 H   0  0  0  0  0  0  0  0  0  0  0  0
  127.2381  138.3906  163.7614 H   0  0  0  0  0  0  0  0  0  0  0  0
  1  2  1  0
  1 35  1  0
  2  3  1  1
  2  4  1  0
  2 22  1  0
  4  5  1  0
  4 36  1  0
  4 37  1  0
  5  6  1  0
  5  7  2  0
  7  8  1  0
  7 15  1  0
  8  9  1  0
  8 38  1  0
  9 14  1  0
  9 10  1  0
  9 39  1  0
 10 11  1  0
 10 40  1  0
 10 41  1  0
 11 12  1  0
 11 42  1  0
 11 43  1  0
 12 13  1  0
 12 44  1  0
 12 45  1  0
 13 14  1  0
 13 46  1  0
 13 47  1  0
 14 48  1  0
 14 49  1  0
 15 16  1  0
 15 50  1  0
 16 21  1  0
 16 17  1  0
 16 51  1  0
 17 18  1  0
 17 52  1  0
 17 53  1  0
 18 19  1  0
 18 54  1  0
 18 55  1  0
 19 20  1  0
 19 56  1  0
 19 57  1  0
 20 21  1  0
 20 58  1  0
 20 59  1  0
 21 60  1  0
 21 61  1  0
 22 34  1  0
 22 23  2  0
 23 24  1  0
 23 62  1  0
 24 25  2  0
 24 63  1  0
 25 26  1  0
 25 64  1  0
 26 27  1  0
 26 34  2  0
 27 33  1  0
 27 28  2  0
 28 29  1  0
 28 65  1  0
 29 30  2  0
 29 66  1  0
 30 31  1  0
 30 67  1  0
 31 32  1  0
 31 33  2  0
 33 68  1  0
 34 69  1  0
M  CHG  1   5   1
M  END
>  <DOCK_score>  (1) 
-48.875984

>  <SMILES>  (1) 
O[C@@H](C[NH+]=C(NC1CCCCC1)NC1CCCCC1)c1cccc(-c2cccc(F)c2)c1

$$$$
