COc1ccc(-n2cc(CN3CCC([NH+]4CC=CC4)CC3)c([C@H](O)CCc3cnccn3)n2)cc1F
     RDKit          3D

 70 74  0  0  1  0  0  0  0  0999 V2000
  136.6078  136.5770  165.2603 C   0  0  0  0  0  0  0  0  0  0  0  0
  135.8664  135.3620  165.3868 O   0  0  0  0  0  0  0  0  0  0  0  0
  134.5875  135.3682  164.9245 C   0  0  0  0  0  0  0  0  0  0  0  0
  133.5464  135.7209  165.7698 C   0  0  0  0  0  0  0  0  0  0  0  0
  132.2478  135.7320  165.2999 C   0  0  0  0  0  0  0  0  0  0  0  0
  131.9823  135.3801  163.9834 C   0  0  0  0  0  0  0  0  0  0  0  0
  130.6626  135.3870  163.5078 N   0  0  0  0  0  0  0  0  0  0  0  0
  130.2670  135.0735  162.2537 C   0  0  0  0  0  0  0  0  0  0  0  0
  128.9209  135.2039  162.2014 C   0  0  0  0  0  0  0  0  0  0  0  0
  128.0521  134.9552  160.9955 C   0  0  0  0  0  0  0  0  0  0  0  0
  128.8924  134.5430  159.8633 N   0  0  0  0  0  0  0  0  0  0  0  0
  128.2339  134.8383  158.5844 C   0  0  0  0  0  0  0  0  0  0  0  0
  129.1934  134.5319  157.4322 C   0  0  0  0  0  0  0  0  0  0  0  0
  129.5982  133.0562  157.4905 C   0  0  0  0  0  0  0  0  0  0  0  0
  130.5647  132.7698  156.4219 N   0  0  0  0  0  0  0  0  0  0  0  0
  131.3915  133.3385  156.5267 H   0  0  0  0  0  0  0  0  0  0  0  0
  130.9131  131.3292  156.4015 C   0  0  0  0  0  0  0  0  0  0  0  0
  131.0985  130.9828  154.9423 C   0  0  0  0  0  0  0  0  0  0  0  0
  130.5541  131.9146  154.2003 C   0  0  0  0  0  0  0  0  0  0  0  0
  129.9503  132.9772  155.0889 C   0  0  0  0  0  0  0  0  0  0  0  0
  130.2377  132.7638  158.8506 C   0  0  0  0  0  0  0  0  0  0  0  0
  129.2478  133.1216  159.9616 C   0  0  0  0  0  0  0  0  0  0  0  0
  128.4784  135.6104  163.4648 C   0  0  0  0  0  0  0  0  0  0  0  0
  127.0475  135.8759  163.8563 C   0  0  2  0  0  0  0  0  0  0  0  0
  126.4585  134.9695  163.7164 H   0  0  0  0  0  0  0  0  0  0  0  0
  126.5159  136.9204  163.0386 O   0  0  0  0  0  0  0  0  0  0  0  0
  126.9909  136.2993  165.3254 C   0  0  0  0  0  0  0  0  0  0  0  0
  127.0744  135.0589  166.2172 C   0  0  0  0  0  0  0  0  0  0  0  0
  127.0186  135.4758  167.6643 C   0  0  0  0  0  0  0  0  0  0  0  0
  128.1876  135.7619  168.3476 C   0  0  0  0  0  0  0  0  0  0  0  0
  128.1386  136.1278  169.6163 N   0  0  0  0  0  0  0  0  0  0  0  0
  126.9732  136.2207  170.2326 C   0  0  0  0  0  0  0  0  0  0  0  0
  125.8050  135.9297  169.5509 C   0  0  0  0  0  0  0  0  0  0  0  0
  125.8536  135.5687  168.2805 N   0  0  0  0  0  0  0  0  0  0  0  0
  129.5218  135.7258  164.2469 N   0  0  0  0  0  0  0  0  0  0  0  0
  133.0237  135.0268  163.1361 C   0  0  0  0  0  0  0  0  0  0  0  0
  134.3241  135.0208  163.6054 C   0  0  0  0  0  0  0  0  0  0  0  0
  135.3383  134.6768  162.7818 F   0  0  0  0  0  0  0  0  0  0  0  0
  136.6782  136.8519  164.2078 H   0  0  0  0  0  0  0  0  0  0  0  0
  136.1016  137.3706  165.8100 H   0  0  0  0  0  0  0  0  0  0  0  0
  137.6093  136.4356  165.6665 H   0  0  0  0  0  0  0  0  0  0  0  0
  133.7515  135.9909  166.7952 H   0  0  0  0  0  0  0  0  0  0  0  0
  131.4381  136.0112  165.9577 H   0  0  0  0  0  0  0  0  0  0  0  0
  130.9098  134.7726  161.4395 H   0  0  0  0  0  0  0  0  0  0  0  0
  127.3343  134.1665  161.2212 H   0  0  0  0  0  0  0  0  0  0  0  0
  127.5180  135.8697  160.7376 H   0  0  0  0  0  0  0  0  0  0  0  0
  127.3396  134.2229  158.4858 H   0  0  0  0  0  0  0  0  0  0  0  0
  127.9550  135.8916  158.5543 H   0  0  0  0  0  0  0  0  0  0  0  0
  130.0819  135.1568  157.5225 H   0  0  0  0  0  0  0  0  0  0  0  0
  128.6990  134.7364  156.4827 H   0  0  0  0  0  0  0  0  0  0  0  0
  128.7149  132.4308  157.3613 H   0  0  0  0  0  0  0  0  0  0  0  0
  131.8386  131.1568  156.9510 H   0  0  0  0  0  0  0  0  0  0  0  0
  130.1031  130.7387  156.8298 H   0  0  0  0  0  0  0  0  0  0  0  0
  131.6015  130.1029  154.5692 H   0  0  0  0  0  0  0  0  0  0  0  0
  130.5391  131.9223  153.1204 H   0  0  0  0  0  0  0  0  0  0  0  0
  128.8693  132.8508  155.1477 H   0  0  0  0  0  0  0  0  0  0  0  0
  130.1939  133.9703  154.7114 H   0  0  0  0  0  0  0  0  0  0  0  0
  131.1426  133.3609  158.9633 H   0  0  0  0  0  0  0  0  0  0  0  0
  130.4892  131.7051  158.9144 H   0  0  0  0  0  0  0  0  0  0  0  0
  129.7054  132.9281  160.9319 H   0  0  0  0  0  0  0  0  0  0  0  0
  128.3488  132.5143  159.8566 H   0  0  0  0  0  0  0  0  0  0  0  0
  125.5963  137.1446  163.2357 H   0  0  0  0  0  0  0  0  0  0  0  0
  126.0538  136.8220  165.5171 H   0  0  0  0  0  0  0  0  0  0  0  0
  127.8281  136.9618  165.5452 H   0  0  0  0  0  0  0  0  0  0  0  0
  128.0115  134.5360  166.0257 H   0  0  0  0  0  0  0  0  0  0  0  0
  126.2373  134.3963  165.9974 H   0  0  0  0  0  0  0  0  0  0  0  0
  129.1399  135.6855  167.8441 H   0  0  0  0  0  0  0  0  0  0  0  0
  126.9331  136.5196  171.2696 H   0  0  0  0  0  0  0  0  0  0  0  0
  124.8530  136.0014  170.0559 H   0  0  0  0  0  0  0  0  0  0  0  0
  132.8181  134.7572  162.1106 H   0  0  0  0  0  0  0  0  0  0  0  0
  1  2  1  0
  1 39  1  0
  1 40  1  0
  1 41  1  0
  2  3  1  0
  3 37  2  0
  3  4  1  0
  4  5  2  0
  4 42  1  0
  5  6  1  0
  5 43  1  0
  6  7  1  0
  6 36  2  0
  7 35  1  0
  7  8  1  0
  8  9  2  0
  8 44  1  0
  9 10  1  0
  9 23  1  0
 10 11  1  0
 10 45  1  0
 10 46  1  0
 11 22  1  0
 11 12  1  0
 12 13  1  0
 12 47  1  0
 12 48  1  0
 13 14  1  0
 13 49  1  0
 13 50  1  0
 14 15  1  0
 14 21  1  0
 14 51  1  0
 15 16  1  0
 15 20  1  0
 15 17  1  0
 17 18  1  0
 17 52  1  0
 17 53  1  0
 18 19  2  0
 18 54  1  0
 19 20  1  0
 19 55  1  0
 20 56  1  0
 20 57  1  0
 21 22  1  0
 21 58  1  0
 21 59  1  0
 22 60  1  0
 22 61  1  0
 23 24  1  0
 23 35  2  0
 24 25  1  1
 24 26  1  0
 24 27  1  0
 26 62  1  0
 27 28  1  0
 27 63  1  0
 27 64  1  0
 28 29  1  0
 28 65  1  0
 28 66  1  0
 29 34  1  0
 29 30  2  0
 30 31  1  0
 30 67  1  0
 31 32  2  0
 32 33  1  0
 32 68  1  0
 33 34  2  0
 33 69  1  0
 36 37  1  0
 36 70  1  0
 37 38  1  0
M  CHG  1  15   1
M  END
>  <DOCK_score>  (1) 
-41.094101

>  <SMILES>  (1) 
COc1ccc(-n2cc(CN3CCC([NH+]4CC=CC4)CC3)c([C@H](O)CCc3cnccn3)n2)cc1F

$$$$
