CCC=CC[C@@H](Nc1[nH]cc(-c2ccc(CC)cc2)[nH+]1)c1ccc(C)cc1
     RDKit          3D

 57 59  0  0  1  0  0  0  0  0999 V2000
  124.9224  133.0764  161.0779 C   0  0  0  0  0  0  0  0  0  0  0  0
  126.3842  132.6275  161.0282 C   0  0  0  0  0  0  0  0  0  0  0  0
  127.2833  133.8231  161.2106 C   0  0  0  0  0  0  0  0  0  0  0  0
  127.6858  134.5052  160.1671 C   0  0  0  0  0  0  0  0  0  0  0  0
  128.5849  135.7009  160.3495 C   0  0  0  0  0  0  0  0  0  0  0  0
  130.0467  135.2520  160.2998 C   0  0  1  0  0  0  0  0  0  0  0  0
  130.1548  134.3067  160.8317 H   0  0  0  0  0  0  0  0  0  0  0  0
  130.4566  135.0768  158.9042 N   0  0  0  0  0  0  0  0  0  0  0  0
  130.2999  133.8481  158.2858 C   0  0  0  0  0  0  0  0  0  0  0  0
  129.7853  132.7291  158.8648 N   0  0  0  0  0  0  0  0  0  0  0  0
  129.4649  132.6496  159.7769 H   0  0  0  0  0  0  0  0  0  0  0  0
  129.8029  131.7330  157.9190 C   0  0  0  0  0  0  0  0  0  0  0  0
  130.3272  132.2715  156.7902 C   0  0  0  0  0  0  0  0  0  0  0  0
  130.5410  131.5648  155.5037 C   0  0  0  0  0  0  0  0  0  0  0  0
  129.9104  132.0151  154.3451 C   0  0  0  0  0  0  0  0  0  0  0  0
  130.1134  131.3540  153.1508 C   0  0  0  0  0  0  0  0  0  0  0  0
  130.9409  130.2461  153.1025 C   0  0  0  0  0  0  0  0  0  0  0  0
  131.1587  129.5283  151.7954 C   0  0  0  0  0  0  0  0  0  0  0  0
  130.1003  128.4358  151.6310 C   0  0  0  0  0  0  0  0  0  0  0  0
  131.5647  129.7917  154.2500 C   0  0  0  0  0  0  0  0  0  0  0  0
  131.3735  130.4484  155.4487 C   0  0  0  0  0  0  0  0  0  0  0  0
  130.6273  133.5694  157.0477 N   0  0  0  0  0  0  0  0  0  0  0  0
  131.0195  134.1920  156.4158 H   0  0  0  0  0  0  0  0  0  0  0  0
  130.9154  136.2971  160.9511 C   0  0  0  0  0  0  0  0  0  0  0  0
  130.9439  137.5840  160.4472 C   0  0  0  0  0  0  0  0  0  0  0  0
  131.7371  138.5439  161.0476 C   0  0  0  0  0  0  0  0  0  0  0  0
  132.5098  138.2141  162.1454 C   0  0  0  0  0  0  0  0  0  0  0  0
  133.3793  139.2589  162.7961 C   0  0  0  0  0  0  0  0  0  0  0  0
  132.4854  136.9258  162.6460 C   0  0  0  0  0  0  0  0  0  0  0  0
  131.6882  135.9673  162.0488 C   0  0  0  0  0  0  0  0  0  0  0  0
  124.7361  133.7961  160.2807 H   0  0  0  0  0  0  0  0  0  0  0  0
  124.2721  132.2116  160.9462 H   0  0  0  0  0  0  0  0  0  0  0  0
  124.7177  133.5412  162.0423 H   0  0  0  0  0  0  0  0  0  0  0  0
  126.5890  132.1627  160.0638 H   0  0  0  0  0  0  0  0  0  0  0  0
  126.5707  131.9077  161.8253 H   0  0  0  0  0  0  0  0  0  0  0  0
  127.5958  134.1176  162.2015 H   0  0  0  0  0  0  0  0  0  0  0  0
  127.3733  134.2107  159.1761 H   0  0  0  0  0  0  0  0  0  0  0  0
  128.3800  136.1656  161.3139 H   0  0  0  0  0  0  0  0  0  0  0  0
  128.3984  136.4205  159.5524 H   0  0  0  0  0  0  0  0  0  0  0  0
  130.8378  135.8217  158.4136 H   0  0  0  0  0  0  0  0  0  0  0  0
  129.4638  130.7161  158.0493 H   0  0  0  0  0  0  0  0  0  0  0  0
  129.2640  132.8795  154.3820 H   0  0  0  0  0  0  0  0  0  0  0  0
  129.6250  131.7019  152.2525 H   0  0  0  0  0  0  0  0  0  0  0  0
  132.1506  129.0780  151.7889 H   0  0  0  0  0  0  0  0  0  0  0  0
  131.0770  130.2395  150.9725 H   0  0  0  0  0  0  0  0  0  0  0  0
  129.1080  128.8867  151.6372 H   0  0  0  0  0  0  0  0  0  0  0  0
  130.2578  127.9168  150.6855 H   0  0  0  0  0  0  0  0  0  0  0  0
  130.1815  127.7252  152.4535 H   0  0  0  0  0  0  0  0  0  0  0  0
  132.2058  128.9238  154.2071 H   0  0  0  0  0  0  0  0  0  0  0  0
  131.8648  130.0954  156.3434 H   0  0  0  0  0  0  0  0  0  0  0  0
  130.3436  137.8405  159.5869 H   0  0  0  0  0  0  0  0  0  0  0  0
  131.7566  139.5503  160.6563 H   0  0  0  0  0  0  0  0  0  0  0  0
  134.3644  139.2538  162.3295 H   0  0  0  0  0  0  0  0  0  0  0  0
  132.9229  140.2409  162.6706 H   0  0  0  0  0  0  0  0  0  0  0  0
  133.4794  139.0378  163.8587 H   0  0  0  0  0  0  0  0  0  0  0  0
  133.0893  136.6681  163.5035 H   0  0  0  0  0  0  0  0  0  0  0  0
  131.6693  134.9607  162.4397 H   0  0  0  0  0  0  0  0  0  0  0  0
  1  2  1  0
  1 31  1  0
  1 32  1  0
  1 33  1  0
  2  3  1  0
  2 34  1  0
  2 35  1  0
  3  4  2  0
  3 36  1  0
  4  5  1  0
  4 37  1  0
  5  6  1  0
  5 38  1  0
  5 39  1  0
  6  7  1  1
  6  8  1  0
  6 24  1  0
  8 40  1  0
  9  8  1  0
  9 22  2  0
  9 10  1  0
 10 11  1  0
 10 12  1  0
 12 13  2  0
 12 41  1  0
 13 14  1  0
 13 22  1  0
 14 21  1  0
 14 15  2  0
 15 16  1  0
 15 42  1  0
 16 17  2  0
 16 43  1  0
 17 18  1  0
 17 20  1  0
 18 19  1  0
 18 44  1  0
 18 45  1  0
 19 46  1  0
 19 47  1  0
 19 48  1  0
 20 21  2  0
 20 49  1  0
 21 50  1  0
 22 23  1  0
 24 30  1  0
 24 25  2  0
 25 26  1  0
 25 51  1  0
 26 27  2  0
 26 52  1  0
 27 28  1  0
 27 29  1  0
 28 53  1  0
 28 54  1  0
 28 55  1  0
 29 30  2  0
 29 56  1  0
 30 57  1  0
M  CHG  1  22   1
M  END
>  <DOCK_score>  (1) 
-56.548603

>  <SMILES>  (1) 
CCC=CC[C@@H](Nc1[nH]cc(-c2ccc(CC)cc2)[nH+]1)c1ccc(C)cc1

$$$$
