CCC=CC[C@H](Nc1[nH]cc(-c2ccc(CC)cc2)[nH+]1)c1ccc(F)cc1
     RDKit          3D

 54 56  0  0  1  0  0  0  0  0999 V2000
  133.4024  135.6860  162.4310 C   0  0  0  0  0  0  0  0  0  0  0  0
  132.5831  136.9565  162.6668 C   0  0  0  0  0  0  0  0  0  0  0  0
  131.6290  137.1595  161.5180 C   0  0  0  0  0  0  0  0  0  0  0  0
  130.4277  136.6393  161.5647 C   0  0  0  0  0  0  0  0  0  0  0  0
  129.4737  136.8423  160.4159 C   0  0  0  0  0  0  0  0  0  0  0  0
  129.0805  135.4832  159.8334 C   0  0  2  0  0  0  0  0  0  0  0  0
  128.9339  134.7692  160.6437 H   0  0  0  0  0  0  0  0  0  0  0  0
  130.1449  135.0051  158.9477 N   0  0  0  0  0  0  0  0  0  0  0  0
  130.0131  133.7881  158.3013 C   0  0  0  0  0  0  0  0  0  0  0  0
  129.3273  132.7108  158.7718 N   0  0  0  0  0  0  0  0  0  0  0  0
  128.8472  132.6580  159.6130 H   0  0  0  0  0  0  0  0  0  0  0  0
  129.4400  131.7122  157.8352 C   0  0  0  0  0  0  0  0  0  0  0  0
  130.1908  132.2074  156.8203 C   0  0  0  0  0  0  0  0  0  0  0  0
  130.5758  131.4822  155.5850 C   0  0  0  0  0  0  0  0  0  0  0  0
  130.1915  131.9719  154.3379 C   0  0  0  0  0  0  0  0  0  0  0  0
  130.5529  131.2933  153.1918 C   0  0  0  0  0  0  0  0  0  0  0  0
  131.2950  130.1285  153.2795 C   0  0  0  0  0  0  0  0  0  0  0  0
  131.6862  129.3918  152.0244 C   0  0  0  0  0  0  0  0  0  0  0  0
  130.5979  128.3773  151.6683 C   0  0  0  0  0  0  0  0  0  0  0  0
  131.6743  129.6354  154.5144 C   0  0  0  0  0  0  0  0  0  0  0  0
  131.3238  130.3090  155.6668 C   0  0  0  0  0  0  0  0  0  0  0  0
  130.5322  133.4815  157.1374 N   0  0  0  0  0  0  0  0  0  0  0  0
  131.0721  134.0722  156.5892 H   0  0  0  0  0  0  0  0  0  0  0  0
  127.8007  135.6238  159.0501 C   0  0  0  0  0  0  0  0  0  0  0  0
  126.5828  135.4414  159.6785 C   0  0  0  0  0  0  0  0  0  0  0  0
  125.4084  135.5756  158.9625 C   0  0  0  0  0  0  0  0  0  0  0  0
  125.4520  135.8820  157.6129 C   0  0  0  0  0  0  0  0  0  0  0  0
  124.3048  136.0079  156.9107 F   0  0  0  0  0  0  0  0  0  0  0  0
  126.6725  136.0587  156.9834 C   0  0  0  0  0  0  0  0  0  0  0  0
  127.8456  135.9292  157.7025 C   0  0  0  0  0  0  0  0  0  0  0  0
  132.7318  134.8295  162.3598 H   0  0  0  0  0  0  0  0  0  0  0  0
  133.9662  135.7841  161.5033 H   0  0  0  0  0  0  0  0  0  0  0  0
  134.0925  135.5392  163.2619 H   0  0  0  0  0  0  0  0  0  0  0  0
  133.2535  137.8130  162.7379 H   0  0  0  0  0  0  0  0  0  0  0  0
  132.0194  136.8585  163.5944 H   0  0  0  0  0  0  0  0  0  0  0  0
  131.9357  137.7339  160.6563 H   0  0  0  0  0  0  0  0  0  0  0  0
  130.1210  136.0650  162.4263 H   0  0  0  0  0  0  0  0  0  0  0  0
  129.9561  137.4424  159.6445 H   0  0  0  0  0  0  0  0  0  0  0  0
  128.5811  137.3570  160.7715 H   0  0  0  0  0  0  0  0  0  0  0  0
  130.9422  135.5412  158.8143 H   0  0  0  0  0  0  0  0  0  0  0  0
  129.0124  130.7222  157.8957 H   0  0  0  0  0  0  0  0  0  0  0  0
  129.6117  132.8804  154.2685 H   0  0  0  0  0  0  0  0  0  0  0  0
  130.2557  131.6717  152.2250 H   0  0  0  0  0  0  0  0  0  0  0  0
  132.6294  128.8714  152.1876 H   0  0  0  0  0  0  0  0  0  0  0  0
  131.8009  130.1035  151.2061 H   0  0  0  0  0  0  0  0  0  0  0  0
  129.6546  128.8983  151.5047 H   0  0  0  0  0  0  0  0  0  0  0  0
  130.8808  127.8444  150.7605 H   0  0  0  0  0  0  0  0  0  0  0  0
  130.4829  127.6661  152.4862 H   0  0  0  0  0  0  0  0  0  0  0  0
  132.2495  128.7235  154.5769 H   0  0  0  0  0  0  0  0  0  0  0  0
  131.6245  129.9253  156.6306 H   0  0  0  0  0  0  0  0  0  0  0  0
  126.5490  135.1982  160.7301 H   0  0  0  0  0  0  0  0  0  0  0  0
  124.4570  135.4379  159.4546 H   0  0  0  0  0  0  0  0  0  0  0  0
  126.7079  136.2974  155.9307 H   0  0  0  0  0  0  0  0  0  0  0  0
  128.7977  136.0671  157.2117 H   0  0  0  0  0  0  0  0  0  0  0  0
  1  2  1  0
  1 31  1  0
  1 32  1  0
  1 33  1  0
  2  3  1  0
  2 34  1  0
  2 35  1  0
  3  4  2  0
  3 36  1  0
  4  5  1  0
  4 37  1  0
  5  6  1  0
  5 38  1  0
  5 39  1  0
  6  7  1  1
  6  8  1  0
  6 24  1  0
  8 40  1  0
  9  8  1  0
  9 22  2  0
  9 10  1  0
 10 11  1  0
 10 12  1  0
 12 13  2  0
 12 41  1  0
 13 14  1  0
 13 22  1  0
 14 21  1  0
 14 15  2  0
 15 16  1  0
 15 42  1  0
 16 17  2  0
 16 43  1  0
 17 18  1  0
 17 20  1  0
 18 19  1  0
 18 44  1  0
 18 45  1  0
 19 46  1  0
 19 47  1  0
 19 48  1  0
 20 21  2  0
 20 49  1  0
 21 50  1  0
 22 23  1  0
 24 30  1  0
 24 25  2  0
 25 26  1  0
 25 51  1  0
 26 27  2  0
 26 52  1  0
 27 28  1  0
 27 29  1  0
 29 30  2  0
 29 53  1  0
 30 54  1  0
M  CHG  1  22   1
M  END
>  <DOCK_score>  (1) 
-60.521629

>  <SMILES>  (1) 
CCC=CC[C@H](Nc1[nH]cc(-c2ccc(CC)cc2)[nH+]1)c1ccc(F)cc1

$$$$
