Nc1ccccc1Nc1cccc(Nc2ccc([C@H]([NH3+])c3ccccc3)cc2)c1
     RDKit          3D

 54 57  0  0  1  0  0  0  0  0999 V2000
  129.4593  132.3080  156.9943 N   0  0  0  0  0  0  0  0  0  0  0  0
  129.9525  132.2947  158.3042 C   0  0  0  0  0  0  0  0  0  0  0  0
  131.2511  132.7070  158.5625 C   0  0  0  0  0  0  0  0  0  0  0  0
  131.7383  132.6871  159.8562 C   0  0  0  0  0  0  0  0  0  0  0  0
  130.9325  132.2623  160.8965 C   0  0  0  0  0  0  0  0  0  0  0  0
  129.6348  131.8549  160.6490 C   0  0  0  0  0  0  0  0  0  0  0  0
  129.1377  131.8716  159.3543 C   0  0  0  0  0  0  0  0  0  0  0  0
  127.8237  131.4594  159.1014 N   0  0  0  0  0  0  0  0  0  0  0  0
  126.7541  132.1281  159.7012 C   0  0  0  0  0  0  0  0  0  0  0  0
  125.5782  131.4439  159.9874 C   0  0  0  0  0  0  0  0  0  0  0  0
  124.5198  132.1045  160.5803 C   0  0  0  0  0  0  0  0  0  0  0  0
  124.6255  133.4469  160.8904 C   0  0  0  0  0  0  0  0  0  0  0  0
  125.7982  134.1369  160.6072 C   0  0  0  0  0  0  0  0  0  0  0  0
  125.9043  135.4941  160.9212 N   0  0  0  0  0  0  0  0  0  0  0  0
  127.0835  136.1870  160.6362 C   0  0  0  0  0  0  0  0  0  0  0  0
  127.8030  136.7881  161.6613 C   0  0  0  0  0  0  0  0  0  0  0  0
  128.9680  137.4727  161.3759 C   0  0  0  0  0  0  0  0  0  0  0  0
  129.4189  137.5597  160.0717 C   0  0  0  0  0  0  0  0  0  0  0  0
  130.6874  138.3123  159.7632 C   0  0  2  0  0  0  0  0  0  0  0  0
  130.6251  138.7339  158.7598 H   0  0  0  0  0  0  0  0  0  0  0  0
  131.8320  137.3945  159.8384 N   0  0  0  0  0  0  0  0  0  0  0  0
  132.6813  137.8984  159.6320 H   0  0  0  0  0  0  0  0  0  0  0  0
  131.8897  137.0043  160.7671 H   0  0  0  0  0  0  0  0  0  0  0  0
  131.7109  136.6503  159.1679 H   0  0  0  0  0  0  0  0  0  0  0  0
  130.8682  139.4238  160.7646 C   0  0  0  0  0  0  0  0  0  0  0  0
  130.3430  140.6766  160.5091 C   0  0  0  0  0  0  0  0  0  0  0  0
  130.5049  141.6950  161.4298 C   0  0  0  0  0  0  0  0  0  0  0  0
  131.2002  141.4630  162.6018 C   0  0  0  0  0  0  0  0  0  0  0  0
  131.7300  140.2115  162.8550 C   0  0  0  0  0  0  0  0  0  0  0  0
  131.5643  139.1921  161.9363 C   0  0  0  0  0  0  0  0  0  0  0  0
  128.7051  136.9625  159.0486 C   0  0  0  0  0  0  0  0  0  0  0  0
  127.5391  136.2768  159.3267 C   0  0  0  0  0  0  0  0  0  0  0  0
  126.8619  133.4775  160.0067 C   0  0  0  0  0  0  0  0  0  0  0  0
  128.5494  132.0228  156.8159 H   0  0  0  0  0  0  0  0  0  0  0  0
  130.0271  132.6026  156.2652 H   0  0  0  0  0  0  0  0  0  0  0  0
  131.8833  133.0396  157.7525 H   0  0  0  0  0  0  0  0  0  0  0  0
  132.7512  133.0048  160.0551 H   0  0  0  0  0  0  0  0  0  0  0  0
  131.3179  132.2491  161.9053 H   0  0  0  0  0  0  0  0  0  0  0  0
  129.0079  131.5240  161.4639 H   0  0  0  0  0  0  0  0  0  0  0  0
  127.6560  130.7093  158.5095 H   0  0  0  0  0  0  0  0  0  0  0  0
  125.4919  130.3949  159.7456 H   0  0  0  0  0  0  0  0  0  0  0  0
  123.6074  131.5708  160.8015 H   0  0  0  0  0  0  0  0  0  0  0  0
  123.7962  133.9604  161.3540 H   0  0  0  0  0  0  0  0  0  0  0  0
  125.1592  135.9553  161.3372 H   0  0  0  0  0  0  0  0  0  0  0  0
  127.4515  136.7205  162.6803 H   0  0  0  0  0  0  0  0  0  0  0  0
  129.5277  137.9401  162.1724 H   0  0  0  0  0  0  0  0  0  0  0  0
  129.8029  140.8589  159.5917 H   0  0  0  0  0  0  0  0  0  0  0  0
  130.0907  142.6726  161.2321 H   0  0  0  0  0  0  0  0  0  0  0  0
  131.3291  142.2593  163.3198 H   0  0  0  0  0  0  0  0  0  0  0  0
  132.2732  140.0303  163.7706 H   0  0  0  0  0  0  0  0  0  0  0  0
  131.9781  138.2143  162.1341 H   0  0  0  0  0  0  0  0  0  0  0  0
  129.0600  137.0324  158.0310 H   0  0  0  0  0  0  0  0  0  0  0  0
  126.9823  135.8104  158.5275 H   0  0  0  0  0  0  0  0  0  0  0  0
  127.7726  134.0124  159.7814 H   0  0  0  0  0  0  0  0  0  0  0  0
  1  2  1  0
  1 34  1  0
  1 35  1  0
  2  7  2  0
  2  3  1  0
  3  4  2  0
  3 36  1  0
  4  5  1  0
  4 37  1  0
  5  6  2  0
  5 38  1  0
  6  7  1  0
  6 39  1  0
  7  8  1  0
  8  9  1  0
  8 40  1  0
  9 33  1  0
  9 10  2  0
 10 11  1  0
 10 41  1  0
 11 12  2  0
 11 42  1  0
 12 13  1  0
 12 43  1  0
 13 14  1  0
 13 33  2  0
 14 15  1  0
 14 44  1  0
 15 32  1  0
 15 16  2  0
 16 17  1  0
 16 45  1  0
 17 18  2  0
 17 46  1  0
 18 19  1  0
 18 31  1  0
 19 20  1  6
 19 21  1  0
 19 25  1  0
 21 22  1  0
 21 23  1  0
 21 24  1  0
 25 30  1  0
 25 26  2  0
 26 27  1  0
 26 47  1  0
 27 28  2  0
 27 48  1  0
 28 29  1  0
 28 49  1  0
 29 30  2  0
 29 50  1  0
 30 51  1  0
 31 32  2  0
 31 52  1  0
 32 53  1  0
 33 54  1  0
M  CHG  1  21   1
M  END
>  <DOCK_score>  (1) 
-50.038162

>  <SMILES>  (1) 
Nc1ccccc1Nc1cccc(Nc2ccc([C@H]([NH3+])c3ccccc3)cc2)c1

$$$$
