Brc1ccc([C@H](c2ccccc2)[NH+]2CCN(c3cccc4cc[nH]c34)CC2)cc1
     RDKit          3D

 54 58  0  0  1  0  0  0  0  0999 V2000
  131.6406  129.7081  154.3642 Br  0  0  0  0  0  0  0  0  0  0  0  0
  131.0714  130.8629  155.7492 C   0  0  0  0  0  0  0  0  0  0  0  0
  130.4317  132.0500  155.4410 C   0  0  0  0  0  0  0  0  0  0  0  0
  130.0161  132.8940  156.4536 C   0  0  0  0  0  0  0  0  0  0  0  0
  130.2398  132.5519  157.7742 C   0  0  0  0  0  0  0  0  0  0  0  0
  129.7866  133.4724  158.8780 C   0  0  2  0  0  0  0  0  0  0  0  0
  129.5488  132.8859  159.7655 H   0  0  0  0  0  0  0  0  0  0  0  0
  128.5609  134.2270  158.4313 C   0  0  0  0  0  0  0  0  0  0  0  0
  127.3035  133.7006  158.6609 C   0  0  0  0  0  0  0  0  0  0  0  0
  126.1789  134.3948  158.2551 C   0  0  0  0  0  0  0  0  0  0  0  0
  126.3123  135.6108  157.6115 C   0  0  0  0  0  0  0  0  0  0  0  0
  127.5699  136.1346  157.3772 C   0  0  0  0  0  0  0  0  0  0  0  0
  128.6943  135.4425  157.7869 C   0  0  0  0  0  0  0  0  0  0  0  0
  130.8598  134.4246  159.1933 N   0  0  0  0  0  0  0  0  0  0  0  0
  131.0797  134.9674  158.3717 H   0  0  0  0  0  0  0  0  0  0  0  0
  130.4174  135.3220  160.2687 C   0  0  0  0  0  0  0  0  0  0  0  0
  131.5281  136.3262  160.5846 C   0  0  0  0  0  0  0  0  0  0  0  0
  132.7383  135.6005  160.9955 N   0  0  0  0  0  0  0  0  0  0  0  0
  133.7607  136.4883  161.3447 C   0  0  0  0  0  0  0  0  0  0  0  0
  134.2952  136.4664  162.6213 C   0  0  0  0  0  0  0  0  0  0  0  0
  135.3062  137.3469  162.9783 C   0  0  0  0  0  0  0  0  0  0  0  0
  135.7997  138.2431  162.0726 C   0  0  0  0  0  0  0  0  0  0  0  0
  135.2805  138.2804  160.7753 C   0  0  0  0  0  0  0  0  0  0  0  0
  135.5669  139.0887  159.5879 C   0  0  0  0  0  0  0  0  0  0  0  0
  134.7387  138.6695  158.6178 C   0  0  0  0  0  0  0  0  0  0  0  0
  133.9457  137.6591  159.0870 N   0  0  0  0  0  0  0  0  0  0  0  0
  133.2681  137.1963  158.5699 H   0  0  0  0  0  0  0  0  0  0  0  0
  134.2527  137.3971  160.4051 C   0  0  0  0  0  0  0  0  0  0  0  0
  133.1790  134.6795  159.9382 C   0  0  0  0  0  0  0  0  0  0  0  0
  132.0546  133.6889  159.6275 C   0  0  0  0  0  0  0  0  0  0  0  0
  130.8841  131.3683  158.0826 C   0  0  0  0  0  0  0  0  0  0  0  0
  131.2951  130.5210  157.0706 C   0  0  0  0  0  0  0  0  0  0  0  0
  130.2572  132.3175  154.4093 H   0  0  0  0  0  0  0  0  0  0  0  0
  129.5164  133.8206  156.2131 H   0  0  0  0  0  0  0  0  0  0  0  0
  127.1994  132.7488  159.1604 H   0  0  0  0  0  0  0  0  0  0  0  0
  125.1964  133.9857  158.4384 H   0  0  0  0  0  0  0  0  0  0  0  0
  125.4338  136.1519  157.2920 H   0  0  0  0  0  0  0  0  0  0  0  0
  127.6740  137.0847  156.8745 H   0  0  0  0  0  0  0  0  0  0  0  0
  129.6767  135.8518  157.6039 H   0  0  0  0  0  0  0  0  0  0  0  0
  130.1921  134.7370  161.1604 H   0  0  0  0  0  0  0  0  0  0  0  0
  129.5232  135.8576  159.9501 H   0  0  0  0  0  0  0  0  0  0  0  0
  131.2057  136.9827  161.3928 H   0  0  0  0  0  0  0  0  0  0  0  0
  131.7442  136.9206  159.6969 H   0  0  0  0  0  0  0  0  0  0  0  0
  133.9188  135.7609  163.3473 H   0  0  0  0  0  0  0  0  0  0  0  0
  135.7097  137.3209  163.9798 H   0  0  0  0  0  0  0  0  0  0  0  0
  136.5895  138.9219  162.3587 H   0  0  0  0  0  0  0  0  0  0  0  0
  136.3049  139.8732  159.5078 H   0  0  0  0  0  0  0  0  0  0  0  0
  134.7043  139.0705  157.6156 H   0  0  0  0  0  0  0  0  0  0  0  0
  133.4222  135.2469  159.0398 H   0  0  0  0  0  0  0  0  0  0  0  0
  134.0610  134.1347  160.2748 H   0  0  0  0  0  0  0  0  0  0  0  0
  131.8210  133.1123  160.5226 H   0  0  0  0  0  0  0  0  0  0  0  0
  132.3743  133.0139  158.8337 H   0  0  0  0  0  0  0  0  0  0  0  0
  131.0629  131.1037  159.1143 H   0  0  0  0  0  0  0  0  0  0  0  0
  131.7947  129.5944  157.3117 H   0  0  0  0  0  0  0  0  0  0  0  0
  1  2  1  0
  2 32  2  0
  2  3  1  0
  3  4  2  0
  3 33  1  0
  4  5  1  0
  4 34  1  0
  5  6  1  0
  5 31  2  0
  6  7  1  1
  6  8  1  0
  6 14  1  0
  8 13  1  0
  8  9  2  0
  9 10  1  0
  9 35  1  0
 10 11  2  0
 10 36  1  0
 11 12  1  0
 11 37  1  0
 12 13  2  0
 12 38  1  0
 13 39  1  0
 14 15  1  0
 14 30  1  0
 14 16  1  0
 16 17  1  0
 16 40  1  0
 16 41  1  0
 17 18  1  0
 17 42  1  0
 17 43  1  0
 18 19  1  0
 18 29  1  0
 19 28  1  0
 19 20  2  0
 20 21  1  0
 20 44  1  0
 21 22  2  0
 21 45  1  0
 22 23  1  0
 22 46  1  0
 23 28  2  0
 23 24  1  0
 24 25  2  0
 24 47  1  0
 25 26  1  0
 25 48  1  0
 26 27  1  0
 26 28  1  0
 29 30  1  0
 29 49  1  0
 29 50  1  0
 30 51  1  0
 30 52  1  0
 31 32  1  0
 31 53  1  0
 32 54  1  0
M  CHG  1  14   1
M  END
>  <DOCK_score>  (1) 
-62.541843

>  <SMILES>  (1) 
Brc1ccc([C@H](c2ccccc2)[NH+]2CCN(c3cccc4cc[nH]c34)CC2)cc1

$$$$
