CCc1ccc(-c2c[nH]c(Nc3ccc(N)cc3Sc3nc(-c4ccccc4)c[nH]3)[nH+]2)cc1
     RDKit          3D

 58 62  0  0  1  0  0  0  0  0999 V2000
  130.0848  129.2605  151.8799 C   0  0  0  0  0  0  0  0  0  0  0  0
  131.2625  130.1306  152.3237 C   0  0  0  0  0  0  0  0  0  0  0  0
  130.9172  130.8211  153.6180 C   0  0  0  0  0  0  0  0  0  0  0  0
  131.2116  130.2112  154.8242 C   0  0  0  0  0  0  0  0  0  0  0  0
  130.9022  130.8409  156.0125 C   0  0  0  0  0  0  0  0  0  0  0  0
  130.2822  132.0891  155.9957 C   0  0  0  0  0  0  0  0  0  0  0  0
  129.9424  132.7688  157.2697 C   0  0  0  0  0  0  0  0  0  0  0  0
  129.8827  134.1091  157.4679 C   0  0  0  0  0  0  0  0  0  0  0  0
  129.5341  134.3027  158.7822 N   0  0  0  0  0  0  0  0  0  0  0  0
  129.4124  135.1574  159.2245 H   0  0  0  0  0  0  0  0  0  0  0  0
  129.3907  133.0735  159.3496 C   0  0  0  0  0  0  0  0  0  0  0  0
  129.0436  132.8289  160.6674 N   0  0  0  0  0  0  0  0  0  0  0  0
  128.2277  133.7374  161.3580 C   0  0  0  0  0  0  0  0  0  0  0  0
  127.2846  134.4851  160.6696 C   0  0  0  0  0  0  0  0  0  0  0  0
  126.4799  135.3803  161.3490 C   0  0  0  0  0  0  0  0  0  0  0  0
  126.6132  135.5337  162.7231 C   0  0  0  0  0  0  0  0  0  0  0  0
  125.7963  136.4406  163.4078 N   0  0  0  0  0  0  0  0  0  0  0  0
  127.5561  134.7885  163.4175 C   0  0  0  0  0  0  0  0  0  0  0  0
  128.3605  133.8851  162.7387 C   0  0  0  0  0  0  0  0  0  0  0  0
  129.5526  132.9308  163.6179 S   0  0  0  0  0  0  0  0  0  0  0  0
  130.9403  134.0124  163.5236 C   0  0  0  0  0  0  0  0  0  0  0  0
  131.1863  134.8568  162.5509 N   0  0  0  0  0  0  0  0  0  0  0  0
  132.3390  135.5190  162.8184 C   0  0  0  0  0  0  0  0  0  0  0  0
  132.9659  136.5591  161.9664 C   0  0  0  0  0  0  0  0  0  0  0  0
  134.1551  137.1667  162.3652 C   0  0  0  0  0  0  0  0  0  0  0  0
  134.7366  138.1299  161.5662 C   0  0  0  0  0  0  0  0  0  0  0  0
  134.1358  138.5004  160.3768 C   0  0  0  0  0  0  0  0  0  0  0  0
  132.9524  137.9047  159.9784 C   0  0  0  0  0  0  0  0  0  0  0  0
  132.3649  136.9363  160.7669 C   0  0  0  0  0  0  0  0  0  0  0  0
  132.8181  135.0619  164.0022 C   0  0  0  0  0  0  0  0  0  0  0  0
  131.9319  134.1139  164.4517 N   0  0  0  0  0  0  0  0  0  0  0  0
  132.0008  133.6082  165.2766 H   0  0  0  0  0  0  0  0  0  0  0  0
  129.6307  132.1596  158.4408 N   0  0  0  0  0  0  0  0  0  0  0  0
  129.5937  131.2008  158.5838 H   0  0  0  0  0  0  0  0  0  0  0  0
  129.9832  132.6966  154.7775 C   0  0  0  0  0  0  0  0  0  0  0  0
  130.3019  132.0598  153.5953 C   0  0  0  0  0  0  0  0  0  0  0  0
  129.8759  128.5136  152.6458 H   0  0  0  0  0  0  0  0  0  0  0  0
  129.2050  129.8872  151.7340 H   0  0  0  0  0  0  0  0  0  0  0  0
  130.3345  128.7611  150.9438 H   0  0  0  0  0  0  0  0  0  0  0  0
  132.1424  129.5039  152.4697 H   0  0  0  0  0  0  0  0  0  0  0  0
  131.4714  130.8775  151.5579 H   0  0  0  0  0  0  0  0  0  0  0  0
  131.6880  129.2420  154.8359 H   0  0  0  0  0  0  0  0  0  0  0  0
  131.1363  130.3657  156.9536 H   0  0  0  0  0  0  0  0  0  0  0  0
  130.0732  134.8772  156.7330 H   0  0  0  0  0  0  0  0  0  0  0  0
  129.3646  132.0294  161.1132 H   0  0  0  0  0  0  0  0  0  0  0  0
  127.1784  134.3679  159.6012 H   0  0  0  0  0  0  0  0  0  0  0  0
  125.7459  135.9613  160.8106 H   0  0  0  0  0  0  0  0  0  0  0  0
  125.1376  136.9617  162.9229 H   0  0  0  0  0  0  0  0  0  0  0  0
  125.8891  136.5479  164.3674 H   0  0  0  0  0  0  0  0  0  0  0  0
  127.6596  134.9083  164.4858 H   0  0  0  0  0  0  0  0  0  0  0  0
  134.6229  136.8811  163.2959 H   0  0  0  0  0  0  0  0  0  0  0  0
  135.6604  138.5984  161.8721 H   0  0  0  0  0  0  0  0  0  0  0  0
  134.5923  139.2580  159.7568 H   0  0  0  0  0  0  0  0  0  0  0  0
  132.4876  138.1979  159.0486 H   0  0  0  0  0  0  0  0  0  0  0  0
  131.4415  136.4713  160.4547 H   0  0  0  0  0  0  0  0  0  0  0  0
  133.7212  135.3850  164.4985 H   0  0  0  0  0  0  0  0  0  0  0  0
  129.5024  133.6635  154.7586 H   0  0  0  0  0  0  0  0  0  0  0  0
  130.0703  132.5294  152.6506 H   0  0  0  0  0  0  0  0  0  0  0  0
  1  2  1  0
  1 37  1  0
  1 38  1  0
  1 39  1  0
  2  3  1  0
  2 40  1  0
  2 41  1  0
  3 36  2  0
  3  4  1  0
  4  5  2  0
  4 42  1  0
  5  6  1  0
  5 43  1  0
  6  7  1  0
  6 35  2  0
  7 33  1  0
  7  8  2  0
  8  9  1  0
  8 44  1  0
  9 10  1  0
  9 11  1  0
 11 12  1  0
 11 33  2  0
 12 13  1  0
 12 45  1  0
 13 19  1  0
 13 14  2  0
 14 15  1  0
 14 46  1  0
 15 16  2  0
 15 47  1  0
 16 17  1  0
 16 18  1  0
 17 48  1  0
 17 49  1  0
 18 19  2  0
 18 50  1  0
 19 20  1  0
 20 21  1  0
 21 31  1  0
 21 22  2  0
 22 23  1  0
 23 24  1  0
 23 30  2  0
 24 29  1  0
 24 25  2  0
 25 26  1  0
 25 51  1  0
 26 27  2  0
 26 52  1  0
 27 28  1  0
 27 53  1  0
 28 29  2  0
 28 54  1  0
 29 55  1  0
 30 31  1  0
 30 56  1  0
 31 32  1  0
 33 34  1  0
 35 36  1  0
 35 57  1  0
 36 58  1  0
M  CHG  1  33   1
M  END
>  <DOCK_score>  (1) 
-49.629112

>  <SMILES>  (1) 
CCc1ccc(-c2c[nH]c(Nc3ccc(N)cc3Sc3nc(-c4ccccc4)c[nH]3)[nH+]2)cc1

$$$$
