C=C/C=C/C=CC[C@H](Nc1[nH]cc(-c2ccc(CC)cc2)[nH+]1)c1ccccc1
     RDKit          3D

 56 58  0  0  1  0  0  0  0  0999 V2000
  136.0883  139.0709  161.0377 C   0  0  0  0  0  0  0  0  0  0  0  0
  135.0345  138.3503  161.4211 C   0  0  0  0  0  0  0  0  0  0  0  0
  133.7908  138.4038  160.6494 C   0  0  0  0  0  0  0  0  0  0  0  0
  132.7243  137.6745  161.0374 C   0  0  0  0  0  0  0  0  0  0  0  0
  131.4806  137.7280  160.2656 C   0  0  0  0  0  0  0  0  0  0  0  0
  130.4268  137.0074  160.6489 C   0  0  0  0  0  0  0  0  0  0  0  0
  129.1472  137.0625  159.8549 C   0  0  0  0  0  0  0  0  0  0  0  0
  128.8051  135.6625  159.3413 C   0  0  2  0  0  0  0  0  0  0  0  0
  128.6793  134.9859  160.1866 H   0  0  0  0  0  0  0  0  0  0  0  0
  129.8904  135.1777  158.4851 N   0  0  0  0  0  0  0  0  0  0  0  0
  129.8049  133.9254  157.9014 C   0  0  0  0  0  0  0  0  0  0  0  0
  129.1548  132.8499  158.4239 N   0  0  0  0  0  0  0  0  0  0  0  0
  128.6724  132.8232  159.2650 H   0  0  0  0  0  0  0  0  0  0  0  0
  129.3075  131.8095  157.5400 C   0  0  0  0  0  0  0  0  0  0  0  0
  130.0459  132.2785  156.5038 C   0  0  0  0  0  0  0  0  0  0  0  0
  130.4628  131.5053  155.3086 C   0  0  0  0  0  0  0  0  0  0  0  0
  130.0682  131.9169  154.0367 C   0  0  0  0  0  0  0  0  0  0  0  0
  130.4594  131.1939  152.9281 C   0  0  0  0  0  0  0  0  0  0  0  0
  131.2414  130.0621  153.0779 C   0  0  0  0  0  0  0  0  0  0  0  0
  131.6650  129.2766  151.8635 C   0  0  0  0  0  0  0  0  0  0  0  0
  130.6149  128.2075  151.5559 C   0  0  0  0  0  0  0  0  0  0  0  0
  131.6311  129.6463  154.3378 C   0  0  0  0  0  0  0  0  0  0  0  0
  131.2510  130.3650  155.4530 C   0  0  0  0  0  0  0  0  0  0  0  0
  130.3406  133.5784  156.7565 N   0  0  0  0  0  0  0  0  0  0  0  0
  130.8624  134.1591  156.1807 H   0  0  0  0  0  0  0  0  0  0  0  0
  127.5254  135.7176  158.5474 C   0  0  0  0  0  0  0  0  0  0  0  0
  126.3111  135.5247  159.1793 C   0  0  0  0  0  0  0  0  0  0  0  0
  125.1368  135.5795  158.4518 C   0  0  0  0  0  0  0  0  0  0  0  0
  125.1776  135.8181  157.0907 C   0  0  0  0  0  0  0  0  0  0  0  0
  126.3922  136.0057  156.4578 C   0  0  0  0  0  0  0  0  0  0  0  0
  127.5660  135.9552  157.1862 C   0  0  0  0  0  0  0  0  0  0  0  0
  137.0054  139.0315  161.6068 H   0  0  0  0  0  0  0  0  0  0  0  0
  136.0250  139.6944  160.1582 H   0  0  0  0  0  0  0  0  0  0  0  0
  135.0978  137.7270  162.3007 H   0  0  0  0  0  0  0  0  0  0  0  0
  133.7275  139.0271  159.7696 H   0  0  0  0  0  0  0  0  0  0  0  0
  132.7875  137.0512  161.9171 H   0  0  0  0  0  0  0  0  0  0  0  0
  131.4174  138.3514  159.3860 H   0  0  0  0  0  0  0  0  0  0  0  0
  130.4900  136.3841  161.5288 H   0  0  0  0  0  0  0  0  0  0  0  0
  129.2729  137.7389  159.0096 H   0  0  0  0  0  0  0  0  0  0  0  0
  128.3395  137.4232  160.4920 H   0  0  0  0  0  0  0  0  0  0  0  0
  130.6691  135.7342  158.3272 H   0  0  0  0  0  0  0  0  0  0  0  0
  128.9147  130.8094  157.6495 H   0  0  0  0  0  0  0  0  0  0  0  0
  129.4572  132.7996  153.9189 H   0  0  0  0  0  0  0  0  0  0  0  0
  130.1542  131.5118  151.9422 H   0  0  0  0  0  0  0  0  0  0  0  0
  132.6250  128.7988  152.0566 H   0  0  0  0  0  0  0  0  0  0  0  0
  131.7590  129.9493  151.0103 H   0  0  0  0  0  0  0  0  0  0  0  0
  130.9213  127.6393  150.6776 H   0  0  0  0  0  0  0  0  0  0  0  0
  130.5206  127.5353  152.4088 H   0  0  0  0  0  0  0  0  0  0  0  0
  129.6548  128.6858  151.3626 H   0  0  0  0  0  0  0  0  0  0  0  0
  132.2377  128.7597  154.4489 H   0  0  0  0  0  0  0  0  0  0  0  0
  131.5599  130.0418  156.4362 H   0  0  0  0  0  0  0  0  0  0  0  0
  126.2795  135.3346  160.2419 H   0  0  0  0  0  0  0  0  0  0  0  0
  124.1880  135.4333  158.9461 H   0  0  0  0  0  0  0  0  0  0  0  0
  124.2604  135.8583  156.5220 H   0  0  0  0  0  0  0  0  0  0  0  0
  126.4240  136.1921  155.3946 H   0  0  0  0  0  0  0  0  0  0  0  0
  128.5150  136.1019  156.6918 H   0  0  0  0  0  0  0  0  0  0  0  0
  1  2  2  0
  1 32  1  0
  1 33  1  0
  2  3  1  0
  2 34  1  0
  3  4  2  0
  3 35  1  0
  4  5  1  0
  4 36  1  0
  5  6  2  0
  5 37  1  0
  6  7  1  0
  6 38  1  0
  7  8  1  0
  7 39  1  0
  7 40  1  0
  8  9  1  1
  8 10  1  0
  8 26  1  0
 10 41  1  0
 11 10  1  0
 11 24  2  0
 11 12  1  0
 12 13  1  0
 12 14  1  0
 14 15  2  0
 14 42  1  0
 15 16  1  0
 15 24  1  0
 16 23  1  0
 16 17  2  0
 17 18  1  0
 17 43  1  0
 18 19  2  0
 18 44  1  0
 19 20  1  0
 19 22  1  0
 20 21  1  0
 20 45  1  0
 20 46  1  0
 21 47  1  0
 21 48  1  0
 21 49  1  0
 22 23  2  0
 22 50  1  0
 23 51  1  0
 24 25  1  0
 26 31  1  0
 26 27  2  0
 27 28  1  0
 27 52  1  0
 28 29  2  0
 28 53  1  0
 29 30  1  0
 29 54  1  0
 30 31  2  0
 30 55  1  0
 31 56  1  0
M  CHG  1  24   1
M  END
>  <DOCK_score>  (1) 
-64.094635

>  <SMILES>  (1) 
C=C/C=C/C=CC[C@H](Nc1[nH]cc(-c2ccc(CC)cc2)[nH+]1)c1ccccc1

$$$$
