CCc1ccc(-c2c[nH]c(N[C@H](CSc3ccccc3)c3nc(-c4ccccc4)no3)[nH+]2)cc1
     RDKit          3D

 60 64  0  0  1  0  0  0  0  0999 V2000
  135.1456  141.1981  161.8981 C   0  0  0  0  0  0  0  0  0  0  0  0
  133.7554  140.8306  162.4205 C   0  0  0  0  0  0  0  0  0  0  0  0
  133.4054  139.4333  161.9772 C   0  0  0  0  0  0  0  0  0  0  0  0
  133.7381  138.3536  162.7755 C   0  0  0  0  0  0  0  0  0  0  0  0
  133.4151  137.0724  162.3772 C   0  0  0  0  0  0  0  0  0  0  0  0
  132.7627  136.8665  161.1629 C   0  0  0  0  0  0  0  0  0  0  0  0
  132.4177  135.4913  160.7269 C   0  0  0  0  0  0  0  0  0  0  0  0
  132.1277  134.4454  161.5399 C   0  0  0  0  0  0  0  0  0  0  0  0
  131.8690  133.3686  160.7272 N   0  0  0  0  0  0  0  0  0  0  0  0
  131.6310  132.4740  161.0172 H   0  0  0  0  0  0  0  0  0  0  0  0
  132.0085  133.7882  159.4401 C   0  0  0  0  0  0  0  0  0  0  0  0
  131.8331  133.0042  158.3129 N   0  0  0  0  0  0  0  0  0  0  0  0
  131.4651  131.5930  158.4521 C   0  0  2  0  0  0  0  0  0  0  0  0
  132.2360  131.0708  159.0188 H   0  0  0  0  0  0  0  0  0  0  0  0
  131.3353  130.9606  157.0648 C   0  0  0  0  0  0  0  0  0  0  0  0
  130.5298  132.1328  155.9391 S   0  0  0  0  0  0  0  0  0  0  0  0
  130.4687  131.2440  154.4187 C   0  0  0  0  0  0  0  0  0  0  0  0
  129.9010  131.8282  153.2927 C   0  0  0  0  0  0  0  0  0  0  0  0
  129.8595  131.1305  152.1019 C   0  0  0  0  0  0  0  0  0  0  0  0
  130.3728  129.8482  152.0313 C   0  0  0  0  0  0  0  0  0  0  0  0
  130.9338  129.2618  153.1512 C   0  0  0  0  0  0  0  0  0  0  0  0
  130.9833  129.9551  154.3443 C   0  0  0  0  0  0  0  0  0  0  0  0
  130.1488  131.4864  159.1779 C   0  0  0  0  0  0  0  0  0  0  0  0
  129.4246  132.4814  159.6258 N   0  0  0  0  0  0  0  0  0  0  0  0
  128.3397  131.9124  160.1982 C   0  0  0  0  0  0  0  0  0  0  0  0
  127.2131  132.6239  160.8519 C   0  0  0  0  0  0  0  0  0  0  0  0
  126.1529  131.9027  161.3971 C   0  0  0  0  0  0  0  0  0  0  0  0
  125.1105  132.5692  162.0088 C   0  0  0  0  0  0  0  0  0  0  0  0
  125.1114  133.9510  162.0707 C   0  0  0  0  0  0  0  0  0  0  0  0
  126.1586  134.6721  161.5261 C   0  0  0  0  0  0  0  0  0  0  0  0
  127.2090  134.0156  160.9175 C   0  0  0  0  0  0  0  0  0  0  0  0
  128.4719  130.6175  160.0730 N   0  0  0  0  0  0  0  0  0  0  0  0
  129.5037  130.3582  159.4906 O   0  0  0  0  0  0  0  0  0  0  0  0
  132.3308  135.0587  159.4439 N   0  0  0  0  0  0  0  0  0  0  0  0
  132.4849  135.6023  158.6554 H   0  0  0  0  0  0  0  0  0  0  0  0
  132.4349  137.9577  160.3602 C   0  0  0  0  0  0  0  0  0  0  0  0
  132.7579  139.2350  160.7711 C   0  0  0  0  0  0  0  0  0  0  0  0
  135.8798  140.4966  162.2943 H   0  0  0  0  0  0  0  0  0  0  0  0
  135.1489  141.1509  160.8092 H   0  0  0  0  0  0  0  0  0  0  0  0
  135.3987  142.2087  162.2189 H   0  0  0  0  0  0  0  0  0  0  0  0
  133.7521  140.8778  163.5095 H   0  0  0  0  0  0  0  0  0  0  0  0
  133.0212  141.5320  162.0242 H   0  0  0  0  0  0  0  0  0  0  0  0
  134.2479  138.5140  163.7140 H   0  0  0  0  0  0  0  0  0  0  0  0
  133.6711  136.2304  163.0033 H   0  0  0  0  0  0  0  0  0  0  0  0
  132.1049  134.4568  162.6196 H   0  0  0  0  0  0  0  0  0  0  0  0
  131.9538  133.3893  157.4307 H   0  0  0  0  0  0  0  0  0  0  0  0
  132.3263  130.7135  156.6841 H   0  0  0  0  0  0  0  0  0  0  0  0
  130.7360  130.0528  157.1341 H   0  0  0  0  0  0  0  0  0  0  0  0
  129.4962  132.8279  153.3481 H   0  0  0  0  0  0  0  0  0  0  0  0
  129.4217  131.5852  151.2254 H   0  0  0  0  0  0  0  0  0  0  0  0
  130.3352  129.3035  151.0996 H   0  0  0  0  0  0  0  0  0  0  0  0
  131.3334  128.2601  153.0925 H   0  0  0  0  0  0  0  0  0  0  0  0
  131.4209  129.4963  155.2185 H   0  0  0  0  0  0  0  0  0  0  0  0
  126.1490  130.8240  161.3450 H   0  0  0  0  0  0  0  0  0  0  0  0
  124.2906  132.0110  162.4360 H   0  0  0  0  0  0  0  0  0  0  0  0
  124.2915  134.4688  162.5464 H   0  0  0  0  0  0  0  0  0  0  0  0
  126.1544  135.7509  161.5775 H   0  0  0  0  0  0  0  0  0  0  0  0
  128.0265  134.5796  160.4932 H   0  0  0  0  0  0  0  0  0  0  0  0
  131.9296  137.8040  159.4180 H   0  0  0  0  0  0  0  0  0  0  0  0
  132.5047  140.0812  160.1497 H   0  0  0  0  0  0  0  0  0  0  0  0
  1  2  1  0
  1 38  1  0
  1 39  1  0
  1 40  1  0
  2  3  1  0
  2 41  1  0
  2 42  1  0
  3 37  2  0
  3  4  1  0
  4  5  2  0
  4 43  1  0
  5  6  1  0
  5 44  1  0
  6  7  1  0
  6 36  2  0
  7 34  1  0
  7  8  2  0
  8  9  1  0
  8 45  1  0
  9 10  1  0
  9 11  1  0
 11 12  1  0
 11 34  2  0
 12 13  1  0
 12 46  1  0
 13 14  1  1
 13 15  1  0
 13 23  1  0
 15 16  1  0
 15 47  1  0
 15 48  1  0
 16 17  1  0
 17 22  1  0
 17 18  2  0
 18 19  1  0
 18 49  1  0
 19 20  2  0
 19 50  1  0
 20 21  1  0
 20 51  1  0
 21 22  2  0
 21 52  1  0
 22 53  1  0
 23 33  1  0
 23 24  2  0
 24 25  1  0
 25 26  1  0
 25 32  2  0
 26 31  1  0
 26 27  2  0
 27 28  1  0
 27 54  1  0
 28 29  2  0
 28 55  1  0
 29 30  1  0
 29 56  1  0
 30 31  2  0
 30 57  1  0
 31 58  1  0
 32 33  1  0
 34 35  1  0
 36 37  1  0
 36 59  1  0
 37 60  1  0
M  CHG  1  34   1
M  END
>  <DOCK_score>  (1) 
-57.685879

>  <SMILES>  (1) 
CCc1ccc(-c2c[nH]c(N[C@H](CSc3ccccc3)c3nc(-c4ccccc4)no3)[nH+]2)cc1

$$$$
