Cn1nccc1Nc1cncc(-c2ccc(Nc3ccc(NC4=[NH+]CCN4)cc3)cc2)n1
     RDKit          3D

 56 60  0  0  0  0  0  0  0  0999 V2000
  131.5918  143.5292  169.3785 C   0  0  0  0  0  0  0  0  0  0  0  0
  131.5588  142.5725  168.2695 N   0  0  0  0  0  0  0  0  0  0  0  0
  132.0892  142.7749  166.9890 N   0  0  0  0  0  0  0  0  0  0  0  0
  131.8634  141.7029  166.2738 C   0  0  0  0  0  0  0  0  0  0  0  0
  131.1869  140.7748  167.0698 C   0  0  0  0  0  0  0  0  0  0  0  0
  131.0114  141.3300  168.3008 C   0  0  0  0  0  0  0  0  0  0  0  0
  130.3806  140.7347  169.3908 N   0  0  0  0  0  0  0  0  0  0  0  0
  129.3634  139.8088  169.1851 C   0  0  0  0  0  0  0  0  0  0  0  0
  128.7322  139.2127  170.2752 C   0  0  0  0  0  0  0  0  0  0  0  0
  127.7668  138.3332  170.0823 N   0  0  0  0  0  0  0  0  0  0  0  0
  127.3943  138.0140  168.8559 C   0  0  0  0  0  0  0  0  0  0  0  0
  128.0199  138.6055  167.7602 C   0  0  0  0  0  0  0  0  0  0  0  0
  127.6020  138.2478  166.3838 C   0  0  0  0  0  0  0  0  0  0  0  0
  127.1066  139.2303  165.5269 C   0  0  0  0  0  0  0  0  0  0  0  0
  126.7243  138.8967  164.2457 C   0  0  0  0  0  0  0  0  0  0  0  0
  126.8207  137.5792  163.8109 C   0  0  0  0  0  0  0  0  0  0  0  0
  126.4274  137.2427  162.5157 N   0  0  0  0  0  0  0  0  0  0  0  0
  127.3512  136.6804  161.6277 C   0  0  0  0  0  0  0  0  0  0  0  0
  126.9215  135.7983  160.6445 C   0  0  0  0  0  0  0  0  0  0  0  0
  127.8326  135.2476  159.7656 C   0  0  0  0  0  0  0  0  0  0  0  0
  129.1798  135.5669  159.8711 C   0  0  0  0  0  0  0  0  0  0  0  0
  130.1052  135.0038  158.9818 N   0  0  0  0  0  0  0  0  0  0  0  0
  129.8772  133.7618  158.4519 C   0  0  0  0  0  0  0  0  0  0  0  0
  129.2052  132.8219  159.0968 N   0  0  0  0  0  0  0  0  0  0  0  0
  128.8184  132.9149  159.9815 H   0  0  0  0  0  0  0  0  0  0  0  0
  129.1344  131.6148  158.2587 C   0  0  0  0  0  0  0  0  0  0  0  0
  129.9067  132.0161  156.9856 C   0  0  0  0  0  0  0  0  0  0  0  0
  130.3160  133.4032  157.2563 N   0  0  0  0  0  0  0  0  0  0  0  0
  129.6102  136.4447  160.8572 C   0  0  0  0  0  0  0  0  0  0  0  0
  128.6989  136.9999  161.7330 C   0  0  0  0  0  0  0  0  0  0  0  0
  127.3093  136.5967  164.6656 C   0  0  0  0  0  0  0  0  0  0  0  0
  127.6985  136.9271  165.9456 C   0  0  0  0  0  0  0  0  0  0  0  0
  128.9938  139.4923  167.9519 N   0  0  0  0  0  0  0  0  0  0  0  0
  132.4998  143.3779  169.9620 H   0  0  0  0  0  0  0  0  0  0  0  0
  131.5793  144.5448  168.9827 H   0  0  0  0  0  0  0  0  0  0  0  0
  130.7207  143.3769  170.0158 H   0  0  0  0  0  0  0  0  0  0  0  0
  132.1506  141.5598  165.2425 H   0  0  0  0  0  0  0  0  0  0  0  0
  130.8611  139.7918  166.7631 H   0  0  0  0  0  0  0  0  0  0  0  0
  130.6506  140.9660  170.2932 H   0  0  0  0  0  0  0  0  0  0  0  0
  129.0334  139.4706  171.2798 H   0  0  0  0  0  0  0  0  0  0  0  0
  126.6043  137.2938  168.7022 H   0  0  0  0  0  0  0  0  0  0  0  0
  127.0270  140.2527  165.8657 H   0  0  0  0  0  0  0  0  0  0  0  0
  126.3450  139.6582  163.5803 H   0  0  0  0  0  0  0  0  0  0  0  0
  125.5134  137.3984  162.2306 H   0  0  0  0  0  0  0  0  0  0  0  0
  125.8744  135.5465  160.5653 H   0  0  0  0  0  0  0  0  0  0  0  0
  127.4980  134.5648  158.9985 H   0  0  0  0  0  0  0  0  0  0  0  0
  130.9071  135.4939  158.7416 H   0  0  0  0  0  0  0  0  0  0  0  0
  128.0997  131.3701  158.0188 H   0  0  0  0  0  0  0  0  0  0  0  0
  129.6230  130.7769  158.7559 H   0  0  0  0  0  0  0  0  0  0  0  0
  129.2565  131.9713  156.1119 H   0  0  0  0  0  0  0  0  0  0  0  0
  130.7796  131.3785  156.8461 H   0  0  0  0  0  0  0  0  0  0  0  0
  130.8270  133.9657  156.6535 H   0  0  0  0  0  0  0  0  0  0  0  0
  130.6581  136.6932  160.9389 H   0  0  0  0  0  0  0  0  0  0  0  0
  129.0338  137.6828  162.4998 H   0  0  0  0  0  0  0  0  0  0  0  0
  127.3835  135.5742  164.3260 H   0  0  0  0  0  0  0  0  0  0  0  0
  128.0781  136.1639  166.6088 H   0  0  0  0  0  0  0  0  0  0  0  0
  1  2  1  0
  1 34  1  0
  1 35  1  0
  1 36  1  0
  2  6  1  0
  2  3  1  0
  3  4  2  0
  4  5  1  0
  4 37  1  0
  5  6  2  0
  5 38  1  0
  6  7  1  0
  7  8  1  0
  7 39  1  0
  8 33  1  0
  8  9  2  0
  9 10  1  0
  9 40  1  0
 10 11  2  0
 11 12  1  0
 11 41  1  0
 12 13  1  0
 12 33  2  0
 13 32  1  0
 13 14  2  0
 14 15  1  0
 14 42  1  0
 15 16  2  0
 15 43  1  0
 16 17  1  0
 16 31  1  0
 17 18  1  0
 17 44  1  0
 18 30  1  0
 18 19  2  0
 19 20  1  0
 19 45  1  0
 20 21  2  0
 20 46  1  0
 21 22  1  0
 21 29  1  0
 22 23  1  0
 22 47  1  0
 23 28  2  0
 23 24  1  0
 24 25  1  0
 24 26  1  0
 26 27  1  0
 26 48  1  0
 26 49  1  0
 27 28  1  0
 27 50  1  0
 27 51  1  0
 28 52  1  0
 29 30  2  0
 29 53  1  0
 30 54  1  0
 31 32  2  0
 31 55  1  0
 32 56  1  0
M  CHG  1  28   1
M  END
>  <DOCK_score>  (1) 
-41.659397

>  <SMILES>  (1) 
Cn1nccc1Nc1cncc(-c2ccc(Nc3ccc(NC4=[NH+]CCN4)cc3)cc2)n1

$$$$
