Cc1nn(-c2ccccc2F)cc1C[NH2+]Cc1cn(-c2ccccc2)nc1-c1ccccc1
     RDKit          3D

 58 62  0  0  0  0  0  0  0  0999 V2000
  129.0067  133.6724  160.9563 C   0  0  0  0  0  0  0  0  0  0  0  0
  129.4163  133.6226  159.5070 C   0  0  0  0  0  0  0  0  0  0  0  0
  129.7739  132.5502  158.8472 N   0  0  0  0  0  0  0  0  0  0  0  0
  130.0769  132.9258  157.5321 N   0  0  0  0  0  0  0  0  0  0  0  0
  130.5005  132.0690  156.5056 C   0  0  0  0  0  0  0  0  0  0  0  0
  130.1836  132.3554  155.1852 C   0  0  0  0  0  0  0  0  0  0  0  0
  130.6064  131.5127  154.1757 C   0  0  0  0  0  0  0  0  0  0  0  0
  131.3362  130.3780  154.4794 C   0  0  0  0  0  0  0  0  0  0  0  0
  131.6495  130.0850  155.7938 C   0  0  0  0  0  0  0  0  0  0  0  0
  131.2340  130.9276  156.8091 C   0  0  0  0  0  0  0  0  0  0  0  0
  131.5402  130.6418  158.0936 F   0  0  0  0  0  0  0  0  0  0  0  0
  129.8829  134.2596  157.4258 C   0  0  0  0  0  0  0  0  0  0  0  0
  129.4796  134.7147  158.6348 C   0  0  0  0  0  0  0  0  0  0  0  0
  129.1505  136.1445  158.9792 C   0  0  0  0  0  0  0  0  0  0  0  0
  130.3619  136.8245  159.4567 N   0  0  0  0  0  0  0  0  0  0  0  0
  131.0651  136.8060  158.7334 H   0  0  0  0  0  0  0  0  0  0  0  0
  130.7112  136.3527  160.2775 H   0  0  0  0  0  0  0  0  0  0  0  0
  130.0411  138.2182  159.7924 C   0  0  0  0  0  0  0  0  0  0  0  0
  131.2839  138.9158  160.2822 C   0  0  0  0  0  0  0  0  0  0  0  0
  132.5082  138.8497  159.7154 C   0  0  0  0  0  0  0  0  0  0  0  0
  133.3524  139.6134  160.4572 N   0  0  0  0  0  0  0  0  0  0  0  0
  134.7171  139.8111  160.2087 C   0  0  0  0  0  0  0  0  0  0  0  0
  135.4661  140.6255  161.0477 C   0  0  0  0  0  0  0  0  0  0  0  0
  136.8100  140.8225  160.7971 C   0  0  0  0  0  0  0  0  0  0  0  0
  137.4093  140.2106  159.7115 C   0  0  0  0  0  0  0  0  0  0  0  0
  136.6662  139.3990  158.8743 C   0  0  0  0  0  0  0  0  0  0  0  0
  135.3219  139.1975  159.1198 C   0  0  0  0  0  0  0  0  0  0  0  0
  132.6178  140.1734  161.5102 N   0  0  0  0  0  0  0  0  0  0  0  0
  131.3730  139.7566  161.4090 C   0  0  0  0  0  0  0  0  0  0  0  0
  130.2587  140.1106  162.3225 C   0  0  0  0  0  0  0  0  0  0  0  0
  129.8850  141.4430  162.4862 C   0  0  0  0  0  0  0  0  0  0  0  0
  128.8438  141.7661  163.3328 C   0  0  0  0  0  0  0  0  0  0  0  0
  128.1793  140.7712  164.0268 C   0  0  0  0  0  0  0  0  0  0  0  0
  128.5497  139.4473  163.8725 C   0  0  0  0  0  0  0  0  0  0  0  0
  129.5857  139.1125  163.0242 C   0  0  0  0  0  0  0  0  0  0  0  0
  127.9296  133.5247  161.0348 H   0  0  0  0  0  0  0  0  0  0  0  0
  129.5224  132.8855  161.5068 H   0  0  0  0  0  0  0  0  0  0  0  0
  129.2719  134.6428  161.3758 H   0  0  0  0  0  0  0  0  0  0  0  0
  129.6103  133.2392  154.9466 H   0  0  0  0  0  0  0  0  0  0  0  0
  130.3631  131.7381  153.1479 H   0  0  0  0  0  0  0  0  0  0  0  0
  131.6628  129.7193  153.6884 H   0  0  0  0  0  0  0  0  0  0  0  0
  132.2193  129.1979  156.0279 H   0  0  0  0  0  0  0  0  0  0  0  0
  130.0261  134.8553  156.5364 H   0  0  0  0  0  0  0  0  0  0  0  0
  128.3907  136.1643  159.7605 H   0  0  0  0  0  0  0  0  0  0  0  0
  128.7732  136.6542  158.0926 H   0  0  0  0  0  0  0  0  0  0  0  0
  129.2814  138.2380  160.5738 H   0  0  0  0  0  0  0  0  0  0  0  0
  129.6638  138.7279  158.9059 H   0  0  0  0  0  0  0  0  0  0  0  0
  132.7701  138.2879  158.8310 H   0  0  0  0  0  0  0  0  0  0  0  0
  134.9984  141.1043  161.8952 H   0  0  0  0  0  0  0  0  0  0  0  0
  137.3932  141.4554  161.4496 H   0  0  0  0  0  0  0  0  0  0  0  0
  138.4603  140.3665  159.5175 H   0  0  0  0  0  0  0  0  0  0  0  0
  137.1373  138.9218  158.0277 H   0  0  0  0  0  0  0  0  0  0  0  0
  134.7421  138.5633  158.4657 H   0  0  0  0  0  0  0  0  0  0  0  0
  130.4064  142.2211  161.9484 H   0  0  0  0  0  0  0  0  0  0  0  0
  128.5503  142.7980  163.4567 H   0  0  0  0  0  0  0  0  0  0  0  0
  127.3683  141.0293  164.6919 H   0  0  0  0  0  0  0  0  0  0  0  0
  128.0272  138.6744  164.4166 H   0  0  0  0  0  0  0  0  0  0  0  0
  129.8738  138.0785  162.9042 H   0  0  0  0  0  0  0  0  0  0  0  0
  1  2  1  0
  1 36  1  0
  1 37  1  0
  1 38  1  0
  2 13  1  0
  2  3  2  0
  3  4  1  0
  4  5  1  0
  4 12  1  0
  5 10  1  0
  5  6  2  0
  6  7  1  0
  6 39  1  0
  7  8  2  0
  7 40  1  0
  8  9  1  0
  8 41  1  0
  9 10  2  0
  9 42  1  0
 10 11  1  0
 12 13  2  0
 12 43  1  0
 13 14  1  0
 14 15  1  0
 14 44  1  0
 14 45  1  0
 15 16  1  0
 15 17  1  0
 15 18  1  0
 18 19  1  0
 18 46  1  0
 18 47  1  0
 19 29  1  0
 19 20  2  0
 20 21  1  0
 20 48  1  0
 21 22  1  0
 21 28  1  0
 22 27  1  0
 22 23  2  0
 23 24  1  0
 23 49  1  0
 24 25  2  0
 24 50  1  0
 25 26  1  0
 25 51  1  0
 26 27  2  0
 26 52  1  0
 27 53  1  0
 28 29  2  0
 29 30  1  0
 30 35  1  0
 30 31  2  0
 31 32  1  0
 31 54  1  0
 32 33  2  0
 32 55  1  0
 33 34  1  0
 33 56  1  0
 34 35  2  0
 34 57  1  0
 35 58  1  0
M  CHG  1  15   1
M  END
>  <DOCK_score>  (1) 
-58.562901

>  <SMILES>  (1) 
Cc1nn(-c2ccccc2F)cc1C[NH2+]Cc1cn(-c2ccccc2)nc1-c1ccccc1

$$$$
