CC(Cl)[C@@H](Nc1[nH]cc(-c2ccc(N)cc2)[nH+]1)c1ccc(Cl)cc1
     RDKit          3D

 43 45  0  0  1  0  0  0  0  0999 V2000
  128.8445  136.2755  162.0523 C   0  0  0  0  0  0  0  0  0  0  0  0
  129.6252  136.4016  160.7424 C   0  0  2  0  0  0  0  0  0  0  0  0
  128.4720  136.4445  159.3572 Cl  0  0  0  0  0  0  0  0  0  0  0  0
  130.5617  135.2014  160.5895 C   0  0  1  0  0  0  0  0  0  0  0  0
  130.0521  134.2979  160.9243 H   0  0  0  0  0  0  0  0  0  0  0  0
  130.9417  135.0546  159.1823 N   0  0  0  0  0  0  0  0  0  0  0  0
  130.6367  133.8887  158.5009 C   0  0  0  0  0  0  0  0  0  0  0  0
  129.9908  132.8112  159.0236 N   0  0  0  0  0  0  0  0  0  0  0  0
  129.6634  132.7225  159.9324 H   0  0  0  0  0  0  0  0  0  0  0  0
  129.8876  131.8713  158.0255 C   0  0  0  0  0  0  0  0  0  0  0  0
  130.4730  132.4021  156.9236 C   0  0  0  0  0  0  0  0  0  0  0  0
  130.5993  131.7447  155.5997 C   0  0  0  0  0  0  0  0  0  0  0  0
  130.0217  132.3277  154.4729 C   0  0  0  0  0  0  0  0  0  0  0  0
  130.1454  131.7178  153.2424 C   0  0  0  0  0  0  0  0  0  0  0  0
  130.8349  130.5167  153.1271 C   0  0  0  0  0  0  0  0  0  0  0  0
  130.9534  129.8976  151.8804 N   0  0  0  0  0  0  0  0  0  0  0  0
  131.4071  129.9308  154.2502 C   0  0  0  0  0  0  0  0  0  0  0  0
  131.2909  130.5400  155.4817 C   0  0  0  0  0  0  0  0  0  0  0  0
  130.9231  133.6405  157.2461 N   0  0  0  0  0  0  0  0  0  0  0  0
  131.3833  134.2460  156.6440 H   0  0  0  0  0  0  0  0  0  0  0  0
  131.7979  135.4193  161.4235 C   0  0  0  0  0  0  0  0  0  0  0  0
  132.8996  136.0486  160.8746 C   0  0  0  0  0  0  0  0  0  0  0  0
  134.0315  136.2538  161.6407 C   0  0  0  0  0  0  0  0  0  0  0  0
  134.0659  135.8192  162.9538 C   0  0  0  0  0  0  0  0  0  0  0  0
  135.4898  136.0708  163.9146 Cl  0  0  0  0  0  0  0  0  0  0  0  0
  132.9651  135.1844  163.5008 C   0  0  0  0  0  0  0  0  0  0  0  0
  131.8317  134.9849  162.7354 C   0  0  0  0  0  0  0  0  0  0  0  0
  129.5417  136.2496  162.8898 H   0  0  0  0  0  0  0  0  0  0  0  0
  128.1773  137.1306  162.1614 H   0  0  0  0  0  0  0  0  0  0  0  0
  128.2584  135.3567  162.0390 H   0  0  0  0  0  0  0  0  0  0  0  0
  130.2114  137.3205  160.7559 H   0  0  0  0  0  0  0  0  0  0  0  0
  131.4069  135.7744  158.7280 H   0  0  0  0  0  0  0  0  0  0  0  0
  129.4317  130.8955  158.1051 H   0  0  0  0  0  0  0  0  0  0  0  0
  129.4818  133.2586  154.5628 H   0  0  0  0  0  0  0  0  0  0  0  0
  129.7017  132.1712  152.3684 H   0  0  0  0  0  0  0  0  0  0  0  0
  131.4350  129.0591  151.7992 H   0  0  0  0  0  0  0  0  0  0  0  0
  130.5545  130.3055  151.0963 H   0  0  0  0  0  0  0  0  0  0  0  0
  131.9427  128.9975  154.1583 H   0  0  0  0  0  0  0  0  0  0  0  0
  131.7355  130.0844  156.3541 H   0  0  0  0  0  0  0  0  0  0  0  0
  132.8741  136.3839  159.8483 H   0  0  0  0  0  0  0  0  0  0  0  0
  134.8905  136.7495  161.2132 H   0  0  0  0  0  0  0  0  0  0  0  0
  132.9915  134.8446  164.5256 H   0  0  0  0  0  0  0  0  0  0  0  0
  130.9721  134.4896  163.1625 H   0  0  0  0  0  0  0  0  0  0  0  0
  1  2  1  0
  1 28  1  0
  1 29  1  0
  1 30  1  0
  2  3  1  0
  2  4  1  0
  2 31  1  1
  4  5  1  1
  4  6  1  0
  4 21  1  0
  6 32  1  0
  7  6  1  0
  7 19  2  0
  7  8  1  0
  8  9  1  0
  8 10  1  0
 10 11  2  0
 10 33  1  0
 11 12  1  0
 11 19  1  0
 12 18  1  0
 12 13  2  0
 13 14  1  0
 13 34  1  0
 14 15  2  0
 14 35  1  0
 15 16  1  0
 15 17  1  0
 16 36  1  0
 16 37  1  0
 17 18  2  0
 17 38  1  0
 18 39  1  0
 19 20  1  0
 21 27  1  0
 21 22  2  0
 22 23  1  0
 22 40  1  0
 23 24  2  0
 23 41  1  0
 24 25  1  0
 24 26  1  0
 26 27  2  0
 26 42  1  0
 27 43  1  0
M  CHG  1  19   1
M  END
>  <DOCK_score>  (1) 
-56.217171

>  <SMILES>  (1) 
CC(Cl)[C@@H](Nc1[nH]cc(-c2ccc(N)cc2)[nH+]1)c1ccc(Cl)cc1

$$$$
