O=C(C[NH+]1CCCC1Cc1cccc2ccccc12)N[C@H](c1ccccc1)c1ccc(Cl)cc1
     RDKit          3D

 64 68  0  0  1  0  0  0  0  0999 V2000
  129.5133  134.7909  161.9498 O   0  0  0  0  0  0  0  0  0  0  0  0
  130.3834  134.9492  161.1198 C   0  0  0  0  0  0  0  0  0  0  0  0
  131.4631  135.9759  161.3465 C   0  0  0  0  0  0  0  0  0  0  0  0
  131.4281  136.9699  160.2654 N   0  0  1  0  0  0  0  0  0  0  0  0
  131.5807  136.5220  159.3742 H   0  0  0  0  0  0  0  0  0  0  0  0
  130.1235  137.6855  160.2621 C   0  0  0  0  0  0  0  0  0  0  0  0
  130.4412  139.0048  159.5143 C   0  0  0  0  0  0  0  0  0  0  0  0
  131.8664  139.3465  160.0061 C   0  0  0  0  0  0  0  0  0  0  0  0
  132.4542  138.0100  160.4957 C   0  0  2  0  0  0  0  0  0  0  0  0
  133.7209  137.6768  159.7048 C   0  0  0  0  0  0  0  0  0  0  0  0
  134.8866  138.4403  160.2785 C   0  0  0  0  0  0  0  0  0  0  0  0
  135.1927  139.6791  159.8048 C   0  0  0  0  0  0  0  0  0  0  0  0
  136.2670  140.3998  160.3225 C   0  0  0  0  0  0  0  0  0  0  0  0
  137.0419  139.8858  161.3167 C   0  0  0  0  0  0  0  0  0  0  0  0
  136.7567  138.6098  161.8310 C   0  0  0  0  0  0  0  0  0  0  0  0
  137.5332  138.0465  162.8581 C   0  0  0  0  0  0  0  0  0  0  0  0
  137.2265  136.8082  163.3322 C   0  0  0  0  0  0  0  0  0  0  0  0
  136.1522  136.0871  162.8141 C   0  0  0  0  0  0  0  0  0  0  0  0
  135.3779  136.6006  161.8197 C   0  0  0  0  0  0  0  0  0  0  0  0
  135.6634  137.8767  161.3047 C   0  0  0  0  0  0  0  0  0  0  0  0
  130.3848  134.2069  159.9949 N   0  0  0  0  0  0  0  0  0  0  0  0
  129.3353  133.2089  159.7746 C   0  0  2  0  0  0  0  0  0  0  0  0
  129.0189  132.7966  160.7327 H   0  0  0  0  0  0  0  0  0  0  0  0
  129.8699  132.1015  158.9033 C   0  0  0  0  0  0  0  0  0  0  0  0
  129.7504  132.1847  157.5286 C   0  0  0  0  0  0  0  0  0  0  0  0
  130.2448  131.1710  156.7293 C   0  0  0  0  0  0  0  0  0  0  0  0
  130.8506  130.0699  157.3050 C   0  0  0  0  0  0  0  0  0  0  0  0
  130.9654  129.9843  158.6799 C   0  0  0  0  0  0  0  0  0  0  0  0
  130.4750  130.9999  159.4791 C   0  0  0  0  0  0  0  0  0  0  0  0
  128.1582  133.8593  159.0943 C   0  0  0  0  0  0  0  0  0  0  0  0
  126.8812  133.3771  159.3122 C   0  0  0  0  0  0  0  0  0  0  0  0
  125.8008  133.9769  158.6930 C   0  0  0  0  0  0  0  0  0  0  0  0
  125.9988  135.0527  157.8461 C   0  0  0  0  0  0  0  0  0  0  0  0
  124.6430  135.8024  157.0628 Cl  0  0  0  0  0  0  0  0  0  0  0  0
  127.2777  135.5312  157.6239 C   0  0  0  0  0  0  0  0  0  0  0  0
  128.3568  134.9344  158.2481 C   0  0  0  0  0  0  0  0  0  0  0  0
  132.4357  135.4841  161.3567 H   0  0  0  0  0  0  0  0  0  0  0  0
  131.2970  136.4728  162.3024 H   0  0  0  0  0  0  0  0  0  0  0  0
  129.7975  137.8903  161.2818 H   0  0  0  0  0  0  0  0  0  0  0  0
  129.3677  137.1117  159.7258 H   0  0  0  0  0  0  0  0  0  0  0  0
  129.7374  139.7877  159.7974 H   0  0  0  0  0  0  0  0  0  0  0  0
  130.4325  138.8485  158.4356 H   0  0  0  0  0  0  0  0  0  0  0  0
  131.8219  140.0631  160.8262 H   0  0  0  0  0  0  0  0  0  0  0  0
  132.4641  139.7451  159.1865 H   0  0  0  0  0  0  0  0  0  0  0  0
  132.6864  138.0735  161.5588 H   0  0  0  0  0  0  0  0  0  0  0  0
  133.5815  137.9570  158.6607 H   0  0  0  0  0  0  0  0  0  0  0  0
  133.9194  136.6071  159.7705 H   0  0  0  0  0  0  0  0  0  0  0  0
  134.5938  140.1102  159.0163 H   0  0  0  0  0  0  0  0  0  0  0  0
  136.4884  141.3809  159.9290 H   0  0  0  0  0  0  0  0  0  0  0  0
  137.8742  140.4539  161.7049 H   0  0  0  0  0  0  0  0  0  0  0  0
  138.3692  138.5932  163.2687 H   0  0  0  0  0  0  0  0  0  0  0  0
  137.8248  136.3776  164.1214 H   0  0  0  0  0  0  0  0  0  0  0  0
  135.9305  135.1063  163.2081 H   0  0  0  0  0  0  0  0  0  0  0  0
  134.5481  136.0307  161.4286 H   0  0  0  0  0  0  0  0  0  0  0  0
  131.0806  134.3335  159.3311 H   0  0  0  0  0  0  0  0  0  0  0  0
  129.2738  133.0432  157.0791 H   0  0  0  0  0  0  0  0  0  0  0  0
  130.1553  131.2381  155.6551 H   0  0  0  0  0  0  0  0  0  0  0  0
  131.2344  129.2767  156.6807 H   0  0  0  0  0  0  0  0  0  0  0  0
  131.4388  129.1240  159.1298 H   0  0  0  0  0  0  0  0  0  0  0  0
  130.5647  130.9331  160.5533 H   0  0  0  0  0  0  0  0  0  0  0  0
  126.7272  132.5345  159.9699 H   0  0  0  0  0  0  0  0  0  0  0  0
  124.8026  133.6028  158.8668 H   0  0  0  0  0  0  0  0  0  0  0  0
  127.4331  136.3708  156.9626 H   0  0  0  0  0  0  0  0  0  0  0  0
  129.3552  135.3081  158.0751 H   0  0  0  0  0  0  0  0  0  0  0  0
  1  2  2  0
  2  3  1  0
  2 21  1  0
  3  4  1  0
  3 37  1  0
  3 38  1  0
  4  5  1  6
  4  9  1  0
  4  6  1  0
  6  7  1  0
  6 39  1  0
  6 40  1  0
  7  8  1  0
  7 41  1  0
  7 42  1  0
  8  9  1  0
  8 43  1  0
  8 44  1  0
  9 10  1  0
  9 45  1  1
 10 11  1  0
 10 46  1  0
 10 47  1  0
 11 20  1  0
 11 12  2  0
 12 13  1  0
 12 48  1  0
 13 14  2  0
 13 49  1  0
 14 15  1  0
 14 50  1  0
 15 20  2  0
 15 16  1  0
 16 17  2  0
 16 51  1  0
 17 18  1  0
 17 52  1  0
 18 19  2  0
 18 53  1  0
 19 20  1  0
 19 54  1  0
 21 22  1  0
 21 55  1  0
 22 23  1  1
 22 24  1  0
 22 30  1  0
 24 29  1  0
 24 25  2  0
 25 26  1  0
 25 56  1  0
 26 27  2  0
 26 57  1  0
 27 28  1  0
 27 58  1  0
 28 29  2  0
 28 59  1  0
 29 60  1  0
 30 36  1  0
 30 31  2  0
 31 32  1  0
 31 61  1  0
 32 33  2  0
 32 62  1  0
 33 34  1  0
 33 35  1  0
 35 36  2  0
 35 63  1  0
 36 64  1  0
M  CHG  1   4   1
M  END
>  <DOCK_score>  (1) 
-58.204445

>  <SMILES>  (1) 
O=C(C[NH+]1CCCC1Cc1cccc2ccccc12)N[C@H](c1ccccc1)c1ccc(Cl)cc1

$$$$
