Oc1ccc([C@H](Nc2[nH]cc(-c3ccc(Br)cc3)[nH+]2)c2ccccc2)cc1
     RDKit          3D

 46 49  0  0  1  0  0  0  0  0999 V2000
  131.9292  140.4636  162.0019 O   0  0  0  0  0  0  0  0  0  0  0  0
  131.4993  139.2459  161.5784 C   0  0  0  0  0  0  0  0  0  0  0  0
  131.8661  138.1005  162.2699 C   0  0  0  0  0  0  0  0  0  0  0  0
  131.4274  136.8639  161.8378 C   0  0  0  0  0  0  0  0  0  0  0  0
  130.6233  136.7673  160.7171 C   0  0  0  0  0  0  0  0  0  0  0  0
  130.1462  135.4169  160.2479 C   0  0  2  0  0  0  0  0  0  0  0  0
  130.5333  134.6439  160.9117 H   0  0  0  0  0  0  0  0  0  0  0  0
  130.6266  135.1756  158.8851 N   0  0  0  0  0  0  0  0  0  0  0  0
  130.3120  133.9921  158.2396 C   0  0  0  0  0  0  0  0  0  0  0  0
  129.5629  132.9813  158.7582 N   0  0  0  0  0  0  0  0  0  0  0  0
  129.1571  132.9604  159.6390 H   0  0  0  0  0  0  0  0  0  0  0  0
  129.4874  131.9958  157.8040 C   0  0  0  0  0  0  0  0  0  0  0  0
  130.1919  132.4324  156.7307 C   0  0  0  0  0  0  0  0  0  0  0  0
  130.3873  131.6977  155.4571 C   0  0  0  0  0  0  0  0  0  0  0  0
  129.9404  132.2476  154.2569 C   0  0  0  0  0  0  0  0  0  0  0  0
  130.1302  131.5628  153.0739 C   0  0  0  0  0  0  0  0  0  0  0  0
  130.7521  130.3261  153.0796 C   0  0  0  0  0  0  0  0  0  0  0  0
  131.0013  129.3894  151.4559 Br  0  0  0  0  0  0  0  0  0  0  0  0
  131.1925  129.7730  154.2695 C   0  0  0  0  0  0  0  0  0  0  0  0
  131.0133  130.4523  155.4571 C   0  0  0  0  0  0  0  0  0  0  0  0
  130.6817  133.6627  157.0261 N   0  0  0  0  0  0  0  0  0  0  0  0
  131.2214  134.2102  156.4344 H   0  0  0  0  0  0  0  0  0  0  0  0
  128.6396  135.3835  160.2627 C   0  0  0  0  0  0  0  0  0  0  0  0
  127.9685  134.9637  161.3958 C   0  0  0  0  0  0  0  0  0  0  0  0
  126.5866  134.9372  161.4107 C   0  0  0  0  0  0  0  0  0  0  0  0
  125.8757  135.3219  160.2893 C   0  0  0  0  0  0  0  0  0  0  0  0
  126.5469  135.7369  159.1543 C   0  0  0  0  0  0  0  0  0  0  0  0
  127.9288  135.7674  159.1408 C   0  0  0  0  0  0  0  0  0  0  0  0
  130.2609  137.9068  160.0229 C   0  0  0  0  0  0  0  0  0  0  0  0
  130.6925  139.1463  160.4543 C   0  0  0  0  0  0  0  0  0  0  0  0
  132.4855  140.4312  162.7923 H   0  0  0  0  0  0  0  0  0  0  0  0
  132.4944  138.1755  163.1450 H   0  0  0  0  0  0  0  0  0  0  0  0
  131.7124  135.9720  162.3759 H   0  0  0  0  0  0  0  0  0  0  0  0
  131.1652  135.8452  158.4351 H   0  0  0  0  0  0  0  0  0  0  0  0
  128.9662  131.0539  157.8916 H   0  0  0  0  0  0  0  0  0  0  0  0
  129.4505  133.2101  154.2521 H   0  0  0  0  0  0  0  0  0  0  0  0
  129.7887  131.9902  152.1428 H   0  0  0  0  0  0  0  0  0  0  0  0
  131.6770  128.8077  154.2684 H   0  0  0  0  0  0  0  0  0  0  0  0
  131.3576  130.0200  156.3849 H   0  0  0  0  0  0  0  0  0  0  0  0
  128.5240  134.6595  162.2708 H   0  0  0  0  0  0  0  0  0  0  0  0
  126.0622  134.6134  162.2977 H   0  0  0  0  0  0  0  0  0  0  0  0
  124.7961  135.2988  160.3000 H   0  0  0  0  0  0  0  0  0  0  0  0
  125.9916  136.0375  158.2782 H   0  0  0  0  0  0  0  0  0  0  0  0
  128.4532  136.0916  158.2541 H   0  0  0  0  0  0  0  0  0  0  0  0
  129.6368  137.8281  159.1451 H   0  0  0  0  0  0  0  0  0  0  0  0
  130.4055  140.0364  159.9142 H   0  0  0  0  0  0  0  0  0  0  0  0
  1  2  1  0
  1 31  1  0
  2 30  2  0
  2  3  1  0
  3  4  2  0
  3 32  1  0
  4  5  1  0
  4 33  1  0
  5  6  1  0
  5 29  2  0
  6  7  1  1
  6  8  1  0
  6 23  1  0
  8 34  1  0
  9  8  1  0
  9 21  2  0
  9 10  1  0
 10 11  1  0
 10 12  1  0
 12 13  2  0
 12 35  1  0
 13 14  1  0
 13 21  1  0
 14 20  1  0
 14 15  2  0
 15 16  1  0
 15 36  1  0
 16 17  2  0
 16 37  1  0
 17 18  1  0
 17 19  1  0
 19 20  2  0
 19 38  1  0
 20 39  1  0
 21 22  1  0
 23 28  1  0
 23 24  2  0
 24 25  1  0
 24 40  1  0
 25 26  2  0
 25 41  1  0
 26 27  1  0
 26 42  1  0
 27 28  2  0
 27 43  1  0
 28 44  1  0
 29 30  1  0
 29 45  1  0
 30 46  1  0
M  CHG  1  21   1
M  END
>  <DOCK_score>  (1) 
-57.444885

>  <SMILES>  (1) 
Oc1ccc([C@H](Nc2[nH]cc(-c3ccc(Br)cc3)[nH+]2)c2ccccc2)cc1

$$$$
