CCc1ccc(CCC=C[C@@H](Cc2ccccc2)Nc2[nH]cc(-c3ccc(CC)cc3)[nH+]2)cc1
     RDKit          3D

 70 73  0  0  1  0  0  0  0  0999 V2000
  137.3118  141.4639  162.4544 C   0  0  0  0  0  0  0  0  0  0  0  0
  137.9069  140.2719  161.7020 C   0  0  0  0  0  0  0  0  0  0  0  0
  136.8248  139.2588  161.4298 C   0  0  0  0  0  0  0  0  0  0  0  0
  136.0877  139.3317  160.2629 C   0  0  0  0  0  0  0  0  0  0  0  0
  135.0955  138.4022  160.0129 C   0  0  0  0  0  0  0  0  0  0  0  0
  134.8404  137.3999  160.9302 C   0  0  0  0  0  0  0  0  0  0  0  0
  133.7585  136.3867  160.6580 C   0  0  0  0  0  0  0  0  0  0  0  0
  132.4298  136.8960  161.2201 C   0  0  0  0  0  0  0  0  0  0  0  0
  131.3480  135.8828  160.9478 C   0  0  0  0  0  0  0  0  0  0  0  0
  130.3044  136.2160  160.2294 C   0  0  0  0  0  0  0  0  0  0  0  0
  129.2226  135.2028  159.9572 C   0  0  1  0  0  0  0  0  0  0  0  0
  129.4810  134.2579  160.4351 H   0  0  0  0  0  0  0  0  0  0  0  0
  127.8938  135.7120  160.5193 C   0  0  0  0  0  0  0  0  0  0  0  0
  126.8118  134.6988  160.2471 C   0  0  0  0  0  0  0  0  0  0  0  0
  126.0746  134.7717  159.0800 C   0  0  0  0  0  0  0  0  0  0  0  0
  125.0855  133.8396  158.8280 C   0  0  0  0  0  0  0  0  0  0  0  0
  124.8265  132.8407  159.7479 C   0  0  0  0  0  0  0  0  0  0  0  0
  125.5603  132.7709  160.9174 C   0  0  0  0  0  0  0  0  0  0  0  0
  126.5530  133.7000  161.1669 C   0  0  0  0  0  0  0  0  0  0  0  0
  129.0956  135.0003  158.5118 N   0  0  0  0  0  0  0  0  0  0  0  0
  129.3005  133.7437  157.9682 C   0  0  0  0  0  0  0  0  0  0  0  0
  129.0628  132.5599  158.5963 N   0  0  0  0  0  0  0  0  0  0  0  0
  128.7225  132.4459  159.4975 H   0  0  0  0  0  0  0  0  0  0  0  0
  129.3933  131.5565  157.7183 C   0  0  0  0  0  0  0  0  0  0  0  0
  129.8231  132.1552  156.5800 C   0  0  0  0  0  0  0  0  0  0  0  0
  130.2863  131.4646  155.3517 C   0  0  0  0  0  0  0  0  0  0  0  0
  130.1132  132.0635  154.1051 C   0  0  0  0  0  0  0  0  0  0  0  0
  130.5465  131.4166  152.9656 C   0  0  0  0  0  0  0  0  0  0  0  0
  131.1515  130.1757  153.0593 C   0  0  0  0  0  0  0  0  0  0  0  0
  131.6221  129.4741  151.8114 C   0  0  0  0  0  0  0  0  0  0  0  0
  130.4912  128.6049  151.2578 C   0  0  0  0  0  0  0  0  0  0  0  0
  131.3207  129.5744  154.2932 C   0  0  0  0  0  0  0  0  0  0  0  0
  130.8968  130.2148  155.4398 C   0  0  0  0  0  0  0  0  0  0  0  0
  129.7598  133.4977  156.7655 N   0  0  0  0  0  0  0  0  0  0  0  0
  130.0118  134.1684  156.1116 H   0  0  0  0  0  0  0  0  0  0  0  0
  135.5740  137.3304  162.0998 C   0  0  0  0  0  0  0  0  0  0  0  0
  136.5695  138.2569  162.3473 C   0  0  0  0  0  0  0  0  0  0  0  0
  136.5293  141.9217  161.8492 H   0  0  0  0  0  0  0  0  0  0  0  0
  136.8879  141.1225  163.3988 H   0  0  0  0  0  0  0  0  0  0  0  0
  138.0944  142.1966  162.6514 H   0  0  0  0  0  0  0  0  0  0  0  0
  138.6894  139.8142  162.3073 H   0  0  0  0  0  0  0  0  0  0  0  0
  138.3310  140.6133  160.7577 H   0  0  0  0  0  0  0  0  0  0  0  0
  136.2869  140.1147  159.5461 H   0  0  0  0  0  0  0  0  0  0  0  0
  134.5194  138.4592  159.1011 H   0  0  0  0  0  0  0  0  0  0  0  0
  134.0170  135.4419  161.1360 H   0  0  0  0  0  0  0  0  0  0  0  0
  133.6643  136.2361  159.5825 H   0  0  0  0  0  0  0  0  0  0  0  0
  132.1714  137.8409  160.7421 H   0  0  0  0  0  0  0  0  0  0  0  0
  132.5242  137.0467  162.2955 H   0  0  0  0  0  0  0  0  0  0  0  0
  131.4329  134.8822  161.3451 H   0  0  0  0  0  0  0  0  0  0  0  0
  130.2194  137.2166  159.8321 H   0  0  0  0  0  0  0  0  0  0  0  0
  127.9883  135.8626  161.5948 H   0  0  0  0  0  0  0  0  0  0  0  0
  127.6354  136.6569  160.0415 H   0  0  0  0  0  0  0  0  0  0  0  0
  126.2740  135.5547  158.3635 H   0  0  0  0  0  0  0  0  0  0  0  0
  124.5120  133.8942  157.9145 H   0  0  0  0  0  0  0  0  0  0  0  0
  124.0508  132.1150  159.5530 H   0  0  0  0  0  0  0  0  0  0  0  0
  125.3577  131.9908  161.6362 H   0  0  0  0  0  0  0  0  0  0  0  0
  127.1260  133.6458  162.0808 H   0  0  0  0  0  0  0  0  0  0  0  0
  128.8681  135.7467  157.9356 H   0  0  0  0  0  0  0  0  0  0  0  0
  129.3240  130.4941  157.8999 H   0  0  0  0  0  0  0  0  0  0  0  0
  129.6406  133.0317  154.0308 H   0  0  0  0  0  0  0  0  0  0  0  0
  130.4130  131.8797  151.9991 H   0  0  0  0  0  0  0  0  0  0  0  0
  132.4803  128.8462  152.0492 H   0  0  0  0  0  0  0  0  0  0  0  0
  131.9096  130.2148  151.0646 H   0  0  0  0  0  0  0  0  0  0  0  0
  130.8318  128.0974  150.3551 H   0  0  0  0  0  0  0  0  0  0  0  0
  130.2036  127.8645  152.0043 H   0  0  0  0  0  0  0  0  0  0  0  0
  129.6330  129.2331  151.0196 H   0  0  0  0  0  0  0  0  0  0  0  0
  131.7893  128.6037  154.3597 H   0  0  0  0  0  0  0  0  0  0  0  0
  131.0337  129.7464  156.4033 H   0  0  0  0  0  0  0  0  0  0  0  0
  135.3717  136.5501  162.8185 H   0  0  0  0  0  0  0  0  0  0  0  0
  137.1454  138.2001  163.2592 H   0  0  0  0  0  0  0  0  0  0  0  0
  1  2  1  0
  1 38  1  0
  1 39  1  0
  1 40  1  0
  2  3  1  0
  2 41  1  0
  2 42  1  0
  3 37  2  0
  3  4  1  0
  4  5  2  0
  4 43  1  0
  5  6  1  0
  5 44  1  0
  6  7  1  0
  6 36  2  0
  7  8  1  0
  7 45  1  0
  7 46  1  0
  8  9  1  0
  8 47  1  0
  8 48  1  0
  9 10  2  0
  9 49  1  0
 10 11  1  0
 10 50  1  0
 11 12  1  1
 11 13  1  0
 11 20  1  0
 13 14  1  0
 13 51  1  0
 13 52  1  0
 14 19  1  0
 14 15  2  0
 15 16  1  0
 15 53  1  0
 16 17  2  0
 16 54  1  0
 17 18  1  0
 17 55  1  0
 18 19  2  0
 18 56  1  0
 19 57  1  0
 20 58  1  0
 21 20  1  0
 21 34  2  0
 21 22  1  0
 22 23  1  0
 22 24  1  0
 24 25  2  0
 24 59  1  0
 25 26  1  0
 25 34  1  0
 26 33  1  0
 26 27  2  0
 27 28  1  0
 27 60  1  0
 28 29  2  0
 28 61  1  0
 29 30  1  0
 29 32  1  0
 30 31  1  0
 30 62  1  0
 30 63  1  0
 31 64  1  0
 31 65  1  0
 31 66  1  0
 32 33  2  0
 32 67  1  0
 33 68  1  0
 34 35  1  0
 36 37  1  0
 36 69  1  0
 37 70  1  0
M  CHG  1  34   1
M  END
>  <DOCK_score>  (1) 
-58.616436

>  <SMILES>  (1) 
CCc1ccc(CCC=C[C@@H](Cc2ccccc2)Nc2[nH]cc(-c3ccc(CC)cc3)[nH+]2)cc1

$$$$
