Nc1ccc(-c2c[nH]c(N[C@@H](/C=C/C(=O)OCC3CC3)c3ccccc3)[nH+]2)cc1
     RDKit          3D

 54 57  0  0  1  0  0  0  0  0999 V2000
  131.7839  129.6593  151.9153 N   0  0  0  0  0  0  0  0  0  0  0  0
  131.4128  130.3138  153.0922 C   0  0  0  0  0  0  0  0  0  0  0  0
  130.6299  131.4605  153.0311 C   0  0  0  0  0  0  0  0  0  0  0  0
  130.2623  132.1082  154.1916 C   0  0  0  0  0  0  0  0  0  0  0  0
  130.6765  131.6121  155.4268 C   0  0  0  0  0  0  0  0  0  0  0  0
  130.2823  132.3071  156.6767 C   0  0  0  0  0  0  0  0  0  0  0  0
  129.5609  131.7731  157.6930 C   0  0  0  0  0  0  0  0  0  0  0  0
  129.4213  132.7573  158.6429 N   0  0  0  0  0  0  0  0  0  0  0  0
  128.9501  132.6784  159.4871 H   0  0  0  0  0  0  0  0  0  0  0  0
  130.0663  133.8623  158.1799 C   0  0  0  0  0  0  0  0  0  0  0  0
  130.1626  135.0755  158.8397 N   0  0  0  0  0  0  0  0  0  0  0  0
  129.0927  135.5045  159.7438 C   0  0  1  0  0  0  0  0  0  0  0  0
  128.9819  134.7759  160.5471 H   0  0  0  0  0  0  0  0  0  0  0  0
  129.4390  136.8491  160.3297 C   0  0  0  0  0  0  0  0  0  0  0  0
  129.5612  136.9894  161.6473 C   0  0  0  0  0  0  0  0  0  0  0  0
  129.8991  138.3006  162.2184 C   0  0  0  0  0  0  0  0  0  0  0  0
  130.0668  139.2569  161.4874 O   0  0  0  0  0  0  0  0  0  0  0  0
  130.0228  138.4427  163.5533 O   0  0  0  0  0  0  0  0  0  0  0  0
  130.3580  139.7663  164.0469 C   0  0  0  0  0  0  0  0  0  0  0  0
  129.0725  140.5510  164.3165 C   0  0  0  0  0  0  0  0  0  0  0  0
  128.5159  141.4079  163.1777 C   0  0  0  0  0  0  0  0  0  0  0  0
  129.1769  142.0759  164.3860 C   0  0  0  0  0  0  0  0  0  0  0  0
  127.7990  135.6083  158.9779 C   0  0  0  0  0  0  0  0  0  0  0  0
  126.5962  135.3751  159.6181 C   0  0  0  0  0  0  0  0  0  0  0  0
  125.4093  135.4742  158.9164 C   0  0  0  0  0  0  0  0  0  0  0  0
  125.4258  135.7983  157.5727 C   0  0  0  0  0  0  0  0  0  0  0  0
  126.6289  136.0264  156.9313 C   0  0  0  0  0  0  0  0  0  0  0  0
  127.8156  135.9312  157.6339 C   0  0  0  0  0  0  0  0  0  0  0  0
  130.5821  133.5884  157.0063 N   0  0  0  0  0  0  0  0  0  0  0  0
  131.0930  134.2050  156.4588 H   0  0  0  0  0  0  0  0  0  0  0  0
  131.4666  130.4651  155.4854 C   0  0  0  0  0  0  0  0  0  0  0  0
  131.8268  129.8171  154.3226 C   0  0  0  0  0  0  0  0  0  0  0  0
  131.4956  130.0051  151.0563 H   0  0  0  0  0  0  0  0  0  0  0  0
  132.3306  128.8589  151.9571 H   0  0  0  0  0  0  0  0  0  0  0  0
  130.3095  131.8446  152.0740 H   0  0  0  0  0  0  0  0  0  0  0  0
  129.6535  132.9990  154.1437 H   0  0  0  0  0  0  0  0  0  0  0  0
  129.1675  130.7686  157.7445 H   0  0  0  0  0  0  0  0  0  0  0  0
  130.9384  135.6416  158.7034 H   0  0  0  0  0  0  0  0  0  0  0  0
  129.5881  137.6989  159.6799 H   0  0  0  0  0  0  0  0  0  0  0  0
  129.4123  136.1396  162.2969 H   0  0  0  0  0  0  0  0  0  0  0  0
  130.9288  139.6756  164.9711 H   0  0  0  0  0  0  0  0  0  0  0  0
  130.9549  140.2919  163.3014 H   0  0  0  0  0  0  0  0  0  0  0  0
  128.3549  140.0649  164.9776 H   0  0  0  0  0  0  0  0  0  0  0  0
  129.0656  141.4126  162.2364 H   0  0  0  0  0  0  0  0  0  0  0  0
  127.4322  141.4859  163.0899 H   0  0  0  0  0  0  0  0  0  0  0  0
  128.5279  142.5930  165.0927 H   0  0  0  0  0  0  0  0  0  0  0  0
  130.1615  142.5201  164.2398 H   0  0  0  0  0  0  0  0  0  0  0  0
  126.5837  135.1184  160.6670 H   0  0  0  0  0  0  0  0  0  0  0  0
  124.4693  135.2955  159.4174 H   0  0  0  0  0  0  0  0  0  0  0  0
  124.4986  135.8730  157.0238 H   0  0  0  0  0  0  0  0  0  0  0  0
  126.6418  136.2793  155.8814 H   0  0  0  0  0  0  0  0  0  0  0  0
  128.7556  136.1094  157.1328 H   0  0  0  0  0  0  0  0  0  0  0  0
  131.7926  130.0816  156.4409 H   0  0  0  0  0  0  0  0  0  0  0  0
  132.4348  128.9257  154.3678 H   0  0  0  0  0  0  0  0  0  0  0  0
  1  2  1  0
  1 33  1  0
  1 34  1  0
  2 32  2  0
  2  3  1  0
  3  4  2  0
  3 35  1  0
  4  5  1  0
  4 36  1  0
  5  6  1  0
  5 31  2  0
  6 29  1  0
  6  7  2  0
  7  8  1  0
  7 37  1  0
  8  9  1  0
  8 10  1  0
 10 11  1  0
 10 29  2  0
 11 12  1  0
 11 38  1  0
 12 13  1  1
 12 14  1  0
 12 23  1  0
 14 15  2  0
 14 39  1  0
 15 16  1  0
 15 40  1  0
 16 17  2  0
 16 18  1  0
 18 19  1  0
 19 20  1  0
 19 41  1  0
 19 42  1  0
 20 22  1  0
 20 21  1  0
 20 43  1  0
 21 22  1  0
 21 44  1  0
 21 45  1  0
 22 46  1  0
 22 47  1  0
 23 28  1  0
 23 24  2  0
 24 25  1  0
 24 48  1  0
 25 26  2  0
 25 49  1  0
 26 27  1  0
 26 50  1  0
 27 28  2  0
 27 51  1  0
 28 52  1  0
 29 30  1  0
 31 32  1  0
 31 53  1  0
 32 54  1  0
M  CHG  1  29   1
M  END
>  <DOCK_score>  (1) 
-61.927891

>  <SMILES>  (1) 
Nc1ccc(-c2c[nH]c(N[C@@H](/C=C/C(=O)OCC3CC3)c3ccccc3)[nH+]2)cc1

$$$$
