Nc1ccc(-c2c[nH]c(N[C@@H](CCCl)c3ccccc3)[nH+]2)cc1
     RDKit          3D

 43 45  0  0  1  0  0  0  0  0999 V2000
  131.7971  129.5857  151.9753 N   0  0  0  0  0  0  0  0  0  0  0  0
  131.4194  130.2472  153.1463 C   0  0  0  0  0  0  0  0  0  0  0  0
  130.6303  131.3897  153.0734 C   0  0  0  0  0  0  0  0  0  0  0  0
  130.2564  132.0451  154.2275 C   0  0  0  0  0  0  0  0  0  0  0  0
  130.6699  131.5614  155.4677 C   0  0  0  0  0  0  0  0  0  0  0  0
  130.2694  132.2651  156.7108 C   0  0  0  0  0  0  0  0  0  0  0  0
  129.5407  131.7390  157.7261 C   0  0  0  0  0  0  0  0  0  0  0  0
  129.4017  132.7278  158.6711 N   0  0  0  0  0  0  0  0  0  0  0  0
  128.9287  132.6540  159.5147 H   0  0  0  0  0  0  0  0  0  0  0  0
  130.0501  133.8291  158.2041 C   0  0  0  0  0  0  0  0  0  0  0  0
  130.1477  135.0454  158.8585 N   0  0  0  0  0  0  0  0  0  0  0  0
  129.0768  135.4810  159.7583 C   0  0  1  0  0  0  0  0  0  0  0  0
  128.9627  134.7565  160.5647 H   0  0  0  0  0  0  0  0  0  0  0  0
  129.4303  136.8481  160.3472 C   0  0  0  0  0  0  0  0  0  0  0  0
  128.6138  137.0816  161.6199 C   0  0  0  0  0  0  0  0  0  0  0  0
  129.0301  138.6928  162.3140 Cl  0  0  0  0  0  0  0  0  0  0  0  0
  127.7851  135.5842  158.9890 C   0  0  0  0  0  0  0  0  0  0  0  0
  126.5803  135.3595  159.6282 C   0  0  0  0  0  0  0  0  0  0  0  0
  125.3953  135.4537  158.9225 C   0  0  0  0  0  0  0  0  0  0  0  0
  125.4155  135.7712  157.5772 C   0  0  0  0  0  0  0  0  0  0  0  0
  126.6204  135.9945  156.9377 C   0  0  0  0  0  0  0  0  0  0  0  0
  127.8052  135.9007  157.6436 C   0  0  0  0  0  0  0  0  0  0  0  0
  130.5624  133.5506  157.0302 N   0  0  0  0  0  0  0  0  0  0  0  0
  131.0716  134.1649  156.4787 H   0  0  0  0  0  0  0  0  0  0  0  0
  131.4652  130.4186  155.5378 C   0  0  0  0  0  0  0  0  0  0  0  0
  131.8324  129.7633  154.3813 C   0  0  0  0  0  0  0  0  0  0  0  0
  131.5090  129.9230  151.1127 H   0  0  0  0  0  0  0  0  0  0  0  0
  132.3478  128.7887  152.0251 H   0  0  0  0  0  0  0  0  0  0  0  0
  130.3100  131.7642  152.1123 H   0  0  0  0  0  0  0  0  0  0  0  0
  129.6432  132.9324  154.1707 H   0  0  0  0  0  0  0  0  0  0  0  0
  129.1449  130.7357  157.7814 H   0  0  0  0  0  0  0  0  0  0  0  0
  130.9251  135.6090  158.7211 H   0  0  0  0  0  0  0  0  0  0  0  0
  130.4932  136.8767  160.5871 H   0  0  0  0  0  0  0  0  0  0  0  0
  129.2008  137.6272  159.6203 H   0  0  0  0  0  0  0  0  0  0  0  0
  127.5508  137.0532  161.3801 H   0  0  0  0  0  0  0  0  0  0  0  0
  128.8432  136.3026  162.3468 H   0  0  0  0  0  0  0  0  0  0  0  0
  126.5644  135.1118  160.6793 H   0  0  0  0  0  0  0  0  0  0  0  0
  124.4536  135.2836  159.4231 H   0  0  0  0  0  0  0  0  0  0  0  0
  124.4897  135.8444  157.0258 H   0  0  0  0  0  0  0  0  0  0  0  0
  126.6363  136.2419  155.8865 H   0  0  0  0  0  0  0  0  0  0  0  0
  128.7468  136.0745  157.1438 H   0  0  0  0  0  0  0  0  0  0  0  0
  131.7903  130.0444  156.4973 H   0  0  0  0  0  0  0  0  0  0  0  0
  132.4451  128.8757  154.4354 H   0  0  0  0  0  0  0  0  0  0  0  0
  1  2  1  0
  1 27  1  0
  1 28  1  0
  2 26  2  0
  2  3  1  0
  3  4  2  0
  3 29  1  0
  4  5  1  0
  4 30  1  0
  5  6  1  0
  5 25  2  0
  6 23  1  0
  6  7  2  0
  7  8  1  0
  7 31  1  0
  8  9  1  0
  8 10  1  0
 10 11  1  0
 10 23  2  0
 11 12  1  0
 11 32  1  0
 12 13  1  1
 12 14  1  0
 12 17  1  0
 14 15  1  0
 14 33  1  0
 14 34  1  0
 15 16  1  0
 15 35  1  0
 15 36  1  0
 17 22  1  0
 17 18  2  0
 18 19  1  0
 18 37  1  0
 19 20  2  0
 19 38  1  0
 20 21  1  0
 20 39  1  0
 21 22  2  0
 21 40  1  0
 22 41  1  0
 23 24  1  0
 25 26  1  0
 25 42  1  0
 26 43  1  0
M  CHG  1  23   1
M  END
>  <DOCK_score>  (1) 
-57.926517

>  <SMILES>  (1) 
Nc1ccc(-c2c[nH]c(N[C@@H](CCCl)c3ccccc3)[nH+]2)cc1

$$$$
