Cc1cccc(N2CC[NH+]([C@@H](c3ccccc3)c3ccc(N)c(N)c3)CC2)c1C
     RDKit          3D

 60 63  0  0  1  0  0  0  0  0999 V2000
  136.0442  141.0952  162.6890 C   0  0  0  0  0  0  0  0  0  0  0  0
  135.4010  140.4290  161.5001 C   0  0  0  0  0  0  0  0  0  0  0  0
  135.7310  140.8335  160.2193 C   0  0  0  0  0  0  0  0  0  0  0  0
  135.1428  140.2253  159.1257 C   0  0  0  0  0  0  0  0  0  0  0  0
  134.2235  139.2109  159.3092 C   0  0  0  0  0  0  0  0  0  0  0  0
  133.8896  138.8023  160.5940 C   0  0  0  0  0  0  0  0  0  0  0  0
  132.9601  137.7772  160.7832 N   0  0  0  0  0  0  0  0  0  0  0  0
  133.4524  136.5100  160.2247 C   0  0  0  0  0  0  0  0  0  0  0  0
  132.4339  135.4028  160.5045 C   0  0  0  0  0  0  0  0  0  0  0  0
  131.1449  135.7578  159.8962 N   0  0  0  0  0  0  0  0  0  0  0  0
  131.2638  135.8751  158.9012 H   0  0  0  0  0  0  0  0  0  0  0  0
  130.1725  134.6863  160.1497 C   0  0  1  0  0  0  0  0  0  0  0  0
  130.0443  134.5588  161.2246 H   0  0  0  0  0  0  0  0  0  0  0  0
  128.8499  135.0502  159.5257 C   0  0  0  0  0  0  0  0  0  0  0  0
  127.6721  134.5919  160.0856 C   0  0  0  0  0  0  0  0  0  0  0  0
  126.4587  134.9293  159.5156 C   0  0  0  0  0  0  0  0  0  0  0  0
  126.4237  135.7171  158.3802 C   0  0  0  0  0  0  0  0  0  0  0  0
  127.6018  136.1714  157.8175 C   0  0  0  0  0  0  0  0  0  0  0  0
  128.8150  135.8376  158.3900 C   0  0  0  0  0  0  0  0  0  0  0  0
  130.6749  133.3994  159.5476 C   0  0  0  0  0  0  0  0  0  0  0  0
  130.8963  132.3002  160.3565 C   0  0  0  0  0  0  0  0  0  0  0  0
  131.3524  131.1150  159.8097 C   0  0  0  0  0  0  0  0  0  0  0  0
  131.5993  131.0295  158.4480 C   0  0  0  0  0  0  0  0  0  0  0  0
  132.0659  129.8318  157.8928 N   0  0  0  0  0  0  0  0  0  0  0  0
  131.3810  132.1399  157.6327 C   0  0  0  0  0  0  0  0  0  0  0  0
  131.6279  132.0602  156.2567 N   0  0  0  0  0  0  0  0  0  0  0  0
  130.9184  133.3230  158.1886 C   0  0  0  0  0  0  0  0  0  0  0  0
  130.6543  137.0124  160.4817 C   0  0  0  0  0  0  0  0  0  0  0  0
  131.6580  138.1330  160.2016 C   0  0  0  0  0  0  0  0  0  0  0  0
  134.4783  139.4194  161.6908 C   0  0  0  0  0  0  0  0  0  0  0  0
  134.1147  138.9837  163.0868 C   0  0  0  0  0  0  0  0  0  0  0  0
  135.4401  141.9480  162.9986 H   0  0  0  0  0  0  0  0  0  0  0  0
  136.1147  140.3825  163.5107 H   0  0  0  0  0  0  0  0  0  0  0  0
  137.0431  141.4368  162.4176 H   0  0  0  0  0  0  0  0  0  0  0  0
  136.4495  141.6264  160.0731 H   0  0  0  0  0  0  0  0  0  0  0  0
  135.4028  140.5435  158.1269 H   0  0  0  0  0  0  0  0  0  0  0  0
  133.7644  138.7363  158.4546 H   0  0  0  0  0  0  0  0  0  0  0  0
  133.5885  136.6154  159.1483 H   0  0  0  0  0  0  0  0  0  0  0  0
  134.4049  136.2537  160.6886 H   0  0  0  0  0  0  0  0  0  0  0  0
  132.3083  135.2883  161.5812 H   0  0  0  0  0  0  0  0  0  0  0  0
  132.7906  134.4649  160.0786 H   0  0  0  0  0  0  0  0  0  0  0  0
  127.6997  133.9730  160.9702 H   0  0  0  0  0  0  0  0  0  0  0  0
  125.5385  134.5747  159.9554 H   0  0  0  0  0  0  0  0  0  0  0  0
  125.4758  135.9780  157.9330 H   0  0  0  0  0  0  0  0  0  0  0  0
  127.5744  136.7869  156.9305 H   0  0  0  0  0  0  0  0  0  0  0  0
  129.7354  136.1922  157.9502 H   0  0  0  0  0  0  0  0  0  0  0  0
  130.7087  132.3664  161.4180 H   0  0  0  0  0  0  0  0  0  0  0  0
  131.5204  130.2570  160.4438 H   0  0  0  0  0  0  0  0  0  0  0  0
  132.2379  129.7735  156.9400 H   0  0  0  0  0  0  0  0  0  0  0  0
  132.2173  129.0604  158.4611 H   0  0  0  0  0  0  0  0  0  0  0  0
  131.4753  132.8331  155.6911 H   0  0  0  0  0  0  0  0  0  0  0  0
  131.9515  131.2319  155.8694 H   0  0  0  0  0  0  0  0  0  0  0  0
  130.7487  134.1848  157.5603 H   0  0  0  0  0  0  0  0  0  0  0  0
  130.5378  136.8897  161.5585 H   0  0  0  0  0  0  0  0  0  0  0  0
  129.6916  137.2679  160.0388 H   0  0  0  0  0  0  0  0  0  0  0  0
  131.3014  139.0608  160.6488 H   0  0  0  0  0  0  0  0  0  0  0  0
  131.7645  138.2652  159.1249 H   0  0  0  0  0  0  0  0  0  0  0  0
  134.7865  138.1866  163.4052 H   0  0  0  0  0  0  0  0  0  0  0  0
  134.2070  139.8301  163.7673 H   0  0  0  0  0  0  0  0  0  0  0  0
  133.0876  138.6191  163.0976 H   0  0  0  0  0  0  0  0  0  0  0  0
  1  2  1  0
  1 32  1  0
  1 33  1  0
  1 34  1  0
  2 30  2  0
  2  3  1  0
  3  4  2  0
  3 35  1  0
  4  5  1  0
  4 36  1  0
  5  6  2  0
  5 37  1  0
  6  7  1  0
  6 30  1  0
  7 29  1  0
  7  8  1  0
  8  9  1  0
  8 38  1  0
  8 39  1  0
  9 10  1  0
  9 40  1  0
  9 41  1  0
 10 11  1  0
 10 12  1  0
 10 28  1  0
 12 13  1  1
 12 14  1  0
 12 20  1  0
 14 19  1  0
 14 15  2  0
 15 16  1  0
 15 42  1  0
 16 17  2  0
 16 43  1  0
 17 18  1  0
 17 44  1  0
 18 19  2  0
 18 45  1  0
 19 46  1  0
 20 27  1  0
 20 21  2  0
 21 22  1  0
 21 47  1  0
 22 23  2  0
 22 48  1  0
 23 24  1  0
 23 25  1  0
 24 49  1  0
 24 50  1  0
 25 26  1  0
 25 27  2  0
 26 51  1  0
 26 52  1  0
 27 53  1  0
 28 29  1  0
 28 54  1  0
 28 55  1  0
 29 56  1  0
 29 57  1  0
 30 31  1  0
 31 58  1  0
 31 59  1  0
 31 60  1  0
M  CHG  1  10   1
M  END
>  <DOCK_score>  (1) 
-57.041801

>  <SMILES>  (1) 
Cc1cccc(N2CC[NH+]([C@@H](c3ccccc3)c3ccc(N)c(N)c3)CC2)c1C

$$$$
