CC=C(C)C[C@H](Nc1[nH]cc(-c2ccc(CC)cc2)[nH+]1)c1ccc(F)cc1
     RDKit          3D

 54 56  0  0  1  0  0  0  0  0999 V2000
  133.3326  138.4649  159.8960 C   0  0  0  0  0  0  0  0  0  0  0  0
  131.8603  138.1535  159.9753 C   0  0  0  0  0  0  0  0  0  0  0  0
  131.4364  137.1857  160.7498 C   0  0  0  0  0  0  0  0  0  0  0  0
  132.4211  136.3839  161.5614 C   0  0  0  0  0  0  0  0  0  0  0  0
  129.9640  136.8743  160.8293 C   0  0  0  0  0  0  0  0  0  0  0  0
  129.7232  135.4310  160.3821 C   0  0  2  0  0  0  0  0  0  0  0  0
  130.2738  134.7522  161.0334 H   0  0  0  0  0  0  0  0  0  0  0  0
  130.1839  135.2642  159.0015 N   0  0  0  0  0  0  0  0  0  0  0  0
  130.0682  134.0341  158.3769 C   0  0  0  0  0  0  0  0  0  0  0  0
  129.5511  132.9065  158.9366 N   0  0  0  0  0  0  0  0  0  0  0  0
  129.2007  132.8207  159.8370 H   0  0  0  0  0  0  0  0  0  0  0  0
  129.6167  131.9123  157.9909 C   0  0  0  0  0  0  0  0  0  0  0  0
  130.1714  132.4604  156.8815 C   0  0  0  0  0  0  0  0  0  0  0  0
  130.4399  131.7592  155.6023 C   0  0  0  0  0  0  0  0  0  0  0  0
  130.4094  132.4622  154.3994 C   0  0  0  0  0  0  0  0  0  0  0  0
  130.6604  131.8048  153.2122 C   0  0  0  0  0  0  0  0  0  0  0  0
  130.9413  130.4498  153.2149 C   0  0  0  0  0  0  0  0  0  0  0  0
  131.2141  129.7374  151.9153 C   0  0  0  0  0  0  0  0  0  0  0  0
  129.8996  129.2105  151.3370 C   0  0  0  0  0  0  0  0  0  0  0  0
  130.9676  129.7462  154.4052 C   0  0  0  0  0  0  0  0  0  0  0  0
  130.7242  130.3946  155.5989 C   0  0  0  0  0  0  0  0  0  0  0  0
  130.4427  133.7623  157.1507 N   0  0  0  0  0  0  0  0  0  0  0  0
  130.8468  134.3919  156.5333 H   0  0  0  0  0  0  0  0  0  0  0  0
  128.2509  135.1197  160.4613 C   0  0  0  0  0  0  0  0  0  0  0  0
  127.7168  134.5987  161.6252 C   0  0  0  0  0  0  0  0  0  0  0  0
  126.3656  134.3181  161.7009 C   0  0  0  0  0  0  0  0  0  0  0  0
  125.5487  134.5490  160.6071 C   0  0  0  0  0  0  0  0  0  0  0  0
  124.2288  134.2700  160.6781 F   0  0  0  0  0  0  0  0  0  0  0  0
  126.0858  135.0656  159.4400 C   0  0  0  0  0  0  0  0  0  0  0  0
  127.4363  135.3503  159.3684 C   0  0  0  0  0  0  0  0  0  0  0  0
  133.6998  138.7392  160.8849 H   0  0  0  0  0  0  0  0  0  0  0  0
  133.8710  137.5870  159.5389 H   0  0  0  0  0  0  0  0  0  0  0  0
  133.4920  139.2940  159.2063 H   0  0  0  0  0  0  0  0  0  0  0  0
  131.1547  138.7281  159.3937 H   0  0  0  0  0  0  0  0  0  0  0  0
  132.7963  135.5549  160.9616 H   0  0  0  0  0  0  0  0  0  0  0  0
  133.2525  137.0230  161.8587 H   0  0  0  0  0  0  0  0  0  0  0  0
  131.9263  135.9941  162.4510 H   0  0  0  0  0  0  0  0  0  0  0  0
  129.4134  137.5531  160.1779 H   0  0  0  0  0  0  0  0  0  0  0  0
  129.6213  136.9984  161.8564 H   0  0  0  0  0  0  0  0  0  0  0  0
  130.5701  136.0157  158.5249 H   0  0  0  0  0  0  0  0  0  0  0  0
  129.2892  130.8899  158.1084 H   0  0  0  0  0  0  0  0  0  0  0  0
  130.1893  133.5197  154.3960 H   0  0  0  0  0  0  0  0  0  0  0  0
  130.6370  132.3486  152.2794 H   0  0  0  0  0  0  0  0  0  0  0  0
  131.8932  128.9038  152.0935 H   0  0  0  0  0  0  0  0  0  0  0  0
  131.6695  130.4321  151.2088 H   0  0  0  0  0  0  0  0  0  0  0  0
  129.4445  128.5162  152.0432 H   0  0  0  0  0  0  0  0  0  0  0  0
  129.2209  130.0445  151.1585 H   0  0  0  0  0  0  0  0  0  0  0  0
  130.0970  128.6952  150.3969 H   0  0  0  0  0  0  0  0  0  0  0  0
  131.1829  128.6879  154.4008 H   0  0  0  0  0  0  0  0  0  0  0  0
  130.7494  129.8450  156.5282 H   0  0  0  0  0  0  0  0  0  0  0  0
  128.3549  134.4146  162.4768 H   0  0  0  0  0  0  0  0  0  0  0  0
  125.9477  133.9155  162.6118 H   0  0  0  0  0  0  0  0  0  0  0  0
  125.4497  135.2457  158.5861 H   0  0  0  0  0  0  0  0  0  0  0  0
  127.8554  135.7532  158.4583 H   0  0  0  0  0  0  0  0  0  0  0  0
  1  2  1  0
  1 31  1  0
  1 32  1  0
  1 33  1  0
  2  3  2  0
  2 34  1  0
  3  4  1  0
  3  5  1  0
  4 35  1  0
  4 36  1  0
  4 37  1  0
  5  6  1  0
  5 38  1  0
  5 39  1  0
  6  7  1  1
  6  8  1  0
  6 24  1  0
  8 40  1  0
  9  8  1  0
  9 22  2  0
  9 10  1  0
 10 11  1  0
 10 12  1  0
 12 13  2  0
 12 41  1  0
 13 14  1  0
 13 22  1  0
 14 21  1  0
 14 15  2  0
 15 16  1  0
 15 42  1  0
 16 17  2  0
 16 43  1  0
 17 18  1  0
 17 20  1  0
 18 19  1  0
 18 44  1  0
 18 45  1  0
 19 46  1  0
 19 47  1  0
 19 48  1  0
 20 21  2  0
 20 49  1  0
 21 50  1  0
 22 23  1  0
 24 30  1  0
 24 25  2  0
 25 26  1  0
 25 51  1  0
 26 27  2  0
 26 52  1  0
 27 28  1  0
 27 29  1  0
 29 30  2  0
 29 53  1  0
 30 54  1  0
M  CHG  1  22   1
M  END
>  <DOCK_score>  (1) 
-58.00547

>  <SMILES>  (1) 
CC=C(C)C[C@H](Nc1[nH]cc(-c2ccc(CC)cc2)[nH+]1)c1ccc(F)cc1

$$$$
