CC(C)n1cc(C2[NH2+][C@H](C)Cc3c2[nH]c2ccc(O)cc32)c(Br)n1
     RDKit          3D

 46 49  0  0  1  0  0  0  0  0999 V2000
  130.4934  132.8453  153.3972 C   0  0  0  0  0  0  0  0  0  0  0  0
  130.0958  131.4677  153.9307 C   0  0  0  0  0  0  0  0  0  0  0  0
  130.9705  130.3957  153.2772 C   0  0  0  0  0  0  0  0  0  0  0  0
  130.2848  131.4333  155.3831 N   0  0  0  0  0  0  0  0  0  0  0  0
  130.1788  132.4845  156.2224 C   0  0  0  0  0  0  0  0  0  0  0  0
  130.4196  132.0374  157.4766 C   0  0  0  0  0  0  0  0  0  0  0  0
  130.4025  132.8692  158.7332 C   0  0  1  0  0  0  0  0  0  0  0  0
  130.7814  134.2542  158.4136 N   0  0  0  0  0  0  0  0  0  0  0  0
  131.7489  134.2788  158.1282 H   0  0  0  0  0  0  0  0  0  0  0  0
  130.2036  134.5934  157.6592 H   0  0  0  0  0  0  0  0  0  0  0  0
  130.5992  135.1139  159.5907 C   0  0  2  0  0  0  0  0  0  0  0  0
  131.0847  136.0744  159.4176 H   0  0  0  0  0  0  0  0  0  0  0  0
  131.2226  134.4408  160.8151 C   0  0  0  0  0  0  0  0  0  0  0  0
  129.1002  135.3356  159.8366 C   0  0  0  0  0  0  0  0  0  0  0  0
  128.4249  133.9871  159.8153 C   0  0  0  0  0  0  0  0  0  0  0  0
  129.0119  132.8693  159.3219 C   0  0  0  0  0  0  0  0  0  0  0  0
  128.1621  131.8044  159.4440 N   0  0  0  0  0  0  0  0  0  0  0  0
  128.3587  130.8981  159.1598 H   0  0  0  0  0  0  0  0  0  0  0  0
  126.9929  132.2107  160.0267 C   0  0  0  0  0  0  0  0  0  0  0  0
  125.8315  131.5185  160.3620 C   0  0  0  0  0  0  0  0  0  0  0  0
  124.8120  132.2440  160.9516 C   0  0  0  0  0  0  0  0  0  0  0  0
  124.9236  133.6056  161.2061 C   0  0  0  0  0  0  0  0  0  0  0  0
  123.8815  134.2570  161.7885 O   0  0  0  0  0  0  0  0  0  0  0  0
  126.0683  134.3186  160.8823 C   0  0  0  0  0  0  0  0  0  0  0  0
  127.1099  133.6093  160.2805 C   0  0  0  0  0  0  0  0  0  0  0  0
  130.6880  130.6661  157.4005 C   0  0  0  0  0  0  0  0  0  0  0  0
  131.0916  129.5322  158.8591 Br  0  0  0  0  0  0  0  0  0  0  0  0
  130.6107  130.3038  156.1452 N   0  0  0  0  0  0  0  0  0  0  0  0
  129.8703  133.6090  153.8627 H   0  0  0  0  0  0  0  0  0  0  0  0
  131.5403  133.0378  153.6320 H   0  0  0  0  0  0  0  0  0  0  0  0
  130.3528  132.8708  152.3165 H   0  0  0  0  0  0  0  0  0  0  0  0
  129.0490  131.2752  153.6959 H   0  0  0  0  0  0  0  0  0  0  0  0
  130.6872  129.4142  153.6574 H   0  0  0  0  0  0  0  0  0  0  0  0
  130.8299  130.4213  152.1965 H   0  0  0  0  0  0  0  0  0  0  0  0
  132.0174  130.5881  153.5121 H   0  0  0  0  0  0  0  0  0  0  0  0
  129.9398  133.5003  155.9436 H   0  0  0  0  0  0  0  0  0  0  0  0
  131.1056  132.4549  159.4557 H   0  0  0  0  0  0  0  0  0  0  0  0
  132.2870  134.2840  160.6409 H   0  0  0  0  0  0  0  0  0  0  0  0
  131.0874  135.0787  161.6885 H   0  0  0  0  0  0  0  0  0  0  0  0
  130.7372  133.4802  160.9881 H   0  0  0  0  0  0  0  0  0  0  0  0
  128.9512  135.8075  160.8077 H   0  0  0  0  0  0  0  0  0  0  0  0
  128.6869  135.9687  159.0514 H   0  0  0  0  0  0  0  0  0  0  0  0
  125.7315  130.4604  160.1701 H   0  0  0  0  0  0  0  0  0  0  0  0
  123.8989  131.7352  161.2236 H   0  0  0  0  0  0  0  0  0  0  0  0
  124.0379  135.2004  161.9316 H   0  0  0  0  0  0  0  0  0  0  0  0
  126.1513  135.3767  161.0817 H   0  0  0  0  0  0  0  0  0  0  0  0
  1  2  1  0
  1 29  1  0
  1 30  1  0
  1 31  1  0
  2  3  1  0
  2  4  1  0
  2 32  1  0
  3 33  1  0
  3 34  1  0
  3 35  1  0
  4 28  1  0
  4  5  1  0
  5  6  2  0
  5 36  1  0
  6  7  1  0
  6 26  1  0
  7 16  1  0
  7  8  1  0
  7 37  1  1
  8  9  1  0
  8 10  1  0
  8 11  1  0
 11 12  1  6
 11 13  1  0
 11 14  1  0
 13 38  1  0
 13 39  1  0
 13 40  1  0
 14 15  1  0
 14 41  1  0
 14 42  1  0
 15 25  1  0
 15 16  2  0
 16 17  1  0
 17 18  1  0
 17 19  1  0
 19 25  2  0
 19 20  1  0
 20 21  2  0
 20 43  1  0
 21 22  1  0
 21 44  1  0
 22 23  1  0
 22 24  2  0
 23 45  1  0
 24 25  1  0
 24 46  1  0
 26 27  1  0
 26 28  2  0
M  CHG  1   8   1
M  END
>  <DOCK_score>  (1) 
-50.026016

>  <SMILES>  (1) 
CC(C)n1cc(C2[NH2+][C@H](C)Cc3c2[nH]c2ccc(O)cc32)c(Br)n1

$$$$
