Cc1ccc([C@H](Nc2[nH]cc(NC3CC3)[nH+]2)c2ccccc2)cc1
     RDKit          3D

 47 50  0  0  1  0  0  0  0  0999 V2000
  130.1763  140.8521  161.5270 C   0  0  0  0  0  0  0  0  0  0  0  0
  129.8475  139.4761  161.0076 C   0  0  0  0  0  0  0  0  0  0  0  0
  129.1681  138.5788  161.8107 C   0  0  0  0  0  0  0  0  0  0  0  0
  128.8656  137.3169  161.3344 C   0  0  0  0  0  0  0  0  0  0  0  0
  129.2420  136.9523  160.0552 C   0  0  0  0  0  0  0  0  0  0  0  0
  128.9122  135.5765  159.5361 C   0  0  2  0  0  0  0  0  0  0  0  0
  128.8878  134.8709  160.3665 H   0  0  0  0  0  0  0  0  0  0  0  0
  129.9337  135.1606  158.5719 N   0  0  0  0  0  0  0  0  0  0  0  0
  129.8425  133.9231  157.9570 C   0  0  0  0  0  0  0  0  0  0  0  0
  129.2841  132.8080  158.4977 N   0  0  0  0  0  0  0  0  0  0  0  0
  128.8798  132.7329  159.3762 H   0  0  0  0  0  0  0  0  0  0  0  0
  129.3994  131.8011  157.5561 C   0  0  0  0  0  0  0  0  0  0  0  0
  130.0268  132.3364  156.4882 C   0  0  0  0  0  0  0  0  0  0  0  0
  130.3524  131.6613  155.3008 N   0  0  0  0  0  0  0  0  0  0  0  0
  131.0375  132.3718  154.2184 C   0  0  0  0  0  0  0  0  0  0  0  0
  130.6168  132.0482  152.7835 C   0  0  0  0  0  0  0  0  0  0  0  0
  131.9651  131.5572  153.3145 C   0  0  0  0  0  0  0  0  0  0  0  0
  130.2859  133.6294  156.7570 N   0  0  0  0  0  0  0  0  0  0  0  0
  130.7310  134.2482  156.1571 H   0  0  0  0  0  0  0  0  0  0  0  0
  127.5653  135.6041  158.8606 C   0  0  0  0  0  0  0  0  0  0  0  0
  126.4205  135.3447  159.5907 C   0  0  0  0  0  0  0  0  0  0  0  0
  125.1856  135.3630  158.9696 C   0  0  0  0  0  0  0  0  0  0  0  0
  125.0955  135.6431  157.6190 C   0  0  0  0  0  0  0  0  0  0  0  0
  126.2402  135.9028  156.8890 C   0  0  0  0  0  0  0  0  0  0  0  0
  127.4751  135.8832  157.5098 C   0  0  0  0  0  0  0  0  0  0  0  0
  129.9258  137.8478  159.2543 C   0  0  0  0  0  0  0  0  0  0  0  0
  130.2245  139.1112  159.7289 C   0  0  0  0  0  0  0  0  0  0  0  0
  131.1499  140.8329  162.0161 H   0  0  0  0  0  0  0  0  0  0  0  0
  130.2011  141.5574  160.6958 H   0  0  0  0  0  0  0  0  0  0  0  0
  129.4155  141.1617  162.2432 H   0  0  0  0  0  0  0  0  0  0  0  0
  128.8734  138.8640  162.8097 H   0  0  0  0  0  0  0  0  0  0  0  0
  128.3349  136.6159  161.9616 H   0  0  0  0  0  0  0  0  0  0  0  0
  130.6739  135.7521  158.3640 H   0  0  0  0  0  0  0  0  0  0  0  0
  129.0571  130.7818  157.6579 H   0  0  0  0  0  0  0  0  0  0  0  0
  130.1236  130.7243  155.1973 H   0  0  0  0  0  0  0  0  0  0  0  0
  131.3253  133.3998  154.4391 H   0  0  0  0  0  0  0  0  0  0  0  0
  129.8302  131.3065  152.6448 H   0  0  0  0  0  0  0  0  0  0  0  0
  130.6274  132.8633  152.0598 H   0  0  0  0  0  0  0  0  0  0  0  0
  132.8627  132.0493  152.9402 H   0  0  0  0  0  0  0  0  0  0  0  0
  132.0654  130.4926  153.5252 H   0  0  0  0  0  0  0  0  0  0  0  0
  126.4910  135.1267  160.6461 H   0  0  0  0  0  0  0  0  0  0  0  0
  124.2913  135.1607  159.5402 H   0  0  0  0  0  0  0  0  0  0  0  0
  124.1305  135.6591  157.1341 H   0  0  0  0  0  0  0  0  0  0  0  0
  126.1696  136.1217  155.8337 H   0  0  0  0  0  0  0  0  0  0  0  0
  128.3696  136.0862  156.9395 H   0  0  0  0  0  0  0  0  0  0  0  0
  130.2238  137.5613  158.2565 H   0  0  0  0  0  0  0  0  0  0  0  0
  130.7549  139.8124  159.1016 H   0  0  0  0  0  0  0  0  0  0  0  0
  1  2  1  0
  1 28  1  0
  1 29  1  0
  1 30  1  0
  2 27  2  0
  2  3  1  0
  3  4  2  0
  3 31  1  0
  4  5  1  0
  4 32  1  0
  5  6  1  0
  5 26  2  0
  6  7  1  1
  6  8  1  0
  6 20  1  0
  8 33  1  0
  9  8  1  0
  9 18  2  0
  9 10  1  0
 10 11  1  0
 10 12  1  0
 12 13  2  0
 12 34  1  0
 13 14  1  0
 13 18  1  0
 14 15  1  0
 14 35  1  0
 15 17  1  0
 15 16  1  0
 15 36  1  0
 16 17  1  0
 16 37  1  0
 16 38  1  0
 17 39  1  0
 17 40  1  0
 18 19  1  0
 20 25  1  0
 20 21  2  0
 21 22  1  0
 21 41  1  0
 22 23  2  0
 22 42  1  0
 23 24  1  0
 23 43  1  0
 24 25  2  0
 24 44  1  0
 25 45  1  0
 26 27  1  0
 26 46  1  0
 27 47  1  0
M  CHG  1  18   1
M  END
>  <DOCK_score>  (1) 
-56.545139

>  <SMILES>  (1) 
Cc1ccc([C@H](Nc2[nH]cc(NC3CC3)[nH+]2)c2ccccc2)cc1

$$$$
