O=C1CC[C@H](NC(N[C@H]2C[C@@H](Br)C2)=[NH+]Cc2ccccc2Cl)CN1
     RDKit          3D

 47 49  0  0  1  0  0  0  0  0999 V2000
  124.0559  133.6331  162.3262 O   0  0  0  0  0  0  0  0  0  0  0  0
  125.1552  133.9987  161.9670 C   0  0  0  0  0  0  0  0  0  0  0  0
  126.1616  132.9526  161.5824 C   0  0  0  0  0  0  0  0  0  0  0  0
  127.5683  133.5561  161.5884 C   0  0  0  0  0  0  0  0  0  0  0  0
  127.5363  134.8695  160.7973 C   0  0  2  0  0  0  0  0  0  0  0  0
  127.0916  134.6955  159.8176 H   0  0  0  0  0  0  0  0  0  0  0  0
  128.9001  135.3805  160.6379 N   0  0  0  0  0  0  0  0  0  0  0  0
  129.6495  135.0105  159.5464 C   0  0  0  0  0  0  0  0  0  0  0  0
  129.1192  134.1610  158.6044 N   0  0  0  0  0  0  0  0  0  0  0  0
  129.9178  133.7668  157.4411 C   0  0  1  0  0  0  0  0  0  0  0  0
  130.2228  134.6159  156.8297 H   0  0  0  0  0  0  0  0  0  0  0  0
  131.0689  132.8055  157.7814 C   0  0  0  0  0  0  0  0  0  0  0  0
  130.7261  132.0599  156.4809 C   0  0  1  0  0  0  0  0  0  0  0  0
  131.2533  132.4418  155.6068 H   0  0  0  0  0  0  0  0  0  0  0  0
  130.8311  130.1034  156.6437 Br  0  0  0  0  0  0  0  0  0  0  0  0
  129.2997  132.6148  156.6314 C   0  0  0  0  0  0  0  0  0  0  0  0
  130.8629  135.4651  159.4045 N   0  0  0  0  0  0  0  0  0  0  0  0
  131.2327  135.5913  158.5167 H   0  0  0  0  0  0  0  0  0  0  0  0
  131.6681  135.7851  160.5858 C   0  0  0  0  0  0  0  0  0  0  0  0
  131.4438  137.2245  160.9717 C   0  0  0  0  0  0  0  0  0  0  0  0
  130.5844  138.0132  160.2299 C   0  0  0  0  0  0  0  0  0  0  0  0
  130.3753  139.3322  160.5863 C   0  0  0  0  0  0  0  0  0  0  0  0
  131.0330  139.8661  161.6796 C   0  0  0  0  0  0  0  0  0  0  0  0
  131.8960  139.0801  162.4183 C   0  0  0  0  0  0  0  0  0  0  0  0
  132.1022  137.7582  162.0649 C   0  0  0  0  0  0  0  0  0  0  0  0
  133.1871  136.7704  162.9927 Cl  0  0  0  0  0  0  0  0  0  0  0  0
  126.6931  135.8854  161.5698 C   0  0  0  0  0  0  0  0  0  0  0  0
  125.4055  135.3081  161.9352 N   0  0  0  0  0  0  0  0  0  0  0  0
  125.9321  132.5789  160.5845 H   0  0  0  0  0  0  0  0  0  0  0  0
  126.1176  132.1298  162.2960 H   0  0  0  0  0  0  0  0  0  0  0  0
  127.8787  133.7531  162.6144 H   0  0  0  0  0  0  0  0  0  0  0  0
  128.2671  132.8627  161.1203 H   0  0  0  0  0  0  0  0  0  0  0  0
  129.2742  135.9798  161.3025 H   0  0  0  0  0  0  0  0  0  0  0  0
  128.2162  133.8226  158.7099 H   0  0  0  0  0  0  0  0  0  0  0  0
  132.0511  133.2781  157.7679 H   0  0  0  0  0  0  0  0  0  0  0  0
  130.8941  132.2163  158.6817 H   0  0  0  0  0  0  0  0  0  0  0  0
  128.6413  131.9735  157.2172 H   0  0  0  0  0  0  0  0  0  0  0  0
  128.8537  132.9335  155.6893 H   0  0  0  0  0  0  0  0  0  0  0  0
  131.3743  135.1375  161.4120 H   0  0  0  0  0  0  0  0  0  0  0  0
  132.7229  135.6296  160.3596 H   0  0  0  0  0  0  0  0  0  0  0  0
  130.0737  137.5977  159.3737 H   0  0  0  0  0  0  0  0  0  0  0  0
  129.7007  139.9470  160.0089 H   0  0  0  0  0  0  0  0  0  0  0  0
  130.8718  140.8979  161.9549 H   0  0  0  0  0  0  0  0  0  0  0  0
  132.4096  139.4973  163.2719 H   0  0  0  0  0  0  0  0  0  0  0  0
  126.5299  136.7654  160.9478 H   0  0  0  0  0  0  0  0  0  0  0  0
  127.2265  136.1775  162.4745 H   0  0  0  0  0  0  0  0  0  0  0  0
  124.6855  135.9145  162.1693 H   0  0  0  0  0  0  0  0  0  0  0  0
  1  2  2  0
  2 28  1  0
  2  3  1  0
  3  4  1  0
  3 29  1  0
  3 30  1  0
  4  5  1  0
  4 31  1  0
  4 32  1  0
  5  6  1  6
  5  7  1  0
  5 27  1  0
  7 33  1  0
  8  7  1  0
  8  9  1  0
  8 17  2  0
  9 10  1  0
  9 34  1  0
 10 11  1  6
 10 16  1  0
 10 12  1  0
 12 13  1  0
 12 35  1  0
 12 36  1  0
 13 14  1  6
 13 15  1  0
 13 16  1  0
 16 37  1  0
 16 38  1  0
 17 18  1  0
 17 19  1  0
 19 20  1  0
 19 39  1  0
 19 40  1  0
 20 25  1  0
 20 21  2  0
 21 22  1  0
 21 41  1  0
 22 23  2  0
 22 42  1  0
 23 24  1  0
 23 43  1  0
 24 25  2  0
 24 44  1  0
 25 26  1  0
 27 28  1  0
 27 45  1  0
 27 46  1  0
 28 47  1  0
M  CHG  1  17   1
M  END
>  <DOCK_score>  (1) 
-45.989151

>  <SMILES>  (1) 
O=C1CC[C@H](NC(N[C@H]2C[C@@H](Br)C2)=[NH+]Cc2ccccc2Cl)CN1

$$$$
