OC1CCc2cccc(OC3CC[NH+]([C@H](Cc4ccccc4)C(F)F)CC3)c2C1
     RDKit          3D

 59 62  0  0  1  0  0  0  0  0999 V2000
  124.2010  133.9488  161.0750 O   0  0  0  0  0  0  0  0  0  0  0  0
  125.2973  133.0894  160.7561 C   0  0  1  0  0  0  0  0  0  0  0  0
  124.7794  131.8308  160.0501 C   0  0  0  0  0  0  0  0  0  0  0  0
  125.9307  130.8332  159.9379 C   0  0  0  0  0  0  0  0  0  0  0  0
  127.1448  131.4907  159.3354 C   0  0  0  0  0  0  0  0  0  0  0  0
  128.1376  130.6665  158.8196 C   0  0  0  0  0  0  0  0  0  0  0  0
  129.2814  131.2043  158.2665 C   0  0  0  0  0  0  0  0  0  0  0  0
  129.4445  132.5756  158.2227 C   0  0  0  0  0  0  0  0  0  0  0  0
  128.4565  133.4007  158.7320 C   0  0  0  0  0  0  0  0  0  0  0  0
  128.6178  134.7497  158.6945 O   0  0  0  0  0  0  0  0  0  0  0  0
  129.2546  135.3584  159.8195 C   0  0  2  0  0  0  0  0  0  0  0  0
  129.3545  136.8701  159.5956 C   0  0  0  0  0  0  0  0  0  0  0  0
  130.1093  137.5048  160.7657 C   0  0  0  0  0  0  0  0  0  0  0  0
  131.4571  136.9302  160.8545 N   0  0  1  0  0  0  0  0  0  0  0  0
  131.9388  137.0678  159.9786 H   0  0  0  0  0  0  0  0  0  0  0  0
  132.2008  137.5979  161.9310 C   0  0  2  0  0  0  0  0  0  0  0  0
  131.9789  138.6648  161.9184 H   0  0  0  0  0  0  0  0  0  0  0  0
  133.7017  137.3866  161.7209 C   0  0  0  0  0  0  0  0  0  0  0  0
  134.2049  138.3562  160.6828 C   0  0  0  0  0  0  0  0  0  0  0  0
  134.2082  137.9989  159.3473 C   0  0  0  0  0  0  0  0  0  0  0  0
  134.6653  138.8900  158.3947 C   0  0  0  0  0  0  0  0  0  0  0  0
  135.1290  140.1345  158.7784 C   0  0  0  0  0  0  0  0  0  0  0  0
  135.1306  140.4897  160.1142 C   0  0  0  0  0  0  0  0  0  0  0  0
  134.6687  139.6007  161.0664 C   0  0  0  0  0  0  0  0  0  0  0  0
  131.7866  137.0065  163.2800 C   0  0  0  0  0  0  0  0  0  0  0  0
  132.4577  135.7962  163.4843 F   0  0  0  0  0  0  0  0  0  0  0  0
  132.1174  137.9018  164.3029 F   0  0  0  0  0  0  0  0  0  0  0  0
  131.3681  135.4935  161.1415 C   0  0  0  0  0  0  0  0  0  0  0  0
  130.6633  134.7811  159.9850 C   0  0  0  0  0  0  0  0  0  0  0  0
  127.3000  132.8567  159.2884 C   0  0  0  0  0  0  0  0  0  0  0  0
  126.2583  133.8101  159.8128 C   0  0  0  0  0  0  0  0  0  0  0  0
  124.4606  134.7726  161.5098 H   0  0  0  0  0  0  0  0  0  0  0  0
  125.8213  132.8085  161.6697 H   0  0  0  0  0  0  0  0  0  0  0  0
  123.9685  131.3915  160.6310 H   0  0  0  0  0  0  0  0  0  0  0  0
  124.4190  132.0904  159.0547 H   0  0  0  0  0  0  0  0  0  0  0  0
  125.6229  129.9997  159.3064 H   0  0  0  0  0  0  0  0  0  0  0  0
  126.1804  130.4581  160.9304 H   0  0  0  0  0  0  0  0  0  0  0  0
  128.0127  129.5943  158.8522 H   0  0  0  0  0  0  0  0  0  0  0  0
  130.0471  130.5550  157.8685 H   0  0  0  0  0  0  0  0  0  0  0  0
  130.3388  133.0019  157.7926 H   0  0  0  0  0  0  0  0  0  0  0  0
  128.6718  135.1610  160.7192 H   0  0  0  0  0  0  0  0  0  0  0  0
  129.8921  137.0660  158.6679 H   0  0  0  0  0  0  0  0  0  0  0  0
  128.3530  137.2957  159.5333 H   0  0  0  0  0  0  0  0  0  0  0  0
  129.5699  137.3099  161.6925 H   0  0  0  0  0  0  0  0  0  0  0  0
  130.1833  138.5808  160.6082 H   0  0  0  0  0  0  0  0  0  0  0  0
  134.2273  137.5553  162.6608 H   0  0  0  0  0  0  0  0  0  0  0  0
  133.8811  136.3662  161.3823 H   0  0  0  0  0  0  0  0  0  0  0  0
  133.8500  137.0250  159.0481 H   0  0  0  0  0  0  0  0  0  0  0  0
  134.6642  138.6125  157.3509 H   0  0  0  0  0  0  0  0  0  0  0  0
  135.4902  140.8291  158.0343 H   0  0  0  0  0  0  0  0  0  0  0  0
  135.4932  141.4619  160.4140 H   0  0  0  0  0  0  0  0  0  0  0  0
  134.6703  139.8780  162.1102 H   0  0  0  0  0  0  0  0  0  0  0  0
  130.7109  136.8308  163.2846 H   0  0  0  0  0  0  0  0  0  0  0  0
  130.8017  135.3414  162.0604 H   0  0  0  0  0  0  0  0  0  0  0  0
  132.3715  135.0850  161.2617 H   0  0  0  0  0  0  0  0  0  0  0  0
  130.5966  133.7148  160.2009 H   0  0  0  0  0  0  0  0  0  0  0  0
  131.2287  134.9316  159.0653 H   0  0  0  0  0  0  0  0  0  0  0  0
  126.7506  134.6200  160.3509 H   0  0  0  0  0  0  0  0  0  0  0  0
  125.6963  134.2243  158.9756 H   0  0  0  0  0  0  0  0  0  0  0  0
  1  2  1  0
  1 32  1  0
  2 31  1  0
  2  3  1  0
  2 33  1  1
  3  4  1  0
  3 34  1  0
  3 35  1  0
  4  5  1  0
  4 36  1  0
  4 37  1  0
  5 30  2  0
  5  6  1  0
  6  7  2  0
  6 38  1  0
  7  8  1  0
  7 39  1  0
  8  9  2  0
  8 40  1  0
  9 10  1  0
  9 30  1  0
 10 11  1  0
 11 29  1  0
 11 12  1  0
 11 41  1  1
 12 13  1  0
 12 42  1  0
 12 43  1  0
 13 14  1  0
 13 44  1  0
 13 45  1  0
 14 15  1  6
 14 16  1  0
 14 28  1  0
 16 17  1  1
 16 18  1  0
 16 25  1  0
 18 19  1  0
 18 46  1  0
 18 47  1  0
 19 24  1  0
 19 20  2  0
 20 21  1  0
 20 48  1  0
 21 22  2  0
 21 49  1  0
 22 23  1  0
 22 50  1  0
 23 24  2  0
 23 51  1  0
 24 52  1  0
 25 26  1  0
 25 27  1  0
 25 53  1  0
 28 29  1  0
 28 54  1  0
 28 55  1  0
 29 56  1  0
 29 57  1  0
 30 31  1  0
 31 58  1  0
 31 59  1  0
M  CHG  1  14   1
M  END
>  <DOCK_score>  (1) 
-42.779831

>  <SMILES>  (1) 
OC1CCc2cccc(OC3CC[NH+]([C@H](Cc4ccccc4)C(F)F)CC3)c2C1

$$$$
