CCc1ccc(-c2c[nH]c(N[C@H](C)c3ccc(-c4ccccc4Cl)cc3)[nH+]2)cc1
     RDKit          3D

 54 57  0  0  1  0  0  0  0  0999 V2000
  129.7969  128.8737  151.1780 C   0  0  0  0  0  0  0  0  0  0  0  0
  131.0394  129.6818  151.5554 C   0  0  0  0  0  0  0  0  0  0  0  0
  130.7901  130.4120  152.8499 C   0  0  0  0  0  0  0  0  0  0  0  0
  131.1014  129.8057  154.0540 C   0  0  0  0  0  0  0  0  0  0  0  0
  130.8750  130.4696  155.2425 C   0  0  0  0  0  0  0  0  0  0  0  0
  130.3321  131.7533  155.2281 C   0  0  0  0  0  0  0  0  0  0  0  0
  130.0867  132.4720  156.5022 C   0  0  0  0  0  0  0  0  0  0  0  0
  129.2752  132.0599  157.5075 C   0  0  0  0  0  0  0  0  0  0  0  0
  129.3405  133.0172  158.4905 N   0  0  0  0  0  0  0  0  0  0  0  0
  128.8679  133.0042  159.3375 H   0  0  0  0  0  0  0  0  0  0  0  0
  130.1907  133.9874  158.0568 C   0  0  0  0  0  0  0  0  0  0  0  0
  130.5267  135.1355  158.7534 N   0  0  0  0  0  0  0  0  0  0  0  0
  129.9500  135.3845  160.0769 C   0  0  2  0  0  0  0  0  0  0  0  0
  129.9138  134.4512  160.6388 H   0  0  0  0  0  0  0  0  0  0  0  0
  128.5334  135.9404  159.9196 C   0  0  0  0  0  0  0  0  0  0  0  0
  130.8025  136.3834  160.8164 C   0  0  0  0  0  0  0  0  0  0  0  0
  130.9946  137.6482  160.2906 C   0  0  0  0  0  0  0  0  0  0  0  0
  131.7703  138.5686  160.9661 C   0  0  0  0  0  0  0  0  0  0  0  0
  132.3686  138.2181  162.1747 C   0  0  0  0  0  0  0  0  0  0  0  0
  133.2082  139.2014  162.9026 C   0  0  0  0  0  0  0  0  0  0  0  0
  132.6301  140.0593  163.8363 C   0  0  0  0  0  0  0  0  0  0  0  0
  133.4165  140.9680  164.5146 C   0  0  0  0  0  0  0  0  0  0  0  0
  134.7750  141.0367  164.2613 C   0  0  0  0  0  0  0  0  0  0  0  0
  135.3539  140.1923  163.3319 C   0  0  0  0  0  0  0  0  0  0  0  0
  134.5776  139.2745  162.6509 C   0  0  0  0  0  0  0  0  0  0  0  0
  135.3053  138.2151  161.4839 Cl  0  0  0  0  0  0  0  0  0  0  0  0
  132.1759  136.9408  162.6972 C   0  0  0  0  0  0  0  0  0  0  0  0
  131.3943  136.0300  162.0157 C   0  0  0  0  0  0  0  0  0  0  0  0
  130.6346  133.6581  156.8683 N   0  0  0  0  0  0  0  0  0  0  0  0
  131.2553  134.1792  156.3354 H   0  0  0  0  0  0  0  0  0  0  0  0
  130.0156  132.3568  154.0123 C   0  0  0  0  0  0  0  0  0  0  0  0
  130.2521  131.6859  152.8297 C   0  0  0  0  0  0  0  0  0  0  0  0
  129.9773  128.3456  150.2417 H   0  0  0  0  0  0  0  0  0  0  0  0
  129.5790  128.1526  151.9657 H   0  0  0  0  0  0  0  0  0  0  0  0
  128.9485  129.5474  151.0573 H   0  0  0  0  0  0  0  0  0  0  0  0
  131.2579  130.4028  150.7679 H   0  0  0  0  0  0  0  0  0  0  0  0
  131.8885  129.0079  151.6763 H   0  0  0  0  0  0  0  0  0  0  0  0
  131.5216  128.8109  154.0640 H   0  0  0  0  0  0  0  0  0  0  0  0
  131.1183  129.9956  156.1820 H   0  0  0  0  0  0  0  0  0  0  0  0
  128.6893  131.1530  157.5306 H   0  0  0  0  0  0  0  0  0  0  0  0
  131.1440  135.7752  158.3652 H   0  0  0  0  0  0  0  0  0  0  0  0
  127.9168  135.2179  159.3847 H   0  0  0  0  0  0  0  0  0  0  0  0
  128.1044  136.1256  160.9043 H   0  0  0  0  0  0  0  0  0  0  0  0
  128.5697  136.8737  159.3577 H   0  0  0  0  0  0  0  0  0  0  0  0
  130.5334  137.9175  159.3519 H   0  0  0  0  0  0  0  0  0  0  0  0
  131.9166  139.5571  160.5565 H   0  0  0  0  0  0  0  0  0  0  0  0
  131.5691  140.0102  164.0316 H   0  0  0  0  0  0  0  0  0  0  0  0
  132.9700  141.6302  165.2415 H   0  0  0  0  0  0  0  0  0  0  0  0
  135.3856  141.7524  164.7916 H   0  0  0  0  0  0  0  0  0  0  0  0
  136.4148  140.2504  163.1379 H   0  0  0  0  0  0  0  0  0  0  0  0
  132.6376  136.6639  163.6333 H   0  0  0  0  0  0  0  0  0  0  0  0
  131.2443  135.0398  162.4196 H   0  0  0  0  0  0  0  0  0  0  0  0
  129.5904  133.3493  153.9955 H   0  0  0  0  0  0  0  0  0  0  0  0
  130.0117  132.1544  151.8868 H   0  0  0  0  0  0  0  0  0  0  0  0
  1  2  1  0
  1 33  1  0
  1 34  1  0
  1 35  1  0
  2  3  1  0
  2 36  1  0
  2 37  1  0
  3 32  2  0
  3  4  1  0
  4  5  2  0
  4 38  1  0
  5  6  1  0
  5 39  1  0
  6  7  1  0
  6 31  2  0
  7 29  1  0
  7  8  2  0
  8  9  1  0
  8 40  1  0
  9 10  1  0
  9 11  1  0
 11 12  1  0
 11 29  2  0
 12 13  1  0
 12 41  1  0
 13 14  1  1
 13 15  1  0
 13 16  1  0
 15 42  1  0
 15 43  1  0
 15 44  1  0
 16 28  1  0
 16 17  2  0
 17 18  1  0
 17 45  1  0
 18 19  2  0
 18 46  1  0
 19 20  1  0
 19 27  1  0
 20 25  1  0
 20 21  2  0
 21 22  1  0
 21 47  1  0
 22 23  2  0
 22 48  1  0
 23 24  1  0
 23 49  1  0
 24 25  2  0
 24 50  1  0
 25 26  1  0
 27 28  2  0
 27 51  1  0
 28 52  1  0
 29 30  1  0
 31 32  1  0
 31 53  1  0
 32 54  1  0
M  CHG  1  29   1
M  END
>  <DOCK_score>  (1) 
-58.459248

>  <SMILES>  (1) 
CCc1ccc(-c2c[nH]c(N[C@H](C)c3ccc(-c4ccccc4Cl)cc3)[nH+]2)cc1

$$$$
