Cn1cc(CCN(C(=O)[C@@H]2C=C[C@H]([NH3+])C2)[C@@H]2C=C(c3ccccc3)C2)cn1
     RDKit          3D

 54 57  0  0  1  0  0  0  0  0999 V2000
  126.4331  139.5647  165.8872 C   0  0  0  0  0  0  0  0  0  0  0  0
  126.4190  138.4244  164.9677 N   0  0  0  0  0  0  0  0  0  0  0  0
  127.4998  137.8448  164.4049 C   0  0  0  0  0  0  0  0  0  0  0  0
  127.0635  136.8318  163.6210 C   0  0  0  0  0  0  0  0  0  0  0  0
  127.9280  135.9122  162.7977 C   0  0  0  0  0  0  0  0  0  0  0  0
  128.1152  136.5044  161.3994 C   0  0  0  0  0  0  0  0  0  0  0  0
  128.9555  135.6103  160.5989 N   0  0  0  0  0  0  0  0  0  0  0  0
  130.2943  135.7654  160.5980 C   0  0  0  0  0  0  0  0  0  0  0  0
  130.9901  135.0253  159.9354 O   0  0  0  0  0  0  0  0  0  0  0  0
  130.9268  136.8586  161.4202 C   0  0  2  0  0  0  0  0  0  0  0  0
  130.3236  137.0677  162.3038 H   0  0  0  0  0  0  0  0  0  0  0  0
  131.0968  138.1100  160.5907 C   0  0  0  0  0  0  0  0  0  0  0  0
  132.3343  138.2506  160.2002 C   0  0  0  0  0  0  0  0  0  0  0  0
  133.1960  137.1164  160.7044 C   0  0  2  0  0  0  0  0  0  0  0  0
  134.1356  137.5007  161.1010 H   0  0  0  0  0  0  0  0  0  0  0  0
  133.4532  136.1513  159.6272 N   0  0  0  0  0  0  0  0  0  0  0  0
  133.9732  136.6017  158.8890 H   0  0  0  0  0  0  0  0  0  0  0  0
  133.9875  135.3763  159.9904 H   0  0  0  0  0  0  0  0  0  0  0  0
  132.5755  135.8128  159.2622 H   0  0  0  0  0  0  0  0  0  0  0  0
  132.3650  136.4583  161.8302 C   0  0  0  0  0  0  0  0  0  0  0  0
  128.3407  134.5477  159.7995 C   0  0  2  0  0  0  0  0  0  0  0  0
  127.2546  134.5329  159.8899 H   0  0  0  0  0  0  0  0  0  0  0  0
  128.9729  133.1971  160.0216 C   0  0  0  0  0  0  0  0  0  0  0  0
  129.3880  133.1921  158.7618 C   0  0  0  0  0  0  0  0  0  0  0  0
  130.1611  132.1885  158.0002 C   0  0  0  0  0  0  0  0  0  0  0  0
  130.4749  132.4155  156.6598 C   0  0  0  0  0  0  0  0  0  0  0  0
  131.2019  131.4773  155.9562 C   0  0  0  0  0  0  0  0  0  0  0  0
  131.6099  130.3086  156.5739 C   0  0  0  0  0  0  0  0  0  0  0  0
  131.2968  130.0748  157.9010 C   0  0  0  0  0  0  0  0  0  0  0  0
  130.5754  131.0076  158.6174 C   0  0  0  0  0  0  0  0  0  0  0  0
  128.8245  134.5298  158.3476 C   0  0  0  0  0  0  0  0  0  0  0  0
  125.6688  136.7852  163.7148 C   0  0  0  0  0  0  0  0  0  0  0  0
  125.2812  137.7393  164.5218 N   0  0  0  0  0  0  0  0  0  0  0  0
  126.5123  139.2038  166.9126 H   0  0  0  0  0  0  0  0  0  0  0  0
  127.2864  140.2039  165.6602 H   0  0  0  0  0  0  0  0  0  0  0  0
  125.5113  140.1352  165.7729 H   0  0  0  0  0  0  0  0  0  0  0  0
  128.5287  138.1385  164.5517 H   0  0  0  0  0  0  0  0  0  0  0  0
  127.4480  134.9368  162.7179 H   0  0  0  0  0  0  0  0  0  0  0  0
  128.9001  135.8006  163.2780 H   0  0  0  0  0  0  0  0  0  0  0  0
  128.5952  137.4797  161.4790 H   0  0  0  0  0  0  0  0  0  0  0  0
  127.1430  136.6161  160.9190 H   0  0  0  0  0  0  0  0  0  0  0  0
  130.2991  138.7979  160.3523 H   0  0  0  0  0  0  0  0  0  0  0  0
  132.6950  139.0701  159.5964 H   0  0  0  0  0  0  0  0  0  0  0  0
  132.4881  135.3753  161.8254 H   0  0  0  0  0  0  0  0  0  0  0  0
  132.6246  136.8756  162.8032 H   0  0  0  0  0  0  0  0  0  0  0  0
  129.0538  132.5177  160.8571 H   0  0  0  0  0  0  0  0  0  0  0  0
  130.1531  133.3254  156.1752 H   0  0  0  0  0  0  0  0  0  0  0  0
  131.4492  131.6538  154.9198 H   0  0  0  0  0  0  0  0  0  0  0  0
  132.1753  129.5756  156.0176 H   0  0  0  0  0  0  0  0  0  0  0  0
  131.6180  129.1603  158.3774 H   0  0  0  0  0  0  0  0  0  0  0  0
  130.3315  130.8239  159.6533 H   0  0  0  0  0  0  0  0  0  0  0  0
  128.0259  134.4724  157.6081 H   0  0  0  0  0  0  0  0  0  0  0  0
  129.5773  135.2830  158.1149 H   0  0  0  0  0  0  0  0  0  0  0  0
  125.0231  136.0828  163.2088 H   0  0  0  0  0  0  0  0  0  0  0  0
  1  2  1  0
  1 34  1  0
  1 35  1  0
  1 36  1  0
  2 33  1  0
  2  3  1  0
  3  4  2  0
  3 37  1  0
  4  5  1  0
  4 32  1  0
  5  6  1  0
  5 38  1  0
  5 39  1  0
  6  7  1  0
  6 40  1  0
  6 41  1  0
  7  8  1  0
  7 21  1  0
  8  9  2  0
  8 10  1  0
 10 11  1  1
 10 20  1  0
 10 12  1  0
 12 13  2  0
 12 42  1  0
 13 14  1  0
 13 43  1  0
 14 15  1  1
 14 16  1  0
 14 20  1  0
 16 17  1  0
 16 18  1  0
 16 19  1  0
 20 44  1  0
 20 45  1  0
 21 22  1  6
 21 31  1  0
 21 23  1  0
 23 24  2  0
 23 46  1  0
 24 25  1  0
 24 31  1  0
 25 30  1  0
 25 26  2  0
 26 27  1  0
 26 47  1  0
 27 28  2  0
 27 48  1  0
 28 29  1  0
 28 49  1  0
 29 30  2  0
 29 50  1  0
 30 51  1  0
 31 52  1  0
 31 53  1  0
 32 33  2  0
 32 54  1  0
M  CHG  1  16   1
M  END
>  <DOCK_score>  (1) 
-41.565857

>  <SMILES>  (1) 
Cn1cc(CCN(C(=O)[C@@H]2C=C[C@H]([NH3+])C2)[C@@H]2C=C(c3ccccc3)C2)cn1

$$$$
