CC(C)Oc1ccccc1[C@H](C)[NH+]=C(NC1CCC(=O)NC1)NC1COc2cc(Cl)ccc2C1
     RDKit          3D

 68 71  0  0  1  0  0  0  0  0999 V2000
  129.9274  135.9082  165.9348 C   0  0  0  0  0  0  0  0  0  0  0  0
  131.0511  136.0492  164.9060 C   0  0  0  0  0  0  0  0  0  0  0  0
  132.0984  134.9591  165.1417 C   0  0  0  0  0  0  0  0  0  0  0  0
  130.5112  135.9143  163.5896 O   0  0  0  0  0  0  0  0  0  0  0  0
  130.6655  136.9704  162.7483 C   0  0  0  0  0  0  0  0  0  0  0  0
  130.1301  138.2068  163.0796 C   0  0  0  0  0  0  0  0  0  0  0  0
  130.2879  139.2784  162.2226 C   0  0  0  0  0  0  0  0  0  0  0  0
  130.9789  139.1199  161.0353 C   0  0  0  0  0  0  0  0  0  0  0  0
  131.5134  137.8890  160.7030 C   0  0  0  0  0  0  0  0  0  0  0  0
  131.3582  136.8139  161.5567 C   0  0  0  0  0  0  0  0  0  0  0  0
  131.9415  135.4725  161.1941 C   0  0  2  0  0  0  0  0  0  0  0  0
  131.7192  134.7544  161.9834 H   0  0  0  0  0  0  0  0  0  0  0  0
  133.4576  135.6019  161.0345 C   0  0  0  0  0  0  0  0  0  0  0  0
  131.3554  135.0098  159.9337 N   0  0  0  0  0  0  0  0  0  0  0  0
  131.9255  134.8382  159.1680 H   0  0  0  0  0  0  0  0  0  0  0  0
  130.0679  134.8284  159.8415 C   0  0  0  0  0  0  0  0  0  0  0  0
  129.2599  135.0715  160.9270 N   0  0  0  0  0  0  0  0  0  0  0  0
  127.8129  134.8677  160.8232 C   0  0  1  0  0  0  0  0  0  0  0  0
  127.4653  133.4306  161.2300 C   0  0  0  0  0  0  0  0  0  0  0  0
  125.9817  133.1908  160.9391 C   0  0  0  0  0  0  0  0  0  0  0  0
  125.1622  134.3160  161.5027 C   0  0  0  0  0  0  0  0  0  0  0  0
  123.9717  134.1397  161.6529 O   0  0  0  0  0  0  0  0  0  0  0  0
  125.6735  135.4985  161.8471 N   0  0  0  0  0  0  0  0  0  0  0  0
  127.0899  135.8344  161.7620 C   0  0  0  0  0  0  0  0  0  0  0  0
  129.5179  134.3941  158.6587 N   0  0  0  0  0  0  0  0  0  0  0  0
  130.2955  133.5370  157.7604 C   0  0  1  0  0  0  0  0  0  0  0  0
  130.6531  132.2277  158.4758 C   0  0  0  0  0  0  0  0  0  0  0  0
  131.4956  131.4601  157.6151 O   0  0  0  0  0  0  0  0  0  0  0  0
  131.0984  131.2865  156.3276 C   0  0  0  0  0  0  0  0  0  0  0  0
  131.6873  130.2696  155.5828 C   0  0  0  0  0  0  0  0  0  0  0  0
  131.3134  130.0645  154.2695 C   0  0  0  0  0  0  0  0  0  0  0  0
  132.0515  128.7948  153.3440 Cl  0  0  0  0  0  0  0  0  0  0  0  0
  130.3496  130.8727  153.6916 C   0  0  0  0  0  0  0  0  0  0  0  0
  129.7625  131.8813  154.4293 C   0  0  0  0  0  0  0  0  0  0  0  0
  130.1328  132.0904  155.7476 C   0  0  0  0  0  0  0  0  0  0  0  0
  129.4621  133.1961  156.5226 C   0  0  0  0  0  0  0  0  0  0  0  0
  129.4615  134.9282  165.8319 H   0  0  0  0  0  0  0  0  0  0  0  0
  130.3393  136.0110  166.9387 H   0  0  0  0  0  0  0  0  0  0  0  0
  129.1814  136.6849  165.7667 H   0  0  0  0  0  0  0  0  0  0  0  0
  131.5171  137.0292  165.0088 H   0  0  0  0  0  0  0  0  0  0  0  0
  132.8988  135.0595  164.4087 H   0  0  0  0  0  0  0  0  0  0  0  0
  132.5101  135.0620  166.1457 H   0  0  0  0  0  0  0  0  0  0  0  0
  131.6324  133.9791  165.0388 H   0  0  0  0  0  0  0  0  0  0  0  0
  129.5900  138.3311  164.0065 H   0  0  0  0  0  0  0  0  0  0  0  0
  129.8711  140.2411  162.4798 H   0  0  0  0  0  0  0  0  0  0  0  0
  131.1014  139.9591  160.3666 H   0  0  0  0  0  0  0  0  0  0  0  0
  132.0564  137.7688  159.7772 H   0  0  0  0  0  0  0  0  0  0  0  0
  133.8407  136.3128  161.7667 H   0  0  0  0  0  0  0  0  0  0  0  0
  133.9240  134.6298  161.1936 H   0  0  0  0  0  0  0  0  0  0  0  0
  133.6882  135.9556  160.0296 H   0  0  0  0  0  0  0  0  0  0  0  0
  129.6480  135.3780  161.7615 H   0  0  0  0  0  0  0  0  0  0  0  0
  127.4911  135.0452  159.7970 H   0  0  0  0  0  0  0  0  0  0  0  0
  128.0700  132.7298  160.6544 H   0  0  0  0  0  0  0  0  0  0  0  0
  127.6574  133.2938  162.2941 H   0  0  0  0  0  0  0  0  0  0  0  0
  125.8283  133.1356  159.8613 H   0  0  0  0  0  0  0  0  0  0  0  0
  125.6699  132.2525  161.3977 H   0  0  0  0  0  0  0  0  0  0  0  0
  125.0645  136.1796  162.1727 H   0  0  0  0  0  0  0  0  0  0  0  0
  127.5333  135.7708  162.7556 H   0  0  0  0  0  0  0  0  0  0  0  0
  127.2000  136.8516  161.3861 H   0  0  0  0  0  0  0  0  0  0  0  0
  128.6149  134.6550  158.4190 H   0  0  0  0  0  0  0  0  0  0  0  0
  131.2078  134.0522  157.4595 H   0  0  0  0  0  0  0  0  0  0  0  0
  131.1802  132.4487  159.4040 H   0  0  0  0  0  0  0  0  0  0  0  0
  129.7435  131.6683  158.6937 H   0  0  0  0  0  0  0  0  0  0  0  0
  132.4395  129.6389  156.0330 H   0  0  0  0  0  0  0  0  0  0  0  0
  130.0573  130.7144  152.6640 H   0  0  0  0  0  0  0  0  0  0  0  0
  129.0109  132.5107  153.9761 H   0  0  0  0  0  0  0  0  0  0  0  0
  128.4689  132.8712  156.8324 H   0  0  0  0  0  0  0  0  0  0  0  0
  129.3732  134.0799  155.8906 H   0  0  0  0  0  0  0  0  0  0  0  0
  1  2  1  0
  1 37  1  0
  1 38  1  0
  1 39  1  0
  2  3  1  0
  2  4  1  0
  2 40  1  0
  3 41  1  0
  3 42  1  0
  3 43  1  0
  4  5  1  0
  5 10  2  0
  5  6  1  0
  6  7  2  0
  6 44  1  0
  7  8  1  0
  7 45  1  0
  8  9  2  0
  8 46  1  0
  9 10  1  0
  9 47  1  0
 10 11  1  0
 11 12  1  1
 11 13  1  0
 11 14  1  0
 13 48  1  0
 13 49  1  0
 13 50  1  0
 14 15  1  0
 16 14  2  0
 16 17  1  0
 16 25  1  0
 17 18  1  0
 17 51  1  0
 18 24  1  0
 18 19  1  0
 18 52  1  6
 19 20  1  0
 19 53  1  0
 19 54  1  0
 20 21  1  0
 20 55  1  0
 20 56  1  0
 21 22  2  0
 21 23  1  0
 23 24  1  0
 23 57  1  0
 24 58  1  0
 24 59  1  0
 25 26  1  0
 25 60  1  0
 26 36  1  0
 26 27  1  0
 26 61  1  6
 27 28  1  0
 27 62  1  0
 27 63  1  0
 28 29  1  0
 29 35  2  0
 29 30  1  0
 30 31  2  0
 30 64  1  0
 31 32  1  0
 31 33  1  0
 33 34  2  0
 33 65  1  0
 34 35  1  0
 34 66  1  0
 35 36  1  0
 36 67  1  0
 36 68  1  0
M  CHG  1  14   1
M  END
>  <DOCK_score>  (1) 
-52.41832

>  <SMILES>  (1) 
CC(C)Oc1ccccc1[C@H](C)[NH+]=C(NC1CCC(=O)NC1)NC1COc2cc(Cl)ccc2C1

$$$$
