C[C@H](c1ccc(C2=CCC=CC2)cc1)[NH+]1CCC(C(=O)Nc2cccc(F)c2)CC1
     RDKit          3D

 60 63  0  0  1  0  0  0  0  0999 V2000
  130.2918  137.9684  160.1813 C   0  0  0  0  0  0  0  0  0  0  0  0
  130.5102  136.5169  160.6131 C   0  0  2  0  0  0  0  0  0  0  0  0
  129.7081  136.2133  161.2857 H   0  0  0  0  0  0  0  0  0  0  0  0
  131.8338  136.3979  161.3238 C   0  0  0  0  0  0  0  0  0  0  0  0
  133.0026  136.7314  160.6632 C   0  0  0  0  0  0  0  0  0  0  0  0
  134.2175  136.6257  161.3084 C   0  0  0  0  0  0  0  0  0  0  0  0
  134.2656  136.1807  162.6300 C   0  0  0  0  0  0  0  0  0  0  0  0
  135.5643  136.0590  163.3255 C   0  0  0  0  0  0  0  0  0  0  0  0
  135.9331  134.8785  163.7715 C   0  0  0  0  0  0  0  0  0  0  0  0
  137.2306  134.6543  164.4886 C   0  0  0  0  0  0  0  0  0  0  0  0
  138.2005  135.7635  164.2137 C   0  0  0  0  0  0  0  0  0  0  0  0
  137.8365  136.9287  163.7739 C   0  0  0  0  0  0  0  0  0  0  0  0
  136.4109  137.2856  163.4887 C   0  0  0  0  0  0  0  0  0  0  0  0
  133.0831  135.8454  163.2906 C   0  0  0  0  0  0  0  0  0  0  0  0
  131.8747  135.9561  162.6342 C   0  0  0  0  0  0  0  0  0  0  0  0
  130.5108  135.6484  159.4284 N   0  0  1  0  0  0  0  0  0  0  0  0
  131.0053  136.1060  158.6773 H   0  0  0  0  0  0  0  0  0  0  0  0
  131.1789  134.3822  159.7521 C   0  0  0  0  0  0  0  0  0  0  0  0
  131.2558  133.5068  158.4993 C   0  0  0  0  0  0  0  0  0  0  0  0
  129.8377  133.2217  157.9964 C   0  0  2  0  0  0  0  0  0  0  0  0
  129.9066  132.4249  156.7192 C   0  0  0  0  0  0  0  0  0  0  0  0
  129.3913  131.3286  156.6597 O   0  0  0  0  0  0  0  0  0  0  0  0
  130.5410  132.9306  155.6428 N   0  0  0  0  0  0  0  0  0  0  0  0
  130.6051  132.1908  154.4569 C   0  0  0  0  0  0  0  0  0  0  0  0
  130.6557  132.8434  153.2318 C   0  0  0  0  0  0  0  0  0  0  0  0
  130.7248  132.1118  152.0625 C   0  0  0  0  0  0  0  0  0  0  0  0
  130.7316  130.7298  152.1088 C   0  0  0  0  0  0  0  0  0  0  0  0
  130.6754  130.0752  153.3279 C   0  0  0  0  0  0  0  0  0  0  0  0
  130.6827  128.7248  153.3702 F   0  0  0  0  0  0  0  0  0  0  0  0
  130.6125  130.8035  154.5025 C   0  0  0  0  0  0  0  0  0  0  0  0
  129.1233  134.5504  157.7331 C   0  0  0  0  0  0  0  0  0  0  0  0
  129.1270  135.3879  159.0138 C   0  0  0  0  0  0  0  0  0  0  0  0
  131.0940  138.2719  159.5086 H   0  0  0  0  0  0  0  0  0  0  0  0
  129.3345  138.0545  159.6672 H   0  0  0  0  0  0  0  0  0  0  0  0
  130.2914  138.6128  161.0604 H   0  0  0  0  0  0  0  0  0  0  0  0
  132.9640  137.0757  159.6402 H   0  0  0  0  0  0  0  0  0  0  0  0
  135.1293  136.8863  160.7917 H   0  0  0  0  0  0  0  0  0  0  0  0
  135.2753  134.0365  163.6148 H   0  0  0  0  0  0  0  0  0  0  0  0
  137.0418  134.6024  165.5608 H   0  0  0  0  0  0  0  0  0  0  0  0
  137.6642  133.7111  164.1561 H   0  0  0  0  0  0  0  0  0  0  0  0
  139.2509  135.5847  164.3901 H   0  0  0  0  0  0  0  0  0  0  0  0
  138.5978  137.6750  163.6013 H   0  0  0  0  0  0  0  0  0  0  0  0
  136.3647  137.8760  162.5737 H   0  0  0  0  0  0  0  0  0  0  0  0
  136.0233  137.8799  164.3161 H   0  0  0  0  0  0  0  0  0  0  0  0
  133.1138  135.5000  164.3134 H   0  0  0  0  0  0  0  0  0  0  0  0
  130.9585  135.6977  163.1444 H   0  0  0  0  0  0  0  0  0  0  0  0
  132.1868  134.5858  160.1138 H   0  0  0  0  0  0  0  0  0  0  0  0
  130.6146  133.8615  160.5259 H   0  0  0  0  0  0  0  0  0  0  0  0
  131.7517  132.5670  158.7419 H   0  0  0  0  0  0  0  0  0  0  0  0
  131.8192  134.0263  157.7242 H   0  0  0  0  0  0  0  0  0  0  0  0
  129.2901  132.6567  158.7507 H   0  0  0  0  0  0  0  0  0  0  0  0
  130.9530  133.8074  155.6905 H   0  0  0  0  0  0  0  0  0  0  0  0
  130.6456  133.9227  153.1938 H   0  0  0  0  0  0  0  0  0  0  0  0
  130.7690  132.6195  151.1104 H   0  0  0  0  0  0  0  0  0  0  0  0
  130.7811  130.1599  151.1927 H   0  0  0  0  0  0  0  0  0  0  0  0
  130.5694  130.2933  155.4535 H   0  0  0  0  0  0  0  0  0  0  0  0
  128.0950  134.3567  157.4279 H   0  0  0  0  0  0  0  0  0  0  0  0
  129.6423  135.0924  156.9424 H   0  0  0  0  0  0  0  0  0  0  0  0
  128.6076  134.8452  159.8037 H   0  0  0  0  0  0  0  0  0  0  0  0
  128.6189  136.3345  158.8300 H   0  0  0  0  0  0  0  0  0  0  0  0
  1  2  1  0
  1 33  1  0
  1 34  1  0
  1 35  1  0
  2  3  1  1
  2  4  1  0
  2 16  1  0
  4 15  1  0
  4  5  2  0
  5  6  1  0
  5 36  1  0
  6  7  2  0
  6 37  1  0
  7  8  1  0
  7 14  1  0
  8 13  1  0
  8  9  2  0
  9 10  1  0
  9 38  1  0
 10 11  1  0
 10 39  1  0
 10 40  1  0
 11 12  2  0
 11 41  1  0
 12 13  1  0
 12 42  1  0
 13 43  1  0
 13 44  1  0
 14 15  2  0
 14 45  1  0
 15 46  1  0
 16 17  1  6
 16 32  1  0
 16 18  1  0
 18 19  1  0
 18 47  1  0
 18 48  1  0
 19 20  1  0
 19 49  1  0
 19 50  1  0
 20 21  1  0
 20 31  1  0
 20 51  1  1
 21 22  2  0
 21 23  1  0
 23 24  1  0
 23 52  1  0
 24 30  1  0
 24 25  2  0
 25 26  1  0
 25 53  1  0
 26 27  2  0
 26 54  1  0
 27 28  1  0
 27 55  1  0
 28 29  1  0
 28 30  2  0
 30 56  1  0
 31 32  1  0
 31 57  1  0
 31 58  1  0
 32 59  1  0
 32 60  1  0
M  CHG  1  16   1
M  END
>  <DOCK_score>  (1) 
-56.099232

>  <SMILES>  (1) 
C[C@H](c1ccc(C2=CCC=CC2)cc1)[NH+]1CCC(C(=O)Nc2cccc(F)c2)CC1

$$$$
