CCn1cc[nH+]c1NCc1ccc(Nc2cccc(Oc3ccccc3)c2)cc1
     RDKit          3D

 54 57  0  0  1  0  0  0  0  0999 V2000
  131.7021  130.4249  158.7415 C   0  0  0  0  0  0  0  0  0  0  0  0
  130.4552  130.2810  157.8664 C   0  0  0  0  0  0  0  0  0  0  0  0
  130.5833  131.1424  156.6883 N   0  0  0  0  0  0  0  0  0  0  0  0
  131.1363  130.7950  155.4764 C   0  0  0  0  0  0  0  0  0  0  0  0
  131.0564  131.8780  154.6848 C   0  0  0  0  0  0  0  0  0  0  0  0
  130.4681  132.8666  155.3794 N   0  0  0  0  0  0  0  0  0  0  0  0
  130.2873  133.7582  155.0430 H   0  0  0  0  0  0  0  0  0  0  0  0
  130.1764  132.4361  156.5840 C   0  0  0  0  0  0  0  0  0  0  0  0
  129.5632  133.1753  157.5819 N   0  0  0  0  0  0  0  0  0  0  0  0
  129.1759  134.5658  157.3306 C   0  0  0  0  0  0  0  0  0  0  0  0
  128.5336  135.1396  158.5672 C   0  0  0  0  0  0  0  0  0  0  0  0
  128.8886  136.4019  159.0065 C   0  0  0  0  0  0  0  0  0  0  0  0
  128.3018  136.9310  160.1391 C   0  0  0  0  0  0  0  0  0  0  0  0
  127.3539  136.1935  160.8375 C   0  0  0  0  0  0  0  0  0  0  0  0
  126.7584  136.7255  161.9840 N   0  0  0  0  0  0  0  0  0  0  0  0
  127.5476  137.0775  163.0817 C   0  0  0  0  0  0  0  0  0  0  0  0
  127.1494  138.1102  163.9225 C   0  0  0  0  0  0  0  0  0  0  0  0
  127.9297  138.4578  165.0079 C   0  0  0  0  0  0  0  0  0  0  0  0
  129.1073  137.7800  165.2615 C   0  0  0  0  0  0  0  0  0  0  0  0
  129.5103  136.7482  164.4252 C   0  0  0  0  0  0  0  0  0  0  0  0
  130.6687  136.0833  164.6754 O   0  0  0  0  0  0  0  0  0  0  0  0
  131.5020  135.8383  163.6305 C   0  0  0  0  0  0  0  0  0  0  0  0
  132.0820  134.5865  163.4827 C   0  0  0  0  0  0  0  0  0  0  0  0
  132.9242  134.3384  162.4162 C   0  0  0  0  0  0  0  0  0  0  0  0
  133.1983  135.3394  161.5026 C   0  0  0  0  0  0  0  0  0  0  0  0
  132.6264  136.5896  161.6510 C   0  0  0  0  0  0  0  0  0  0  0  0
  131.7790  136.8413  162.7125 C   0  0  0  0  0  0  0  0  0  0  0  0
  128.7275  136.3926  163.3376 C   0  0  0  0  0  0  0  0  0  0  0  0
  127.0038  134.9234  160.3965 C   0  0  0  0  0  0  0  0  0  0  0  0
  127.5909  134.4025  159.2602 C   0  0  0  0  0  0  0  0  0  0  0  0
  132.5827  130.1308  158.1702 H   0  0  0  0  0  0  0  0  0  0  0  0
  131.8050  131.4624  159.0593 H   0  0  0  0  0  0  0  0  0  0  0  0
  131.6069  129.7841  159.6179 H   0  0  0  0  0  0  0  0  0  0  0  0
  129.5747  130.5750  158.4375 H   0  0  0  0  0  0  0  0  0  0  0  0
  130.3523  129.2435  157.5485 H   0  0  0  0  0  0  0  0  0  0  0  0
  131.5574  129.8360  155.2132 H   0  0  0  0  0  0  0  0  0  0  0  0
  131.4058  131.9429  153.6649 H   0  0  0  0  0  0  0  0  0  0  0  0
  129.3903  132.7725  158.4471 H   0  0  0  0  0  0  0  0  0  0  0  0
  128.4672  134.6016  156.5031 H   0  0  0  0  0  0  0  0  0  0  0  0
  130.0608  135.1492  157.0765 H   0  0  0  0  0  0  0  0  0  0  0  0
  129.6255  136.9746  158.4631 H   0  0  0  0  0  0  0  0  0  0  0  0
  128.5796  137.9169  160.4816 H   0  0  0  0  0  0  0  0  0  0  0  0
  125.7976  136.8542  162.0162 H   0  0  0  0  0  0  0  0  0  0  0  0
  126.2295  138.6410  163.7271 H   0  0  0  0  0  0  0  0  0  0  0  0
  127.6187  139.2605  165.6601 H   0  0  0  0  0  0  0  0  0  0  0  0
  129.7148  138.0540  166.1113 H   0  0  0  0  0  0  0  0  0  0  0  0
  131.8718  133.8056  164.1985 H   0  0  0  0  0  0  0  0  0  0  0  0
  133.3724  133.3629  162.2983 H   0  0  0  0  0  0  0  0  0  0  0  0
  133.8603  135.1446  160.6719 H   0  0  0  0  0  0  0  0  0  0  0  0
  132.8425  137.3699  160.9362 H   0  0  0  0  0  0  0  0  0  0  0  0
  131.3326  137.8180  162.8279 H   0  0  0  0  0  0  0  0  0  0  0  0
  129.0371  135.5867  162.6885 H   0  0  0  0  0  0  0  0  0  0  0  0
  126.2705  134.3456  160.9397 H   0  0  0  0  0  0  0  0  0  0  0  0
  127.3160  133.4168  158.9145 H   0  0  0  0  0  0  0  0  0  0  0  0
  1  2  1  0
  1 31  1  0
  1 32  1  0
  1 33  1  0
  2  3  1  0
  2 34  1  0
  2 35  1  0
  3  8  1  0
  3  4  1  0
  4  5  2  0
  4 36  1  0
  5  6  1  0
  5 37  1  0
  6  7  1  0
  6  8  2  0
  8  9  1  0
  9 10  1  0
  9 38  1  0
 10 11  1  0
 10 39  1  0
 10 40  1  0
 11 30  1  0
 11 12  2  0
 12 13  1  0
 12 41  1  0
 13 14  2  0
 13 42  1  0
 14 15  1  0
 14 29  1  0
 15 16  1  0
 15 43  1  0
 16 28  1  0
 16 17  2  0
 17 18  1  0
 17 44  1  0
 18 19  2  0
 18 45  1  0
 19 20  1  0
 19 46  1  0
 20 21  1  0
 20 28  2  0
 21 22  1  0
 22 27  1  0
 22 23  2  0
 23 24  1  0
 23 47  1  0
 24 25  2  0
 24 48  1  0
 25 26  1  0
 25 49  1  0
 26 27  2  0
 26 50  1  0
 27 51  1  0
 28 52  1  0
 29 30  2  0
 29 53  1  0
 30 54  1  0
M  CHG  1   6   1
M  END
>  <DOCK_score>  (1) 
-48.192375

>  <SMILES>  (1) 
CCn1cc[nH+]c1NCc1ccc(Nc2cccc(Oc3ccccc3)c2)cc1

$$$$
