Cc1cc(CCN[C@H]2C=C([NH2+]C(Cc3ccccc3)Cc3ccccc3)CCC2)no1
     RDKit          3D

 65 68  0  0  1  0  0  0  0  0999 V2000
  131.1994  130.2544  155.2029 C   0  0  0  0  0  0  0  0  0  0  0  0
  130.5412  130.8172  156.4362 C   0  0  0  0  0  0  0  0  0  0  0  0
  130.4781  130.2368  157.6584 C   0  0  0  0  0  0  0  0  0  0  0  0
  129.7597  131.1684  158.4424 C   0  0  0  0  0  0  0  0  0  0  0  0
  129.3938  131.0314  159.8979 C   0  0  0  0  0  0  0  0  0  0  0  0
  130.5110  131.6195  160.7622 C   0  0  0  0  0  0  0  0  0  0  0  0
  130.6882  133.0402  160.4335 N   0  0  0  0  0  0  0  0  0  0  0  0
  132.0095  133.5188  160.8617 C   0  0  1  0  0  0  0  0  0  0  0  0
  132.7558  132.7516  160.6557 H   0  0  0  0  0  0  0  0  0  0  0  0
  132.3499  134.7671  160.1015 C   0  0  0  0  0  0  0  0  0  0  0  0
  132.8944  135.8142  160.6332 C   0  0  0  0  0  0  0  0  0  0  0  0
  133.1710  136.9033  159.8013 N   0  0  0  0  0  0  0  0  0  0  0  0
  132.8844  136.6875  158.8583 H   0  0  0  0  0  0  0  0  0  0  0  0
  134.1614  137.0950  159.8165 H   0  0  0  0  0  0  0  0  0  0  0  0
  132.4365  138.0827  160.2785 C   0  0  0  0  0  0  0  0  0  0  0  0
  130.9346  137.7919  160.2556 C   0  0  0  0  0  0  0  0  0  0  0  0
  130.2224  138.7549  161.1704 C   0  0  0  0  0  0  0  0  0  0  0  0
  130.0251  138.4285  162.4991 C   0  0  0  0  0  0  0  0  0  0  0  0
  129.3762  139.3139  163.3392 C   0  0  0  0  0  0  0  0  0  0  0  0
  128.9152  140.5211  162.8482 C   0  0  0  0  0  0  0  0  0  0  0  0
  129.1078  140.8451  161.5182 C   0  0  0  0  0  0  0  0  0  0  0  0
  129.7614  139.9621  160.6794 C   0  0  0  0  0  0  0  0  0  0  0  0
  132.7391  139.2746  159.3683 C   0  0  0  0  0  0  0  0  0  0  0  0
  134.2184  139.5611  159.3908 C   0  0  0  0  0  0  0  0  0  0  0  0
  134.7377  140.4422  160.3209 C   0  0  0  0  0  0  0  0  0  0  0  0
  136.0954  140.7013  160.3446 C   0  0  0  0  0  0  0  0  0  0  0  0
  136.9324  140.0872  159.4317 C   0  0  0  0  0  0  0  0  0  0  0  0
  136.4122  139.2102  158.4982 C   0  0  0  0  0  0  0  0  0  0  0  0
  135.0553  138.9471  158.4778 C   0  0  0  0  0  0  0  0  0  0  0  0
  133.2415  135.9342  162.0882 C   0  0  0  0  0  0  0  0  0  0  0  0
  133.2716  134.5494  162.7389 C   0  0  0  0  0  0  0  0  0  0  0  0
  131.9815  133.8092  162.3638 C   0  0  0  0  0  0  0  0  0  0  0  0
  129.4819  132.1707  157.6596 N   0  0  0  0  0  0  0  0  0  0  0  0
  129.9077  131.9938  156.5417 O   0  0  0  0  0  0  0  0  0  0  0  0
  131.0870  130.9577  154.3779 H   0  0  0  0  0  0  0  0  0  0  0  0
  132.2591  130.0910  155.3992 H   0  0  0  0  0  0  0  0  0  0  0  0
  130.7285  129.3073  154.9398 H   0  0  0  0  0  0  0  0  0  0  0  0
  130.8812  129.2822  157.9629 H   0  0  0  0  0  0  0  0  0  0  0  0
  129.2624  129.9773  160.1418 H   0  0  0  0  0  0  0  0  0  0  0  0
  128.4647  131.5675  160.0910 H   0  0  0  0  0  0  0  0  0  0  0  0
  131.4402  131.0833  160.5691 H   0  0  0  0  0  0  0  0  0  0  0  0
  130.2463  131.5203  161.8149 H   0  0  0  0  0  0  0  0  0  0  0  0
  130.5461  133.2039  159.4482 H   0  0  0  0  0  0  0  0  0  0  0  0
  132.1307  134.7921  159.0442 H   0  0  0  0  0  0  0  0  0  0  0  0
  132.7460  138.3158  161.2974 H   0  0  0  0  0  0  0  0  0  0  0  0
  130.5572  137.9091  159.2398 H   0  0  0  0  0  0  0  0  0  0  0  0
  130.7570  136.7709  160.5936 H   0  0  0  0  0  0  0  0  0  0  0  0
  130.3814  137.4834  162.8816 H   0  0  0  0  0  0  0  0  0  0  0  0
  129.2254  139.0605  164.3781 H   0  0  0  0  0  0  0  0  0  0  0  0
  128.4043  141.2108  163.5035 H   0  0  0  0  0  0  0  0  0  0  0  0
  128.7475  141.7881  161.1346 H   0  0  0  0  0  0  0  0  0  0  0  0
  129.9116  140.2150  159.6402 H   0  0  0  0  0  0  0  0  0  0  0  0
  132.4296  139.0415  158.3495 H   0  0  0  0  0  0  0  0  0  0  0  0
  132.1941  140.1497  159.7223 H   0  0  0  0  0  0  0  0  0  0  0  0
  134.0832  140.9252  161.0312 H   0  0  0  0  0  0  0  0  0  0  0  0
  136.5016  141.3867  161.0736 H   0  0  0  0  0  0  0  0  0  0  0  0
  137.9924  140.2930  159.4473 H   0  0  0  0  0  0  0  0  0  0  0  0
  137.0661  138.7309  157.7847 H   0  0  0  0  0  0  0  0  0  0  0  0
  134.6489  138.2621  157.7484 H   0  0  0  0  0  0  0  0  0  0  0  0
  134.2210  136.4018  162.1887 H   0  0  0  0  0  0  0  0  0  0  0  0
  132.4955  136.5521  162.5879 H   0  0  0  0  0  0  0  0  0  0  0  0
  134.1336  133.9916  162.3733 H   0  0  0  0  0  0  0  0  0  0  0  0
  133.3356  134.6548  163.8219 H   0  0  0  0  0  0  0  0  0  0  0  0
  131.9228  132.8718  162.9171 H   0  0  0  0  0  0  0  0  0  0  0  0
  131.1191  134.4311  162.6040 H   0  0  0  0  0  0  0  0  0  0  0  0
  1  2  1  0
  1 35  1  0
  1 36  1  0
  1 37  1  0
  2 34  1  0
  2  3  2  0
  3  4  1  0
  3 38  1  0
  4  5  1  0
  4 33  2  0
  5  6  1  0
  5 39  1  0
  5 40  1  0
  6  7  1  0
  6 41  1  0
  6 42  1  0
  7  8  1  0
  7 43  1  0
  8  9  1  1
  8 32  1  0
  8 10  1  0
 10 11  2  0
 10 44  1  0
 11 12  1  0
 11 30  1  0
 12 13  1  0
 12 14  1  0
 12 15  1  0
 15 16  1  0
 15 23  1  0
 15 45  1  0
 16 17  1  0
 16 46  1  0
 16 47  1  0
 17 22  1  0
 17 18  2  0
 18 19  1  0
 18 48  1  0
 19 20  2  0
 19 49  1  0
 20 21  1  0
 20 50  1  0
 21 22  2  0
 21 51  1  0
 22 52  1  0
 23 24  1  0
 23 53  1  0
 23 54  1  0
 24 29  1  0
 24 25  2  0
 25 26  1  0
 25 55  1  0
 26 27  2  0
 26 56  1  0
 27 28  1  0
 27 57  1  0
 28 29  2  0
 28 58  1  0
 29 59  1  0
 30 31  1  0
 30 60  1  0
 30 61  1  0
 31 32  1  0
 31 62  1  0
 31 63  1  0
 32 64  1  0
 32 65  1  0
 33 34  1  0
M  CHG  1  12   1
M  END
>  <DOCK_score>  (1) 
-56.659294

>  <SMILES>  (1) 
Cc1cc(CCN[C@H]2C=C([NH2+]C(Cc3ccccc3)Cc3ccccc3)CCC2)no1

$$$$
