Cc1c(OCc2ccc(F)cc2F)cccc1N1CC[NH+]([C@H](c2ccccc2)C2CCC2)CC1
     RDKit          3D

 67 71  0  0  1  0  0  0  0  0999 V2000
  133.9868  137.8801  163.7162 C   0  0  0  0  0  0  0  0  0  0  0  0
  134.4768  138.5655  162.4666 C   0  0  0  0  0  0  0  0  0  0  0  0
  135.4701  139.5290  162.5474 C   0  0  0  0  0  0  0  0  0  0  0  0
  136.0036  139.8563  163.7536 O   0  0  0  0  0  0  0  0  0  0  0  0
  135.3715  140.9143  164.4769 C   0  0  0  0  0  0  0  0  0  0  0  0
  136.3957  141.6261  165.3230 C   0  0  0  0  0  0  0  0  0  0  0  0
  136.6368  141.2039  166.6169 C   0  0  0  0  0  0  0  0  0  0  0  0
  137.5797  141.8522  167.3918 C   0  0  0  0  0  0  0  0  0  0  0  0
  138.2759  142.9327  166.8767 C   0  0  0  0  0  0  0  0  0  0  0  0
  139.1938  143.5695  167.6363 F   0  0  0  0  0  0  0  0  0  0  0  0
  138.0312  143.3599  165.5831 C   0  0  0  0  0  0  0  0  0  0  0  0
  137.0904  142.7062  164.8058 C   0  0  0  0  0  0  0  0  0  0  0  0
  136.8502  143.1223  163.5430 F   0  0  0  0  0  0  0  0  0  0  0  0
  135.9161  140.1626  161.3960 C   0  0  0  0  0  0  0  0  0  0  0  0
  135.3749  139.8307  160.1682 C   0  0  0  0  0  0  0  0  0  0  0  0
  134.3891  138.8672  160.0829 C   0  0  0  0  0  0  0  0  0  0  0  0
  133.9386  138.2293  161.2325 C   0  0  0  0  0  0  0  0  0  0  0  0
  132.9412  137.2552  161.1465 N   0  0  0  0  0  0  0  0  0  0  0  0
  131.6838  137.8314  160.6495 C   0  0  0  0  0  0  0  0  0  0  0  0
  130.6035  136.7477  160.6266 C   0  0  0  0  0  0  0  0  0  0  0  0
  131.0342  135.6451  159.7571 N   0  0  0  0  0  0  0  0  0  0  0  0
  131.1932  135.9951  158.8242 H   0  0  0  0  0  0  0  0  0  0  0  0
  129.9893  134.6133  159.7212 C   0  0  2  0  0  0  0  0  0  0  0  0
  130.0571  133.9961  160.6171 H   0  0  0  0  0  0  0  0  0  0  0  0
  130.1779  133.7496  158.5007 C   0  0  0  0  0  0  0  0  0  0  0  0
  129.5552  134.0857  157.3133 C   0  0  0  0  0  0  0  0  0  0  0  0
  129.7314  133.2955  156.1926 C   0  0  0  0  0  0  0  0  0  0  0  0
  130.5236  132.1648  156.2618 C   0  0  0  0  0  0  0  0  0  0  0  0
  131.1419  131.8258  157.4508 C   0  0  0  0  0  0  0  0  0  0  0  0
  130.9689  132.6180  158.5703 C   0  0  0  0  0  0  0  0  0  0  0  0
  128.6141  135.2818  159.6653 C   0  0  0  0  0  0  0  0  0  0  0  0
  128.0882  135.7246  161.0408 C   0  0  0  0  0  0  0  0  0  0  0  0
  126.7038  135.2332  160.5802 C   0  0  0  0  0  0  0  0  0  0  0  0
  127.4451  134.2835  159.6244 C   0  0  0  0  0  0  0  0  0  0  0  0
  132.2778  135.0640  160.2799 C   0  0  0  0  0  0  0  0  0  0  0  0
  133.3720  136.1337  160.2999 C   0  0  0  0  0  0  0  0  0  0  0  0
  134.5874  136.9896  163.9014 H   0  0  0  0  0  0  0  0  0  0  0  0
  134.0755  138.5609  164.5627 H   0  0  0  0  0  0  0  0  0  0  0  0
  132.9427  137.5939  163.5879 H   0  0  0  0  0  0  0  0  0  0  0  0
  134.9269  141.6197  163.7747 H   0  0  0  0  0  0  0  0  0  0  0  0
  134.5935  140.5014  165.1188 H   0  0  0  0  0  0  0  0  0  0  0  0
  136.0909  140.3644  167.0211 H   0  0  0  0  0  0  0  0  0  0  0  0
  137.7702  141.5188  168.4014 H   0  0  0  0  0  0  0  0  0  0  0  0
  138.5739  144.2023  165.1803 H   0  0  0  0  0  0  0  0  0  0  0  0
  136.6869  140.9165  161.4595 H   0  0  0  0  0  0  0  0  0  0  0  0
  135.7240  140.3254  159.2740 H   0  0  0  0  0  0  0  0  0  0  0  0
  133.9684  138.6091  159.1223 H   0  0  0  0  0  0  0  0  0  0  0  0
  131.8336  138.2167  159.6410 H   0  0  0  0  0  0  0  0  0  0  0  0
  131.3707  138.6431  161.3062 H   0  0  0  0  0  0  0  0  0  0  0  0
  129.6737  137.1694  160.2451 H   0  0  0  0  0  0  0  0  0  0  0  0
  130.4442  136.3723  161.6375 H   0  0  0  0  0  0  0  0  0  0  0  0
  128.9337  134.9673  157.2601 H   0  0  0  0  0  0  0  0  0  0  0  0
  129.2480  133.5602  155.2639 H   0  0  0  0  0  0  0  0  0  0  0  0
  130.6590  131.5461  155.3870 H   0  0  0  0  0  0  0  0  0  0  0  0
  131.7605  130.9421  157.5049 H   0  0  0  0  0  0  0  0  0  0  0  0
  131.4520  132.3531  159.4991 H   0  0  0  0  0  0  0  0  0  0  0  0
  128.5518  136.0586  158.9032 H   0  0  0  0  0  0  0  0  0  0  0  0
  128.5008  135.1517  161.8713 H   0  0  0  0  0  0  0  0  0  0  0  0
  128.1390  136.8015  161.2017 H   0  0  0  0  0  0  0  0  0  0  0  0
  126.1184  135.9977  160.0691 H   0  0  0  0  0  0  0  0  0  0  0  0
  126.1400  134.7177  161.3577 H   0  0  0  0  0  0  0  0  0  0  0  0
  126.9774  134.1987  158.6435 H   0  0  0  0  0  0  0  0  0  0  0  0
  127.6815  133.3159  160.0669 H   0  0  0  0  0  0  0  0  0  0  0  0
  132.1099  134.6971  161.2924 H   0  0  0  0  0  0  0  0  0  0  0  0
  132.5893  134.2376  159.6411 H   0  0  0  0  0  0  0  0  0  0  0  0
  133.5498  136.4910  159.2856 H   0  0  0  0  0  0  0  0  0  0  0  0
  134.2908  135.7066  160.7016 H   0  0  0  0  0  0  0  0  0  0  0  0
  1  2  1  0
  1 37  1  0
  1 38  1  0
  1 39  1  0
  2 17  2  0
  2  3  1  0
  3  4  1  0
  3 14  2  0
  4  5  1  0
  5  6  1  0
  5 40  1  0
  5 41  1  0
  6 12  1  0
  6  7  2  0
  7  8  1  0
  7 42  1  0
  8  9  2  0
  8 43  1  0
  9 10  1  0
  9 11  1  0
 11 12  2  0
 11 44  1  0
 12 13  1  0
 14 15  1  0
 14 45  1  0
 15 16  2  0
 15 46  1  0
 16 17  1  0
 16 47  1  0
 17 18  1  0
 18 36  1  0
 18 19  1  0
 19 20  1  0
 19 48  1  0
 19 49  1  0
 20 21  1  0
 20 50  1  0
 20 51  1  0
 21 22  1  0
 21 23  1  0
 21 35  1  0
 23 24  1  1
 23 25  1  0
 23 31  1  0
 25 30  1  0
 25 26  2  0
 26 27  1  0
 26 52  1  0
 27 28  2  0
 27 53  1  0
 28 29  1  0
 28 54  1  0
 29 30  2  0
 29 55  1  0
 30 56  1  0
 31 34  1  0
 31 32  1  0
 31 57  1  0
 32 33  1  0
 32 58  1  0
 32 59  1  0
 33 34  1  0
 33 60  1  0
 33 61  1  0
 34 62  1  0
 34 63  1  0
 35 36  1  0
 35 64  1  0
 35 65  1  0
 36 66  1  0
 36 67  1  0
M  CHG  1  21   1
M  END
>  <DOCK_score>  (1) 
-57.049725

>  <SMILES>  (1) 
Cc1c(OCc2ccc(F)cc2F)cccc1N1CC[NH+]([C@H](c2ccccc2)C2CCC2)CC1

$$$$
