CCC1CC(Nc2ccc(-c3n[nH]cc3C[NH2+][C@@H]3CC34CCCC4)o2)C1
     RDKit          3D

 57 61  0  0  1  0  0  0  0  0999 V2000
  126.6967  135.9541  167.3255 C   0  0  0  0  0  0  0  0  0  0  0  0
  126.0426  136.9374  166.3526 C   0  0  0  0  0  0  0  0  0  0  0  0
  126.9403  137.1149  165.1265 C   0  0  2  0  0  0  0  0  0  0  0  0
  126.1891  137.6109  163.8797 C   0  0  0  0  0  0  0  0  0  0  0  0
  127.0544  136.6342  163.0661 C   0  0  2  0  0  0  0  0  0  0  0  0
  126.3187  135.9426  162.0048 N   0  0  0  0  0  0  0  0  0  0  0  0
  126.9732  135.0284  161.1874 C   0  0  0  0  0  0  0  0  0  0  0  0
  126.4078  133.9450  160.5989 C   0  0  0  0  0  0  0  0  0  0  0  0
  127.4226  133.2994  159.8651 C   0  0  0  0  0  0  0  0  0  0  0  0
  128.5588  134.0235  160.0435 C   0  0  0  0  0  0  0  0  0  0  0  0
  129.8805  133.7181  159.4580 C   0  0  0  0  0  0  0  0  0  0  0  0
  130.1649  132.6978  158.6727 N   0  0  0  0  0  0  0  0  0  0  0  0
  131.5233  132.7715  158.3391 N   0  0  0  0  0  0  0  0  0  0  0  0
  132.0045  132.1481  157.7728 H   0  0  0  0  0  0  0  0  0  0  0  0
  132.0461  133.8633  158.9382 C   0  0  0  0  0  0  0  0  0  0  0  0
  131.0628  134.4663  159.6401 C   0  0  0  0  0  0  0  0  0  0  0  0
  131.2018  135.7194  160.4656 C   0  0  0  0  0  0  0  0  0  0  0  0
  130.9329  136.8928  159.6236 N   0  0  0  0  0  0  0  0  0  0  0  0
  129.9954  136.8349  159.2554 H   0  0  0  0  0  0  0  0  0  0  0  0
  131.5929  136.9177  158.8607 H   0  0  0  0  0  0  0  0  0  0  0  0
  131.0684  138.1143  160.4283 C   0  0  2  0  0  0  0  0  0  0  0  0
  130.3975  138.1906  161.2839 H   0  0  0  0  0  0  0  0  0  0  0  0
  131.4279  139.4086  159.6939 C   0  0  0  0  0  0  0  0  0  0  0  0
  132.4643  138.7135  160.5716 C   0  0  0  0  0  0  0  0  0  0  0  0
  132.9197  139.3403  161.9010 C   0  0  0  0  0  0  0  0  0  0  0  0
  134.1687  138.5135  162.2989 C   0  0  0  0  0  0  0  0  0  0  0  0
  134.8591  138.2561  160.9361 C   0  0  0  0  0  0  0  0  0  0  0  0
  133.6891  138.0231  159.9561 C   0  0  0  0  0  0  0  0  0  0  0  0
  128.2741  135.0660  160.8521 O   0  0  0  0  0  0  0  0  0  0  0  0
  127.1962  135.8089  164.3560 C   0  0  0  0  0  0  0  0  0  0  0  0
  126.8329  134.9915  166.8323 H   0  0  0  0  0  0  0  0  0  0  0  0
  127.6660  136.3425  167.6379 H   0  0  0  0  0  0  0  0  0  0  0  0
  126.0572  135.8276  168.1990 H   0  0  0  0  0  0  0  0  0  0  0  0
  125.9065  137.8999  166.8457 H   0  0  0  0  0  0  0  0  0  0  0  0
  125.0733  136.5488  166.0402 H   0  0  0  0  0  0  0  0  0  0  0  0
  127.8475  137.6791  165.3429 H   0  0  0  0  0  0  0  0  0  0  0  0
  126.3760  138.6591  163.6455 H   0  0  0  0  0  0  0  0  0  0  0  0
  125.1286  137.3589  163.8798 H   0  0  0  0  0  0  0  0  0  0  0  0
  127.9921  137.0674  162.7180 H   0  0  0  0  0  0  0  0  0  0  0  0
  125.3747  136.1226  161.8723 H   0  0  0  0  0  0  0  0  0  0  0  0
  125.3761  133.6358  160.6781 H   0  0  0  0  0  0  0  0  0  0  0  0
  127.3176  132.4016  159.2740 H   0  0  0  0  0  0  0  0  0  0  0  0
  133.0717  134.1946  158.8698 H   0  0  0  0  0  0  0  0  0  0  0  0
  132.2146  135.7820  160.8634 H   0  0  0  0  0  0  0  0  0  0  0  0
  130.4887  135.6926  161.2895 H   0  0  0  0  0  0  0  0  0  0  0  0
  131.5643  139.3534  158.6140 H   0  0  0  0  0  0  0  0  0  0  0  0
  130.9934  140.3361  160.0667 H   0  0  0  0  0  0  0  0  0  0  0  0
  133.1846  140.3880  161.7583 H   0  0  0  0  0  0  0  0  0  0  0  0
  132.1400  139.2420  162.6565 H   0  0  0  0  0  0  0  0  0  0  0  0
  133.8764  137.5735  162.7670 H   0  0  0  0  0  0  0  0  0  0  0  0
  134.8198  139.0861  162.9595 H   0  0  0  0  0  0  0  0  0  0  0  0
  135.4930  137.3712  160.9906 H   0  0  0  0  0  0  0  0  0  0  0  0
  135.4436  139.1247  160.6324 H   0  0  0  0  0  0  0  0  0  0  0  0
  133.5005  136.9551  159.8460 H   0  0  0  0  0  0  0  0  0  0  0  0
  133.9189  138.4640  158.9862 H   0  0  0  0  0  0  0  0  0  0  0  0
  126.4110  135.0641  164.4863 H   0  0  0  0  0  0  0  0  0  0  0  0
  128.1963  135.4020  164.5062 H   0  0  0  0  0  0  0  0  0  0  0  0
  1  2  1  0
  1 31  1  0
  1 32  1  0
  1 33  1  0
  2  3  1  0
  2 34  1  0
  2 35  1  0
  3 30  1  0
  3  4  1  0
  3 36  1  1
  4  5  1  0
  4 37  1  0
  4 38  1  0
  5  6  1  0
  5 30  1  0
  5 39  1  6
  6  7  1  0
  6 40  1  0
  7 29  1  0
  7  8  2  0
  8  9  1  0
  8 41  1  0
  9 10  2  0
  9 42  1  0
 10 11  1  0
 10 29  1  0
 11 16  1  0
 11 12  2  0
 12 13  1  0
 13 14  1  0
 13 15  1  0
 15 16  2  0
 15 43  1  0
 16 17  1  0
 17 18  1  0
 17 44  1  0
 17 45  1  0
 18 19  1  0
 18 20  1  0
 18 21  1  0
 21 22  1  1
 21 24  1  0
 21 23  1  0
 23 24  1  0
 23 46  1  0
 23 47  1  0
 24 28  1  0
 24 25  1  0
 25 26  1  0
 25 48  1  0
 25 49  1  0
 26 27  1  0
 26 50  1  0
 26 51  1  0
 27 28  1  0
 27 52  1  0
 27 53  1  0
 28 54  1  0
 28 55  1  0
 30 56  1  0
 30 57  1  0
M  CHG  1  18   1
M  END
>  <DOCK_score>  (1) 
-45.138298

>  <SMILES>  (1) 
CCC1CC(Nc2ccc(-c3n[nH]cc3C[NH2+][C@@H]3CC34CCCC4)o2)C1

$$$$
