O=C1CC(O[C@H]2CC(=O)CC2Nc2[nH]cc(-c3ccc(Br)cc3)[nH+]2)C1
     RDKit          3D

 44 47  0  0  1  0  0  0  0  0999 V2000
  135.2173  139.9910  161.1133 O   0  0  0  0  0  0  0  0  0  0  0  0
  134.2139  139.3546  160.8982 C   0  0  0  0  0  0  0  0  0  0  0  0
  133.8242  138.2218  159.9694 C   0  0  0  0  0  0  0  0  0  0  0  0
  132.7351  137.8700  160.9973 C   0  0  0  0  0  0  0  0  0  0  0  0
  131.4869  137.5018  160.4070 O   0  0  0  0  0  0  0  0  0  0  0  0
  130.6183  136.7832  161.2851 C   0  0  1  0  0  0  0  0  0  0  0  0
  131.2030  136.2050  162.0005 H   0  0  0  0  0  0  0  0  0  0  0  0
  129.6888  137.7601  162.0272 C   0  0  0  0  0  0  0  0  0  0  0  0
  128.2663  137.3804  161.6549 C   0  0  0  0  0  0  0  0  0  0  0  0
  127.2579  137.5939  162.2841 O   0  0  0  0  0  0  0  0  0  0  0  0
  128.3920  136.6699  160.3114 C   0  0  0  0  0  0  0  0  0  0  0  0
  129.6951  135.8483  160.4742 C   0  0  1  0  0  0  0  0  0  0  0  0
  130.2852  135.5489  159.1672 N   0  0  0  0  0  0  0  0  0  0  0  0
  130.0211  134.3385  158.5493 C   0  0  0  0  0  0  0  0  0  0  0  0
  129.2286  133.3506  159.0475 N   0  0  0  0  0  0  0  0  0  0  0  0
  128.7514  133.3676  159.8918 H   0  0  0  0  0  0  0  0  0  0  0  0
  129.2293  132.3247  158.1337 C   0  0  0  0  0  0  0  0  0  0  0  0
  130.0213  132.7150  157.1045 C   0  0  0  0  0  0  0  0  0  0  0  0
  130.3197  131.9256  155.8846 C   0  0  0  0  0  0  0  0  0  0  0  0
  129.9752  132.4222  154.6286 C   0  0  0  0  0  0  0  0  0  0  0  0
  130.2594  131.6860  153.4966 C   0  0  0  0  0  0  0  0  0  0  0  0
  130.8759  130.4521  153.6073 C   0  0  0  0  0  0  0  0  0  0  0  0
  131.2552  129.4448  152.0524 Br  0  0  0  0  0  0  0  0  0  0  0  0
  131.2155  129.9516  154.8528 C   0  0  0  0  0  0  0  0  0  0  0  0
  130.9405  130.6823  155.9907 C   0  0  0  0  0  0  0  0  0  0  0  0
  130.4883  133.9574  157.3856 N   0  0  0  0  0  0  0  0  0  0  0  0
  131.0759  134.4794  156.8171 H   0  0  0  0  0  0  0  0  0  0  0  0
  132.7972  139.3413  161.4423 C   0  0  0  0  0  0  0  0  0  0  0  0
  134.5929  137.4559  159.8669 H   0  0  0  0  0  0  0  0  0  0  0  0
  133.4289  138.5567  159.0103 H   0  0  0  0  0  0  0  0  0  0  0  0
  133.0661  137.1674  161.7620 H   0  0  0  0  0  0  0  0  0  0  0  0
  129.8304  137.6643  163.1038 H   0  0  0  0  0  0  0  0  0  0  0  0
  129.8959  138.7830  161.7132 H   0  0  0  0  0  0  0  0  0  0  0  0
  128.4901  137.3921  159.5009 H   0  0  0  0  0  0  0  0  0  0  0  0
  127.5402  136.0119  160.1390 H   0  0  0  0  0  0  0  0  0  0  0  0
  129.5016  134.9283  161.0258 H   0  0  0  0  0  0  0  0  0  0  0  0
  130.8611  136.1988  158.7347 H   0  0  0  0  0  0  0  0  0  0  0  0
  128.7006  131.3869  158.2188 H   0  0  0  0  0  0  0  0  0  0  0  0
  129.4901  133.3832  154.5414 H   0  0  0  0  0  0  0  0  0  0  0  0
  129.9968  132.0719  152.5226 H   0  0  0  0  0  0  0  0  0  0  0  0
  131.6967  128.9883  154.9338 H   0  0  0  0  0  0  0  0  0  0  0  0
  131.2054  130.2909  156.9619 H   0  0  0  0  0  0  0  0  0  0  0  0
  132.1132  139.9924  160.8979 H   0  0  0  0  0  0  0  0  0  0  0  0
  132.7412  139.4743  162.5227 H   0  0  0  0  0  0  0  0  0  0  0  0
  1  2  2  0
  2 28  1  0
  2  3  1  0
  3  4  1  0
  3 29  1  0
  3 30  1  0
  4  5  1  0
  4 28  1  0
  4 31  1  0
  5  6  1  0
  6  7  1  1
  6 12  1  0
  6  8  1  0
  8  9  1  0
  8 32  1  0
  8 33  1  0
  9 10  2  0
  9 11  1  0
 11 12  1  0
 11 34  1  0
 11 35  1  0
 12 13  1  0
 12 36  1  1
 13 37  1  0
 14 13  1  0
 14 26  2  0
 14 15  1  0
 15 16  1  0
 15 17  1  0
 17 18  2  0
 17 38  1  0
 18 19  1  0
 18 26  1  0
 19 25  1  0
 19 20  2  0
 20 21  1  0
 20 39  1  0
 21 22  2  0
 21 40  1  0
 22 23  1  0
 22 24  1  0
 24 25  2  0
 24 41  1  0
 25 42  1  0
 26 27  1  0
 28 43  1  0
 28 44  1  0
M  CHG  1  26   1
M  END
>  <DOCK_score>  (1) 
-52.524456

>  <SMILES>  (1) 
O=C1CC(O[C@H]2CC(=O)CC2Nc2[nH]cc(-c3ccc(Br)cc3)[nH+]2)C1

$$$$
