CCC=C[C@H](CC(C)Nc1nc2ccccc2[nH]1)Nc1[nH]cc(-c2ccc(CC)cc2)[nH+]1
     RDKit          3D

 65 68  0  0  1  0  0  0  0  0999 V2000
  125.2695  134.3888  159.8992 C   0  0  0  0  0  0  0  0  0  0  0  0
  125.9687  135.0035  161.1134 C   0  0  0  0  0  0  0  0  0  0  0  0
  127.4416  134.6896  161.0571 C   0  0  0  0  0  0  0  0  0  0  0  0
  128.2626  135.5070  160.4456 C   0  0  0  0  0  0  0  0  0  0  0  0
  129.7355  135.1931  160.3893 C   0  0  2  0  0  0  0  0  0  0  0  0
  129.9266  134.2534  160.9074 H   0  0  0  0  0  0  0  0  0  0  0  0
  130.5228  136.3176  161.0650 C   0  0  0  0  0  0  0  0  0  0  0  0
  130.0833  136.4415  162.5253 C   0  0  1  0  0  0  0  0  0  0  0  0
  130.3519  135.1225  163.2524 C   0  0  0  0  0  0  0  0  0  0  0  0
  130.8372  137.5182  163.1724 N   0  0  0  0  0  0  0  0  0  0  0  0
  130.1712  138.5991  163.7108 C   0  0  0  0  0  0  0  0  0  0  0  0
  128.8719  138.7642  163.6995 N   0  0  0  0  0  0  0  0  0  0  0  0
  128.5552  139.9339  164.3147 C   0  0  0  0  0  0  0  0  0  0  0  0
  127.3467  140.5841  164.5766 C   0  0  0  0  0  0  0  0  0  0  0  0
  127.3494  141.7917  165.2383 C   0  0  0  0  0  0  0  0  0  0  0  0
  128.5431  142.3678  165.6468 C   0  0  0  0  0  0  0  0  0  0  0  0
  129.7449  141.7384  165.3958 C   0  0  0  0  0  0  0  0  0  0  0  0
  129.7610  140.5219  164.7307 C   0  0  0  0  0  0  0  0  0  0  0  0
  130.7676  139.6538  164.3404 N   0  0  0  0  0  0  0  0  0  0  0  0
  131.7192  139.7739  164.4854 H   0  0  0  0  0  0  0  0  0  0  0  0
  130.1562  135.0742  158.9910 N   0  0  0  0  0  0  0  0  0  0  0  0
  130.1061  133.8455  158.3551 C   0  0  0  0  0  0  0  0  0  0  0  0
  129.6925  132.6777  158.9184 N   0  0  0  0  0  0  0  0  0  0  0  0
  129.3822  132.5576  159.8295 H   0  0  0  0  0  0  0  0  0  0  0  0
  129.7950  131.7006  157.9584 C   0  0  0  0  0  0  0  0  0  0  0  0
  130.2679  132.2988  156.8370 C   0  0  0  0  0  0  0  0  0  0  0  0
  130.5399  131.6319  155.5402 C   0  0  0  0  0  0  0  0  0  0  0  0
  129.8699  132.0419  154.3888 C   0  0  0  0  0  0  0  0  0  0  0  0
  130.1273  131.4181  153.1850 C   0  0  0  0  0  0  0  0  0  0  0  0
  131.0484  130.3875  153.1200 C   0  0  0  0  0  0  0  0  0  0  0  0
  131.3253  129.7102  151.8025 C   0  0  0  0  0  0  0  0  0  0  0  0
  130.3660  128.5318  151.6233 C   0  0  0  0  0  0  0  0  0  0  0  0
  131.7119  129.9731  154.2603 C   0  0  0  0  0  0  0  0  0  0  0  0
  131.4666  130.5934  155.4684 C   0  0  0  0  0  0  0  0  0  0  0  0
  130.4540  133.6141  157.1128 N   0  0  0  0  0  0  0  0  0  0  0  0
  130.7890  134.2776  156.4896 H   0  0  0  0  0  0  0  0  0  0  0  0
  125.6949  134.8046  158.9859 H   0  0  0  0  0  0  0  0  0  0  0  0
  125.4113  133.3081  159.9067 H   0  0  0  0  0  0  0  0  0  0  0  0
  124.2041  134.6158  159.9398 H   0  0  0  0  0  0  0  0  0  0  0  0
  125.5431  134.5876  162.0266 H   0  0  0  0  0  0  0  0  0  0  0  0
  125.8269  136.0841  161.1057 H   0  0  0  0  0  0  0  0  0  0  0  0
  127.8202  133.7908  161.5209 H   0  0  0  0  0  0  0  0  0  0  0  0
  127.8839  136.4059  159.9817 H   0  0  0  0  0  0  0  0  0  0  0  0
  131.5882  136.0904  161.0242 H   0  0  0  0  0  0  0  0  0  0  0  0
  130.3315  137.2573  160.5469 H   0  0  0  0  0  0  0  0  0  0  0  0
  129.0181  136.6685  162.5661 H   0  0  0  0  0  0  0  0  0  0  0  0
  131.4172  134.8954  163.2115 H   0  0  0  0  0  0  0  0  0  0  0  0
  130.0388  135.2108  164.2927 H   0  0  0  0  0  0  0  0  0  0  0  0
  129.7911  134.3215  162.7709 H   0  0  0  0  0  0  0  0  0  0  0  0
  131.8047  137.4708  163.2221 H   0  0  0  0  0  0  0  0  0  0  0  0
  126.4137  140.1413  164.2609 H   0  0  0  0  0  0  0  0  0  0  0  0
  126.4150  142.2937  165.4409 H   0  0  0  0  0  0  0  0  0  0  0  0
  128.5317  143.3152  166.1653 H   0  0  0  0  0  0  0  0  0  0  0  0
  130.6709  142.1921  165.7169 H   0  0  0  0  0  0  0  0  0  0  0  0
  130.4698  135.8565  158.5108 H   0  0  0  0  0  0  0  0  0  0  0  0
  129.5463  130.6561  158.0742 H   0  0  0  0  0  0  0  0  0  0  0  0
  129.1506  132.8458  154.4386 H   0  0  0  0  0  0  0  0  0  0  0  0
  129.6085  131.7347  152.2921 H   0  0  0  0  0  0  0  0  0  0  0  0
  132.3528  129.3484  151.7887 H   0  0  0  0  0  0  0  0  0  0  0  0
  131.1801  130.4231  150.9900 H   0  0  0  0  0  0  0  0  0  0  0  0
  129.3382  128.8942  151.6368 H   0  0  0  0  0  0  0  0  0  0  0  0
  130.5663  128.0421  150.6704 H   0  0  0  0  0  0  0  0  0  0  0  0
  130.5107  127.8194  152.4355 H   0  0  0  0  0  0  0  0  0  0  0  0
  132.4263  129.1651  154.2044 H   0  0  0  0  0  0  0  0  0  0  0  0
  131.9888  130.2719  156.3576 H   0  0  0  0  0  0  0  0  0  0  0  0
  1  2  1  0
  1 37  1  0
  1 38  1  0
  1 39  1  0
  2  3  1  0
  2 40  1  0
  2 41  1  0
  3  4  2  0
  3 42  1  0
  4  5  1  0
  4 43  1  0
  5  6  1  1
  5  7  1  0
  5 21  1  0
  7  8  1  0
  7 44  1  0
  7 45  1  0
  8  9  1  0
  8 10  1  0
  8 46  1  6
  9 47  1  0
  9 48  1  0
  9 49  1  0
 10 11  1  0
 10 50  1  0
 11 19  1  0
 11 12  2  0
 12 13  1  0
 13 18  2  0
 13 14  1  0
 14 15  2  0
 14 51  1  0
 15 16  1  0
 15 52  1  0
 16 17  2  0
 16 53  1  0
 17 18  1  0
 17 54  1  0
 18 19  1  0
 19 20  1  0
 21 55  1  0
 22 21  1  0
 22 35  2  0
 22 23  1  0
 23 24  1  0
 23 25  1  0
 25 26  2  0
 25 56  1  0
 26 27  1  0
 26 35  1  0
 27 34  1  0
 27 28  2  0
 28 29  1  0
 28 57  1  0
 29 30  2  0
 29 58  1  0
 30 31  1  0
 30 33  1  0
 31 32  1  0
 31 59  1  0
 31 60  1  0
 32 61  1  0
 32 62  1  0
 32 63  1  0
 33 34  2  0
 33 64  1  0
 34 65  1  0
 35 36  1  0
M  CHG  1  35   1
M  END
>  <DOCK_score>  (1) 
-56.710014

>  <SMILES>  (1) 
CCC=C[C@H](CC(C)Nc1nc2ccccc2[nH]1)Nc1[nH]cc(-c2ccc(CC)cc2)[nH+]1

$$$$
