NC(=O)C[NH+]=C(NCc1ncccc1C1CC1)N[C@H]1COc2ccc(F)cc2C1
     RDKit          3D

 54 57  0  0  1  0  0  0  0  0999 V2000
  125.7002  135.0654  160.8663 N   0  0  0  0  0  0  0  0  0  0  0  0
  126.6612  134.8602  159.9438 C   0  0  0  0  0  0  0  0  0  0  0  0
  126.5240  133.9917  159.1085 O   0  0  0  0  0  0  0  0  0  0  0  0
  127.9059  135.7098  159.9503 C   0  0  0  0  0  0  0  0  0  0  0  0
  129.0804  134.8537  160.1338 N   0  0  0  0  0  0  0  0  0  0  0  0
  129.4041  134.6594  161.0272 H   0  0  0  0  0  0  0  0  0  0  0  0
  129.6906  134.3533  159.0964 C   0  0  0  0  0  0  0  0  0  0  0  0
  128.9836  134.0777  157.9498 N   0  0  0  0  0  0  0  0  0  0  0  0
  129.6694  133.5153  156.7838 C   0  0  0  0  0  0  0  0  0  0  0  0
  130.2902  132.1933  157.1553 C   0  0  0  0  0  0  0  0  0  0  0  0
  130.1609  131.7354  158.3853 N   0  0  0  0  0  0  0  0  0  0  0  0
  130.6822  130.5816  158.7540 C   0  0  0  0  0  0  0  0  0  0  0  0
  131.3985  129.8109  157.8577 C   0  0  0  0  0  0  0  0  0  0  0  0
  131.5603  130.2624  156.5570 C   0  0  0  0  0  0  0  0  0  0  0  0
  130.9930  131.4778  156.2048 C   0  0  0  0  0  0  0  0  0  0  0  0
  131.1414  132.0116  154.8034 C   0  0  0  0  0  0  0  0  0  0  0  0
  129.9738  131.7964  153.8382 C   0  0  0  0  0  0  0  0  0  0  0  0
  131.2655  130.9926  153.6688 C   0  0  0  0  0  0  0  0  0  0  0  0
  131.0411  134.1013  159.1485 N   0  0  0  0  0  0  0  0  0  0  0  0
  131.7944  134.3950  160.3702 C   0  0  1  0  0  0  0  0  0  0  0  0
  131.3889  133.8162  161.2000 H   0  0  0  0  0  0  0  0  0  0  0  0
  133.2726  134.0396  160.1642 C   0  0  0  0  0  0  0  0  0  0  0  0
  133.9594  134.2379  161.4007 O   0  0  0  0  0  0  0  0  0  0  0  0
  133.7677  135.4154  162.0515 C   0  0  0  0  0  0  0  0  0  0  0  0
  134.6751  135.7817  163.0406 C   0  0  0  0  0  0  0  0  0  0  0  0
  134.5132  136.9670  163.7279 C   0  0  0  0  0  0  0  0  0  0  0  0
  133.4437  137.7960  163.4333 C   0  0  0  0  0  0  0  0  0  0  0  0
  133.2821  138.9563  164.1062 F   0  0  0  0  0  0  0  0  0  0  0  0
  132.5411  137.4348  162.4497 C   0  0  0  0  0  0  0  0  0  0  0  0
  132.7016  136.2464  161.7565 C   0  0  0  0  0  0  0  0  0  0  0  0
  131.6991  135.8893  160.6883 C   0  0  0  0  0  0  0  0  0  0  0  0
  125.8099  135.7600  161.5345 H   0  0  0  0  0  0  0  0  0  0  0  0
  124.8991  134.5185  160.8622 H   0  0  0  0  0  0  0  0  0  0  0  0
  127.8500  136.4299  160.7666 H   0  0  0  0  0  0  0  0  0  0  0  0
  127.9880  136.2410  159.0021 H   0  0  0  0  0  0  0  0  0  0  0  0
  128.0308  134.2556  157.9130 H   0  0  0  0  0  0  0  0  0  0  0  0
  130.4483  134.2027  156.4539 H   0  0  0  0  0  0  0  0  0  0  0  0
  128.9515  133.3657  155.9774 H   0  0  0  0  0  0  0  0  0  0  0  0
  130.5519  130.2372  159.7692 H   0  0  0  0  0  0  0  0  0  0  0  0
  131.8265  128.8687  158.1667 H   0  0  0  0  0  0  0  0  0  0  0  0
  132.1147  129.6813  155.8350 H   0  0  0  0  0  0  0  0  0  0  0  0
  131.7065  132.9390  154.7108 H   0  0  0  0  0  0  0  0  0  0  0  0
  129.0984  131.2689  154.2170 H   0  0  0  0  0  0  0  0  0  0  0  0
  129.7711  132.5822  153.1106 H   0  0  0  0  0  0  0  0  0  0  0  0
  131.9118  131.2499  152.8298 H   0  0  0  0  0  0  0  0  0  0  0  0
  131.2402  129.9362  153.9361 H   0  0  0  0  0  0  0  0  0  0  0  0
  131.4952  133.7289  158.3764 H   0  0  0  0  0  0  0  0  0  0  0  0
  133.3603  132.9970  159.8584 H   0  0  0  0  0  0  0  0  0  0  0  0
  133.7020  134.6849  159.3980 H   0  0  0  0  0  0  0  0  0  0  0  0
  135.5094  135.1359  163.2709 H   0  0  0  0  0  0  0  0  0  0  0  0
  135.2193  137.2478  164.4953 H   0  0  0  0  0  0  0  0  0  0  0  0
  131.7080  138.0826  162.2206 H   0  0  0  0  0  0  0  0  0  0  0  0
  131.9084  136.4660  159.7872 H   0  0  0  0  0  0  0  0  0  0  0  0
  130.6944  136.1216  161.0416 H   0  0  0  0  0  0  0  0  0  0  0  0
  1  2  1  0
  1 32  1  0
  1 33  1  0
  2  3  2  0
  2  4  1  0
  4  5  1  0
  4 34  1  0
  4 35  1  0
  5  6  1  0
  7  5  2  0
  7  8  1  0
  7 19  1  0
  8  9  1  0
  8 36  1  0
  9 10  1  0
  9 37  1  0
  9 38  1  0
 10 15  1  0
 10 11  2  0
 11 12  1  0
 12 13  2  0
 12 39  1  0
 13 14  1  0
 13 40  1  0
 14 15  2  0
 14 41  1  0
 15 16  1  0
 16 18  1  0
 16 17  1  0
 16 42  1  0
 17 18  1  0
 17 43  1  0
 17 44  1  0
 18 45  1  0
 18 46  1  0
 19 20  1  0
 19 47  1  0
 20 21  1  1
 20 31  1  0
 20 22  1  0
 22 23  1  0
 22 48  1  0
 22 49  1  0
 23 24  1  0
 24 30  2  0
 24 25  1  0
 25 26  2  0
 25 50  1  0
 26 27  1  0
 26 51  1  0
 27 28  1  0
 27 29  2  0
 29 30  1  0
 29 52  1  0
 30 31  1  0
 31 53  1  0
 31 54  1  0
M  CHG  1   5   1
M  END
>  <DOCK_score>  (1) 
-44.84602

>  <SMILES>  (1) 
NC(=O)C[NH+]=C(NCc1ncccc1C1CC1)N[C@H]1COc2ccc(F)cc2C1

$$$$
