CCc1ccc(-c2c[nH]c(Nc3ccncc3C3=C[C@@H](O)CC(C)(C)C3)[nH+]2)cc1
     RDKit          3D

 58 61  0  0  1  0  0  0  0  0999 V2000
  130.4036  128.5611  151.8332 C   0  0  0  0  0  0  0  0  0  0  0  0
  131.4775  129.6057  152.1434 C   0  0  0  0  0  0  0  0  0  0  0  0
  131.0832  130.3812  153.3739 C   0  0  0  0  0  0  0  0  0  0  0  0
  131.4794  129.9391  154.6232 C   0  0  0  0  0  0  0  0  0  0  0  0
  131.1205  130.6449  155.7537 C   0  0  0  0  0  0  0  0  0  0  0  0
  130.3578  131.8053  155.6346 C   0  0  0  0  0  0  0  0  0  0  0  0
  129.9684  132.5679  156.8459 C   0  0  0  0  0  0  0  0  0  0  0  0
  129.2227  132.1004  157.8780 C   0  0  0  0  0  0  0  0  0  0  0  0
  129.1028  133.1281  158.7805 N   0  0  0  0  0  0  0  0  0  0  0  0
  128.6242  133.0992  159.6237 H   0  0  0  0  0  0  0  0  0  0  0  0
  129.7793  134.1948  158.2736 C   0  0  0  0  0  0  0  0  0  0  0  0
  129.9024  135.4348  158.8800 N   0  0  0  0  0  0  0  0  0  0  0  0
  128.8916  135.9059  159.7112 C   0  0  0  0  0  0  0  0  0  0  0  0
  127.5641  135.5378  159.5038 C   0  0  0  0  0  0  0  0  0  0  0  0
  126.5900  136.0263  160.3497 C   0  0  0  0  0  0  0  0  0  0  0  0
  126.8949  136.8344  161.3487 N   0  0  0  0  0  0  0  0  0  0  0  0
  128.1350  137.2083  161.5925 C   0  0  0  0  0  0  0  0  0  0  0  0
  129.1811  136.7678  160.7850 C   0  0  0  0  0  0  0  0  0  0  0  0
  130.5698  137.1930  161.0548 C   0  0  0  0  0  0  0  0  0  0  0  0
  131.0052  138.2850  160.4731 C   0  0  0  0  0  0  0  0  0  0  0  0
  132.3929  138.8290  160.6485 C   0  0  1  0  0  0  0  0  0  0  0  0
  132.9872  138.5949  159.7651 H   0  0  0  0  0  0  0  0  0  0  0  0
  132.3285  140.2472  160.8136 O   0  0  0  0  0  0  0  0  0  0  0  0
  133.0508  138.2069  161.8818 C   0  0  0  0  0  0  0  0  0  0  0  0
  132.8830  136.6843  161.8068 C   0  0  0  0  0  0  0  0  0  0  0  0
  133.6919  136.0222  162.9240 C   0  0  0  0  0  0  0  0  0  0  0  0
  133.3702  136.1755  160.4486 C   0  0  0  0  0  0  0  0  0  0  0  0
  131.3997  136.3503  161.9788 C   0  0  0  0  0  0  0  0  0  0  0  0
  130.2902  133.8576  157.1147 N   0  0  0  0  0  0  0  0  0  0  0  0
  130.8163  134.4372  156.5419 H   0  0  0  0  0  0  0  0  0  0  0  0
  129.9573  132.2434  154.3735 C   0  0  0  0  0  0  0  0  0  0  0  0
  130.3261  131.5324  153.2497 C   0  0  0  0  0  0  0  0  0  0  0  0
  129.4507  129.0605  151.6580 H   0  0  0  0  0  0  0  0  0  0  0  0
  130.6888  128.0001  150.9431 H   0  0  0  0  0  0  0  0  0  0  0  0
  130.3062  127.8783  152.6772 H   0  0  0  0  0  0  0  0  0  0  0  0
  131.5748  130.2885  151.2993 H   0  0  0  0  0  0  0  0  0  0  0  0
  132.4304  129.1063  152.3185 H   0  0  0  0  0  0  0  0  0  0  0  0
  132.0704  129.0398  154.7144 H   0  0  0  0  0  0  0  0  0  0  0  0
  131.4303  130.2988  156.7287 H   0  0  0  0  0  0  0  0  0  0  0  0
  128.8038  131.1094  157.9720 H   0  0  0  0  0  0  0  0  0  0  0  0
  130.6934  135.9743  158.7247 H   0  0  0  0  0  0  0  0  0  0  0  0
  127.3009  134.8777  158.6906 H   0  0  0  0  0  0  0  0  0  0  0  0
  125.5599  135.7431  160.1918 H   0  0  0  0  0  0  0  0  0  0  0  0
  128.3413  137.8664  162.4237 H   0  0  0  0  0  0  0  0  0  0  0  0
  130.3251  138.8245  159.8306 H   0  0  0  0  0  0  0  0  0  0  0  0
  131.8143  140.5307  161.5820 H   0  0  0  0  0  0  0  0  0  0  0  0
  134.1113  138.4582  161.8973 H   0  0  0  0  0  0  0  0  0  0  0  0
  132.5688  138.5845  162.7836 H   0  0  0  0  0  0  0  0  0  0  0  0
  133.5567  134.9416  162.8792 H   0  0  0  0  0  0  0  0  0  0  0  0
  134.7479  136.2618  162.7990 H   0  0  0  0  0  0  0  0  0  0  0  0
  133.3475  136.3918  163.8899 H   0  0  0  0  0  0  0  0  0  0  0  0
  132.7972  136.6541  159.6544 H   0  0  0  0  0  0  0  0  0  0  0  0
  134.4270  136.4148  160.3288 H   0  0  0  0  0  0  0  0  0  0  0  0
  133.2339  135.0954  160.3950 H   0  0  0  0  0  0  0  0  0  0  0  0
  131.1028  136.5445  163.0094 H   0  0  0  0  0  0  0  0  0  0  0  0
  131.2377  135.2969  161.7506 H   0  0  0  0  0  0  0  0  0  0  0  0
  129.3628  133.1397  154.2757 H   0  0  0  0  0  0  0  0  0  0  0  0
  130.0196  131.8729  152.2717 H   0  0  0  0  0  0  0  0  0  0  0  0
  1  2  1  0
  1 33  1  0
  1 34  1  0
  1 35  1  0
  2  3  1  0
  2 36  1  0
  2 37  1  0
  3 32  2  0
  3  4  1  0
  4  5  2  0
  4 38  1  0
  5  6  1  0
  5 39  1  0
  6  7  1  0
  6 31  2  0
  7 29  1  0
  7  8  2  0
  8  9  1  0
  8 40  1  0
  9 10  1  0
  9 11  1  0
 11 12  1  0
 11 29  2  0
 12 13  1  0
 12 41  1  0
 13 18  1  0
 13 14  2  0
 14 15  1  0
 14 42  1  0
 15 16  2  0
 15 43  1  0
 16 17  1  0
 17 18  2  0
 17 44  1  0
 18 19  1  0
 19 28  1  0
 19 20  2  0
 20 21  1  0
 20 45  1  0
 21 22  1  6
 21 23  1  0
 21 24  1  0
 23 46  1  0
 24 25  1  0
 24 47  1  0
 24 48  1  0
 25 26  1  0
 25 27  1  0
 25 28  1  0
 26 49  1  0
 26 50  1  0
 26 51  1  0
 27 52  1  0
 27 53  1  0
 27 54  1  0
 28 55  1  0
 28 56  1  0
 29 30  1  0
 31 32  1  0
 31 57  1  0
 32 58  1  0
M  CHG  1  29   1
M  END
>  <DOCK_score>  (1) 
-55.463699

>  <SMILES>  (1) 
CCc1ccc(-c2c[nH]c(Nc3ccncc3C3=C[C@@H](O)CC(C)(C)C3)[nH+]2)cc1

$$$$
