Oc1ccccc1[C@H](Nc1[nH]cc(-c2ccc(Br)cc2)[nH+]1)c1ccccc1
     RDKit          3D

 46 49  0  0  1  0  0  0  0  0999 V2000
  132.7770  136.9671  160.4096 O   0  0  0  0  0  0  0  0  0  0  0  0
  131.7908  137.8319  160.7648 C   0  0  0  0  0  0  0  0  0  0  0  0
  132.0966  139.1544  161.0524 C   0  0  0  0  0  0  0  0  0  0  0  0
  131.0922  140.0316  161.4127 C   0  0  0  0  0  0  0  0  0  0  0  0
  129.7829  139.5927  161.4868 C   0  0  0  0  0  0  0  0  0  0  0  0
  129.4757  138.2756  161.2005 C   0  0  0  0  0  0  0  0  0  0  0  0
  130.4768  137.3942  160.8398 C   0  0  0  0  0  0  0  0  0  0  0  0
  130.1410  135.9586  160.5274 C   0  0  2  0  0  0  0  0  0  0  0  0
  130.6764  135.3026  161.2139 H   0  0  0  0  0  0  0  0  0  0  0  0
  130.5373  135.6528  159.1506 N   0  0  0  0  0  0  0  0  0  0  0  0
  130.3267  134.3855  158.6349 C   0  0  0  0  0  0  0  0  0  0  0  0
  129.7580  133.3434  159.3002 N   0  0  0  0  0  0  0  0  0  0  0  0
  129.4304  133.3548  160.2132 H   0  0  0  0  0  0  0  0  0  0  0  0
  129.7334  132.2724  158.4402 C   0  0  0  0  0  0  0  0  0  0  0  0
  130.2872  132.6904  157.2752 C   0  0  0  0  0  0  0  0  0  0  0  0
  130.4725  131.8705  156.0529 C   0  0  0  0  0  0  0  0  0  0  0  0
  129.8636  132.2494  154.8578 C   0  0  0  0  0  0  0  0  0  0  0  0
  130.0440  131.4865  153.7222 C   0  0  0  0  0  0  0  0  0  0  0  0
  130.8182  130.3401  153.7715 C   0  0  0  0  0  0  0  0  0  0  0  0
  131.0545  129.2949  152.2134 Br  0  0  0  0  0  0  0  0  0  0  0  0
  131.4205  129.9563  154.9572 C   0  0  0  0  0  0  0  0  0  0  0  0
  131.2513  130.7155  156.0971 C   0  0  0  0  0  0  0  0  0  0  0  0
  130.6368  133.9929  157.4235 N   0  0  0  0  0  0  0  0  0  0  0  0
  131.0523  134.5448  156.7425 H   0  0  0  0  0  0  0  0  0  0  0  0
  128.6573  135.7446  160.6824 C   0  0  0  0  0  0  0  0  0  0  0  0
  128.1393  135.3528  161.9027 C   0  0  0  0  0  0  0  0  0  0  0  0
  126.7779  135.1607  162.0460 C   0  0  0  0  0  0  0  0  0  0  0  0
  125.9356  135.3511  160.9666 C   0  0  0  0  0  0  0  0  0  0  0  0
  126.4542  135.7382  159.7451 C   0  0  0  0  0  0  0  0  0  0  0  0
  127.8151  135.9346  159.6028 C   0  0  0  0  0  0  0  0  0  0  0  0
  132.4666  136.0693  160.2283 H   0  0  0  0  0  0  0  0  0  0  0  0
  133.1189  139.4976  160.9951 H   0  0  0  0  0  0  0  0  0  0  0  0
  131.3302  141.0600  161.6410 H   0  0  0  0  0  0  0  0  0  0  0  0
  128.9990  140.2800  161.7687 H   0  0  0  0  0  0  0  0  0  0  0  0
  128.4524  137.9351  161.2592 H   0  0  0  0  0  0  0  0  0  0  0  0
  130.9474  136.3383  158.6004 H   0  0  0  0  0  0  0  0  0  0  0  0
  129.3463  131.2863  158.6513 H   0  0  0  0  0  0  0  0  0  0  0  0
  129.2550  133.1408  154.8196 H   0  0  0  0  0  0  0  0  0  0  0  0
  129.5767  131.7817  152.7944 H   0  0  0  0  0  0  0  0  0  0  0  0
  132.0235  129.0610  154.9903 H   0  0  0  0  0  0  0  0  0  0  0  0
  131.7219  130.4155  157.0217 H   0  0  0  0  0  0  0  0  0  0  0  0
  128.7978  135.2000  162.7450 H   0  0  0  0  0  0  0  0  0  0  0  0
  126.3727  134.8585  163.0005 H   0  0  0  0  0  0  0  0  0  0  0  0
  124.8723  135.1977  161.0777 H   0  0  0  0  0  0  0  0  0  0  0  0
  125.7961  135.8870  158.9017 H   0  0  0  0  0  0  0  0  0  0  0  0
  128.2203  136.2366  158.6484 H   0  0  0  0  0  0  0  0  0  0  0  0
  1  2  1  0
  1 31  1  0
  2  7  2  0
  2  3  1  0
  3  4  2  0
  3 32  1  0
  4  5  1  0
  4 33  1  0
  5  6  2  0
  5 34  1  0
  6  7  1  0
  6 35  1  0
  7  8  1  0
  8  9  1  1
  8 10  1  0
  8 25  1  0
 10 36  1  0
 11 10  1  0
 11 23  2  0
 11 12  1  0
 12 13  1  0
 12 14  1  0
 14 15  2  0
 14 37  1  0
 15 16  1  0
 15 23  1  0
 16 22  1  0
 16 17  2  0
 17 18  1  0
 17 38  1  0
 18 19  2  0
 18 39  1  0
 19 20  1  0
 19 21  1  0
 21 22  2  0
 21 40  1  0
 22 41  1  0
 23 24  1  0
 25 30  1  0
 25 26  2  0
 26 27  1  0
 26 42  1  0
 27 28  2  0
 27 43  1  0
 28 29  1  0
 28 44  1  0
 29 30  2  0
 29 45  1  0
 30 46  1  0
M  CHG  1  23   1
M  END
>  <DOCK_score>  (1) 
-56.417

>  <SMILES>  (1) 
Oc1ccccc1[C@H](Nc1[nH]cc(-c2ccc(Br)cc2)[nH+]1)c1ccccc1

$$$$
