O=C1CC[C@H](NC(NC2COc3cc(Cl)ccc3C2)=[NH+]Cc2cccc(F)c2)CN1
     RDKit          3D

 55 58  0  0  1  0  0  0  0  0999 V2000
  123.6340  133.8116  161.2670 O   0  0  0  0  0  0  0  0  0  0  0  0
  124.8293  133.9187  161.0922 C   0  0  0  0  0  0  0  0  0  0  0  0
  125.5734  132.7422  160.5287 C   0  0  0  0  0  0  0  0  0  0  0  0
  127.0733  132.9040  160.7878 C   0  0  0  0  0  0  0  0  0  0  0  0
  127.4904  134.3148  160.3550 C   0  0  2  0  0  0  0  0  0  0  0  0
  127.1561  134.4979  159.3339 H   0  0  0  0  0  0  0  0  0  0  0  0
  128.9482  134.4404  160.4282 N   0  0  0  0  0  0  0  0  0  0  0  0
  129.7209  134.1272  159.3350 C   0  0  0  0  0  0  0  0  0  0  0  0
  131.0889  134.2452  159.4037 N   0  0  0  0  0  0  0  0  0  0  0  0
  131.7234  134.7044  160.6417 C   0  0  1  0  0  0  0  0  0  0  0  0
  133.1304  134.1037  160.7554 C   0  0  0  0  0  0  0  0  0  0  0  0
  133.6819  134.4844  162.0167 O   0  0  0  0  0  0  0  0  0  0  0  0
  133.6194  135.7954  162.3672 C   0  0  0  0  0  0  0  0  0  0  0  0
  134.4479  136.2496  163.3884 C   0  0  0  0  0  0  0  0  0  0  0  0
  134.4104  137.5743  163.7761 C   0  0  0  0  0  0  0  0  0  0  0  0
  135.4466  138.1363  165.0506 Cl  0  0  0  0  0  0  0  0  0  0  0  0
  133.5461  138.4537  163.1474 C   0  0  0  0  0  0  0  0  0  0  0  0
  132.7241  138.0057  162.1325 C   0  0  0  0  0  0  0  0  0  0  0  0
  132.7589  136.6782  161.7385 C   0  0  0  0  0  0  0  0  0  0  0  0
  131.8523  136.2296  160.6205 C   0  0  0  0  0  0  0  0  0  0  0  0
  129.1564  133.7185  158.2336 N   0  0  0  0  0  0  0  0  0  0  0  0
  128.3199  133.2287  158.2701 H   0  0  0  0  0  0  0  0  0  0  0  0
  129.7852  133.9990  156.9404 C   0  0  0  0  0  0  0  0  0  0  0  0
  130.0926  132.7009  156.2393 C   0  0  0  0  0  0  0  0  0  0  0  0
  129.8004  132.5551  154.8957 C   0  0  0  0  0  0  0  0  0  0  0  0
  130.0823  131.3652  154.2513 C   0  0  0  0  0  0  0  0  0  0  0  0
  130.6566  130.3197  154.9494 C   0  0  0  0  0  0  0  0  0  0  0  0
  130.9493  130.4644  156.2948 C   0  0  0  0  0  0  0  0  0  0  0  0
  131.5102  129.4430  156.9783 F   0  0  0  0  0  0  0  0  0  0  0  0
  130.6716  131.6589  156.9381 C   0  0  0  0  0  0  0  0  0  0  0  0
  126.8401  135.3284  161.2975 C   0  0  0  0  0  0  0  0  0  0  0  0
  125.4094  135.0744  161.4111 N   0  0  0  0  0  0  0  0  0  0  0  0
  125.3959  132.6821  159.4549 H   0  0  0  0  0  0  0  0  0  0  0  0
  125.2201  131.8280  161.0058 H   0  0  0  0  0  0  0  0  0  0  0  0
  127.2787  132.7701  161.8498 H   0  0  0  0  0  0  0  0  0  0  0  0
  127.6274  132.1637  160.2107 H   0  0  0  0  0  0  0  0  0  0  0  0
  129.3683  134.7447  161.2480 H   0  0  0  0  0  0  0  0  0  0  0  0
  131.6340  134.0243  158.6324 H   0  0  0  0  0  0  0  0  0  0  0  0
  131.1227  134.3978  161.4980 H   0  0  0  0  0  0  0  0  0  0  0  0
  133.0717  133.0170  160.6934 H   0  0  0  0  0  0  0  0  0  0  0  0
  133.7581  134.4841  159.9496 H   0  0  0  0  0  0  0  0  0  0  0  0
  135.1224  135.5639  163.8796 H   0  0  0  0  0  0  0  0  0  0  0  0
  133.5143  139.4897  163.4508 H   0  0  0  0  0  0  0  0  0  0  0  0
  132.0503  138.6937  161.6435 H   0  0  0  0  0  0  0  0  0  0  0  0
  132.2715  136.5448  159.6649 H   0  0  0  0  0  0  0  0  0  0  0  0
  130.8676  136.6787  160.7496 H   0  0  0  0  0  0  0  0  0  0  0  0
  129.1061  134.5913  156.3270 H   0  0  0  0  0  0  0  0  0  0  0  0
  130.7097  134.5543  157.0988 H   0  0  0  0  0  0  0  0  0  0  0  0
  129.3520  133.3716  154.3494 H   0  0  0  0  0  0  0  0  0  0  0  0
  129.8540  131.2525  153.2018 H   0  0  0  0  0  0  0  0  0  0  0  0
  130.8775  129.3903  154.4455 H   0  0  0  0  0  0  0  0  0  0  0  0
  130.9041  131.7747  157.9863 H   0  0  0  0  0  0  0  0  0  0  0  0
  127.2993  135.2504  162.2828 H   0  0  0  0  0  0  0  0  0  0  0  0
  126.9945  136.3343  160.9067 H   0  0  0  0  0  0  0  0  0  0  0  0
  124.8450  135.7919  161.7391 H   0  0  0  0  0  0  0  0  0  0  0  0
  1  2  2  0
  2 32  1  0
  2  3  1  0
  3  4  1  0
  3 33  1  0
  3 34  1  0
  4  5  1  0
  4 35  1  0
  4 36  1  0
  5  6  1  6
  5  7  1  0
  5 31  1  0
  7 37  1  0
  8  7  1  0
  8  9  1  0
  8 21  2  0
  9 10  1  0
  9 38  1  0
 10 20  1  0
 10 11  1  0
 10 39  1  1
 11 12  1  0
 11 40  1  0
 11 41  1  0
 12 13  1  0
 13 19  2  0
 13 14  1  0
 14 15  2  0
 14 42  1  0
 15 16  1  0
 15 17  1  0
 17 18  2  0
 17 43  1  0
 18 19  1  0
 18 44  1  0
 19 20  1  0
 20 45  1  0
 20 46  1  0
 21 22  1  0
 21 23  1  0
 23 24  1  0
 23 47  1  0
 23 48  1  0
 24 30  1  0
 24 25  2  0
 25 26  1  0
 25 49  1  0
 26 27  2  0
 26 50  1  0
 27 28  1  0
 27 51  1  0
 28 29  1  0
 28 30  2  0
 30 52  1  0
 31 32  1  0
 31 53  1  0
 31 54  1  0
 32 55  1  0
M  CHG  1  21   1
M  END
>  <DOCK_score>  (1) 
-48.61795

>  <SMILES>  (1) 
O=C1CC[C@H](NC(NC2COc3cc(Cl)ccc3C2)=[NH+]Cc2cccc(F)c2)CN1

$$$$
