O=C1COc2cccc([C@H](O)c3ccccc3C[NH+]3CCN(c4cccc5ccccc45)CC3)c2N1
     RDKit          3D

 66 71  0  0  1  0  0  0  0  0999 V2000
  128.5451  137.0221  165.8378 O   0  0  0  0  0  0  0  0  0  0  0  0
  128.5133  135.9845  165.2104 C   0  0  0  0  0  0  0  0  0  0  0  0
  129.1935  134.7522  165.7507 C   0  0  0  0  0  0  0  0  0  0  0  0
  128.4837  133.5861  165.3254 O   0  0  0  0  0  0  0  0  0  0  0  0
  128.1303  133.5298  164.0134 C   0  0  0  0  0  0  0  0  0  0  0  0
  128.0806  132.3180  163.3470 C   0  0  0  0  0  0  0  0  0  0  0  0
  127.7207  132.2803  162.0120 C   0  0  0  0  0  0  0  0  0  0  0  0
  127.4105  133.4486  161.3405 C   0  0  0  0  0  0  0  0  0  0  0  0
  127.4580  134.6633  161.9998 C   0  0  0  0  0  0  0  0  0  0  0  0
  127.1205  135.9352  161.2655 C   0  0  2  0  0  0  0  0  0  0  0  0
  127.6831  136.7636  161.6961 H   0  0  0  0  0  0  0  0  0  0  0  0
  125.7208  136.1970  161.3848 O   0  0  0  0  0  0  0  0  0  0  0  0
  127.4813  135.7858  159.8099 C   0  0  0  0  0  0  0  0  0  0  0  0
  126.5042  135.9080  158.8394 C   0  0  0  0  0  0  0  0  0  0  0  0
  126.8347  135.7705  157.5048 C   0  0  0  0  0  0  0  0  0  0  0  0
  128.1432  135.5122  157.1396 C   0  0  0  0  0  0  0  0  0  0  0  0
  129.1211  135.3956  158.1095 C   0  0  0  0  0  0  0  0  0  0  0  0
  128.7890  135.5271  159.4451 C   0  0  0  0  0  0  0  0  0  0  0  0
  129.8542  135.3943  160.5029 C   0  0  0  0  0  0  0  0  0  0  0  0
  131.0455  136.1512  160.0959 N   0  0  0  0  0  0  0  0  0  0  0  0
  131.1993  136.0289  159.1062 H   0  0  0  0  0  0  0  0  0  0  0  0
  130.8427  137.5766  160.3871 C   0  0  0  0  0  0  0  0  0  0  0  0
  132.0760  138.3680  159.9459 C   0  0  0  0  0  0  0  0  0  0  0  0
  133.2577  137.8673  160.6619 N   0  0  0  0  0  0  0  0  0  0  0  0
  134.3933  138.6009  160.3255 C   0  0  0  0  0  0  0  0  0  0  0  0
  134.8264  138.6519  159.0175 C   0  0  0  0  0  0  0  0  0  0  0  0
  135.9556  139.3870  158.6700 C   0  0  0  0  0  0  0  0  0  0  0  0
  136.6700  140.0648  159.6105 C   0  0  0  0  0  0  0  0  0  0  0  0
  136.2660  140.0339  160.9560 C   0  0  0  0  0  0  0  0  0  0  0  0
  136.9839  140.7244  161.9480 C   0  0  0  0  0  0  0  0  0  0  0  0
  136.5643  140.6733  163.2415 C   0  0  0  0  0  0  0  0  0  0  0  0
  135.4310  139.9458  163.5998 C   0  0  0  0  0  0  0  0  0  0  0  0
  134.7114  139.2650  162.6656 C   0  0  0  0  0  0  0  0  0  0  0  0
  135.1143  139.2943  161.3215 C   0  0  0  0  0  0  0  0  0  0  0  0
  133.4590  136.4352  160.3998 C   0  0  0  0  0  0  0  0  0  0  0  0
  132.2144  135.6598  160.8372 C   0  0  0  0  0  0  0  0  0  0  0  0
  127.8222  134.7082  163.3354 C   0  0  0  0  0  0  0  0  0  0  0  0
  127.8686  135.9282  164.0247 N   0  0  0  0  0  0  0  0  0  0  0  0
  129.2058  134.7926  166.8398 H   0  0  0  0  0  0  0  0  0  0  0  0
  130.2170  134.7100  165.3782 H   0  0  0  0  0  0  0  0  0  0  0  0
  128.3228  131.4037  163.8681 H   0  0  0  0  0  0  0  0  0  0  0  0
  127.6821  131.3345  161.4918 H   0  0  0  0  0  0  0  0  0  0  0  0
  127.1307  133.4124  160.2980 H   0  0  0  0  0  0  0  0  0  0  0  0
  125.4170  136.3047  162.2964 H   0  0  0  0  0  0  0  0  0  0  0  0
  125.4822  136.1103  159.1245 H   0  0  0  0  0  0  0  0  0  0  0  0
  126.0715  135.8659  156.7466 H   0  0  0  0  0  0  0  0  0  0  0  0
  128.4018  135.4048  156.0965 H   0  0  0  0  0  0  0  0  0  0  0  0
  130.1438  135.1979  157.8242 H   0  0  0  0  0  0  0  0  0  0  0  0
  130.1158  134.3432  160.6252 H   0  0  0  0  0  0  0  0  0  0  0  0
  129.4790  135.7876  161.4476 H   0  0  0  0  0  0  0  0  0  0  0  0
  129.9674  137.9368  159.8465 H   0  0  0  0  0  0  0  0  0  0  0  0
  130.6890  137.7103  161.4578 H   0  0  0  0  0  0  0  0  0  0  0  0
  132.2220  138.2455  158.8727 H   0  0  0  0  0  0  0  0  0  0  0  0
  131.9318  139.4238  160.1754 H   0  0  0  0  0  0  0  0  0  0  0  0
  134.2804  138.1188  158.2531 H   0  0  0  0  0  0  0  0  0  0  0  0
  136.2736  139.4162  157.6383 H   0  0  0  0  0  0  0  0  0  0  0  0
  137.5469  140.6256  159.3225 H   0  0  0  0  0  0  0  0  0  0  0  0
  137.8641  141.2921  161.6848 H   0  0  0  0  0  0  0  0  0  0  0  0
  137.1176  141.2046  164.0017 H   0  0  0  0  0  0  0  0  0  0  0  0
  135.1189  139.9217  164.6334 H   0  0  0  0  0  0  0  0  0  0  0  0
  133.8354  138.7050  162.9576 H   0  0  0  0  0  0  0  0  0  0  0  0
  134.3241  136.0809  160.9605 H   0  0  0  0  0  0  0  0  0  0  0  0
  133.6279  136.2809  159.3340 H   0  0  0  0  0  0  0  0  0  0  0  0
  132.0538  135.8034  161.9057 H   0  0  0  0  0  0  0  0  0  0  0  0
  132.3561  134.5990  160.6304 H   0  0  0  0  0  0  0  0  0  0  0  0
  127.4478  136.7201  163.6550 H   0  0  0  0  0  0  0  0  0  0  0  0
  1  2  2  0
  2 38  1  0
  2  3  1  0
  3  4  1  0
  3 39  1  0
  3 40  1  0
  4  5  1  0
  5 37  2  0
  5  6  1  0
  6  7  2  0
  6 41  1  0
  7  8  1  0
  7 42  1  0
  8  9  2  0
  8 43  1  0
  9 10  1  0
  9 37  1  0
 10 11  1  1
 10 12  1  0
 10 13  1  0
 12 44  1  0
 13 18  1  0
 13 14  2  0
 14 15  1  0
 14 45  1  0
 15 16  2  0
 15 46  1  0
 16 17  1  0
 16 47  1  0
 17 18  2  0
 17 48  1  0
 18 19  1  0
 19 20  1  0
 19 49  1  0
 19 50  1  0
 20 21  1  0
 20 36  1  0
 20 22  1  0
 22 23  1  0
 22 51  1  0
 22 52  1  0
 23 24  1  0
 23 53  1  0
 23 54  1  0
 24 25  1  0
 24 35  1  0
 25 34  1  0
 25 26  2  0
 26 27  1  0
 26 55  1  0
 27 28  2  0
 27 56  1  0
 28 29  1  0
 28 57  1  0
 29 34  2  0
 29 30  1  0
 30 31  2  0
 30 58  1  0
 31 32  1  0
 31 59  1  0
 32 33  2  0
 32 60  1  0
 33 34  1  0
 33 61  1  0
 35 36  1  0
 35 62  1  0
 35 63  1  0
 36 64  1  0
 36 65  1  0
 37 38  1  0
 38 66  1  0
M  CHG  1  20   1
M  END
>  <DOCK_score>  (1) 
-45.267223

>  <SMILES>  (1) 
O=C1COc2cccc([C@H](O)c3ccccc3C[NH+]3CCN(c4cccc5ccccc45)CC3)c2N1

$$$$
