Nc1ccc(-c2c[nH]c(N[C@@H](Cc3cncc4ccccc34)c3ccccn3)[nH+]2)cc1
     RDKit          3D

 54 58  0  0  1  0  0  0  0  0999 V2000
  131.2242  129.5321  152.1580 N   0  0  0  0  0  0  0  0  0  0  0  0
  130.9770  130.2222  153.3473 C   0  0  0  0  0  0  0  0  0  0  0  0
  130.0729  131.2786  153.3607 C   0  0  0  0  0  0  0  0  0  0  0  0
  129.8274  131.9620  154.5330 C   0  0  0  0  0  0  0  0  0  0  0  0
  130.4861  131.5928  155.7048 C   0  0  0  0  0  0  0  0  0  0  0  0
  130.2241  132.3269  156.9670 C   0  0  0  0  0  0  0  0  0  0  0  0
  129.7299  131.7943  158.1119 C   0  0  0  0  0  0  0  0  0  0  0  0
  129.6463  132.8190  159.0246 N   0  0  0  0  0  0  0  0  0  0  0  0
  129.3280  132.7502  159.9384 H   0  0  0  0  0  0  0  0  0  0  0  0
  130.0924  133.9478  158.4093 C   0  0  0  0  0  0  0  0  0  0  0  0
  130.1700  135.2038  158.9863 N   0  0  0  0  0  0  0  0  0  0  0  0
  129.2219  135.5878  160.0350 C   0  0  1  0  0  0  0  0  0  0  0  0
  129.6279  135.3155  161.0092 H   0  0  0  0  0  0  0  0  0  0  0  0
  128.9895  137.0994  159.9838 C   0  0  0  0  0  0  0  0  0  0  0  0
  130.1319  137.8066  160.6663 C   0  0  0  0  0  0  0  0  0  0  0  0
  131.2316  138.1916  159.9607 C   0  0  0  0  0  0  0  0  0  0  0  0
  132.2500  138.8150  160.5367 N   0  0  0  0  0  0  0  0  0  0  0  0
  132.2738  139.1047  161.8167 C   0  0  0  0  0  0  0  0  0  0  0  0
  131.1887  138.7512  162.6342 C   0  0  0  0  0  0  0  0  0  0  0  0
  131.1661  139.0376  164.0082 C   0  0  0  0  0  0  0  0  0  0  0  0
  130.0864  138.6704  164.7524 C   0  0  0  0  0  0  0  0  0  0  0  0
  129.0021  138.0139  164.1724 C   0  0  0  0  0  0  0  0  0  0  0  0
  128.9895  137.7191  162.8426 C   0  0  0  0  0  0  0  0  0  0  0  0
  130.0815  138.0877  162.0435 C   0  0  0  0  0  0  0  0  0  0  0  0
  127.9143  134.8710  159.8175 C   0  0  0  0  0  0  0  0  0  0  0  0
  126.9358  135.4570  159.0364 C   0  0  0  0  0  0  0  0  0  0  0  0
  125.7385  134.7869  158.8383 C   0  0  0  0  0  0  0  0  0  0  0  0
  125.5653  133.5518  159.4446 C   0  0  0  0  0  0  0  0  0  0  0  0
  126.5867  133.0310  160.2159 C   0  0  0  0  0  0  0  0  0  0  0  0
  127.7148  133.6947  160.3785 N   0  0  0  0  0  0  0  0  0  0  0  0
  130.4315  133.6508  157.1783 N   0  0  0  0  0  0  0  0  0  0  0  0
  130.7773  134.2774  156.5236 H   0  0  0  0  0  0  0  0  0  0  0  0
  131.3957  130.5366  155.6874 C   0  0  0  0  0  0  0  0  0  0  0  0
  131.6342  129.8527  154.5140 C   0  0  0  0  0  0  0  0  0  0  0  0
  130.7654  129.7896  151.3430 H   0  0  0  0  0  0  0  0  0  0  0  0
  131.8548  128.7951  152.1474 H   0  0  0  0  0  0  0  0  0  0  0  0
  129.5628  131.5641  152.4526 H   0  0  0  0  0  0  0  0  0  0  0  0
  129.1251  132.7823  154.5433 H   0  0  0  0  0  0  0  0  0  0  0  0
  129.4541  130.7630  158.2752 H   0  0  0  0  0  0  0  0  0  0  0  0
  130.8519  135.8297  158.6960 H   0  0  0  0  0  0  0  0  0  0  0  0
  128.9308  137.4228  158.9446 H   0  0  0  0  0  0  0  0  0  0  0  0
  128.0565  137.3410  160.4929 H   0  0  0  0  0  0  0  0  0  0  0  0
  131.2749  137.9833  158.9019 H   0  0  0  0  0  0  0  0  0  0  0  0
  133.1268  139.6137  162.2404 H   0  0  0  0  0  0  0  0  0  0  0  0
  131.9986  139.5460  164.4717 H   0  0  0  0  0  0  0  0  0  0  0  0
  130.0701  138.8910  165.8094 H   0  0  0  0  0  0  0  0  0  0  0  0
  128.1592  137.7344  164.7870 H   0  0  0  0  0  0  0  0  0  0  0  0
  128.1431  137.2098  162.4061 H   0  0  0  0  0  0  0  0  0  0  0  0
  127.1033  136.4229  158.5834 H   0  0  0  0  0  0  0  0  0  0  0  0
  124.9574  135.2185  158.2301 H   0  0  0  0  0  0  0  0  0  0  0  0
  124.6435  133.0038  159.3158 H   0  0  0  0  0  0  0  0  0  0  0  0
  126.4597  132.0697  160.6915 H   0  0  0  0  0  0  0  0  0  0  0  0
  131.9103  130.2516  156.5932 H   0  0  0  0  0  0  0  0  0  0  0  0
  132.3359  129.0317  154.5011 H   0  0  0  0  0  0  0  0  0  0  0  0
  1  2  1  0
  1 35  1  0
  1 36  1  0
  2 34  2  0
  2  3  1  0
  3  4  2  0
  3 37  1  0
  4  5  1  0
  4 38  1  0
  5  6  1  0
  5 33  2  0
  6 31  1  0
  6  7  2  0
  7  8  1  0
  7 39  1  0
  8  9  1  0
  8 10  1  0
 10 11  1  0
 10 31  2  0
 11 12  1  0
 11 40  1  0
 12 13  1  1
 12 14  1  0
 12 25  1  0
 14 15  1  0
 14 41  1  0
 14 42  1  0
 15 24  1  0
 15 16  2  0
 16 17  1  0
 16 43  1  0
 17 18  2  0
 18 19  1  0
 18 44  1  0
 19 24  2  0
 19 20  1  0
 20 21  2  0
 20 45  1  0
 21 22  1  0
 21 46  1  0
 22 23  2  0
 22 47  1  0
 23 24  1  0
 23 48  1  0
 25 30  1  0
 25 26  2  0
 26 27  1  0
 26 49  1  0
 27 28  2  0
 27 50  1  0
 28 29  1  0
 28 51  1  0
 29 30  2  0
 29 52  1  0
 31 32  1  0
 33 34  1  0
 33 53  1  0
 34 54  1  0
M  CHG  1  31   1
M  END
>  <DOCK_score>  (1) 
-56.837639

>  <SMILES>  (1) 
Nc1ccc(-c2c[nH]c(N[C@@H](Cc3cncc4ccccc34)c3ccccn3)[nH+]2)cc1

$$$$
