c1ccc(-c2ccc(Nc3ccc(-c4n[nH]cc4C[NH2+][C@@H]4CC45CCCC5)o3)cc2)cc1
     RDKit          3D

 61 66  0  0  1  0  0  0  0  0999 V2000
  130.5146  140.2342  168.1041 C   0  0  0  0  0  0  0  0  0  0  0  0
  130.4111  138.8550  168.1227 C   0  0  0  0  0  0  0  0  0  0  0  0
  129.7115  138.1994  167.1300 C   0  0  0  0  0  0  0  0  0  0  0  0
  129.1082  138.9299  166.1077 C   0  0  0  0  0  0  0  0  0  0  0  0
  128.3553  138.2310  165.0378 C   0  0  0  0  0  0  0  0  0  0  0  0
  128.7178  136.9390  164.6590 C   0  0  0  0  0  0  0  0  0  0  0  0
  128.0173  136.2914  163.6642 C   0  0  0  0  0  0  0  0  0  0  0  0
  126.9499  136.9258  163.0381 C   0  0  0  0  0  0  0  0  0  0  0  0
  126.2424  136.2686  162.0305 N   0  0  0  0  0  0  0  0  0  0  0  0
  126.8852  135.3359  161.2248 C   0  0  0  0  0  0  0  0  0  0  0  0
  126.3058  134.2528  160.6490 C   0  0  0  0  0  0  0  0  0  0  0  0
  127.3120  133.5850  159.9241 C   0  0  0  0  0  0  0  0  0  0  0  0
  128.4580  134.2960  160.0944 C   0  0  0  0  0  0  0  0  0  0  0  0
  129.7757  133.9659  159.5134 C   0  0  0  0  0  0  0  0  0  0  0  0
  130.0467  132.9322  158.7409 N   0  0  0  0  0  0  0  0  0  0  0  0
  131.4061  132.9837  158.4073 N   0  0  0  0  0  0  0  0  0  0  0  0
  131.8791  132.3475  157.8484 H   0  0  0  0  0  0  0  0  0  0  0  0
  131.9430  134.0759  158.9931 C   0  0  0  0  0  0  0  0  0  0  0  0
  130.9677  134.7004  159.6870 C   0  0  0  0  0  0  0  0  0  0  0  0
  131.1232  135.9613  160.4977 C   0  0  0  0  0  0  0  0  0  0  0  0
  130.8703  137.1281  159.6419 N   0  0  0  0  0  0  0  0  0  0  0  0
  129.9321  137.0783  159.2739 H   0  0  0  0  0  0  0  0  0  0  0  0
  131.5308  137.1349  158.8790 H   0  0  0  0  0  0  0  0  0  0  0  0
  131.0220  138.3570  160.4319 C   0  0  2  0  0  0  0  0  0  0  0  0
  130.6224  138.3171  161.4453 H   0  0  0  0  0  0  0  0  0  0  0  0
  130.9305  139.6918  159.6880 C   0  0  0  0  0  0  0  0  0  0  0  0
  132.2774  139.1931  160.2021 C   0  0  0  0  0  0  0  0  0  0  0  0
  132.9822  139.8949  161.3762 C   0  0  0  0  0  0  0  0  0  0  0  0
  134.4144  139.3022  161.3643 C   0  0  0  0  0  0  0  0  0  0  0  0
  134.7174  139.1658  159.8510 C   0  0  0  0  0  0  0  0  0  0  0  0
  133.3724  138.7269  159.2329 C   0  0  0  0  0  0  0  0  0  0  0  0
  128.1869  135.3519  160.8898 O   0  0  0  0  0  0  0  0  0  0  0  0
  126.5901  138.2162  163.4109 C   0  0  0  0  0  0  0  0  0  0  0  0
  127.2846  138.8652  164.4092 C   0  0  0  0  0  0  0  0  0  0  0  0
  129.2200  140.3190  166.0914 C   0  0  0  0  0  0  0  0  0  0  0  0
  129.9183  140.9643  167.0917 C   0  0  0  0  0  0  0  0  0  0  0  0
  131.0635  140.7431  168.8827 H   0  0  0  0  0  0  0  0  0  0  0  0
  130.8790  138.2900  168.9153 H   0  0  0  0  0  0  0  0  0  0  0  0
  129.6318  137.1225  167.1451 H   0  0  0  0  0  0  0  0  0  0  0  0
  129.5468  136.4460  165.1449 H   0  0  0  0  0  0  0  0  0  0  0  0
  128.2977  135.2906  163.3703 H   0  0  0  0  0  0  0  0  0  0  0  0
  125.3021  136.4627  161.8924 H   0  0  0  0  0  0  0  0  0  0  0  0
  125.2699  133.9584  160.7310 H   0  0  0  0  0  0  0  0  0  0  0  0
  127.1954  132.6816  159.3439 H   0  0  0  0  0  0  0  0  0  0  0  0
  132.9731  134.3926  158.9212 H   0  0  0  0  0  0  0  0  0  0  0  0
  132.1367  136.0150  160.8952 H   0  0  0  0  0  0  0  0  0  0  0  0
  130.4097  135.9536  161.3217 H   0  0  0  0  0  0  0  0  0  0  0  0
  130.7583  139.6578  158.6122 H   0  0  0  0  0  0  0  0  0  0  0  0
  130.4706  140.5298  160.2118 H   0  0  0  0  0  0  0  0  0  0  0  0
  133.0134  140.9723  161.2139 H   0  0  0  0  0  0  0  0  0  0  0  0
  132.4809  139.6636  162.3159 H   0  0  0  0  0  0  0  0  0  0  0  0
  134.4327  138.3272  161.8510 H   0  0  0  0  0  0  0  0  0  0  0  0
  135.1207  139.9828  161.8396 H   0  0  0  0  0  0  0  0  0  0  0  0
  135.4807  138.4063  159.6820 H   0  0  0  0  0  0  0  0  0  0  0  0
  135.0338  140.1225  159.4357 H   0  0  0  0  0  0  0  0  0  0  0  0
  133.3442  137.6422  159.1304 H   0  0  0  0  0  0  0  0  0  0  0  0
  133.2358  139.1980  158.2596 H   0  0  0  0  0  0  0  0  0  0  0  0
  125.7635  138.7089  162.9207 H   0  0  0  0  0  0  0  0  0  0  0  0
  127.0023  139.8659  164.7012 H   0  0  0  0  0  0  0  0  0  0  0  0
  128.7579  140.8896  165.2993 H   0  0  0  0  0  0  0  0  0  0  0  0
  130.0024  142.0409  167.0820 H   0  0  0  0  0  0  0  0  0  0  0  0
  1 36  2  0
  1  2  1  0
  1 37  1  0
  2  3  2  0
  2 38  1  0
  3  4  1  0
  3 39  1  0
  4  5  1  0
  4 35  2  0
  5 34  1  0
  5  6  2  0
  6  7  1  0
  6 40  1  0
  7  8  2  0
  7 41  1  0
  8  9  1  0
  8 33  1  0
  9 10  1  0
  9 42  1  0
 10 32  1  0
 10 11  2  0
 11 12  1  0
 11 43  1  0
 12 13  2  0
 12 44  1  0
 13 14  1  0
 13 32  1  0
 14 19  1  0
 14 15  2  0
 15 16  1  0
 16 17  1  0
 16 18  1  0
 18 19  2  0
 18 45  1  0
 19 20  1  0
 20 21  1  0
 20 46  1  0
 20 47  1  0
 21 22  1  0
 21 23  1  0
 21 24  1  0
 24 25  1  1
 24 27  1  0
 24 26  1  0
 26 27  1  0
 26 48  1  0
 26 49  1  0
 27 31  1  0
 27 28  1  0
 28 29  1  0
 28 50  1  0
 28 51  1  0
 29 30  1  0
 29 52  1  0
 29 53  1  0
 30 31  1  0
 30 54  1  0
 30 55  1  0
 31 56  1  0
 31 57  1  0
 33 34  2  0
 33 58  1  0
 34 59  1  0
 35 36  1  0
 35 60  1  0
 36 61  1  0
M  CHG  1  21   1
M  END
>  <DOCK_score>  (1) 
-46.064201

>  <SMILES>  (1) 
c1ccc(-c2ccc(Nc3ccc(-c4n[nH]cc4C[NH2+][C@@H]4CC45CCCC5)o3)cc2)cc1

$$$$
