Cn1cc(C[C@H](Nc2[nH]c3ccccc3[nH+]2)C(=O)N[C@H]2CCC(=O)NC2)cn1
     RDKit          3D

 52 55  0  0  1  0  0  0  0  0999 V2000
  136.0797  137.1753  162.5240 C   0  0  0  0  0  0  0  0  0  0  0  0
  134.7828  137.2192  161.8441 N   0  0  0  0  0  0  0  0  0  0  0  0
  133.6093  136.7780  162.3434 C   0  0  0  0  0  0  0  0  0  0  0  0
  132.6549  136.9979  161.4097 C   0  0  0  0  0  0  0  0  0  0  0  0
  131.1921  136.6602  161.5404 C   0  0  0  0  0  0  0  0  0  0  0  0
  130.9478  135.2419  161.0215 C   0  0  2  0  0  0  0  0  0  0  0  0
  131.5374  134.5349  161.6050 H   0  0  0  0  0  0  0  0  0  0  0  0
  131.3435  135.1622  159.6131 N   0  0  0  0  0  0  0  0  0  0  0  0
  131.2138  133.9768  158.9287 C   0  0  0  0  0  0  0  0  0  0  0  0
  131.5362  133.7956  157.6500 N   0  0  0  0  0  0  0  0  0  0  0  0
  131.8968  134.4714  157.0548 H   0  0  0  0  0  0  0  0  0  0  0  0
  131.2750  132.4922  157.3175 C   0  0  0  0  0  0  0  0  0  0  0  0
  131.4138  131.7505  156.1480 C   0  0  0  0  0  0  0  0  0  0  0  0
  131.0458  130.4225  156.1315 C   0  0  0  0  0  0  0  0  0  0  0  0
  130.5377  129.8192  157.2726 C   0  0  0  0  0  0  0  0  0  0  0  0
  130.3941  130.5392  158.4389 C   0  0  0  0  0  0  0  0  0  0  0  0
  130.7605  131.8815  158.4728 C   0  0  0  0  0  0  0  0  0  0  0  0
  130.7421  132.8450  159.4467 N   0  0  0  0  0  0  0  0  0  0  0  0
  130.4364  132.7231  160.3593 H   0  0  0  0  0  0  0  0  0  0  0  0
  129.4850  134.9042  161.1521 C   0  0  0  0  0  0  0  0  0  0  0  0
  129.0704  134.3860  162.1674 O   0  0  0  0  0  0  0  0  0  0  0  0
  128.6372  135.1780  160.1407 N   0  0  0  0  0  0  0  0  0  0  0  0
  127.2151  134.8497  160.2677 C   0  0  1  0  0  0  0  0  0  0  0  0
  126.6898  135.1414  159.3584 H   0  0  0  0  0  0  0  0  0  0  0  0
  127.0537  133.3423  160.4982 C   0  0  0  0  0  0  0  0  0  0  0  0
  125.5625  133.0015  160.4449 C   0  0  0  0  0  0  0  0  0  0  0  0
  124.7901  133.9492  161.3170 C   0  0  0  0  0  0  0  0  0  0  0  0
  123.6660  133.6374  161.6486 O   0  0  0  0  0  0  0  0  0  0  0  0
  125.2741  135.1154  161.7460 N   0  0  0  0  0  0  0  0  0  0  0  0
  126.6216  135.5943  161.4644 C   0  0  0  0  0  0  0  0  0  0  0  0
  133.2663  137.5938  160.3016 C   0  0  0  0  0  0  0  0  0  0  0  0
  134.5417  137.7270  160.5611 N   0  0  0  0  0  0  0  0  0  0  0  0
  136.2227  138.0936  163.0935 H   0  0  0  0  0  0  0  0  0  0  0  0
  136.1070  136.3207  163.1998 H   0  0  0  0  0  0  0  0  0  0  0  0
  136.8746  137.0790  161.7844 H   0  0  0  0  0  0  0  0  0  0  0  0
  133.4588  136.3298  163.3144 H   0  0  0  0  0  0  0  0  0  0  0  0
  130.8977  136.7195  162.5882 H   0  0  0  0  0  0  0  0  0  0  0  0
  130.6026  137.3673  160.9567 H   0  0  0  0  0  0  0  0  0  0  0  0
  131.6971  135.9456  159.1636 H   0  0  0  0  0  0  0  0  0  0  0  0
  131.8085  132.2142  155.2561 H   0  0  0  0  0  0  0  0  0  0  0  0
  131.1534  129.8475  155.2237 H   0  0  0  0  0  0  0  0  0  0  0  0
  130.2531  128.7776  157.2471 H   0  0  0  0  0  0  0  0  0  0  0  0
  129.9977  130.0635  159.3237 H   0  0  0  0  0  0  0  0  0  0  0  0
  128.9687  135.5924  159.3287 H   0  0  0  0  0  0  0  0  0  0  0  0
  127.5838  132.7932  159.7201 H   0  0  0  0  0  0  0  0  0  0  0  0
  127.4562  133.0753  161.4755 H   0  0  0  0  0  0  0  0  0  0  0  0
  125.4116  131.9809  160.7969 H   0  0  0  0  0  0  0  0  0  0  0  0
  125.2085  133.0847  159.4173 H   0  0  0  0  0  0  0  0  0  0  0  0
  124.6931  135.6803  162.2791 H   0  0  0  0  0  0  0  0  0  0  0  0
  127.2519  135.4317  162.3387 H   0  0  0  0  0  0  0  0  0  0  0  0
  126.5859  136.6611  161.2432 H   0  0  0  0  0  0  0  0  0  0  0  0
  132.7708  137.8925  159.3897 H   0  0  0  0  0  0  0  0  0  0  0  0
  1  2  1  0
  1 33  1  0
  1 34  1  0
  1 35  1  0
  2 32  1  0
  2  3  1  0
  3  4  2  0
  3 36  1  0
  4  5  1  0
  4 31  1  0
  5  6  1  0
  5 37  1  0
  5 38  1  0
  6  7  1  1
  6  8  1  0
  6 20  1  0
  8  9  1  0
  8 39  1  0
  9 18  1  0
  9 10  2  0
 10 11  1  0
 10 12  1  0
 12 17  2  0
 12 13  1  0
 13 14  2  0
 13 40  1  0
 14 15  1  0
 14 41  1  0
 15 16  2  0
 15 42  1  0
 16 17  1  0
 16 43  1  0
 17 18  1  0
 18 19  1  0
 20 21  2  0
 20 22  1  0
 22 23  1  0
 22 44  1  0
 23 24  1  6
 23 30  1  0
 23 25  1  0
 25 26  1  0
 25 45  1  0
 25 46  1  0
 26 27  1  0
 26 47  1  0
 26 48  1  0
 27 28  2  0
 27 29  1  0
 29 30  1  0
 29 49  1  0
 30 50  1  0
 30 51  1  0
 31 32  2  0
 31 52  1  0
M  CHG  1  10   1
M  END
>  <DOCK_score>  (1) 
-54.199177

>  <SMILES>  (1) 
Cn1cc(C[C@H](Nc2[nH]c3ccccc3[nH+]2)C(=O)N[C@H]2CCC(=O)NC2)cn1

$$$$
