O=C1CC[C@H]([NH+]=C(NC2CCCCC2)NC2C3c4cc(Cl)ccc4C[C@H]23)CN1
     RDKit          3D

 58 62  0  0  1  0  0  0  0  0999 V2000
  125.6600  135.2268  165.0253 O   0  0  0  0  0  0  0  0  0  0  0  0
  126.6021  135.5353  164.3266 C   0  0  0  0  0  0  0  0  0  0  0  0
  127.9663  135.0415  164.7144 C   0  0  0  0  0  0  0  0  0  0  0  0
  129.0408  135.8665  164.0014 C   0  0  0  0  0  0  0  0  0  0  0  0
  128.6837  135.9438  162.5122 C   0  0  2  0  0  0  0  0  0  0  0  0
  128.5148  134.9394  162.1239 H   0  0  0  0  0  0  0  0  0  0  0  0
  129.7805  136.5774  161.7760 N   0  0  0  0  0  0  0  0  0  0  0  0
  130.3414  137.2366  162.2140 H   0  0  0  0  0  0  0  0  0  0  0  0
  130.0025  136.2553  160.5328 C   0  0  0  0  0  0  0  0  0  0  0  0
  129.2075  135.3210  159.9122 N   0  0  0  0  0  0  0  0  0  0  0  0
  129.7601  134.4804  158.8472 C   0  0  0  0  0  0  0  0  0  0  0  0
  128.6750  133.5338  158.3299 C   0  0  0  0  0  0  0  0  0  0  0  0
  129.2522  132.6558  157.2176 C   0  0  0  0  0  0  0  0  0  0  0  0
  130.4222  131.8382  157.7685 C   0  0  0  0  0  0  0  0  0  0  0  0
  131.5072  132.7849  158.2857 C   0  0  0  0  0  0  0  0  0  0  0  0
  130.9301  133.6627  159.3979 C   0  0  0  0  0  0  0  0  0  0  0  0
  131.0318  136.8499  159.8420 N   0  0  0  0  0  0  0  0  0  0  0  0
  131.8791  137.8455  160.5032 C   0  0  1  0  0  0  0  0  0  0  0  0
  132.6549  138.8163  159.6114 C   0  0  2  0  0  0  0  0  0  0  0  0
  133.8731  139.5096  160.1714 C   0  0  0  0  0  0  0  0  0  0  0  0
  135.2052  139.4013  159.7976 C   0  0  0  0  0  0  0  0  0  0  0  0
  136.1745  140.1374  160.4510 C   0  0  0  0  0  0  0  0  0  0  0  0
  137.8390  139.9976  159.9781 Cl  0  0  0  0  0  0  0  0  0  0  0  0
  135.8159  140.9864  161.4830 C   0  0  0  0  0  0  0  0  0  0  0  0
  134.4915  141.0943  161.8553 C   0  0  0  0  0  0  0  0  0  0  0  0
  133.5166  140.3552  161.1996 C   0  0  0  0  0  0  0  0  0  0  0  0
  132.0251  140.3083  161.4283 C   0  0  0  0  0  0  0  0  0  0  0  0
  131.4461  139.3108  160.4164 C   0  0  2  0  0  0  0  0  0  0  0  0
  130.5020  139.5623  159.9333 H   0  0  0  0  0  0  0  0  0  0  0  0
  127.4118  136.7784  162.3563 C   0  0  0  0  0  0  0  0  0  0  0  0
  126.3711  136.2949  163.2552 N   0  0  0  0  0  0  0  0  0  0  0  0
  128.0665  133.9940  164.4306 H   0  0  0  0  0  0  0  0  0  0  0  0
  128.0928  135.1369  165.7928 H   0  0  0  0  0  0  0  0  0  0  0  0
  130.0119  135.3862  164.1215 H   0  0  0  0  0  0  0  0  0  0  0  0
  129.0727  136.8708  164.4239 H   0  0  0  0  0  0  0  0  0  0  0  0
  128.2808  135.2184  160.1795 H   0  0  0  0  0  0  0  0  0  0  0  0
  130.1106  135.1119  158.0308 H   0  0  0  0  0  0  0  0  0  0  0  0
  128.3246  132.9022  159.1463 H   0  0  0  0  0  0  0  0  0  0  0  0
  127.8416  134.1162  157.9375 H   0  0  0  0  0  0  0  0  0  0  0  0
  128.4792  131.9813  156.8491 H   0  0  0  0  0  0  0  0  0  0  0  0
  129.6027  133.2873  156.4012 H   0  0  0  0  0  0  0  0  0  0  0  0
  130.8333  131.2128  156.9760 H   0  0  0  0  0  0  0  0  0  0  0  0
  130.0716  131.2067  158.5848 H   0  0  0  0  0  0  0  0  0  0  0  0
  131.8576  133.4164  157.4693 H   0  0  0  0  0  0  0  0  0  0  0  0
  132.3407  132.2023  158.6781 H   0  0  0  0  0  0  0  0  0  0  0  0
  131.7031  134.3372  159.7664 H   0  0  0  0  0  0  0  0  0  0  0  0
  130.5795  133.0313  160.2143 H   0  0  0  0  0  0  0  0  0  0  0  0
  131.1971  136.6101  158.9168 H   0  0  0  0  0  0  0  0  0  0  0  0
  132.3588  137.5164  161.4251 H   0  0  0  0  0  0  0  0  0  0  0  0
  132.6053  138.6939  158.5295 H   0  0  0  0  0  0  0  0  0  0  0  0
  135.4853  138.7384  158.9925 H   0  0  0  0  0  0  0  0  0  0  0  0
  136.5709  141.5633  161.9961 H   0  0  0  0  0  0  0  0  0  0  0  0
  134.2121  141.7572  162.6608 H   0  0  0  0  0  0  0  0  0  0  0  0
  131.8154  139.9714  162.4436 H   0  0  0  0  0  0  0  0  0  0  0  0
  131.5936  141.2966  161.2688 H   0  0  0  0  0  0  0  0  0  0  0  0
  127.6335  137.8198  162.5891 H   0  0  0  0  0  0  0  0  0  0  0  0
  127.0595  136.7095  161.3272 H   0  0  0  0  0  0  0  0  0  0  0  0
  125.4531  136.5412  163.0620 H   0  0  0  0  0  0  0  0  0  0  0  0
  1  2  2  0
  2 31  1  0
  2  3  1  0
  3  4  1  0
  3 32  1  0
  3 33  1  0
  4  5  1  0
  4 34  1  0
  4 35  1  0
  5  6  1  6
  5  7  1  0
  5 30  1  0
  7  8  1  0
  9  7  2  0
  9 10  1  0
  9 17  1  0
 10 11  1  0
 10 36  1  0
 11 16  1  0
 11 12  1  0
 11 37  1  0
 12 13  1  0
 12 38  1  0
 12 39  1  0
 13 14  1  0
 13 40  1  0
 13 41  1  0
 14 15  1  0
 14 42  1  0
 14 43  1  0
 15 16  1  0
 15 44  1  0
 15 45  1  0
 16 46  1  0
 16 47  1  0
 17 18  1  0
 17 48  1  0
 18 28  1  0
 18 19  1  0
 18 49  1  1
 19 28  1  0
 19 20  1  0
 19 50  1  6
 20 26  1  0
 20 21  2  0
 21 22  1  0
 21 51  1  0
 22 23  1  0
 22 24  2  0
 24 25  1  0
 24 52  1  0
 25 26  2  0
 25 53  1  0
 26 27  1  0
 27 28  1  0
 27 54  1  0
 27 55  1  0
 28 29  1  6
 30 31  1  0
 30 56  1  0
 30 57  1  0
 31 58  1  0
M  CHG  1   7   1
M  END
>  <DOCK_score>  (1) 
-48.023743

>  <SMILES>  (1) 
O=C1CC[C@H]([NH+]=C(NC2CCCCC2)NC2C3c4cc(Cl)ccc4C[C@H]23)CN1

$$$$
