Nc1ccc(-c2c[nH]c(NC3(c4ccccc4Br)CCCCC3)[nH+]2)cc1
     RDKit          3D

 50 53  0  0  1  0  0  0  0  0999 V2000
  131.3134  130.0371  151.8162 N   0  0  0  0  0  0  0  0  0  0  0  0
  131.1282  130.6197  153.0723 C   0  0  0  0  0  0  0  0  0  0  0  0
  130.8174  131.9707  153.1715 C   0  0  0  0  0  0  0  0  0  0  0  0
  130.6344  132.5479  154.4103 C   0  0  0  0  0  0  0  0  0  0  0  0
  130.7610  131.7753  155.5637 C   0  0  0  0  0  0  0  0  0  0  0  0
  130.5649  132.3941  156.8976 C   0  0  0  0  0  0  0  0  0  0  0  0
  130.0976  131.7690  158.0064 C   0  0  0  0  0  0  0  0  0  0  0  0
  130.0805  132.7041  159.0141 N   0  0  0  0  0  0  0  0  0  0  0  0
  129.7982  132.5566  159.9302 H   0  0  0  0  0  0  0  0  0  0  0  0
  130.5297  133.8758  158.4877 C   0  0  0  0  0  0  0  0  0  0  0  0
  130.6623  135.0701  159.1750 N   0  0  0  0  0  0  0  0  0  0  0  0
  129.7677  135.3742  160.2946 C   0  0  0  0  0  0  0  0  0  0  0  0
  128.4347  134.7089  160.0676 C   0  0  0  0  0  0  0  0  0  0  0  0
  127.9594  133.7845  160.9788 C   0  0  0  0  0  0  0  0  0  0  0  0
  126.7342  133.1785  160.7736 C   0  0  0  0  0  0  0  0  0  0  0  0
  125.9888  133.4881  159.6511 C   0  0  0  0  0  0  0  0  0  0  0  0
  126.4658  134.4079  158.7367 C   0  0  0  0  0  0  0  0  0  0  0  0
  127.6894  135.0189  158.9445 C   0  0  0  0  0  0  0  0  0  0  0  0
  128.3424  136.2780  157.6939 Br  0  0  0  0  0  0  0  0  0  0  0  0
  130.3829  134.8532  161.5950 C   0  0  0  0  0  0  0  0  0  0  0  0
  131.7361  135.5286  161.8255 C   0  0  0  0  0  0  0  0  0  0  0  0
  131.5401  137.0428  161.9250 C   0  0  0  0  0  0  0  0  0  0  0  0
  130.9250  137.5639  160.6246 C   0  0  0  0  0  0  0  0  0  0  0  0
  129.5717  136.8884  160.3941 C   0  0  0  0  0  0  0  0  0  0  0  0
  130.8214  133.6857  157.2240 N   0  0  0  0  0  0  0  0  0  0  0  0
  131.1653  134.3610  156.6185 H   0  0  0  0  0  0  0  0  0  0  0  0
  131.0780  130.4217  155.4620 C   0  0  0  0  0  0  0  0  0  0  0  0
  131.2546  129.8474  154.2208 C   0  0  0  0  0  0  0  0  0  0  0  0
  131.2250  130.5753  151.0141 H   0  0  0  0  0  0  0  0  0  0  0  0
  131.5303  129.0943  151.7461 H   0  0  0  0  0  0  0  0  0  0  0  0
  130.7198  132.5689  152.2777 H   0  0  0  0  0  0  0  0  0  0  0  0
  130.3926  133.5976  154.4870 H   0  0  0  0  0  0  0  0  0  0  0  0
  129.8001  130.7337  158.0842 H   0  0  0  0  0  0  0  0  0  0  0  0
  131.3476  135.7057  158.9154 H   0  0  0  0  0  0  0  0  0  0  0  0
  128.5436  133.5388  161.8534 H   0  0  0  0  0  0  0  0  0  0  0  0
  126.3612  132.4594  161.4878 H   0  0  0  0  0  0  0  0  0  0  0  0
  125.0333  133.0113  159.4890 H   0  0  0  0  0  0  0  0  0  0  0  0
  125.8832  134.6499  157.8600 H   0  0  0  0  0  0  0  0  0  0  0  0
  129.7173  135.0795  162.4280 H   0  0  0  0  0  0  0  0  0  0  0  0
  130.5226  133.7746  161.5242 H   0  0  0  0  0  0  0  0  0  0  0  0
  132.4018  135.3024  160.9926 H   0  0  0  0  0  0  0  0  0  0  0  0
  132.1745  135.1575  162.7520 H   0  0  0  0  0  0  0  0  0  0  0  0
  132.5042  137.5240  162.0892 H   0  0  0  0  0  0  0  0  0  0  0  0
  130.8744  137.2690  162.7580 H   0  0  0  0  0  0  0  0  0  0  0  0
  131.5906  137.3376  159.7917 H   0  0  0  0  0  0  0  0  0  0  0  0
  130.7852  138.6425  160.6955 H   0  0  0  0  0  0  0  0  0  0  0  0
  129.1334  137.2596  159.4676 H   0  0  0  0  0  0  0  0  0  0  0  0
  128.9060  137.1146  161.2271 H   0  0  0  0  0  0  0  0  0  0  0  0
  131.1810  129.8222  156.3545 H   0  0  0  0  0  0  0  0  0  0  0  0
  131.4958  128.7976  154.1414 H   0  0  0  0  0  0  0  0  0  0  0  0
  1  2  1  0
  1 29  1  0
  1 30  1  0
  2 28  2  0
  2  3  1  0
  3  4  2  0
  3 31  1  0
  4  5  1  0
  4 32  1  0
  5  6  1  0
  5 27  2  0
  6 25  1  0
  6  7  2  0
  7  8  1  0
  7 33  1  0
  8  9  1  0
  8 10  1  0
 10 11  1  0
 10 25  2  0
 11 12  1  0
 11 34  1  0
 12 24  1  0
 12 13  1  0
 12 20  1  0
 13 18  1  0
 13 14  2  0
 14 15  1  0
 14 35  1  0
 15 16  2  0
 15 36  1  0
 16 17  1  0
 16 37  1  0
 17 18  2  0
 17 38  1  0
 18 19  1  0
 20 21  1  0
 20 39  1  0
 20 40  1  0
 21 22  1  0
 21 41  1  0
 21 42  1  0
 22 23  1  0
 22 43  1  0
 22 44  1  0
 23 24  1  0
 23 45  1  0
 23 46  1  0
 24 47  1  0
 24 48  1  0
 25 26  1  0
 27 28  1  0
 27 49  1  0
 28 50  1  0
M  CHG  1  25   1
M  END
>  <DOCK_score>  (1) 
-58.62569

>  <SMILES>  (1) 
Nc1ccc(-c2c[nH]c(NC3(c4ccccc4Br)CCCCC3)[nH+]2)cc1

$$$$
