CC1=CC(N(Cc2ccn(C(C)C)n2)C(=O)c2c[nH]nc2[C@H]2CCC[NH2+]C2)CC1
     RDKit          3D

 62 65  0  0  1  0  0  0  0  0999 V2000
  129.8015  141.9852  163.4429 C   0  0  0  0  0  0  0  0  0  0  0  0
  129.9366  140.8653  162.4435 C   0  0  0  0  0  0  0  0  0  0  0  0
  129.2397  139.7620  162.4722 C   0  0  0  0  0  0  0  0  0  0  0  0
  129.6183  138.8494  161.3292 C   0  0  2  0  0  0  0  0  0  0  0  0
  130.4879  137.7703  161.8041 N   0  0  0  0  0  0  0  0  0  0  0  0
  131.7758  138.0876  162.4262 C   0  0  0  0  0  0  0  0  0  0  0  0
  132.8456  138.1422  161.3661 C   0  0  0  0  0  0  0  0  0  0  0  0
  133.0205  137.2200  160.3293 C   0  0  0  0  0  0  0  0  0  0  0  0
  134.0843  137.6175  159.5934 C   0  0  0  0  0  0  0  0  0  0  0  0
  134.5654  138.7512  160.1452 N   0  0  0  0  0  0  0  0  0  0  0  0
  135.7153  139.5223  159.6662 C   0  0  0  0  0  0  0  0  0  0  0  0
  135.2652  140.9396  159.3069 C   0  0  0  0  0  0  0  0  0  0  0  0
  136.7785  139.5878  160.7645 C   0  0  0  0  0  0  0  0  0  0  0  0
  133.7677  139.0636  161.2534 N   0  0  0  0  0  0  0  0  0  0  0  0
  130.1031  136.4857  161.6689 C   0  0  0  0  0  0  0  0  0  0  0  0
  130.8250  135.5901  162.0633 O   0  0  0  0  0  0  0  0  0  0  0  0
  128.8069  136.1664  161.0432 C   0  0  0  0  0  0  0  0  0  0  0  0
  127.5628  136.5724  161.4823 C   0  0  0  0  0  0  0  0  0  0  0  0
  126.6526  136.0651  160.6358 N   0  0  0  0  0  0  0  0  0  0  0  0
  125.6920  136.1850  160.6979 H   0  0  0  0  0  0  0  0  0  0  0  0
  127.3236  135.3390  159.6456 N   0  0  0  0  0  0  0  0  0  0  0  0
  128.6060  135.3927  159.8781 C   0  0  0  0  0  0  0  0  0  0  0  0
  129.6843  134.7439  159.0491 C   0  0  1  0  0  0  0  0  0  0  0  0
  130.5976  135.3355  159.1124 H   0  0  0  0  0  0  0  0  0  0  0  0
  129.9529  133.3308  159.5747 C   0  0  0  0  0  0  0  0  0  0  0  0
  130.9929  132.6525  158.6784 C   0  0  0  0  0  0  0  0  0  0  0  0
  130.4879  132.6476  157.2339 C   0  0  0  0  0  0  0  0  0  0  0  0
  130.2755  134.0277  156.7815 N   0  0  0  0  0  0  0  0  0  0  0  0
  131.1345  134.5482  156.8778 H   0  0  0  0  0  0  0  0  0  0  0  0
  129.9928  134.0234  155.8129 H   0  0  0  0  0  0  0  0  0  0  0  0
  129.2283  134.6626  157.5907 C   0  0  0  0  0  0  0  0  0  0  0  0
  130.3805  139.7579  160.3367 C   0  0  0  0  0  0  0  0  0  0  0  0
  130.8962  140.8725  161.2765 C   0  0  0  0  0  0  0  0  0  0  0  0
  129.0407  141.7255  164.1791 H   0  0  0  0  0  0  0  0  0  0  0  0
  130.7559  142.1402  163.9461 H   0  0  0  0  0  0  0  0  0  0  0  0
  129.5102  142.8998  162.9266 H   0  0  0  0  0  0  0  0  0  0  0  0
  128.4909  139.5316  163.2159 H   0  0  0  0  0  0  0  0  0  0  0  0
  128.7248  138.4375  160.8602 H   0  0  0  0  0  0  0  0  0  0  0  0
  131.7097  139.0541  162.9258 H   0  0  0  0  0  0  0  0  0  0  0  0
  132.0264  137.3177  163.1558 H   0  0  0  0  0  0  0  0  0  0  0  0
  132.4136  136.3453  160.1476 H   0  0  0  0  0  0  0  0  0  0  0  0
  134.4781  137.1170  158.7212 H   0  0  0  0  0  0  0  0  0  0  0  0
  136.1344  139.0393  158.7834 H   0  0  0  0  0  0  0  0  0  0  0  0
  134.8462  141.4226  160.1897 H   0  0  0  0  0  0  0  0  0  0  0  0
  136.1208  141.5132  158.9506 H   0  0  0  0  0  0  0  0  0  0  0  0
  134.5078  140.8929  158.5245 H   0  0  0  0  0  0  0  0  0  0  0  0
  136.3596  140.0708  161.6474 H   0  0  0  0  0  0  0  0  0  0  0  0
  137.0993  138.5781  161.0206 H   0  0  0  0  0  0  0  0  0  0  0  0
  137.6342  140.1615  160.4082 H   0  0  0  0  0  0  0  0  0  0  0  0
  127.3590  137.1835  162.3492 H   0  0  0  0  0  0  0  0  0  0  0  0
  130.3324  133.3874  160.5950 H   0  0  0  0  0  0  0  0  0  0  0  0
  129.0275  132.7549  159.5615 H   0  0  0  0  0  0  0  0  0  0  0  0
  131.9336  133.2004  158.7334 H   0  0  0  0  0  0  0  0  0  0  0  0
  131.1489  131.6270  159.0135 H   0  0  0  0  0  0  0  0  0  0  0  0
  131.2260  132.1652  156.5931 H   0  0  0  0  0  0  0  0  0  0  0  0
  129.5472  132.0998  157.1802 H   0  0  0  0  0  0  0  0  0  0  0  0
  128.3144  134.0718  157.5287 H   0  0  0  0  0  0  0  0  0  0  0  0
  129.0367  135.6673  157.2139 H   0  0  0  0  0  0  0  0  0  0  0  0
  131.2089  139.2226  159.8731 H   0  0  0  0  0  0  0  0  0  0  0  0
  129.7072  140.1635  159.5814 H   0  0  0  0  0  0  0  0  0  0  0  0
  130.8714  141.8375  160.7704 H   0  0  0  0  0  0  0  0  0  0  0  0
  131.9077  140.6479  161.6151 H   0  0  0  0  0  0  0  0  0  0  0  0
  1  2  1  0
  1 34  1  0
  1 35  1  0
  1 36  1  0
  2 33  1  0
  2  3  2  0
  3  4  1  0
  3 37  1  0
  4  5  1  0
  4 32  1  0
  4 38  1  6
  5  6  1  0
  5 15  1  0
  6  7  1  0
  6 39  1  0
  6 40  1  0
  7 14  2  0
  7  8  1  0
  8  9  2  0
  8 41  1  0
  9 10  1  0
  9 42  1  0
 10 11  1  0
 10 14  1  0
 11 12  1  0
 11 13  1  0
 11 43  1  0
 12 44  1  0
 12 45  1  0
 12 46  1  0
 13 47  1  0
 13 48  1  0
 13 49  1  0
 15 16  2  0
 15 17  1  0
 17 22  1  0
 17 18  2  0
 18 19  1  0
 18 50  1  0
 19 20  1  0
 19 21  1  0
 21 22  2  0
 22 23  1  0
 23 24  1  6
 23 31  1  0
 23 25  1  0
 25 26  1  0
 25 51  1  0
 25 52  1  0
 26 27  1  0
 26 53  1  0
 26 54  1  0
 27 28  1  0
 27 55  1  0
 27 56  1  0
 28 29  1  0
 28 30  1  0
 28 31  1  0
 31 57  1  0
 31 58  1  0
 32 33  1  0
 32 59  1  0
 32 60  1  0
 33 61  1  0
 33 62  1  0
M  CHG  1  28   1
M  END
>  <DOCK_score>  (1) 
-46.459835

>  <SMILES>  (1) 
CC1=CC(N(Cc2ccn(C(C)C)n2)C(=O)c2c[nH]nc2[C@H]2CCC[NH2+]C2)CC1

$$$$
