Cc1ccc(-c2ccccc2)cc1C[NH+]=C(NCc1cccs1)N[C@H]1C[C@@H](O)C1
     RDKit          3D

 57 60  0  0  1  0  0  0  0  0999 V2000
  131.6204  139.4907  158.9181 C   0  0  0  0  0  0  0  0  0  0  0  0
  132.6243  138.8499  159.8416 C   0  0  0  0  0  0  0  0  0  0  0  0
  133.9277  139.3124  159.8703 C   0  0  0  0  0  0  0  0  0  0  0  0
  134.8524  138.7260  160.7102 C   0  0  0  0  0  0  0  0  0  0  0  0
  134.4695  137.6694  161.5342 C   0  0  0  0  0  0  0  0  0  0  0  0
  135.4593  137.0352  162.4399 C   0  0  0  0  0  0  0  0  0  0  0  0
  135.3335  135.6900  162.7811 C   0  0  0  0  0  0  0  0  0  0  0  0
  136.2605  135.1036  163.6189 C   0  0  0  0  0  0  0  0  0  0  0  0
  137.3057  135.8517  164.1293 C   0  0  0  0  0  0  0  0  0  0  0  0
  137.4324  137.1889  163.7986 C   0  0  0  0  0  0  0  0  0  0  0  0
  136.5146  137.7839  162.9566 C   0  0  0  0  0  0  0  0  0  0  0  0
  133.1543  137.2111  161.5052 C   0  0  0  0  0  0  0  0  0  0  0  0
  132.2376  137.8052  160.6611 C   0  0  0  0  0  0  0  0  0  0  0  0
  130.8147  137.3104  160.6282 C   0  0  0  0  0  0  0  0  0  0  0  0
  130.6900  136.2483  159.6269 N   0  0  0  0  0  0  0  0  0  0  0  0
  131.2626  136.2504  158.8439 H   0  0  0  0  0  0  0  0  0  0  0  0
  129.8099  135.3004  159.7881 C   0  0  0  0  0  0  0  0  0  0  0  0
  130.0496  134.0459  159.2796 N   0  0  0  0  0  0  0  0  0  0  0  0
  131.2944  133.7741  158.5565 C   0  0  0  0  0  0  0  0  0  0  0  0
  131.3103  132.3359  158.1068 C   0  0  0  0  0  0  0  0  0  0  0  0
  130.8328  131.8884  156.9445 C   0  0  0  0  0  0  0  0  0  0  0  0
  130.9600  130.5240  156.7482 C   0  0  0  0  0  0  0  0  0  0  0  0
  131.5329  129.8623  157.7548 C   0  0  0  0  0  0  0  0  0  0  0  0
  131.9547  130.9895  159.0373 S   0  0  0  0  0  0  0  0  0  0  0  0
  128.6417  135.5554  160.4667 N   0  0  0  0  0  0  0  0  0  0  0  0
  127.6525  134.4902  160.6480 C   0  0  1  0  0  0  0  0  0  0  0  0
  128.1025  133.4987  160.6976 H   0  0  0  0  0  0  0  0  0  0  0  0
  126.6481  134.7681  161.7789 C   0  0  0  0  0  0  0  0  0  0  0  0
  125.5682  134.1737  160.8594 C   0  0  1  0  0  0  0  0  0  0  0  0
  125.4484  133.0956  160.9668 H   0  0  0  0  0  0  0  0  0  0  0  0
  124.3255  134.8775  160.9065 O   0  0  0  0  0  0  0  0  0  0  0  0
  126.4652  134.5798  159.6747 C   0  0  0  0  0  0  0  0  0  0  0  0
  131.1284  140.3161  159.4326 H   0  0  0  0  0  0  0  0  0  0  0  0
  132.1310  139.8678  158.0319 H   0  0  0  0  0  0  0  0  0  0  0  0
  130.8759  138.7519  158.6217 H   0  0  0  0  0  0  0  0  0  0  0  0
  134.2234  140.1312  159.2308 H   0  0  0  0  0  0  0  0  0  0  0  0
  135.8707  139.0854  160.7289 H   0  0  0  0  0  0  0  0  0  0  0  0
  134.5148  135.1062  162.3867 H   0  0  0  0  0  0  0  0  0  0  0  0
  136.1667  134.0599  163.8798 H   0  0  0  0  0  0  0  0  0  0  0  0
  138.0262  135.3901  164.7885 H   0  0  0  0  0  0  0  0  0  0  0  0
  138.2509  137.7682  164.1994 H   0  0  0  0  0  0  0  0  0  0  0  0
  136.6145  138.8279  162.6988 H   0  0  0  0  0  0  0  0  0  0  0  0
  132.8524  136.3924  162.1416 H   0  0  0  0  0  0  0  0  0  0  0  0
  130.1493  138.1340  160.3688 H   0  0  0  0  0  0  0  0  0  0  0  0
  130.5432  136.9190  161.6087 H   0  0  0  0  0  0  0  0  0  0  0  0
  129.3946  133.3407  159.3997 H   0  0  0  0  0  0  0  0  0  0  0  0
  131.3594  134.4276  157.6866 H   0  0  0  0  0  0  0  0  0  0  0  0
  132.1442  133.9586  159.2139 H   0  0  0  0  0  0  0  0  0  0  0  0
  130.3832  132.5414  156.2112 H   0  0  0  0  0  0  0  0  0  0  0  0
  130.6179  130.0320  155.8497 H   0  0  0  0  0  0  0  0  0  0  0  0
  131.7107  128.7973  157.7786 H   0  0  0  0  0  0  0  0  0  0  0  0
  128.4725  136.4405  160.8255 H   0  0  0  0  0  0  0  0  0  0  0  0
  126.8287  134.1788  162.6779 H   0  0  0  0  0  0  0  0  0  0  0  0
  126.5094  135.8287  161.9887 H   0  0  0  0  0  0  0  0  0  0  0  0
  124.3892  135.8061  160.6447 H   0  0  0  0  0  0  0  0  0  0  0  0
  126.2755  135.5891  159.3093 H   0  0  0  0  0  0  0  0  0  0  0  0
  126.4983  133.8387  158.8761 H   0  0  0  0  0  0  0  0  0  0  0  0
  1  2  1  0
  1 33  1  0
  1 34  1  0
  1 35  1  0
  2 13  2  0
  2  3  1  0
  3  4  2  0
  3 36  1  0
  4  5  1  0
  4 37  1  0
  5  6  1  0
  5 12  2  0
  6 11  1  0
  6  7  2  0
  7  8  1  0
  7 38  1  0
  8  9  2  0
  8 39  1  0
  9 10  1  0
  9 40  1  0
 10 11  2  0
 10 41  1  0
 11 42  1  0
 12 13  1  0
 12 43  1  0
 13 14  1  0
 14 15  1  0
 14 44  1  0
 14 45  1  0
 15 16  1  0
 17 15  2  0
 17 18  1  0
 17 25  1  0
 18 19  1  0
 18 46  1  0
 19 20  1  0
 19 47  1  0
 19 48  1  0
 20 24  1  0
 20 21  2  0
 21 22  1  0
 21 49  1  0
 22 23  2  0
 22 50  1  0
 23 24  1  0
 23 51  1  0
 25 26  1  0
 25 52  1  0
 26 27  1  1
 26 32  1  0
 26 28  1  0
 28 29  1  0
 28 53  1  0
 28 54  1  0
 29 30  1  1
 29 31  1  0
 29 32  1  0
 31 55  1  0
 32 56  1  0
 32 57  1  0
M  CHG  1  15   1
M  END
>  <DOCK_score>  (1) 
-54.705578

>  <SMILES>  (1) 
Cc1ccc(-c2ccccc2)cc1C[NH+]=C(NCc1cccs1)N[C@H]1C[C@@H](O)C1

$$$$
