Cc1cccc(N2CC[NH+](C(c3ccccc3)c3ccccc3)CC2)c1C(=O)C1CCCC[C@H]1Cl
     RDKit          3D

 71 75  0  0  1  0  0  0  0  0999 V2000
  135.9097  141.5429  162.3643 C   0  0  0  0  0  0  0  0  0  0  0  0
  135.3045  140.7152  161.2599 C   0  0  0  0  0  0  0  0  0  0  0  0
  135.7015  140.9094  159.9561 C   0  0  0  0  0  0  0  0  0  0  0  0
  135.1445  140.1565  158.9336 C   0  0  0  0  0  0  0  0  0  0  0  0
  134.1904  139.1986  159.2093 C   0  0  0  0  0  0  0  0  0  0  0  0
  133.7795  138.9814  160.5185 C   0  0  0  0  0  0  0  0  0  0  0  0
  132.8204  138.0193  160.7980 N   0  0  0  0  0  0  0  0  0  0  0  0
  133.3050  136.6759  160.4508 C   0  0  0  0  0  0  0  0  0  0  0  0
  132.2434  135.6405  160.8289 C   0  0  0  0  0  0  0  0  0  0  0  0
  130.9970  135.9315  160.1085 N   0  0  0  0  0  0  0  0  0  0  0  0
  131.1688  135.9037  159.1146 H   0  0  0  0  0  0  0  0  0  0  0  0
  129.9839  134.9267  160.4582 C   0  0  0  0  0  0  0  0  0  0  0  0
  128.7048  135.2247  159.7192 C   0  0  0  0  0  0  0  0  0  0  0  0
  127.4882  134.8749  160.2744 C   0  0  0  0  0  0  0  0  0  0  0  0
  126.3147  135.1529  159.5988 C   0  0  0  0  0  0  0  0  0  0  0  0
  126.3583  135.7714  158.3635 C   0  0  0  0  0  0  0  0  0  0  0  0
  127.5753  136.1163  157.8056 C   0  0  0  0  0  0  0  0  0  0  0  0
  128.7485  135.8431  158.4836 C   0  0  0  0  0  0  0  0  0  0  0  0
  130.4802  133.5574  160.0714 C   0  0  0  0  0  0  0  0  0  0  0  0
  130.0820  132.4482  160.7939 C   0  0  0  0  0  0  0  0  0  0  0  0
  130.5334  131.1916  160.4361 C   0  0  0  0  0  0  0  0  0  0  0  0
  131.3909  131.0452  159.3619 C   0  0  0  0  0  0  0  0  0  0  0  0
  131.7936  132.1550  158.6426 C   0  0  0  0  0  0  0  0  0  0  0  0
  131.3381  133.4110  158.9973 C   0  0  0  0  0  0  0  0  0  0  0  0
  130.5124  137.2663  160.4842 C   0  0  0  0  0  0  0  0  0  0  0  0
  131.5595  138.3152  160.1032 C   0  0  0  0  0  0  0  0  0  0  0  0
  134.3418  139.7435  161.5590 C   0  0  0  0  0  0  0  0  0  0  0  0
  133.9182  139.5257  162.9461 C   0  0  0  0  0  0  0  0  0  0  0  0
  132.9834  140.1514  163.4002 O   0  0  0  0  0  0  0  0  0  0  0  0
  134.6443  138.5246  163.8073 C   0  0  1  0  0  0  0  0  0  0  0  0
  136.1066  138.4378  163.3659 C   0  0  0  0  0  0  0  0  0  0  0  0
  136.8439  137.4214  164.2402 C   0  0  0  0  0  0  0  0  0  0  0  0
  136.7781  137.8645  165.7031 C   0  0  0  0  0  0  0  0  0  0  0  0
  135.3157  137.9513  166.1445 C   0  0  0  0  0  0  0  0  0  0  0  0
  134.5786  138.9677  165.2703 C   0  0  1  0  0  0  0  0  0  0  0  0
  133.5368  139.0294  165.5846 H   0  0  0  0  0  0  0  0  0  0  0  0
  135.3557  140.5853  165.4437 Cl  0  0  0  0  0  0  0  0  0  0  0  0
  136.8500  141.0927  162.6822 H   0  0  0  0  0  0  0  0  0  0  0  0
  136.0954  142.5536  162.0009 H   0  0  0  0  0  0  0  0  0  0  0  0
  135.2213  141.5812  163.2086 H   0  0  0  0  0  0  0  0  0  0  0  0
  136.4477  141.6561  159.7277 H   0  0  0  0  0  0  0  0  0  0  0  0
  135.4599  140.3208  157.9138 H   0  0  0  0  0  0  0  0  0  0  0  0
  133.7628  138.6166  158.4063 H   0  0  0  0  0  0  0  0  0  0  0  0
  133.4977  136.6245  159.3793 H   0  0  0  0  0  0  0  0  0  0  0  0
  134.2255  136.4690  160.9966 H   0  0  0  0  0  0  0  0  0  0  0  0
  132.0609  135.6828  161.9026 H   0  0  0  0  0  0  0  0  0  0  0  0
  132.5951  134.6446  160.5591 H   0  0  0  0  0  0  0  0  0  0  0  0
  129.7986  134.9561  161.5319 H   0  0  0  0  0  0  0  0  0  0  0  0
  127.4543  134.3878  161.2377 H   0  0  0  0  0  0  0  0  0  0  0  0
  125.3640  134.8831  160.0344 H   0  0  0  0  0  0  0  0  0  0  0  0
  125.4415  135.9851  157.8339 H   0  0  0  0  0  0  0  0  0  0  0  0
  127.6093  136.5993  156.8402 H   0  0  0  0  0  0  0  0  0  0  0  0
  129.6992  136.1126  158.0478 H   0  0  0  0  0  0  0  0  0  0  0  0
  129.4153  132.5631  161.6358 H   0  0  0  0  0  0  0  0  0  0  0  0
  130.2191  130.3247  160.9982 H   0  0  0  0  0  0  0  0  0  0  0  0
  131.7465  130.0638  159.0844 H   0  0  0  0  0  0  0  0  0  0  0  0
  132.4638  132.0406  157.8036 H   0  0  0  0  0  0  0  0  0  0  0  0
  131.6527  134.2780  158.4354 H   0  0  0  0  0  0  0  0  0  0  0  0
  130.3387  137.3002  161.5596 H   0  0  0  0  0  0  0  0  0  0  0  0
  129.5806  137.4756  159.9588 H   0  0  0  0  0  0  0  0  0  0  0  0
  131.2065  139.3041  160.3954 H   0  0  0  0  0  0  0  0  0  0  0  0
  131.7236  138.2912  159.0259 H   0  0  0  0  0  0  0  0  0  0  0  0
  134.1745  137.5467  163.7023 H   0  0  0  0  0  0  0  0  0  0  0  0
  136.1535  138.1221  162.3236 H   0  0  0  0  0  0  0  0  0  0  0  0
  136.5765  139.4158  163.4708 H   0  0  0  0  0  0  0  0  0  0  0  0
  137.8857  137.3597  163.9258 H   0  0  0  0  0  0  0  0  0  0  0  0
  136.3741  136.4435  164.1352 H   0  0  0  0  0  0  0  0  0  0  0  0
  137.2479  138.8424  165.8080 H   0  0  0  0  0  0  0  0  0  0  0  0
  137.3034  137.1404  166.3260 H   0  0  0  0  0  0  0  0  0  0  0  0
  135.2689  138.2669  167.1867 H   0  0  0  0  0  0  0  0  0  0  0  0
  134.8460  136.9733  166.0396 H   0  0  0  0  0  0  0  0  0  0  0  0
  1  2  1  0
  1 38  1  0
  1 39  1  0
  1 40  1  0
  2 27  2  0
  2  3  1  0
  3  4  2  0
  3 41  1  0
  4  5  1  0
  4 42  1  0
  5  6  2  0
  5 43  1  0
  6  7  1  0
  6 27  1  0
  7 26  1  0
  7  8  1  0
  8  9  1  0
  8 44  1  0
  8 45  1  0
  9 10  1  0
  9 46  1  0
  9 47  1  0
 10 11  1  0
 10 12  1  0
 10 25  1  0
 12 13  1  0
 12 19  1  0
 12 48  1  0
 13 18  1  0
 13 14  2  0
 14 15  1  0
 14 49  1  0
 15 16  2  0
 15 50  1  0
 16 17  1  0
 16 51  1  0
 17 18  2  0
 17 52  1  0
 18 53  1  0
 19 24  1  0
 19 20  2  0
 20 21  1  0
 20 54  1  0
 21 22  2  0
 21 55  1  0
 22 23  1  0
 22 56  1  0
 23 24  2  0
 23 57  1  0
 24 58  1  0
 25 26  1  0
 25 59  1  0
 25 60  1  0
 26 61  1  0
 26 62  1  0
 27 28  1  0
 28 29  2  0
 28 30  1  0
 30 35  1  0
 30 31  1  0
 30 63  1  1
 31 32  1  0
 31 64  1  0
 31 65  1  0
 32 33  1  0
 32 66  1  0
 32 67  1  0
 33 34  1  0
 33 68  1  0
 33 69  1  0
 34 35  1  0
 34 70  1  0
 34 71  1  0
 35 36  1  1
 35 37  1  0
M  CHG  1  10   1
M  END
>  <DOCK_score>  (1) 
-56.094246

>  <SMILES>  (1) 
Cc1cccc(N2CC[NH+](C(c3ccccc3)c3ccccc3)CC2)c1C(=O)C1CCCC[C@H]1Cl

$$$$
