c1cncc([C@@H]2C[C@H]2Nc2c[nH]c(Nc3ccc(Nc4cc[nH+]cc4)cc3)n2)c1
     RDKit          3D

 51 55  0  0  1  0  0  0  0  0999 V2000
  134.3103  134.7694  162.3867 C   0  0  0  0  0  0  0  0  0  0  0  0
  133.8023  134.0260  161.3380 C   0  0  0  0  0  0  0  0  0  0  0  0
  132.5091  134.0186  161.0807 N   0  0  0  0  0  0  0  0  0  0  0  0
  131.6531  134.7085  161.8092 C   0  0  0  0  0  0  0  0  0  0  0  0
  132.0884  135.4795  162.8700 C   0  0  0  0  0  0  0  0  0  0  0  0
  131.1043  136.2701  163.6931 C   0  0  2  0  0  0  0  0  0  0  0  0
  130.9087  137.2847  163.3461 H   0  0  0  0  0  0  0  0  0  0  0  0
  131.0880  136.0245  165.2040 C   0  0  0  0  0  0  0  0  0  0  0  0
  129.9430  135.5058  164.3319 C   0  0  1  0  0  0  0  0  0  0  0  0
  129.8906  134.4312  164.1568 H   0  0  0  0  0  0  0  0  0  0  0  0
  128.6531  136.1934  164.4299 N   0  0  0  0  0  0  0  0  0  0  0  0
  127.7204  136.0886  163.3855 C   0  0  0  0  0  0  0  0  0  0  0  0
  126.5004  136.6647  163.3534 C   0  0  0  0  0  0  0  0  0  0  0  0
  125.9213  136.3071  162.1498 N   0  0  0  0  0  0  0  0  0  0  0  0
  125.0427  136.5682  161.8320 H   0  0  0  0  0  0  0  0  0  0  0  0
  126.8148  135.5157  161.4987 C   0  0  0  0  0  0  0  0  0  0  0  0
  126.6259  134.9373  160.2542 N   0  0  0  0  0  0  0  0  0  0  0  0
  127.6309  134.1402  159.6928 C   0  0  0  0  0  0  0  0  0  0  0  0
  127.3734  132.8097  159.3888 C   0  0  0  0  0  0  0  0  0  0  0  0
  128.3626  132.0253  158.8300 C   0  0  0  0  0  0  0  0  0  0  0  0
  129.6188  132.5636  158.5824 C   0  0  0  0  0  0  0  0  0  0  0  0
  130.6238  131.7666  158.0217 N   0  0  0  0  0  0  0  0  0  0  0  0
  130.7660  131.6965  156.6387 C   0  0  0  0  0  0  0  0  0  0  0  0
  131.2659  130.5461  156.0282 C   0  0  0  0  0  0  0  0  0  0  0  0
  131.3865  130.5151  154.6547 C   0  0  0  0  0  0  0  0  0  0  0  0
  131.0459  131.5589  153.9217 N   0  0  0  0  0  0  0  0  0  0  0  0
  131.1449  131.5099  152.9581 H   0  0  0  0  0  0  0  0  0  0  0  0
  130.5739  132.6669  154.4621 C   0  0  0  0  0  0  0  0  0  0  0  0
  130.4179  132.7768  155.8277 C   0  0  0  0  0  0  0  0  0  0  0  0
  129.8781  133.8927  158.8918 C   0  0  0  0  0  0  0  0  0  0  0  0
  128.8872  134.6785  159.4452 C   0  0  0  0  0  0  0  0  0  0  0  0
  127.8866  135.3919  162.2466 N   0  0  0  0  0  0  0  0  0  0  0  0
  133.4416  135.5123  163.1712 C   0  0  0  0  0  0  0  0  0  0  0  0
  135.3705  134.7711  162.5928 H   0  0  0  0  0  0  0  0  0  0  0  0
  134.4725  133.4449  160.7219 H   0  0  0  0  0  0  0  0  0  0  0  0
  130.6002  134.6739  161.5711 H   0  0  0  0  0  0  0  0  0  0  0  0
  130.8819  136.8777  165.8503 H   0  0  0  0  0  0  0  0  0  0  0  0
  131.7890  135.2912  165.6029 H   0  0  0  0  0  0  0  0  0  0  0  0
  128.4433  136.7212  165.2162 H   0  0  0  0  0  0  0  0  0  0  0  0
  126.0617  137.2871  164.1195 H   0  0  0  0  0  0  0  0  0  0  0  0
  125.7976  135.0845  159.7716 H   0  0  0  0  0  0  0  0  0  0  0  0
  126.3980  132.3898  159.5857 H   0  0  0  0  0  0  0  0  0  0  0  0
  128.1611  130.9918  158.5899 H   0  0  0  0  0  0  0  0  0  0  0  0
  131.2211  131.2633  158.5968 H   0  0  0  0  0  0  0  0  0  0  0  0
  131.5507  129.6904  156.6223 H   0  0  0  0  0  0  0  0  0  0  0  0
  131.7688  129.6274  154.1731 H   0  0  0  0  0  0  0  0  0  0  0  0
  130.3069  133.4981  153.8264 H   0  0  0  0  0  0  0  0  0  0  0  0
  130.0311  133.6862  156.2633 H   0  0  0  0  0  0  0  0  0  0  0  0
  130.8549  134.3111  158.6995 H   0  0  0  0  0  0  0  0  0  0  0  0
  129.0889  135.7118  159.6860 H   0  0  0  0  0  0  0  0  0  0  0  0
  133.8101  136.1022  163.9974 H   0  0  0  0  0  0  0  0  0  0  0  0
  1 33  2  0
  1  2  1  0
  1 34  1  0
  2  3  2  0
  2 35  1  0
  3  4  1  0
  4  5  2  0
  4 36  1  0
  5  6  1  0
  5 33  1  0
  6  7  1  1
  6  9  1  0
  6  8  1  0
  8  9  1  0
  8 37  1  0
  8 38  1  0
  9 10  1  6
  9 11  1  0
 11 12  1  0
 11 39  1  0
 12 32  1  0
 12 13  2  0
 13 14  1  0
 13 40  1  0
 14 15  1  0
 14 16  1  0
 16 17  1  0
 16 32  2  0
 17 18  1  0
 17 41  1  0
 18 31  1  0
 18 19  2  0
 19 20  1  0
 19 42  1  0
 20 21  2  0
 20 43  1  0
 21 22  1  0
 21 30  1  0
 22 23  1  0
 22 44  1  0
 23 29  1  0
 23 24  2  0
 24 25  1  0
 24 45  1  0
 25 26  2  0
 25 46  1  0
 26 27  1  0
 26 28  1  0
 28 29  2  0
 28 47  1  0
 29 48  1  0
 30 31  2  0
 30 49  1  0
 31 50  1  0
 33 51  1  0
M  CHG  1  26   1
M  END
>  <DOCK_score>  (1) 
-41.794949

>  <SMILES>  (1) 
c1cncc([C@@H]2C[C@H]2Nc2c[nH]c(Nc3ccc(Nc4cc[nH+]cc4)cc3)n2)c1

$$$$
