[NH3+][C@@H](C(=O)Nc1cccc(O)c1)c1cccc(Oc2ccc3c(c2-c2cccc(O)c2)CCC3)c1
     RDKit          3D

 62 66  0  0  1  0  0  0  0  0999 V2000
  130.5300  134.2810  157.4957 N   0  0  0  0  0  0  0  0  0  0  0  0
  131.4270  134.7121  157.3294 H   0  0  0  0  0  0  0  0  0  0  0  0
  130.6512  133.2861  157.6113 H   0  0  0  0  0  0  0  0  0  0  0  0
  129.9216  134.4567  156.7102 H   0  0  0  0  0  0  0  0  0  0  0  0
  129.9334  134.8464  158.7133 C   0  0  1  0  0  0  0  0  0  0  0  0
  129.8024  135.9213  158.5883 H   0  0  0  0  0  0  0  0  0  0  0  0
  128.5937  134.2026  158.9617 C   0  0  0  0  0  0  0  0  0  0  0  0
  128.1769  133.3562  158.1996 O   0  0  0  0  0  0  0  0  0  0  0  0
  127.8586  134.5675  160.0309 N   0  0  0  0  0  0  0  0  0  0  0  0
  126.6148  133.9697  160.2617 C   0  0  0  0  0  0  0  0  0  0  0  0
  126.3823  132.6648  159.8456 C   0  0  0  0  0  0  0  0  0  0  0  0
  125.1564  132.0727  160.0787 C   0  0  0  0  0  0  0  0  0  0  0  0
  124.1544  132.7801  160.7159 C   0  0  0  0  0  0  0  0  0  0  0  0
  124.3791  134.0857  161.1286 C   0  0  0  0  0  0  0  0  0  0  0  0
  123.3928  134.7801  161.7545 O   0  0  0  0  0  0  0  0  0  0  0  0
  125.6101  134.6814  160.9016 C   0  0  0  0  0  0  0  0  0  0  0  0
  130.8421  134.5840  159.8864 C   0  0  0  0  0  0  0  0  0  0  0  0
  130.6948  133.4270  160.6292 C   0  0  0  0  0  0  0  0  0  0  0  0
  131.5271  133.1831  161.7059 C   0  0  0  0  0  0  0  0  0  0  0  0
  132.5121  134.0928  162.0391 C   0  0  0  0  0  0  0  0  0  0  0  0
  132.6587  135.2569  161.2987 C   0  0  0  0  0  0  0  0  0  0  0  0
  133.6236  136.1555  161.6272 O   0  0  0  0  0  0  0  0  0  0  0  0
  133.7767  136.4760  162.9383 C   0  0  0  0  0  0  0  0  0  0  0  0
  134.6480  135.7503  163.7355 C   0  0  0  0  0  0  0  0  0  0  0  0
  134.7973  136.0757  165.0687 C   0  0  0  0  0  0  0  0  0  0  0  0
  134.0890  137.1328  165.6202 C   0  0  0  0  0  0  0  0  0  0  0  0
  133.2221  137.8666  164.8361 C   0  0  0  0  0  0  0  0  0  0  0  0
  133.0606  137.5419  163.4888 C   0  0  0  0  0  0  0  0  0  0  0  0
  132.1305  138.3278  162.6418 C   0  0  0  0  0  0  0  0  0  0  0  0
  132.5888  139.4535  161.9589 C   0  0  0  0  0  0  0  0  0  0  0  0
  131.7226  140.1800  161.1673 C   0  0  0  0  0  0  0  0  0  0  0  0
  130.3976  139.8009  161.0572 C   0  0  0  0  0  0  0  0  0  0  0  0
  129.9320  138.6848  161.7382 C   0  0  0  0  0  0  0  0  0  0  0  0
  128.6285  138.3163  161.6279 O   0  0  0  0  0  0  0  0  0  0  0  0
  130.7956  137.9465  162.5309 C   0  0  0  0  0  0  0  0  0  0  0  0
  132.5764  138.9557  165.6657 C   0  0  0  0  0  0  0  0  0  0  0  0
  132.8084  138.5363  167.1329 C   0  0  0  0  0  0  0  0  0  0  0  0
  134.0871  137.6777  167.0329 C   0  0  0  0  0  0  0  0  0  0  0  0
  131.8218  135.4993  160.2186 C   0  0  0  0  0  0  0  0  0  0  0  0
  128.1918  135.2445  160.6404 H   0  0  0  0  0  0  0  0  0  0  0  0
  127.1622  132.1114  159.3435 H   0  0  0  0  0  0  0  0  0  0  0  0
  124.9788  131.0568  159.7581 H   0  0  0  0  0  0  0  0  0  0  0  0
  123.1954  132.3159  160.8931 H   0  0  0  0  0  0  0  0  0  0  0  0
  123.6430  135.6803  162.0041 H   0  0  0  0  0  0  0  0  0  0  0  0
  125.7869  135.6974  161.2224 H   0  0  0  0  0  0  0  0  0  0  0  0
  129.9279  132.7127  160.3681 H   0  0  0  0  0  0  0  0  0  0  0  0
  131.4102  132.2785  162.2841 H   0  0  0  0  0  0  0  0  0  0  0  0
  133.1648  133.8998  162.8777 H   0  0  0  0  0  0  0  0  0  0  0  0
  135.2071  134.9278  163.3146 H   0  0  0  0  0  0  0  0  0  0  0  0
  135.4747  135.5047  165.6864 H   0  0  0  0  0  0  0  0  0  0  0  0
  133.6223  139.7545  162.0461 H   0  0  0  0  0  0  0  0  0  0  0  0
  132.0798  141.0497  160.6358 H   0  0  0  0  0  0  0  0  0  0  0  0
  129.7228  140.3752  160.4397 H   0  0  0  0  0  0  0  0  0  0  0  0
  128.3983  137.5275  162.1379 H   0  0  0  0  0  0  0  0  0  0  0  0
  130.4346  137.0781  163.0618 H   0  0  0  0  0  0  0  0  0  0  0  0
  131.5090  139.0110  165.4524 H   0  0  0  0  0  0  0  0  0  0  0  0
  133.0516  139.9163  165.4673 H   0  0  0  0  0  0  0  0  0  0  0  0
  131.9719  137.9439  167.5036 H   0  0  0  0  0  0  0  0  0  0  0  0
  132.9761  139.4093  167.7638 H   0  0  0  0  0  0  0  0  0  0  0  0
  134.0514  136.8607  167.7535 H   0  0  0  0  0  0  0  0  0  0  0  0
  134.9704  138.2937  167.2019 H   0  0  0  0  0  0  0  0  0  0  0  0
  131.9366  136.4026  159.6378 H   0  0  0  0  0  0  0  0  0  0  0  0
  1  2  1  0
  1  3  1  0
  1  4  1  0
  1  5  1  0
  5  6  1  6
  5  7  1  0
  5 17  1  0
  7  8  2  0
  7  9  1  0
  9 10  1  0
  9 40  1  0
 10 16  1  0
 10 11  2  0
 11 12  1  0
 11 41  1  0
 12 13  2  0
 12 42  1  0
 13 14  1  0
 13 43  1  0
 14 15  1  0
 14 16  2  0
 15 44  1  0
 16 45  1  0
 17 39  1  0
 17 18  2  0
 18 19  1  0
 18 46  1  0
 19 20  2  0
 19 47  1  0
 20 21  1  0
 20 48  1  0
 21 22  1  0
 21 39  2  0
 22 23  1  0
 23 28  1  0
 23 24  2  0
 24 25  1  0
 24 49  1  0
 25 26  2  0
 25 50  1  0
 26 38  1  0
 26 27  1  0
 27 28  2  0
 27 36  1  0
 28 29  1  0
 29 35  1  0
 29 30  2  0
 30 31  1  0
 30 51  1  0
 31 32  2  0
 31 52  1  0
 32 33  1  0
 32 53  1  0
 33 34  1  0
 33 35  2  0
 34 54  1  0
 35 55  1  0
 36 37  1  0
 36 56  1  0
 36 57  1  0
 37 38  1  0
 37 58  1  0
 37 59  1  0
 38 60  1  0
 38 61  1  0
 39 62  1  0
M  CHG  1   1   1
M  END
>  <DOCK_score>  (1) 
-46.913963

>  <SMILES>  (1) 
[NH3+][C@@H](C(=O)Nc1cccc(O)c1)c1cccc(Oc2ccc3c(c2-c2cccc(O)c2)CCC3)c1

$$$$
