Nc1ccc(-c2c[nH]c(N[C@@H](CCc3cccc4ccccc34)C3CC(O)C3)[nH+]2)cc1
     RDKit          3D

 60 64  0  0  1  0  0  0  0  0999 V2000
  131.2093  129.3264  152.0291 N   0  0  0  0  0  0  0  0  0  0  0  0
  130.9612  130.0289  153.2109 C   0  0  0  0  0  0  0  0  0  0  0  0
  130.0670  131.0931  153.2108 C   0  0  0  0  0  0  0  0  0  0  0  0
  129.8208  131.7879  154.3761 C   0  0  0  0  0  0  0  0  0  0  0  0
  130.4692  131.4224  155.5547 C   0  0  0  0  0  0  0  0  0  0  0  0
  130.2057  132.1685  156.8096 C   0  0  0  0  0  0  0  0  0  0  0  0
  129.7008  131.6490  157.9557 C   0  0  0  0  0  0  0  0  0  0  0  0
  129.6208  132.6813  158.8601 N   0  0  0  0  0  0  0  0  0  0  0  0
  129.2973  132.6221  159.7727 H   0  0  0  0  0  0  0  0  0  0  0  0
  130.0797  133.8015  158.2387 C   0  0  0  0  0  0  0  0  0  0  0  0
  130.1645  135.0613  158.8064 N   0  0  0  0  0  0  0  0  0  0  0  0
  129.2139  135.4614  159.8468 C   0  0  1  0  0  0  0  0  0  0  0  0
  129.2984  134.7834  160.6963 H   0  0  0  0  0  0  0  0  0  0  0  0
  129.5255  136.8888  160.3008 C   0  0  0  0  0  0  0  0  0  0  0  0
  130.6962  136.8668  161.2857 C   0  0  0  0  0  0  0  0  0  0  0  0
  131.0030  138.2728  161.7328 C   0  0  0  0  0  0  0  0  0  0  0  0
  131.8972  139.0310  161.0408 C   0  0  0  0  0  0  0  0  0  0  0  0
  132.1933  140.3330  161.4389 C   0  0  0  0  0  0  0  0  0  0  0  0
  131.5972  140.8848  162.5312 C   0  0  0  0  0  0  0  0  0  0  0  0
  130.6689  140.1329  163.2707 C   0  0  0  0  0  0  0  0  0  0  0  0
  130.0327  140.6683  164.4038 C   0  0  0  0  0  0  0  0  0  0  0  0
  129.1384  139.9102  165.0951 C   0  0  0  0  0  0  0  0  0  0  0  0
  128.8423  138.6078  164.6968 C   0  0  0  0  0  0  0  0  0  0  0  0
  129.4386  138.0560  163.6052 C   0  0  0  0  0  0  0  0  0  0  0  0
  130.3676  138.8082  162.8657 C   0  0  0  0  0  0  0  0  0  0  0  0
  127.7911  135.4033  159.2875 C   0  0  2  0  0  0  0  0  0  0  0  0
  126.7074  135.7478  160.3228 C   0  0  0  0  0  0  0  0  0  0  0  0
  125.8705  134.6137  159.7079 C   0  0  2  0  0  0  0  0  0  0  0  0
  125.1667  133.8324  160.6756 O   0  0  0  0  0  0  0  0  0  0  0  0
  127.1988  133.9844  159.2563 C   0  0  0  0  0  0  0  0  0  0  0  0
  130.4229  133.4923  157.0119 N   0  0  0  0  0  0  0  0  0  0  0  0
  130.7777  134.1108  156.3544 H   0  0  0  0  0  0  0  0  0  0  0  0
  131.3699  130.3586  155.5512 C   0  0  0  0  0  0  0  0  0  0  0  0
  131.6085  129.6625  154.3848 C   0  0  0  0  0  0  0  0  0  0  0  0
  130.7576  129.5812  151.2095 H   0  0  0  0  0  0  0  0  0  0  0  0
  131.8331  128.5837  152.0284 H   0  0  0  0  0  0  0  0  0  0  0  0
  129.5652  131.3761  152.2974 H   0  0  0  0  0  0  0  0  0  0  0  0
  129.1256  132.6144  154.3758 H   0  0  0  0  0  0  0  0  0  0  0  0
  129.4158  130.6212  158.1255 H   0  0  0  0  0  0  0  0  0  0  0  0
  130.8531  135.6792  158.5153 H   0  0  0  0  0  0  0  0  0  0  0  0
  128.6485  137.3148  160.7882 H   0  0  0  0  0  0  0  0  0  0  0  0
  129.7906  137.4957  159.4350 H   0  0  0  0  0  0  0  0  0  0  0  0
  131.5732  136.4408  160.7983 H   0  0  0  0  0  0  0  0  0  0  0  0
  130.4310  136.2600  162.1515 H   0  0  0  0  0  0  0  0  0  0  0  0
  132.3839  138.6172  160.1701 H   0  0  0  0  0  0  0  0  0  0  0  0
  132.9062  140.9134  160.8719 H   0  0  0  0  0  0  0  0  0  0  0  0
  131.8333  141.8968  162.8253 H   0  0  0  0  0  0  0  0  0  0  0  0
  130.2522  141.6759  164.7242 H   0  0  0  0  0  0  0  0  0  0  0  0
  128.6513  140.3240  165.9657 H   0  0  0  0  0  0  0  0  0  0  0  0
  128.1290  138.0275  165.2635 H   0  0  0  0  0  0  0  0  0  0  0  0
  129.1991  137.0457  163.3081 H   0  0  0  0  0  0  0  0  0  0  0  0
  127.6842  135.9418  158.3458 H   0  0  0  0  0  0  0  0  0  0  0  0
  127.0109  135.5578  161.3524 H   0  0  0  0  0  0  0  0  0  0  0  0
  126.2707  136.7370  160.1849 H   0  0  0  0  0  0  0  0  0  0  0  0
  125.2365  134.9356  158.8817 H   0  0  0  0  0  0  0  0  0  0  0  0
  125.6599  133.6820  161.4937 H   0  0  0  0  0  0  0  0  0  0  0  0
  127.1588  133.5498  158.2575 H   0  0  0  0  0  0  0  0  0  0  0  0
  127.6367  133.3122  159.9941 H   0  0  0  0  0  0  0  0  0  0  0  0
  131.8767  130.0764  156.4621 H   0  0  0  0  0  0  0  0  0  0  0  0
  132.3024  128.8349  154.3829 H   0  0  0  0  0  0  0  0  0  0  0  0
  1  2  1  0
  1 35  1  0
  1 36  1  0
  2 34  2  0
  2  3  1  0
  3  4  2  0
  3 37  1  0
  4  5  1  0
  4 38  1  0
  5  6  1  0
  5 33  2  0
  6 31  1  0
  6  7  2  0
  7  8  1  0
  7 39  1  0
  8  9  1  0
  8 10  1  0
 10 11  1  0
 10 31  2  0
 11 12  1  0
 11 40  1  0
 12 13  1  1
 12 14  1  0
 12 26  1  0
 14 15  1  0
 14 41  1  0
 14 42  1  0
 15 16  1  0
 15 43  1  0
 15 44  1  0
 16 25  1  0
 16 17  2  0
 17 18  1  0
 17 45  1  0
 18 19  2  0
 18 46  1  0
 19 20  1  0
 19 47  1  0
 20 25  2  0
 20 21  1  0
 21 22  2  0
 21 48  1  0
 22 23  1  0
 22 49  1  0
 23 24  2  0
 23 50  1  0
 24 25  1  0
 24 51  1  0
 26 30  1  0
 26 27  1  0
 26 52  1  6
 27 28  1  0
 27 53  1  0
 27 54  1  0
 28 29  1  0
 28 30  1  0
 28 55  1  6
 29 56  1  0
 30 57  1  0
 30 58  1  0
 31 32  1  0
 33 34  1  0
 33 59  1  0
 34 60  1  0
M  CHG  1  31   1
M  END
>  <DOCK_score>  (1) 
-57.22039

>  <SMILES>  (1) 
Nc1ccc(-c2c[nH]c(N[C@@H](CCc3cccc4ccccc34)C3CC(O)C3)[nH+]2)cc1

$$$$
