Nc1ccc(Nc2ccc(Nc3[nH]cc(N[C@@H]4COc5cc(Cl)ccc5C4)[nH+]3)cc2)cc1
     RDKit          3D

 56 60  0  0  1  0  0  0  0  0999 V2000
  125.4682  130.1432  159.8187 N   0  0  0  0  0  0  0  0  0  0  0  0
  125.7701  131.4655  160.1647 C   0  0  0  0  0  0  0  0  0  0  0  0
  124.8164  132.2530  160.7963 C   0  0  0  0  0  0  0  0  0  0  0  0
  125.1138  133.5577  161.1368 C   0  0  0  0  0  0  0  0  0  0  0  0
  126.3671  134.0822  160.8482 C   0  0  0  0  0  0  0  0  0  0  0  0
  126.6685  135.4051  161.1931 N   0  0  0  0  0  0  0  0  0  0  0  0
  127.9313  135.9335  160.9022 C   0  0  0  0  0  0  0  0  0  0  0  0
  128.9602  135.8245  161.8292 C   0  0  0  0  0  0  0  0  0  0  0  0
  130.2059  136.3454  161.5420 C   0  0  0  0  0  0  0  0  0  0  0  0
  130.4306  136.9786  160.3263 C   0  0  0  0  0  0  0  0  0  0  0  0
  131.6943  137.5069  160.0351 N   0  0  0  0  0  0  0  0  0  0  0  0
  132.5036  137.9715  161.0591 C   0  0  0  0  0  0  0  0  0  0  0  0
  133.8632  137.9617  161.0626 N   0  0  0  0  0  0  0  0  0  0  0  0
  134.4398  137.6319  160.3558 H   0  0  0  0  0  0  0  0  0  0  0  0
  134.2680  138.5118  162.2650 C   0  0  0  0  0  0  0  0  0  0  0  0
  133.1468  138.8337  162.9436 C   0  0  0  0  0  0  0  0  0  0  0  0
  133.0958  139.4201  164.2184 N   0  0  0  0  0  0  0  0  0  0  0  0
  134.3371  139.7360  164.9295 C   0  0  2  0  0  0  0  0  0  0  0  0
  135.0609  138.9350  164.7798 H   0  0  0  0  0  0  0  0  0  0  0  0
  134.0480  139.8984  166.4272 C   0  0  0  0  0  0  0  0  0  0  0  0
  135.2881  140.1025  167.1057 O   0  0  0  0  0  0  0  0  0  0  0  0
  136.1355  141.0415  166.6101 C   0  0  0  0  0  0  0  0  0  0  0  0
  137.1582  141.5104  167.4284 C   0  0  0  0  0  0  0  0  0  0  0  0
  138.0453  142.4582  166.9578 C   0  0  0  0  0  0  0  0  0  0  0  0
  139.3195  143.0407  167.9830 Cl  0  0  0  0  0  0  0  0  0  0  0  0
  137.9173  142.9436  165.6679 C   0  0  0  0  0  0  0  0  0  0  0  0
  136.9020  142.4811  164.8544 C   0  0  0  0  0  0  0  0  0  0  0  0
  136.0085  141.5314  165.3221 C   0  0  0  0  0  0  0  0  0  0  0  0
  134.9110  141.0545  164.4048 C   0  0  0  0  0  0  0  0  0  0  0  0
  132.0860  138.4902  162.1905 N   0  0  0  0  0  0  0  0  0  0  0  0
  131.1572  138.6097  162.4432 H   0  0  0  0  0  0  0  0  0  0  0  0
  129.4004  137.0927  159.4019 C   0  0  0  0  0  0  0  0  0  0  0  0
  128.1561  136.5668  159.6865 C   0  0  0  0  0  0  0  0  0  0  0  0
  127.3192  133.2961  160.2124 C   0  0  0  0  0  0  0  0  0  0  0  0
  127.0232  131.9900  159.8762 C   0  0  0  0  0  0  0  0  0  0  0  0
  124.5928  129.7770  160.0200 H   0  0  0  0  0  0  0  0  0  0  0  0
  126.1344  129.5931  159.3776 H   0  0  0  0  0  0  0  0  0  0  0  0
  123.8419  131.8451  161.0206 H   0  0  0  0  0  0  0  0  0  0  0  0
  124.3719  134.1703  161.6273 H   0  0  0  0  0  0  0  0  0  0  0  0
  126.0022  135.9553  161.6335 H   0  0  0  0  0  0  0  0  0  0  0  0
  128.7855  135.3319  162.7742 H   0  0  0  0  0  0  0  0  0  0  0  0
  131.0060  136.2603  162.2624 H   0  0  0  0  0  0  0  0  0  0  0  0
  132.0031  137.5477  159.1165 H   0  0  0  0  0  0  0  0  0  0  0  0
  135.2856  138.6566  162.5969 H   0  0  0  0  0  0  0  0  0  0  0  0
  132.2387  139.6160  164.6283 H   0  0  0  0  0  0  0  0  0  0  0  0
  133.5652  138.9983  166.8077 H   0  0  0  0  0  0  0  0  0  0  0  0
  133.3973  140.7585  166.5849 H   0  0  0  0  0  0  0  0  0  0  0  0
  137.2584  141.1323  168.4351 H   0  0  0  0  0  0  0  0  0  0  0  0
  138.6113  143.6837  165.2979 H   0  0  0  0  0  0  0  0  0  0  0  0
  136.8039  142.8616  163.8484 H   0  0  0  0  0  0  0  0  0  0  0  0
  134.1204  141.8039  164.3652 H   0  0  0  0  0  0  0  0  0  0  0  0
  135.3154  140.9015  163.4043 H   0  0  0  0  0  0  0  0  0  0  0  0
  129.5739  137.5889  158.4585 H   0  0  0  0  0  0  0  0  0  0  0  0
  127.3562  136.6516  158.9658 H   0  0  0  0  0  0  0  0  0  0  0  0
  128.2922  133.7052  159.9839 H   0  0  0  0  0  0  0  0  0  0  0  0
  127.7649  131.3774  159.3851 H   0  0  0  0  0  0  0  0  0  0  0  0
  1  2  1  0
  1 36  1  0
  1 37  1  0
  2 35  2  0
  2  3  1  0
  3  4  2  0
  3 38  1  0
  4  5  1  0
  4 39  1  0
  5  6  1  0
  5 34  2  0
  6  7  1  0
  6 40  1  0
  7 33  1  0
  7  8  2  0
  8  9  1  0
  8 41  1  0
  9 10  2  0
  9 42  1  0
 10 11  1  0
 10 32  1  0
 11 43  1  0
 12 11  1  0
 12 30  2  0
 12 13  1  0
 13 14  1  0
 13 15  1  0
 15 16  2  0
 15 44  1  0
 16 17  1  0
 16 30  1  0
 17 18  1  0
 17 45  1  0
 18 19  1  1
 18 29  1  0
 18 20  1  0
 20 21  1  0
 20 46  1  0
 20 47  1  0
 21 22  1  0
 22 28  2  0
 22 23  1  0
 23 24  2  0
 23 48  1  0
 24 25  1  0
 24 26  1  0
 26 27  2  0
 26 49  1  0
 27 28  1  0
 27 50  1  0
 28 29  1  0
 29 51  1  0
 29 52  1  0
 30 31  1  0
 32 33  2  0
 32 53  1  0
 33 54  1  0
 34 35  1  0
 34 55  1  0
 35 56  1  0
M  CHG  1  30   1
M  END
>  <DOCK_score>  (1) 
-45.7062

>  <SMILES>  (1) 
Nc1ccc(Nc2ccc(Nc3[nH]cc(N[C@@H]4COc5cc(Cl)ccc5C4)[nH+]3)cc2)cc1

$$$$
