N#Cc1cccc([C@@H](CO)[NH2+][C@@H]2C[C@@H]2Nc2ccc(Nc3ccc(-c4cc[nH]c4)cc3)cc2)c1
     RDKit          3D

 62 66  0  0  1  0  0  0  0  0999 V2000
  134.0235  135.0195  166.6909 N   0  0  0  0  0  0  0  0  0  0  0  0
  134.1467  135.3952  165.6259 C   0  0  0  0  0  0  0  0  0  0  0  0
  134.3020  135.8687  164.2834 C   0  0  0  0  0  0  0  0  0  0  0  0
  135.5747  136.1486  163.7811 C   0  0  0  0  0  0  0  0  0  0  0  0
  135.7175  136.5990  162.4854 C   0  0  0  0  0  0  0  0  0  0  0  0
  134.6024  136.7838  161.6869 C   0  0  0  0  0  0  0  0  0  0  0  0
  133.3388  136.5084  162.1780 C   0  0  0  0  0  0  0  0  0  0  0  0
  132.1309  136.7075  161.2992 C   0  0  1  0  0  0  0  0  0  0  0  0
  131.2307  136.4415  161.8531 H   0  0  0  0  0  0  0  0  0  0  0  0
  132.0499  138.1732  160.8681 C   0  0  0  0  0  0  0  0  0  0  0  0
  132.9530  138.4017  159.7845 O   0  0  0  0  0  0  0  0  0  0  0  0
  132.2444  135.8529  160.1098 N   0  0  0  0  0  0  0  0  0  0  0  0
  131.4356  135.9863  159.5214 H   0  0  0  0  0  0  0  0  0  0  0  0
  133.0777  136.0990  159.5970 H   0  0  0  0  0  0  0  0  0  0  0  0
  132.3221  134.4455  160.5238 C   0  0  2  0  0  0  0  0  0  0  0  0
  132.9292  134.2482  161.4073 H   0  0  0  0  0  0  0  0  0  0  0  0
  132.3112  133.3836  159.4224 C   0  0  0  0  0  0  0  0  0  0  0  0
  131.0803  133.5772  160.3116 C   0  0  2  0  0  0  0  0  0  0  0  0
  130.8708  132.8083  161.0553 H   0  0  0  0  0  0  0  0  0  0  0  0
  129.9049  134.2128  159.7112 N   0  0  0  0  0  0  0  0  0  0  0  0
  128.9432  134.8190  160.5278 C   0  0  0  0  0  0  0  0  0  0  0  0
  129.1034  134.8179  161.9072 C   0  0  0  0  0  0  0  0  0  0  0  0
  128.1576  135.4209  162.7126 C   0  0  0  0  0  0  0  0  0  0  0  0
  127.0407  136.0189  162.1436 C   0  0  0  0  0  0  0  0  0  0  0  0
  126.0793  136.6260  162.9604 N   0  0  0  0  0  0  0  0  0  0  0  0
  126.2436  136.6301  164.3479 C   0  0  0  0  0  0  0  0  0  0  0  0
  125.7237  135.5916  165.1114 C   0  0  0  0  0  0  0  0  0  0  0  0
  125.8889  135.5914  166.4805 C   0  0  0  0  0  0  0  0  0  0  0  0
  126.5684  136.6390  167.0995 C   0  0  0  0  0  0  0  0  0  0  0  0
  126.7422  136.6440  168.5736 C   0  0  0  0  0  0  0  0  0  0  0  0
  125.8635  136.0705  169.5275 C   0  0  0  0  0  0  0  0  0  0  0  0
  126.3900  136.2970  170.7455 C   0  0  0  0  0  0  0  0  0  0  0  0
  127.5572  136.9860  170.5918 N   0  0  0  0  0  0  0  0  0  0  0  0
  128.1387  137.2772  171.3117 H   0  0  0  0  0  0  0  0  0  0  0  0
  127.7768  137.1945  169.2636 C   0  0  0  0  0  0  0  0  0  0  0  0
  127.0843  137.6822  166.3327 C   0  0  0  0  0  0  0  0  0  0  0  0
  126.9215  137.6759  164.9633 C   0  0  0  0  0  0  0  0  0  0  0  0
  126.8777  136.0150  160.7643 C   0  0  0  0  0  0  0  0  0  0  0  0
  127.8261  135.4165  159.9588 C   0  0  0  0  0  0  0  0  0  0  0  0
  133.1819  136.0523  163.4706 C   0  0  0  0  0  0  0  0  0  0  0  0
  136.4454  136.0089  164.4046 H   0  0  0  0  0  0  0  0  0  0  0  0
  136.7015  136.8120  162.0943 H   0  0  0  0  0  0  0  0  0  0  0  0
  134.7197  137.1402  160.6741 H   0  0  0  0  0  0  0  0  0  0  0  0
  131.0333  138.4023  160.5484 H   0  0  0  0  0  0  0  0  0  0  0  0
  132.3199  138.8142  161.7074 H   0  0  0  0  0  0  0  0  0  0  0  0
  132.7721  137.8636  159.0017 H   0  0  0  0  0  0  0  0  0  0  0  0
  132.2464  133.7292  158.3907 H   0  0  0  0  0  0  0  0  0  0  0  0
  132.9109  132.4874  159.5815 H   0  0  0  0  0  0  0  0  0  0  0  0
  129.7931  134.2136  158.7476 H   0  0  0  0  0  0  0  0  0  0  0  0
  129.9698  134.3490  162.3498 H   0  0  0  0  0  0  0  0  0  0  0  0
  128.2845  135.4238  163.7850 H   0  0  0  0  0  0  0  0  0  0  0  0
  125.2992  137.0436  162.5631 H   0  0  0  0  0  0  0  0  0  0  0  0
  125.1936  134.7820  164.6318 H   0  0  0  0  0  0  0  0  0  0  0  0
  125.4885  134.7821  167.0730 H   0  0  0  0  0  0  0  0  0  0  0  0
  124.9418  135.5488  169.3158 H   0  0  0  0  0  0  0  0  0  0  0  0
  125.9605  135.9856  171.6863 H   0  0  0  0  0  0  0  0  0  0  0  0
  128.6238  137.7086  168.8336 H   0  0  0  0  0  0  0  0  0  0  0  0
  127.6114  138.4947  166.8105 H   0  0  0  0  0  0  0  0  0  0  0  0
  127.3209  138.4842  164.3687 H   0  0  0  0  0  0  0  0  0  0  0  0
  126.0094  136.4803  160.3218 H   0  0  0  0  0  0  0  0  0  0  0  0
  127.6995  135.4135  158.8863 H   0  0  0  0  0  0  0  0  0  0  0  0
  132.1948  135.8380  163.8528 H   0  0  0  0  0  0  0  0  0  0  0  0
  1  2  3  0
  2  3  1  0
  3 40  2  0
  3  4  1  0
  4  5  2  0
  4 41  1  0
  5  6  1  0
  5 42  1  0
  6  7  2  0
  6 43  1  0
  7  8  1  0
  7 40  1  0
  8  9  1  1
  8 10  1  0
  8 12  1  0
 10 11  1  0
 10 44  1  0
 10 45  1  0
 11 46  1  0
 12 13  1  0
 12 14  1  0
 12 15  1  0
 15 16  1  1
 15 18  1  0
 15 17  1  0
 17 18  1  0
 17 47  1  0
 17 48  1  0
 18 19  1  1
 18 20  1  0
 20 21  1  0
 20 49  1  0
 21 39  1  0
 21 22  2  0
 22 23  1  0
 22 50  1  0
 23 24  2  0
 23 51  1  0
 24 25  1  0
 24 38  1  0
 25 26  1  0
 25 52  1  0
 26 37  1  0
 26 27  2  0
 27 28  1  0
 27 53  1  0
 28 29  2  0
 28 54  1  0
 29 30  1  0
 29 36  1  0
 30 35  2  0
 30 31  1  0
 31 32  2  0
 31 55  1  0
 32 33  1  0
 32 56  1  0
 33 34  1  0
 33 35  1  0
 35 57  1  0
 36 37  2  0
 36 58  1  0
 37 59  1  0
 38 39  2  0
 38 60  1  0
 39 61  1  0
 40 62  1  0
M  CHG  1  12   1
M  END
>  <DOCK_score>  (1) 
-51.576851

>  <SMILES>  (1) 
N#Cc1cccc([C@@H](CO)[NH2+][C@@H]2C[C@@H]2Nc2ccc(Nc3ccc(-c4cc[nH]c4)cc3)cc2)c1

$$$$
