CCc1cccc([C@@H](Nc2[nH]cc(-c3ccc(F)cc3)[nH+]2)c2cccc(O)c2)c1
     RDKit          3D

 52 55  0  0  1  0  0  0  0  0999 V2000
  125.4040  131.4880  160.7267 C   0  0  0  0  0  0  0  0  0  0  0  0
  125.4484  132.7645  161.5690 C   0  0  0  0  0  0  0  0  0  0  0  0
  126.1149  133.8629  160.7813 C   0  0  0  0  0  0  0  0  0  0  0  0
  125.3571  134.6945  159.9781 C   0  0  0  0  0  0  0  0  0  0  0  0
  125.9680  135.7030  159.2564 C   0  0  0  0  0  0  0  0  0  0  0  0
  127.3364  135.8815  159.3404 C   0  0  0  0  0  0  0  0  0  0  0  0
  128.0947  135.0459  160.1386 C   0  0  0  0  0  0  0  0  0  0  0  0
  129.5870  135.2372  160.2260 C   0  0  1  0  0  0  0  0  0  0  0  0
  130.0102  134.4905  160.8980 H   0  0  0  0  0  0  0  0  0  0  0  0
  130.1776  135.0859  158.8939 N   0  0  0  0  0  0  0  0  0  0  0  0
  130.0330  133.8945  158.2038 C   0  0  0  0  0  0  0  0  0  0  0  0
  129.3636  132.7967  158.6494 N   0  0  0  0  0  0  0  0  0  0  0  0
  128.9063  132.7086  159.5002 H   0  0  0  0  0  0  0  0  0  0  0  0
  129.4558  131.8356  157.6714 C   0  0  0  0  0  0  0  0  0  0  0  0
  130.1781  132.3737  156.6580 C   0  0  0  0  0  0  0  0  0  0  0  0
  130.5339  131.6991  155.3855 C   0  0  0  0  0  0  0  0  0  0  0  0
  130.1100  132.2320  154.1695 C   0  0  0  0  0  0  0  0  0  0  0  0
  130.4482  131.6043  152.9882 C   0  0  0  0  0  0  0  0  0  0  0  0
  131.1982  130.4397  153.0102 C   0  0  0  0  0  0  0  0  0  0  0  0
  131.5225  129.8250  151.8516 F   0  0  0  0  0  0  0  0  0  0  0  0
  131.6169  129.9032  154.2169 C   0  0  0  0  0  0  0  0  0  0  0  0
  131.2882  130.5272  155.4029 C   0  0  0  0  0  0  0  0  0  0  0  0
  130.5135  133.6399  157.0112 N   0  0  0  0  0  0  0  0  0  0  0  0
  131.0288  134.2573  156.4689 H   0  0  0  0  0  0  0  0  0  0  0  0
  129.8865  136.6162  160.7548 C   0  0  0  0  0  0  0  0  0  0  0  0
  130.0348  137.6751  159.8779 C   0  0  0  0  0  0  0  0  0  0  0  0
  130.3091  138.9415  160.3599 C   0  0  0  0  0  0  0  0  0  0  0  0
  130.4418  139.1509  161.7191 C   0  0  0  0  0  0  0  0  0  0  0  0
  130.2883  138.0913  162.6011 C   0  0  0  0  0  0  0  0  0  0  0  0
  130.4132  138.2957  163.9388 O   0  0  0  0  0  0  0  0  0  0  0  0
  130.0125  136.8214  162.1149 C   0  0  0  0  0  0  0  0  0  0  0  0
  127.4835  134.0381  160.8612 C   0  0  0  0  0  0  0  0  0  0  0  0
  124.8387  131.6746  159.8137 H   0  0  0  0  0  0  0  0  0  0  0  0
  126.4195  131.1864  160.4701 H   0  0  0  0  0  0  0  0  0  0  0  0
  124.9221  130.6933  161.2965 H   0  0  0  0  0  0  0  0  0  0  0  0
  126.0138  132.5778  162.4820 H   0  0  0  0  0  0  0  0  0  0  0  0
  124.4330  133.0661  161.8256 H   0  0  0  0  0  0  0  0  0  0  0  0
  124.2877  134.5574  159.9156 H   0  0  0  0  0  0  0  0  0  0  0  0
  125.3762  136.3535  158.6295 H   0  0  0  0  0  0  0  0  0  0  0  0
  127.8135  136.6716  158.7793 H   0  0  0  0  0  0  0  0  0  0  0  0
  130.6699  135.8206  158.4954 H   0  0  0  0  0  0  0  0  0  0  0  0
  129.0332  130.8422  157.7038 H   0  0  0  0  0  0  0  0  0  0  0  0
  129.5216  133.1375  154.1516 H   0  0  0  0  0  0  0  0  0  0  0  0
  130.1237  132.0189  152.0453 H   0  0  0  0  0  0  0  0  0  0  0  0
  132.2009  128.9948  154.2295 H   0  0  0  0  0  0  0  0  0  0  0  0
  131.6152  130.1084  156.3431 H   0  0  0  0  0  0  0  0  0  0  0  0
  129.9356  137.5127  158.8148 H   0  0  0  0  0  0  0  0  0  0  0  0
  130.4244  139.7670  159.6730 H   0  0  0  0  0  0  0  0  0  0  0  0
  130.6602  140.1396  162.0948 H   0  0  0  0  0  0  0  0  0  0  0  0
  130.2894  137.4984  164.4718 H   0  0  0  0  0  0  0  0  0  0  0  0
  129.8967  135.9941  162.7992 H   0  0  0  0  0  0  0  0  0  0  0  0
  128.0754  133.3880  161.4884 H   0  0  0  0  0  0  0  0  0  0  0  0
  1  2  1  0
  1 33  1  0
  1 34  1  0
  1 35  1  0
  2  3  1  0
  2 36  1  0
  2 37  1  0
  3 32  2  0
  3  4  1  0
  4  5  2  0
  4 38  1  0
  5  6  1  0
  5 39  1  0
  6  7  2  0
  6 40  1  0
  7  8  1  0
  7 32  1  0
  8  9  1  1
  8 10  1  0
  8 25  1  0
 10 41  1  0
 11 10  1  0
 11 23  2  0
 11 12  1  0
 12 13  1  0
 12 14  1  0
 14 15  2  0
 14 42  1  0
 15 16  1  0
 15 23  1  0
 16 22  1  0
 16 17  2  0
 17 18  1  0
 17 43  1  0
 18 19  2  0
 18 44  1  0
 19 20  1  0
 19 21  1  0
 21 22  2  0
 21 45  1  0
 22 46  1  0
 23 24  1  0
 25 31  1  0
 25 26  2  0
 26 27  1  0
 26 47  1  0
 27 28  2  0
 27 48  1  0
 28 29  1  0
 28 49  1  0
 29 30  1  0
 29 31  2  0
 30 50  1  0
 31 51  1  0
 32 52  1  0
M  CHG  1  23   1
M  END
>  <DOCK_score>  (1) 
-58.496674

>  <SMILES>  (1) 
CCc1cccc([C@@H](Nc2[nH]cc(-c3ccc(F)cc3)[nH+]2)c2cccc(O)c2)c1

$$$$
