Fc1ccc([C@H](Nc2[nH]cc(-c3ccc(Br)cc3)[nH+]2)C2=CCCC2)cn1
     RDKit          3D

 45 48  0  0  1  0  0  0  0  0999 V2000
  131.7334  140.3237  161.9354 F   0  0  0  0  0  0  0  0  0  0  0  0
  131.3033  139.1142  161.5143 C   0  0  0  0  0  0  0  0  0  0  0  0
  131.6106  137.9824  162.2524 C   0  0  0  0  0  0  0  0  0  0  0  0
  131.1604  136.7482  161.8135 C   0  0  0  0  0  0  0  0  0  0  0  0
  130.4234  136.6929  160.6392 C   0  0  0  0  0  0  0  0  0  0  0  0
  129.9171  135.3725  160.1185 C   0  0  2  0  0  0  0  0  0  0  0  0
  130.2254  134.5736  160.7929 H   0  0  0  0  0  0  0  0  0  0  0  0
  130.4730  135.1278  158.7853 N   0  0  0  0  0  0  0  0  0  0  0  0
  130.1476  133.9688  158.1017 C   0  0  0  0  0  0  0  0  0  0  0  0
  129.3219  132.9865  158.5548 N   0  0  0  0  0  0  0  0  0  0  0  0
  128.8597  132.9724  159.4075 H   0  0  0  0  0  0  0  0  0  0  0  0
  129.2642  132.0182  157.5818 C   0  0  0  0  0  0  0  0  0  0  0  0
  130.0556  132.4364  156.5632 C   0  0  0  0  0  0  0  0  0  0  0  0
  130.3008  131.7097  155.2935 C   0  0  0  0  0  0  0  0  0  0  0  0
  129.9575  132.2944  154.0756 C   0  0  0  0  0  0  0  0  0  0  0  0
  130.1930  131.6166  152.8970 C   0  0  0  0  0  0  0  0  0  0  0  0
  130.7580  130.3535  152.9231 C   0  0  0  0  0  0  0  0  0  0  0  0
  131.0700  129.4273  151.3043 Br  0  0  0  0  0  0  0  0  0  0  0  0
  131.0960  129.7659  154.1302 C   0  0  0  0  0  0  0  0  0  0  0  0
  130.8699  130.4376  155.3143 C   0  0  0  0  0  0  0  0  0  0  0  0
  130.5796  133.6390  156.9089 N   0  0  0  0  0  0  0  0  0  0  0  0
  131.1801  134.1692  156.3618 H   0  0  0  0  0  0  0  0  0  0  0  0
  128.4127  135.4083  160.0366 C   0  0  0  0  0  0  0  0  0  0  0  0
  127.6119  135.0528  161.0041 C   0  0  0  0  0  0  0  0  0  0  0  0
  126.1650  135.2090  160.5980 C   0  0  0  0  0  0  0  0  0  0  0  0
  126.2001  135.3289  159.0567 C   0  0  0  0  0  0  0  0  0  0  0  0
  127.6333  135.8665  158.8260 C   0  0  0  0  0  0  0  0  0  0  0  0
  130.1597  137.8620  159.9529 C   0  0  0  0  0  0  0  0  0  0  0  0
  130.5992  139.0224  160.4013 N   0  0  0  0  0  0  0  0  0  0  0  0
  132.1906  138.0619  163.1599 H   0  0  0  0  0  0  0  0  0  0  0  0
  131.3813  135.8495  162.3701 H   0  0  0  0  0  0  0  0  0  0  0  0
  131.0691  135.7779  158.3815 H   0  0  0  0  0  0  0  0  0  0  0  0
  128.6967  131.1002  157.6206 H   0  0  0  0  0  0  0  0  0  0  0  0
  129.5121  133.2781  154.0544 H   0  0  0  0  0  0  0  0  0  0  0  0
  129.9312  132.0704  151.9525 H   0  0  0  0  0  0  0  0  0  0  0  0
  131.5370  128.7802  154.1454 H   0  0  0  0  0  0  0  0  0  0  0  0
  131.1340  129.9786  156.2557 H   0  0  0  0  0  0  0  0  0  0  0  0
  127.9406  134.6938  161.9682 H   0  0  0  0  0  0  0  0  0  0  0  0
  125.5899  134.3330  160.8977 H   0  0  0  0  0  0  0  0  0  0  0  0
  125.7421  136.1114  161.0394 H   0  0  0  0  0  0  0  0  0  0  0  0
  126.0626  134.3557  158.5854 H   0  0  0  0  0  0  0  0  0  0  0  0
  125.4557  136.0421  158.7027 H   0  0  0  0  0  0  0  0  0  0  0  0
  127.6285  136.9549  158.7671 H   0  0  0  0  0  0  0  0  0  0  0  0
  128.0565  135.4381  157.9173 H   0  0  0  0  0  0  0  0  0  0  0  0
  129.5862  137.8260  159.0384 H   0  0  0  0  0  0  0  0  0  0  0  0
  1  2  1  0
  2 29  2  0
  2  3  1  0
  3  4  2  0
  3 30  1  0
  4  5  1  0
  4 31  1  0
  5  6  1  0
  5 28  2  0
  6  7  1  1
  6  8  1  0
  6 23  1  0
  8 32  1  0
  9  8  1  0
  9 21  2  0
  9 10  1  0
 10 11  1  0
 10 12  1  0
 12 13  2  0
 12 33  1  0
 13 14  1  0
 13 21  1  0
 14 20  1  0
 14 15  2  0
 15 16  1  0
 15 34  1  0
 16 17  2  0
 16 35  1  0
 17 18  1  0
 17 19  1  0
 19 20  2  0
 19 36  1  0
 20 37  1  0
 21 22  1  0
 23 27  1  0
 23 24  2  0
 24 25  1  0
 24 38  1  0
 25 26  1  0
 25 39  1  0
 25 40  1  0
 26 27  1  0
 26 41  1  0
 26 42  1  0
 27 43  1  0
 27 44  1  0
 28 29  1  0
 28 45  1  0
M  CHG  1  21   1
M  END
>  <DOCK_score>  (1) 
-56.368446

>  <SMILES>  (1) 
Fc1ccc([C@H](Nc2[nH]cc(-c3ccc(Br)cc3)[nH+]2)C2=CCCC2)cn1

$$$$
