Nc1cc(Nc2[nH]cc(-c3ccc(F)cc3)[nH+]2)ccc1Nc1ccc(F)cc1
     RDKit          3D

 46 49  0  0  1  0  0  0  0  0999 V2000
  128.9122  137.5160  161.8451 N   0  0  0  0  0  0  0  0  0  0  0  0
  128.5773  136.5754  160.8643 C   0  0  0  0  0  0  0  0  0  0  0  0
  129.5027  136.2250  159.8935 C   0  0  0  0  0  0  0  0  0  0  0  0
  129.1678  135.2911  158.9220 C   0  0  0  0  0  0  0  0  0  0  0  0
  130.0998  134.9408  157.9376 N   0  0  0  0  0  0  0  0  0  0  0  0
  130.0789  133.6711  157.3847 C   0  0  0  0  0  0  0  0  0  0  0  0
  129.6645  132.5383  158.0155 N   0  0  0  0  0  0  0  0  0  0  0  0
  129.3344  132.4753  158.9253 H   0  0  0  0  0  0  0  0  0  0  0  0
  129.8011  131.5006  157.1256 C   0  0  0  0  0  0  0  0  0  0  0  0
  130.2945  132.0286  155.9780 C   0  0  0  0  0  0  0  0  0  0  0  0
  130.6044  131.2801  154.7352 C   0  0  0  0  0  0  0  0  0  0  0  0
  129.9530  131.6006  153.5455 C   0  0  0  0  0  0  0  0  0  0  0  0
  130.2491  130.9057  152.3906 C   0  0  0  0  0  0  0  0  0  0  0  0
  131.1829  129.8826  152.4153 C   0  0  0  0  0  0  0  0  0  0  0  0
  131.4651  129.2009  151.2836 F   0  0  0  0  0  0  0  0  0  0  0  0
  131.8286  129.5569  153.5969 C   0  0  0  0  0  0  0  0  0  0  0  0
  131.5435  130.2504  154.7552 C   0  0  0  0  0  0  0  0  0  0  0  0
  130.4497  133.3628  156.1656 N   0  0  0  0  0  0  0  0  0  0  0  0
  130.7838  133.9888  155.5042 H   0  0  0  0  0  0  0  0  0  0  0  0
  127.9070  134.7085  158.9227 C   0  0  0  0  0  0  0  0  0  0  0  0
  126.9828  135.0564  159.8896 C   0  0  0  0  0  0  0  0  0  0  0  0
  127.3120  135.9884  160.8621 C   0  0  0  0  0  0  0  0  0  0  0  0
  126.3733  136.3405  161.8432 N   0  0  0  0  0  0  0  0  0  0  0  0
  126.6617  136.1282  163.1945 C   0  0  0  0  0  0  0  0  0  0  0  0
  126.1234  136.9682  164.1610 C   0  0  0  0  0  0  0  0  0  0  0  0
  126.4065  136.7541  165.4957 C   0  0  0  0  0  0  0  0  0  0  0  0
  127.2338  135.7086  165.8700 C   0  0  0  0  0  0  0  0  0  0  0  0
  127.5133  135.5038  167.1759 F   0  0  0  0  0  0  0  0  0  0  0  0
  127.7755  134.8728  164.9079 C   0  0  0  0  0  0  0  0  0  0  0  0
  127.4917  135.0802  163.5724 C   0  0  0  0  0  0  0  0  0  0  0  0
  129.7924  137.9235  161.8458 H   0  0  0  0  0  0  0  0  0  0  0  0
  128.2639  137.7606  162.5240 H   0  0  0  0  0  0  0  0  0  0  0  0
  130.4833  136.6776  159.8930 H   0  0  0  0  0  0  0  0  0  0  0  0
  130.7601  135.5874  157.6429 H   0  0  0  0  0  0  0  0  0  0  0  0
  129.5612  130.4630  157.3054 H   0  0  0  0  0  0  0  0  0  0  0  0
  129.2213  132.3946  153.5264 H   0  0  0  0  0  0  0  0  0  0  0  0
  129.7481  131.1564  151.4672 H   0  0  0  0  0  0  0  0  0  0  0  0
  132.5558  128.7586  153.6115 H   0  0  0  0  0  0  0  0  0  0  0  0
  132.0476  129.9960  155.6758 H   0  0  0  0  0  0  0  0  0  0  0  0
  127.6484  133.9826  158.1661 H   0  0  0  0  0  0  0  0  0  0  0  0
  126.0030  134.6021  159.8875 H   0  0  0  0  0  0  0  0  0  0  0  0
  125.5242  136.7312  161.5840 H   0  0  0  0  0  0  0  0  0  0  0  0
  125.4814  137.7861  163.8693 H   0  0  0  0  0  0  0  0  0  0  0  0
  125.9855  137.4048  166.2477 H   0  0  0  0  0  0  0  0  0  0  0  0
  128.4207  134.0582  165.2021 H   0  0  0  0  0  0  0  0  0  0  0  0
  127.9149  134.4286  162.8223 H   0  0  0  0  0  0  0  0  0  0  0  0
  1  2  1  0
  1 31  1  0
  1 32  1  0
  2 22  2  0
  2  3  1  0
  3  4  2  0
  3 33  1  0
  4  5  1  0
  4 20  1  0
  5 34  1  0
  6  5  1  0
  6 18  2  0
  6  7  1  0
  7  8  1  0
  7  9  1  0
  9 10  2  0
  9 35  1  0
 10 11  1  0
 10 18  1  0
 11 17  1  0
 11 12  2  0
 12 13  1  0
 12 36  1  0
 13 14  2  0
 13 37  1  0
 14 15  1  0
 14 16  1  0
 16 17  2  0
 16 38  1  0
 17 39  1  0
 18 19  1  0
 20 21  2  0
 20 40  1  0
 21 22  1  0
 21 41  1  0
 22 23  1  0
 23 24  1  0
 23 42  1  0
 24 30  1  0
 24 25  2  0
 25 26  1  0
 25 43  1  0
 26 27  2  0
 26 44  1  0
 27 28  1  0
 27 29  1  0
 29 30  2  0
 29 45  1  0
 30 46  1  0
M  CHG  1  18   1
M  END
>  <DOCK_score>  (1) 
-55.312885

>  <SMILES>  (1) 
Nc1cc(Nc2[nH]cc(-c3ccc(F)cc3)[nH+]2)ccc1Nc1ccc(F)cc1

$$$$
