O=C1C=C([C@H](Nc2[nH]cc(-c3ccc(-c4ccccc4)cc3)[nH+]2)c2ccccc2Br)CC1
     RDKit          3D

 55 59  0  0  1  0  0  0  0  0999 V2000
  134.9661  139.2966  161.8847 O   0  0  0  0  0  0  0  0  0  0  0  0
  133.9074  138.7070  161.9467 C   0  0  0  0  0  0  0  0  0  0  0  0
  133.6470  137.3505  161.4778 C   0  0  0  0  0  0  0  0  0  0  0  0
  132.3910  136.9804  161.6831 C   0  0  0  0  0  0  0  0  0  0  0  0
  131.8190  135.6380  161.3066 C   0  0  2  0  0  0  0  0  0  0  0  0
  132.3632  134.8515  161.8295 H   0  0  0  0  0  0  0  0  0  0  0  0
  131.9458  135.4412  159.8604 N   0  0  0  0  0  0  0  0  0  0  0  0
  131.4863  134.2726  159.2779 C   0  0  0  0  0  0  0  0  0  0  0  0
  130.8952  133.2381  159.9360 N   0  0  0  0  0  0  0  0  0  0  0  0
  130.7220  133.1876  160.8890 H   0  0  0  0  0  0  0  0  0  0  0  0
  130.5898  132.2789  159.0017 C   0  0  0  0  0  0  0  0  0  0  0  0
  131.0027  132.7542  157.8000 C   0  0  0  0  0  0  0  0  0  0  0  0
  130.8788  132.0581  156.4969 C   0  0  0  0  0  0  0  0  0  0  0  0
  130.1431  132.6381  155.4634 C   0  0  0  0  0  0  0  0  0  0  0  0
  130.0318  131.9933  154.2515 C   0  0  0  0  0  0  0  0  0  0  0  0
  130.6457  130.7565  154.0607 C   0  0  0  0  0  0  0  0  0  0  0  0
  130.5208  130.0587  152.7579 C   0  0  0  0  0  0  0  0  0  0  0  0
  130.5516  128.6663  152.7037 C   0  0  0  0  0  0  0  0  0  0  0  0
  130.4299  128.0228  151.4888 C   0  0  0  0  0  0  0  0  0  0  0  0
  130.2883  128.7575  150.3254 C   0  0  0  0  0  0  0  0  0  0  0  0
  130.2624  130.1397  150.3726 C   0  0  0  0  0  0  0  0  0  0  0  0
  130.3779  130.7937  151.5823 C   0  0  0  0  0  0  0  0  0  0  0  0
  131.3775  130.1735  155.0957 C   0  0  0  0  0  0  0  0  0  0  0  0
  131.4931  130.8203  156.3062 C   0  0  0  0  0  0  0  0  0  0  0  0
  131.5437  133.9823  158.0012 N   0  0  0  0  0  0  0  0  0  0  0  0
  131.9158  134.5531  157.3107 H   0  0  0  0  0  0  0  0  0  0  0  0
  130.3638  135.5853  161.6950 C   0  0  0  0  0  0  0  0  0  0  0  0
  129.3937  135.9917  160.7979 C   0  0  0  0  0  0  0  0  0  0  0  0
  128.0590  135.9439  161.1541 C   0  0  0  0  0  0  0  0  0  0  0  0
  127.6936  135.4897  162.4079 C   0  0  0  0  0  0  0  0  0  0  0  0
  128.6624  135.0783  163.3035 C   0  0  0  0  0  0  0  0  0  0  0  0
  129.9987  135.1310  162.9492 C   0  0  0  0  0  0  0  0  0  0  0  0
  131.3252  134.5742  164.1766 Br  0  0  0  0  0  0  0  0  0  0  0  0
  131.6129  138.0927  162.3400 C   0  0  0  0  0  0  0  0  0  0  0  0
  132.6159  139.2449  162.5248 C   0  0  0  0  0  0  0  0  0  0  0  0
  134.3925  136.7197  161.0165 H   0  0  0  0  0  0  0  0  0  0  0  0
  132.3518  136.1300  159.3111 H   0  0  0  0  0  0  0  0  0  0  0  0
  130.1120  131.3283  159.1880 H   0  0  0  0  0  0  0  0  0  0  0  0
  129.6638  133.5944  155.6124 H   0  0  0  0  0  0  0  0  0  0  0  0
  129.4657  132.4442  153.4499 H   0  0  0  0  0  0  0  0  0  0  0  0
  130.6662  128.0919  153.6111 H   0  0  0  0  0  0  0  0  0  0  0  0
  130.4491  126.9439  151.4460 H   0  0  0  0  0  0  0  0  0  0  0  0
  130.1978  128.2499  149.3763 H   0  0  0  0  0  0  0  0  0  0  0  0
  130.1519  130.7083  149.4609 H   0  0  0  0  0  0  0  0  0  0  0  0
  130.3579  131.8729  151.6180 H   0  0  0  0  0  0  0  0  0  0  0  0
  131.8532  129.2152  154.9480 H   0  0  0  0  0  0  0  0  0  0  0  0
  132.0597  130.3694  157.1076 H   0  0  0  0  0  0  0  0  0  0  0  0
  129.6787  136.3462  159.8184 H   0  0  0  0  0  0  0  0  0  0  0  0
  127.3015  136.2617  160.4531 H   0  0  0  0  0  0  0  0  0  0  0  0
  126.6506  135.4525  162.6859 H   0  0  0  0  0  0  0  0  0  0  0  0
  128.3766  134.7196  164.2812 H   0  0  0  0  0  0  0  0  0  0  0  0
  130.7893  138.4064  161.6985 H   0  0  0  0  0  0  0  0  0  0  0  0
  131.2339  137.7665  163.3085 H   0  0  0  0  0  0  0  0  0  0  0  0
  132.7401  139.4816  163.5815 H   0  0  0  0  0  0  0  0  0  0  0  0
  132.2888  140.1263  161.9730 H   0  0  0  0  0  0  0  0  0  0  0  0
  1  2  2  0
  2 35  1  0
  2  3  1  0
  3  4  2  0
  3 36  1  0
  4  5  1  0
  4 34  1  0
  5  6  1  1
  5  7  1  0
  5 27  1  0
  7 37  1  0
  8  7  1  0
  8 25  2  0
  8  9  1  0
  9 10  1  0
  9 11  1  0
 11 12  2  0
 11 38  1  0
 12 13  1  0
 12 25  1  0
 13 24  1  0
 13 14  2  0
 14 15  1  0
 14 39  1  0
 15 16  2  0
 15 40  1  0
 16 17  1  0
 16 23  1  0
 17 22  1  0
 17 18  2  0
 18 19  1  0
 18 41  1  0
 19 20  2  0
 19 42  1  0
 20 21  1  0
 20 43  1  0
 21 22  2  0
 21 44  1  0
 22 45  1  0
 23 24  2  0
 23 46  1  0
 24 47  1  0
 25 26  1  0
 27 32  1  0
 27 28  2  0
 28 29  1  0
 28 48  1  0
 29 30  2  0
 29 49  1  0
 30 31  1  0
 30 50  1  0
 31 32  2  0
 31 51  1  0
 32 33  1  0
 34 35  1  0
 34 52  1  0
 34 53  1  0
 35 54  1  0
 35 55  1  0
M  CHG  1  25   1
M  END
>  <DOCK_score>  (1) 
-58.983013

>  <SMILES>  (1) 
O=C1C=C([C@H](Nc2[nH]cc(-c3ccc(-c4ccccc4)cc3)[nH+]2)c2ccccc2Br)CC1

$$$$
