CCCC=CC(Nc1nc(-c2ccc([N+](=O)[O-])cc2)c[nH]1)[C@H]([NH3+])C(=O)Nc1cccc(O)c1
     RDKit          3D

 60 62  0  0  1  0  0  0  0  0999 V2000
  130.4233  128.6359  158.9840 C   0  0  0  0  0  0  0  0  0  0  0  0
  130.1895  129.9837  159.6693 C   0  0  0  0  0  0  0  0  0  0  0  0
  131.4974  130.7774  159.6931 C   0  0  0  0  0  0  0  0  0  0  0  0
  131.2671  132.1050  160.3681 C   0  0  0  0  0  0  0  0  0  0  0  0
  131.4843  133.2188  159.7136 C   0  0  0  0  0  0  0  0  0  0  0  0
  131.2541  134.5465  160.3886 C   0  0  1  0  0  0  0  0  0  0  0  0
  132.5066  135.3063  160.4114 N   0  0  0  0  0  0  0  0  0  0  0  0
  132.7552  136.2001  161.4389 C   0  0  0  0  0  0  0  0  0  0  0  0
  131.9512  136.4521  162.4429 N   0  0  0  0  0  0  0  0  0  0  0  0
  132.5253  137.3792  163.2500 C   0  0  0  0  0  0  0  0  0  0  0  0
  131.9404  137.9353  164.4947 C   0  0  0  0  0  0  0  0  0  0  0  0
  132.2539  139.2326  164.8961 C   0  0  0  0  0  0  0  0  0  0  0  0
  131.7020  139.7470  166.0516 C   0  0  0  0  0  0  0  0  0  0  0  0
  130.8486  138.9731  166.8175 C   0  0  0  0  0  0  0  0  0  0  0  0
  130.2648  139.5282  168.0596 N   0  0  0  0  0  0  0  0  0  0  0  0
  130.5362  140.6642  168.4053 O   0  0  0  0  0  0  0  0  0  0  0  0
  129.5134  138.8488  168.7358 O   0  0  0  0  0  0  0  0  0  0  0  0
  130.5385  137.6829  166.4270 C   0  0  0  0  0  0  0  0  0  0  0  0
  131.0797  137.1604  165.2701 C   0  0  0  0  0  0  0  0  0  0  0  0
  133.7287  137.7070  162.7180 C   0  0  0  0  0  0  0  0  0  0  0  0
  133.8773  136.9579  161.5763 N   0  0  0  0  0  0  0  0  0  0  0  0
  134.6402  136.9686  160.9772 H   0  0  0  0  0  0  0  0  0  0  0  0
  130.1938  135.3340  159.6166 C   0  0  2  0  0  0  0  0  0  0  0  0
  130.3495  135.2003  158.5462 H   0  0  0  0  0  0  0  0  0  0  0  0
  130.3017  136.7600  159.9527 N   0  0  0  0  0  0  0  0  0  0  0  0
  129.6024  137.2795  159.4436 H   0  0  0  0  0  0  0  0  0  0  0  0
  130.1575  136.8839  160.9437 H   0  0  0  0  0  0  0  0  0  0  0  0
  131.2193  137.0962  159.7018 H   0  0  0  0  0  0  0  0  0  0  0  0
  128.8232  134.8320  159.9914 C   0  0  0  0  0  0  0  0  0  0  0  0
  128.2269  135.3333  160.9211 O   0  0  0  0  0  0  0  0  0  0  0  0
  128.2599  133.8259  159.2935 N   0  0  0  0  0  0  0  0  0  0  0  0
  126.9874  133.3598  159.6415 C   0  0  0  0  0  0  0  0  0  0  0  0
  126.6479  132.0314  159.4172 C   0  0  0  0  0  0  0  0  0  0  0  0
  125.3920  131.5711  159.7616 C   0  0  0  0  0  0  0  0  0  0  0  0
  124.4717  132.4288  160.3342 C   0  0  0  0  0  0  0  0  0  0  0  0
  124.8034  133.7580  160.5552 C   0  0  0  0  0  0  0  0  0  0  0  0
  123.8959  134.6015  161.1134 O   0  0  0  0  0  0  0  0  0  0  0  0
  126.0630  134.2236  160.2113 C   0  0  0  0  0  0  0  0  0  0  0  0
  130.7661  128.8021  157.9628 H   0  0  0  0  0  0  0  0  0  0  0  0
  131.1788  128.0748  159.5341 H   0  0  0  0  0  0  0  0  0  0  0  0
  129.4916  128.0705  158.9669 H   0  0  0  0  0  0  0  0  0  0  0  0
  129.8466  129.8176  160.6905 H   0  0  0  0  0  0  0  0  0  0  0  0
  129.4341  130.5448  159.1191 H   0  0  0  0  0  0  0  0  0  0  0  0
  131.8402  130.9436  158.6719 H   0  0  0  0  0  0  0  0  0  0  0  0
  132.2528  130.2162  160.2432 H   0  0  0  0  0  0  0  0  0  0  0  0
  130.9232  132.1381  161.3913 H   0  0  0  0  0  0  0  0  0  0  0  0
  131.8283  133.1857  158.6905 H   0  0  0  0  0  0  0  0  0  0  0  0
  130.9114  134.3802  161.4099 H   0  0  0  0  0  0  0  0  0  0  0  0
  133.1615  135.1831  159.7066 H   0  0  0  0  0  0  0  0  0  0  0  0
  132.9239  139.8360  164.3013 H   0  0  0  0  0  0  0  0  0  0  0  0
  131.9407  140.7537  166.3613 H   0  0  0  0  0  0  0  0  0  0  0  0
  129.8717  137.0832  167.0289 H   0  0  0  0  0  0  0  0  0  0  0  0
  130.8367  136.1529  164.9659 H   0  0  0  0  0  0  0  0  0  0  0  0
  134.4370  138.4176  163.1180 H   0  0  0  0  0  0  0  0  0  0  0  0
  128.7368  133.4250  158.5500 H   0  0  0  0  0  0  0  0  0  0  0  0
  127.3665  131.3581  158.9737 H   0  0  0  0  0  0  0  0  0  0  0  0
  125.1299  130.5381  159.5869 H   0  0  0  0  0  0  0  0  0  0  0  0
  123.4920  132.0650  160.6066 H   0  0  0  0  0  0  0  0  0  0  0  0
  124.2179  135.5061  161.2278 H   0  0  0  0  0  0  0  0  0  0  0  0
  126.3244  135.2568  160.3864 H   0  0  0  0  0  0  0  0  0  0  0  0
  1  2  1  0
  1 39  1  0
  1 40  1  0
  1 41  1  0
  2  3  1  0
  2 42  1  0
  2 43  1  0
  3  4  1  0
  3 44  1  0
  3 45  1  0
  4  5  2  0
  4 46  1  0
  5  6  1  0
  5 47  1  0
  6  7  1  0
  6 23  1  0
  6 48  1  1
  7  8  1  0
  7 49  1  0
  8 21  1  0
  8  9  2  0
  9 10  1  0
 10 11  1  0
 10 20  2  0
 11 19  1  0
 11 12  2  0
 12 13  1  0
 12 50  1  0
 13 14  2  0
 13 51  1  0
 14 15  1  0
 14 18  1  0
 15 16  2  0
 15 17  1  0
 18 19  2  0
 18 52  1  0
 19 53  1  0
 20 21  1  0
 20 54  1  0
 21 22  1  0
 23 24  1  6
 23 25  1  0
 23 29  1  0
 25 26  1  0
 25 27  1  0
 25 28  1  0
 29 30  2  0
 29 31  1  0
 31 32  1  0
 31 55  1  0
 32 38  1  0
 32 33  2  0
 33 34  1  0
 33 56  1  0
 34 35  2  0
 34 57  1  0
 35 36  1  0
 35 58  1  0
 36 37  1  0
 36 38  2  0
 37 59  1  0
 38 60  1  0
M  CHG  3  15   1  17  -1  25   1
M  END
>  <DOCK_score>  (1) 
-43.934704

>  <SMILES>  (1) 
CCCC=CC(Nc1nc(-c2ccc([N+](=O)[O-])cc2)c[nH]1)[C@H]([NH3+])C(=O)Nc1cccc(O)c1

$$$$
