CCc1ccc(-c2c[nH]c(N[C@H](c3ccnn3C)C(c3ccccc3)c3ccnn3C)[nH+]2)cc1
     RDKit          3D

 64 68  0  0  1  0  0  0  0  0999 V2000
  130.3367  128.8527  152.0186 C   0  0  0  0  0  0  0  0  0  0  0  0
  131.4540  129.8372  152.3698 C   0  0  0  0  0  0  0  0  0  0  0  0
  131.0843  130.5912  153.6212 C   0  0  0  0  0  0  0  0  0  0  0  0
  131.4488  130.0928  154.8589 C   0  0  0  0  0  0  0  0  0  0  0  0
  131.1180  130.7819  156.0079 C   0  0  0  0  0  0  0  0  0  0  0  0
  130.4049  131.9762  155.9201 C   0  0  0  0  0  0  0  0  0  0  0  0
  130.0414  132.7185  157.1517 C   0  0  0  0  0  0  0  0  0  0  0  0
  129.2811  132.2487  158.1715 C   0  0  0  0  0  0  0  0  0  0  0  0
  129.1954  133.2559  159.1018 N   0  0  0  0  0  0  0  0  0  0  0  0
  128.7162  133.2205  159.9444 H   0  0  0  0  0  0  0  0  0  0  0  0
  129.9066  134.3127  158.6228 C   0  0  0  0  0  0  0  0  0  0  0  0
  130.0707  135.5301  159.2612 N   0  0  0  0  0  0  0  0  0  0  0  0
  129.4496  135.7616  160.5676 C   0  0  2  0  0  0  0  0  0  0  0  0
  129.8304  135.0347  161.2850 H   0  0  0  0  0  0  0  0  0  0  0  0
  127.9548  135.6123  160.4467 C   0  0  0  0  0  0  0  0  0  0  0  0
  127.2134  135.8740  159.3453 C   0  0  0  0  0  0  0  0  0  0  0  0
  125.8759  135.6040  159.6528 C   0  0  0  0  0  0  0  0  0  0  0  0
  125.8154  135.2027  160.8966 N   0  0  0  0  0  0  0  0  0  0  0  0
  127.1152  135.1995  161.4192 N   0  0  0  0  0  0  0  0  0  0  0  0
  127.4958  134.8163  162.7810 C   0  0  0  0  0  0  0  0  0  0  0  0
  129.7837  137.1754  161.0477 C   0  0  2  0  0  0  0  0  0  0  0  0
  131.2170  137.4951  160.7096 C   0  0  0  0  0  0  0  0  0  0  0  0
  131.5910  138.7997  160.4476 C   0  0  0  0  0  0  0  0  0  0  0  0
  132.9068  139.0937  160.1422 C   0  0  0  0  0  0  0  0  0  0  0  0
  133.8465  138.0812  160.0883 C   0  0  0  0  0  0  0  0  0  0  0  0
  133.4714  136.7757  160.3451 C   0  0  0  0  0  0  0  0  0  0  0  0
  132.1568  136.4826  160.6557 C   0  0  0  0  0  0  0  0  0  0  0  0
  129.5891  137.2582  162.5399 C   0  0  0  0  0  0  0  0  0  0  0  0
  130.2359  136.5194  163.4709 C   0  0  0  0  0  0  0  0  0  0  0  0
  129.7653  136.9060  164.7301 C   0  0  0  0  0  0  0  0  0  0  0  0
  128.8682  137.8433  164.5611 N   0  0  0  0  0  0  0  0  0  0  0  0
  128.7432  138.0866  163.1871 N   0  0  0  0  0  0  0  0  0  0  0  0
  127.8494  139.0655  162.5632 C   0  0  0  0  0  0  0  0  0  0  0  0
  130.4155  133.9857  157.4600 N   0  0  0  0  0  0  0  0  0  0  0  0
  130.9690  134.5590  156.9070 H   0  0  0  0  0  0  0  0  0  0  0  0
  130.0352  132.4707  154.6705 C   0  0  0  0  0  0  0  0  0  0  0  0
  130.3764  131.7761  153.5279 C   0  0  0  0  0  0  0  0  0  0  0  0
  130.6041  128.3075  151.1134 H   0  0  0  0  0  0  0  0  0  0  0  0
  130.2010  128.1491  152.8399 H   0  0  0  0  0  0  0  0  0  0  0  0
  129.4090  129.4002  151.8522 H   0  0  0  0  0  0  0  0  0  0  0  0
  132.3817  129.2898  152.5362 H   0  0  0  0  0  0  0  0  0  0  0  0
  131.5897  130.5408  151.5484 H   0  0  0  0  0  0  0  0  0  0  0  0
  131.9973  129.1647  154.9260 H   0  0  0  0  0  0  0  0  0  0  0  0
  131.4073  130.3942  156.9736 H   0  0  0  0  0  0  0  0  0  0  0  0
  128.8291  131.2702  158.2393 H   0  0  0  0  0  0  0  0  0  0  0  0
  130.5969  136.2298  158.8434 H   0  0  0  0  0  0  0  0  0  0  0  0
  127.5884  136.2266  158.3959 H   0  0  0  0  0  0  0  0  0  0  0  0
  125.0374  135.7122  158.9808 H   0  0  0  0  0  0  0  0  0  0  0  0
  127.3760  135.6717  163.4460 H   0  0  0  0  0  0  0  0  0  0  0  0
  126.8579  134.0002  163.1203 H   0  0  0  0  0  0  0  0  0  0  0  0
  128.5363  134.4920  162.7897 H   0  0  0  0  0  0  0  0  0  0  0  0
  129.1257  137.8914  160.5553 H   0  0  0  0  0  0  0  0  0  0  0  0
  130.8559  139.5902  160.4854 H   0  0  0  0  0  0  0  0  0  0  0  0
  133.1997  140.1135  159.9413 H   0  0  0  0  0  0  0  0  0  0  0  0
  134.8737  138.3102  159.8453 H   0  0  0  0  0  0  0  0  0  0  0  0
  134.2056  135.9847  160.3026 H   0  0  0  0  0  0  0  0  0  0  0  0
  131.8636  135.4626  160.8559 H   0  0  0  0  0  0  0  0  0  0  0  0
  130.9836  135.7647  163.2762 H   0  0  0  0  0  0  0  0  0  0  0  0
  130.0872  136.5012  165.6782 H   0  0  0  0  0  0  0  0  0  0  0  0
  126.8882  138.5969  162.3519 H   0  0  0  0  0  0  0  0  0  0  0  0
  127.7026  139.9068  163.2403 H   0  0  0  0  0  0  0  0  0  0  0  0
  128.2926  139.4208  161.6329 H   0  0  0  0  0  0  0  0  0  0  0  0
  129.4823  133.3955  154.5966 H   0  0  0  0  0  0  0  0  0  0  0  0
  130.0902  132.1582  152.5592 H   0  0  0  0  0  0  0  0  0  0  0  0
  1  2  1  0
  1 38  1  0
  1 39  1  0
  1 40  1  0
  2  3  1  0
  2 41  1  0
  2 42  1  0
  3 37  2  0
  3  4  1  0
  4  5  2  0
  4 43  1  0
  5  6  1  0
  5 44  1  0
  6  7  1  0
  6 36  2  0
  7 34  1  0
  7  8  2  0
  8  9  1  0
  8 45  1  0
  9 10  1  0
  9 11  1  0
 11 12  1  0
 11 34  2  0
 12 13  1  0
 12 46  1  0
 13 14  1  1
 13 15  1  0
 13 21  1  0
 15 19  1  0
 15 16  2  0
 16 17  1  0
 16 47  1  0
 17 18  2  0
 17 48  1  0
 18 19  1  0
 19 20  1  0
 20 49  1  0
 20 50  1  0
 20 51  1  0
 21 22  1  0
 21 28  1  0
 21 52  1  6
 22 27  1  0
 22 23  2  0
 23 24  1  0
 23 53  1  0
 24 25  2  0
 24 54  1  0
 25 26  1  0
 25 55  1  0
 26 27  2  0
 26 56  1  0
 27 57  1  0
 28 32  1  0
 28 29  2  0
 29 30  1  0
 29 58  1  0
 30 31  2  0
 30 59  1  0
 31 32  1  0
 32 33  1  0
 33 60  1  0
 33 61  1  0
 33 62  1  0
 34 35  1  0
 36 37  1  0
 36 63  1  0
 37 64  1  0
M  CHG  1  34   1
M  END
>  <DOCK_score>  (1) 
-58.316566

>  <SMILES>  (1) 
CCc1ccc(-c2c[nH]c(N[C@H](c3ccnn3C)C(c3ccccc3)c3ccnn3C)[nH+]2)cc1

$$$$
