Nc1ccc(-c2c[nH]c(N[C@H](c3ccccc3)C3CCCCC3)[nH+]2)cc1
     RDKit          3D

 53 56  0  0  1  0  0  0  0  0999 V2000
  131.4342  129.5666  151.1458 N   0  0  0  0  0  0  0  0  0  0  0  0
  131.1349  130.2023  152.3534 C   0  0  0  0  0  0  0  0  0  0  0  0
  130.3964  131.3797  152.3534 C   0  0  0  0  0  0  0  0  0  0  0  0
  130.0996  132.0084  153.5441 C   0  0  0  0  0  0  0  0  0  0  0  0
  130.5409  131.4626  154.7485 C   0  0  0  0  0  0  0  0  0  0  0  0
  130.2233  132.1376  156.0307 C   0  0  0  0  0  0  0  0  0  0  0  0
  129.5215  131.6039  157.0609 C   0  0  0  0  0  0  0  0  0  0  0  0
  129.4581  132.5662  158.0408 N   0  0  0  0  0  0  0  0  0  0  0  0
  129.0174  132.4822  158.9009 H   0  0  0  0  0  0  0  0  0  0  0  0
  130.1283  133.6576  157.5815 C   0  0  0  0  0  0  0  0  0  0  0  0
  130.2977  134.8478  158.2681 N   0  0  0  0  0  0  0  0  0  0  0  0
  129.2808  135.2930  159.2243 C   0  0  2  0  0  0  0  0  0  0  0  0
  129.1720  134.5475  160.0122 H   0  0  0  0  0  0  0  0  0  0  0  0
  127.9641  135.4675  158.5125 C   0  0  0  0  0  0  0  0  0  0  0  0
  126.7782  135.2634  159.1929 C   0  0  0  0  0  0  0  0  0  0  0  0
  125.5703  135.4277  158.5410 C   0  0  0  0  0  0  0  0  0  0  0  0
  125.5484  135.7872  157.2064 C   0  0  0  0  0  0  0  0  0  0  0  0
  126.7344  135.9861  156.5246 C   0  0  0  0  0  0  0  0  0  0  0  0
  127.9422  135.8261  157.1776 C   0  0  0  0  0  0  0  0  0  0  0  0
  129.7087  136.6267  159.8398 C   0  0  0  0  0  0  0  0  0  0  0  0
  131.0456  136.4493  160.5625 C   0  0  0  0  0  0  0  0  0  0  0  0
  131.4736  137.7830  161.1780 C   0  0  0  0  0  0  0  0  0  0  0  0
  130.4116  138.2480  162.1765 C   0  0  0  0  0  0  0  0  0  0  0  0
  129.0749  138.4254  161.4539 C   0  0  0  0  0  0  0  0  0  0  0  0
  128.6470  137.0917  160.8383 C   0  0  0  0  0  0  0  0  0  0  0  0
  130.5869  133.3965  156.3816 N   0  0  0  0  0  0  0  0  0  0  0  0
  131.1005  134.0077  155.8306 H   0  0  0  0  0  0  0  0  0  0  0  0
  131.2861  130.2844  154.7457 C   0  0  0  0  0  0  0  0  0  0  0  0
  131.5761  129.6561  153.5529 C   0  0  0  0  0  0  0  0  0  0  0  0
  131.1264  129.9469  150.3082 H   0  0  0  0  0  0  0  0  0  0  0  0
  131.9496  128.7449  151.1450 H   0  0  0  0  0  0  0  0  0  0  0  0
  130.0551  131.8025  151.4201 H   0  0  0  0  0  0  0  0  0  0  0  0
  129.5253  132.9232  153.5437 H   0  0  0  0  0  0  0  0  0  0  0  0
  129.0907  130.6144  157.1018 H   0  0  0  0  0  0  0  0  0  0  0  0
  131.0894  135.3870  158.1160 H   0  0  0  0  0  0  0  0  0  0  0  0
  126.7954  134.9789  160.2345 H   0  0  0  0  0  0  0  0  0  0  0  0
  124.6438  135.2726  159.0738 H   0  0  0  0  0  0  0  0  0  0  0  0
  124.6047  135.9130  156.6966 H   0  0  0  0  0  0  0  0  0  0  0  0
  126.7173  136.2669  155.4819 H   0  0  0  0  0  0  0  0  0  0  0  0
  128.8688  135.9814  156.6449 H   0  0  0  0  0  0  0  0  0  0  0  0
  129.8178  137.3721  159.0519 H   0  0  0  0  0  0  0  0  0  0  0  0
  130.9366  135.7040  161.3504 H   0  0  0  0  0  0  0  0  0  0  0  0
  131.8020  136.1180  159.8511 H   0  0  0  0  0  0  0  0  0  0  0  0
  131.5826  138.5284  160.3902 H   0  0  0  0  0  0  0  0  0  0  0  0
  132.4260  137.6566  161.6929 H   0  0  0  0  0  0  0  0  0  0  0  0
  130.7167  139.1982  162.6151 H   0  0  0  0  0  0  0  0  0  0  0  0
  130.3027  137.5027  162.9644 H   0  0  0  0  0  0  0  0  0  0  0  0
  129.1841  139.1709  160.6660 H   0  0  0  0  0  0  0  0  0  0  0  0
  128.3185  138.7568  162.1653 H   0  0  0  0  0  0  0  0  0  0  0  0
  127.6946  137.2181  160.3234 H   0  0  0  0  0  0  0  0  0  0  0  0
  128.5379  136.3464  161.6262 H   0  0  0  0  0  0  0  0  0  0  0  0
  131.6328  129.8620  155.6772 H   0  0  0  0  0  0  0  0  0  0  0  0
  132.1502  128.7414  153.5506 H   0  0  0  0  0  0  0  0  0  0  0  0
  1  2  1  0
  1 30  1  0
  1 31  1  0
  2 29  2  0
  2  3  1  0
  3  4  2  0
  3 32  1  0
  4  5  1  0
  4 33  1  0
  5  6  1  0
  5 28  2  0
  6 26  1  0
  6  7  2  0
  7  8  1  0
  7 34  1  0
  8  9  1  0
  8 10  1  0
 10 11  1  0
 10 26  2  0
 11 12  1  0
 11 35  1  0
 12 13  1  1
 12 14  1  0
 12 20  1  0
 14 19  1  0
 14 15  2  0
 15 16  1  0
 15 36  1  0
 16 17  2  0
 16 37  1  0
 17 18  1  0
 17 38  1  0
 18 19  2  0
 18 39  1  0
 19 40  1  0
 20 25  1  0
 20 21  1  0
 20 41  1  0
 21 22  1  0
 21 42  1  0
 21 43  1  0
 22 23  1  0
 22 44  1  0
 22 45  1  0
 23 24  1  0
 23 46  1  0
 23 47  1  0
 24 25  1  0
 24 48  1  0
 24 49  1  0
 25 50  1  0
 25 51  1  0
 26 27  1  0
 28 29  1  0
 28 52  1  0
 29 53  1  0
M  CHG  1  26   1
M  END
>  <DOCK_score>  (1) 
-60.84893

>  <SMILES>  (1) 
Nc1ccc(-c2c[nH]c(N[C@H](c3ccccc3)C3CCCCC3)[nH+]2)cc1

$$$$
