C[C@@H](O)CC(Nc1[nH]cc(-c2ccc(F)cc2)[nH+]1)c1ccccc1
     RDKit          3D

 45 47  0  0  1  0  0  0  0  0999 V2000
  132.2468  136.5430  162.7455 C   0  0  0  0  0  0  0  0  0  0  0  0
  132.0369  137.0631  161.3220 C   0  0  1  0  0  0  0  0  0  0  0  0
  132.3952  138.0902  161.2539 H   0  0  0  0  0  0  0  0  0  0  0  0
  132.7630  136.2434  160.4037 O   0  0  0  0  0  0  0  0  0  0  0  0
  130.5469  137.0187  160.9773 C   0  0  0  0  0  0  0  0  0  0  0  0
  130.1566  135.5923  160.5848 C   0  0  2  0  0  0  0  0  0  0  0  0
  130.5504  135.3428  159.1960 N   0  0  0  0  0  0  0  0  0  0  0  0
  130.2981  134.1117  158.6154 C   0  0  0  0  0  0  0  0  0  0  0  0
  129.6992  133.0542  159.2280 N   0  0  0  0  0  0  0  0  0  0  0  0
  129.3756  133.0276  160.1419 H   0  0  0  0  0  0  0  0  0  0  0  0
  129.6352  132.0322  158.3116 C   0  0  0  0  0  0  0  0  0  0  0  0
  130.2045  132.4913  157.1698 C   0  0  0  0  0  0  0  0  0  0  0  0
  130.3649  131.7299  155.9068 C   0  0  0  0  0  0  0  0  0  0  0  0
  129.7706  132.1898  154.7331 C   0  0  0  0  0  0  0  0  0  0  0  0
  129.9269  131.4811  153.5596 C   0  0  0  0  0  0  0  0  0  0  0  0
  130.6638  130.3086  153.5488 C   0  0  0  0  0  0  0  0  0  0  0  0
  130.8100  129.6152  152.3986 F   0  0  0  0  0  0  0  0  0  0  0  0
  131.2519  129.8441  154.7148 C   0  0  0  0  0  0  0  0  0  0  0  0
  131.1055  130.5492  155.8918 C   0  0  0  0  0  0  0  0  0  0  0  0
  130.6018  133.7702  157.3869 N   0  0  0  0  0  0  0  0  0  0  0  0
  131.0406  134.3409  156.7367 H   0  0  0  0  0  0  0  0  0  0  0  0
  128.6653  135.4239  160.7221 C   0  0  0  0  0  0  0  0  0  0  0  0
  128.1262  134.9896  161.9187 C   0  0  0  0  0  0  0  0  0  0  0  0
  126.7578  134.8397  162.0461 C   0  0  0  0  0  0  0  0  0  0  0  0
  125.9296  135.1144  160.9740 C   0  0  0  0  0  0  0  0  0  0  0  0
  126.4692  135.5438  159.7760 C   0  0  0  0  0  0  0  0  0  0  0  0
  127.8371  135.6985  159.6501 C   0  0  0  0  0  0  0  0  0  0  0  0
  133.3083  136.5746  162.9910 H   0  0  0  0  0  0  0  0  0  0  0  0
  131.6931  137.1680  163.4460 H   0  0  0  0  0  0  0  0  0  0  0  0
  131.8886  135.5158  162.8136 H   0  0  0  0  0  0  0  0  0  0  0  0
  132.6757  136.5153  159.4799 H   0  0  0  0  0  0  0  0  0  0  0  0
  129.9640  137.3294  161.8442 H   0  0  0  0  0  0  0  0  0  0  0  0
  130.3466  137.6925  160.1443 H   0  0  0  0  0  0  0  0  0  0  0  0
  130.6640  134.8836  161.2393 H   0  0  0  0  0  0  0  0  0  0  0  0
  130.9878  136.0404  158.6832 H   0  0  0  0  0  0  0  0  0  0  0  0
  129.2155  131.0500  158.4715 H   0  0  0  0  0  0  0  0  0  0  0  0
  129.1920  133.1018  154.7412 H   0  0  0  0  0  0  0  0  0  0  0  0
  129.4703  131.8391  152.6486 H   0  0  0  0  0  0  0  0  0  0  0  0
  131.8256  128.9292  154.7021 H   0  0  0  0  0  0  0  0  0  0  0  0
  131.5641  130.1869  156.7998 H   0  0  0  0  0  0  0  0  0  0  0  0
  128.7735  134.7707  162.7549 H   0  0  0  0  0  0  0  0  0  0  0  0
  126.3362  134.5040  162.9821 H   0  0  0  0  0  0  0  0  0  0  0  0
  124.8609  134.9932  161.0722 H   0  0  0  0  0  0  0  0  0  0  0  0
  125.8222  135.7579  158.9382 H   0  0  0  0  0  0  0  0  0  0  0  0
  128.2587  136.0335  158.7138 H   0  0  0  0  0  0  0  0  0  0  0  0
  1  2  1  0
  1 28  1  0
  1 29  1  0
  1 30  1  0
  2  3  1  1
  2  4  1  0
  2  5  1  0
  4 31  1  0
  5  6  1  0
  5 32  1  0
  5 33  1  0
  6  7  1  0
  6 22  1  0
  6 34  1  1
  7 35  1  0
  8  7  1  0
  8 20  2  0
  8  9  1  0
  9 10  1  0
  9 11  1  0
 11 12  2  0
 11 36  1  0
 12 13  1  0
 12 20  1  0
 13 19  1  0
 13 14  2  0
 14 15  1  0
 14 37  1  0
 15 16  2  0
 15 38  1  0
 16 17  1  0
 16 18  1  0
 18 19  2  0
 18 39  1  0
 19 40  1  0
 20 21  1  0
 22 27  1  0
 22 23  2  0
 23 24  1  0
 23 41  1  0
 24 25  2  0
 24 42  1  0
 25 26  1  0
 25 43  1  0
 26 27  2  0
 26 44  1  0
 27 45  1  0
M  CHG  1  20   1
M  END
>  <DOCK_score>  (1) 
-56.454098

>  <SMILES>  (1) 
C[C@@H](O)CC(Nc1[nH]cc(-c2ccc(F)cc2)[nH+]1)c1ccccc1

$$$$
