C[C@H](NC(NC1CC=CC1)=[NH+]C1CCC(=O)NC1)c1cnn(C)c1
     RDKit          3D

 51 53  0  0  1  0  0  0  0  0999 V2000
  132.8535  134.5233  161.7831 C   0  0  0  0  0  0  0  0  0  0  0  0
  131.6660  135.2756  161.1792 C   0  0  2  0  0  0  0  0  0  0  0  0
  130.8446  135.2932  161.8958 H   0  0  0  0  0  0  0  0  0  0  0  0
  131.2310  134.5995  159.9545 N   0  0  0  0  0  0  0  0  0  0  0  0
  129.9118  134.6524  159.5714 C   0  0  0  0  0  0  0  0  0  0  0  0
  129.5036  134.0178  158.4220 N   0  0  0  0  0  0  0  0  0  0  0  0
  130.4745  133.2852  157.6055 C   0  0  0  0  0  0  0  0  0  0  0  0
  129.9722  133.1304  156.1512 C   0  0  0  0  0  0  0  0  0  0  0  0
  130.4240  131.7502  155.7337 C   0  0  0  0  0  0  0  0  0  0  0  0
  130.7523  131.0293  156.7711 C   0  0  0  0  0  0  0  0  0  0  0  0
  130.5742  131.8085  158.0534 C   0  0  0  0  0  0  0  0  0  0  0  0
  129.0478  135.3043  160.2978 N   0  0  0  0  0  0  0  0  0  0  0  0
  129.3321  136.0734  160.8159 H   0  0  0  0  0  0  0  0  0  0  0  0
  127.6476  134.8752  160.3318 C   0  0  1  0  0  0  0  0  0  0  0  0
  127.5611  133.4438  160.8749 C   0  0  0  0  0  0  0  0  0  0  0  0
  126.1172  132.9572  160.7289 C   0  0  0  0  0  0  0  0  0  0  0  0
  125.1724  133.9907  161.2718 C   0  0  0  0  0  0  0  0  0  0  0  0
  124.0385  133.6500  161.5345 O   0  0  0  0  0  0  0  0  0  0  0  0
  125.5138  135.2627  161.4807 N   0  0  0  0  0  0  0  0  0  0  0  0
  126.8496  135.8005  161.2515 C   0  0  0  0  0  0  0  0  0  0  0  0
  132.0789  136.6879  160.8538 C   0  0  0  0  0  0  0  0  0  0  0  0
  133.0987  137.0650  159.9739 C   0  0  0  0  0  0  0  0  0  0  0  0
  133.1549  138.3720  159.9493 N   0  0  0  0  0  0  0  0  0  0  0  0
  132.1711  138.8685  160.8142 N   0  0  0  0  0  0  0  0  0  0  0  0
  131.8933  140.2816  161.0827 C   0  0  0  0  0  0  0  0  0  0  0  0
  131.5249  137.8153  161.3566 C   0  0  0  0  0  0  0  0  0  0  0  0
  132.5547  133.5019  162.0184 H   0  0  0  0  0  0  0  0  0  0  0  0
  133.6747  134.5057  161.0665 H   0  0  0  0  0  0  0  0  0  0  0  0
  133.1770  135.0265  162.6943 H   0  0  0  0  0  0  0  0  0  0  0  0
  131.8739  134.1143  159.4140 H   0  0  0  0  0  0  0  0  0  0  0  0
  128.5727  134.0553  158.1517 H   0  0  0  0  0  0  0  0  0  0  0  0
  131.4507  133.7694  157.6335 H   0  0  0  0  0  0  0  0  0  0  0  0
  128.8851  133.2011  156.1154 H   0  0  0  0  0  0  0  0  0  0  0  0
  130.4241  133.8878  155.5107 H   0  0  0  0  0  0  0  0  0  0  0  0
  130.4695  131.4056  154.7111 H   0  0  0  0  0  0  0  0  0  0  0  0
  131.1052  130.0099  156.7195 H   0  0  0  0  0  0  0  0  0  0  0  0
  131.4357  131.6671  158.7063 H   0  0  0  0  0  0  0  0  0  0  0  0
  129.6595  131.5031  158.5614 H   0  0  0  0  0  0  0  0  0  0  0  0
  127.2296  134.9105  159.3258 H   0  0  0  0  0  0  0  0  0  0  0  0
  128.2265  132.7946  160.3057 H   0  0  0  0  0  0  0  0  0  0  0  0
  127.8476  133.4323  161.9265 H   0  0  0  0  0  0  0  0  0  0  0  0
  125.8982  132.7844  159.6752 H   0  0  0  0  0  0  0  0  0  0  0  0
  125.9913  132.0259  161.2811 H   0  0  0  0  0  0  0  0  0  0  0  0
  124.8295  135.8699  161.8034 H   0  0  0  0  0  0  0  0  0  0  0  0
  127.3671  135.8930  162.2063 H   0  0  0  0  0  0  0  0  0  0  0  0
  126.7706  136.7853  160.7911 H   0  0  0  0  0  0  0  0  0  0  0  0
  133.7308  136.3933  159.4120 H   0  0  0  0  0  0  0  0  0  0  0  0
  131.1499  140.6468  160.3741 H   0  0  0  0  0  0  0  0  0  0  0  0
  131.5117  140.3904  162.0980 H   0  0  0  0  0  0  0  0  0  0  0  0
  132.8115  140.8592  160.9758 H   0  0  0  0  0  0  0  0  0  0  0  0
  130.7111  137.8637  162.0649 H   0  0  0  0  0  0  0  0  0  0  0  0
  1  2  1  0
  1 27  1  0
  1 28  1  0
  1 29  1  0
  2  3  1  1
  2  4  1  0
  2 21  1  0
  4 30  1  0
  5  4  1  0
  5  6  1  0
  5 12  2  0
  6  7  1  0
  6 31  1  0
  7 11  1  0
  7  8  1  0
  7 32  1  0
  8  9  1  0
  8 33  1  0
  8 34  1  0
  9 10  2  0
  9 35  1  0
 10 11  1  0
 10 36  1  0
 11 37  1  0
 11 38  1  0
 12 13  1  0
 12 14  1  0
 14 20  1  0
 14 15  1  0
 14 39  1  6
 15 16  1  0
 15 40  1  0
 15 41  1  0
 16 17  1  0
 16 42  1  0
 16 43  1  0
 17 18  2  0
 17 19  1  0
 19 20  1  0
 19 44  1  0
 20 45  1  0
 20 46  1  0
 21 26  2  0
 21 22  1  0
 22 23  2  0
 22 47  1  0
 23 24  1  0
 24 25  1  0
 24 26  1  0
 25 48  1  0
 25 49  1  0
 25 50  1  0
 26 51  1  0
M  CHG  1  12   1
M  END
>  <DOCK_score>  (1) 
-43.982422

>  <SMILES>  (1) 
C[C@H](NC(NC1CC=CC1)=[NH+]C1CCC(=O)NC1)c1cnn(C)c1

$$$$
