Fc1ccc(C2CN(c3ccc(-c4n[nH]cc4C[NH2+]CC4=CCCCC4)o3)C2)c(F)c1
     RDKit          3D

 58 62  0  0  1  0  0  0  0  0999 V2000
  136.5261  142.2545  165.6738 F   0  0  0  0  0  0  0  0  0  0  0  0
  136.2955  141.4567  164.6080 C   0  0  0  0  0  0  0  0  0  0  0  0
  135.8388  140.1630  164.7972 C   0  0  0  0  0  0  0  0  0  0  0  0
  135.6084  139.3449  163.7075 C   0  0  0  0  0  0  0  0  0  0  0  0
  135.8226  139.8203  162.4274 C   0  0  0  0  0  0  0  0  0  0  0  0
  135.5655  138.9288  161.2400 C   0  0  0  0  0  0  0  0  0  0  0  0
  134.6258  139.5499  160.1908 C   0  0  0  0  0  0  0  0  0  0  0  0
  133.9990  138.2123  160.1050 N   0  0  0  0  0  0  0  0  0  0  0  0
  132.6136  138.3138  160.0521 C   0  0  0  0  0  0  0  0  0  0  0  0
  131.9147  139.3461  159.5177 C   0  0  0  0  0  0  0  0  0  0  0  0
  130.5479  139.0416  159.6738 C   0  0  0  0  0  0  0  0  0  0  0  0
  130.4820  137.8357  160.2972 C   0  0  0  0  0  0  0  0  0  0  0  0
  129.2439  137.1187  160.6661 C   0  0  0  0  0  0  0  0  0  0  0  0
  128.0875  137.6733  160.9721 N   0  0  0  0  0  0  0  0  0  0  0  0
  127.1767  136.6487  161.2593 N   0  0  0  0  0  0  0  0  0  0  0  0
  126.2485  136.7678  161.5149 H   0  0  0  0  0  0  0  0  0  0  0  0
  127.8140  135.4662  161.1184 C   0  0  0  0  0  0  0  0  0  0  0  0
  129.0875  135.7190  160.7478 C   0  0  0  0  0  0  0  0  0  0  0  0
  130.1533  134.6893  160.4742 C   0  0  0  0  0  0  0  0  0  0  0  0
  130.8726  135.0442  159.2435 N   0  0  0  0  0  0  0  0  0  0  0  0
  130.2242  135.0707  158.4707 H   0  0  0  0  0  0  0  0  0  0  0  0
  131.3013  135.9509  159.3540 H   0  0  0  0  0  0  0  0  0  0  0  0
  131.9115  134.0405  158.9767 C   0  0  0  0  0  0  0  0  0  0  0  0
  131.2711  132.6863  158.8115 C   0  0  0  0  0  0  0  0  0  0  0  0
  131.6206  131.7458  159.6294 C   0  0  0  0  0  0  0  0  0  0  0  0
  131.0752  130.3484  159.5863 C   0  0  0  0  0  0  0  0  0  0  0  0
  129.7932  130.3071  158.7517 C   0  0  0  0  0  0  0  0  0  0  0  0
  130.0577  131.0224  157.4208 C   0  0  0  0  0  0  0  0  0  0  0  0
  130.2724  132.5105  157.7054 C   0  0  0  0  0  0  0  0  0  0  0  0
  131.7415  137.4029  160.5164 O   0  0  0  0  0  0  0  0  0  0  0  0
  134.4550  137.8889  161.4748 C   0  0  0  0  0  0  0  0  0  0  0  0
  136.2739  141.1150  162.2357 C   0  0  0  0  0  0  0  0  0  0  0  0
  136.4828  141.5797  160.9844 F   0  0  0  0  0  0  0  0  0  0  0  0
  136.5105  141.9338  163.3268 C   0  0  0  0  0  0  0  0  0  0  0  0
  135.6664  139.7920  165.7967 H   0  0  0  0  0  0  0  0  0  0  0  0
  135.2564  138.3347  163.8561 H   0  0  0  0  0  0  0  0  0  0  0  0
  136.4787  138.5079  160.8191 H   0  0  0  0  0  0  0  0  0  0  0  0
  133.9662  140.3189  160.5925 H   0  0  0  0  0  0  0  0  0  0  0  0
  135.1315  139.8575  159.2755 H   0  0  0  0  0  0  0  0  0  0  0  0
  132.3273  140.2330  159.0599 H   0  0  0  0  0  0  0  0  0  0  0  0
  129.7130  139.6495  159.3581 H   0  0  0  0  0  0  0  0  0  0  0  0
  127.3796  134.4891  161.2709 H   0  0  0  0  0  0  0  0  0  0  0  0
  130.8537  134.6608  161.3089 H   0  0  0  0  0  0  0  0  0  0  0  0
  129.6902  133.7098  160.3548 H   0  0  0  0  0  0  0  0  0  0  0  0
  132.4452  134.3039  158.0635 H   0  0  0  0  0  0  0  0  0  0  0  0
  132.6119  134.0118  159.8114 H   0  0  0  0  0  0  0  0  0  0  0  0
  132.3472  131.9824  160.3925 H   0  0  0  0  0  0  0  0  0  0  0  0
  130.8574  130.0118  160.5999 H   0  0  0  0  0  0  0  0  0  0  0  0
  131.8183  129.6876  159.1402 H   0  0  0  0  0  0  0  0  0  0  0  0
  128.9908  130.8144  159.2872 H   0  0  0  0  0  0  0  0  0  0  0  0
  129.5095  129.2720  158.5613 H   0  0  0  0  0  0  0  0  0  0  0  0
  129.2001  130.8957  156.7600 H   0  0  0  0  0  0  0  0  0  0  0  0
  130.9496  130.6065  156.9521 H   0  0  0  0  0  0  0  0  0  0  0  0
  129.3250  132.9625  157.9988 H   0  0  0  0  0  0  0  0  0  0  0  0
  130.6420  132.9990  156.8037 H   0  0  0  0  0  0  0  0  0  0  0  0
  134.8243  136.8694  161.5856 H   0  0  0  0  0  0  0  0  0  0  0  0
  133.7454  138.1723  162.2522 H   0  0  0  0  0  0  0  0  0  0  0  0
  136.8628  142.9438  163.1783 H   0  0  0  0  0  0  0  0  0  0  0  0
  1  2  1  0
  2 34  2  0
  2  3  1  0
  3  4  2  0
  3 35  1  0
  4  5  1  0
  4 36  1  0
  5  6  1  0
  5 32  2  0
  6 31  1  0
  6  7  1  0
  6 37  1  0
  7  8  1  0
  7 38  1  0
  7 39  1  0
  8  9  1  0
  8 31  1  0
  9 30  1  0
  9 10  2  0
 10 11  1  0
 10 40  1  0
 11 12  2  0
 11 41  1  0
 12 13  1  0
 12 30  1  0
 13 18  1  0
 13 14  2  0
 14 15  1  0
 15 16  1  0
 15 17  1  0
 17 18  2  0
 17 42  1  0
 18 19  1  0
 19 20  1  0
 19 43  1  0
 19 44  1  0
 20 21  1  0
 20 22  1  0
 20 23  1  0
 23 24  1  0
 23 45  1  0
 23 46  1  0
 24 29  1  0
 24 25  2  0
 25 26  1  0
 25 47  1  0
 26 27  1  0
 26 48  1  0
 26 49  1  0
 27 28  1  0
 27 50  1  0
 27 51  1  0
 28 29  1  0
 28 52  1  0
 28 53  1  0
 29 54  1  0
 29 55  1  0
 31 56  1  0
 31 57  1  0
 32 33  1  0
 32 34  1  0
 34 58  1  0
M  CHG  1  20   1
M  END
>  <DOCK_score>  (1) 
-48.277985

>  <SMILES>  (1) 
Fc1ccc(C2CN(c3ccc(-c4n[nH]cc4C[NH2+]CC4=CCCCC4)o3)C2)c(F)c1

$$$$
