Cc1cccc(N2CC[NH+](C(c3ccccc3)c3ccccc3)CC2)c1COC(=O)CC1CC=CC1
     RDKit          3D

 73 77  0  0  1  0  0  0  0  0999 V2000
  135.9231  141.0616  162.5822 C   0  0  0  0  0  0  0  0  0  0  0  0
  135.3002  140.3356  161.4179 C   0  0  0  0  0  0  0  0  0  0  0  0
  135.7014  140.6279  160.1270 C   0  0  0  0  0  0  0  0  0  0  0  0
  135.1325  139.9641  159.0558 C   0  0  0  0  0  0  0  0  0  0  0  0
  134.1616  139.0057  159.2719 C   0  0  0  0  0  0  0  0  0  0  0  0
  133.7529  138.7132  160.5667 C   0  0  0  0  0  0  0  0  0  0  0  0
  132.7676  137.7482  160.7886 N   0  0  0  0  0  0  0  0  0  0  0  0
  133.2222  136.4209  160.3510 C   0  0  0  0  0  0  0  0  0  0  0  0
  132.1403  135.3853  160.6652 C   0  0  0  0  0  0  0  0  0  0  0  0
  130.8977  135.7493  159.9717 N   0  0  0  0  0  0  0  0  0  0  0  0
  131.0654  135.7837  158.9773 H   0  0  0  0  0  0  0  0  0  0  0  0
  129.8647  134.7453  160.2590 C   0  0  0  0  0  0  0  0  0  0  0  0
  128.5897  135.1185  159.5477 C   0  0  0  0  0  0  0  0  0  0  0  0
  127.3679  134.7581  160.0844 C   0  0  0  0  0  0  0  0  0  0  0  0
  126.1982  135.1048  159.4343 C   0  0  0  0  0  0  0  0  0  0  0  0
  126.2502  135.8026  158.2430 C   0  0  0  0  0  0  0  0  0  0  0  0
  127.4727  136.1585  157.7028 C   0  0  0  0  0  0  0  0  0  0  0  0
  128.6423  135.8164  158.3555 C   0  0  0  0  0  0  0  0  0  0  0  0
  130.3302  133.3944  159.7800 C   0  0  0  0  0  0  0  0  0  0  0  0
  129.9109  132.2484  160.4295 C   0  0  0  0  0  0  0  0  0  0  0  0
  130.3339  131.0091  159.9872 C   0  0  0  0  0  0  0  0  0  0  0  0
  131.1847  130.9161  158.9015 C   0  0  0  0  0  0  0  0  0  0  0  0
  131.6081  132.0623  158.2552 C   0  0  0  0  0  0  0  0  0  0  0  0
  131.1810  133.3013  158.6944 C   0  0  0  0  0  0  0  0  0  0  0  0
  130.4430  137.0662  160.4371 C   0  0  0  0  0  0  0  0  0  0  0  0
  131.5108  138.1159  160.1210 C   0  0  0  0  0  0  0  0  0  0  0  0
  134.3297  139.3790  161.6410 C   0  0  0  0  0  0  0  0  0  0  0  0
  133.8932  139.0611  163.0479 C   0  0  0  0  0  0  0  0  0  0  0  0
  134.7218  137.9955  163.5828 O   0  0  0  0  0  0  0  0  0  0  0  0
  134.0979  136.8671  163.9558 C   0  0  0  0  0  0  0  0  0  0  0  0
  132.8989  136.7729  163.8392 O   0  0  0  0  0  0  0  0  0  0  0  0
  134.8927  135.7177  164.5199 C   0  0  0  0  0  0  0  0  0  0  0  0
  136.3751  136.0939  164.5598 C   0  0  0  0  0  0  0  0  0  0  0  0
  137.2549  134.8546  164.8448 C   0  0  0  0  0  0  0  0  0  0  0  0
  138.3626  135.3666  165.7359 C   0  0  0  0  0  0  0  0  0  0  0  0
  138.0544  136.5262  166.2496 C   0  0  0  0  0  0  0  0  0  0  0  0
  136.6900  136.9811  165.7867 C   0  0  0  0  0  0  0  0  0  0  0  0
  135.3462  141.9603  162.8009 H   0  0  0  0  0  0  0  0  0  0  0  0
  135.9268  140.4106  163.4565 H   0  0  0  0  0  0  0  0  0  0  0  0
  136.9469  141.3392  162.3317 H   0  0  0  0  0  0  0  0  0  0  0  0
  136.4606  141.3766  159.9552 H   0  0  0  0  0  0  0  0  0  0  0  0
  135.4477  140.1951  158.0491 H   0  0  0  0  0  0  0  0  0  0  0  0
  133.7175  138.4876  158.4349 H   0  0  0  0  0  0  0  0  0  0  0  0
  133.4101  136.4364  159.2774 H   0  0  0  0  0  0  0  0  0  0  0  0
  134.1401  136.1591  160.8773 H   0  0  0  0  0  0  0  0  0  0  0  0
  131.9625  135.3604  161.7403 H   0  0  0  0  0  0  0  0  0  0  0  0
  132.4696  134.4023  160.3285 H   0  0  0  0  0  0  0  0  0  0  0  0
  129.6838  134.7073  161.3333 H   0  0  0  0  0  0  0  0  0  0  0  0
  127.3270  134.2090  161.0135 H   0  0  0  0  0  0  0  0  0  0  0  0
  125.2434  134.8264  159.8555 H   0  0  0  0  0  0  0  0  0  0  0  0
  125.3369  136.0695  157.7321 H   0  0  0  0  0  0  0  0  0  0  0  0
  127.5137  136.7034  156.7713 H   0  0  0  0  0  0  0  0  0  0  0  0
  129.5969  136.0941  157.9341 H   0  0  0  0  0  0  0  0  0  0  0  0
  129.2497  132.3214  161.2805 H   0  0  0  0  0  0  0  0  0  0  0  0
  130.0032  130.1135  160.4923 H   0  0  0  0  0  0  0  0  0  0  0  0
  131.5187  129.9480  158.5587 H   0  0  0  0  0  0  0  0  0  0  0  0
  132.2731  131.9897  157.4073 H   0  0  0  0  0  0  0  0  0  0  0  0
  131.5121  134.1968  158.1895 H   0  0  0  0  0  0  0  0  0  0  0  0
  130.2739  137.0327  161.5134 H   0  0  0  0  0  0  0  0  0  0  0  0
  129.5140  137.3294  159.9314 H   0  0  0  0  0  0  0  0  0  0  0  0
  131.1801  139.0905  160.4796 H   0  0  0  0  0  0  0  0  0  0  0  0
  131.6705  138.1592  159.0437 H   0  0  0  0  0  0  0  0  0  0  0  0
  133.9976  139.9499  163.6704 H   0  0  0  0  0  0  0  0  0  0  0  0
  132.8508  138.7425  163.0416 H   0  0  0  0  0  0  0  0  0  0  0  0
  134.5464  135.4976  165.5298 H   0  0  0  0  0  0  0  0  0  0  0  0
  134.7577  134.8387  163.8898 H   0  0  0  0  0  0  0  0  0  0  0  0
  136.6771  136.5844  163.6345 H   0  0  0  0  0  0  0  0  0  0  0  0
  136.6761  134.0884  165.3607 H   0  0  0  0  0  0  0  0  0  0  0  0
  137.6667  134.4595  163.9161 H   0  0  0  0  0  0  0  0  0  0  0  0
  139.2879  134.8419  165.9230 H   0  0  0  0  0  0  0  0  0  0  0  0
  138.6914  137.0872  166.9175 H   0  0  0  0  0  0  0  0  0  0  0  0
  136.7176  138.0319  165.4983 H   0  0  0  0  0  0  0  0  0  0  0  0
  135.9501  136.8209  166.5709 H   0  0  0  0  0  0  0  0  0  0  0  0
  1  2  1  0
  1 38  1  0
  1 39  1  0
  1 40  1  0
  2 27  2  0
  2  3  1  0
  3  4  2  0
  3 41  1  0
  4  5  1  0
  4 42  1  0
  5  6  2  0
  5 43  1  0
  6  7  1  0
  6 27  1  0
  7 26  1  0
  7  8  1  0
  8  9  1  0
  8 44  1  0
  8 45  1  0
  9 10  1  0
  9 46  1  0
  9 47  1  0
 10 11  1  0
 10 12  1  0
 10 25  1  0
 12 13  1  0
 12 19  1  0
 12 48  1  0
 13 18  1  0
 13 14  2  0
 14 15  1  0
 14 49  1  0
 15 16  2  0
 15 50  1  0
 16 17  1  0
 16 51  1  0
 17 18  2  0
 17 52  1  0
 18 53  1  0
 19 24  1  0
 19 20  2  0
 20 21  1  0
 20 54  1  0
 21 22  2  0
 21 55  1  0
 22 23  1  0
 22 56  1  0
 23 24  2  0
 23 57  1  0
 24 58  1  0
 25 26  1  0
 25 59  1  0
 25 60  1  0
 26 61  1  0
 26 62  1  0
 27 28  1  0
 28 29  1  0
 28 63  1  0
 28 64  1  0
 29 30  1  0
 30 31  2  0
 30 32  1  0
 32 33  1  0
 32 65  1  0
 32 66  1  0
 33 37  1  0
 33 34  1  0
 33 67  1  0
 34 35  1  0
 34 68  1  0
 34 69  1  0
 35 36  2  0
 35 70  1  0
 36 37  1  0
 36 71  1  0
 37 72  1  0
 37 73  1  0
M  CHG  1  10   1
M  END
>  <DOCK_score>  (1) 
-57.872528

>  <SMILES>  (1) 
Cc1cccc(N2CC[NH+](C(c3ccccc3)c3ccccc3)CC2)c1COC(=O)CC1CC=CC1

$$$$
