Nc1ccc(Sc2ccccc2)c(Nc2[nH]cc(-c3ccc(-c4ccccc4)cc3)[nH+]2)c1
     RDKit          3D

 55 59  0  0  1  0  0  0  0  0999 V2000
  128.8717  136.9516  164.0199 N   0  0  0  0  0  0  0  0  0  0  0  0
  130.0665  136.4560  163.4853 C   0  0  0  0  0  0  0  0  0  0  0  0
  131.1157  136.1157  164.3293 C   0  0  0  0  0  0  0  0  0  0  0  0
  132.2970  135.6264  163.8050 C   0  0  0  0  0  0  0  0  0  0  0  0
  132.4357  135.4678  162.4340 C   0  0  0  0  0  0  0  0  0  0  0  0
  133.9392  134.8359  161.7670 S   0  0  0  0  0  0  0  0  0  0  0  0
  135.1361  136.0126  162.3032 C   0  0  0  0  0  0  0  0  0  0  0  0
  135.0233  137.3444  161.9215 C   0  0  0  0  0  0  0  0  0  0  0  0
  135.9604  138.2646  162.3476 C   0  0  0  0  0  0  0  0  0  0  0  0
  137.0162  137.8606  163.1444 C   0  0  0  0  0  0  0  0  0  0  0  0
  137.1347  136.5353  163.5220 C   0  0  0  0  0  0  0  0  0  0  0  0
  136.1984  135.6104  163.1041 C   0  0  0  0  0  0  0  0  0  0  0  0
  131.3855  135.8137  161.5834 C   0  0  0  0  0  0  0  0  0  0  0  0
  131.5248  135.6601  160.1987 N   0  0  0  0  0  0  0  0  0  0  0  0
  131.1611  134.4684  159.5943 C   0  0  0  0  0  0  0  0  0  0  0  0
  130.6641  133.3742  160.2337 N   0  0  0  0  0  0  0  0  0  0  0  0
  130.5023  133.2897  161.1864 H   0  0  0  0  0  0  0  0  0  0  0  0
  130.4344  132.4119  159.2815 C   0  0  0  0  0  0  0  0  0  0  0  0
  130.7972  132.9450  158.0875 C   0  0  0  0  0  0  0  0  0  0  0  0
  130.7238  132.2673  156.7711 C   0  0  0  0  0  0  0  0  0  0  0  0
  129.9393  132.8068  155.7516 C   0  0  0  0  0  0  0  0  0  0  0  0
  129.8714  132.1775  154.5285 C   0  0  0  0  0  0  0  0  0  0  0  0
  130.5877  131.0004  154.3093 C   0  0  0  0  0  0  0  0  0  0  0  0
  130.5147  130.3225  152.9922 C   0  0  0  0  0  0  0  0  0  0  0  0
  130.6629  128.9399  152.9075 C   0  0  0  0  0  0  0  0  0  0  0  0
  130.5896  128.3142  151.6797 C   0  0  0  0  0  0  0  0  0  0  0  0
  130.3793  129.0576  150.5331 C   0  0  0  0  0  0  0  0  0  0  0  0
  130.2361  130.4322  150.6097 C   0  0  0  0  0  0  0  0  0  0  0  0
  130.3026  131.0681  151.8328 C   0  0  0  0  0  0  0  0  0  0  0  0
  131.3677  130.4585  155.3297 C   0  0  0  0  0  0  0  0  0  0  0  0
  131.4396  131.0903  156.5515 C   0  0  0  0  0  0  0  0  0  0  0  0
  131.2446  134.2058  158.3127 N   0  0  0  0  0  0  0  0  0  0  0  0
  131.5713  134.8163  157.6334 H   0  0  0  0  0  0  0  0  0  0  0  0
  130.2017  136.3047  162.1119 C   0  0  0  0  0  0  0  0  0  0  0  0
  128.1385  137.1892  163.4307 H   0  0  0  0  0  0  0  0  0  0  0  0
  128.7767  137.0576  164.9794 H   0  0  0  0  0  0  0  0  0  0  0  0
  131.0082  136.2340  165.3975 H   0  0  0  0  0  0  0  0  0  0  0  0
  133.1113  135.3629  164.4637 H   0  0  0  0  0  0  0  0  0  0  0  0
  134.2015  137.6597  161.2958 H   0  0  0  0  0  0  0  0  0  0  0  0
  135.8710  139.3003  162.0549 H   0  0  0  0  0  0  0  0  0  0  0  0
  137.7502  138.5817  163.4725 H   0  0  0  0  0  0  0  0  0  0  0  0
  137.9601  136.2235  164.1446 H   0  0  0  0  0  0  0  0  0  0  0  0
  136.2916  134.5756  163.3991 H   0  0  0  0  0  0  0  0  0  0  0  0
  131.8761  136.3884  159.6628 H   0  0  0  0  0  0  0  0  0  0  0  0
  130.0404  131.4207  159.4504 H   0  0  0  0  0  0  0  0  0  0  0  0
  129.3848  133.7179  155.9217 H   0  0  0  0  0  0  0  0  0  0  0  0
  129.2640  132.5951  153.7392 H   0  0  0  0  0  0  0  0  0  0  0  0
  130.8312  128.3584  153.8019 H   0  0  0  0  0  0  0  0  0  0  0  0
  130.7009  127.2420  151.6136 H   0  0  0  0  0  0  0  0  0  0  0  0
  130.3265  128.5643  149.5739 H   0  0  0  0  0  0  0  0  0  0  0  0
  130.0724  131.0083  149.7110 H   0  0  0  0  0  0  0  0  0  0  0  0
  130.1913  132.1407  151.8916 H   0  0  0  0  0  0  0  0  0  0  0  0
  131.9189  129.5452  155.1608 H   0  0  0  0  0  0  0  0  0  0  0  0
  132.0470  130.6726  157.3407 H   0  0  0  0  0  0  0  0  0  0  0  0
  129.3856  136.5696  161.4561 H   0  0  0  0  0  0  0  0  0  0  0  0
  1  2  1  0
  1 35  1  0
  1 36  1  0
  2 34  2  0
  2  3  1  0
  3  4  2  0
  3 37  1  0
  4  5  1  0
  4 38  1  0
  5  6  1  0
  5 13  2  0
  6  7  1  0
  7 12  1  0
  7  8  2  0
  8  9  1  0
  8 39  1  0
  9 10  2  0
  9 40  1  0
 10 11  1  0
 10 41  1  0
 11 12  2  0
 11 42  1  0
 12 43  1  0
 13 14  1  0
 13 34  1  0
 14 44  1  0
 15 14  1  0
 15 32  2  0
 15 16  1  0
 16 17  1  0
 16 18  1  0
 18 19  2  0
 18 45  1  0
 19 20  1  0
 19 32  1  0
 20 31  1  0
 20 21  2  0
 21 22  1  0
 21 46  1  0
 22 23  2  0
 22 47  1  0
 23 24  1  0
 23 30  1  0
 24 29  1  0
 24 25  2  0
 25 26  1  0
 25 48  1  0
 26 27  2  0
 26 49  1  0
 27 28  1  0
 27 50  1  0
 28 29  2  0
 28 51  1  0
 29 52  1  0
 30 31  2  0
 30 53  1  0
 31 54  1  0
 32 33  1  0
 34 55  1  0
M  CHG  1  32   1
M  END
>  <DOCK_score>  (1) 
-63.425602

>  <SMILES>  (1) 
Nc1ccc(Sc2ccccc2)c(Nc2[nH]cc(-c3ccc(-c4ccccc4)cc3)[nH+]2)c1

$$$$
