Nc1ccc(-c2c[nH]c(N[C@@H](CC3CC3)c3ccc(F)cc3)[nH+]2)cc1
     RDKit          3D

 47 50  0  0  1  0  0  0  0  0999 V2000
  131.7899  129.5531  152.0140 N   0  0  0  0  0  0  0  0  0  0  0  0
  131.4162  130.2243  153.1807 C   0  0  0  0  0  0  0  0  0  0  0  0
  130.6406  131.3746  153.1012 C   0  0  0  0  0  0  0  0  0  0  0  0
  130.2704  132.0388  154.2515 C   0  0  0  0  0  0  0  0  0  0  0  0
  130.6747  131.5555  155.4949 C   0  0  0  0  0  0  0  0  0  0  0  0
  130.2776  132.2682  156.7340 C   0  0  0  0  0  0  0  0  0  0  0  0
  129.5473  131.7510  157.7526 C   0  0  0  0  0  0  0  0  0  0  0  0
  129.4082  132.7476  158.6895 N   0  0  0  0  0  0  0  0  0  0  0  0
  128.9319  132.6819  159.5320 H   0  0  0  0  0  0  0  0  0  0  0  0
  130.0626  133.8430  158.2167 C   0  0  0  0  0  0  0  0  0  0  0  0
  130.1623  135.0636  158.8622 N   0  0  0  0  0  0  0  0  0  0  0  0
  129.0899  135.5100  159.7548 C   0  0  1  0  0  0  0  0  0  0  0  0
  128.9700  134.7921  160.5662 H   0  0  0  0  0  0  0  0  0  0  0  0
  129.4462  136.8804  160.3346 C   0  0  0  0  0  0  0  0  0  0  0  0
  130.4284  136.7036  161.4945 C   0  0  0  0  0  0  0  0  0  0  0  0
  129.8419  136.5426  162.8984 C   0  0  0  0  0  0  0  0  0  0  0  0
  130.5401  137.8460  162.5059 C   0  0  0  0  0  0  0  0  0  0  0  0
  127.8015  135.6122  158.9799 C   0  0  0  0  0  0  0  0  0  0  0  0
  126.5937  135.3939  159.6161 C   0  0  0  0  0  0  0  0  0  0  0  0
  125.4111  135.4927  158.9078 C   0  0  0  0  0  0  0  0  0  0  0  0
  125.4370  135.7999  157.5580 C   0  0  0  0  0  0  0  0  0  0  0  0
  124.2819  135.8913  156.8633 F   0  0  0  0  0  0  0  0  0  0  0  0
  126.6475  136.0127  156.9205 C   0  0  0  0  0  0  0  0  0  0  0  0
  127.8285  135.9184  157.6320 C   0  0  0  0  0  0  0  0  0  0  0  0
  130.5833  133.5516  157.0495 N   0  0  0  0  0  0  0  0  0  0  0  0
  131.1010  134.1584  156.4976 H   0  0  0  0  0  0  0  0  0  0  0  0
  131.4576  130.4046  155.5721 C   0  0  0  0  0  0  0  0  0  0  0  0
  131.8203  129.7403  154.4195 C   0  0  0  0  0  0  0  0  0  0  0  0
  131.5086  129.8899  151.1493 H   0  0  0  0  0  0  0  0  0  0  0  0
  132.3318  128.7501  152.0689 H   0  0  0  0  0  0  0  0  0  0  0  0
  130.3277  131.7488  152.1375 H   0  0  0  0  0  0  0  0  0  0  0  0
  129.6671  132.9325  154.1892 H   0  0  0  0  0  0  0  0  0  0  0  0
  129.1476  130.7496  157.8142 H   0  0  0  0  0  0  0  0  0  0  0  0
  130.9424  135.6233  158.7234 H   0  0  0  0  0  0  0  0  0  0  0  0
  129.9056  137.4943  159.5600 H   0  0  0  0  0  0  0  0  0  0  0  0
  128.5412  137.3684  160.6961 H   0  0  0  0  0  0  0  0  0  0  0  0
  131.3362  136.1474  161.2612 H   0  0  0  0  0  0  0  0  0  0  0  0
  128.7565  136.5625  162.9958 H   0  0  0  0  0  0  0  0  0  0  0  0
  130.3640  135.8802  163.5890 H   0  0  0  0  0  0  0  0  0  0  0  0
  131.5215  138.0414  162.9382 H   0  0  0  0  0  0  0  0  0  0  0  0
  129.9140  138.7237  162.3451 H   0  0  0  0  0  0  0  0  0  0  0  0
  126.5740  135.1500  160.6681 H   0  0  0  0  0  0  0  0  0  0  0  0
  124.4674  135.3269  159.4061 H   0  0  0  0  0  0  0  0  0  0  0  0
  126.6688  136.2520  155.8676 H   0  0  0  0  0  0  0  0  0  0  0  0
  128.7729  136.0843  157.1350 H   0  0  0  0  0  0  0  0  0  0  0  0
  131.7761  130.0313  156.5341 H   0  0  0  0  0  0  0  0  0  0  0  0
  132.4229  128.8460  154.4791 H   0  0  0  0  0  0  0  0  0  0  0  0
  1  2  1  0
  1 29  1  0
  1 30  1  0
  2 28  2  0
  2  3  1  0
  3  4  2  0
  3 31  1  0
  4  5  1  0
  4 32  1  0
  5  6  1  0
  5 27  2  0
  6 25  1  0
  6  7  2  0
  7  8  1  0
  7 33  1  0
  8  9  1  0
  8 10  1  0
 10 11  1  0
 10 25  2  0
 11 12  1  0
 11 34  1  0
 12 13  1  1
 12 14  1  0
 12 18  1  0
 14 15  1  0
 14 35  1  0
 14 36  1  0
 15 17  1  0
 15 16  1  0
 15 37  1  0
 16 17  1  0
 16 38  1  0
 16 39  1  0
 17 40  1  0
 17 41  1  0
 18 24  1  0
 18 19  2  0
 19 20  1  0
 19 42  1  0
 20 21  2  0
 20 43  1  0
 21 22  1  0
 21 23  1  0
 23 24  2  0
 23 44  1  0
 24 45  1  0
 25 26  1  0
 27 28  1  0
 27 46  1  0
 28 47  1  0
M  CHG  1  25   1
M  END
>  <DOCK_score>  (1) 
-58.128845

>  <SMILES>  (1) 
Nc1ccc(-c2c[nH]c(N[C@@H](CC3CC3)c3ccc(F)cc3)[nH+]2)cc1

$$$$
