CCn1ncnc1CSC1=C[C@@H](Nc2[nH]cc(-c3ccc(N)cc3)[nH+]2)CC1
     RDKit          3D

 51 54  0  0  1  0  0  0  0  0999 V2000
  136.3057  139.5512  162.7504 C   0  0  0  0  0  0  0  0  0  0  0  0
  135.1957  140.4239  162.1611 C   0  0  0  0  0  0  0  0  0  0  0  0
  134.4931  139.6792  161.1134 N   0  0  0  0  0  0  0  0  0  0  0  0
  134.8090  139.6503  159.7453 N   0  0  0  0  0  0  0  0  0  0  0  0
  133.9331  138.8676  159.1719 C   0  0  0  0  0  0  0  0  0  0  0  0
  133.0891  138.4121  160.0967 N   0  0  0  0  0  0  0  0  0  0  0  0
  133.4175  138.8881  161.2703 C   0  0  0  0  0  0  0  0  0  0  0  0
  132.7095  138.6047  162.5701 C   0  0  0  0  0  0  0  0  0  0  0  0
  130.9168  138.7259  162.3211 S   0  0  0  0  0  0  0  0  0  0  0  0
  130.5124  137.1746  161.5900 C   0  0  0  0  0  0  0  0  0  0  0  0
  129.9628  137.0296  160.4021 C   0  0  0  0  0  0  0  0  0  0  0  0
  129.7533  135.5684  160.0794 C   0  0  1  0  0  0  0  0  0  0  0  0
  128.7060  135.2982  160.2152 H   0  0  0  0  0  0  0  0  0  0  0  0
  130.1802  135.2787  158.7082 N   0  0  0  0  0  0  0  0  0  0  0  0
  130.0736  133.9926  158.2071 C   0  0  0  0  0  0  0  0  0  0  0  0
  129.5968  132.9143  158.8865 N   0  0  0  0  0  0  0  0  0  0  0  0
  129.2732  132.9083  159.8008 H   0  0  0  0  0  0  0  0  0  0  0  0
  129.6551  131.8355  158.0361 C   0  0  0  0  0  0  0  0  0  0  0  0
  130.1740  132.2845  156.8666 C   0  0  0  0  0  0  0  0  0  0  0  0
  130.4267  131.4689  155.6534 C   0  0  0  0  0  0  0  0  0  0  0  0
  129.7892  131.7846  154.4547 C   0  0  0  0  0  0  0  0  0  0  0  0
  130.0286  131.0275  153.3274 C   0  0  0  0  0  0  0  0  0  0  0  0
  130.8975  129.9451  153.3876 C   0  0  0  0  0  0  0  0  0  0  0  0
  131.1349  129.1760  152.2458 N   0  0  0  0  0  0  0  0  0  0  0  0
  131.5307  129.6250  154.5833 C   0  0  0  0  0  0  0  0  0  0  0  0
  131.2977  130.3821  155.7120 C   0  0  0  0  0  0  0  0  0  0  0  0
  130.4207  133.6116  157.0019 N   0  0  0  0  0  0  0  0  0  0  0  0
  130.7947  134.1868  156.3162 H   0  0  0  0  0  0  0  0  0  0  0  0
  130.6408  134.8079  161.0915 C   0  0  0  0  0  0  0  0  0  0  0  0
  130.7435  135.8325  162.2447 C   0  0  0  0  0  0  0  0  0  0  0  0
  135.8697  138.6477  163.1769 H   0  0  0  0  0  0  0  0  0  0  0  0
  137.0096  139.2787  161.9641 H   0  0  0  0  0  0  0  0  0  0  0  0
  136.8284  140.1054  163.5300 H   0  0  0  0  0  0  0  0  0  0  0  0
  135.6317  141.3274  161.7346 H   0  0  0  0  0  0  0  0  0  0  0  0
  134.4918  140.6965  162.9475 H   0  0  0  0  0  0  0  0  0  0  0  0
  133.8966  138.6321  158.1184 H   0  0  0  0  0  0  0  0  0  0  0  0
  132.9621  137.6003  162.9099 H   0  0  0  0  0  0  0  0  0  0  0  0
  133.0222  139.3313  163.3201 H   0  0  0  0  0  0  0  0  0  0  0  0
  129.6996  137.8457  159.7453 H   0  0  0  0  0  0  0  0  0  0  0  0
  130.5374  135.9881  158.1515 H   0  0  0  0  0  0  0  0  0  0  0  0
  129.3501  130.8238  158.2583 H   0  0  0  0  0  0  0  0  0  0  0  0
  129.1109  132.6238  154.4081 H   0  0  0  0  0  0  0  0  0  0  0  0
  129.5372  131.2737  152.3976 H   0  0  0  0  0  0  0  0  0  0  0  0
  131.7411  128.4199  152.2874 H   0  0  0  0  0  0  0  0  0  0  0  0
  130.6935  129.3984  151.4112 H   0  0  0  0  0  0  0  0  0  0  0  0
  132.2054  128.7830  154.6282 H   0  0  0  0  0  0  0  0  0  0  0  0
  131.7899  130.1333  156.6407 H   0  0  0  0  0  0  0  0  0  0  0  0
  131.6226  134.5961  160.6683 H   0  0  0  0  0  0  0  0  0  0  0  0
  130.1550  133.8911  161.4256 H   0  0  0  0  0  0  0  0  0  0  0  0
  131.7346  135.7966  162.6969 H   0  0  0  0  0  0  0  0  0  0  0  0
  129.9762  135.6385  162.9941 H   0  0  0  0  0  0  0  0  0  0  0  0
  1  2  1  0
  1 31  1  0
  1 32  1  0
  1 33  1  0
  2  3  1  0
  2 34  1  0
  2 35  1  0
  3  7  1  0
  3  4  1  0
  4  5  2  0
  5  6  1  0
  5 36  1  0
  6  7  2  0
  7  8  1  0
  8  9  1  0
  8 37  1  0
  8 38  1  0
  9 10  1  0
 10 30  1  0
 10 11  2  0
 11 12  1  0
 11 39  1  0
 12 13  1  6
 12 14  1  0
 12 29  1  0
 14 40  1  0
 15 14  1  0
 15 27  2  0
 15 16  1  0
 16 17  1  0
 16 18  1  0
 18 19  2  0
 18 41  1  0
 19 20  1  0
 19 27  1  0
 20 26  1  0
 20 21  2  0
 21 22  1  0
 21 42  1  0
 22 23  2  0
 22 43  1  0
 23 24  1  0
 23 25  1  0
 24 44  1  0
 24 45  1  0
 25 26  2  0
 25 46  1  0
 26 47  1  0
 27 28  1  0
 29 30  1  0
 29 48  1  0
 29 49  1  0
 30 50  1  0
 30 51  1  0
M  CHG  1  27   1
M  END
>  <DOCK_score>  (1) 
-56.058784

>  <SMILES>  (1) 
CCn1ncnc1CSC1=C[C@@H](Nc2[nH]cc(-c3ccc(N)cc3)[nH+]2)CC1

$$$$
