CCC=CCc1c(Cl)cccc1N1CC[NH+](C(c2ccccc2)c2ccccc2)CC1
     RDKit          3D

 63 66  0  0  1  0  0  0  0  0999 V2000
  129.2021  140.3477  162.8242 C   0  0  0  0  0  0  0  0  0  0  0  0
  129.9074  139.9201  164.1129 C   0  0  0  0  0  0  0  0  0  0  0  0
  131.1306  139.1092  163.7706 C   0  0  0  0  0  0  0  0  0  0  0  0
  132.2839  139.7055  163.5963 C   0  0  0  0  0  0  0  0  0  0  0  0
  133.5073  138.8946  163.2541 C   0  0  0  0  0  0  0  0  0  0  0  0
  134.0558  139.3490  161.9259 C   0  0  0  0  0  0  0  0  0  0  0  0
  134.9957  140.3615  161.8752 C   0  0  0  0  0  0  0  0  0  0  0  0
  135.5450  141.1094  163.3424 Cl  0  0  0  0  0  0  0  0  0  0  0  0
  135.4995  140.7788  160.6557 C   0  0  0  0  0  0  0  0  0  0  0  0
  135.0640  140.1857  159.4850 C   0  0  0  0  0  0  0  0  0  0  0  0
  134.1248  139.1742  159.5292 C   0  0  0  0  0  0  0  0  0  0  0  0
  133.6171  138.7520  160.7516 C   0  0  0  0  0  0  0  0  0  0  0  0
  132.6668  137.7294  160.7990 N   0  0  0  0  0  0  0  0  0  0  0  0
  133.2266  136.4664  160.2979 C   0  0  0  0  0  0  0  0  0  0  0  0
  132.1756  135.3611  160.4220 C   0  0  0  0  0  0  0  0  0  0  0  0
  130.9834  135.7297  159.6471 N   0  0  0  0  0  0  0  0  0  0  0  0
  131.2380  135.8579  158.6792 H   0  0  0  0  0  0  0  0  0  0  0  0
  129.9818  134.6602  159.7518 C   0  0  0  0  0  0  0  0  0  0  0  0
  128.7587  135.0381  158.9569 C   0  0  0  0  0  0  0  0  0  0  0  0
  127.5135  134.5794  159.3445 C   0  0  0  0  0  0  0  0  0  0  0  0
  126.3908  134.9300  158.6181 C   0  0  0  0  0  0  0  0  0  0  0  0
  126.5146  135.7307  157.4981 C   0  0  0  0  0  0  0  0  0  0  0  0
  127.7602  136.1851  157.1076 C   0  0  0  0  0  0  0  0  0  0  0  0
  128.8822  135.8389  157.8369 C   0  0  0  0  0  0  0  0  0  0  0  0
  130.5576  133.3778  159.2085 C   0  0  0  0  0  0  0  0  0  0  0  0
  130.4065  133.0645  157.8707 C   0  0  0  0  0  0  0  0  0  0  0  0
  130.9388  131.8904  157.3715 C   0  0  0  0  0  0  0  0  0  0  0  0
  131.6131  131.0248  158.2122 C   0  0  0  0  0  0  0  0  0  0  0  0
  131.7595  131.3356  159.5512 C   0  0  0  0  0  0  0  0  0  0  0  0
  131.2318  132.5121  160.0493 C   0  0  0  0  0  0  0  0  0  0  0  0
  130.4216  136.9798  160.1749 C   0  0  0  0  0  0  0  0  0  0  0  0
  131.4580  138.0986  160.0488 C   0  0  0  0  0  0  0  0  0  0  0  0
  129.8810  140.9509  162.2214 H   0  0  0  0  0  0  0  0  0  0  0  0
  128.9055  139.4626  162.2613 H   0  0  0  0  0  0  0  0  0  0  0  0
  128.3172  140.9342  163.0717 H   0  0  0  0  0  0  0  0  0  0  0  0
  129.2285  139.3168  164.7155 H   0  0  0  0  0  0  0  0  0  0  0  0
  130.2039  140.8052  164.6756 H   0  0  0  0  0  0  0  0  0  0  0  0
  131.0565  138.0366  163.6691 H   0  0  0  0  0  0  0  0  0  0  0  0
  132.3581  140.7781  163.6978 H   0  0  0  0  0  0  0  0  0  0  0  0
  133.2391  137.8398  163.1946 H   0  0  0  0  0  0  0  0  0  0  0  0
  134.2635  139.0343  164.0265 H   0  0  0  0  0  0  0  0  0  0  0  0
  136.2341  141.5697  160.6183 H   0  0  0  0  0  0  0  0  0  0  0  0
  135.4590  140.5137  158.5349 H   0  0  0  0  0  0  0  0  0  0  0  0
  133.7822  138.7146  158.6138 H   0  0  0  0  0  0  0  0  0  0  0  0
  133.5094  136.5836  159.2517 H   0  0  0  0  0  0  0  0  0  0  0  0
  134.1057  136.1999  160.8849 H   0  0  0  0  0  0  0  0  0  0  0  0
  131.9032  135.2349  161.4698 H   0  0  0  0  0  0  0  0  0  0  0  0
  132.5842  134.4264  160.0377 H   0  0  0  0  0  0  0  0  0  0  0  0
  129.7071  134.5210  160.7974 H   0  0  0  0  0  0  0  0  0  0  0  0
  127.4174  133.9500  160.2169 H   0  0  0  0  0  0  0  0  0  0  0  0
  125.4175  134.5746  158.9232 H   0  0  0  0  0  0  0  0  0  0  0  0
  125.6379  136.0010  156.9281 H   0  0  0  0  0  0  0  0  0  0  0  0
  127.8569  136.8104  156.2324 H   0  0  0  0  0  0  0  0  0  0  0  0
  129.8555  136.1936  157.5315 H   0  0  0  0  0  0  0  0  0  0  0  0
  129.8759  133.7387  157.2148 H   0  0  0  0  0  0  0  0  0  0  0  0
  130.8239  131.6473  156.3254 H   0  0  0  0  0  0  0  0  0  0  0  0
  132.0249  130.1054  157.8231 H   0  0  0  0  0  0  0  0  0  0  0  0
  132.2860  130.6591  160.2082 H   0  0  0  0  0  0  0  0  0  0  0  0
  131.3460  132.7548  161.0955 H   0  0  0  0  0  0  0  0  0  0  0  0
  130.1581  136.8454  161.2241 H   0  0  0  0  0  0  0  0  0  0  0  0
  129.5294  137.2453  159.6076 H   0  0  0  0  0  0  0  0  0  0  0  0
  131.0464  139.0230  160.4541 H   0  0  0  0  0  0  0  0  0  0  0  0
  131.7116  138.2426  158.9985 H   0  0  0  0  0  0  0  0  0  0  0  0
  1  2  1  0
  1 33  1  0
  1 34  1  0
  1 35  1  0
  2  3  1  0
  2 36  1  0
  2 37  1  0
  3  4  2  0
  3 38  1  0
  4  5  1  0
  4 39  1  0
  5  6  1  0
  5 40  1  0
  5 41  1  0
  6 12  2  0
  6  7  1  0
  7  8  1  0
  7  9  2  0
  9 10  1  0
  9 42  1  0
 10 11  2  0
 10 43  1  0
 11 12  1  0
 11 44  1  0
 12 13  1  0
 13 32  1  0
 13 14  1  0
 14 15  1  0
 14 45  1  0
 14 46  1  0
 15 16  1  0
 15 47  1  0
 15 48  1  0
 16 17  1  0
 16 18  1  0
 16 31  1  0
 18 19  1  0
 18 25  1  0
 18 49  1  0
 19 24  1  0
 19 20  2  0
 20 21  1  0
 20 50  1  0
 21 22  2  0
 21 51  1  0
 22 23  1  0
 22 52  1  0
 23 24  2  0
 23 53  1  0
 24 54  1  0
 25 30  1  0
 25 26  2  0
 26 27  1  0
 26 55  1  0
 27 28  2  0
 27 56  1  0
 28 29  1  0
 28 57  1  0
 29 30  2  0
 29 58  1  0
 30 59  1  0
 31 32  1  0
 31 60  1  0
 31 61  1  0
 32 62  1  0
 32 63  1  0
M  CHG  1  16   1
M  END
>  <DOCK_score>  (1) 
-56.977581

>  <SMILES>  (1) 
CCC=CCc1c(Cl)cccc1N1CC[NH+](C(c2ccccc2)c2ccccc2)CC1

$$$$
