Oc1ccc(Nc2cncc3ccccc23)c(Nc2[nH]cc(-c3ccccc3)[nH+]2)c1
     RDKit          3D

 50 54  0  0  1  0  0  0  0  0999 V2000
  134.4472  134.9082  162.0846 O   0  0  0  0  0  0  0  0  0  0  0  0
  133.2729  134.4697  161.5574 C   0  0  0  0  0  0  0  0  0  0  0  0
  132.2691  134.0038  162.3940 C   0  0  0  0  0  0  0  0  0  0  0  0
  131.0735  133.5581  161.8624 C   0  0  0  0  0  0  0  0  0  0  0  0
  130.8726  133.5798  160.4904 C   0  0  0  0  0  0  0  0  0  0  0  0
  129.6581  133.1331  159.9519 N   0  0  0  0  0  0  0  0  0  0  0  0
  128.4652  133.7564  160.3118 C   0  0  0  0  0  0  0  0  0  0  0  0
  128.4422  135.0928  160.6564 C   0  0  0  0  0  0  0  0  0  0  0  0
  127.3161  135.7023  160.9958 N   0  0  0  0  0  0  0  0  0  0  0  0
  126.1580  135.0865  161.0399 C   0  0  0  0  0  0  0  0  0  0  0  0
  126.0694  133.7237  160.7133 C   0  0  0  0  0  0  0  0  0  0  0  0
  124.8499  133.0284  160.7484 C   0  0  0  0  0  0  0  0  0  0  0  0
  124.8215  131.7067  160.4219 C   0  0  0  0  0  0  0  0  0  0  0  0
  125.9836  131.0316  160.0540 C   0  0  0  0  0  0  0  0  0  0  0  0
  127.1844  131.6746  160.0094 C   0  0  0  0  0  0  0  0  0  0  0  0
  127.2511  133.0342  160.3384 C   0  0  0  0  0  0  0  0  0  0  0  0
  131.8826  134.0423  159.6469 C   0  0  0  0  0  0  0  0  0  0  0  0
  131.6855  134.0608  158.2610 N   0  0  0  0  0  0  0  0  0  0  0  0
  131.4217  132.8821  157.5832 C   0  0  0  0  0  0  0  0  0  0  0  0
  131.3347  131.6460  158.1465 N   0  0  0  0  0  0  0  0  0  0  0  0
  131.4453  131.4339  159.0867 H   0  0  0  0  0  0  0  0  0  0  0  0
  131.0586  130.7550  157.1386 C   0  0  0  0  0  0  0  0  0  0  0  0
  130.9932  131.4700  155.9880 C   0  0  0  0  0  0  0  0  0  0  0  0
  130.7223  130.9243  154.6355 C   0  0  0  0  0  0  0  0  0  0  0  0
  130.0749  131.7081  153.6819 C   0  0  0  0  0  0  0  0  0  0  0  0
  129.8301  131.1970  152.4234 C   0  0  0  0  0  0  0  0  0  0  0  0
  130.2158  129.9057  152.1114 C   0  0  0  0  0  0  0  0  0  0  0  0
  130.8539  129.1217  153.0556 C   0  0  0  0  0  0  0  0  0  0  0  0
  131.1090  129.6241  154.3154 C   0  0  0  0  0  0  0  0  0  0  0  0
  131.2202  132.7720  156.2926 N   0  0  0  0  0  0  0  0  0  0  0  0
  131.2319  133.5047  155.6570 H   0  0  0  0  0  0  0  0  0  0  0  0
  133.0804  134.4891  160.1845 C   0  0  0  0  0  0  0  0  0  0  0  0
  135.0848  135.2135  161.4249 H   0  0  0  0  0  0  0  0  0  0  0  0
  132.4220  133.9899  163.4630 H   0  0  0  0  0  0  0  0  0  0  0  0
  130.2938  133.1964  162.5164 H   0  0  0  0  0  0  0  0  0  0  0  0
  129.6482  132.3899  159.3286 H   0  0  0  0  0  0  0  0  0  0  0  0
  129.3636  135.6563  160.6444 H   0  0  0  0  0  0  0  0  0  0  0  0
  125.2702  135.6297  161.3281 H   0  0  0  0  0  0  0  0  0  0  0  0
  123.9412  133.5382  161.0324 H   0  0  0  0  0  0  0  0  0  0  0  0
  123.8829  131.1729  160.4489 H   0  0  0  0  0  0  0  0  0  0  0  0
  125.9319  129.9829  159.8007 H   0  0  0  0  0  0  0  0  0  0  0  0
  128.0776  131.1397  159.7223 H   0  0  0  0  0  0  0  0  0  0  0  0
  131.7376  134.8986  157.7748 H   0  0  0  0  0  0  0  0  0  0  0  0
  130.9229  129.6886  157.2419 H   0  0  0  0  0  0  0  0  0  0  0  0
  129.7693  132.7148  153.9259 H   0  0  0  0  0  0  0  0  0  0  0  0
  129.3327  131.8050  151.6823 H   0  0  0  0  0  0  0  0  0  0  0  0
  130.0181  129.5083  151.1268 H   0  0  0  0  0  0  0  0  0  0  0  0
  131.1533  128.1144  152.8064 H   0  0  0  0  0  0  0  0  0  0  0  0
  131.6076  129.0113  155.0516 H   0  0  0  0  0  0  0  0  0  0  0  0
  133.8627  134.8516  159.5341 H   0  0  0  0  0  0  0  0  0  0  0  0
  1  2  1  0
  1 33  1  0
  2 32  2  0
  2  3  1  0
  3  4  2  0
  3 34  1  0
  4  5  1  0
  4 35  1  0
  5  6  1  0
  5 17  2  0
  6  7  1  0
  6 36  1  0
  7 16  1  0
  7  8  2  0
  8  9  1  0
  8 37  1  0
  9 10  2  0
 10 11  1  0
 10 38  1  0
 11 16  2  0
 11 12  1  0
 12 13  2  0
 12 39  1  0
 13 14  1  0
 13 40  1  0
 14 15  2  0
 14 41  1  0
 15 16  1  0
 15 42  1  0
 17 18  1  0
 17 32  1  0
 18 43  1  0
 19 18  1  0
 19 30  2  0
 19 20  1  0
 20 21  1  0
 20 22  1  0
 22 23  2  0
 22 44  1  0
 23 24  1  0
 23 30  1  0
 24 29  1  0
 24 25  2  0
 25 26  1  0
 25 45  1  0
 26 27  2  0
 26 46  1  0
 27 28  1  0
 27 47  1  0
 28 29  2  0
 28 48  1  0
 29 49  1  0
 30 31  1  0
 32 50  1  0
M  CHG  1  30   1
M  END
>  <DOCK_score>  (1) 
-61.368332

>  <SMILES>  (1) 
Oc1ccc(Nc2cncc3ccccc23)c(Nc2[nH]cc(-c3ccccc3)[nH+]2)c1

$$$$
