O=C1CC[C@H](NC(NC2COc3cc(F)ccc3C2)=[NH+]Cc2ncccc2Cl)CN1
     RDKit          3D

 54 57  0  0  1  0  0  0  0  0999 V2000
  123.7673  133.9396  161.7472 O   0  0  0  0  0  0  0  0  0  0  0  0
  124.9477  133.9458  161.4690 C   0  0  0  0  0  0  0  0  0  0  0  0
  125.7339  132.6834  161.6787 C   0  0  0  0  0  0  0  0  0  0  0  0
  127.2312  133.0011  161.6950 C   0  0  0  0  0  0  0  0  0  0  0  0
  127.5543  133.8760  160.4777 C   0  0  2  0  0  0  0  0  0  0  0  0
  127.1731  133.4004  159.5740 H   0  0  0  0  0  0  0  0  0  0  0  0
  129.0047  134.0519  160.3700 N   0  0  0  0  0  0  0  0  0  0  0  0
  129.5860  134.2280  159.1365 C   0  0  0  0  0  0  0  0  0  0  0  0
  130.9472  134.3932  159.0355 N   0  0  0  0  0  0  0  0  0  0  0  0
  131.7781  134.3816  160.2420 C   0  0  1  0  0  0  0  0  0  0  0  0
  133.1826  133.8694  159.8978 C   0  0  0  0  0  0  0  0  0  0  0  0
  133.9352  133.7715  161.1078 O   0  0  0  0  0  0  0  0  0  0  0  0
  133.9356  134.8423  161.9435 C   0  0  0  0  0  0  0  0  0  0  0  0
  134.9223  134.9203  162.9210 C   0  0  0  0  0  0  0  0  0  0  0  0
  134.9539  135.9921  163.7927 C   0  0  0  0  0  0  0  0  0  0  0  0
  135.9141  136.0653  164.7403 F   0  0  0  0  0  0  0  0  0  0  0  0
  134.0001  136.9917  163.6931 C   0  0  0  0  0  0  0  0  0  0  0  0
  133.0211  136.9161  162.7227 C   0  0  0  0  0  0  0  0  0  0  0  0
  132.9866  135.8448  161.8452 C   0  0  0  0  0  0  0  0  0  0  0  0
  131.9070  135.8038  160.7933 C   0  0  0  0  0  0  0  0  0  0  0  0
  128.8468  134.2382  158.0631 N   0  0  0  0  0  0  0  0  0  0  0  0
  127.9306  134.5535  158.1082 H   0  0  0  0  0  0  0  0  0  0  0  0
  129.3997  133.7737  156.7884 C   0  0  0  0  0  0  0  0  0  0  0  0
  129.8285  132.3352  156.9215 C   0  0  0  0  0  0  0  0  0  0  0  0
  129.6654  131.7099  158.0711 N   0  0  0  0  0  0  0  0  0  0  0  0
  130.0252  130.4519  158.2335 C   0  0  0  0  0  0  0  0  0  0  0  0
  130.5909  129.7377  157.1940 C   0  0  0  0  0  0  0  0  0  0  0  0
  130.7786  130.3603  155.9700 C   0  0  0  0  0  0  0  0  0  0  0  0
  130.3834  131.6839  155.8349 C   0  0  0  0  0  0  0  0  0  0  0  0
  130.5877  132.5126  154.3232 Cl  0  0  0  0  0  0  0  0  0  0  0  0
  126.8844  135.2382  160.6621 C   0  0  0  0  0  0  0  0  0  0  0  0
  125.4749  135.0728  160.9942 N   0  0  0  0  0  0  0  0  0  0  0  0
  125.5207  131.9854  160.8692 H   0  0  0  0  0  0  0  0  0  0  0  0
  125.4490  132.2331  162.6296 H   0  0  0  0  0  0  0  0  0  0  0  0
  127.4826  133.5380  162.6097 H   0  0  0  0  0  0  0  0  0  0  0  0
  127.8034  132.0749  161.6441 H   0  0  0  0  0  0  0  0  0  0  0  0
  129.5548  134.0441  161.1688 H   0  0  0  0  0  0  0  0  0  0  0  0
  131.3574  134.5175  158.1653 H   0  0  0  0  0  0  0  0  0  0  0  0
  131.3252  133.7352  160.9937 H   0  0  0  0  0  0  0  0  0  0  0  0
  133.1108  132.8877  159.4296 H   0  0  0  0  0  0  0  0  0  0  0  0
  133.6707  134.5662  159.2165 H   0  0  0  0  0  0  0  0  0  0  0  0
  135.6660  134.1411  162.9987 H   0  0  0  0  0  0  0  0  0  0  0  0
  134.0220  137.8294  164.3745 H   0  0  0  0  0  0  0  0  0  0  0  0
  132.2783  137.6965  162.6470 H   0  0  0  0  0  0  0  0  0  0  0  0
  132.1647  136.4852  159.9825 H   0  0  0  0  0  0  0  0  0  0  0  0
  130.9584  136.1090  161.2350 H   0  0  0  0  0  0  0  0  0  0  0  0
  128.6397  133.8560  156.0113 H   0  0  0  0  0  0  0  0  0  0  0  0
  130.2607  134.3864  156.5210 H   0  0  0  0  0  0  0  0  0  0  0  0
  129.8757  129.9735  159.1902 H   0  0  0  0  0  0  0  0  0  0  0  0
  130.8826  128.7073  157.3336 H   0  0  0  0  0  0  0  0  0  0  0  0
  131.2179  129.8270  155.1399 H   0  0  0  0  0  0  0  0  0  0  0  0
  127.3831  135.7789  161.4664 H   0  0  0  0  0  0  0  0  0  0  0  0
  126.9691  135.8093  159.7376 H   0  0  0  0  0  0  0  0  0  0  0  0
  124.8844  135.8308  160.8607 H   0  0  0  0  0  0  0  0  0  0  0  0
  1  2  2  0
  2 32  1  0
  2  3  1  0
  3  4  1  0
  3 33  1  0
  3 34  1  0
  4  5  1  0
  4 35  1  0
  4 36  1  0
  5  6  1  6
  5  7  1  0
  5 31  1  0
  7 37  1  0
  8  7  1  0
  8  9  1  0
  8 21  2  0
  9 10  1  0
  9 38  1  0
 10 20  1  0
 10 11  1  0
 10 39  1  1
 11 12  1  0
 11 40  1  0
 11 41  1  0
 12 13  1  0
 13 19  2  0
 13 14  1  0
 14 15  2  0
 14 42  1  0
 15 16  1  0
 15 17  1  0
 17 18  2  0
 17 43  1  0
 18 19  1  0
 18 44  1  0
 19 20  1  0
 20 45  1  0
 20 46  1  0
 21 22  1  0
 21 23  1  0
 23 24  1  0
 23 47  1  0
 23 48  1  0
 24 29  1  0
 24 25  2  0
 25 26  1  0
 26 27  2  0
 26 49  1  0
 27 28  1  0
 27 50  1  0
 28 29  2  0
 28 51  1  0
 29 30  1  0
 31 32  1  0
 31 52  1  0
 31 53  1  0
 32 54  1  0
M  CHG  1  21   1
M  END
>  <DOCK_score>  (1) 
-52.974701

>  <SMILES>  (1) 
O=C1CC[C@H](NC(NC2COc3cc(F)ccc3C2)=[NH+]Cc2ncccc2Cl)CN1

$$$$
