Nc1ccc(Cc2ccc(Nc3ccc(-c4n[nH]cc4C[NH2+][C@H]4CC45CCCC5)o3)cc2)cc1
     RDKit          3D

 66 71  0  0  1  0  0  0  0  0999 V2000
  126.3586  135.6729  171.2796 N   0  0  0  0  0  0  0  0  0  0  0  0
  127.0010  136.1510  170.1353 C   0  0  0  0  0  0  0  0  0  0  0  0
  127.9373  135.3605  169.4810 C   0  0  0  0  0  0  0  0  0  0  0  0
  128.5749  135.8384  168.3531 C   0  0  0  0  0  0  0  0  0  0  0  0
  128.2822  137.1026  167.8749 C   0  0  0  0  0  0  0  0  0  0  0  0
  128.9803  137.6210  166.6440 C   0  0  0  0  0  0  0  0  0  0  0  0
  128.1843  137.2478  165.4202 C   0  0  0  0  0  0  0  0  0  0  0  0
  128.4360  136.0528  164.7714 C   0  0  0  0  0  0  0  0  0  0  0  0
  127.7047  135.7050  163.6529 C   0  0  0  0  0  0  0  0  0  0  0  0
  126.7229  136.5628  163.1725 C   0  0  0  0  0  0  0  0  0  0  0  0
  125.9857  136.2174  162.0376 N   0  0  0  0  0  0  0  0  0  0  0  0
  126.5600  135.4246  161.0503 C   0  0  0  0  0  0  0  0  0  0  0  0
  125.8952  134.5671  160.2360 C   0  0  0  0  0  0  0  0  0  0  0  0
  126.8546  133.9745  159.3920 C   0  0  0  0  0  0  0  0  0  0  0  0
  128.0598  134.5015  159.7346 C   0  0  0  0  0  0  0  0  0  0  0  0
  129.3580  134.1694  159.1122 C   0  0  0  0  0  0  0  0  0  0  0  0
  129.5518  133.3078  158.1331 N   0  0  0  0  0  0  0  0  0  0  0  0
  130.9202  133.2894  157.8348 N   0  0  0  0  0  0  0  0  0  0  0  0
  131.3466  132.7468  157.1531 H   0  0  0  0  0  0  0  0  0  0  0  0
  131.5442  134.1540  158.6641 C   0  0  0  0  0  0  0  0  0  0  0  0
  130.6114  134.7134  159.4641 C   0  0  0  0  0  0  0  0  0  0  0  0
  130.8640  135.7369  160.5409 C   0  0  0  0  0  0  0  0  0  0  0  0
  131.7742  136.7706  160.0301 N   0  0  0  0  0  0  0  0  0  0  0  0
  132.6480  136.3451  159.7590 H   0  0  0  0  0  0  0  0  0  0  0  0
  131.3566  137.2209  159.2296 H   0  0  0  0  0  0  0  0  0  0  0  0
  132.0205  137.7682  161.0799 C   0  0  1  0  0  0  0  0  0  0  0  0
  131.1378  138.2913  161.4479 H   0  0  0  0  0  0  0  0  0  0  0  0
  133.1397  137.4774  162.0832 C   0  0  0  0  0  0  0  0  0  0  0  0
  133.3278  138.5518  161.0147 C   0  0  0  0  0  0  0  0  0  0  0  0
  133.3737  140.0420  161.3956 C   0  0  0  0  0  0  0  0  0  0  0  0
  134.7612  140.5163  160.8935 C   0  0  0  0  0  0  0  0  0  0  0  0
  134.9308  139.7376  159.5649 C   0  0  0  0  0  0  0  0  0  0  0  0
  134.3143  138.3524  159.8559 C   0  0  0  0  0  0  0  0  0  0  0  0
  127.8667  135.3831  160.7379 O   0  0  0  0  0  0  0  0  0  0  0  0
  126.4765  137.7653  163.8236 C   0  0  0  0  0  0  0  0  0  0  0  0
  127.2076  138.1039  164.9451 C   0  0  0  0  0  0  0  0  0  0  0  0
  127.3507  137.8922  168.5238 C   0  0  0  0  0  0  0  0  0  0  0  0
  126.7095  137.4203  169.6523 C   0  0  0  0  0  0  0  0  0  0  0  0
  125.7079  136.2274  171.7379 H   0  0  0  0  0  0  0  0  0  0  0  0
  126.5630  134.7864  171.6159 H   0  0  0  0  0  0  0  0  0  0  0  0
  128.1665  134.3732  169.8541 H   0  0  0  0  0  0  0  0  0  0  0  0
  129.3031  135.2245  167.8442 H   0  0  0  0  0  0  0  0  0  0  0  0
  129.0662  138.7059  166.7049 H   0  0  0  0  0  0  0  0  0  0  0  0
  129.9754  137.1811  166.5784 H   0  0  0  0  0  0  0  0  0  0  0  0
  129.2027  135.3886  165.1426 H   0  0  0  0  0  0  0  0  0  0  0  0
  127.8988  134.7695  163.1494 H   0  0  0  0  0  0  0  0  0  0  0  0
  125.0730  136.5306  161.9382 H   0  0  0  0  0  0  0  0  0  0  0  0
  124.8323  134.3756  160.2348 H   0  0  0  0  0  0  0  0  0  0  0  0
  126.6684  133.2416  158.6209 H   0  0  0  0  0  0  0  0  0  0  0  0
  132.6039  134.3619  158.6835 H   0  0  0  0  0  0  0  0  0  0  0  0
  129.9201  136.1965  160.8339 H   0  0  0  0  0  0  0  0  0  0  0  0
  131.3151  135.2505  161.4057 H   0  0  0  0  0  0  0  0  0  0  0  0
  132.9933  137.8100  163.1110 H   0  0  0  0  0  0  0  0  0  0  0  0
  133.6930  136.5460  161.9642 H   0  0  0  0  0  0  0  0  0  0  0  0
  132.5775  140.5898  160.8917 H   0  0  0  0  0  0  0  0  0  0  0  0
  133.2970  140.1624  162.4762 H   0  0  0  0  0  0  0  0  0  0  0  0
  135.5424  140.2439  161.6031 H   0  0  0  0  0  0  0  0  0  0  0  0
  134.7596  141.5913  160.7134 H   0  0  0  0  0  0  0  0  0  0  0  0
  135.9865  139.6397  159.3123 H   0  0  0  0  0  0  0  0  0  0  0  0
  134.3893  140.2344  158.7599 H   0  0  0  0  0  0  0  0  0  0  0  0
  135.0949  137.6492  160.1461 H   0  0  0  0  0  0  0  0  0  0  0  0
  133.7875  137.9849  158.9753 H   0  0  0  0  0  0  0  0  0  0  0  0
  125.7139  138.4343  163.4530 H   0  0  0  0  0  0  0  0  0  0  0  0
  127.0166  139.0384  165.4516 H   0  0  0  0  0  0  0  0  0  0  0  0
  127.1248  138.8792  168.1479 H   0  0  0  0  0  0  0  0  0  0  0  0
  125.9824  138.0376  170.1588 H   0  0  0  0  0  0  0  0  0  0  0  0
  1  2  1  0
  1 39  1  0
  1 40  1  0
  2 38  2  0
  2  3  1  0
  3  4  2  0
  3 41  1  0
  4  5  1  0
  4 42  1  0
  5  6  1  0
  5 37  2  0
  6  7  1  0
  6 43  1  0
  6 44  1  0
  7 36  1  0
  7  8  2  0
  8  9  1  0
  8 45  1  0
  9 10  2  0
  9 46  1  0
 10 11  1  0
 10 35  1  0
 11 12  1  0
 11 47  1  0
 12 34  1  0
 12 13  2  0
 13 14  1  0
 13 48  1  0
 14 15  2  0
 14 49  1  0
 15 16  1  0
 15 34  1  0
 16 21  1  0
 16 17  2  0
 17 18  1  0
 18 19  1  0
 18 20  1  0
 20 21  2  0
 20 50  1  0
 21 22  1  0
 22 23  1  0
 22 51  1  0
 22 52  1  0
 23 24  1  0
 23 25  1  0
 23 26  1  0
 26 27  1  1
 26 29  1  0
 26 28  1  0
 28 29  1  0
 28 53  1  0
 28 54  1  0
 29 33  1  0
 29 30  1  0
 30 31  1  0
 30 55  1  0
 30 56  1  0
 31 32  1  0
 31 57  1  0
 31 58  1  0
 32 33  1  0
 32 59  1  0
 32 60  1  0
 33 61  1  0
 33 62  1  0
 35 36  2  0
 35 63  1  0
 36 64  1  0
 37 38  1  0
 37 65  1  0
 38 66  1  0
M  CHG  1  23   1
M  END
>  <DOCK_score>  (1) 
-51.44381

>  <SMILES>  (1) 
Nc1ccc(Cc2ccc(Nc3ccc(-c4n[nH]cc4C[NH2+][C@H]4CC45CCCC5)o3)cc2)cc1

$$$$
