c1ccc([C@@H](Nc2[nH]cc(-c3cccnc3)[nH+]2)NC2COC3(CCOCC3)C2)cc1
     RDKit          3D

 58 62  0  0  1  0  0  0  0  0999 V2000
  125.8481  135.6810  160.4546 C   0  0  0  0  0  0  0  0  0  0  0  0
  126.5347  135.5375  161.6457 C   0  0  0  0  0  0  0  0  0  0  0  0
  127.9128  135.6430  161.6661 C   0  0  0  0  0  0  0  0  0  0  0  0
  128.6037  135.9011  160.4969 C   0  0  0  0  0  0  0  0  0  0  0  0
  130.1058  136.0210  160.5199 C   0  0  1  0  0  0  0  0  0  0  0  0
  130.5082  135.3940  161.3155 H   0  0  0  0  0  0  0  0  0  0  0  0
  130.6502  135.5847  159.2317 N   0  0  0  0  0  0  0  0  0  0  0  0
  130.4245  134.2934  158.7865 C   0  0  0  0  0  0  0  0  0  0  0  0
  129.7213  133.3370  159.4520 N   0  0  0  0  0  0  0  0  0  0  0  0
  129.2919  133.4365  160.3161 H   0  0  0  0  0  0  0  0  0  0  0  0
  129.7295  132.2056  158.6730 C   0  0  0  0  0  0  0  0  0  0  0  0
  130.4441  132.5002  157.5588 C   0  0  0  0  0  0  0  0  0  0  0  0
  130.7244  131.5770  156.4320 C   0  0  0  0  0  0  0  0  0  0  0  0
  130.2908  131.8826  155.1386 C   0  0  0  0  0  0  0  0  0  0  0  0
  130.5827  130.9913  154.1208 C   0  0  0  0  0  0  0  0  0  0  0  0
  131.2774  129.8319  154.4153 C   0  0  0  0  0  0  0  0  0  0  0  0
  131.6689  129.5679  155.6466 N   0  0  0  0  0  0  0  0  0  0  0  0
  131.4191  130.3883  156.6467 C   0  0  0  0  0  0  0  0  0  0  0  0
  130.8575  133.7887  157.6571 N   0  0  0  0  0  0  0  0  0  0  0  0
  131.3883  134.2610  156.9968 H   0  0  0  0  0  0  0  0  0  0  0  0
  130.4816  137.4205  160.7617 N   0  0  0  0  0  0  0  0  0  0  0  0
  131.8613  137.5169  161.2565 C   0  0  1  0  0  0  0  0  0  0  0  0
  132.8692  137.6198  160.0839 C   0  0  0  0  0  0  0  0  0  0  0  0
  134.0110  138.3017  160.6288 O   0  0  0  0  0  0  0  0  0  0  0  0
  133.6139  139.0930  161.7516 C   0  0  0  0  0  0  0  0  0  0  0  0
  133.8783  140.5728  161.4711 C   0  0  0  0  0  0  0  0  0  0  0  0
  135.3873  140.7971  161.3363 C   0  0  0  0  0  0  0  0  0  0  0  0
  136.0409  140.3522  162.5267 O   0  0  0  0  0  0  0  0  0  0  0  0
  135.8722  138.9601  162.8020 C   0  0  0  0  0  0  0  0  0  0  0  0
  134.3838  138.6579  162.9993 C   0  0  0  0  0  0  0  0  0  0  0  0
  132.1047  138.8728  161.9753 C   0  0  0  0  0  0  0  0  0  0  0  0
  127.9167  136.0495  159.3066 C   0  0  0  0  0  0  0  0  0  0  0  0
  126.5387  135.9400  159.2855 C   0  0  0  0  0  0  0  0  0  0  0  0
  124.7716  135.5954  160.4380 H   0  0  0  0  0  0  0  0  0  0  0  0
  125.9947  135.3395  162.5599 H   0  0  0  0  0  0  0  0  0  0  0  0
  128.4496  135.5275  162.5962 H   0  0  0  0  0  0  0  0  0  0  0  0
  131.1690  136.2005  158.6908 H   0  0  0  0  0  0  0  0  0  0  0  0
  129.2603  131.2610  158.9053 H   0  0  0  0  0  0  0  0  0  0  0  0
  129.7457  132.7931  154.9380 H   0  0  0  0  0  0  0  0  0  0  0  0
  130.2677  131.1966  153.1084 H   0  0  0  0  0  0  0  0  0  0  0  0
  131.5029  129.1320  153.6241 H   0  0  0  0  0  0  0  0  0  0  0  0
  131.7560  130.1375  157.6416 H   0  0  0  0  0  0  0  0  0  0  0  0
  130.3560  137.9775  159.9298 H   0  0  0  0  0  0  0  0  0  0  0  0
  132.1019  136.6774  161.9087 H   0  0  0  0  0  0  0  0  0  0  0  0
  133.1515  136.6249  159.7393 H   0  0  0  0  0  0  0  0  0  0  0  0
  132.4387  138.1952  159.2644 H   0  0  0  0  0  0  0  0  0  0  0  0
  133.3828  140.8621  160.5443 H   0  0  0  0  0  0  0  0  0  0  0  0
  133.4927  141.1743  162.2944 H   0  0  0  0  0  0  0  0  0  0  0  0
  135.5853  141.8584  161.1877 H   0  0  0  0  0  0  0  0  0  0  0  0
  135.7637  140.2335  160.4827 H   0  0  0  0  0  0  0  0  0  0  0  0
  136.4192  138.6997  163.7080 H   0  0  0  0  0  0  0  0  0  0  0  0
  136.2542  138.3752  161.9654 H   0  0  0  0  0  0  0  0  0  0  0  0
  134.0128  139.2054  163.8658 H   0  0  0  0  0  0  0  0  0  0  0  0
  134.2461  137.5883  163.1578 H   0  0  0  0  0  0  0  0  0  0  0  0
  131.5232  139.6687  161.5099 H   0  0  0  0  0  0  0  0  0  0  0  0
  131.8770  138.7949  163.0383 H   0  0  0  0  0  0  0  0  0  0  0  0
  128.4564  136.2515  158.3931 H   0  0  0  0  0  0  0  0  0  0  0  0
  126.0020  136.0564  158.3557 H   0  0  0  0  0  0  0  0  0  0  0  0
  1 33  2  0
  1  2  1  0
  1 34  1  0
  2  3  2  0
  2 35  1  0
  3  4  1  0
  3 36  1  0
  4  5  1  0
  4 32  2  0
  5  6  1  1
  5  7  1  0
  5 21  1  0
  7 37  1  0
  8  7  1  0
  8 19  2  0
  8  9  1  0
  9 10  1  0
  9 11  1  0
 11 12  2  0
 11 38  1  0
 12 13  1  0
 12 19  1  0
 13 18  1  0
 13 14  2  0
 14 15  1  0
 14 39  1  0
 15 16  2  0
 15 40  1  0
 16 17  1  0
 16 41  1  0
 17 18  2  0
 18 42  1  0
 19 20  1  0
 21 22  1  0
 21 43  1  0
 22 31  1  0
 22 23  1  0
 22 44  1  1
 23 24  1  0
 23 45  1  0
 23 46  1  0
 24 25  1  0
 25 30  1  0
 25 26  1  0
 25 31  1  0
 26 27  1  0
 26 47  1  0
 26 48  1  0
 27 28  1  0
 27 49  1  0
 27 50  1  0
 28 29  1  0
 29 30  1  0
 29 51  1  0
 29 52  1  0
 30 53  1  0
 30 54  1  0
 31 55  1  0
 31 56  1  0
 32 33  1  0
 32 57  1  0
 33 58  1  0
M  CHG  1  19   1
M  END
>  <DOCK_score>  (1) 
-58.549309

>  <SMILES>  (1) 
c1ccc([C@@H](Nc2[nH]cc(-c3cccnc3)[nH+]2)NC2COC3(CCOCC3)C2)cc1

$$$$
