CCc1ccc(-c2c[nH]c(N[C@@H](CC=Cc3ccc(Br)nc3C)c3ccccc3)[nH+]2)cc1
     RDKit          3D

 60 63  0  0  1  0  0  0  0  0999 V2000
  130.7286  128.4455  152.2050 C   0  0  0  0  0  0  0  0  0  0  0  0
  131.7354  129.5522  152.5243 C   0  0  0  0  0  0  0  0  0  0  0  0
  131.2807  130.3078  153.7464 C   0  0  0  0  0  0  0  0  0  0  0  0
  131.6864  129.8947  155.0023 C   0  0  0  0  0  0  0  0  0  0  0  0
  131.2771  130.5857  156.1246 C   0  0  0  0  0  0  0  0  0  0  0  0
  130.4445  131.6955  155.9914 C   0  0  0  0  0  0  0  0  0  0  0  0
  129.9971  132.4391  157.1943 C   0  0  0  0  0  0  0  0  0  0  0  0
  129.2825  131.9291  158.2278 C   0  0  0  0  0  0  0  0  0  0  0  0
  129.0869  132.9539  159.1214 N   0  0  0  0  0  0  0  0  0  0  0  0
  128.6083  132.8986  159.9633 H   0  0  0  0  0  0  0  0  0  0  0  0
  129.6883  134.0613  158.6073 C   0  0  0  0  0  0  0  0  0  0  0  0
  129.7207  135.3109  159.2023 N   0  0  0  0  0  0  0  0  0  0  0  0
  128.6200  135.7379  160.0696 C   0  0  1  0  0  0  0  0  0  0  0  0
  128.5306  135.0488  160.9094 H   0  0  0  0  0  0  0  0  0  0  0  0
  128.9015  137.1474  160.5945 C   0  0  0  0  0  0  0  0  0  0  0  0
  130.1876  137.1432  161.3799 C   0  0  0  0  0  0  0  0  0  0  0  0
  131.1995  137.9103  160.9989 C   0  0  0  0  0  0  0  0  0  0  0  0
  132.4609  137.9063  161.7694 C   0  0  0  0  0  0  0  0  0  0  0  0
  132.4720  138.2815  163.1180 C   0  0  0  0  0  0  0  0  0  0  0  0
  133.6773  138.2555  163.7962 C   0  0  0  0  0  0  0  0  0  0  0  0
  134.8253  137.8736  163.1229 C   0  0  0  0  0  0  0  0  0  0  0  0
  136.4771  137.8431  164.0431 Br  0  0  0  0  0  0  0  0  0  0  0  0
  134.7851  137.5301  161.8493 N   0  0  0  0  0  0  0  0  0  0  0  0
  133.6606  137.5340  161.1632 C   0  0  0  0  0  0  0  0  0  0  0  0
  133.6704  137.1322  159.7108 C   0  0  0  0  0  0  0  0  0  0  0  0
  127.3339  135.7420  159.2841 C   0  0  0  0  0  0  0  0  0  0  0  0
  126.1338  135.4883  159.9216 C   0  0  0  0  0  0  0  0  0  0  0  0
  124.9537  135.4963  159.2018 C   0  0  0  0  0  0  0  0  0  0  0  0
  124.9746  135.7490  157.8429 C   0  0  0  0  0  0  0  0  0  0  0  0
  126.1752  135.9975  157.2045 C   0  0  0  0  0  0  0  0  0  0  0  0
  127.3550  135.9937  157.9251 C   0  0  0  0  0  0  0  0  0  0  0  0
  130.2353  133.7485  157.4581 N   0  0  0  0  0  0  0  0  0  0  0  0
  130.7300  134.3565  156.8866 H   0  0  0  0  0  0  0  0  0  0  0  0
  130.0345  132.1044  154.7236 C   0  0  0  0  0  0  0  0  0  0  0  0
  130.4544  131.4090  153.6079 C   0  0  0  0  0  0  0  0  0  0  0  0
  130.6610  127.7613  153.0509 H   0  0  0  0  0  0  0  0  0  0  0  0
  129.7504  128.8873  152.0160 H   0  0  0  0  0  0  0  0  0  0  0  0
  131.0576  127.8990  151.3211 H   0  0  0  0  0  0  0  0  0  0  0  0
  132.7137  129.1109  152.7131 H   0  0  0  0  0  0  0  0  0  0  0  0
  131.8029  130.2370  151.6782 H   0  0  0  0  0  0  0  0  0  0  0  0
  132.3280  129.0320  155.1046 H   0  0  0  0  0  0  0  0  0  0  0  0
  131.5982  130.2648  157.1046 H   0  0  0  0  0  0  0  0  0  0  0  0
  128.9337  130.9120  158.3290 H   0  0  0  0  0  0  0  0  0  0  0  0
  130.4721  135.9037  159.0449 H   0  0  0  0  0  0  0  0  0  0  0  0
  128.9909  137.8366  159.7548 H   0  0  0  0  0  0  0  0  0  0  0  0
  128.0826  137.4651  161.2397 H   0  0  0  0  0  0  0  0  0  0  0  0
  130.2849  136.5154  162.2533 H   0  0  0  0  0  0  0  0  0  0  0  0
  131.1021  138.5381  160.1256 H   0  0  0  0  0  0  0  0  0  0  0  0
  131.5620  138.5797  163.6174 H   0  0  0  0  0  0  0  0  0  0  0  0
  133.7232  138.5344  164.8385 H   0  0  0  0  0  0  0  0  0  0  0  0
  133.8400  138.0128  159.0914 H   0  0  0  0  0  0  0  0  0  0  0  0
  134.4671  136.4084  159.5394 H   0  0  0  0  0  0  0  0  0  0  0  0
  132.7109  136.6846  159.4512 H   0  0  0  0  0  0  0  0  0  0  0  0
  126.1178  135.2870  160.9826 H   0  0  0  0  0  0  0  0  0  0  0  0
  124.0156  135.3024  159.7006 H   0  0  0  0  0  0  0  0  0  0  0  0
  124.0529  135.7527  157.2800 H   0  0  0  0  0  0  0  0  0  0  0  0
  126.1916  136.1951  156.1428 H   0  0  0  0  0  0  0  0  0  0  0  0
  128.2930  136.1880  157.4264 H   0  0  0  0  0  0  0  0  0  0  0  0
  129.3892  132.9634  154.6145 H   0  0  0  0  0  0  0  0  0  0  0  0
  130.1369  131.7246  152.6251 H   0  0  0  0  0  0  0  0  0  0  0  0
  1  2  1  0
  1 36  1  0
  1 37  1  0
  1 38  1  0
  2  3  1  0
  2 39  1  0
  2 40  1  0
  3 35  2  0
  3  4  1  0
  4  5  2  0
  4 41  1  0
  5  6  1  0
  5 42  1  0
  6  7  1  0
  6 34  2  0
  7 32  1  0
  7  8  2  0
  8  9  1  0
  8 43  1  0
  9 10  1  0
  9 11  1  0
 11 12  1  0
 11 32  2  0
 12 13  1  0
 12 44  1  0
 13 14  1  1
 13 15  1  0
 13 26  1  0
 15 16  1  0
 15 45  1  0
 15 46  1  0
 16 17  2  0
 16 47  1  0
 17 18  1  0
 17 48  1  0
 18 24  1  0
 18 19  2  0
 19 20  1  0
 19 49  1  0
 20 21  2  0
 20 50  1  0
 21 22  1  0
 21 23  1  0
 23 24  2  0
 24 25  1  0
 25 51  1  0
 25 52  1  0
 25 53  1  0
 26 31  1  0
 26 27  2  0
 27 28  1  0
 27 54  1  0
 28 29  2  0
 28 55  1  0
 29 30  1  0
 29 56  1  0
 30 31  2  0
 30 57  1  0
 31 58  1  0
 32 33  1  0
 34 35  1  0
 34 59  1  0
 35 60  1  0
M  CHG  1  32   1
M  END
>  <DOCK_score>  (1) 
-58.518169

>  <SMILES>  (1) 
CCc1ccc(-c2c[nH]c(N[C@@H](CC=Cc3ccc(Br)nc3C)c3ccccc3)[nH+]2)cc1

$$$$
