C[C@@H](CN(C(=O)c1c[nH]nc1C1CCC[NH2+]C1)[C@@H]1C=C(N)CC1)c1ccccc1
     RDKit          3D

 61 64  0  0  1  0  0  0  0  0999 V2000
  132.5669  134.2089  161.6709 C   0  0  0  0  0  0  0  0  0  0  0  0
  133.0567  135.5872  162.1191 C   0  0  1  0  0  0  0  0  0  0  0  0
  133.2345  136.2119  161.2437 H   0  0  0  0  0  0  0  0  0  0  0  0
  131.9956  136.2421  163.0057 C   0  0  0  0  0  0  0  0  0  0  0  0
  130.7499  136.3889  162.2491 N   0  0  0  0  0  0  0  0  0  0  0  0
  129.8313  135.4028  162.2657 C   0  0  0  0  0  0  0  0  0  0  0  0
  130.0366  134.3912  162.9087 O   0  0  0  0  0  0  0  0  0  0  0  0
  128.5801  135.5478  161.4993 C   0  0  0  0  0  0  0  0  0  0  0  0
  127.3966  136.0906  161.9576 C   0  0  0  0  0  0  0  0  0  0  0  0
  126.5123  136.0361  160.9489 N   0  0  0  0  0  0  0  0  0  0  0  0
  125.5948  136.3494  160.9819 H   0  0  0  0  0  0  0  0  0  0  0  0
  127.1355  135.4458  159.8437 N   0  0  0  0  0  0  0  0  0  0  0  0
  128.3662  135.1513  160.1601 C   0  0  0  0  0  0  0  0  0  0  0  0
  129.3819  134.5025  159.2555 C   0  0  1  0  0  0  0  0  0  0  0  0
  129.2954  132.9802  159.3983 C   0  0  0  0  0  0  0  0  0  0  0  0
  130.2760  132.3290  158.4187 C   0  0  0  0  0  0  0  0  0  0  0  0
  129.9555  132.7973  156.9976 C   0  0  0  0  0  0  0  0  0  0  0  0
  130.0814  134.2577  156.9198 N   0  0  0  0  0  0  0  0  0  0  0  0
  131.0102  134.5299  157.2050 H   0  0  0  0  0  0  0  0  0  0  0  0
  129.9207  134.5580  155.9700 H   0  0  0  0  0  0  0  0  0  0  0  0
  129.0947  134.8904  157.8034 C   0  0  0  0  0  0  0  0  0  0  0  0
  130.5025  137.6074  161.4745 C   0  0  2  0  0  0  0  0  0  0  0  0
  129.5345  137.5499  160.9766 H   0  0  0  0  0  0  0  0  0  0  0  0
  131.6033  137.8193  160.4612 C   0  0  0  0  0  0  0  0  0  0  0  0
  131.9973  139.0746  160.4508 C   0  0  0  0  0  0  0  0  0  0  0  0
  132.9950  139.5799  159.6268 N   0  0  0  0  0  0  0  0  0  0  0  0
  131.2199  139.8928  161.4556 C   0  0  0  0  0  0  0  0  0  0  0  0
  130.5659  138.8504  162.3916 C   0  0  0  0  0  0  0  0  0  0  0  0
  134.3383  135.4364  162.8974 C   0  0  0  0  0  0  0  0  0  0  0  0
  134.6549  136.3448  163.8902 C   0  0  0  0  0  0  0  0  0  0  0  0
  135.8287  136.2043  164.6069 C   0  0  0  0  0  0  0  0  0  0  0  0
  136.6896  135.1602  164.3252 C   0  0  0  0  0  0  0  0  0  0  0  0
  136.3755  134.2549  163.3288 C   0  0  0  0  0  0  0  0  0  0  0  0
  135.1999  134.3932  162.6148 C   0  0  0  0  0  0  0  0  0  0  0  0
  132.5305  133.5391  162.5302 H   0  0  0  0  0  0  0  0  0  0  0  0
  131.5703  134.3000  161.2390 H   0  0  0  0  0  0  0  0  0  0  0  0
  133.2510  133.8052  160.9243 H   0  0  0  0  0  0  0  0  0  0  0  0
  132.3447  137.2242  163.3251 H   0  0  0  0  0  0  0  0  0  0  0  0
  131.8176  135.6175  163.8811 H   0  0  0  0  0  0  0  0  0  0  0  0
  127.2160  136.4881  162.9454 H   0  0  0  0  0  0  0  0  0  0  0  0
  130.3818  134.8377  159.5314 H   0  0  0  0  0  0  0  0  0  0  0  0
  129.5546  132.6944  160.4176 H   0  0  0  0  0  0  0  0  0  0  0  0
  128.2814  132.6501  159.1725 H   0  0  0  0  0  0  0  0  0  0  0  0
  131.2945  132.6189  158.6765 H   0  0  0  0  0  0  0  0  0  0  0  0
  130.1802  131.2446  158.4747 H   0  0  0  0  0  0  0  0  0  0  0  0
  130.6518  132.3353  156.2976 H   0  0  0  0  0  0  0  0  0  0  0  0
  128.9368  132.5072  156.7409 H   0  0  0  0  0  0  0  0  0  0  0  0
  128.0944  134.5551  157.5293 H   0  0  0  0  0  0  0  0  0  0  0  0
  129.1553  135.9736  157.6983 H   0  0  0  0  0  0  0  0  0  0  0  0
  132.0123  137.0440  159.8302 H   0  0  0  0  0  0  0  0  0  0  0  0
  133.4527  138.9939  159.0041 H   0  0  0  0  0  0  0  0  0  0  0  0
  133.2338  140.5189  159.6742 H   0  0  0  0  0  0  0  0  0  0  0  0
  131.8919  140.5402  162.0190 H   0  0  0  0  0  0  0  0  0  0  0  0
  130.4560  140.4856  160.9525 H   0  0  0  0  0  0  0  0  0  0  0  0
  129.5665  139.1665  162.6909 H   0  0  0  0  0  0  0  0  0  0  0  0
  131.1918  138.6612  163.2636 H   0  0  0  0  0  0  0  0  0  0  0  0
  133.9838  137.1625  164.1080 H   0  0  0  0  0  0  0  0  0  0  0  0
  136.0742  136.9118  165.3851 H   0  0  0  0  0  0  0  0  0  0  0  0
  137.6079  135.0519  164.8832 H   0  0  0  0  0  0  0  0  0  0  0  0
  137.0483  133.4393  163.1085 H   0  0  0  0  0  0  0  0  0  0  0  0
  134.9545  133.6859  161.8364 H   0  0  0  0  0  0  0  0  0  0  0  0
  1  2  1  0
  1 35  1  0
  1 36  1  0
  1 37  1  0
  2  3  1  6
  2  4  1  0
  2 29  1  0
  4  5  1  0
  4 38  1  0
  4 39  1  0
  5  6  1  0
  5 22  1  0
  6  7  2  0
  6  8  1  0
  8 13  1  0
  8  9  2  0
  9 10  1  0
  9 40  1  0
 10 11  1  0
 10 12  1  0
 12 13  2  0
 13 14  1  0
 14 21  1  0
 14 15  1  0
 14 41  1  1
 15 16  1  0
 15 42  1  0
 15 43  1  0
 16 17  1  0
 16 44  1  0
 16 45  1  0
 17 18  1  0
 17 46  1  0
 17 47  1  0
 18 19  1  0
 18 20  1  0
 18 21  1  0
 21 48  1  0
 21 49  1  0
 22 23  1  6
 22 28  1  0
 22 24  1  0
 24 25  2  0
 24 50  1  0
 25 26  1  0
 25 27  1  0
 26 51  1  0
 26 52  1  0
 27 28  1  0
 27 53  1  0
 27 54  1  0
 28 55  1  0
 28 56  1  0
 29 34  1  0
 29 30  2  0
 30 31  1  0
 30 57  1  0
 31 32  2  0
 31 58  1  0
 32 33  1  0
 32 59  1  0
 33 34  2  0
 33 60  1  0
 34 61  1  0
M  CHG  1  18   1
M  END
>  <DOCK_score>  (1) 
-43.734009

>  <SMILES>  (1) 
C[C@@H](CN(C(=O)c1c[nH]nc1C1CCC[NH2+]C1)[C@@H]1C=C(N)CC1)c1ccccc1

$$$$
