C[NH2+][C@@H](C(=O)Nc1cccc(O)c1)c1cccc(O)c1
     RDKit          3D

 37 38  0  0  1  0  0  0  0  0999 V2000
  130.3673  133.0547  157.3293 C   0  0  0  0  0  0  0  0  0  0  0  0
  131.0134  133.6935  158.4837 N   0  0  0  0  0  0  0  0  0  0  0  0
  131.8564  134.1588  158.1823 H   0  0  0  0  0  0  0  0  0  0  0  0
  131.2439  132.9917  159.1710 H   0  0  0  0  0  0  0  0  0  0  0  0
  130.0965  134.6767  159.0759 C   0  0  1  0  0  0  0  0  0  0  0  0
  129.8476  135.4347  158.3334 H   0  0  0  0  0  0  0  0  0  0  0  0
  128.8374  133.9817  159.5260 C   0  0  0  0  0  0  0  0  0  0  0  0
  128.8791  132.8241  159.8861 O   0  0  0  0  0  0  0  0  0  0  0  0
  127.6648  134.6463  159.5285 N   0  0  0  0  0  0  0  0  0  0  0  0
  126.4957  134.0011  159.9464 C   0  0  0  0  0  0  0  0  0  0  0  0
  126.3559  132.6304  159.7673 C   0  0  0  0  0  0  0  0  0  0  0  0
  125.2018  131.9935  160.1798 C   0  0  0  0  0  0  0  0  0  0  0  0
  124.1864  132.7161  160.7775 C   0  0  0  0  0  0  0  0  0  0  0  0
  124.3183  134.0861  160.9538 C   0  0  0  0  0  0  0  0  0  0  0  0
  123.3166  134.7964  161.5360 O   0  0  0  0  0  0  0  0  0  0  0  0
  125.4748  134.7291  160.5406 C   0  0  0  0  0  0  0  0  0  0  0  0
  130.7593  135.3319  160.2602 C   0  0  0  0  0  0  0  0  0  0  0  0
  129.9923  135.7850  161.3179 C   0  0  0  0  0  0  0  0  0  0  0  0
  130.5978  136.3815  162.4082 C   0  0  0  0  0  0  0  0  0  0  0  0
  131.9703  136.5365  162.4386 C   0  0  0  0  0  0  0  0  0  0  0  0
  132.7413  136.0880  161.3762 C   0  0  0  0  0  0  0  0  0  0  0  0
  134.0917  136.2398  161.4034 O   0  0  0  0  0  0  0  0  0  0  0  0
  132.1317  135.4846  160.2856 C   0  0  0  0  0  0  0  0  0  0  0  0
  131.0475  132.3252  156.8898 H   0  0  0  0  0  0  0  0  0  0  0  0
  129.4565  132.5520  157.6550 H   0  0  0  0  0  0  0  0  0  0  0  0
  130.1183  133.8128  156.5867 H   0  0  0  0  0  0  0  0  0  0  0  0
  127.6316  135.5720  159.2406 H   0  0  0  0  0  0  0  0  0  0  0  0
  127.1498  132.0628  159.3049 H   0  0  0  0  0  0  0  0  0  0  0  0
  125.0947  130.9280  160.0395 H   0  0  0  0  0  0  0  0  0  0  0  0
  123.2873  132.2144  161.1038 H   0  0  0  0  0  0  0  0  0  0  0  0
  123.4999  135.7424  161.6154 H   0  0  0  0  0  0  0  0  0  0  0  0
  125.5813  135.7946  160.6813 H   0  0  0  0  0  0  0  0  0  0  0  0
  128.9187  135.6691  161.2940 H   0  0  0  0  0  0  0  0  0  0  0  0
  129.9970  136.7308  163.2349 H   0  0  0  0  0  0  0  0  0  0  0  0
  132.4424  137.0068  163.2884 H   0  0  0  0  0  0  0  0  0  0  0  0
  134.5419  135.8967  160.6195 H   0  0  0  0  0  0  0  0  0  0  0  0
  132.7299  135.1348  159.4572 H   0  0  0  0  0  0  0  0  0  0  0  0
  1  2  1  0
  1 24  1  0
  1 25  1  0
  1 26  1  0
  2  3  1  0
  2  4  1  0
  2  5  1  0
  5  6  1  6
  5  7  1  0
  5 17  1  0
  7  8  2  0
  7  9  1  0
  9 10  1  0
  9 27  1  0
 10 16  1  0
 10 11  2  0
 11 12  1  0
 11 28  1  0
 12 13  2  0
 12 29  1  0
 13 14  1  0
 13 30  1  0
 14 15  1  0
 14 16  2  0
 15 31  1  0
 16 32  1  0
 17 23  1  0
 17 18  2  0
 18 19  1  0
 18 33  1  0
 19 20  2  0
 19 34  1  0
 20 21  1  0
 20 35  1  0
 21 22  1  0
 21 23  2  0
 22 36  1  0
 23 37  1  0
M  CHG  1   2   1
M  END
>  <DOCK_score>  (1) 
-42.13789

>  <SMILES>  (1) 
C[NH2+][C@@H](C(=O)Nc1cccc(O)c1)c1cccc(O)c1

$$$$
