CC=CSC[C@@H](Nc1[nH]cc(-c2ccc(Br)cc2)[nH+]1)c1ccc(C)[nH]1
     RDKit          3D

 47 49  0  0  1  0  0  0  0  0999 V2000
  126.6677  132.3004  160.2544 C   0  0  0  0  0  0  0  0  0  0  0  0
  127.2250  133.5646  159.6527 C   0  0  0  0  0  0  0  0  0  0  0  0
  127.3739  134.6427  160.4016 C   0  0  0  0  0  0  0  0  0  0  0  0
  128.0256  136.1210  159.6979 S   0  0  0  0  0  0  0  0  0  0  0  0
  129.5192  136.4181  160.6836 C   0  0  0  0  0  0  0  0  0  0  0  0
  130.4708  135.2288  160.5390 C   0  0  1  0  0  0  0  0  0  0  0  0
  129.9769  134.3233  160.8917 H   0  0  0  0  0  0  0  0  0  0  0  0
  130.8393  135.0668  159.1303 N   0  0  0  0  0  0  0  0  0  0  0  0
  130.5441  133.8871  158.4688 C   0  0  0  0  0  0  0  0  0  0  0  0
  129.9174  132.8086  159.0130 N   0  0  0  0  0  0  0  0  0  0  0  0
  129.6004  132.7287  159.9263 H   0  0  0  0  0  0  0  0  0  0  0  0
  129.8172  131.8537  158.0303 C   0  0  0  0  0  0  0  0  0  0  0  0
  130.3798  132.3780  156.9134 C   0  0  0  0  0  0  0  0  0  0  0  0
  130.4942  131.7062  155.5959 C   0  0  0  0  0  0  0  0  0  0  0  0
  129.8937  132.2674  154.4703 C   0  0  0  0  0  0  0  0  0  0  0  0
  130.0069  131.6407  153.2461 C   0  0  0  0  0  0  0  0  0  0  0  0
  130.7067  130.4521  153.1365 C   0  0  0  0  0  0  0  0  0  0  0  0
  130.8524  129.5949  151.4572 Br  0  0  0  0  0  0  0  0  0  0  0  0
  131.3011  129.8876  154.2524 C   0  0  0  0  0  0  0  0  0  0  0  0
  131.1980  130.5087  155.4803 C   0  0  0  0  0  0  0  0  0  0  0  0
  130.8219  133.6247  157.2151 N   0  0  0  0  0  0  0  0  0  0  0  0
  131.2685  134.2273  156.5999 H   0  0  0  0  0  0  0  0  0  0  0  0
  131.7116  135.4757  161.3577 C   0  0  0  0  0  0  0  0  0  0  0  0
  132.9722  135.5404  160.8830 C   0  0  0  0  0  0  0  0  0  0  0  0
  133.8233  135.7859  161.9785 C   0  0  0  0  0  0  0  0  0  0  0  0
  133.0504  135.8619  163.0810 C   0  0  0  0  0  0  0  0  0  0  0  0
  133.5367  136.1125  164.4853 C   0  0  0  0  0  0  0  0  0  0  0  0
  131.7528  135.6780  162.7054 N   0  0  0  0  0  0  0  0  0  0  0  0
  130.9858  135.6872  163.2992 H   0  0  0  0  0  0  0  0  0  0  0  0
  125.6670  132.4925  160.6412 H   0  0  0  0  0  0  0  0  0  0  0  0
  126.6191  131.5248  159.4901 H   0  0  0  0  0  0  0  0  0  0  0  0
  127.3140  131.9692  161.0673 H   0  0  0  0  0  0  0  0  0  0  0  0
  127.5028  133.5892  158.6093 H   0  0  0  0  0  0  0  0  0  0  0  0
  127.0962  134.6181  161.4449 H   0  0  0  0  0  0  0  0  0  0  0  0
  129.2449  136.5386  161.7316 H   0  0  0  0  0  0  0  0  0  0  0  0
  130.0131  137.3236  160.3310 H   0  0  0  0  0  0  0  0  0  0  0  0
  131.2903  135.7861  158.6612 H   0  0  0  0  0  0  0  0  0  0  0  0
  129.3716  130.8747  158.1275 H   0  0  0  0  0  0  0  0  0  0  0  0
  129.3439  133.1931  154.5554 H   0  0  0  0  0  0  0  0  0  0  0  0
  129.5448  132.0765  152.3727 H   0  0  0  0  0  0  0  0  0  0  0  0
  131.8462  128.9597  154.1617 H   0  0  0  0  0  0  0  0  0  0  0  0
  131.6621  130.0677  156.3502 H   0  0  0  0  0  0  0  0  0  0  0  0
  133.2737  135.4250  159.8525 H   0  0  0  0  0  0  0  0  0  0  0  0
  134.8972  135.8938  161.9420 H   0  0  0  0  0  0  0  0  0  0  0  0
  133.5476  137.1849  164.6800 H   0  0  0  0  0  0  0  0  0  0  0  0
  132.8699  135.6213  165.1938 H   0  0  0  0  0  0  0  0  0  0  0  0
  134.5445  135.7127  164.5976 H   0  0  0  0  0  0  0  0  0  0  0  0
  1  2  1  0
  1 30  1  0
  1 31  1  0
  1 32  1  0
  2  3  2  0
  2 33  1  0
  3  4  1  0
  3 34  1  0
  4  5  1  0
  5  6  1  0
  5 35  1  0
  5 36  1  0
  6  7  1  1
  6  8  1  0
  6 23  1  0
  8 37  1  0
  9  8  1  0
  9 21  2  0
  9 10  1  0
 10 11  1  0
 10 12  1  0
 12 13  2  0
 12 38  1  0
 13 14  1  0
 13 21  1  0
 14 20  1  0
 14 15  2  0
 15 16  1  0
 15 39  1  0
 16 17  2  0
 16 40  1  0
 17 18  1  0
 17 19  1  0
 19 20  2  0
 19 41  1  0
 20 42  1  0
 21 22  1  0
 23 28  1  0
 23 24  2  0
 24 25  1  0
 24 43  1  0
 25 26  2  0
 25 44  1  0
 26 27  1  0
 26 28  1  0
 27 45  1  0
 27 46  1  0
 27 47  1  0
 28 29  1  0
M  CHG  1  21   1
M  END
>  <DOCK_score>  (1) 
-58.897766

>  <SMILES>  (1) 
CC=CSC[C@@H](Nc1[nH]cc(-c2ccc(Br)cc2)[nH+]1)c1ccc(C)[nH]1

$$$$
