Nc1ccc(-c2ccc(C[C@H](Nc3[nH]cc(-c4ccc(N)cc4)[nH+]3)c3ccccc3)cc2)cc1
     RDKit          3D

 62 66  0  0  1  0  0  0  0  0999 V2000
  138.0733  135.4269  165.5630 N   0  0  0  0  0  0  0  0  0  0  0  0
  136.8806  135.5955  164.8582 C   0  0  0  0  0  0  0  0  0  0  0  0
  136.8179  136.5027  163.8067 C   0  0  0  0  0  0  0  0  0  0  0  0
  135.6394  136.6743  163.1124 C   0  0  0  0  0  0  0  0  0  0  0  0
  134.5130  135.9295  163.4584 C   0  0  0  0  0  0  0  0  0  0  0  0
  133.2452  136.1086  162.7092 C   0  0  0  0  0  0  0  0  0  0  0  0
  132.0222  135.9018  163.3445 C   0  0  0  0  0  0  0  0  0  0  0  0
  130.8457  136.0742  162.6438 C   0  0  0  0  0  0  0  0  0  0  0  0
  130.8792  136.4415  161.3105 C   0  0  0  0  0  0  0  0  0  0  0  0
  129.5913  136.6229  160.5494 C   0  0  0  0  0  0  0  0  0  0  0  0
  129.1858  135.2939  159.9090 C   0  0  2  0  0  0  0  0  0  0  0  0
  129.0454  134.5437  160.6870 H   0  0  0  0  0  0  0  0  0  0  0  0
  130.2383  134.8533  158.9901 N   0  0  0  0  0  0  0  0  0  0  0  0
  130.0940  133.6680  158.2895 C   0  0  0  0  0  0  0  0  0  0  0  0
  129.4001  132.5767  158.7127 N   0  0  0  0  0  0  0  0  0  0  0  0
  128.9219  132.4898  159.5521 H   0  0  0  0  0  0  0  0  0  0  0  0
  129.5023  131.6198  157.7308 C   0  0  0  0  0  0  0  0  0  0  0  0
  130.2549  132.1544  156.7377 C   0  0  0  0  0  0  0  0  0  0  0  0
  130.6317  131.4828  155.4697 C   0  0  0  0  0  0  0  0  0  0  0  0
  130.2425  132.0295  154.2479 C   0  0  0  0  0  0  0  0  0  0  0  0
  130.5984  131.4062  153.0703 C   0  0  0  0  0  0  0  0  0  0  0  0
  131.3343  130.2283  153.1011 C   0  0  0  0  0  0  0  0  0  0  0  0
  131.6885  129.5957  151.9071 N   0  0  0  0  0  0  0  0  0  0  0  0
  131.7189  129.6780  154.3188 C   0  0  0  0  0  0  0  0  0  0  0  0
  131.3703  130.3009  155.4985 C   0  0  0  0  0  0  0  0  0  0  0  0
  130.5986  133.4139  157.1067 N   0  0  0  0  0  0  0  0  0  0  0  0
  131.1342  134.0277  156.5801 H   0  0  0  0  0  0  0  0  0  0  0  0
  127.8980  135.4754  159.1478 C   0  0  0  0  0  0  0  0  0  0  0  0
  126.6863  135.2691  159.7802 C   0  0  0  0  0  0  0  0  0  0  0  0
  125.5048  135.4394  159.0831 C   0  0  0  0  0  0  0  0  0  0  0  0
  125.5352  135.8083  157.7510 C   0  0  0  0  0  0  0  0  0  0  0  0
  126.7472  136.0093  157.1172 C   0  0  0  0  0  0  0  0  0  0  0  0
  127.9286  135.8428  157.8155 C   0  0  0  0  0  0  0  0  0  0  0  0
  132.0904  136.6433  160.6736 C   0  0  0  0  0  0  0  0  0  0  0  0
  133.2730  136.4784  161.3659 C   0  0  0  0  0  0  0  0  0  0  0  0
  134.5780  135.0202  164.5131 C   0  0  0  0  0  0  0  0  0  0  0  0
  135.7570  134.8556  165.2083 C   0  0  0  0  0  0  0  0  0  0  0  0
  138.8578  135.9427  165.3191 H   0  0  0  0  0  0  0  0  0  0  0  0
  138.1178  134.7941  166.2968 H   0  0  0  0  0  0  0  0  0  0  0  0
  137.6919  137.0770  163.5366 H   0  0  0  0  0  0  0  0  0  0  0  0
  135.5900  137.3826  162.2985 H   0  0  0  0  0  0  0  0  0  0  0  0
  131.9950  135.6111  164.3843 H   0  0  0  0  0  0  0  0  0  0  0  0
  129.8972  135.9180  163.1362 H   0  0  0  0  0  0  0  0  0  0  0  0
  128.8083  136.9507  161.2331 H   0  0  0  0  0  0  0  0  0  0  0  0
  129.7317  137.3732  159.7713 H   0  0  0  0  0  0  0  0  0  0  0  0
  131.0363  135.3921  158.8725 H   0  0  0  0  0  0  0  0  0  0  0  0
  129.0665  130.6318  157.7473 H   0  0  0  0  0  0  0  0  0  0  0  0
  129.6665  132.9426  154.2232 H   0  0  0  0  0  0  0  0  0  0  0  0
  130.3010  131.8318  152.1234 H   0  0  0  0  0  0  0  0  0  0  0  0
  132.2028  128.7726  151.9285 H   0  0  0  0  0  0  0  0  0  0  0  0
  131.4209  129.9780  151.0576 H   0  0  0  0  0  0  0  0  0  0  0  0
  132.2909  128.7623  154.3406 H   0  0  0  0  0  0  0  0  0  0  0  0
  131.6696  129.8736  156.4442 H   0  0  0  0  0  0  0  0  0  0  0  0
  126.6624  134.9778  160.8199 H   0  0  0  0  0  0  0  0  0  0  0  0
  124.5580  135.2820  159.5781 H   0  0  0  0  0  0  0  0  0  0  0  0
  124.6124  135.9387  157.2056 H   0  0  0  0  0  0  0  0  0  0  0  0
  126.7710  136.2971  156.0765 H   0  0  0  0  0  0  0  0  0  0  0  0
  128.8752  136.0000  157.3202 H   0  0  0  0  0  0  0  0  0  0  0  0
  132.1107  136.9299  159.6326 H   0  0  0  0  0  0  0  0  0  0  0  0
  134.2180  136.6363  160.8675 H   0  0  0  0  0  0  0  0  0  0  0  0
  133.7054  134.4449  164.7851 H   0  0  0  0  0  0  0  0  0  0  0  0
  135.8076  134.1514  166.0256 H   0  0  0  0  0  0  0  0  0  0  0  0
  1  2  1  0
  1 38  1  0
  1 39  1  0
  2 37  2  0
  2  3  1  0
  3  4  2  0
  3 40  1  0
  4  5  1  0
  4 41  1  0
  5  6  1  0
  5 36  2  0
  6 35  1  0
  6  7  2  0
  7  8  1  0
  7 42  1  0
  8  9  2  0
  8 43  1  0
  9 10  1  0
  9 34  1  0
 10 11  1  0
 10 44  1  0
 10 45  1  0
 11 12  1  1
 11 13  1  0
 11 28  1  0
 13 46  1  0
 14 13  1  0
 14 26  2  0
 14 15  1  0
 15 16  1  0
 15 17  1  0
 17 18  2  0
 17 47  1  0
 18 19  1  0
 18 26  1  0
 19 25  1  0
 19 20  2  0
 20 21  1  0
 20 48  1  0
 21 22  2  0
 21 49  1  0
 22 23  1  0
 22 24  1  0
 23 50  1  0
 23 51  1  0
 24 25  2  0
 24 52  1  0
 25 53  1  0
 26 27  1  0
 28 33  1  0
 28 29  2  0
 29 30  1  0
 29 54  1  0
 30 31  2  0
 30 55  1  0
 31 32  1  0
 31 56  1  0
 32 33  2  0
 32 57  1  0
 33 58  1  0
 34 35  2  0
 34 59  1  0
 35 60  1  0
 36 37  1  0
 36 61  1  0
 37 62  1  0
M  CHG  1  26   1
M  END
>  <DOCK_score>  (1) 
-65.848618

>  <SMILES>  (1) 
Nc1ccc(-c2ccc(C[C@H](Nc3[nH]cc(-c4ccc(N)cc4)[nH+]3)c3ccccc3)cc2)cc1

$$$$
