CCc1ccc(-c2c[nH]c(N[C@H](Cc3ccccc3)CC3CCCCC3)[nH+]2)cc1
     RDKit          3D

 63 66  0  0  1  0  0  0  0  0999 V2000
  130.3933  128.6662  151.7794 C   0  0  0  0  0  0  0  0  0  0  0  0
  131.4966  129.6653  152.1326 C   0  0  0  0  0  0  0  0  0  0  0  0
  131.1161  130.4123  153.3849 C   0  0  0  0  0  0  0  0  0  0  0  0
  131.4879  129.9171  154.6218 C   0  0  0  0  0  0  0  0  0  0  0  0
  131.1472  130.5995  155.7720 C   0  0  0  0  0  0  0  0  0  0  0  0
  130.4171  131.7836  155.6862 C   0  0  0  0  0  0  0  0  0  0  0  0
  130.0431  132.5185  156.9191 C   0  0  0  0  0  0  0  0  0  0  0  0
  129.2896  132.0361  157.9382 C   0  0  0  0  0  0  0  0  0  0  0  0
  129.1898  133.0403  158.8702 N   0  0  0  0  0  0  0  0  0  0  0  0
  128.7112  132.9966  159.7128 H   0  0  0  0  0  0  0  0  0  0  0  0
  129.8857  134.1080  158.3930 C   0  0  0  0  0  0  0  0  0  0  0  0
  130.0324  135.3266  159.0335 N   0  0  0  0  0  0  0  0  0  0  0  0
  129.4082  135.5469  160.3404 C   0  0  2  0  0  0  0  0  0  0  0  0
  129.5092  134.6474  160.9476 H   0  0  0  0  0  0  0  0  0  0  0  0
  127.9247  135.8692  160.1493 C   0  0  0  0  0  0  0  0  0  0  0  0
  127.2826  136.0958  161.4937 C   0  0  0  0  0  0  0  0  0  0  0  0
  126.7208  135.0349  162.1789 C   0  0  0  0  0  0  0  0  0  0  0  0
  126.1361  135.2420  163.4143 C   0  0  0  0  0  0  0  0  0  0  0  0
  126.1041  136.5118  163.9597 C   0  0  0  0  0  0  0  0  0  0  0  0
  126.6612  137.5736  163.2721 C   0  0  0  0  0  0  0  0  0  0  0  0
  127.2506  137.3656  162.0390 C   0  0  0  0  0  0  0  0  0  0  0  0
  130.0978  136.7174  161.0442 C   0  0  0  0  0  0  0  0  0  0  0  0
  131.6063  136.6420  160.8000 C   0  0  0  0  0  0  0  0  0  0  0  0
  132.1474  135.3228  161.3552 C   0  0  0  0  0  0  0  0  0  0  0  0
  133.6560  135.2475  161.1112 C   0  0  0  0  0  0  0  0  0  0  0  0
  134.3456  136.4181  161.8149 C   0  0  0  0  0  0  0  0  0  0  0  0
  133.8044  137.7370  161.2598 C   0  0  0  0  0  0  0  0  0  0  0  0
  132.2959  137.8125  161.5038 C   0  0  0  0  0  0  0  0  0  0  0  0
  130.3990  133.7904  157.2296 N   0  0  0  0  0  0  0  0  0  0  0  0
  130.9443  134.3726  156.6776 H   0  0  0  0  0  0  0  0  0  0  0  0
  130.0403  132.2749  154.4375 C   0  0  0  0  0  0  0  0  0  0  0  0
  130.3915  131.5871  153.2937 C   0  0  0  0  0  0  0  0  0  0  0  0
  130.2677  127.9592  152.5996 H   0  0  0  0  0  0  0  0  0  0  0  0
  129.4579  129.2006  151.6141 H   0  0  0  0  0  0  0  0  0  0  0  0
  130.6684  128.1262  150.8734 H   0  0  0  0  0  0  0  0  0  0  0  0
  132.4319  129.1313  152.2977 H   0  0  0  0  0  0  0  0  0  0  0  0
  131.6221  130.3728  151.3121 H   0  0  0  0  0  0  0  0  0  0  0  0
  132.0493  128.9969  154.6874 H   0  0  0  0  0  0  0  0  0  0  0  0
  131.4420  130.2144  156.7369 H   0  0  0  0  0  0  0  0  0  0  0  0
  128.8516  131.0511  158.0043 H   0  0  0  0  0  0  0  0  0  0  0  0
  130.5485  136.0343  158.6170 H   0  0  0  0  0  0  0  0  0  0  0  0
  127.8236  136.7686  159.5420 H   0  0  0  0  0  0  0  0  0  0  0  0
  127.4334  135.0352  159.6479 H   0  0  0  0  0  0  0  0  0  0  0  0
  126.7417  134.0436  161.7508 H   0  0  0  0  0  0  0  0  0  0  0  0
  125.7003  134.4125  163.9514 H   0  0  0  0  0  0  0  0  0  0  0  0
  125.6433  136.6743  164.9229 H   0  0  0  0  0  0  0  0  0  0  0  0
  126.6360  138.5658  163.6980 H   0  0  0  0  0  0  0  0  0  0  0  0
  127.6858  138.1953  161.5017 H   0  0  0  0  0  0  0  0  0  0  0  0
  129.7123  137.6571  160.6487 H   0  0  0  0  0  0  0  0  0  0  0  0
  129.8999  136.6653  162.1148 H   0  0  0  0  0  0  0  0  0  0  0  0
  131.8042  136.6940  159.7295 H   0  0  0  0  0  0  0  0  0  0  0  0
  131.9495  135.2707  162.4258 H   0  0  0  0  0  0  0  0  0  0  0  0
  131.6561  134.4889  160.8538 H   0  0  0  0  0  0  0  0  0  0  0  0
  133.8538  135.2996  160.0405 H   0  0  0  0  0  0  0  0  0  0  0  0
  134.0415  134.3077  161.5066 H   0  0  0  0  0  0  0  0  0  0  0  0
  135.4203  136.3643  161.6410 H   0  0  0  0  0  0  0  0  0  0  0  0
  134.1476  136.3659  162.8855 H   0  0  0  0  0  0  0  0  0  0  0  0
  134.0025  137.7892  160.1892 H   0  0  0  0  0  0  0  0  0  0  0  0
  134.2957  138.5710  161.7611 H   0  0  0  0  0  0  0  0  0  0  0  0
  131.9105  138.7522  161.1085 H   0  0  0  0  0  0  0  0  0  0  0  0
  132.0979  137.7604  162.5745 H   0  0  0  0  0  0  0  0  0  0  0  0
  129.4743  133.1918  154.3652 H   0  0  0  0  0  0  0  0  0  0  0  0
  130.1004  131.9671  152.3256 H   0  0  0  0  0  0  0  0  0  0  0  0
  1  2  1  0
  1 33  1  0
  1 34  1  0
  1 35  1  0
  2  3  1  0
  2 36  1  0
  2 37  1  0
  3 32  2  0
  3  4  1  0
  4  5  2  0
  4 38  1  0
  5  6  1  0
  5 39  1  0
  6  7  1  0
  6 31  2  0
  7 29  1  0
  7  8  2  0
  8  9  1  0
  8 40  1  0
  9 10  1  0
  9 11  1  0
 11 12  1  0
 11 29  2  0
 12 13  1  0
 12 41  1  0
 13 14  1  1
 13 15  1  0
 13 22  1  0
 15 16  1  0
 15 42  1  0
 15 43  1  0
 16 21  1  0
 16 17  2  0
 17 18  1  0
 17 44  1  0
 18 19  2  0
 18 45  1  0
 19 20  1  0
 19 46  1  0
 20 21  2  0
 20 47  1  0
 21 48  1  0
 22 23  1  0
 22 49  1  0
 22 50  1  0
 23 28  1  0
 23 24  1  0
 23 51  1  0
 24 25  1  0
 24 52  1  0
 24 53  1  0
 25 26  1  0
 25 54  1  0
 25 55  1  0
 26 27  1  0
 26 56  1  0
 26 57  1  0
 27 28  1  0
 27 58  1  0
 27 59  1  0
 28 60  1  0
 28 61  1  0
 29 30  1  0
 31 32  1  0
 31 62  1  0
 32 63  1  0
M  CHG  1  29   1
M  END
>  <DOCK_score>  (1) 
-57.380123

>  <SMILES>  (1) 
CCc1ccc(-c2c[nH]c(N[C@H](Cc3ccccc3)CC3CCCCC3)[nH+]2)cc1

$$$$
