Cc1ccc(-c2cc(Nc3[nH]cc(-c4ccc(C(F)(F)F)cc4)[nH+]3)ccc2N)cc1
     RDKit          3D

 50 53  0  0  1  0  0  0  0  0999 V2000
  130.3555  138.2815  167.1820 C   0  0  0  0  0  0  0  0  0  0  0  0
  129.8799  137.8518  165.8181 C   0  0  0  0  0  0  0  0  0  0  0  0
  129.6213  136.5162  165.5678 C   0  0  0  0  0  0  0  0  0  0  0  0
  129.1854  136.1169  164.3207 C   0  0  0  0  0  0  0  0  0  0  0  0
  129.0060  137.0625  163.3125 C   0  0  0  0  0  0  0  0  0  0  0  0
  128.5379  136.6396  161.9703 C   0  0  0  0  0  0  0  0  0  0  0  0
  129.4592  136.2788  160.9904 C   0  0  0  0  0  0  0  0  0  0  0  0
  129.0161  135.8898  159.7359 C   0  0  0  0  0  0  0  0  0  0  0  0
  129.9420  135.5321  158.7476 N   0  0  0  0  0  0  0  0  0  0  0  0
  129.9106  134.2617  158.1966 C   0  0  0  0  0  0  0  0  0  0  0  0
  129.5034  133.1303  158.8348 N   0  0  0  0  0  0  0  0  0  0  0  0
  129.1852  133.0694  159.7491 H   0  0  0  0  0  0  0  0  0  0  0  0
  129.6258  132.0914  157.9450 C   0  0  0  0  0  0  0  0  0  0  0  0
  130.1037  132.6169  156.7896 C   0  0  0  0  0  0  0  0  0  0  0  0
  130.3947  131.8658  155.5439 C   0  0  0  0  0  0  0  0  0  0  0  0
  130.2743  132.4926  154.3049 C   0  0  0  0  0  0  0  0  0  0  0  0
  130.5467  131.7891  153.1492 C   0  0  0  0  0  0  0  0  0  0  0  0
  130.9384  130.4643  153.2190 C   0  0  0  0  0  0  0  0  0  0  0  0
  131.2336  129.7012  151.9535 C   0  0  0  0  0  0  0  0  0  0  0  0
  131.0427  130.5383  150.8490 F   0  0  0  0  0  0  0  0  0  0  0  0
  132.5593  129.2547  151.9767 F   0  0  0  0  0  0  0  0  0  0  0  0
  130.3730  128.6022  151.8601 F   0  0  0  0  0  0  0  0  0  0  0  0
  131.0545  129.8356  154.4458 C   0  0  0  0  0  0  0  0  0  0  0  0
  130.7901  130.5309  155.6082 C   0  0  0  0  0  0  0  0  0  0  0  0
  130.2740  133.9494  156.9765 N   0  0  0  0  0  0  0  0  0  0  0  0
  130.6086  134.5723  156.3124 H   0  0  0  0  0  0  0  0  0  0  0  0
  127.6547  135.8486  159.4585 C   0  0  0  0  0  0  0  0  0  0  0  0
  126.7362  136.1994  160.4283 C   0  0  0  0  0  0  0  0  0  0  0  0
  127.1684  136.5959  161.6858 C   0  0  0  0  0  0  0  0  0  0  0  0
  126.2380  136.9502  162.6662 N   0  0  0  0  0  0  0  0  0  0  0  0
  129.2737  138.4061  163.5688 C   0  0  0  0  0  0  0  0  0  0  0  0
  129.7032  138.7946  164.8215 C   0  0  0  0  0  0  0  0  0  0  0  0
  131.4448  138.2523  167.2128 H   0  0  0  0  0  0  0  0  0  0  0  0
  130.0136  139.2967  167.3830 H   0  0  0  0  0  0  0  0  0  0  0  0
  129.9525  137.6063  167.9368 H   0  0  0  0  0  0  0  0  0  0  0  0
  129.7610  135.7844  166.3497 H   0  0  0  0  0  0  0  0  0  0  0  0
  128.9841  135.0738  164.1262 H   0  0  0  0  0  0  0  0  0  0  0  0
  130.5171  136.3062  161.2060 H   0  0  0  0  0  0  0  0  0  0  0  0
  130.6050  136.1740  158.4490 H   0  0  0  0  0  0  0  0  0  0  0  0
  129.3871  131.0545  158.1299 H   0  0  0  0  0  0  0  0  0  0  0  0
  129.9686  133.5270  154.2493 H   0  0  0  0  0  0  0  0  0  0  0  0
  130.4537  132.2738  152.1886 H   0  0  0  0  0  0  0  0  0  0  0  0
  131.3567  128.7998  154.4941 H   0  0  0  0  0  0  0  0  0  0  0  0
  130.8850  130.0402  156.5656 H   0  0  0  0  0  0  0  0  0  0  0  0
  127.3139  135.5407  158.4812 H   0  0  0  0  0  0  0  0  0  0  0  0
  125.6796  136.1649  160.2075 H   0  0  0  0  0  0  0  0  0  0  0  0
  125.2890  136.9191  162.4680 H   0  0  0  0  0  0  0  0  0  0  0  0
  126.5412  137.2271  163.5450 H   0  0  0  0  0  0  0  0  0  0  0  0
  129.1410  139.1424  162.7898 H   0  0  0  0  0  0  0  0  0  0  0  0
  129.9062  139.8362  165.0226 H   0  0  0  0  0  0  0  0  0  0  0  0
  1  2  1  0
  1 33  1  0
  1 34  1  0
  1 35  1  0
  2 32  2  0
  2  3  1  0
  3  4  2  0
  3 36  1  0
  4  5  1  0
  4 37  1  0
  5  6  1  0
  5 31  2  0
  6 29  1  0
  6  7  2  0
  7  8  1  0
  7 38  1  0
  8  9  1  0
  8 27  2  0
  9 39  1  0
 10  9  1  0
 10 25  2  0
 10 11  1  0
 11 12  1  0
 11 13  1  0
 13 14  2  0
 13 40  1  0
 14 15  1  0
 14 25  1  0
 15 24  1  0
 15 16  2  0
 16 17  1  0
 16 41  1  0
 17 18  2  0
 17 42  1  0
 18 19  1  0
 18 23  1  0
 19 20  1  0
 19 21  1  0
 19 22  1  0
 23 24  2  0
 23 43  1  0
 24 44  1  0
 25 26  1  0
 27 28  1  0
 27 45  1  0
 28 29  2  0
 28 46  1  0
 29 30  1  0
 30 47  1  0
 30 48  1  0
 31 32  1  0
 31 49  1  0
 32 50  1  0
M  CHG  1  25   1
M  END
>  <DOCK_score>  (1) 
-51.060814

>  <SMILES>  (1) 
Cc1ccc(-c2cc(Nc3[nH]cc(-c4ccc(C(F)(F)F)cc4)[nH+]3)ccc2N)cc1

$$$$
