CCNC(N[C@H]1CCC(=O)NC1)=[NH+][C@H]1C[C@H]1N
     RDKit          3D

 39 40  0  0  1  0  0  0  0  0999 V2000
  130.5348  132.0718  158.1912 C   0  0  0  0  0  0  0  0  0  0  0  0
  130.1900  133.4012  157.5169 C   0  0  0  0  0  0  0  0  0  0  0  0
  129.3958  134.2226  158.4338 N   0  0  0  0  0  0  0  0  0  0  0  0
  129.9163  134.5929  159.6512 C   0  0  0  0  0  0  0  0  0  0  0  0
  129.0802  134.7923  160.7242 N   0  0  0  0  0  0  0  0  0  0  0  0
  127.6347  134.6102  160.5704 C   0  0  1  0  0  0  0  0  0  0  0  0
  127.3433  134.8463  159.5470 H   0  0  0  0  0  0  0  0  0  0  0  0
  127.2619  133.1583  160.8933 C   0  0  0  0  0  0  0  0  0  0  0  0
  125.7848  132.9504  160.5494 C   0  0  0  0  0  0  0  0  0  0  0  0
  124.9608  134.0545  161.1472 C   0  0  0  0  0  0  0  0  0  0  0  0
  123.7648  133.8846  161.2543 O   0  0  0  0  0  0  0  0  0  0  0  0
  125.4738  135.2119  161.5661 N   0  0  0  0  0  0  0  0  0  0  0  0
  126.8953  135.5328  161.5402 C   0  0  0  0  0  0  0  0  0  0  0  0
  131.2023  134.7550  159.7881 N   0  0  0  0  0  0  0  0  0  0  0  0
  131.7922  134.6142  159.0310 H   0  0  0  0  0  0  0  0  0  0  0  0
  131.7569  135.1497  161.0853 C   0  0  1  0  0  0  0  0  0  0  0  0
  131.5626  134.4622  161.9085 H   0  0  0  0  0  0  0  0  0  0  0  0
  133.0948  135.8920  161.0858 C   0  0  0  0  0  0  0  0  0  0  0  0
  131.8024  136.6443  161.4089 C   0  0  1  0  0  0  0  0  0  0  0  0
  131.6378  136.9401  162.4450 H   0  0  0  0  0  0  0  0  0  0  0  0
  131.2863  137.5737  160.3951 N   0  0  0  0  0  0  0  0  0  0  0  0
  129.6154  131.5452  158.4471 H   0  0  0  0  0  0  0  0  0  0  0  0
  131.1256  131.4608  157.5089 H   0  0  0  0  0  0  0  0  0  0  0  0
  131.1087  132.2625  159.0980 H   0  0  0  0  0  0  0  0  0  0  0  0
  129.6161  133.2106  156.6100 H   0  0  0  0  0  0  0  0  0  0  0  0
  131.1095  133.9280  157.2610 H   0  0  0  0  0  0  0  0  0  0  0  0
  128.5026  134.5051  158.1819 H   0  0  0  0  0  0  0  0  0  0  0  0
  129.4474  135.0536  161.5832 H   0  0  0  0  0  0  0  0  0  0  0  0
  127.8756  132.4810  160.2993 H   0  0  0  0  0  0  0  0  0  0  0  0
  127.4227  132.9652  161.9539 H   0  0  0  0  0  0  0  0  0  0  0  0
  125.4512  131.9927  160.9488 H   0  0  0  0  0  0  0  0  0  0  0  0
  125.6626  132.9532  159.4662 H   0  0  0  0  0  0  0  0  0  0  0  0
  124.8625  135.8824  161.9094 H   0  0  0  0  0  0  0  0  0  0  0  0
  127.3105  135.4111  162.5407 H   0  0  0  0  0  0  0  0  0  0  0  0
  127.0223  136.5673  161.2210 H   0  0  0  0  0  0  0  0  0  0  0  0
  133.7805  135.6929  161.9093 H   0  0  0  0  0  0  0  0  0  0  0  0
  133.5627  136.0868  160.1208 H   0  0  0  0  0  0  0  0  0  0  0  0
  131.3631  138.5298  160.7086 H   0  0  0  0  0  0  0  0  0  0  0  0
  131.7574  137.4439  159.5123 H   0  0  0  0  0  0  0  0  0  0  0  0
  1  2  1  0
  1 22  1  0
  1 23  1  0
  1 24  1  0
  2  3  1  0
  2 25  1  0
  2 26  1  0
  3 27  1  0
  4  3  1  0
  4  5  1  0
  4 14  2  0
  5  6  1  0
  5 28  1  0
  6  7  1  6
  6 13  1  0
  6  8  1  0
  8  9  1  0
  8 29  1  0
  8 30  1  0
  9 10  1  0
  9 31  1  0
  9 32  1  0
 10 11  2  0
 10 12  1  0
 12 13  1  0
 12 33  1  0
 13 34  1  0
 13 35  1  0
 14 15  1  0
 14 16  1  0
 16 17  1  1
 16 19  1  0
 16 18  1  0
 18 19  1  0
 18 36  1  0
 18 37  1  0
 19 20  1  1
 19 21  1  0
 21 38  1  0
 21 39  1  0
M  CHG  1  14   1
M  END
>  <DOCK_score>  (1) 
-41.393845

>  <SMILES>  (1) 
CCNC(N[C@H]1CCC(=O)NC1)=[NH+][C@H]1C[C@H]1N

$$$$
