CC=C(C)c1c(C)cccc1N1CC[NH+](C(c2ccccc2)c2ccccc2)CC1
     RDKit          3D

 63 66  0  0  1  0  0  0  0  0999 V2000
  133.7394  136.4613  165.3176 C   0  0  0  0  0  0  0  0  0  0  0  0
  134.2538  137.0611  164.0345 C   0  0  0  0  0  0  0  0  0  0  0  0
  133.6392  138.1069  163.4980 C   0  0  0  0  0  0  0  0  0  0  0  0
  132.4263  138.6952  164.1718 C   0  0  0  0  0  0  0  0  0  0  0  0
  134.1433  138.6948  162.2405 C   0  0  0  0  0  0  0  0  0  0  0  0
  135.0929  139.7161  162.2750 C   0  0  0  0  0  0  0  0  0  0  0  0
  135.6082  140.2225  163.5977 C   0  0  0  0  0  0  0  0  0  0  0  0
  135.5558  140.2657  161.0975 C   0  0  0  0  0  0  0  0  0  0  0  0
  135.0906  139.8007  159.8792 C   0  0  0  0  0  0  0  0  0  0  0  0
  134.1502  138.7901  159.8305 C   0  0  0  0  0  0  0  0  0  0  0  0
  133.6699  138.2301  161.0057 C   0  0  0  0  0  0  0  0  0  0  0  0
  132.7212  137.2096  160.9586 N   0  0  0  0  0  0  0  0  0  0  0  0
  133.2668  136.0130  160.3025 C   0  0  0  0  0  0  0  0  0  0  0  0
  132.2174  134.8995  160.3245 C   0  0  0  0  0  0  0  0  0  0  0  0
  131.0076  135.3531  159.6260 N   0  0  0  0  0  0  0  0  0  0  0  0
  131.2389  135.5918  158.6734 H   0  0  0  0  0  0  0  0  0  0  0  0
  130.0070  134.2775  159.6315 C   0  0  0  0  0  0  0  0  0  0  0  0
  128.7656  134.7425  158.9149 C   0  0  0  0  0  0  0  0  0  0  0  0
  127.5293  134.2410  159.2773 C   0  0  0  0  0  0  0  0  0  0  0  0
  126.3903  134.6713  158.6232 C   0  0  0  0  0  0  0  0  0  0  0  0
  126.4882  135.5952  157.5996 C   0  0  0  0  0  0  0  0  0  0  0  0
  127.7248  136.0928  157.2338 C   0  0  0  0  0  0  0  0  0  0  0  0
  128.8635  135.6665  157.8913 C   0  0  0  0  0  0  0  0  0  0  0  0
  130.5674  133.0665  158.9312 C   0  0  0  0  0  0  0  0  0  0  0  0
  130.3837  132.9083  157.5702 C   0  0  0  0  0  0  0  0  0  0  0  0
  130.9018  131.8000  156.9270 C   0  0  0  0  0  0  0  0  0  0  0  0
  131.5949  130.8444  157.6465 C   0  0  0  0  0  0  0  0  0  0  0  0
  131.7740  131.0000  159.0083 C   0  0  0  0  0  0  0  0  0  0  0  0
  131.2603  132.1109  159.6507 C   0  0  0  0  0  0  0  0  0  0  0  0
  130.4604  136.5338  160.3071 C   0  0  0  0  0  0  0  0  0  0  0  0
  131.4953  137.6608  160.2851 C   0  0  0  0  0  0  0  0  0  0  0  0
  132.7146  136.1191  165.1735 H   0  0  0  0  0  0  0  0  0  0  0  0
  134.3678  135.6172  165.6017 H   0  0  0  0  0  0  0  0  0  0  0  0
  133.7636  137.2137  166.1059 H   0  0  0  0  0  0  0  0  0  0  0  0
  135.1231  136.6395  163.5516 H   0  0  0  0  0  0  0  0  0  0  0  0
  131.5283  138.2050  163.7960 H   0  0  0  0  0  0  0  0  0  0  0  0
  132.4995  138.5436  165.2487 H   0  0  0  0  0  0  0  0  0  0  0  0
  132.3739  139.7628  163.9581 H   0  0  0  0  0  0  0  0  0  0  0  0
  136.4852  139.6454  163.8909 H   0  0  0  0  0  0  0  0  0  0  0  0
  134.8321  140.1144  164.3553 H   0  0  0  0  0  0  0  0  0  0  0  0
  135.8799  141.2737  163.5031 H   0  0  0  0  0  0  0  0  0  0  0  0
  136.2874  141.0597  161.1259 H   0  0  0  0  0  0  0  0  0  0  0  0
  135.4616  140.2337  158.9620 H   0  0  0  0  0  0  0  0  0  0  0  0
  133.7882  138.4356  158.8768 H   0  0  0  0  0  0  0  0  0  0  0  0
  133.5245  136.2496  159.2702 H   0  0  0  0  0  0  0  0  0  0  0  0
  134.1594  135.6821  160.8339 H   0  0  0  0  0  0  0  0  0  0  0  0
  131.9701  134.6537  161.3572 H   0  0  0  0  0  0  0  0  0  0  0  0
  132.6151  134.0156  159.8258 H   0  0  0  0  0  0  0  0  0  0  0  0
  129.7572  134.0189  160.6606 H   0  0  0  0  0  0  0  0  0  0  0  0
  127.4534  133.5157  160.0740 H   0  0  0  0  0  0  0  0  0  0  0  0
  125.4239  134.2822  158.9088 H   0  0  0  0  0  0  0  0  0  0  0  0
  125.5986  135.9280  157.0856 H   0  0  0  0  0  0  0  0  0  0  0  0
  127.8014  136.8145  156.4338 H   0  0  0  0  0  0  0  0  0  0  0  0
  129.8298  136.0550  157.6052 H   0  0  0  0  0  0  0  0  0  0  0  0
  129.8384  133.6527  157.0089 H   0  0  0  0  0  0  0  0  0  0  0  0
  130.7614  131.6783  155.8631 H   0  0  0  0  0  0  0  0  0  0  0  0
  131.9958  129.9762  157.1447 H   0  0  0  0  0  0  0  0  0  0  0  0
  132.3152  130.2532  159.5705 H   0  0  0  0  0  0  0  0  0  0  0  0
  131.4001  132.2322  160.7147 H   0  0  0  0  0  0  0  0  0  0  0  0
  130.2221  136.2796  161.3399 H   0  0  0  0  0  0  0  0  0  0  0  0
  129.5554  136.8616  159.7956 H   0  0  0  0  0  0  0  0  0  0  0  0
  131.0952  138.5322  160.8035 H   0  0  0  0  0  0  0  0  0  0  0  0
  131.7238  137.9247  159.2525 H   0  0  0  0  0  0  0  0  0  0  0  0
  1  2  1  0
  1 32  1  0
  1 33  1  0
  1 34  1  0
  2  3  2  0
  2 35  1  0
  3  4  1  0
  3  5  1  0
  4 36  1  0
  4 37  1  0
  4 38  1  0
  5 11  2  0
  5  6  1  0
  6  7  1  0
  6  8  2  0
  7 39  1  0
  7 40  1  0
  7 41  1  0
  8  9  1  0
  8 42  1  0
  9 10  2  0
  9 43  1  0
 10 11  1  0
 10 44  1  0
 11 12  1  0
 12 31  1  0
 12 13  1  0
 13 14  1  0
 13 45  1  0
 13 46  1  0
 14 15  1  0
 14 47  1  0
 14 48  1  0
 15 16  1  0
 15 17  1  0
 15 30  1  0
 17 18  1  0
 17 24  1  0
 17 49  1  0
 18 23  1  0
 18 19  2  0
 19 20  1  0
 19 50  1  0
 20 21  2  0
 20 51  1  0
 21 22  1  0
 21 52  1  0
 22 23  2  0
 22 53  1  0
 23 54  1  0
 24 29  1  0
 24 25  2  0
 25 26  1  0
 25 55  1  0
 26 27  2  0
 26 56  1  0
 27 28  1  0
 27 57  1  0
 28 29  2  0
 28 58  1  0
 29 59  1  0
 30 31  1  0
 30 60  1  0
 30 61  1  0
 31 62  1  0
 31 63  1  0
M  CHG  1  15   1
M  END
>  <DOCK_score>  (1) 
-56.205894

>  <SMILES>  (1) 
CC=C(C)c1c(C)cccc1N1CC[NH+](C(c2ccccc2)c2ccccc2)CC1

$$$$
