FC1(F)C[C@H]1CNc1cc(Nc2ccccc2)c(Cl)c(Nc2[nH]c3ccccc3[nH+]2)c1
     RDKit          3D

 52 56  0  0  1  0  0  0  0  0999 V2000
  123.2718  131.6171  160.6464 F   0  0  0  0  0  0  0  0  0  0  0  0
  124.5528  132.0530  161.0015 C   0  0  0  0  0  0  0  0  0  0  0  0
  125.6124  131.3135  160.4649 F   0  0  0  0  0  0  0  0  0  0  0  0
  124.7372  132.6359  162.4041 C   0  0  0  0  0  0  0  0  0  0  0  0
  124.7621  133.5577  161.1831 C   0  0  1  0  0  0  0  0  0  0  0  0
  123.9017  134.2081  161.0255 H   0  0  0  0  0  0  0  0  0  0  0  0
  126.1141  134.1386  160.7639 C   0  0  0  0  0  0  0  0  0  0  0  0
  126.3162  135.4306  161.4241 N   0  0  0  0  0  0  0  0  0  0  0  0
  127.4877  136.1568  161.1945 C   0  0  0  0  0  0  0  0  0  0  0  0
  127.6817  137.3785  161.8250 C   0  0  0  0  0  0  0  0  0  0  0  0
  128.8431  138.1027  161.5930 C   0  0  0  0  0  0  0  0  0  0  0  0
  129.0363  139.3350  162.2235 N   0  0  0  0  0  0  0  0  0  0  0  0
  128.4714  139.5736  163.4789 C   0  0  0  0  0  0  0  0  0  0  0  0
  127.5659  140.6133  163.6488 C   0  0  0  0  0  0  0  0  0  0  0  0
  127.0092  140.8459  164.8910 C   0  0  0  0  0  0  0  0  0  0  0  0
  127.3520  140.0452  165.9651 C   0  0  0  0  0  0  0  0  0  0  0  0
  128.2530  139.0093  165.7995 C   0  0  0  0  0  0  0  0  0  0  0  0
  128.8136  138.7710  164.5602 C   0  0  0  0  0  0  0  0  0  0  0  0
  129.8161  137.5996  160.7383 C   0  0  0  0  0  0  0  0  0  0  0  0
  131.2713  138.5019  160.4525 Cl  0  0  0  0  0  0  0  0  0  0  0  0
  129.6240  136.3751  160.1125 C   0  0  0  0  0  0  0  0  0  0  0  0
  130.6034  135.8684  159.2515 N   0  0  0  0  0  0  0  0  0  0  0  0
  130.7642  134.5081  159.1168 C   0  0  0  0  0  0  0  0  0  0  0  0
  131.1873  133.8961  158.0128 N   0  0  0  0  0  0  0  0  0  0  0  0
  131.4302  134.3313  157.1806 H   0  0  0  0  0  0  0  0  0  0  0  0
  131.2246  132.5478  158.2520 C   0  0  0  0  0  0  0  0  0  0  0  0
  131.5795  131.4428  157.4836 C   0  0  0  0  0  0  0  0  0  0  0  0
  131.5001  130.1781  158.0249 C   0  0  0  0  0  0  0  0  0  0  0  0
  131.0695  129.9977  159.3312 C   0  0  0  0  0  0  0  0  0  0  0  0
  130.7142  131.0806  160.1057 C   0  0  0  0  0  0  0  0  0  0  0  0
  130.7881  132.3651  159.5745 C   0  0  0  0  0  0  0  0  0  0  0  0
  130.5142  133.6126  160.0696 N   0  0  0  0  0  0  0  0  0  0  0  0
  130.1923  133.8101  160.9630 H   0  0  0  0  0  0  0  0  0  0  0  0
  128.4599  135.6539  160.3409 C   0  0  0  0  0  0  0  0  0  0  0  0
  125.6840  132.4434  162.9086 H   0  0  0  0  0  0  0  0  0  0  0  0
  123.8604  132.6799  163.0501 H   0  0  0  0  0  0  0  0  0  0  0  0
  126.1309  134.2764  159.6828 H   0  0  0  0  0  0  0  0  0  0  0  0
  126.9100  133.4532  161.0553 H   0  0  0  0  0  0  0  0  0  0  0  0
  125.6368  135.7821  162.0206 H   0  0  0  0  0  0  0  0  0  0  0  0
  126.9271  137.7676  162.4925 H   0  0  0  0  0  0  0  0  0  0  0  0
  129.5625  140.0248  161.7896 H   0  0  0  0  0  0  0  0  0  0  0  0
  127.2975  141.2388  162.8104 H   0  0  0  0  0  0  0  0  0  0  0  0
  126.3086  141.6569  165.0248 H   0  0  0  0  0  0  0  0  0  0  0  0
  126.9154  140.2295  166.9355 H   0  0  0  0  0  0  0  0  0  0  0  0
  128.5185  138.3858  166.6405 H   0  0  0  0  0  0  0  0  0  0  0  0
  129.5168  137.9616  164.4315 H   0  0  0  0  0  0  0  0  0  0  0  0
  131.1690  136.4757  158.7494 H   0  0  0  0  0  0  0  0  0  0  0  0
  131.9163  131.5762  156.4661 H   0  0  0  0  0  0  0  0  0  0  0  0
  131.7754  129.3211  157.4280 H   0  0  0  0  0  0  0  0  0  0  0  0
  131.0119  129.0013  159.7439 H   0  0  0  0  0  0  0  0  0  0  0  0
  130.3791  130.9332  161.1218 H   0  0  0  0  0  0  0  0  0  0  0  0
  128.3105  134.7014  159.8540 H   0  0  0  0  0  0  0  0  0  0  0  0
  1  2  1  0
  2  5  1  0
  2  3  1  0
  2  4  1  0
  4  5  1  0
  4 35  1  0
  4 36  1  0
  5  6  1  1
  5  7  1  0
  7  8  1  0
  7 37  1  0
  7 38  1  0
  8  9  1  0
  8 39  1  0
  9 34  1  0
  9 10  2  0
 10 11  1  0
 10 40  1  0
 11 12  1  0
 11 19  2  0
 12 13  1  0
 12 41  1  0
 13 18  1  0
 13 14  2  0
 14 15  1  0
 14 42  1  0
 15 16  2  0
 15 43  1  0
 16 17  1  0
 16 44  1  0
 17 18  2  0
 17 45  1  0
 18 46  1  0
 19 20  1  0
 19 21  1  0
 21 22  1  0
 21 34  2  0
 22 23  1  0
 22 47  1  0
 23 32  1  0
 23 24  2  0
 24 25  1  0
 24 26  1  0
 26 31  2  0
 26 27  1  0
 27 28  2  0
 27 48  1  0
 28 29  1  0
 28 49  1  0
 29 30  2  0
 29 50  1  0
 30 31  1  0
 30 51  1  0
 31 32  1  0
 32 33  1  0
 34 52  1  0
M  CHG  1  24   1
M  END
>  <DOCK_score>  (1) 
-50.616192

>  <SMILES>  (1) 
FC1(F)C[C@H]1CNc1cc(Nc2ccccc2)c(Cl)c(Nc2[nH]c3ccccc3[nH+]2)c1

$$$$
