CCc1cccc([C@H](Cc2ccc(F)cc2)Nc2[nH]cc(-c3ccc(F)cc3)[nH+]2)c1
     RDKit          3D

 54 57  0  0  1  0  0  0  0  0999 V2000
  125.4906  131.2863  160.7209 C   0  0  0  0  0  0  0  0  0  0  0  0
  125.5218  132.5236  161.6204 C   0  0  0  0  0  0  0  0  0  0  0  0
  126.1525  133.6711  160.8745 C   0  0  0  0  0  0  0  0  0  0  0  0
  125.3650  134.5226  160.1225 C   0  0  0  0  0  0  0  0  0  0  0  0
  125.9440  135.5724  159.4342 C   0  0  0  0  0  0  0  0  0  0  0  0
  127.3103  135.7730  159.5015 C   0  0  0  0  0  0  0  0  0  0  0  0
  128.0971  134.9240  160.2567 C   0  0  0  0  0  0  0  0  0  0  0  0
  129.5864  135.1424  160.3298 C   0  0  2  0  0  0  0  0  0  0  0  0
  130.0346  134.3801  160.9671 H   0  0  0  0  0  0  0  0  0  0  0  0
  129.8707  136.5274  160.9144 C   0  0  0  0  0  0  0  0  0  0  0  0
  129.7385  136.4761  162.4147 C   0  0  0  0  0  0  0  0  0  0  0  0
  128.5180  136.7357  163.0099 C   0  0  0  0  0  0  0  0  0  0  0  0
  128.3944  136.6835  164.3853 C   0  0  0  0  0  0  0  0  0  0  0  0
  129.4962  136.3825  165.1679 C   0  0  0  0  0  0  0  0  0  0  0  0
  129.3779  136.3374  166.5130 F   0  0  0  0  0  0  0  0  0  0  0  0
  130.7194  136.1284  164.5711 C   0  0  0  0  0  0  0  0  0  0  0  0
  130.8392  136.1752  163.1951 C   0  0  0  0  0  0  0  0  0  0  0  0
  130.1596  135.0529  158.9845 N   0  0  0  0  0  0  0  0  0  0  0  0
  130.0283  133.8854  158.2523 C   0  0  0  0  0  0  0  0  0  0  0  0
  129.3878  132.7582  158.6658 N   0  0  0  0  0  0  0  0  0  0  0  0
  128.9452  132.6292  159.5194 H   0  0  0  0  0  0  0  0  0  0  0  0
  129.4842  131.8364  157.6514 C   0  0  0  0  0  0  0  0  0  0  0  0
  130.1803  132.4265  156.6485 C   0  0  0  0  0  0  0  0  0  0  0  0
  130.5301  131.8072  155.3466 C   0  0  0  0  0  0  0  0  0  0  0  0
  130.0775  132.3766  154.1577 C   0  0  0  0  0  0  0  0  0  0  0  0
  130.4102  131.8003  152.9489 C   0  0  0  0  0  0  0  0  0  0  0  0
  131.1835  130.6511  152.9164 C   0  0  0  0  0  0  0  0  0  0  0  0
  131.5023  130.0867  151.7310 F   0  0  0  0  0  0  0  0  0  0  0  0
  131.6307  130.0787  154.0958 C   0  0  0  0  0  0  0  0  0  0  0  0
  131.3077  130.6512  155.3090 C   0  0  0  0  0  0  0  0  0  0  0  0
  130.4956  133.6852  157.0442 N   0  0  0  0  0  0  0  0  0  0  0  0
  130.9903  134.3329  156.5181 H   0  0  0  0  0  0  0  0  0  0  0  0
  127.5177  133.8746  160.9458 C   0  0  0  0  0  0  0  0  0  0  0  0
  125.0344  130.4563  161.2604 H   0  0  0  0  0  0  0  0  0  0  0  0
  124.9072  131.5024  159.8259 H   0  0  0  0  0  0  0  0  0  0  0  0
  126.5081  131.0188  160.4356 H   0  0  0  0  0  0  0  0  0  0  0  0
  126.1052  132.3076  162.5153 H   0  0  0  0  0  0  0  0  0  0  0  0
  124.5044  132.7911  161.9055 H   0  0  0  0  0  0  0  0  0  0  0  0
  124.2977  134.3653  160.0697 H   0  0  0  0  0  0  0  0  0  0  0  0
  125.3294  136.2356  158.8437 H   0  0  0  0  0  0  0  0  0  0  0  0
  127.7628  136.5929  158.9636 H   0  0  0  0  0  0  0  0  0  0  0  0
  130.8828  136.8330  160.6490 H   0  0  0  0  0  0  0  0  0  0  0  0
  129.1568  137.2455  160.5111 H   0  0  0  0  0  0  0  0  0  0  0  0
  127.6600  136.9754  162.3994 H   0  0  0  0  0  0  0  0  0  0  0  0
  127.4398  136.8822  164.8498 H   0  0  0  0  0  0  0  0  0  0  0  0
  131.5795  135.8939  165.1806 H   0  0  0  0  0  0  0  0  0  0  0  0
  131.7933  135.9770  162.7294 H   0  0  0  0  0  0  0  0  0  0  0  0
  130.6311  135.8118  158.6068 H   0  0  0  0  0  0  0  0  0  0  0  0
  129.0822  130.8339  157.6524 H   0  0  0  0  0  0  0  0  0  0  0  0
  129.4710  133.2699  154.1824 H   0  0  0  0  0  0  0  0  0  0  0  0
  130.0632  132.2432  152.0270 H   0  0  0  0  0  0  0  0  0  0  0  0
  132.2329  129.1826  154.0657 H   0  0  0  0  0  0  0  0  0  0  0  0
  131.6572  130.2043  156.2280 H   0  0  0  0  0  0  0  0  0  0  0  0
  128.1325  133.2112  161.5359 H   0  0  0  0  0  0  0  0  0  0  0  0
  1  2  1  0
  1 34  1  0
  1 35  1  0
  1 36  1  0
  2  3  1  0
  2 37  1  0
  2 38  1  0
  3 33  2  0
  3  4  1  0
  4  5  2  0
  4 39  1  0
  5  6  1  0
  5 40  1  0
  6  7  2  0
  6 41  1  0
  7  8  1  0
  7 33  1  0
  8  9  1  1
  8 10  1  0
  8 18  1  0
 10 11  1  0
 10 42  1  0
 10 43  1  0
 11 17  1  0
 11 12  2  0
 12 13  1  0
 12 44  1  0
 13 14  2  0
 13 45  1  0
 14 15  1  0
 14 16  1  0
 16 17  2  0
 16 46  1  0
 17 47  1  0
 18 48  1  0
 19 18  1  0
 19 31  2  0
 19 20  1  0
 20 21  1  0
 20 22  1  0
 22 23  2  0
 22 49  1  0
 23 24  1  0
 23 31  1  0
 24 30  1  0
 24 25  2  0
 25 26  1  0
 25 50  1  0
 26 27  2  0
 26 51  1  0
 27 28  1  0
 27 29  1  0
 29 30  2  0
 29 52  1  0
 30 53  1  0
 31 32  1  0
 33 54  1  0
M  CHG  1  31   1
M  END
>  <DOCK_score>  (1) 
-56.274479

>  <SMILES>  (1) 
CCc1cccc([C@H](Cc2ccc(F)cc2)Nc2[nH]cc(-c3ccc(F)cc3)[nH+]2)c1

$$$$
