CCc1ccc(-c2c[nH]c(NC(Cc3ccccc3)Cc3ccccc3)[nH+]2)cc1
     RDKit          3D

 57 60  0  0  1  0  0  0  0  0999 V2000
  130.4326  128.5815  151.4221 C   0  0  0  0  0  0  0  0  0  0  0  0
  131.5517  129.5405  151.8314 C   0  0  0  0  0  0  0  0  0  0  0  0
  131.2336  130.1395  153.1772 C   0  0  0  0  0  0  0  0  0  0  0  0
  131.6631  129.5110  154.3314 C   0  0  0  0  0  0  0  0  0  0  0  0
  131.3778  130.0583  155.5657 C   0  0  0  0  0  0  0  0  0  0  0  0
  130.6464  131.2419  155.6480 C   0  0  0  0  0  0  0  0  0  0  0  0
  130.3325  131.8327  156.9719 C   0  0  0  0  0  0  0  0  0  0  0  0
  129.6179  131.2410  157.9608 C   0  0  0  0  0  0  0  0  0  0  0  0
  129.5703  132.1313  159.0058 N   0  0  0  0  0  0  0  0  0  0  0  0
  129.1304  131.9926  159.8591 H   0  0  0  0  0  0  0  0  0  0  0  0
  130.2508  133.2455  158.6214 C   0  0  0  0  0  0  0  0  0  0  0  0
  130.4327  134.3838  159.3879 N   0  0  0  0  0  0  0  0  0  0  0  0
  129.4217  134.7719  160.3746 C   0  0  0  0  0  0  0  0  0  0  0  0
  130.0536  134.8026  161.7675 C   0  0  0  0  0  0  0  0  0  0  0  0
  131.1821  135.8012  161.7853 C   0  0  0  0  0  0  0  0  0  0  0  0
  132.4665  135.3984  161.4704 C   0  0  0  0  0  0  0  0  0  0  0  0
  133.5008  136.3155  161.4820 C   0  0  0  0  0  0  0  0  0  0  0  0
  133.2526  137.6331  161.8187 C   0  0  0  0  0  0  0  0  0  0  0  0
  131.9692  138.0347  162.1386 C   0  0  0  0  0  0  0  0  0  0  0  0
  130.9339  137.1188  162.1220 C   0  0  0  0  0  0  0  0  0  0  0  0
  128.8793  136.1605  160.0299 C   0  0  0  0  0  0  0  0  0  0  0  0
  127.8554  136.0412  158.9306 C   0  0  0  0  0  0  0  0  0  0  0  0
  128.2481  136.1261  157.6080 C   0  0  0  0  0  0  0  0  0  0  0  0
  127.3096  136.0120  156.5996 C   0  0  0  0  0  0  0  0  0  0  0  0
  125.9767  135.8233  156.9140 C   0  0  0  0  0  0  0  0  0  0  0  0
  125.5832  135.7435  158.2368 C   0  0  0  0  0  0  0  0  0  0  0  0
  126.5226  135.8525  159.2450 C   0  0  0  0  0  0  0  0  0  0  0  0
  130.7048  133.0633  157.4054 N   0  0  0  0  0  0  0  0  0  0  0  0
  131.2236  133.7058  156.8966 H   0  0  0  0  0  0  0  0  0  0  0  0
  130.2112  131.8685  154.4815 C   0  0  0  0  0  0  0  0  0  0  0  0
  130.5064  131.3146  153.2525 C   0  0  0  0  0  0  0  0  0  0  0  0
  130.3455  127.7867  152.1630 H   0  0  0  0  0  0  0  0  0  0  0  0
  129.4910  129.1272  151.3624 H   0  0  0  0  0  0  0  0  0  0  0  0
  130.6635  128.1476  150.4492 H   0  0  0  0  0  0  0  0  0  0  0  0
  132.4942  128.9944  151.8916 H   0  0  0  0  0  0  0  0  0  0  0  0
  131.6396  130.3349  151.0909 H   0  0  0  0  0  0  0  0  0  0  0  0
  132.2267  128.5921  154.2666 H   0  0  0  0  0  0  0  0  0  0  0  0
  131.7178  129.5688  156.4664 H   0  0  0  0  0  0  0  0  0  0  0  0
  129.1733  130.2571  157.9330 H   0  0  0  0  0  0  0  0  0  0  0  0
  131.2297  134.9245  159.2717 H   0  0  0  0  0  0  0  0  0  0  0  0
  128.6054  134.0497  160.3617 H   0  0  0  0  0  0  0  0  0  0  0  0
  129.3013  135.0914  162.5016 H   0  0  0  0  0  0  0  0  0  0  0  0
  130.4399  133.8134  162.0131 H   0  0  0  0  0  0  0  0  0  0  0  0
  132.6612  134.3681  161.2117 H   0  0  0  0  0  0  0  0  0  0  0  0
  134.5036  136.0016  161.2324 H   0  0  0  0  0  0  0  0  0  0  0  0
  134.0615  138.3485  161.8321 H   0  0  0  0  0  0  0  0  0  0  0  0
  131.7753  139.0640  162.4021 H   0  0  0  0  0  0  0  0  0  0  0  0
  129.9313  137.4325  162.3723 H   0  0  0  0  0  0  0  0  0  0  0  0
  128.4148  136.5987  160.9131 H   0  0  0  0  0  0  0  0  0  0  0  0
  129.6982  136.7978  159.6960 H   0  0  0  0  0  0  0  0  0  0  0  0
  129.2889  136.2780  157.3624 H   0  0  0  0  0  0  0  0  0  0  0  0
  127.6169  136.0747  155.5662 H   0  0  0  0  0  0  0  0  0  0  0  0
  125.2427  135.7385  156.1262 H   0  0  0  0  0  0  0  0  0  0  0  0
  124.5419  135.5965  158.4824 H   0  0  0  0  0  0  0  0  0  0  0  0
  126.2151  135.7906  160.2785 H   0  0  0  0  0  0  0  0  0  0  0  0
  129.6437  132.7856  154.5394 H   0  0  0  0  0  0  0  0  0  0  0  0
  130.1698  131.7993  152.3480 H   0  0  0  0  0  0  0  0  0  0  0  0
  1  2  1  0
  1 32  1  0
  1 33  1  0
  1 34  1  0
  2  3  1  0
  2 35  1  0
  2 36  1  0
  3 31  2  0
  3  4  1  0
  4  5  2  0
  4 37  1  0
  5  6  1  0
  5 38  1  0
  6  7  1  0
  6 30  2  0
  7 28  1  0
  7  8  2  0
  8  9  1  0
  8 39  1  0
  9 10  1  0
  9 11  1  0
 11 12  1  0
 11 28  2  0
 12 13  1  0
 12 40  1  0
 13 14  1  0
 13 21  1  0
 13 41  1  0
 14 15  1  0
 14 42  1  0
 14 43  1  0
 15 20  1  0
 15 16  2  0
 16 17  1  0
 16 44  1  0
 17 18  2  0
 17 45  1  0
 18 19  1  0
 18 46  1  0
 19 20  2  0
 19 47  1  0
 20 48  1  0
 21 22  1  0
 21 49  1  0
 21 50  1  0
 22 27  1  0
 22 23  2  0
 23 24  1  0
 23 51  1  0
 24 25  2  0
 24 52  1  0
 25 26  1  0
 25 53  1  0
 26 27  2  0
 26 54  1  0
 27 55  1  0
 28 29  1  0
 30 31  1  0
 30 56  1  0
 31 57  1  0
M  CHG  1  28   1
M  END
>  <DOCK_score>  (1) 
-58.610806

>  <SMILES>  (1) 
CCc1ccc(-c2c[nH]c(NC(Cc3ccccc3)Cc3ccccc3)[nH+]2)cc1

$$$$
