CC1C[C@H]1CC(Nc1[nH]cc(-c2cccnc2)[nH+]1)c1ccnn1C
     RDKit          3D

 47 50  0  0  1  0  0  0  0  0999 V2000
  134.0745  137.1413  160.9532 C   0  0  0  0  0  0  0  0  0  0  0  0
  132.7801  137.7811  160.4472 C   0  0  2  0  0  0  0  0  0  0  0  0
  132.3918  139.1430  161.0266 C   0  0  0  0  0  0  0  0  0  0  0  0
  131.6139  137.8894  161.4317 C   0  0  1  0  0  0  0  0  0  0  0  0
  131.7683  137.5049  162.4399 H   0  0  0  0  0  0  0  0  0  0  0  0
  130.1995  137.7242  160.8722 C   0  0  0  0  0  0  0  0  0  0  0  0
  129.8924  136.2363  160.6926 C   0  0  2  0  0  0  0  0  0  0  0  0
  130.5075  135.7568  159.4524 N   0  0  0  0  0  0  0  0  0  0  0  0
  130.3649  134.4322  159.0761 C   0  0  0  0  0  0  0  0  0  0  0  0
  129.6763  133.4819  159.7654 N   0  0  0  0  0  0  0  0  0  0  0  0
  129.2045  133.6089  160.6034 H   0  0  0  0  0  0  0  0  0  0  0  0
  129.7731  132.3098  159.0556 C   0  0  0  0  0  0  0  0  0  0  0  0
  130.5175  132.5771  157.9541 C   0  0  0  0  0  0  0  0  0  0  0  0
  130.8858  131.6081  156.8931 C   0  0  0  0  0  0  0  0  0  0  0  0
  130.5006  131.8262  155.5670 C   0  0  0  0  0  0  0  0  0  0  0  0
  130.8689  130.8923  154.6143 C   0  0  0  0  0  0  0  0  0  0  0  0
  131.5994  129.7832  155.0012 C   0  0  0  0  0  0  0  0  0  0  0  0
  131.9485  129.6042  156.2605 N   0  0  0  0  0  0  0  0  0  0  0  0
  131.6260  130.4684  157.2010 C   0  0  0  0  0  0  0  0  0  0  0  0
  130.8662  133.8876  157.9943 N   0  0  0  0  0  0  0  0  0  0  0  0
  131.4008  134.3481  157.3288 H   0  0  0  0  0  0  0  0  0  0  0  0
  128.4003  136.0359  160.6233 C   0  0  0  0  0  0  0  0  0  0  0  0
  127.5767  135.8059  161.6721 C   0  0  0  0  0  0  0  0  0  0  0  0
  126.2745  135.6810  161.1772 C   0  0  0  0  0  0  0  0  0  0  0  0
  126.3159  135.8230  159.8772 N   0  0  0  0  0  0  0  0  0  0  0  0
  127.6471  136.0480  159.5037 N   0  0  0  0  0  0  0  0  0  0  0  0
  128.1355  136.2587  158.1386 C   0  0  0  0  0  0  0  0  0  0  0  0
  133.8731  136.1194  161.2748 H   0  0  0  0  0  0  0  0  0  0  0  0
  134.8124  137.1310  160.1512 H   0  0  0  0  0  0  0  0  0  0  0  0
  134.4600  137.7175  161.7943 H   0  0  0  0  0  0  0  0  0  0  0  0
  132.5397  137.5922  159.4010 H   0  0  0  0  0  0  0  0  0  0  0  0
  131.8960  139.8500  160.3614 H   0  0  0  0  0  0  0  0  0  0  0  0
  133.0583  139.5833  161.7683 H   0  0  0  0  0  0  0  0  0  0  0  0
  130.1289  138.2286  159.9084 H   0  0  0  0  0  0  0  0  0  0  0  0
  129.4811  138.1625  161.5650 H   0  0  0  0  0  0  0  0  0  0  0  0
  130.2952  135.6776  161.5375 H   0  0  0  0  0  0  0  0  0  0  0  0
  131.0146  136.3674  158.8949 H   0  0  0  0  0  0  0  0  0  0  0  0
  129.3399  131.3576  159.3238 H   0  0  0  0  0  0  0  0  0  0  0  0
  129.9304  132.7016  155.2928 H   0  0  0  0  0  0  0  0  0  0  0  0
  130.5892  131.0281  153.5801 H   0  0  0  0  0  0  0  0  0  0  0  0
  131.8882  129.0522  154.2605 H   0  0  0  0  0  0  0  0  0  0  0  0
  131.9344  130.2898  158.2204 H   0  0  0  0  0  0  0  0  0  0  0  0
  127.8724  135.7338  162.7083 H   0  0  0  0  0  0  0  0  0  0  0  0
  125.3883  135.4956  161.7661 H   0  0  0  0  0  0  0  0  0  0  0  0
  128.3976  135.2986  157.6943 H   0  0  0  0  0  0  0  0  0  0  0  0
  127.3560  136.7339  157.5431 H   0  0  0  0  0  0  0  0  0  0  0  0
  129.0162  136.9005  158.1628 H   0  0  0  0  0  0  0  0  0  0  0  0
  1  2  1  0
  1 28  1  0
  1 29  1  0
  1 30  1  0
  2  4  1  0
  2  3  1  0
  2 31  1  6
  3  4  1  0
  3 32  1  0
  3 33  1  0
  4  5  1  1
  4  6  1  0
  6  7  1  0
  6 34  1  0
  6 35  1  0
  7  8  1  0
  7 22  1  0
  7 36  1  1
  8 37  1  0
  9  8  1  0
  9 20  2  0
  9 10  1  0
 10 11  1  0
 10 12  1  0
 12 13  2  0
 12 38  1  0
 13 14  1  0
 13 20  1  0
 14 19  1  0
 14 15  2  0
 15 16  1  0
 15 39  1  0
 16 17  2  0
 16 40  1  0
 17 18  1  0
 17 41  1  0
 18 19  2  0
 19 42  1  0
 20 21  1  0
 22 26  1  0
 22 23  2  0
 23 24  1  0
 23 43  1  0
 24 25  2  0
 24 44  1  0
 25 26  1  0
 26 27  1  0
 27 45  1  0
 27 46  1  0
 27 47  1  0
M  CHG  1  20   1
M  END
>  <DOCK_score>  (1) 
-54.412457

>  <SMILES>  (1) 
CC1C[C@H]1CC(Nc1[nH]cc(-c2cccnc2)[nH+]1)c1ccnn1C

$$$$
