Brc1ccc(-c2c[nH]c(N[C@@H](CC3=CCCCC3)Cc3ccccc3)[nH+]2)cc1
     RDKit          3D

 55 58  0  0  1  0  0  0  0  0999 V2000
  136.7701  141.1928  161.3546 Br  0  0  0  0  0  0  0  0  0  0  0  0
  135.7123  139.6340  161.1885 C   0  0  0  0  0  0  0  0  0  0  0  0
  135.3141  139.2011  159.9356 C   0  0  0  0  0  0  0  0  0  0  0  0
  134.5419  138.0645  159.8089 C   0  0  0  0  0  0  0  0  0  0  0  0
  134.1631  137.3521  160.9453 C   0  0  0  0  0  0  0  0  0  0  0  0
  133.3326  136.1300  160.8152 C   0  0  0  0  0  0  0  0  0  0  0  0
  133.3537  135.0587  161.6463 C   0  0  0  0  0  0  0  0  0  0  0  0
  132.4346  134.1598  161.1614 N   0  0  0  0  0  0  0  0  0  0  0  0
  132.2214  133.2939  161.5430 H   0  0  0  0  0  0  0  0  0  0  0  0
  131.8784  134.7090  160.0473 C   0  0  0  0  0  0  0  0  0  0  0  0
  130.9044  134.1208  159.2588 N   0  0  0  0  0  0  0  0  0  0  0  0
  130.3872  132.7936  159.6015 C   0  0  1  0  0  0  0  0  0  0  0  0
  131.2041  132.0720  159.5928 H   0  0  0  0  0  0  0  0  0  0  0  0
  129.7585  132.8357  160.9957 C   0  0  0  0  0  0  0  0  0  0  0  0
  128.3741  133.4237  160.9050 C   0  0  0  0  0  0  0  0  0  0  0  0
  127.3777  132.6932  161.2914 C   0  0  0  0  0  0  0  0  0  0  0  0
  125.9447  133.1365  161.2519 C   0  0  0  0  0  0  0  0  0  0  0  0
  125.8676  134.6582  161.1103 C   0  0  0  0  0  0  0  0  0  0  0  0
  126.7869  135.0856  159.9591 C   0  0  0  0  0  0  0  0  0  0  0  0
  128.2366  134.8221  160.3781 C   0  0  0  0  0  0  0  0  0  0  0  0
  129.3291  132.3785  158.5772 C   0  0  0  0  0  0  0  0  0  0  0  0
  130.0080  131.8647  157.3338 C   0  0  0  0  0  0  0  0  0  0  0  0
  130.3202  132.7357  156.3067 C   0  0  0  0  0  0  0  0  0  0  0  0
  130.9481  132.2654  155.1685 C   0  0  0  0  0  0  0  0  0  0  0  0
  131.2588  130.9232  155.0550 C   0  0  0  0  0  0  0  0  0  0  0  0
  130.9417  130.0513  156.0798 C   0  0  0  0  0  0  0  0  0  0  0  0
  130.3138  130.5216  157.2180 C   0  0  0  0  0  0  0  0  0  0  0  0
  132.4211  135.8840  159.8408 N   0  0  0  0  0  0  0  0  0  0  0  0
  132.2042  136.4831  159.1094 H   0  0  0  0  0  0  0  0  0  0  0  0
  134.5628  137.7951  162.2050 C   0  0  0  0  0  0  0  0  0  0  0  0
  135.3393  138.9299  162.3202 C   0  0  0  0  0  0  0  0  0  0  0  0
  135.6082  139.7538  159.0556 H   0  0  0  0  0  0  0  0  0  0  0  0
  134.2317  137.7276  158.8308 H   0  0  0  0  0  0  0  0  0  0  0  0
  133.9746  134.9352  162.5213 H   0  0  0  0  0  0  0  0  0  0  0  0
  130.5644  134.5875  158.4793 H   0  0  0  0  0  0  0  0  0  0  0  0
  129.6982  131.8244  161.3978 H   0  0  0  0  0  0  0  0  0  0  0  0
  130.3727  133.4518  161.6526 H   0  0  0  0  0  0  0  0  0  0  0  0
  127.5913  131.7028  161.6660 H   0  0  0  0  0  0  0  0  0  0  0  0
  125.4451  132.6690  160.4034 H   0  0  0  0  0  0  0  0  0  0  0  0
  125.4471  132.8338  162.1732 H   0  0  0  0  0  0  0  0  0  0  0  0
  124.8421  134.9542  160.8893 H   0  0  0  0  0  0  0  0  0  0  0  0
  126.1931  135.1295  162.0376 H   0  0  0  0  0  0  0  0  0  0  0  0
  126.5491  134.5075  159.0662 H   0  0  0  0  0  0  0  0  0  0  0  0
  126.6496  136.1476  159.7553 H   0  0  0  0  0  0  0  0  0  0  0  0
  128.5264  135.5307  161.1542 H   0  0  0  0  0  0  0  0  0  0  0  0
  128.8891  134.9485  159.5143 H   0  0  0  0  0  0  0  0  0  0  0  0
  128.7108  133.2398  158.3241 H   0  0  0  0  0  0  0  0  0  0  0  0
  128.7027  131.5930  159.0001 H   0  0  0  0  0  0  0  0  0  0  0  0
  130.0779  133.7844  156.3955 H   0  0  0  0  0  0  0  0  0  0  0  0
  131.1962  132.9466  154.3681 H   0  0  0  0  0  0  0  0  0  0  0  0
  131.7495  130.5557  154.1659 H   0  0  0  0  0  0  0  0  0  0  0  0
  131.1847  129.0027  155.9913 H   0  0  0  0  0  0  0  0  0  0  0  0
  130.0664  129.8405  158.0188 H   0  0  0  0  0  0  0  0  0  0  0  0
  134.2685  137.2489  163.0891 H   0  0  0  0  0  0  0  0  0  0  0  0
  135.6532  139.2715  163.2956 H   0  0  0  0  0  0  0  0  0  0  0  0
  1  2  1  0
  2 31  2  0
  2  3  1  0
  3  4  2  0
  3 32  1  0
  4  5  1  0
  4 33  1  0
  5  6  1  0
  5 30  2  0
  6 28  1  0
  6  7  2  0
  7  8  1  0
  7 34  1  0
  8  9  1  0
  8 10  1  0
 10 11  1  0
 10 28  2  0
 11 12  1  0
 11 35  1  0
 12 13  1  1
 12 14  1  0
 12 21  1  0
 14 15  1  0
 14 36  1  0
 14 37  1  0
 15 20  1  0
 15 16  2  0
 16 17  1  0
 16 38  1  0
 17 18  1  0
 17 39  1  0
 17 40  1  0
 18 19  1  0
 18 41  1  0
 18 42  1  0
 19 20  1  0
 19 43  1  0
 19 44  1  0
 20 45  1  0
 20 46  1  0
 21 22  1  0
 21 47  1  0
 21 48  1  0
 22 27  1  0
 22 23  2  0
 23 24  1  0
 23 49  1  0
 24 25  2  0
 24 50  1  0
 25 26  1  0
 25 51  1  0
 26 27  2  0
 26 52  1  0
 27 53  1  0
 28 29  1  0
 30 31  1  0
 30 54  1  0
 31 55  1  0
M  CHG  1  28   1
M  END
>  <DOCK_score>  (1) 
-55.484222

>  <SMILES>  (1) 
Brc1ccc(-c2c[nH]c(N[C@@H](CC3=CCCCC3)Cc3ccccc3)[nH+]2)cc1

$$$$
