Cc1ccc(C[C@H](Nc2[nH]cc(-c3ccc(N)cc3)[nH+]2)c2ncccc2C2CC2)cc1
     RDKit          3D

 59 63  0  0  1  0  0  0  0  0999 V2000
  133.5474  135.4680  164.1620 C   0  0  0  0  0  0  0  0  0  0  0  0
  132.5526  135.7461  163.0647 C   0  0  0  0  0  0  0  0  0  0  0  0
  131.2005  135.7817  163.3502 C   0  0  0  0  0  0  0  0  0  0  0  0
  130.2885  136.0424  162.3447 C   0  0  0  0  0  0  0  0  0  0  0  0
  130.7280  136.2618  161.0527 C   0  0  0  0  0  0  0  0  0  0  0  0
  129.7336  136.5452  159.9563 C   0  0  0  0  0  0  0  0  0  0  0  0
  129.2963  135.2285  159.3114 C   0  0  2  0  0  0  0  0  0  0  0  0
  129.1697  134.4700  160.0840 H   0  0  0  0  0  0  0  0  0  0  0  0
  130.3181  134.7886  158.3582 N   0  0  0  0  0  0  0  0  0  0  0  0
  130.1418  133.6136  157.6476 C   0  0  0  0  0  0  0  0  0  0  0  0
  129.4483  132.5243  158.0766 N   0  0  0  0  0  0  0  0  0  0  0  0
  128.9926  132.4319  158.9280 H   0  0  0  0  0  0  0  0  0  0  0  0
  129.5131  131.5789  157.0807 C   0  0  0  0  0  0  0  0  0  0  0  0
  130.2436  132.1180  156.0736 C   0  0  0  0  0  0  0  0  0  0  0  0
  130.5780  131.4583  154.7876 C   0  0  0  0  0  0  0  0  0  0  0  0
  130.1611  132.0241  153.5837 C   0  0  0  0  0  0  0  0  0  0  0  0
  130.4775  131.4119  152.3893 C   0  0  0  0  0  0  0  0  0  0  0  0
  131.2014  130.2260  152.3854 C   0  0  0  0  0  0  0  0  0  0  0  0
  131.5157  129.6047  151.1744 N   0  0  0  0  0  0  0  0  0  0  0  0
  131.6138  129.6569  153.5850 C   0  0  0  0  0  0  0  0  0  0  0  0
  131.3046  130.2687  154.7814 C   0  0  0  0  0  0  0  0  0  0  0  0
  130.6107  133.3691  156.4482 N   0  0  0  0  0  0  0  0  0  0  0  0
  131.1381  133.9839  155.9145 H   0  0  0  0  0  0  0  0  0  0  0  0
  127.9897  135.4326  158.5889 C   0  0  0  0  0  0  0  0  0  0  0  0
  127.9958  135.7986  157.3218 N   0  0  0  0  0  0  0  0  0  0  0  0
  126.8776  135.9834  156.6479 C   0  0  0  0  0  0  0  0  0  0  0  0
  125.6486  135.8090  157.2563 C   0  0  0  0  0  0  0  0  0  0  0  0
  125.6022  135.4298  158.5888 C   0  0  0  0  0  0  0  0  0  0  0  0
  126.7990  135.2394  159.2631 C   0  0  0  0  0  0  0  0  0  0  0  0
  126.8011  134.8266  160.7124 C   0  0  0  0  0  0  0  0  0  0  0  0
  127.0067  133.3429  161.0240 C   0  0  0  0  0  0  0  0  0  0  0  0
  125.6274  133.9790  161.2071 C   0  0  0  0  0  0  0  0  0  0  0  0
  132.0797  136.2210  160.7661 C   0  0  0  0  0  0  0  0  0  0  0  0
  132.9918  135.9612  161.7718 C   0  0  0  0  0  0  0  0  0  0  0  0
  133.7196  134.3940  164.2326 H   0  0  0  0  0  0  0  0  0  0  0  0
  134.4869  135.9727  163.9371 H   0  0  0  0  0  0  0  0  0  0  0  0
  133.1549  135.8359  165.1100 H   0  0  0  0  0  0  0  0  0  0  0  0
  130.8570  135.6102  164.3596 H   0  0  0  0  0  0  0  0  0  0  0  0
  129.2324  136.0743  162.5685 H   0  0  0  0  0  0  0  0  0  0  0  0
  128.8640  137.0506  160.3763 H   0  0  0  0  0  0  0  0  0  0  0  0
  130.1957  137.1831  159.2027 H   0  0  0  0  0  0  0  0  0  0  0  0
  131.1181  135.3207  158.2248 H   0  0  0  0  0  0  0  0  0  0  0  0
  129.0676  130.5952  157.0972 H   0  0  0  0  0  0  0  0  0  0  0  0
  129.5942  132.9433  153.5863 H   0  0  0  0  0  0  0  0  0  0  0  0
  130.1585  131.8522  151.4562 H   0  0  0  0  0  0  0  0  0  0  0  0
  132.0216  128.7763  151.1714 H   0  0  0  0  0  0  0  0  0  0  0  0
  131.2287  130.0004  150.3372 H   0  0  0  0  0  0  0  0  0  0  0  0
  132.1763  128.7351  153.5799 H   0  0  0  0  0  0  0  0  0  0  0  0
  131.6254  129.8265  155.7133 H   0  0  0  0  0  0  0  0  0  0  0  0
  126.9224  136.2784  155.6100 H   0  0  0  0  0  0  0  0  0  0  0  0
  124.7362  135.9664  156.7005 H   0  0  0  0  0  0  0  0  0  0  0  0
  124.6566  135.2865  159.0902 H   0  0  0  0  0  0  0  0  0  0  0  0
  127.2271  135.5508  161.4069 H   0  0  0  0  0  0  0  0  0  0  0  0
  127.1404  132.6653  160.1806 H   0  0  0  0  0  0  0  0  0  0  0  0
  127.5682  133.0906  161.9235 H   0  0  0  0  0  0  0  0  0  0  0  0
  125.2814  134.1453  162.2274 H   0  0  0  0  0  0  0  0  0  0  0  0
  124.8537  133.7201  160.4845 H   0  0  0  0  0  0  0  0  0  0  0  0
  132.4231  136.3917  159.7564 H   0  0  0  0  0  0  0  0  0  0  0  0
  134.0479  135.9289  161.5479 H   0  0  0  0  0  0  0  0  0  0  0  0
  1  2  1  0
  1 35  1  0
  1 36  1  0
  1 37  1  0
  2 34  2  0
  2  3  1  0
  3  4  2  0
  3 38  1  0
  4  5  1  0
  4 39  1  0
  5  6  1  0
  5 33  2  0
  6  7  1  0
  6 40  1  0
  6 41  1  0
  7  8  1  1
  7  9  1  0
  7 24  1  0
  9 42  1  0
 10  9  1  0
 10 22  2  0
 10 11  1  0
 11 12  1  0
 11 13  1  0
 13 14  2  0
 13 43  1  0
 14 15  1  0
 14 22  1  0
 15 21  1  0
 15 16  2  0
 16 17  1  0
 16 44  1  0
 17 18  2  0
 17 45  1  0
 18 19  1  0
 18 20  1  0
 19 46  1  0
 19 47  1  0
 20 21  2  0
 20 48  1  0
 21 49  1  0
 22 23  1  0
 24 29  1  0
 24 25  2  0
 25 26  1  0
 26 27  2  0
 26 50  1  0
 27 28  1  0
 27 51  1  0
 28 29  2  0
 28 52  1  0
 29 30  1  0
 30 32  1  0
 30 31  1  0
 30 53  1  0
 31 32  1  0
 31 54  1  0
 31 55  1  0
 32 56  1  0
 32 57  1  0
 33 34  1  0
 33 58  1  0
 34 59  1  0
M  CHG  1  22   1
M  END
>  <DOCK_score>  (1) 
-61.908337

>  <SMILES>  (1) 
Cc1ccc(C[C@H](Nc2[nH]cc(-c3ccc(N)cc3)[nH+]2)c2ncccc2C2CC2)cc1

$$$$
