[NH3+][C@@H](C(=O)Nc1cccc(O)c1)c1cc(NCCc2ccc(F)cc2F)ccc1F
     RDKit          3D

 51 53  0  0  1  0  0  0  0  0999 V2000
  131.0414  133.4730  157.8961 N   0  0  0  0  0  0  0  0  0  0  0  0
  131.9475  133.8743  157.7068 H   0  0  0  0  0  0  0  0  0  0  0  0
  131.1525  132.6401  158.4548 H   0  0  0  0  0  0  0  0  0  0  0  0
  130.5898  133.2362  157.0254 H   0  0  0  0  0  0  0  0  0  0  0  0
  130.2178  134.4461  158.6262 C   0  0  1  0  0  0  0  0  0  0  0  0
  130.0978  135.3458  158.0227 H   0  0  0  0  0  0  0  0  0  0  0  0
  128.8643  133.8467  158.9089 C   0  0  0  0  0  0  0  0  0  0  0  0
  128.3925  133.0284  158.1480 O   0  0  0  0  0  0  0  0  0  0  0  0
  128.1782  134.2197  160.0074 N   0  0  0  0  0  0  0  0  0  0  0  0
  126.9217  133.6631  160.2700 C   0  0  0  0  0  0  0  0  0  0  0  0
  126.6285  132.3744  159.8415 C   0  0  0  0  0  0  0  0  0  0  0  0
  125.3901  131.8229  160.1059 C   0  0  0  0  0  0  0  0  0  0  0  0
  124.4358  132.5549  160.7868 C   0  0  0  0  0  0  0  0  0  0  0  0
  124.7211  133.8445  161.2122 C   0  0  0  0  0  0  0  0  0  0  0  0
  123.7816  134.5633  161.8811 O   0  0  0  0  0  0  0  0  0  0  0  0
  125.9649  134.3995  160.9538 C   0  0  0  0  0  0  0  0  0  0  0  0
  130.8921  134.7997  159.9265 C   0  0  0  0  0  0  0  0  0  0  0  0
  130.7095  136.0519  160.4806 C   0  0  0  0  0  0  0  0  0  0  0  0
  131.3358  136.3792  161.6760 C   0  0  0  0  0  0  0  0  0  0  0  0
  131.1575  137.6481  162.2354 N   0  0  0  0  0  0  0  0  0  0  0  0
  131.4289  137.8659  163.6584 C   0  0  0  0  0  0  0  0  0  0  0  0
  131.1567  139.3298  164.0112 C   0  0  0  0  0  0  0  0  0  0  0  0
  129.7149  139.6570  163.7188 C   0  0  0  0  0  0  0  0  0  0  0  0
  128.7539  139.4778  164.6961 C   0  0  0  0  0  0  0  0  0  0  0  0
  127.4323  139.7827  164.4311 C   0  0  0  0  0  0  0  0  0  0  0  0
  127.0677  140.2578  163.1823 C   0  0  0  0  0  0  0  0  0  0  0  0
  125.7749  140.5510  162.9220 F   0  0  0  0  0  0  0  0  0  0  0  0
  128.0281  140.4323  162.2015 C   0  0  0  0  0  0  0  0  0  0  0  0
  129.3527  140.1317  162.4697 C   0  0  0  0  0  0  0  0  0  0  0  0
  130.2913  140.3013  161.5129 F   0  0  0  0  0  0  0  0  0  0  0  0
  132.1400  135.4441  162.3149 C   0  0  0  0  0  0  0  0  0  0  0  0
  132.3152  134.1916  161.7604 C   0  0  0  0  0  0  0  0  0  0  0  0
  131.6896  133.8674  160.5681 C   0  0  0  0  0  0  0  0  0  0  0  0
  131.8623  132.6414  160.0274 F   0  0  0  0  0  0  0  0  0  0  0  0
  128.5556  134.8741  160.6159 H   0  0  0  0  0  0  0  0  0  0  0  0
  127.3709  131.8020  159.3053 H   0  0  0  0  0  0  0  0  0  0  0  0
  125.1654  130.8195  159.7755 H   0  0  0  0  0  0  0  0  0  0  0  0
  123.4669  132.1225  160.9884 H   0  0  0  0  0  0  0  0  0  0  0  0
  124.0722  135.4495  162.1363 H   0  0  0  0  0  0  0  0  0  0  0  0
  126.1888  135.4030  161.2843 H   0  0  0  0  0  0  0  0  0  0  0  0
  130.0838  136.7774  159.9821 H   0  0  0  0  0  0  0  0  0  0  0  0
  130.8541  138.3841  161.6812 H   0  0  0  0  0  0  0  0  0  0  0  0
  130.7820  137.2223  164.2544 H   0  0  0  0  0  0  0  0  0  0  0  0
  132.4716  137.6292  163.8698 H   0  0  0  0  0  0  0  0  0  0  0  0
  131.3585  139.4918  165.0700 H   0  0  0  0  0  0  0  0  0  0  0  0
  131.8034  139.9735  163.4153 H   0  0  0  0  0  0  0  0  0  0  0  0
  129.0366  139.1028  165.6686 H   0  0  0  0  0  0  0  0  0  0  0  0
  126.6829  139.6461  165.1967 H   0  0  0  0  0  0  0  0  0  0  0  0
  127.7447  140.8030  161.2274 H   0  0  0  0  0  0  0  0  0  0  0  0
  132.6284  135.6967  163.2444 H   0  0  0  0  0  0  0  0  0  0  0  0
  132.9408  133.4644  162.2565 H   0  0  0  0  0  0  0  0  0  0  0  0
  1  2  1  0
  1  3  1  0
  1  4  1  0
  1  5  1  0
  5  6  1  6
  5  7  1  0
  5 17  1  0
  7  8  2  0
  7  9  1  0
  9 10  1  0
  9 35  1  0
 10 16  1  0
 10 11  2  0
 11 12  1  0
 11 36  1  0
 12 13  2  0
 12 37  1  0
 13 14  1  0
 13 38  1  0
 14 15  1  0
 14 16  2  0
 15 39  1  0
 16 40  1  0
 17 33  1  0
 17 18  2  0
 18 19  1  0
 18 41  1  0
 19 20  1  0
 19 31  2  0
 20 21  1  0
 20 42  1  0
 21 22  1  0
 21 43  1  0
 21 44  1  0
 22 23  1  0
 22 45  1  0
 22 46  1  0
 23 29  1  0
 23 24  2  0
 24 25  1  0
 24 47  1  0
 25 26  2  0
 25 48  1  0
 26 27  1  0
 26 28  1  0
 28 29  2  0
 28 49  1  0
 29 30  1  0
 31 32  1  0
 31 50  1  0
 32 33  2  0
 32 51  1  0
 33 34  1  0
M  CHG  1   1   1
M  END
>  <DOCK_score>  (1) 
-41.075787

>  <SMILES>  (1) 
[NH3+][C@@H](C(=O)Nc1cccc(O)c1)c1cc(NCCc2ccc(F)cc2F)ccc1F

$$$$
