Cc1ccc(CC(C[N@@H+]2CCC2C2CCC2)NC(=O)c2cccc3ccccc23)cc1C
     RDKit          3D

 67 71  0  0  1  0  0  0  0  0999 V2000
  136.2296  141.8577  160.5635 C   0  0  0  0  0  0  0  0  0  0  0  0
  135.3466  140.6366  160.5527 C   0  0  0  0  0  0  0  0  0  0  0  0
  134.9866  140.0544  159.3516 C   0  0  0  0  0  0  0  0  0  0  0  0
  134.1811  138.9313  159.3418 C   0  0  0  0  0  0  0  0  0  0  0  0
  133.7260  138.3968  160.5330 C   0  0  0  0  0  0  0  0  0  0  0  0
  132.8426  137.1759  160.5222 C   0  0  0  0  0  0  0  0  0  0  0  0
  131.3766  137.6077  160.4522 C   0  0  1  0  0  0  0  0  0  0  0  0
  130.4797  136.3683  160.4412 C   0  0  0  0  0  0  0  0  0  0  0  0
  130.4437  135.8019  159.0863 N   0  0  2  0  0  0  0  0  0  0  0  0
  131.3421  135.8223  158.6273 H   0  0  0  0  0  0  0  0  0  0  0  0
  129.3486  136.3369  158.2559 C   0  0  0  0  0  0  0  0  0  0  0  0
  129.1729  134.9261  157.6770 C   0  0  0  0  0  0  0  0  0  0  0  0
  129.7785  134.4874  159.0176 C   0  0  1  0  0  0  0  0  0  0  0  0
  130.7548  133.3161  158.8913 C   0  0  0  0  0  0  0  0  0  0  0  0
  130.0680  131.9402  158.8807 C   0  0  0  0  0  0  0  0  0  0  0  0
  131.2256  131.4432  159.7626 C   0  0  0  0  0  0  0  0  0  0  0  0
  131.3934  132.8997  160.2268 C   0  0  0  0  0  0  0  0  0  0  0  0
  131.0544  138.4333  161.6189 N   0  0  0  0  0  0  0  0  0  0  0  0
  130.1126  139.3928  161.5260 C   0  0  0  0  0  0  0  0  0  0  0  0
  129.5300  139.5734  160.4739 O   0  0  0  0  0  0  0  0  0  0  0  0
  129.7883  140.2237  162.7002 C   0  0  0  0  0  0  0  0  0  0  0  0
  130.7644  141.0103  163.2940 C   0  0  0  0  0  0  0  0  0  0  0  0
  130.4652  141.7956  164.4001 C   0  0  0  0  0  0  0  0  0  0  0  0
  129.2106  141.8162  164.9321 C   0  0  0  0  0  0  0  0  0  0  0  0
  128.1901  141.0354  164.3627 C   0  0  0  0  0  0  0  0  0  0  0  0
  126.8885  141.0399  164.8938 C   0  0  0  0  0  0  0  0  0  0  0  0
  125.9234  140.2713  164.3181 C   0  0  0  0  0  0  0  0  0  0  0  0
  126.2064  139.4782  163.2085 C   0  0  0  0  0  0  0  0  0  0  0  0
  127.4570  139.4498  162.6683 C   0  0  0  0  0  0  0  0  0  0  0  0
  128.4742  140.2324  163.2315 C   0  0  0  0  0  0  0  0  0  0  0  0
  134.0815  138.9819  161.7336 C   0  0  0  0  0  0  0  0  0  0  0  0
  134.8921  140.1021  161.7435 C   0  0  0  0  0  0  0  0  0  0  0  0
  135.2793  140.7403  163.0525 C   0  0  0  0  0  0  0  0  0  0  0  0
  137.2741  141.5505  160.6135 H   0  0  0  0  0  0  0  0  0  0  0  0
  136.0636  142.4342  159.6535 H   0  0  0  0  0  0  0  0  0  0  0  0
  135.9897  142.4720  161.4314 H   0  0  0  0  0  0  0  0  0  0  0  0
  135.3382  140.4747  158.4209 H   0  0  0  0  0  0  0  0  0  0  0  0
  133.9036  138.4739  158.4037 H   0  0  0  0  0  0  0  0  0  0  0  0
  133.0823  136.5616  159.6541 H   0  0  0  0  0  0  0  0  0  0  0  0
  133.0085  136.5993  161.4322 H   0  0  0  0  0  0  0  0  0  0  0  0
  131.2106  138.1843  159.5422 H   0  0  0  0  0  0  0  0  0  0  0  0
  130.8763  135.6267  161.1346 H   0  0  0  0  0  0  0  0  0  0  0  0
  129.4707  136.6471  160.7453 H   0  0  0  0  0  0  0  0  0  0  0  0
  128.4910  136.6783  158.8356 H   0  0  0  0  0  0  0  0  0  0  0  0
  129.6796  137.0707  157.5210 H   0  0  0  0  0  0  0  0  0  0  0  0
  128.1340  134.6270  157.5375 H   0  0  0  0  0  0  0  0  0  0  0  0
  129.8007  134.7177  156.8107 H   0  0  0  0  0  0  0  0  0  0  0  0
  129.0356  134.3353  159.8007 H   0  0  0  0  0  0  0  0  0  0  0  0
  131.4764  133.4515  158.0857 H   0  0  0  0  0  0  0  0  0  0  0  0
  129.1010  131.9310  159.3836 H   0  0  0  0  0  0  0  0  0  0  0  0
  130.0385  131.4745  157.8957 H   0  0  0  0  0  0  0  0  0  0  0  0
  132.0759  131.0652  159.1949 H   0  0  0  0  0  0  0  0  0  0  0  0
  130.9103  130.7656  160.5560 H   0  0  0  0  0  0  0  0  0  0  0  0
  132.4337  133.2085  160.3284 H   0  0  0  0  0  0  0  0  0  0  0  0
  130.7893  133.1541  161.0977 H   0  0  0  0  0  0  0  0  0  0  0  0
  131.5190  138.2893  162.4581 H   0  0  0  0  0  0  0  0  0  0  0  0
  131.7671  141.0120  162.8927 H   0  0  0  0  0  0  0  0  0  0  0  0
  131.2406  142.4004  164.8465 H   0  0  0  0  0  0  0  0  0  0  0  0
  129.0002  142.4340  165.7926 H   0  0  0  0  0  0  0  0  0  0  0  0
  126.6551  141.6501  165.7538 H   0  0  0  0  0  0  0  0  0  0  0  0
  124.9242  140.2765  164.7278 H   0  0  0  0  0  0  0  0  0  0  0  0
  125.4234  138.8774  162.7699 H   0  0  0  0  0  0  0  0  0  0  0  0
  127.6623  138.8306  161.8077 H   0  0  0  0  0  0  0  0  0  0  0  0
  133.7261  138.5644  162.6640 H   0  0  0  0  0  0  0  0  0  0  0  0
  134.5410  141.4960  163.3208 H   0  0  0  0  0  0  0  0  0  0  0  0
  135.3184  139.9782  163.8309 H   0  0  0  0  0  0  0  0  0  0  0  0
  136.2585  141.2085  162.9528 H   0  0  0  0  0  0  0  0  0  0  0  0
  1  2  1  0
  1 34  1  0
  1 35  1  0
  1 36  1  0
  2 32  2  0
  2  3  1  0
  3  4  2  0
  3 37  1  0
  4  5  1  0
  4 38  1  0
  5  6  1  0
  5 31  2  0
  6  7  1  0
  6 39  1  0
  6 40  1  0
  7  8  1  0
  7 18  1  0
  7 41  1  6
  8  9  1  0
  8 42  1  0
  8 43  1  0
  9 10  1  6
  9 13  1  0
  9 11  1  0
 11 12  1  0
 11 44  1  0
 11 45  1  0
 12 13  1  0
 12 46  1  0
 12 47  1  0
 13 14  1  0
 13 48  1  1
 14 17  1  0
 14 15  1  0
 14 49  1  0
 15 16  1  0
 15 50  1  0
 15 51  1  0
 16 17  1  0
 16 52  1  0
 16 53  1  0
 17 54  1  0
 17 55  1  0
 18 19  1  0
 18 56  1  0
 19 20  2  0
 19 21  1  0
 21 30  1  0
 21 22  2  0
 22 23  1  0
 22 57  1  0
 23 24  2  0
 23 58  1  0
 24 25  1  0
 24 59  1  0
 25 30  2  0
 25 26  1  0
 26 27  2  0
 26 60  1  0
 27 28  1  0
 27 61  1  0
 28 29  2  0
 28 62  1  0
 29 30  1  0
 29 63  1  0
 31 32  1  0
 31 64  1  0
 32 33  1  0
 33 65  1  0
 33 66  1  0
 33 67  1  0
M  CHG  1   9   1
M  END
>  <DOCK_score>  (1) 
-58.300434

>  <SMILES>  (1) 
Cc1ccc(CC(C[N@@H+]2CCC2C2CCC2)NC(=O)c2cccc3ccccc23)cc1C

$$$$
