C[C@@H](/C=C/C(=O)N1C[C@@H]2C[C@H](C1)[C@H](O)[C@@H]2O)Nc1[nH]c2ccccc2[nH+]1
     RDKit          3D

 51 54  0  0  1  0  0  0  0  0999 V2000
  131.4788  137.6201  161.4436 C   0  0  0  0  0  0  0  0  0  0  0  0
  131.1664  136.1359  161.2434 C   0  0  1  0  0  0  0  0  0  0  0  0
  131.7956  135.5398  161.9046 H   0  0  0  0  0  0  0  0  0  0  0  0
  129.7165  135.8799  161.5643 C   0  0  0  0  0  0  0  0  0  0  0  0
  128.7970  135.9738  160.6082 C   0  0  0  0  0  0  0  0  0  0  0  0
  127.3809  135.7300  160.9228 C   0  0  0  0  0  0  0  0  0  0  0  0
  126.8136  136.4207  161.7475 O   0  0  0  0  0  0  0  0  0  0  0  0
  126.7121  134.7411  160.2973 N   0  0  0  0  0  0  0  0  0  0  0  0
  127.3937  133.8989  159.3042 C   0  0  0  0  0  0  0  0  0  0  0  0
  127.1049  132.4242  159.6436 C   0  0  2  0  0  0  0  0  0  0  0  0
  127.6296  131.7333  158.9839 H   0  0  0  0  0  0  0  0  0  0  0  0
  125.5641  132.2494  159.5887 C   0  0  0  0  0  0  0  0  0  0  0  0
  125.1322  132.9935  160.9022 C   0  0  2  0  0  0  0  0  0  0  0  0
  124.1213  132.7345  161.2171 H   0  0  0  0  0  0  0  0  0  0  0  0
  125.2971  134.4923  160.6074 C   0  0  0  0  0  0  0  0  0  0  0  0
  126.2023  132.5768  161.9364 C   0  0  2  0  0  0  0  0  0  0  0  0
  125.8578  131.7122  162.5038 H   0  0  0  0  0  0  0  0  0  0  0  0
  126.4809  133.6649  162.8199 O   0  0  0  0  0  0  0  0  0  0  0  0
  127.4630  132.2131  161.1322 C   0  0  2  0  0  0  0  0  0  0  0  0
  127.7318  131.1715  161.3083 H   0  0  0  0  0  0  0  0  0  0  0  0
  128.5463  133.0683  161.5023 O   0  0  0  0  0  0  0  0  0  0  0  0
  131.4313  135.7644  159.8514 N   0  0  0  0  0  0  0  0  0  0  0  0
  131.2217  134.4716  159.4328 C   0  0  0  0  0  0  0  0  0  0  0  0
  131.4240  134.0289  158.1940 N   0  0  0  0  0  0  0  0  0  0  0  0
  131.7396  134.5603  157.4464 H   0  0  0  0  0  0  0  0  0  0  0  0
  131.1135  132.6949  158.1541 C   0  0  0  0  0  0  0  0  0  0  0  0
  131.1334  131.7313  157.1500 C   0  0  0  0  0  0  0  0  0  0  0  0
  130.7441  130.4398  157.4324 C   0  0  0  0  0  0  0  0  0  0  0  0
  130.3324  130.0929  158.7108 C   0  0  0  0  0  0  0  0  0  0  0  0
  130.3066  131.0347  159.7164 C   0  0  0  0  0  0  0  0  0  0  0  0
  130.6965  132.3437  159.4483 C   0  0  0  0  0  0  0  0  0  0  0  0
  130.7814  133.4819  160.2066 N   0  0  0  0  0  0  0  0  0  0  0  0
  130.5579  133.5540  161.1478 H   0  0  0  0  0  0  0  0  0  0  0  0
  131.2816  137.8965  162.4794 H   0  0  0  0  0  0  0  0  0  0  0  0
  132.5276  137.8053  161.2115 H   0  0  0  0  0  0  0  0  0  0  0  0
  130.8496  138.2161  160.7825 H   0  0  0  0  0  0  0  0  0  0  0  0
  129.4240  135.6202  162.5711 H   0  0  0  0  0  0  0  0  0  0  0  0
  129.0895  136.2335  159.6014 H   0  0  0  0  0  0  0  0  0  0  0  0
  127.0163  134.1274  158.3073 H   0  0  0  0  0  0  0  0  0  0  0  0
  128.4676  134.0814  159.3421 H   0  0  0  0  0  0  0  0  0  0  0  0
  125.1490  132.7245  158.6998 H   0  0  0  0  0  0  0  0  0  0  0  0
  125.2894  131.1953  159.6299 H   0  0  0  0  0  0  0  0  0  0  0  0
  125.0093  135.0604  161.4921 H   0  0  0  0  0  0  0  0  0  0  0  0
  124.6776  134.7894  159.7613 H   0  0  0  0  0  0  0  0  0  0  0  0
  126.7904  134.4649  162.3734 H   0  0  0  0  0  0  0  0  0  0  0  0
  128.3597  134.0104  161.3905 H   0  0  0  0  0  0  0  0  0  0  0  0
  131.7547  136.4305  159.2247 H   0  0  0  0  0  0  0  0  0  0  0  0
  131.4533  131.9946  156.1527 H   0  0  0  0  0  0  0  0  0  0  0  0
  130.7602  129.6924  156.6530 H   0  0  0  0  0  0  0  0  0  0  0  0
  130.0294  129.0775  158.9193 H   0  0  0  0  0  0  0  0  0  0  0  0
  129.9853  130.7579  160.7096 H   0  0  0  0  0  0  0  0  0  0  0  0
  1  2  1  0
  1 34  1  0
  1 35  1  0
  1 36  1  0
  2  3  1  1
  2  4  1  0
  2 22  1  0
  4  5  2  0
  4 37  1  0
  5  6  1  0
  5 38  1  0
  6  7  2  0
  6  8  1  0
  8 15  1  0
  8  9  1  0
  9 10  1  0
  9 39  1  0
  9 40  1  0
 10 11  1  6
 10 19  1  0
 10 12  1  0
 12 13  1  0
 12 41  1  0
 12 42  1  0
 13 14  1  1
 13 15  1  0
 13 16  1  0
 15 43  1  0
 15 44  1  0
 16 17  1  1
 16 18  1  0
 16 19  1  0
 18 45  1  0
 19 20  1  6
 19 21  1  0
 21 46  1  0
 22 23  1  0
 22 47  1  0
 23 32  1  0
 23 24  2  0
 24 25  1  0
 24 26  1  0
 26 31  2  0
 26 27  1  0
 27 28  2  0
 27 48  1  0
 28 29  1  0
 28 49  1  0
 29 30  2  0
 29 50  1  0
 30 31  1  0
 30 51  1  0
 31 32  1  0
 32 33  1  0
M  CHG  1  24   1
M  END
>  <DOCK_score>  (1) 
-47.544762

>  <SMILES>  (1) 
C[C@@H](/C=C/C(=O)N1C[C@@H]2C[C@H](C1)[C@H](O)[C@@H]2O)Nc1[nH]c2ccccc2[nH+]1

$$$$
