CC(O)[C@@H](C)Nc1c(Cl)cc(Cl)c(Nc2[nH]cc(-c3ccc(N)cc3)[nH+]2)c1N
     RDKit          3D

 51 53  0  0  1  0  0  0  0  0999 V2000
  130.6017  139.2875  165.1934 C   0  0  0  0  0  0  0  0  0  0  0  0
  129.6068  139.4257  164.0394 C   0  0  1  0  0  0  0  0  0  0  0  0
  129.3264  140.8089  163.8152 O   0  0  0  0  0  0  0  0  0  0  0  0
  130.2079  138.8152  162.7718 C   0  0  1  0  0  0  0  0  0  0  0  0
  129.6906  139.2103  161.8975 H   0  0  0  0  0  0  0  0  0  0  0  0
  131.6937  139.1711  162.6893 C   0  0  0  0  0  0  0  0  0  0  0  0
  130.0558  137.3546  162.8122 N   0  0  0  0  0  0  0  0  0  0  0  0
  129.2970  136.8983  161.7255 C   0  0  0  0  0  0  0  0  0  0  0  0
  127.9166  136.7943  161.8357 C   0  0  0  0  0  0  0  0  0  0  0  0
  127.1306  137.2297  163.3211 Cl  0  0  0  0  0  0  0  0  0  0  0  0
  127.1667  136.3449  160.7636 C   0  0  0  0  0  0  0  0  0  0  0  0
  127.7879  135.9912  159.5793 C   0  0  0  0  0  0  0  0  0  0  0  0
  126.8409  135.4207  158.2408 Cl  0  0  0  0  0  0  0  0  0  0  0  0
  129.1672  136.0966  159.4577 C   0  0  0  0  0  0  0  0  0  0  0  0
  129.7952  135.7436  158.2548 N   0  0  0  0  0  0  0  0  0  0  0  0
  129.6772  134.4540  157.7646 C   0  0  0  0  0  0  0  0  0  0  0  0
  128.9782  133.4438  158.3507 N   0  0  0  0  0  0  0  0  0  0  0  0
  128.4776  133.4969  159.1799 H   0  0  0  0  0  0  0  0  0  0  0  0
  129.1132  132.3343  157.5508 C   0  0  0  0  0  0  0  0  0  0  0  0
  129.8898  132.6988  156.5005 C   0  0  0  0  0  0  0  0  0  0  0  0
  130.3046  131.8238  155.3765 C   0  0  0  0  0  0  0  0  0  0  0  0
  129.9460  132.1494  154.0693 C   0  0  0  0  0  0  0  0  0  0  0  0
  130.3376  131.3378  153.0256 C   0  0  0  0  0  0  0  0  0  0  0  0
  131.0794  130.1896  153.2772 C   0  0  0  0  0  0  0  0  0  0  0  0
  131.4704  129.3658  152.2190 N   0  0  0  0  0  0  0  0  0  0  0  0
  131.4331  129.8600  154.5802 C   0  0  0  0  0  0  0  0  0  0  0  0
  131.0486  130.6717  155.6265 C   0  0  0  0  0  0  0  0  0  0  0  0
  130.2157  134.0060  156.6563 N   0  0  0  0  0  0  0  0  0  0  0  0
  130.7621  134.5259  156.0464 H   0  0  0  0  0  0  0  0  0  0  0  0
  129.9262  136.5488  160.5339 C   0  0  0  0  0  0  0  0  0  0  0  0
  131.3209  136.6525  160.4177 N   0  0  0  0  0  0  0  0  0  0  0  0
  131.4798  139.9010  164.9914 H   0  0  0  0  0  0  0  0  0  0  0  0
  130.1322  139.6190  166.1196 H   0  0  0  0  0  0  0  0  0  0  0  0
  130.9021  138.2443  165.2912 H   0  0  0  0  0  0  0  0  0  0  0  0
  128.6834  138.9041  164.2912 H   0  0  0  0  0  0  0  0  0  0  0  0
  130.1042  141.3357  163.5858 H   0  0  0  0  0  0  0  0  0  0  0  0
  132.2262  138.7016  163.5164 H   0  0  0  0  0  0  0  0  0  0  0  0
  132.1014  138.8122  161.7443 H   0  0  0  0  0  0  0  0  0  0  0  0
  131.8118  140.2531  162.7486 H   0  0  0  0  0  0  0  0  0  0  0  0
  129.6500  137.0574  163.6869 H   0  0  0  0  0  0  0  0  0  0  0  0
  126.0933  136.2658  160.8531 H   0  0  0  0  0  0  0  0  0  0  0  0
  130.3123  136.4029  157.7661 H   0  0  0  0  0  0  0  0  0  0  0  0
  128.6830  131.3592  157.7250 H   0  0  0  0  0  0  0  0  0  0  0  0
  129.3658  133.0390  153.8738 H   0  0  0  0  0  0  0  0  0  0  0  0
  130.0641  131.5923  152.0123 H   0  0  0  0  0  0  0  0  0  0  0  0
  131.9882  128.5647  152.3936 H   0  0  0  0  0  0  0  0  0  0  0  0
  131.2238  129.5954  151.3090 H   0  0  0  0  0  0  0  0  0  0  0  0
  132.0092  128.9671  154.7734 H   0  0  0  0  0  0  0  0  0  0  0  0
  131.3240  130.4153  156.6389 H   0  0  0  0  0  0  0  0  0  0  0  0
  131.8397  137.0457  161.1367 H   0  0  0  0  0  0  0  0  0  0  0  0
  131.7662  136.3310  159.6181 H   0  0  0  0  0  0  0  0  0  0  0  0
  1  2  1  0
  1 32  1  0
  1 33  1  0
  1 34  1  0
  2  3  1  0
  2  4  1  0
  2 35  1  1
  3 36  1  0
  4  5  1  6
  4  6  1  0
  4  7  1  0
  6 37  1  0
  6 38  1  0
  6 39  1  0
  7  8  1  0
  7 40  1  0
  8 30  2  0
  8  9  1  0
  9 10  1  0
  9 11  2  0
 11 12  1  0
 11 41  1  0
 12 13  1  0
 12 14  2  0
 14 15  1  0
 14 30  1  0
 15 42  1  0
 16 15  1  0
 16 28  2  0
 16 17  1  0
 17 18  1  0
 17 19  1  0
 19 20  2  0
 19 43  1  0
 20 21  1  0
 20 28  1  0
 21 27  1  0
 21 22  2  0
 22 23  1  0
 22 44  1  0
 23 24  2  0
 23 45  1  0
 24 25  1  0
 24 26  1  0
 25 46  1  0
 25 47  1  0
 26 27  2  0
 26 48  1  0
 27 49  1  0
 28 29  1  0
 30 31  1  0
 31 50  1  0
 31 51  1  0
M  CHG  1  28   1
M  END
>  <DOCK_score>  (1) 
-59.475246

>  <SMILES>  (1) 
CC(O)[C@@H](C)Nc1c(Cl)cc(Cl)c(Nc2[nH]cc(-c3ccc(N)cc3)[nH+]2)c1N

$$$$
