Cc1cccnc1CNC(NC1CC=CC1)=[NH+][C@H](Cc1ccccc1)c1ccc(C#N)cc1
     RDKit          3D

 63 66  0  0  1  0  0  0  0  0999 V2000
  135.0400  138.8033  158.1068 C   0  0  0  0  0  0  0  0  0  0  0  0
  135.1574  139.2042  159.5547 C   0  0  0  0  0  0  0  0  0  0  0  0
  136.1882  140.0323  159.9725 C   0  0  0  0  0  0  0  0  0  0  0  0
  136.2597  140.3707  161.3150 C   0  0  0  0  0  0  0  0  0  0  0  0
  135.3050  139.8792  162.1853 C   0  0  0  0  0  0  0  0  0  0  0  0
  134.3355  139.0977  161.7516 N   0  0  0  0  0  0  0  0  0  0  0  0
  134.2364  138.7553  160.4819 C   0  0  0  0  0  0  0  0  0  0  0  0
  133.1091  137.8590  160.0381 C   0  0  0  0  0  0  0  0  0  0  0  0
  132.2722  137.5194  161.1915 N   0  0  0  0  0  0  0  0  0  0  0  0
  131.1753  136.7065  161.0295 C   0  0  0  0  0  0  0  0  0  0  0  0
  130.3899  136.3878  162.1119 N   0  0  0  0  0  0  0  0  0  0  0  0
  130.7217  136.9143  163.4382 C   0  0  0  0  0  0  0  0  0  0  0  0
  132.0367  136.2966  163.9676 C   0  0  0  0  0  0  0  0  0  0  0  0
  131.8049  136.1118  165.4493 C   0  0  0  0  0  0  0  0  0  0  0  0
  130.5342  136.1834  165.7388 C   0  0  0  0  0  0  0  0  0  0  0  0
  129.7065  136.4280  164.4984 C   0  0  0  0  0  0  0  0  0  0  0  0
  130.8800  136.2380  159.8495 N   0  0  0  0  0  0  0  0  0  0  0  0
  131.1061  136.7466  159.0552 H   0  0  0  0  0  0  0  0  0  0  0  0
  130.2065  134.9432  159.7232 C   0  0  2  0  0  0  0  0  0  0  0  0
  130.0355  134.5242  160.7148 H   0  0  0  0  0  0  0  0  0  0  0  0
  131.0841  133.9889  158.9108 C   0  0  0  0  0  0  0  0  0  0  0  0
  130.6646  132.5670  159.1817 C   0  0  0  0  0  0  0  0  0  0  0  0
  131.2548  131.8563  160.2101 C   0  0  0  0  0  0  0  0  0  0  0  0
  130.8667  130.5536  160.4616 C   0  0  0  0  0  0  0  0  0  0  0  0
  129.8957  129.9583  159.6781 C   0  0  0  0  0  0  0  0  0  0  0  0
  129.3093  130.6673  158.6465 C   0  0  0  0  0  0  0  0  0  0  0  0
  129.6937  131.9716  158.3983 C   0  0  0  0  0  0  0  0  0  0  0  0
  128.8856  135.1303  159.0224 C   0  0  0  0  0  0  0  0  0  0  0  0
  128.8534  135.6523  157.7414 C   0  0  0  0  0  0  0  0  0  0  0  0
  127.6481  135.8218  157.0923 C   0  0  0  0  0  0  0  0  0  0  0  0
  126.4579  135.4747  157.7349 C   0  0  0  0  0  0  0  0  0  0  0  0
  125.2028  135.6531  157.0692 C   0  0  0  0  0  0  0  0  0  0  0  0
  124.2069  135.7945  156.5410 N   0  0  0  0  0  0  0  0  0  0  0  0
  126.4974  134.9535  159.0296 C   0  0  0  0  0  0  0  0  0  0  0  0
  127.7100  134.7847  159.6652 C   0  0  0  0  0  0  0  0  0  0  0  0
  134.4270  139.5322  157.5766 H   0  0  0  0  0  0  0  0  0  0  0  0
  136.0326  138.7682  157.6579 H   0  0  0  0  0  0  0  0  0  0  0  0
  134.5753  137.8197  158.0386 H   0  0  0  0  0  0  0  0  0  0  0  0
  136.9204  140.4013  159.2697 H   0  0  0  0  0  0  0  0  0  0  0  0
  137.0515  141.0101  161.6764 H   0  0  0  0  0  0  0  0  0  0  0  0
  135.3533  140.1384  163.2326 H   0  0  0  0  0  0  0  0  0  0  0  0
  133.5192  136.9464  159.6055 H   0  0  0  0  0  0  0  0  0  0  0  0
  132.5064  138.3760  159.2915 H   0  0  0  0  0  0  0  0  0  0  0  0
  132.4919  137.8680  162.0697 H   0  0  0  0  0  0  0  0  0  0  0  0
  129.6183  135.8112  161.9982 H   0  0  0  0  0  0  0  0  0  0  0  0
  130.7788  138.0028  163.4215 H   0  0  0  0  0  0  0  0  0  0  0  0
  132.2238  135.3350  163.4897 H   0  0  0  0  0  0  0  0  0  0  0  0
  132.8715  136.9759  163.7957 H   0  0  0  0  0  0  0  0  0  0  0  0
  132.5878  135.9430  166.1737 H   0  0  0  0  0  0  0  0  0  0  0  0
  130.1277  136.0817  166.7342 H   0  0  0  0  0  0  0  0  0  0  0  0
  128.9572  137.1967  164.6873 H   0  0  0  0  0  0  0  0  0  0  0  0
  129.2283  135.5050  164.1708 H   0  0  0  0  0  0  0  0  0  0  0  0
  130.9697  134.2054  157.8488 H   0  0  0  0  0  0  0  0  0  0  0  0
  132.1273  134.1211  159.1982 H   0  0  0  0  0  0  0  0  0  0  0  0
  132.0165  132.3200  160.8192 H   0  0  0  0  0  0  0  0  0  0  0  0
  131.3251  129.9996  161.2674 H   0  0  0  0  0  0  0  0  0  0  0  0
  129.5956  128.9391  159.8719 H   0  0  0  0  0  0  0  0  0  0  0  0
  128.5510  130.2019  158.0342 H   0  0  0  0  0  0  0  0  0  0  0  0
  129.2358  132.5255  157.5920 H   0  0  0  0  0  0  0  0  0  0  0  0
  129.7744  135.9242  157.2473 H   0  0  0  0  0  0  0  0  0  0  0  0
  127.6247  136.2255  156.0908 H   0  0  0  0  0  0  0  0  0  0  0  0
  125.5805  134.6833  159.5325 H   0  0  0  0  0  0  0  0  0  0  0  0
  127.7419  134.3817  160.6666 H   0  0  0  0  0  0  0  0  0  0  0  0
  1  2  1  0
  1 36  1  0
  1 37  1  0
  1 38  1  0
  2  7  2  0
  2  3  1  0
  3  4  2  0
  3 39  1  0
  4  5  1  0
  4 40  1  0
  5  6  2  0
  5 41  1  0
  6  7  1  0
  7  8  1  0
  8  9  1  0
  8 42  1  0
  8 43  1  0
  9 44  1  0
 10  9  1  0
 10 11  1  0
 10 17  2  0
 11 12  1  0
 11 45  1  0
 12 16  1  0
 12 13  1  0
 12 46  1  0
 13 14  1  0
 13 47  1  0
 13 48  1  0
 14 15  2  0
 14 49  1  0
 15 16  1  0
 15 50  1  0
 16 51  1  0
 16 52  1  0
 17 18  1  0
 17 19  1  0
 19 20  1  1
 19 21  1  0
 19 28  1  0
 21 22  1  0
 21 53  1  0
 21 54  1  0
 22 27  1  0
 22 23  2  0
 23 24  1  0
 23 55  1  0
 24 25  2  0
 24 56  1  0
 25 26  1  0
 25 57  1  0
 26 27  2  0
 26 58  1  0
 27 59  1  0
 28 35  1  0
 28 29  2  0
 29 30  1  0
 29 60  1  0
 30 31  2  0
 30 61  1  0
 31 32  1  0
 31 34  1  0
 32 33  3  0
 34 35  2  0
 34 62  1  0
 35 63  1  0
M  CHG  1  17   1
M  END
>  <DOCK_score>  (1) 
-55.974392

>  <SMILES>  (1) 
Cc1cccnc1CNC(NC1CC=CC1)=[NH+][C@H](Cc1ccccc1)c1ccc(C#N)cc1

$$$$
