Cc1cc(C[N@H+]2CC=C(c3cncc(F)c3)CC2)sc1C=CCCc1ccccc1
     RDKit          3D

 58 61  0  0  1  0  0  0  0  0999 V2000
  129.7780  131.7407  159.4477 C   0  0  0  0  0  0  0  0  0  0  0  0
  129.7013  133.1475  158.9126 C   0  0  0  0  0  0  0  0  0  0  0  0
  129.8259  134.2584  159.7195 C   0  0  0  0  0  0  0  0  0  0  0  0
  129.7343  135.4320  159.0864 C   0  0  0  0  0  0  0  0  0  0  0  0
  129.8374  136.7830  159.7461 C   0  0  0  0  0  0  0  0  0  0  0  0
  131.2406  137.2179  159.7547 N   0  0  1  0  0  0  0  0  0  0  0  0
  131.6754  136.9724  158.8781 H   0  0  0  0  0  0  0  0  0  0  0  0
  131.3029  138.6719  159.9436 C   0  0  0  0  0  0  0  0  0  0  0  0
  132.7243  139.1140  160.1397 C   0  0  0  0  0  0  0  0  0  0  0  0
  133.6899  138.2881  160.4804 C   0  0  0  0  0  0  0  0  0  0  0  0
  135.0568  138.8233  160.6552 C   0  0  0  0  0  0  0  0  0  0  0  0
  135.7128  138.7059  161.8814 C   0  0  0  0  0  0  0  0  0  0  0  0
  136.9305  139.1818  162.0387 N   0  0  0  0  0  0  0  0  0  0  0  0
  137.5764  139.7826  161.0579 C   0  0  0  0  0  0  0  0  0  0  0  0
  136.9949  139.9393  159.8104 C   0  0  0  0  0  0  0  0  0  0  0  0
  137.6686  140.5568  158.8155 F   0  0  0  0  0  0  0  0  0  0  0  0
  135.7160  139.4506  159.5928 C   0  0  0  0  0  0  0  0  0  0  0  0
  133.4531  136.8191  160.6987 C   0  0  0  0  0  0  0  0  0  0  0  0
  131.9536  136.5585  160.8600 C   0  0  0  0  0  0  0  0  0  0  0  0
  129.4679  135.1628  157.3691 S   0  0  0  0  0  0  0  0  0  0  0  0
  129.5057  133.4202  157.6044 C   0  0  0  0  0  0  0  0  0  0  0  0
  129.3431  132.4155  156.5420 C   0  0  0  0  0  0  0  0  0  0  0  0
  129.7401  132.6882  155.3027 C   0  0  0  0  0  0  0  0  0  0  0  0
  129.5735  131.6590  154.2146 C   0  0  0  0  0  0  0  0  0  0  0  0
  130.9437  131.3062  153.6321 C   0  0  0  0  0  0  0  0  0  0  0  0
  130.7771  130.2771  152.5440 C   0  0  0  0  0  0  0  0  0  0  0  0
  130.8252  128.9306  152.8530 C   0  0  0  0  0  0  0  0  0  0  0  0
  130.6677  127.9866  151.8555 C   0  0  0  0  0  0  0  0  0  0  0  0
  130.4724  128.3891  150.5475 C   0  0  0  0  0  0  0  0  0  0  0  0
  130.4295  129.7355  150.2378 C   0  0  0  0  0  0  0  0  0  0  0  0
  130.5818  130.6796  151.2360 C   0  0  0  0  0  0  0  0  0  0  0  0
  128.7801  131.4043  159.7293 H   0  0  0  0  0  0  0  0  0  0  0  0
  130.1805  131.0810  158.6790 H   0  0  0  0  0  0  0  0  0  0  0  0
  130.4287  131.7194  160.3219 H   0  0  0  0  0  0  0  0  0  0  0  0
  129.9859  134.1857  160.7852 H   0  0  0  0  0  0  0  0  0  0  0  0
  129.4715  136.7159  160.7705 H   0  0  0  0  0  0  0  0  0  0  0  0
  129.2367  137.5046  159.1922 H   0  0  0  0  0  0  0  0  0  0  0  0
  130.8891  139.1677  159.0654 H   0  0  0  0  0  0  0  0  0  0  0  0
  130.7156  138.9472  160.8197 H   0  0  0  0  0  0  0  0  0  0  0  0
  132.9648  140.1569  159.9947 H   0  0  0  0  0  0  0  0  0  0  0  0
  135.2173  138.2200  162.7087 H   0  0  0  0  0  0  0  0  0  0  0  0
  138.5743  140.1579  161.2301 H   0  0  0  0  0  0  0  0  0  0  0  0
  135.2396  139.5546  158.6292 H   0  0  0  0  0  0  0  0  0  0  0  0
  133.8272  136.2597  159.8414 H   0  0  0  0  0  0  0  0  0  0  0  0
  133.9768  136.4967  161.5987 H   0  0  0  0  0  0  0  0  0  0  0  0
  131.6129  136.9677  161.8111 H   0  0  0  0  0  0  0  0  0  0  0  0
  131.7623  135.4858  160.8306 H   0  0  0  0  0  0  0  0  0  0  0  0
  128.9014  131.4563  156.7689 H   0  0  0  0  0  0  0  0  0  0  0  0
  130.1818  133.6472  155.0759 H   0  0  0  0  0  0  0  0  0  0  0  0
  129.1136  130.7624  154.6299 H   0  0  0  0  0  0  0  0  0  0  0  0
  128.9369  132.0625  153.4272 H   0  0  0  0  0  0  0  0  0  0  0  0
  131.4037  132.2030  153.2169 H   0  0  0  0  0  0  0  0  0  0  0  0
  131.5802  130.9027  154.4196 H   0  0  0  0  0  0  0  0  0  0  0  0
  130.9822  128.6162  153.8742 H   0  0  0  0  0  0  0  0  0  0  0  0
  130.7016  126.9346  152.0975 H   0  0  0  0  0  0  0  0  0  0  0  0
  130.3537  127.6515  149.7676 H   0  0  0  0  0  0  0  0  0  0  0  0
  130.2773  130.0499  149.2158 H   0  0  0  0  0  0  0  0  0  0  0  0
  130.5486  131.7316  150.9940 H   0  0  0  0  0  0  0  0  0  0  0  0
  1  2  1  0
  1 32  1  0
  1 33  1  0
  1 34  1  0
  2 21  2  0
  2  3  1  0
  3  4  2  0
  3 35  1  0
  4  5  1  0
  4 20  1  0
  5  6  1  0
  5 36  1  0
  5 37  1  0
  6  7  1  6
  6 19  1  0
  6  8  1  0
  8  9  1  0
  8 38  1  0
  8 39  1  0
  9 10  2  0
  9 40  1  0
 10 11  1  0
 10 18  1  0
 11 17  1  0
 11 12  2  0
 12 13  1  0
 12 41  1  0
 13 14  2  0
 14 15  1  0
 14 42  1  0
 15 16  1  0
 15 17  2  0
 17 43  1  0
 18 19  1  0
 18 44  1  0
 18 45  1  0
 19 46  1  0
 19 47  1  0
 20 21  1  0
 21 22  1  0
 22 23  2  0
 22 48  1  0
 23 24  1  0
 23 49  1  0
 24 25  1  0
 24 50  1  0
 24 51  1  0
 25 26  1  0
 25 52  1  0
 25 53  1  0
 26 31  1  0
 26 27  2  0
 27 28  1  0
 27 54  1  0
 28 29  2  0
 28 55  1  0
 29 30  1  0
 29 56  1  0
 30 31  2  0
 30 57  1  0
 31 58  1  0
M  CHG  1   6   1
M  END
>  <DOCK_score>  (1) 
-58.254017

>  <SMILES>  (1) 
Cc1cc(C[N@H+]2CC=C(c3cncc(F)c3)CC2)sc1C=CCCc1ccccc1

$$$$
