Cc1cc(O)c(N)cc1Nc1[nH]cc(-c2ccncc2)[nH+]1
     RDKit          3D

 37 39  0  0  1  0  0  0  0  0999 V2000
  127.4131  135.2930  157.7020 C   0  0  0  0  0  0  0  0  0  0  0  0
  127.8809  135.7386  159.0635 C   0  0  0  0  0  0  0  0  0  0  0  0
  126.9603  136.1539  160.0081 C   0  0  0  0  0  0  0  0  0  0  0  0
  127.3874  136.5697  161.2577 C   0  0  0  0  0  0  0  0  0  0  0  0
  126.4804  136.9827  162.1843 O   0  0  0  0  0  0  0  0  0  0  0  0
  128.7463  136.5646  161.5667 C   0  0  0  0  0  0  0  0  0  0  0  0
  129.1796  136.9843  162.8295 N   0  0  0  0  0  0  0  0  0  0  0  0
  129.6684  136.1430  160.6212 C   0  0  0  0  0  0  0  0  0  0  0  0
  129.2353  135.7268  159.3692 C   0  0  0  0  0  0  0  0  0  0  0  0
  130.1647  135.3006  158.4131 N   0  0  0  0  0  0  0  0  0  0  0  0
  130.0916  134.0160  157.9007 C   0  0  0  0  0  0  0  0  0  0  0  0
  129.6244  132.9227  158.5646 N   0  0  0  0  0  0  0  0  0  0  0  0
  129.2854  132.9041  159.4732 H   0  0  0  0  0  0  0  0  0  0  0  0
  129.7209  131.8529  157.7116 C   0  0  0  0  0  0  0  0  0  0  0  0
  130.2441  132.3207  156.5500 C   0  0  0  0  0  0  0  0  0  0  0  0
  130.5282  131.5193  155.3360 C   0  0  0  0  0  0  0  0  0  0  0  0
  129.9104  131.8180  154.1171 C   0  0  0  0  0  0  0  0  0  0  0  0
  130.2033  131.0467  153.0122 C   0  0  0  0  0  0  0  0  0  0  0  0
  131.0528  130.0400  153.0946 N   0  0  0  0  0  0  0  0  0  0  0  0
  131.6567  129.7248  154.2248 C   0  0  0  0  0  0  0  0  0  0  0  0
  131.4213  130.4438  155.3777 C   0  0  0  0  0  0  0  0  0  0  0  0
  130.4664  133.6509  156.6991 N   0  0  0  0  0  0  0  0  0  0  0  0
  130.8405  134.2381  156.0236 H   0  0  0  0  0  0  0  0  0  0  0  0
  127.2139  134.2215  157.7191 H   0  0  0  0  0  0  0  0  0  0  0  0
  126.5008  135.8281  157.4383 H   0  0  0  0  0  0  0  0  0  0  0  0
  128.1862  135.5072  156.9641 H   0  0  0  0  0  0  0  0  0  0  0  0
  125.9071  136.1582  159.7691 H   0  0  0  0  0  0  0  0  0  0  0  0
  125.5634  136.9506  161.8787 H   0  0  0  0  0  0  0  0  0  0  0  0
  130.1255  136.9801  163.0438 H   0  0  0  0  0  0  0  0  0  0  0  0
  128.5336  137.2792  163.4905 H   0  0  0  0  0  0  0  0  0  0  0  0
  130.7220  136.1378  160.8581 H   0  0  0  0  0  0  0  0  0  0  0  0
  130.8601  135.9049  158.1095 H   0  0  0  0  0  0  0  0  0  0  0  0
  129.4349  130.8333  157.9236 H   0  0  0  0  0  0  0  0  0  0  0  0
  129.2147  132.6407  154.0425 H   0  0  0  0  0  0  0  0  0  0  0  0
  129.7348  131.2724  152.0657 H   0  0  0  0  0  0  0  0  0  0  0  0
  132.3450  128.8929  154.2469 H   0  0  0  0  0  0  0  0  0  0  0  0
  131.9195  130.1806  156.2991 H   0  0  0  0  0  0  0  0  0  0  0  0
  1  2  1  0
  1 24  1  0
  1 25  1  0
  1 26  1  0
  2  9  2  0
  2  3  1  0
  3  4  2  0
  3 27  1  0
  4  5  1  0
  4  6  1  0
  5 28  1  0
  6  7  1  0
  6  8  2  0
  7 29  1  0
  7 30  1  0
  8  9  1  0
  8 31  1  0
  9 10  1  0
 10 32  1  0
 11 10  1  0
 11 22  2  0
 11 12  1  0
 12 13  1  0
 12 14  1  0
 14 15  2  0
 14 33  1  0
 15 16  1  0
 15 22  1  0
 16 21  1  0
 16 17  2  0
 17 18  1  0
 17 34  1  0
 18 19  2  0
 18 35  1  0
 19 20  1  0
 20 21  2  0
 20 36  1  0
 21 37  1  0
 22 23  1  0
M  CHG  1  22   1
M  END
>  <DOCK_score>  (1) 
-48.530769

>  <SMILES>  (1) 
Cc1cc(O)c(N)cc1Nc1[nH]cc(-c2ccncc2)[nH+]1

$$$$
