CC[C@@H](Cc1ccc(F)cc1)Nc1[nH]cc(-c2cccc(O)c2)[nH+]1
     RDKit          3D

 45 47  0  0  1  0  0  0  0  0999 V2000
  131.6813  135.6807  162.6608 C   0  0  0  0  0  0  0  0  0  0  0  0
  131.5997  137.1632  162.2908 C   0  0  0  0  0  0  0  0  0  0  0  0
  130.4990  137.3687  161.2483 C   0  0  1  0  0  0  0  0  0  0  0  0
  129.5433  137.0439  161.6600 H   0  0  0  0  0  0  0  0  0  0  0  0
  130.4173  138.8512  160.8782 C   0  0  0  0  0  0  0  0  0  0  0  0
  131.7383  139.3004  160.3091 C   0  0  0  0  0  0  0  0  0  0  0  0
  132.7150  139.8062  161.1466 C   0  0  0  0  0  0  0  0  0  0  0  0
  133.9290  140.2133  160.6265 C   0  0  0  0  0  0  0  0  0  0  0  0
  134.1625  140.1250  159.2645 C   0  0  0  0  0  0  0  0  0  0  0  0
  135.3466  140.5287  158.7542 F   0  0  0  0  0  0  0  0  0  0  0  0
  133.1815  139.6235  158.4260 C   0  0  0  0  0  0  0  0  0  0  0  0
  131.9706  139.2114  158.9492 C   0  0  0  0  0  0  0  0  0  0  0  0
  130.8073  136.5830  160.0509 N   0  0  0  0  0  0  0  0  0  0  0  0
  129.9274  135.6052  159.6192 C   0  0  0  0  0  0  0  0  0  0  0  0
  130.0985  134.8107  158.5276 N   0  0  0  0  0  0  0  0  0  0  0  0
  130.8521  134.8278  157.9171 H   0  0  0  0  0  0  0  0  0  0  0  0
  129.0071  133.9802  158.4498 C   0  0  0  0  0  0  0  0  0  0  0  0
  128.2009  134.2908  159.4951 C   0  0  0  0  0  0  0  0  0  0  0  0
  126.9026  133.6495  159.8169 C   0  0  0  0  0  0  0  0  0  0  0  0
  126.6769  132.3172  159.4735 C   0  0  0  0  0  0  0  0  0  0  0  0
  125.4697  131.7215  159.7778 C   0  0  0  0  0  0  0  0  0  0  0  0
  124.4783  132.4452  160.4143 C   0  0  0  0  0  0  0  0  0  0  0  0
  124.6931  133.7736  160.7548 C   0  0  0  0  0  0  0  0  0  0  0  0
  123.7154  134.4813  161.3796 O   0  0  0  0  0  0  0  0  0  0  0  0
  125.9035  134.3781  160.4575 C   0  0  0  0  0  0  0  0  0  0  0  0
  128.7922  135.2916  160.1948 N   0  0  0  0  0  0  0  0  0  0  0  0
  128.4342  135.7061  160.9953 H   0  0  0  0  0  0  0  0  0  0  0  0
  131.9108  135.0961  161.7699 H   0  0  0  0  0  0  0  0  0  0  0  0
  132.4655  135.5344  163.4034 H   0  0  0  0  0  0  0  0  0  0  0  0
  130.7259  135.3560  163.0724 H   0  0  0  0  0  0  0  0  0  0  0  0
  132.5553  137.4881  161.8790 H   0  0  0  0  0  0  0  0  0  0  0  0
  131.3703  137.7479  163.1815 H   0  0  0  0  0  0  0  0  0  0  0  0
  129.6331  138.9976  160.1356 H   0  0  0  0  0  0  0  0  0  0  0  0
  130.1879  139.4358  161.7691 H   0  0  0  0  0  0  0  0  0  0  0  0
  132.5307  139.8798  162.2081 H   0  0  0  0  0  0  0  0  0  0  0  0
  134.6936  140.6041  161.2814 H   0  0  0  0  0  0  0  0  0  0  0  0
  133.3625  139.5545  157.3636 H   0  0  0  0  0  0  0  0  0  0  0  0
  131.2053  138.8200  158.2953 H   0  0  0  0  0  0  0  0  0  0  0  0
  131.6280  136.7475  159.5608 H   0  0  0  0  0  0  0  0  0  0  0  0
  128.8257  133.2246  157.6998 H   0  0  0  0  0  0  0  0  0  0  0  0
  127.4478  131.7504  158.9726 H   0  0  0  0  0  0  0  0  0  0  0  0
  125.2973  130.6884  159.5144 H   0  0  0  0  0  0  0  0  0  0  0  0
  123.5340  131.9756  160.6469 H   0  0  0  0  0  0  0  0  0  0  0  0
  123.9570  135.3967  161.5763 H   0  0  0  0  0  0  0  0  0  0  0  0
  126.0718  135.4117  160.7216 H   0  0  0  0  0  0  0  0  0  0  0  0
  1  2  1  0
  1 28  1  0
  1 29  1  0
  1 30  1  0
  2  3  1  0
  2 31  1  0
  2 32  1  0
  3  4  1  1
  3  5  1  0
  3 13  1  0
  5  6  1  0
  5 33  1  0
  5 34  1  0
  6 12  1  0
  6  7  2  0
  7  8  1  0
  7 35  1  0
  8  9  2  0
  8 36  1  0
  9 10  1  0
  9 11  1  0
 11 12  2  0
 11 37  1  0
 12 38  1  0
 13 39  1  0
 14 13  1  0
 14 26  2  0
 14 15  1  0
 15 16  1  0
 15 17  1  0
 17 18  2  0
 17 40  1  0
 18 19  1  0
 18 26  1  0
 19 25  1  0
 19 20  2  0
 20 21  1  0
 20 41  1  0
 21 22  2  0
 21 42  1  0
 22 23  1  0
 22 43  1  0
 23 24  1  0
 23 25  2  0
 24 44  1  0
 25 45  1  0
 26 27  1  0
M  CHG  1  26   1
M  END
>  <DOCK_score>  (1) 
-49.170727

>  <SMILES>  (1) 
CC[C@@H](Cc1ccc(F)cc1)Nc1[nH]cc(-c2cccc(O)c2)[nH+]1

$$$$
