Cc1nc(N)ccc1Sc1cc(Cl)cc(C[NH+]2CC[C@@H](c3ccc(F)cc3)C2)c1
     RDKit          3D

 53 56  0  0  1  0  0  0  0  0999 V2000
  129.1157  140.9717  160.6433 C   0  0  0  0  0  0  0  0  0  0  0  0
  128.6154  140.7135  162.0412 C   0  0  0  0  0  0  0  0  0  0  0  0
  127.3515  140.3849  162.2314 N   0  0  0  0  0  0  0  0  0  0  0  0
  126.8671  140.1552  163.4414 C   0  0  0  0  0  0  0  0  0  0  0  0
  125.5244  139.8172  163.5927 N   0  0  0  0  0  0  0  0  0  0  0  0
  127.6838  140.2471  164.5638 C   0  0  0  0  0  0  0  0  0  0  0  0
  129.0151  140.5833  164.4030 C   0  0  0  0  0  0  0  0  0  0  0  0
  129.4897  140.8186  163.1127 C   0  0  0  0  0  0  0  0  0  0  0  0
  131.1771  141.2511  162.8479 S   0  0  0  0  0  0  0  0  0  0  0  0
  131.7584  139.9577  161.8019 C   0  0  0  0  0  0  0  0  0  0  0  0
  132.7744  140.2058  160.8869 C   0  0  0  0  0  0  0  0  0  0  0  0
  133.2277  139.1891  160.0683 C   0  0  0  0  0  0  0  0  0  0  0  0
  134.4967  139.4969  158.9244 Cl  0  0  0  0  0  0  0  0  0  0  0  0
  132.6707  137.9247  160.1598 C   0  0  0  0  0  0  0  0  0  0  0  0
  131.6600  137.6755  161.0699 C   0  0  0  0  0  0  0  0  0  0  0  0
  131.0574  136.2976  161.1662 C   0  0  0  0  0  0  0  0  0  0  0  0
  130.7950  135.7823  159.8158 N   0  0  2  0  0  0  0  0  0  0  0  0
  131.6543  135.7309  159.2894 H   0  0  0  0  0  0  0  0  0  0  0  0
  129.8158  136.6533  159.1166 C   0  0  0  0  0  0  0  0  0  0  0  0
  129.2360  135.7255  158.0196 C   0  0  0  0  0  0  0  0  0  0  0  0
  129.1562  134.3559  158.7320 C   0  0  1  0  0  0  0  0  0  0  0  0
  128.1505  134.1855  159.1162 H   0  0  0  0  0  0  0  0  0  0  0  0
  129.5477  133.2504  157.7857 C   0  0  0  0  0  0  0  0  0  0  0  0
  130.1355  132.0984  158.2744 C   0  0  0  0  0  0  0  0  0  0  0  0
  130.5002  131.0865  157.4069 C   0  0  0  0  0  0  0  0  0  0  0  0
  130.2660  131.2215  156.0491 C   0  0  0  0  0  0  0  0  0  0  0  0
  130.6165  130.2302  155.2006 F   0  0  0  0  0  0  0  0  0  0  0  0
  129.6716  132.3730  155.5613 C   0  0  0  0  0  0  0  0  0  0  0  0
  129.3130  133.3861  156.4301 C   0  0  0  0  0  0  0  0  0  0  0  0
  130.1635  134.4471  159.8932 C   0  0  0  0  0  0  0  0  0  0  0  0
  131.1982  138.6888  161.8867 C   0  0  0  0  0  0  0  0  0  0  0  0
  129.4759  140.0395  160.2084 H   0  0  0  0  0  0  0  0  0  0  0  0
  128.3032  141.3670  160.0338 H   0  0  0  0  0  0  0  0  0  0  0  0
  129.9300  141.6954  160.6768 H   0  0  0  0  0  0  0  0  0  0  0  0
  125.1638  139.6473  164.4771 H   0  0  0  0  0  0  0  0  0  0  0  0
  124.9500  139.7515  162.8138 H   0  0  0  0  0  0  0  0  0  0  0  0
  127.2829  140.0578  165.5486 H   0  0  0  0  0  0  0  0  0  0  0  0
  129.6724  140.6617  165.2564 H   0  0  0  0  0  0  0  0  0  0  0  0
  133.2095  141.1918  160.8157 H   0  0  0  0  0  0  0  0  0  0  0  0
  133.0268  137.1316  159.5193 H   0  0  0  0  0  0  0  0  0  0  0  0
  130.1223  136.3482  161.7239 H   0  0  0  0  0  0  0  0  0  0  0  0
  131.7515  135.6326  161.6803 H   0  0  0  0  0  0  0  0  0  0  0  0
  129.0315  136.9769  159.8008 H   0  0  0  0  0  0  0  0  0  0  0  0
  130.3155  137.5139  158.6716 H   0  0  0  0  0  0  0  0  0  0  0  0
  129.9072  135.6757  157.1622 H   0  0  0  0  0  0  0  0  0  0  0  0
  128.2444  136.0605  157.7156 H   0  0  0  0  0  0  0  0  0  0  0  0
  130.3137  131.9913  159.3342 H   0  0  0  0  0  0  0  0  0  0  0  0
  130.9637  130.1887  157.7886 H   0  0  0  0  0  0  0  0  0  0  0  0
  129.4881  132.4793  154.5022 H   0  0  0  0  0  0  0  0  0  0  0  0
  128.8493  134.2845  156.0498 H   0  0  0  0  0  0  0  0  0  0  0  0
  129.6440  134.3367  160.8450 H   0  0  0  0  0  0  0  0  0  0  0  0
  130.9219  133.6711  159.7888 H   0  0  0  0  0  0  0  0  0  0  0  0
  130.4054  138.4940  162.5939 H   0  0  0  0  0  0  0  0  0  0  0  0
  1  2  1  0
  1 32  1  0
  1 33  1  0
  1 34  1  0
  2  8  2  0
  2  3  1  0
  3  4  2  0
  4  5  1  0
  4  6  1  0
  5 35  1  0
  5 36  1  0
  6  7  2  0
  6 37  1  0
  7  8  1  0
  7 38  1  0
  8  9  1  0
  9 10  1  0
 10 31  1  0
 10 11  2  0
 11 12  1  0
 11 39  1  0
 12 13  1  0
 12 14  2  0
 14 15  1  0
 14 40  1  0
 15 16  1  0
 15 31  2  0
 16 17  1  0
 16 41  1  0
 16 42  1  0
 17 18  1  6
 17 30  1  0
 17 19  1  0
 19 20  1  0
 19 43  1  0
 19 44  1  0
 20 21  1  0
 20 45  1  0
 20 46  1  0
 21 22  1  1
 21 23  1  0
 21 30  1  0
 23 29  1  0
 23 24  2  0
 24 25  1  0
 24 47  1  0
 25 26  2  0
 25 48  1  0
 26 27  1  0
 26 28  1  0
 28 29  2  0
 28 49  1  0
 29 50  1  0
 30 51  1  0
 30 52  1  0
 31 53  1  0
M  CHG  1  17   1
M  END
>  <DOCK_score>  (1) 
-46.954697

>  <SMILES>  (1) 
Cc1nc(N)ccc1Sc1cc(Cl)cc(C[NH+]2CC[C@@H](c3ccc(F)cc3)C2)c1

$$$$
