C[C@H](NC(NC1CC=CC1)=[NH+][C@H]1CCC(=O)NC1)c1cnn(C)c1
     RDKit          3D

 51 53  0  0  1  0  0  0  0  0999 V2000
  132.9232  134.5532  161.8244 C   0  0  0  0  0  0  0  0  0  0  0  0
  131.7271  135.2897  161.2174 C   0  0  2  0  0  0  0  0  0  0  0  0
  130.9099  135.3116  161.9386 H   0  0  0  0  0  0  0  0  0  0  0  0
  131.2896  134.5942  160.0046 N   0  0  0  0  0  0  0  0  0  0  0  0
  129.9678  134.6334  159.6286 C   0  0  0  0  0  0  0  0  0  0  0  0
  129.5571  133.9807  158.4904 N   0  0  0  0  0  0  0  0  0  0  0  0
  130.5281  133.2433  157.6781 C   0  0  0  0  0  0  0  0  0  0  0  0
  130.0183  133.0657  156.2290 C   0  0  0  0  0  0  0  0  0  0  0  0
  130.4767  131.6830  155.8274 C   0  0  0  0  0  0  0  0  0  0  0  0
  130.8158  130.9783  156.8725 C   0  0  0  0  0  0  0  0  0  0  0  0
  130.6401  131.7735  158.1452 C   0  0  0  0  0  0  0  0  0  0  0  0
  129.1039  135.2894  160.3513 N   0  0  0  0  0  0  0  0  0  0  0  0
  129.3862  136.0673  160.8572 H   0  0  0  0  0  0  0  0  0  0  0  0
  127.7066  134.8518  160.3994 C   0  0  1  0  0  0  0  0  0  0  0  0
  127.2809  134.8763  159.3961 H   0  0  0  0  0  0  0  0  0  0  0  0
  127.6333  133.4242  160.9545 C   0  0  0  0  0  0  0  0  0  0  0  0
  126.1915  132.9275  160.8233 C   0  0  0  0  0  0  0  0  0  0  0  0
  125.2442  133.9594  161.3648 C   0  0  0  0  0  0  0  0  0  0  0  0
  124.1144  133.6138  161.6389 O   0  0  0  0  0  0  0  0  0  0  0  0
  125.5790  135.2352  161.5611 N   0  0  0  0  0  0  0  0  0  0  0  0
  126.9106  135.7770  161.3208 C   0  0  0  0  0  0  0  0  0  0  0  0
  132.1289  136.7000  160.8706 C   0  0  0  0  0  0  0  0  0  0  0  0
  133.1410  137.0719  159.9797 C   0  0  0  0  0  0  0  0  0  0  0  0
  133.1919  138.3786  159.9410 N   0  0  0  0  0  0  0  0  0  0  0  0
  132.2123  138.8805  160.8075 N   0  0  0  0  0  0  0  0  0  0  0  0
  131.9304  140.2953  161.0629 C   0  0  0  0  0  0  0  0  0  0  0  0
  131.5703  137.8307  161.3613 C   0  0  0  0  0  0  0  0  0  0  0  0
  132.6325  133.5332  162.0753 H   0  0  0  0  0  0  0  0  0  0  0  0
  133.2487  135.0708  162.7268 H   0  0  0  0  0  0  0  0  0  0  0  0
  133.7402  134.5314  161.1032 H   0  0  0  0  0  0  0  0  0  0  0  0
  131.9325  134.1061  159.4668 H   0  0  0  0  0  0  0  0  0  0  0  0
  128.6245  134.0084  158.2252 H   0  0  0  0  0  0  0  0  0  0  0  0
  131.5010  133.7344  157.6938 H   0  0  0  0  0  0  0  0  0  0  0  0
  128.9305  133.1288  156.1987 H   0  0  0  0  0  0  0  0  0  0  0  0
  130.4615  133.8173  155.5757 H   0  0  0  0  0  0  0  0  0  0  0  0
  130.5179  131.3248  154.8095 H   0  0  0  0  0  0  0  0  0  0  0  0
  131.1752  129.9606  156.8326 H   0  0  0  0  0  0  0  0  0  0  0  0
  131.5062  131.6466  158.7948 H   0  0  0  0  0  0  0  0  0  0  0  0
  129.7296  131.4685  158.6609 H   0  0  0  0  0  0  0  0  0  0  0  0
  128.2985  132.7746  160.3856 H   0  0  0  0  0  0  0  0  0  0  0  0
  127.9277  133.4232  162.0040 H   0  0  0  0  0  0  0  0  0  0  0  0
  125.9656  132.7448  159.7727 H   0  0  0  0  0  0  0  0  0  0  0  0
  126.0755  132.0000  161.3839 H   0  0  0  0  0  0  0  0  0  0  0  0
  124.8934  135.8407  161.8839 H   0  0  0  0  0  0  0  0  0  0  0  0
  127.4354  135.8779  162.2708 H   0  0  0  0  0  0  0  0  0  0  0  0
  126.8216  136.7588  160.8558 H   0  0  0  0  0  0  0  0  0  0  0  0
  133.7715  136.3968  159.4200 H   0  0  0  0  0  0  0  0  0  0  0  0
  131.1804  140.6498  160.3557 H   0  0  0  0  0  0  0  0  0  0  0  0
  131.5557  140.4134  162.0796 H   0  0  0  0  0  0  0  0  0  0  0  0
  132.8454  140.8755  160.9432 H   0  0  0  0  0  0  0  0  0  0  0  0
  130.7581  137.8833  162.0712 H   0  0  0  0  0  0  0  0  0  0  0  0
  1  2  1  0
  1 28  1  0
  1 29  1  0
  1 30  1  0
  2  3  1  1
  2  4  1  0
  2 22  1  0
  4 31  1  0
  5  4  1  0
  5  6  1  0
  5 12  2  0
  6  7  1  0
  6 32  1  0
  7 11  1  0
  7  8  1  0
  7 33  1  0
  8  9  1  0
  8 34  1  0
  8 35  1  0
  9 10  2  0
  9 36  1  0
 10 11  1  0
 10 37  1  0
 11 38  1  0
 11 39  1  0
 12 13  1  0
 12 14  1  0
 14 15  1  6
 14 21  1  0
 14 16  1  0
 16 17  1  0
 16 40  1  0
 16 41  1  0
 17 18  1  0
 17 42  1  0
 17 43  1  0
 18 19  2  0
 18 20  1  0
 20 21  1  0
 20 44  1  0
 21 45  1  0
 21 46  1  0
 22 27  2  0
 22 23  1  0
 23 24  2  0
 23 47  1  0
 24 25  1  0
 25 26  1  0
 25 27  1  0
 26 48  1  0
 26 49  1  0
 26 50  1  0
 27 51  1  0
M  CHG  1  12   1
M  END
>  <DOCK_score>  (1) 
-43.935699

>  <SMILES>  (1) 
C[C@H](NC(NC1CC=CC1)=[NH+][C@H]1CCC(=O)NC1)c1cnn(C)c1

$$$$
