O=C1CC[C@@H](NC(N[C@H]2C[C@](Br)(c3ccc(F)cc3)C2)=[NH+]C2CC2)CN1
     RDKit          3D

 51 54  0  0  1  0  0  0  0  0999 V2000
  126.3177  137.0559  164.9777 O   0  0  0  0  0  0  0  0  0  0  0  0
  126.8929  136.6580  163.9869 C   0  0  0  0  0  0  0  0  0  0  0  0
  128.3631  136.3687  164.0866 C   0  0  0  0  0  0  0  0  0  0  0  0
  128.8017  135.4894  162.9128 C   0  0  0  0  0  0  0  0  0  0  0  0
  128.2605  136.1055  161.6170 C   0  0  1  0  0  0  0  0  0  0  0  0
  128.5465  137.1561  161.5644 H   0  0  0  0  0  0  0  0  0  0  0  0
  128.8110  135.3880  160.4644 N   0  0  0  0  0  0  0  0  0  0  0  0
  129.9918  135.8035  159.8960 C   0  0  0  0  0  0  0  0  0  0  0  0
  130.6562  136.8923  160.4091 N   0  0  0  0  0  0  0  0  0  0  0  0
  132.1158  136.9721  160.3123 C   0  0  1  0  0  0  0  0  0  0  0  0
  132.5548  136.1083  159.8132 H   0  0  0  0  0  0  0  0  0  0  0  0
  132.6248  138.3204  159.7758 C   0  0  0  0  0  0  0  0  0  0  0  0
  132.6418  138.8055  161.2351 C   0  0  2  0  0  0  0  0  0  0  0  0
  130.9423  139.6025  161.8198 Br  0  0  0  0  0  0  0  0  0  0  0  0
  133.8370  139.6584  161.5737 C   0  0  0  0  0  0  0  0  0  0  0  0
  134.4273  140.4392  160.5975 C   0  0  0  0  0  0  0  0  0  0  0  0
  135.5200  141.2262  160.9083 C   0  0  0  0  0  0  0  0  0  0  0  0
  136.0306  141.2236  162.1954 C   0  0  0  0  0  0  0  0  0  0  0  0
  137.1027  141.9877  162.4988 F   0  0  0  0  0  0  0  0  0  0  0  0
  135.4421  140.4368  163.1710 C   0  0  0  0  0  0  0  0  0  0  0  0
  134.3457  139.6553  162.8591 C   0  0  0  0  0  0  0  0  0  0  0  0
  132.8025  137.3309  161.6407 C   0  0  0  0  0  0  0  0  0  0  0  0
  130.4816  135.1651  158.8705 N   0  0  0  0  0  0  0  0  0  0  0  0
  131.3147  135.4582  158.4694 H   0  0  0  0  0  0  0  0  0  0  0  0
  129.7737  134.0047  158.3238 C   0  0  0  0  0  0  0  0  0  0  0  0
  129.9697  132.6611  159.0289 C   0  0  0  0  0  0  0  0  0  0  0  0
  130.6152  132.9103  157.6643 C   0  0  0  0  0  0  0  0  0  0  0  0
  126.7359  135.9883  161.6185 C   0  0  0  0  0  0  0  0  0  0  0  0
  126.1859  136.5011  162.8670 N   0  0  0  0  0  0  0  0  0  0  0  0
  128.5674  135.8503  165.0234 H   0  0  0  0  0  0  0  0  0  0  0  0
  128.9178  137.3067  164.0633 H   0  0  0  0  0  0  0  0  0  0  0  0
  128.3993  134.4840  163.0371 H   0  0  0  0  0  0  0  0  0  0  0  0
  129.8900  135.4466  162.8723 H   0  0  0  0  0  0  0  0  0  0  0  0
  128.3423  134.6198  160.1024 H   0  0  0  0  0  0  0  0  0  0  0  0
  130.1585  137.6077  160.8351 H   0  0  0  0  0  0  0  0  0  0  0  0
  133.6146  138.2644  159.3228 H   0  0  0  0  0  0  0  0  0  0  0  0
  131.9009  138.8428  159.1503 H   0  0  0  0  0  0  0  0  0  0  0  0
  134.0319  140.4374  159.5925 H   0  0  0  0  0  0  0  0  0  0  0  0
  135.9784  141.8393  160.1465 H   0  0  0  0  0  0  0  0  0  0  0  0
  135.8393  140.4341  164.1751 H   0  0  0  0  0  0  0  0  0  0  0  0
  133.8865  139.0416  163.6199 H   0  0  0  0  0  0  0  0  0  0  0  0
  132.2221  137.0544  162.5210 H   0  0  0  0  0  0  0  0  0  0  0  0
  133.8409  137.0044  161.6975 H   0  0  0  0  0  0  0  0  0  0  0  0
  128.7923  134.2109  157.8968 H   0  0  0  0  0  0  0  0  0  0  0  0
  130.6252  132.6404  159.8995 H   0  0  0  0  0  0  0  0  0  0  0  0
  129.1171  131.9831  159.0660 H   0  0  0  0  0  0  0  0  0  0  0  0
  130.1873  132.3962  156.8037 H   0  0  0  0  0  0  0  0  0  0  0  0
  131.6955  133.0536  157.6372 H   0  0  0  0  0  0  0  0  0  0  0  0
  126.3299  136.5602  160.7841 H   0  0  0  0  0  0  0  0  0  0  0  0
  126.4551  134.9413  161.5042 H   0  0  0  0  0  0  0  0  0  0  0  0
  125.2468  136.7435  162.8845 H   0  0  0  0  0  0  0  0  0  0  0  0
  1  2  2  0
  2 29  1  0
  2  3  1  0
  3  4  1  0
  3 30  1  0
  3 31  1  0
  4  5  1  0
  4 32  1  0
  4 33  1  0
  5  6  1  6
  5  7  1  0
  5 28  1  0
  7 34  1  0
  8  7  1  0
  8  9  1  0
  8 23  2  0
  9 10  1  0
  9 35  1  0
 10 11  1  6
 10 22  1  0
 10 12  1  0
 12 13  1  0
 12 36  1  0
 12 37  1  0
 13 14  1  1
 13 15  1  0
 13 22  1  0
 15 21  1  0
 15 16  2  0
 16 17  1  0
 16 38  1  0
 17 18  2  0
 17 39  1  0
 18 19  1  0
 18 20  1  0
 20 21  2  0
 20 40  1  0
 21 41  1  0
 22 42  1  0
 22 43  1  0
 23 24  1  0
 23 25  1  0
 25 27  1  0
 25 26  1  0
 25 44  1  0
 26 27  1  0
 26 45  1  0
 26 46  1  0
 27 47  1  0
 27 48  1  0
 28 29  1  0
 28 49  1  0
 28 50  1  0
 29 51  1  0
M  CHG  1  23   1
M  END
>  <DOCK_score>  (1) 
-41.62709

>  <SMILES>  (1) 
O=C1CC[C@@H](NC(N[C@H]2C[C@](Br)(c3ccc(F)cc3)C2)=[NH+]C2CC2)CN1

$$$$
