Oc1ccc([C@H](Nc2[nH]cc(-c3cccnc3)[nH+]2)c2ccc(F)cc2)cc1
     RDKit          3D

 45 48  0  0  1  0  0  0  0  0999 V2000
  130.1296  141.4377  161.3297 O   0  0  0  0  0  0  0  0  0  0  0  0
  129.8704  140.1314  161.0588 C   0  0  0  0  0  0  0  0  0  0  0  0
  129.1345  139.3688  161.9542 C   0  0  0  0  0  0  0  0  0  0  0  0
  128.8727  138.0411  161.6766 C   0  0  0  0  0  0  0  0  0  0  0  0
  129.3430  137.4722  160.5075 C   0  0  0  0  0  0  0  0  0  0  0  0
  129.0557  136.0238  160.2071 C   0  0  2  0  0  0  0  0  0  0  0  0
  128.9726  135.4685  161.1414 H   0  0  0  0  0  0  0  0  0  0  0  0
  130.1459  135.4662  159.4029 N   0  0  0  0  0  0  0  0  0  0  0  0
  130.1029  134.1417  159.0020 C   0  0  0  0  0  0  0  0  0  0  0  0
  129.5081  133.1258  159.6848 N   0  0  0  0  0  0  0  0  0  0  0  0
  129.0422  133.1986  160.5324 H   0  0  0  0  0  0  0  0  0  0  0  0
  129.6871  131.9785  158.9507 C   0  0  0  0  0  0  0  0  0  0  0  0
  130.3930  132.3245  157.8457 C   0  0  0  0  0  0  0  0  0  0  0  0
  130.8260  131.4070  156.7637 C   0  0  0  0  0  0  0  0  0  0  0  0
  130.3981  131.6082  155.4481 C   0  0  0  0  0  0  0  0  0  0  0  0
  130.8350  130.7277  154.4737 C   0  0  0  0  0  0  0  0  0  0  0  0
  131.6634  129.6793  154.8316 C   0  0  0  0  0  0  0  0  0  0  0  0
  132.0463  129.5116  156.0826 N   0  0  0  0  0  0  0  0  0  0  0  0
  131.6611  130.3270  157.0428 C   0  0  0  0  0  0  0  0  0  0  0  0
  130.6334  133.6585  157.9052 N   0  0  0  0  0  0  0  0  0  0  0  0
  131.1205  134.1724  157.2422 H   0  0  0  0  0  0  0  0  0  0  0  0
  127.7616  135.9166  159.4423 C   0  0  0  0  0  0  0  0  0  0  0  0
  126.5675  135.7671  160.1229 C   0  0  0  0  0  0  0  0  0  0  0  0
  125.3796  135.6743  159.4230 C   0  0  0  0  0  0  0  0  0  0  0  0
  125.3865  135.7200  158.0391 C   0  0  0  0  0  0  0  0  0  0  0  0
  124.2264  135.6238  157.3536 F   0  0  0  0  0  0  0  0  0  0  0  0
  126.5836  135.8638  157.3584 C   0  0  0  0  0  0  0  0  0  0  0  0
  127.7699  135.9618  158.0607 C   0  0  0  0  0  0  0  0  0  0  0  0
  130.0816  138.2285  159.6162 C   0  0  0  0  0  0  0  0  0  0  0  0
  130.3415  139.5581  159.8867 C   0  0  0  0  0  0  0  0  0  0  0  0
  129.7605  141.7461  162.1687 H   0  0  0  0  0  0  0  0  0  0  0  0
  128.7668  139.8128  162.8675 H   0  0  0  0  0  0  0  0  0  0  0  0
  128.2999  137.4471  162.3734 H   0  0  0  0  0  0  0  0  0  0  0  0
  130.8977  136.0250  159.1512 H   0  0  0  0  0  0  0  0  0  0  0  0
  129.3370  130.9896  159.2069 H   0  0  0  0  0  0  0  0  0  0  0  0
  129.7470  132.4327  155.1976 H   0  0  0  0  0  0  0  0  0  0  0  0
  130.5286  130.8549  153.4460 H   0  0  0  0  0  0  0  0  0  0  0  0
  132.0023  128.9873  154.0747 H   0  0  0  0  0  0  0  0  0  0  0  0
  131.9960  130.1573  158.0555 H   0  0  0  0  0  0  0  0  0  0  0  0
  126.5627  135.7270  161.2022 H   0  0  0  0  0  0  0  0  0  0  0  0
  124.4464  135.5617  159.9550 H   0  0  0  0  0  0  0  0  0  0  0  0
  126.5904  135.8994  156.2790 H   0  0  0  0  0  0  0  0  0  0  0  0
  128.7038  136.0740  157.5299 H   0  0  0  0  0  0  0  0  0  0  0  0
  130.4519  137.7806  158.7059 H   0  0  0  0  0  0  0  0  0  0  0  0
  130.9151  140.1496  159.1883 H   0  0  0  0  0  0  0  0  0  0  0  0
  1  2  1  0
  1 31  1  0
  2 30  2  0
  2  3  1  0
  3  4  2  0
  3 32  1  0
  4  5  1  0
  4 33  1  0
  5  6  1  0
  5 29  2  0
  6  7  1  1
  6  8  1  0
  6 22  1  0
  8 34  1  0
  9  8  1  0
  9 20  2  0
  9 10  1  0
 10 11  1  0
 10 12  1  0
 12 13  2  0
 12 35  1  0
 13 14  1  0
 13 20  1  0
 14 19  1  0
 14 15  2  0
 15 16  1  0
 15 36  1  0
 16 17  2  0
 16 37  1  0
 17 18  1  0
 17 38  1  0
 18 19  2  0
 19 39  1  0
 20 21  1  0
 22 28  1  0
 22 23  2  0
 23 24  1  0
 23 40  1  0
 24 25  2  0
 24 41  1  0
 25 26  1  0
 25 27  1  0
 27 28  2  0
 27 42  1  0
 28 43  1  0
 29 30  1  0
 29 44  1  0
 30 45  1  0
M  CHG  1  20   1
M  END
>  <DOCK_score>  (1) 
-59.711029

>  <SMILES>  (1) 
Oc1ccc([C@H](Nc2[nH]cc(-c3cccnc3)[nH+]2)c2ccc(F)cc2)cc1

$$$$
