Cc1ccc(-c2cccc(C3=CC[N@H+](Cc4cc5cc(Cl)ccc5s4)CC3)c2)nc1
     RDKit          3D

 54 58  0  0  1  0  0  0  0  0999 V2000
  137.3274  141.9816  167.2921 C   0  0  0  0  0  0  0  0  0  0  0  0
  136.9001  141.5990  165.8986 C   0  0  0  0  0  0  0  0  0  0  0  0
  137.0119  142.5092  164.8567 C   0  0  0  0  0  0  0  0  0  0  0  0
  136.6079  142.1185  163.5920 C   0  0  0  0  0  0  0  0  0  0  0  0
  136.1055  140.8319  163.4092 C   0  0  0  0  0  0  0  0  0  0  0  0
  135.6679  140.3980  162.0596 C   0  0  0  0  0  0  0  0  0  0  0  0
  136.2765  140.9302  160.9232 C   0  0  0  0  0  0  0  0  0  0  0  0
  135.8705  140.5284  159.6660 C   0  0  0  0  0  0  0  0  0  0  0  0
  134.8641  139.5934  159.5252 C   0  0  0  0  0  0  0  0  0  0  0  0
  134.2432  139.0576  160.6548 C   0  0  0  0  0  0  0  0  0  0  0  0
  133.1617  138.0614  160.5034 C   0  0  0  0  0  0  0  0  0  0  0  0
  131.9189  138.4832  160.4136 C   0  0  0  0  0  0  0  0  0  0  0  0
  130.7496  137.5533  160.2636 C   0  0  0  0  0  0  0  0  0  0  0  0
  131.2005  136.2335  159.8071 N   0  0  2  0  0  0  0  0  0  0  0  0
  131.5536  136.3048  158.8646 H   0  0  0  0  0  0  0  0  0  0  0  0
  130.0744  135.2907  159.8401 C   0  0  0  0  0  0  0  0  0  0  0  0
  130.3746  134.1179  158.9429 C   0  0  0  0  0  0  0  0  0  0  0  0
  130.0609  134.0616  157.6637 C   0  0  0  0  0  0  0  0  0  0  0  0
  130.4474  132.8312  156.9923 C   0  0  0  0  0  0  0  0  0  0  0  0
  130.2636  132.4514  155.6450 C   0  0  0  0  0  0  0  0  0  0  0  0
  130.7016  131.2397  155.2036 C   0  0  0  0  0  0  0  0  0  0  0  0
  130.4651  130.7918  153.5432 Cl  0  0  0  0  0  0  0  0  0  0  0  0
  131.3372  130.3596  156.0709 C   0  0  0  0  0  0  0  0  0  0  0  0
  131.5285  130.7043  157.3877 C   0  0  0  0  0  0  0  0  0  0  0  0
  131.0858  131.9433  157.8619 C   0  0  0  0  0  0  0  0  0  0  0  0
  131.1853  132.6547  159.4675 S   0  0  0  0  0  0  0  0  0  0  0  0
  132.2692  135.7557  160.6985 C   0  0  0  0  0  0  0  0  0  0  0  0
  133.5215  136.6017  160.4580 C   0  0  0  0  0  0  0  0  0  0  0  0
  134.6494  139.4601  161.9257 C   0  0  0  0  0  0  0  0  0  0  0  0
  136.0104  139.9935  164.4326 N   0  0  0  0  0  0  0  0  0  0  0  0
  136.3925  140.3381  165.6456 C   0  0  0  0  0  0  0  0  0  0  0  0
  136.4816  142.4159  167.8252 H   0  0  0  0  0  0  0  0  0  0  0  0
  137.6742  141.0945  167.8222 H   0  0  0  0  0  0  0  0  0  0  0  0
  138.1355  142.7110  167.2371 H   0  0  0  0  0  0  0  0  0  0  0  0
  137.4052  143.5001  165.0293 H   0  0  0  0  0  0  0  0  0  0  0  0
  136.6814  142.8014  162.7585 H   0  0  0  0  0  0  0  0  0  0  0  0
  137.0670  141.6587  161.0267 H   0  0  0  0  0  0  0  0  0  0  0  0
  136.3451  140.9436  158.7892 H   0  0  0  0  0  0  0  0  0  0  0  0
  134.5539  139.2794  158.5395 H   0  0  0  0  0  0  0  0  0  0  0  0
  131.7313  139.5461  160.4496 H   0  0  0  0  0  0  0  0  0  0  0  0
  130.0509  137.9670  159.5365 H   0  0  0  0  0  0  0  0  0  0  0  0
  130.2459  137.4496  161.2247 H   0  0  0  0  0  0  0  0  0  0  0  0
  129.1708  135.7918  159.4931 H   0  0  0  0  0  0  0  0  0  0  0  0
  129.9253  134.9385  160.8609 H   0  0  0  0  0  0  0  0  0  0  0  0
  129.5556  134.8682  157.1533 H   0  0  0  0  0  0  0  0  0  0  0  0
  129.7721  133.1261  154.9598 H   0  0  0  0  0  0  0  0  0  0  0  0
  131.6812  129.4017  155.7094 H   0  0  0  0  0  0  0  0  0  0  0  0
  132.0261  130.0182  158.0569 H   0  0  0  0  0  0  0  0  0  0  0  0
  131.9536  135.8595  161.7366 H   0  0  0  0  0  0  0  0  0  0  0  0
  132.4859  134.7095  160.4820 H   0  0  0  0  0  0  0  0  0  0  0  0
  133.9380  136.3607  159.4800 H   0  0  0  0  0  0  0  0  0  0  0  0
  134.2601  136.3857  161.2301 H   0  0  0  0  0  0  0  0  0  0  0  0
  134.1757  139.0451  162.8029 H   0  0  0  0  0  0  0  0  0  0  0  0
  136.3039  139.6276  166.4541 H   0  0  0  0  0  0  0  0  0  0  0  0
  1  2  1  0
  1 32  1  0
  1 33  1  0
  1 34  1  0
  2 31  2  0
  2  3  1  0
  3  4  2  0
  3 35  1  0
  4  5  1  0
  4 36  1  0
  5  6  1  0
  5 30  2  0
  6 29  1  0
  6  7  2  0
  7  8  1  0
  7 37  1  0
  8  9  2  0
  8 38  1  0
  9 10  1  0
  9 39  1  0
 10 11  1  0
 10 29  2  0
 11 28  1  0
 11 12  2  0
 12 13  1  0
 12 40  1  0
 13 14  1  0
 13 41  1  0
 13 42  1  0
 14 15  1  6
 14 16  1  0
 14 27  1  0
 16 17  1  0
 16 43  1  0
 16 44  1  0
 17 26  1  0
 17 18  2  0
 18 19  1  0
 18 45  1  0
 19 25  2  0
 19 20  1  0
 20 21  2  0
 20 46  1  0
 21 22  1  0
 21 23  1  0
 23 24  2  0
 23 47  1  0
 24 25  1  0
 24 48  1  0
 25 26  1  0
 27 28  1  0
 27 49  1  0
 27 50  1  0
 28 51  1  0
 28 52  1  0
 29 53  1  0
 30 31  1  0
 31 54  1  0
M  CHG  1  14   1
M  END
>  <DOCK_score>  (1) 
-58.378712

>  <SMILES>  (1) 
Cc1ccc(-c2cccc(C3=CC[N@H+](Cc4cc5cc(Cl)ccc5s4)CC3)c2)nc1

$$$$
