Cc1cc(O)ccc1Nc1[nH]cc(-c2ccc(N)cc2)[nH+]1
     RDKit          3D

 38 40  0  0  1  0  0  0  0  0999 V2000
  127.4316  135.3431  157.9682 C   0  0  0  0  0  0  0  0  0  0  0  0
  127.9342  135.7661  159.3246 C   0  0  0  0  0  0  0  0  0  0  0  0
  127.0417  136.1835  160.2926 C   0  0  0  0  0  0  0  0  0  0  0  0
  127.5043  136.5775  161.5392 C   0  0  0  0  0  0  0  0  0  0  0  0
  126.6253  136.9928  162.4902 O   0  0  0  0  0  0  0  0  0  0  0  0
  128.8633  136.5488  161.8166 C   0  0  0  0  0  0  0  0  0  0  0  0
  129.7565  136.1277  160.8515 C   0  0  0  0  0  0  0  0  0  0  0  0
  129.2940  135.7324  159.6029 C   0  0  0  0  0  0  0  0  0  0  0  0
  130.1991  135.3059  158.6237 N   0  0  0  0  0  0  0  0  0  0  0  0
  130.0987  134.0287  158.0972 C   0  0  0  0  0  0  0  0  0  0  0  0
  129.6247  132.9352  158.7544 N   0  0  0  0  0  0  0  0  0  0  0  0
  129.2990  132.9101  159.6678 H   0  0  0  0  0  0  0  0  0  0  0  0
  129.6931  131.8730  157.8848 C   0  0  0  0  0  0  0  0  0  0  0  0
  130.2018  132.3493  156.7214 C   0  0  0  0  0  0  0  0  0  0  0  0
  130.4509  131.5604  155.4899 C   0  0  0  0  0  0  0  0  0  0  0  0
  129.8037  131.8974  154.3022 C   0  0  0  0  0  0  0  0  0  0  0  0
  130.0409  131.1661  153.1575 C   0  0  0  0  0  0  0  0  0  0  0  0
  130.9156  130.0867  153.1900 C   0  0  0  0  0  0  0  0  0  0  0  0
  131.1497  129.3440  152.0302 N   0  0  0  0  0  0  0  0  0  0  0  0
  131.5580  129.7456  154.3743 C   0  0  0  0  0  0  0  0  0  0  0  0
  131.3283  130.4776  155.5201 C   0  0  0  0  0  0  0  0  0  0  0  0
  130.4453  133.6735  156.8837 N   0  0  0  0  0  0  0  0  0  0  0  0
  130.8133  134.2645  156.2083 H   0  0  0  0  0  0  0  0  0  0  0  0
  127.2177  134.2743  157.9772 H   0  0  0  0  0  0  0  0  0  0  0  0
  126.5217  135.8937  157.7299 H   0  0  0  0  0  0  0  0  0  0  0  0
  128.1920  135.5551  157.2167 H   0  0  0  0  0  0  0  0  0  0  0  0
  125.9835  136.2062  160.0774 H   0  0  0  0  0  0  0  0  0  0  0  0
  125.7014  136.9787  162.2048 H   0  0  0  0  0  0  0  0  0  0  0  0
  129.2227  136.8560  162.7876 H   0  0  0  0  0  0  0  0  0  0  0  0
  130.8145  136.1060  161.0674 H   0  0  0  0  0  0  0  0  0  0  0  0
  130.8964  135.9048  158.3137 H   0  0  0  0  0  0  0  0  0  0  0  0
  129.3946  130.8551  158.0877 H   0  0  0  0  0  0  0  0  0  0  0  0
  129.1202  132.7334  154.2775 H   0  0  0  0  0  0  0  0  0  0  0  0
  129.5432  131.4298  152.2360 H   0  0  0  0  0  0  0  0  0  0  0  0
  131.7605  128.5901  152.0523 H   0  0  0  0  0  0  0  0  0  0  0  0
  130.7019  129.5810  151.2035 H   0  0  0  0  0  0  0  0  0  0  0  0
  132.2374  128.9063  154.3974 H   0  0  0  0  0  0  0  0  0  0  0  0
  131.8279  130.2123  156.4401 H   0  0  0  0  0  0  0  0  0  0  0  0
  1  2  1  0
  1 24  1  0
  1 25  1  0
  1 26  1  0
  2  8  2  0
  2  3  1  0
  3  4  2  0
  3 27  1  0
  4  5  1  0
  4  6  1  0
  5 28  1  0
  6  7  2  0
  6 29  1  0
  7  8  1  0
  7 30  1  0
  8  9  1  0
  9 31  1  0
 10  9  1  0
 10 22  2  0
 10 11  1  0
 11 12  1  0
 11 13  1  0
 13 14  2  0
 13 32  1  0
 14 15  1  0
 14 22  1  0
 15 21  1  0
 15 16  2  0
 16 17  1  0
 16 33  1  0
 17 18  2  0
 17 34  1  0
 18 19  1  0
 18 20  1  0
 19 35  1  0
 19 36  1  0
 20 21  2  0
 20 37  1  0
 21 38  1  0
 22 23  1  0
M  CHG  1  22   1
M  END
>  <DOCK_score>  (1) 
-52.472836

>  <SMILES>  (1) 
Cc1cc(O)ccc1Nc1[nH]cc(-c2ccc(N)cc2)[nH+]1

$$$$
