Cc1c[nH]c(Nc2ccc(Nc3ccc(Nc4ccc(-c5ccc(N)cc5)cc4)cc3)cc2)[nH+]1
     RDKit          3D

 61 65  0  0  1  0  0  0  0  0999 V2000
  130.5441  131.8446  154.6911 C   0  0  0  0  0  0  0  0  0  0  0  0
  130.1573  132.4641  156.0093 C   0  0  0  0  0  0  0  0  0  0  0  0
  129.6114  131.8167  157.0529 C   0  0  0  0  0  0  0  0  0  0  0  0
  129.4183  132.7489  158.0469 N   0  0  0  0  0  0  0  0  0  0  0  0
  129.0391  132.5861  158.9248 H   0  0  0  0  0  0  0  0  0  0  0  0
  129.8593  133.9423  157.5645 C   0  0  0  0  0  0  0  0  0  0  0  0
  129.8457  135.1475  158.2478 N   0  0  0  0  0  0  0  0  0  0  0  0
  128.8580  135.3965  159.2086 C   0  0  0  0  0  0  0  0  0  0  0  0
  129.1357  136.2178  160.2935 C   0  0  0  0  0  0  0  0  0  0  0  0
  128.1603  136.4673  161.2382 C   0  0  0  0  0  0  0  0  0  0  0  0
  126.9043  135.8883  161.1091 C   0  0  0  0  0  0  0  0  0  0  0  0
  125.9169  136.1372  162.0692 N   0  0  0  0  0  0  0  0  0  0  0  0
  126.2802  136.3946  163.3960 C   0  0  0  0  0  0  0  0  0  0  0  0
  125.9362  137.6030  163.9884 C   0  0  0  0  0  0  0  0  0  0  0  0
  126.2896  137.8545  165.2991 C   0  0  0  0  0  0  0  0  0  0  0  0
  126.9990  136.9038  166.0218 C   0  0  0  0  0  0  0  0  0  0  0  0
  127.3620  137.1610  167.3490 N   0  0  0  0  0  0  0  0  0  0  0  0
  127.6018  138.4718  167.7658 C   0  0  0  0  0  0  0  0  0  0  0  0
  127.3434  138.8403  169.0812 C   0  0  0  0  0  0  0  0  0  0  0  0
  127.5850  140.1326  169.4961 C   0  0  0  0  0  0  0  0  0  0  0  0
  128.0781  141.0731  168.5929 C   0  0  0  0  0  0  0  0  0  0  0  0
  128.3329  142.4655  169.0355 C   0  0  0  0  0  0  0  0  0  0  0  0
  128.2176  143.5184  168.1288 C   0  0  0  0  0  0  0  0  0  0  0  0
  128.4498  144.8126  168.5437 C   0  0  0  0  0  0  0  0  0  0  0  0
  128.8090  145.0668  169.8627 C   0  0  0  0  0  0  0  0  0  0  0  0
  129.0489  146.3777  170.2793 N   0  0  0  0  0  0  0  0  0  0  0  0
  128.9303  144.0182  170.7663 C   0  0  0  0  0  0  0  0  0  0  0  0
  128.6939  142.7230  170.3571 C   0  0  0  0  0  0  0  0  0  0  0  0
  128.3312  140.7029  167.2725 C   0  0  0  0  0  0  0  0  0  0  0  0
  128.0932  139.4081  166.8632 C   0  0  0  0  0  0  0  0  0  0  0  0
  127.3479  135.6978  165.4277 C   0  0  0  0  0  0  0  0  0  0  0  0
  126.9896  135.4439  164.1188 C   0  0  0  0  0  0  0  0  0  0  0  0
  126.6282  135.0626  160.0267 C   0  0  0  0  0  0  0  0  0  0  0  0
  127.6020  134.8176  159.0793 C   0  0  0  0  0  0  0  0  0  0  0  0
  130.3047  133.7568  156.3442 N   0  0  0  0  0  0  0  0  0  0  0  0
  130.6795  134.4453  155.7729 H   0  0  0  0  0  0  0  0  0  0  0  0
  129.6986  131.8934  154.0047 H   0  0  0  0  0  0  0  0  0  0  0  0
  131.3880  132.3890  154.2674 H   0  0  0  0  0  0  0  0  0  0  0  0
  130.8253  130.8032  154.8477 H   0  0  0  0  0  0  0  0  0  0  0  0
  129.3706  130.7651  157.1025 H   0  0  0  0  0  0  0  0  0  0  0  0
  130.5204  135.8188  158.0606 H   0  0  0  0  0  0  0  0  0  0  0  0
  130.1136  136.6647  160.3961 H   0  0  0  0  0  0  0  0  0  0  0  0
  128.3750  137.1095  162.0795 H   0  0  0  0  0  0  0  0  0  0  0  0
  124.9809  136.1313  161.8150 H   0  0  0  0  0  0  0  0  0  0  0  0
  125.3889  138.3441  163.4250 H   0  0  0  0  0  0  0  0  0  0  0  0
  126.0181  138.7922  165.7612 H   0  0  0  0  0  0  0  0  0  0  0  0
  127.4467  136.4285  167.9793 H   0  0  0  0  0  0  0  0  0  0  0  0
  126.9576  138.1125  169.7796 H   0  0  0  0  0  0  0  0  0  0  0  0
  127.3881  140.4175  170.5191 H   0  0  0  0  0  0  0  0  0  0  0  0
  127.9428  143.3208  167.1031 H   0  0  0  0  0  0  0  0  0  0  0  0
  128.3564  145.6289  167.8427 H   0  0  0  0  0  0  0  0  0  0  0  0
  129.3001  146.5560  171.1986 H   0  0  0  0  0  0  0  0  0  0  0  0
  128.9652  147.1101  169.6483 H   0  0  0  0  0  0  0  0  0  0  0  0
  129.2099  144.2180  171.7902 H   0  0  0  0  0  0  0  0  0  0  0  0
  128.7887  141.9085  171.0598 H   0  0  0  0  0  0  0  0  0  0  0  0
  128.7136  141.4297  166.5713 H   0  0  0  0  0  0  0  0  0  0  0  0
  128.2890  139.1210  165.8406 H   0  0  0  0  0  0  0  0  0  0  0  0
  127.8991  134.9584  165.9898 H   0  0  0  0  0  0  0  0  0  0  0  0
  127.2612  134.5063  163.6567 H   0  0  0  0  0  0  0  0  0  0  0  0
  125.6515  134.6126  159.9260 H   0  0  0  0  0  0  0  0  0  0  0  0
  127.3874  134.1753  158.2380 H   0  0  0  0  0  0  0  0  0  0  0  0
  1  2  1  0
  1 37  1  0
  1 38  1  0
  1 39  1  0
  2 35  1  0
  2  3  2  0
  3  4  1  0
  3 40  1  0
  4  5  1  0
  4  6  1  0
  6  7  1  0
  6 35  2  0
  7  8  1  0
  7 41  1  0
  8 34  1  0
  8  9  2  0
  9 10  1  0
  9 42  1  0
 10 11  2  0
 10 43  1  0
 11 12  1  0
 11 33  1  0
 12 13  1  0
 12 44  1  0
 13 32  1  0
 13 14  2  0
 14 15  1  0
 14 45  1  0
 15 16  2  0
 15 46  1  0
 16 17  1  0
 16 31  1  0
 17 18  1  0
 17 47  1  0
 18 30  1  0
 18 19  2  0
 19 20  1  0
 19 48  1  0
 20 21  2  0
 20 49  1  0
 21 22  1  0
 21 29  1  0
 22 28  1  0
 22 23  2  0
 23 24  1  0
 23 50  1  0
 24 25  2  0
 24 51  1  0
 25 26  1  0
 25 27  1  0
 26 52  1  0
 26 53  1  0
 27 28  2  0
 27 54  1  0
 28 55  1  0
 29 30  2  0
 29 56  1  0
 30 57  1  0
 31 32  2  0
 31 58  1  0
 32 59  1  0
 33 34  2  0
 33 60  1  0
 34 61  1  0
 35 36  1  0
M  CHG  1  35   1
M  END
>  <DOCK_score>  (1) 
-51.821529

>  <SMILES>  (1) 
Cc1c[nH]c(Nc2ccc(Nc3ccc(Nc4ccc(-c5ccc(N)cc5)cc4)cc3)cc2)[nH+]1

$$$$
