Nc1ccc(-c2c[nH]c(Nc3cccc([C@@H](Nc4nc5ccccc5[nH]4)c4ccccc4)c3)[nH+]2)cc1
     RDKit          3D

 62 67  0  0  1  0  0  0  0  0999 V2000
  130.6712  130.4795  151.6858 N   0  0  0  0  0  0  0  0  0  0  0  0
  130.6158  130.9706  152.9924 C   0  0  0  0  0  0  0  0  0  0  0  0
  130.2057  132.2781  153.2257 C   0  0  0  0  0  0  0  0  0  0  0  0
  130.1507  132.7650  154.5146 C   0  0  0  0  0  0  0  0  0  0  0  0
  130.5065  131.9448  155.5841 C   0  0  0  0  0  0  0  0  0  0  0  0
  130.4481  132.4662  156.9718 C   0  0  0  0  0  0  0  0  0  0  0  0
  130.1929  131.7386  158.0874 C   0  0  0  0  0  0  0  0  0  0  0  0
  130.2334  132.6100  159.1494 N   0  0  0  0  0  0  0  0  0  0  0  0
  130.0897  132.3861  160.0823 H   0  0  0  0  0  0  0  0  0  0  0  0
  130.5124  133.8450  158.6505 C   0  0  0  0  0  0  0  0  0  0  0  0
  130.6405  135.0063  159.3951 N   0  0  0  0  0  0  0  0  0  0  0  0
  130.4801  134.9677  160.7830 C   0  0  0  0  0  0  0  0  0  0  0  0
  129.2757  134.5471  161.3333 C   0  0  0  0  0  0  0  0  0  0  0  0
  129.1205  134.5102  162.7048 C   0  0  0  0  0  0  0  0  0  0  0  0
  130.1625  134.8912  163.5307 C   0  0  0  0  0  0  0  0  0  0  0  0
  131.3623  135.3109  162.9864 C   0  0  0  0  0  0  0  0  0  0  0  0
  132.4944  135.7261  163.8902 C   0  0  1  0  0  0  0  0  0  0  0  0
  132.4336  135.1717  164.8268 H   0  0  0  0  0  0  0  0  0  0  0  0
  133.7729  135.4391  163.2350 N   0  0  0  0  0  0  0  0  0  0  0  0
  134.9577  135.7357  163.8752 C   0  0  0  0  0  0  0  0  0  0  0  0
  136.1526  135.5219  163.3834 N   0  0  0  0  0  0  0  0  0  0  0  0
  137.0930  135.9340  164.2739 C   0  0  0  0  0  0  0  0  0  0  0  0
  138.4899  135.9410  164.2605 C   0  0  0  0  0  0  0  0  0  0  0  0
  139.1818  136.4307  165.3454 C   0  0  0  0  0  0  0  0  0  0  0  0
  138.5022  136.9174  166.4525 C   0  0  0  0  0  0  0  0  0  0  0  0
  137.1229  136.9179  166.4810 C   0  0  0  0  0  0  0  0  0  0  0  0
  136.4099  136.4281  165.3973 C   0  0  0  0  0  0  0  0  0  0  0  0
  135.0599  136.2907  165.1185 N   0  0  0  0  0  0  0  0  0  0  0  0
  134.3241  136.5420  165.6986 H   0  0  0  0  0  0  0  0  0  0  0  0
  132.3954  137.2030  164.1734 C   0  0  0  0  0  0  0  0  0  0  0  0
  131.6731  137.6507  165.2635 C   0  0  0  0  0  0  0  0  0  0  0  0
  131.5779  139.0058  165.5203 C   0  0  0  0  0  0  0  0  0  0  0  0
  132.2136  139.9122  164.6931 C   0  0  0  0  0  0  0  0  0  0  0  0
  132.9397  139.4643  163.6052 C   0  0  0  0  0  0  0  0  0  0  0  0
  133.0308  138.1095  163.3456 C   0  0  0  0  0  0  0  0  0  0  0  0
  131.5224  135.3552  161.6152 C   0  0  0  0  0  0  0  0  0  0  0  0
  130.6343  133.7557  157.3482 N   0  0  0  0  0  0  0  0  0  0  0  0
  130.8289  134.4937  156.7497 H   0  0  0  0  0  0  0  0  0  0  0  0
  130.9228  130.6355  155.3472 C   0  0  0  0  0  0  0  0  0  0  0  0
  130.9709  130.1512  154.0572 C   0  0  0  0  0  0  0  0  0  0  0  0
  130.4236  131.0514  150.9419 H   0  0  0  0  0  0  0  0  0  0  0  0
  130.9577  129.5679  151.5219 H   0  0  0  0  0  0  0  0  0  0  0  0
  129.9301  132.9133  152.3967 H   0  0  0  0  0  0  0  0  0  0  0  0
  129.8318  133.7808  154.6955 H   0  0  0  0  0  0  0  0  0  0  0  0
  129.9953  130.6778  158.1327 H   0  0  0  0  0  0  0  0  0  0  0  0
  130.8417  135.8461  158.9532 H   0  0  0  0  0  0  0  0  0  0  0  0
  128.4616  134.2496  160.6889 H   0  0  0  0  0  0  0  0  0  0  0  0
  128.1845  134.1836  163.1332 H   0  0  0  0  0  0  0  0  0  0  0  0
  130.0384  134.8614  164.6031 H   0  0  0  0  0  0  0  0  0  0  0  0
  133.7859  135.0404  162.3509 H   0  0  0  0  0  0  0  0  0  0  0  0
  139.0253  135.5632  163.4021 H   0  0  0  0  0  0  0  0  0  0  0  0
  140.2618  136.4356  165.3348 H   0  0  0  0  0  0  0  0  0  0  0  0
  139.0565  137.2988  167.2972 H   0  0  0  0  0  0  0  0  0  0  0  0
  136.5996  137.2984  167.3457 H   0  0  0  0  0  0  0  0  0  0  0  0
  131.1801  136.9422  165.9125 H   0  0  0  0  0  0  0  0  0  0  0  0
  131.0106  139.3558  166.3700 H   0  0  0  0  0  0  0  0  0  0  0  0
  132.1427  140.9706  164.8961 H   0  0  0  0  0  0  0  0  0  0  0  0
  133.4361  140.1725  162.9584 H   0  0  0  0  0  0  0  0  0  0  0  0
  133.5981  137.7595  162.4958 H   0  0  0  0  0  0  0  0  0  0  0  0
  132.4584  135.6870  161.1907 H   0  0  0  0  0  0  0  0  0  0  0  0
  131.2036  129.9999  156.1740 H   0  0  0  0  0  0  0  0  0  0  0  0
  131.2890  129.1356  153.8736 H   0  0  0  0  0  0  0  0  0  0  0  0
  1  2  1  0
  1 41  1  0
  1 42  1  0
  2 40  2  0
  2  3  1  0
  3  4  2  0
  3 43  1  0
  4  5  1  0
  4 44  1  0
  5  6  1  0
  5 39  2  0
  6 37  1  0
  6  7  2  0
  7  8  1  0
  7 45  1  0
  8  9  1  0
  8 10  1  0
 10 11  1  0
 10 37  2  0
 11 12  1  0
 11 46  1  0
 12 36  1  0
 12 13  2  0
 13 14  1  0
 13 47  1  0
 14 15  2  0
 14 48  1  0
 15 16  1  0
 15 49  1  0
 16 17  1  0
 16 36  2  0
 17 18  1  1
 17 19  1  0
 17 30  1  0
 19 20  1  0
 19 50  1  0
 20 28  1  0
 20 21  2  0
 21 22  1  0
 22 27  2  0
 22 23  1  0
 23 24  2  0
 23 51  1  0
 24 25  1  0
 24 52  1  0
 25 26  2  0
 25 53  1  0
 26 27  1  0
 26 54  1  0
 27 28  1  0
 28 29  1  0
 30 35  1  0
 30 31  2  0
 31 32  1  0
 31 55  1  0
 32 33  2  0
 32 56  1  0
 33 34  1  0
 33 57  1  0
 34 35  2  0
 34 58  1  0
 35 59  1  0
 36 60  1  0
 37 38  1  0
 39 40  1  0
 39 61  1  0
 40 62  1  0
M  CHG  1  37   1
M  END
>  <DOCK_score>  (1) 
-57.318581

>  <SMILES>  (1) 
Nc1ccc(-c2c[nH]c(Nc3cccc([C@@H](Nc4nc5ccccc5[nH]4)c4ccccc4)c3)[nH+]2)cc1

$$$$
