Oc1ccc([C@]2(O)c3ccccc3-c3ccc(O)cc32)c(Nc2[nH]cc(-c3ccncc3)[nH+]2)c1
     RDKit          3D

 55 60  0  0  1  0  0  0  0  0999 V2000
  126.3354  135.5384  162.2451 O   0  0  0  0  0  0  0  0  0  0  0  0
  127.6716  135.6714  162.0371 C   0  0  0  0  0  0  0  0  0  0  0  0
  128.5024  136.0535  163.0815 C   0  0  0  0  0  0  0  0  0  0  0  0
  129.8614  136.1888  162.8719 C   0  0  0  0  0  0  0  0  0  0  0  0
  130.3982  135.9440  161.6226 C   0  0  0  0  0  0  0  0  0  0  0  0
  131.8810  136.0917  161.3978 C   0  0  2  0  0  0  0  0  0  0  0  0
  132.3221  135.1641  160.4043 O   0  0  0  0  0  0  0  0  0  0  0  0
  132.6274  135.8638  162.6893 C   0  0  0  0  0  0  0  0  0  0  0  0
  132.7124  134.7737  163.5296 C   0  0  0  0  0  0  0  0  0  0  0  0
  133.4877  134.8399  164.6735 C   0  0  0  0  0  0  0  0  0  0  0  0
  134.1791  135.9990  164.9770 C   0  0  0  0  0  0  0  0  0  0  0  0
  134.1004  137.0941  164.1420 C   0  0  0  0  0  0  0  0  0  0  0  0
  133.3194  137.0347  162.9861 C   0  0  0  0  0  0  0  0  0  0  0  0
  133.0591  138.0439  161.9299 C   0  0  0  0  0  0  0  0  0  0  0  0
  133.5183  139.3544  161.7784 C   0  0  0  0  0  0  0  0  0  0  0  0
  133.1254  140.1014  160.6890 C   0  0  0  0  0  0  0  0  0  0  0  0
  132.2726  139.5557  159.7389 C   0  0  0  0  0  0  0  0  0  0  0  0
  131.8871  140.2958  158.6666 O   0  0  0  0  0  0  0  0  0  0  0  0
  131.8134  138.2534  159.8852 C   0  0  0  0  0  0  0  0  0  0  0  0
  132.2041  137.5032  160.9729 C   0  0  0  0  0  0  0  0  0  0  0  0
  129.5716  135.5617  160.5734 C   0  0  0  0  0  0  0  0  0  0  0  0
  130.1143  135.3140  159.3094 N   0  0  0  0  0  0  0  0  0  0  0  0
  129.9743  134.0644  158.7283 C   0  0  0  0  0  0  0  0  0  0  0  0
  129.3383  132.9973  159.2858 N   0  0  0  0  0  0  0  0  0  0  0  0
  128.9057  132.9758  160.1538 H   0  0  0  0  0  0  0  0  0  0  0  0
  129.4189  131.9595  158.3926 C   0  0  0  0  0  0  0  0  0  0  0  0
  130.1097  132.4171  157.3178 C   0  0  0  0  0  0  0  0  0  0  0  0
  130.4473  131.6395  156.1020 C   0  0  0  0  0  0  0  0  0  0  0  0
  129.9947  132.0438  154.8419 C   0  0  0  0  0  0  0  0  0  0  0  0
  130.3359  131.2935  153.7362 C   0  0  0  0  0  0  0  0  0  0  0  0
  131.0697  130.2037  153.8573 N   0  0  0  0  0  0  0  0  0  0  0  0
  131.5126  129.7847  155.0281 C   0  0  0  0  0  0  0  0  0  0  0  0
  131.2223  130.4781  156.1841 C   0  0  0  0  0  0  0  0  0  0  0  0
  130.4369  133.7126  157.5537 N   0  0  0  0  0  0  0  0  0  0  0  0
  130.9335  134.2865  156.9496 H   0  0  0  0  0  0  0  0  0  0  0  0
  128.2058  135.4253  160.7824 C   0  0  0  0  0  0  0  0  0  0  0  0
  125.8399  135.2687  161.4598 H   0  0  0  0  0  0  0  0  0  0  0  0
  128.0861  136.2449  164.0595 H   0  0  0  0  0  0  0  0  0  0  0  0
  130.5054  136.4863  163.6862 H   0  0  0  0  0  0  0  0  0  0  0  0
  133.2711  135.2036  160.2230 H   0  0  0  0  0  0  0  0  0  0  0  0
  132.1731  133.8680  163.2947 H   0  0  0  0  0  0  0  0  0  0  0  0
  133.5535  133.9852  165.3305 H   0  0  0  0  0  0  0  0  0  0  0  0
  134.7832  136.0466  165.8710 H   0  0  0  0  0  0  0  0  0  0  0  0
  134.6418  137.9971  164.3827 H   0  0  0  0  0  0  0  0  0  0  0  0
  134.1815  139.7825  162.5154 H   0  0  0  0  0  0  0  0  0  0  0  0
  133.4817  141.1143  160.5742 H   0  0  0  0  0  0  0  0  0  0  0  0
  131.2937  139.8312  158.0609 H   0  0  0  0  0  0  0  0  0  0  0  0
  131.1503  137.8284  159.1462 H   0  0  0  0  0  0  0  0  0  0  0  0
  130.5889  136.0171  158.8391 H   0  0  0  0  0  0  0  0  0  0  0  0
  129.0137  130.9667  158.5217 H   0  0  0  0  0  0  0  0  0  0  0  0
  129.3900  132.9323  154.7358 H   0  0  0  0  0  0  0  0  0  0  0  0
  129.9944  131.5998  152.7584 H   0  0  0  0  0  0  0  0  0  0  0  0
  132.1100  128.8865  155.0814 H   0  0  0  0  0  0  0  0  0  0  0  0
  131.5877  130.1294  157.1387 H   0  0  0  0  0  0  0  0  0  0  0  0
  127.5616  135.1237  159.9698 H   0  0  0  0  0  0  0  0  0  0  0  0
  1  2  1  0
  1 37  1  0
  2 36  2  0
  2  3  1  0
  3  4  2  0
  3 38  1  0
  4  5  1  0
  4 39  1  0
  5  6  1  0
  5 21  2  0
  6 20  1  0
  6  7  1  6
  6  8  1  0
  7 40  1  0
  8 13  1  0
  8  9  2  0
  9 10  1  0
  9 41  1  0
 10 11  2  0
 10 42  1  0
 11 12  1  0
 11 43  1  0
 12 13  2  0
 12 44  1  0
 13 14  1  0
 14 20  2  0
 14 15  1  0
 15 16  2  0
 15 45  1  0
 16 17  1  0
 16 46  1  0
 17 18  1  0
 17 19  2  0
 18 47  1  0
 19 20  1  0
 19 48  1  0
 21 22  1  0
 21 36  1  0
 22 49  1  0
 23 22  1  0
 23 34  2  0
 23 24  1  0
 24 25  1  0
 24 26  1  0
 26 27  2  0
 26 50  1  0
 27 28  1  0
 27 34  1  0
 28 33  1  0
 28 29  2  0
 29 30  1  0
 29 51  1  0
 30 31  2  0
 30 52  1  0
 31 32  1  0
 32 33  2  0
 32 53  1  0
 33 54  1  0
 34 35  1  0
 36 55  1  0
M  CHG  1  34   1
M  END
>  <DOCK_score>  (1) 
-47.644554

>  <SMILES>  (1) 
Oc1ccc([C@]2(O)c3ccccc3-c3ccc(O)cc32)c(Nc2[nH]cc(-c3ccncc3)[nH+]2)c1

$$$$
