Cc1cccnc1-c1cccnc1S(=O)(=O)c1cccnc1CNc1[nH]cc(-c2ccc(N)cc2)[nH+]1
     RDKit          3D

 60 64  0  0  1  0  0  0  0  0999 V2000
  134.2930  140.1973  162.2682 C   0  0  0  0  0  0  0  0  0  0  0  0
  133.7011  139.9267  160.9089 C   0  0  0  0  0  0  0  0  0  0  0  0
  134.4697  140.0736  159.7669 C   0  0  0  0  0  0  0  0  0  0  0  0
  133.8839  139.8136  158.5362 C   0  0  0  0  0  0  0  0  0  0  0  0
  132.5598  139.4181  158.4857 C   0  0  0  0  0  0  0  0  0  0  0  0
  131.8522  139.2809  159.5884 N   0  0  0  0  0  0  0  0  0  0  0  0
  132.3732  139.5250  160.7840 C   0  0  0  0  0  0  0  0  0  0  0  0
  131.5364  139.3630  161.9982 C   0  0  0  0  0  0  0  0  0  0  0  0
  130.7994  140.4389  162.5015 C   0  0  0  0  0  0  0  0  0  0  0  0
  130.0389  140.2379  163.6404 C   0  0  0  0  0  0  0  0  0  0  0  0
  130.0324  138.9907  164.2382 C   0  0  0  0  0  0  0  0  0  0  0  0
  130.7383  137.9942  163.7400 N   0  0  0  0  0  0  0  0  0  0  0  0
  131.4768  138.1378  162.6585 C   0  0  0  0  0  0  0  0  0  0  0  0
  132.3979  136.7681  162.0421 S   0  0  0  0  0  0  0  0  0  0  0  0
  132.4873  136.9451  160.6351 O   0  0  0  0  0  0  0  0  0  0  0  0
  133.5360  136.6388  162.8832 O   0  0  0  0  0  0  0  0  0  0  0  0
  131.4216  135.3242  162.3008 C   0  0  0  0  0  0  0  0  0  0  0  0
  131.7981  134.3822  163.2462 C   0  0  0  0  0  0  0  0  0  0  0  0
  130.9971  133.2639  163.4189 C   0  0  0  0  0  0  0  0  0  0  0  0
  129.8631  133.1213  162.6413 C   0  0  0  0  0  0  0  0  0  0  0  0
  129.5383  134.0353  161.7482 N   0  0  0  0  0  0  0  0  0  0  0  0
  130.2743  135.1136  161.5602 C   0  0  0  0  0  0  0  0  0  0  0  0
  129.8585  136.1279  160.5262 C   0  0  0  0  0  0  0  0  0  0  0  0
  130.4633  135.7861  159.2363 N   0  0  0  0  0  0  0  0  0  0  0  0
  130.1829  134.5679  158.6414 C   0  0  0  0  0  0  0  0  0  0  0  0
  129.3705  133.6040  159.1539 N   0  0  0  0  0  0  0  0  0  0  0  0
  128.8878  133.6463  159.9942 H   0  0  0  0  0  0  0  0  0  0  0  0
  129.3574  132.5605  158.2588 C   0  0  0  0  0  0  0  0  0  0  0  0
  130.1688  132.9136  157.2314 C   0  0  0  0  0  0  0  0  0  0  0  0
  130.4658  132.0931  156.0317 C   0  0  0  0  0  0  0  0  0  0  0  0
  130.1451  132.5712  154.7622 C   0  0  0  0  0  0  0  0  0  0  0  0
  130.4273  131.8092  153.6481 C   0  0  0  0  0  0  0  0  0  0  0  0
  131.0201  130.5608  153.7907 C   0  0  0  0  0  0  0  0  0  0  0  0
  131.2992  129.7873  152.6613 N   0  0  0  0  0  0  0  0  0  0  0  0
  131.3358  130.0792  155.0561 C   0  0  0  0  0  0  0  0  0  0  0  0
  131.0607  130.8402  156.1727 C   0  0  0  0  0  0  0  0  0  0  0  0
  130.6607  134.1503  157.4945 N   0  0  0  0  0  0  0  0  0  0  0  0
  131.2693  134.6462  156.9248 H   0  0  0  0  0  0  0  0  0  0  0  0
  134.7894  139.2983  162.6337 H   0  0  0  0  0  0  0  0  0  0  0  0
  135.0177  141.0080  162.1942 H   0  0  0  0  0  0  0  0  0  0  0  0
  133.4998  140.4810  162.9599 H   0  0  0  0  0  0  0  0  0  0  0  0
  135.5021  140.3841  159.8323 H   0  0  0  0  0  0  0  0  0  0  0  0
  134.4567  139.9185  157.6268 H   0  0  0  0  0  0  0  0  0  0  0  0
  132.1007  139.2149  157.5295 H   0  0  0  0  0  0  0  0  0  0  0  0
  130.8232  141.4026  162.0145 H   0  0  0  0  0  0  0  0  0  0  0  0
  129.4570  141.0465  164.0578 H   0  0  0  0  0  0  0  0  0  0  0  0
  129.4398  138.8304  165.1267 H   0  0  0  0  0  0  0  0  0  0  0  0
  132.6921  134.5183  163.8367 H   0  0  0  0  0  0  0  0  0  0  0  0
  131.2580  132.5117  164.1486 H   0  0  0  0  0  0  0  0  0  0  0  0
  129.2356  132.2515  162.7673 H   0  0  0  0  0  0  0  0  0  0  0  0
  128.7728  136.1252  160.4305 H   0  0  0  0  0  0  0  0  0  0  0  0
  130.1938  137.1185  160.8335 H   0  0  0  0  0  0  0  0  0  0  0  0
  131.0602  136.4134  158.7989 H   0  0  0  0  0  0  0  0  0  0  0  0
  128.8100  131.6348  158.3575 H   0  0  0  0  0  0  0  0  0  0  0  0
  129.6797  133.5394  154.6509 H   0  0  0  0  0  0  0  0  0  0  0  0
  130.1831  132.1811  152.6639 H   0  0  0  0  0  0  0  0  0  0  0  0
  131.7132  128.9157  152.7603 H   0  0  0  0  0  0  0  0  0  0  0  0
  131.0790  130.1223  151.7780 H   0  0  0  0  0  0  0  0  0  0  0  0
  131.7967  129.1086  155.1649 H   0  0  0  0  0  0  0  0  0  0  0  0
  131.3062  130.4662  157.1555 H   0  0  0  0  0  0  0  0  0  0  0  0
  1  2  1  0
  1 39  1  0
  1 40  1  0
  1 41  1  0
  2  7  2  0
  2  3  1  0
  3  4  2  0
  3 42  1  0
  4  5  1  0
  4 43  1  0
  5  6  2  0
  5 44  1  0
  6  7  1  0
  7  8  1  0
  8 13  1  0
  8  9  2  0
  9 10  1  0
  9 45  1  0
 10 11  2  0
 10 46  1  0
 11 12  1  0
 11 47  1  0
 12 13  2  0
 13 14  1  0
 14 15  2  0
 14 16  2  0
 14 17  1  0
 17 22  1  0
 17 18  2  0
 18 19  1  0
 18 48  1  0
 19 20  2  0
 19 49  1  0
 20 21  1  0
 20 50  1  0
 21 22  2  0
 22 23  1  0
 23 24  1  0
 23 51  1  0
 23 52  1  0
 24 53  1  0
 25 24  1  0
 25 37  2  0
 25 26  1  0
 26 27  1  0
 26 28  1  0
 28 29  2  0
 28 54  1  0
 29 30  1  0
 29 37  1  0
 30 36  1  0
 30 31  2  0
 31 32  1  0
 31 55  1  0
 32 33  2  0
 32 56  1  0
 33 34  1  0
 33 35  1  0
 34 57  1  0
 34 58  1  0
 35 36  2  0
 35 59  1  0
 36 60  1  0
 37 38  1  0
M  CHG  1  37   1
M  END
>  <DOCK_score>  (1) 
-59.691364

>  <SMILES>  (1) 
Cc1cccnc1-c1cccnc1S(=O)(=O)c1cccnc1CNc1[nH]cc(-c2ccc(N)cc2)[nH+]1

$$$$
