CCCc1c(C)cccc1N1CC[NH+](C(c2ccccc2)c2ccccc2)CC1
     RDKit          3D

 62 65  0  0  0  0  0  0  0  0999 V2000
  132.4653  139.2319  165.0593 C   0  0  0  0  0  0  0  0  0  0  0  0
  132.8445  139.7474  163.6695 C   0  0  0  0  0  0  0  0  0  0  0  0
  134.0568  138.9712  163.1511 C   0  0  0  0  0  0  0  0  0  0  0  0
  134.4304  139.4789  161.7822 C   0  0  0  0  0  0  0  0  0  0  0  0
  135.3354  140.5142  161.6520 C   0  0  0  0  0  0  0  0  0  0  0  0
  135.9488  141.1366  162.8798 C   0  0  0  0  0  0  0  0  0  0  0  0
  135.6787  140.9807  160.3965 C   0  0  0  0  0  0  0  0  0  0  0  0
  135.1183  140.4120  159.2670 C   0  0  0  0  0  0  0  0  0  0  0  0
  134.2133  139.3765  159.3900 C   0  0  0  0  0  0  0  0  0  0  0  0
  133.8695  138.9025  160.6499 C   0  0  0  0  0  0  0  0  0  0  0  0
  132.9580  137.8518  160.7778 N   0  0  0  0  0  0  0  0  0  0  0  0
  133.4860  136.6201  160.1741 C   0  0  0  0  0  0  0  0  0  0  0  0
  132.4858  135.4818  160.3874 C   0  0  0  0  0  0  0  0  0  0  0  0
  131.2005  135.8373  159.7717 N   0  0  0  0  0  0  0  0  0  0  0  0
  131.3341  136.0001  158.7849 H   0  0  0  0  0  0  0  0  0  0  0  0
  130.2462  134.7367  159.9610 C   0  0  0  0  0  0  0  0  0  0  0  0
  128.9273  135.1011  159.3294 C   0  0  0  0  0  0  0  0  0  0  0  0
  127.7497  134.5958  159.8475 C   0  0  0  0  0  0  0  0  0  0  0  0
  126.5397  134.9340  159.2710 C   0  0  0  0  0  0  0  0  0  0  0  0
  126.5076  135.7691  158.1707 C   0  0  0  0  0  0  0  0  0  0  0  0
  127.6862  136.2705  157.6487 C   0  0  0  0  0  0  0  0  0  0  0  0
  128.8958  135.9364  158.2283 C   0  0  0  0  0  0  0  0  0  0  0  0
  130.7853  133.4874  159.3130 C   0  0  0  0  0  0  0  0  0  0  0  0
  130.4832  133.2078  157.9935 C   0  0  0  0  0  0  0  0  0  0  0  0
  130.9816  132.0641  157.3978 C   0  0  0  0  0  0  0  0  0  0  0  0
  131.7735  131.1951  158.1246 C   0  0  0  0  0  0  0  0  0  0  0  0
  132.0712  131.4722  159.4458 C   0  0  0  0  0  0  0  0  0  0  0  0
  131.5771  132.6183  160.0400 C   0  0  0  0  0  0  0  0  0  0  0  0
  130.6740  137.0552  160.4017 C   0  0  0  0  0  0  0  0  0  0  0  0
  131.6592  138.2066  160.1886 C   0  0  0  0  0  0  0  0  0  0  0  0
  131.6017  139.7848  165.4287 H   0  0  0  0  0  0  0  0  0  0  0  0
  132.2194  138.1718  164.9990 H   0  0  0  0  0  0  0  0  0  0  0  0
  133.3048  139.3721  165.7403 H   0  0  0  0  0  0  0  0  0  0  0  0
  133.0905  140.8076  163.7298 H   0  0  0  0  0  0  0  0  0  0  0  0
  132.0050  139.6074  162.9885 H   0  0  0  0  0  0  0  0  0  0  0  0
  133.8108  137.9110  163.0907 H   0  0  0  0  0  0  0  0  0  0  0  0
  134.8962  139.1112  163.8321 H   0  0  0  0  0  0  0  0  0  0  0  0
  136.8673  140.6079  163.1348 H   0  0  0  0  0  0  0  0  0  0  0  0
  136.1757  142.1841  162.6816 H   0  0  0  0  0  0  0  0  0  0  0  0
  135.2473  141.0677  163.7112 H   0  0  0  0  0  0  0  0  0  0  0  0
  136.3863  141.7905  160.2975 H   0  0  0  0  0  0  0  0  0  0  0  0
  135.3887  140.7787  158.2879 H   0  0  0  0  0  0  0  0  0  0  0  0
  133.7763  138.9328  158.5077 H   0  0  0  0  0  0  0  0  0  0  0  0
  133.6384  136.7750  159.1059 H   0  0  0  0  0  0  0  0  0  0  0  0
  134.4353  136.3629  160.6438 H   0  0  0  0  0  0  0  0  0  0  0  0
  132.3440  135.3181  161.4557 H   0  0  0  0  0  0  0  0  0  0  0  0
  132.8691  134.5707  159.9280 H   0  0  0  0  0  0  0  0  0  0  0  0
  130.1021  134.5600  161.0268 H   0  0  0  0  0  0  0  0  0  0  0  0
  127.7746  133.9397  160.7050 H   0  0  0  0  0  0  0  0  0  0  0  0
  125.6192  134.5421  159.6780 H   0  0  0  0  0  0  0  0  0  0  0  0
  125.5630  136.0299  157.7169 H   0  0  0  0  0  0  0  0  0  0  0  0
  127.6615  136.9228  156.7883 H   0  0  0  0  0  0  0  0  0  0  0  0
  129.8163  136.3278  157.8208 H   0  0  0  0  0  0  0  0  0  0  0  0
  129.8608  133.8844  157.4267 H   0  0  0  0  0  0  0  0  0  0  0  0
  130.7487  131.8475  156.3656 H   0  0  0  0  0  0  0  0  0  0  0  0
  132.1593  130.2995  157.6605 H   0  0  0  0  0  0  0  0  0  0  0  0
  132.6897  130.7931  160.0139 H   0  0  0  0  0  0  0  0  0  0  0  0
  131.8095  132.8346  161.0724 H   0  0  0  0  0  0  0  0  0  0  0  0
  130.5415  136.8835  161.4699 H   0  0  0  0  0  0  0  0  0  0  0  0
  129.7141  137.3106  159.9529 H   0  0  0  0  0  0  0  0  0  0  0  0
  131.2758  139.1070  160.6687 H   0  0  0  0  0  0  0  0  0  0  0  0
  131.7815  138.3876  159.1206 H   0  0  0  0  0  0  0  0  0  0  0  0
  1  2  1  0
  1 31  1  0
  1 32  1  0
  1 33  1  0
  2  3  1  0
  2 34  1  0
  2 35  1  0
  3  4  1  0
  3 36  1  0
  3 37  1  0
  4 10  2  0
  4  5  1  0
  5  6  1  0
  5  7  2  0
  6 38  1  0
  6 39  1  0
  6 40  1  0
  7  8  1  0
  7 41  1  0
  8  9  2  0
  8 42  1  0
  9 10  1  0
  9 43  1  0
 10 11  1  0
 11 30  1  0
 11 12  1  0
 12 13  1  0
 12 44  1  0
 12 45  1  0
 13 14  1  0
 13 46  1  0
 13 47  1  0
 14 15  1  0
 14 16  1  0
 14 29  1  0
 16 17  1  0
 16 23  1  0
 16 48  1  0
 17 22  1  0
 17 18  2  0
 18 19  1  0
 18 49  1  0
 19 20  2  0
 19 50  1  0
 20 21  1  0
 20 51  1  0
 21 22  2  0
 21 52  1  0
 22 53  1  0
 23 28  1  0
 23 24  2  0
 24 25  1  0
 24 54  1  0
 25 26  2  0
 25 55  1  0
 26 27  1  0
 26 56  1  0
 27 28  2  0
 27 57  1  0
 28 58  1  0
 29 30  1  0
 29 59  1  0
 29 60  1  0
 30 61  1  0
 30 62  1  0
M  CHG  1  14   1
M  END
>  <DOCK_score>  (1) 
-55.972149

>  <SMILES>  (1) 
CCCc1c(C)cccc1N1CC[NH+](C(c2ccccc2)c2ccccc2)CC1

$$$$
