Nc1ccc(-c2c[nH]c(N[C@@H](CC3=C[C@H]4C[C@@H]3[C@@H](O)[C@H]4O)c3cccc(F)c3Cl)[nH+]2)cc1
     RDKit          3D

 57 61  0  0  1  0  0  0  0  0999 V2000
  131.3975  129.7872  152.2937 N   0  0  0  0  0  0  0  0  0  0  0  0
  131.0848  130.4179  153.5003 C   0  0  0  0  0  0  0  0  0  0  0  0
  130.2496  131.5286  153.5069 C   0  0  0  0  0  0  0  0  0  0  0  0
  129.9350  132.1491  154.6973 C   0  0  0  0  0  0  0  0  0  0  0  0
  130.4646  131.6682  155.8940 C   0  0  0  0  0  0  0  0  0  0  0  0
  130.1325  132.3379  157.1754 C   0  0  0  0  0  0  0  0  0  0  0  0
  129.5188  131.7643  158.2398 C   0  0  0  0  0  0  0  0  0  0  0  0
  129.4083  132.7350  159.2070 N   0  0  0  0  0  0  0  0  0  0  0  0
  129.0115  132.6282  160.0856 H   0  0  0  0  0  0  0  0  0  0  0  0
  129.9582  133.8734  158.7039 C   0  0  0  0  0  0  0  0  0  0  0  0
  130.0471  135.0866  159.3651 N   0  0  0  0  0  0  0  0  0  0  0  0
  129.0339  135.4565  160.3564 C   0  0  1  0  0  0  0  0  0  0  0  0
  129.0246  134.7191  161.1592 H   0  0  0  0  0  0  0  0  0  0  0  0
  129.3642  136.8345  160.9335 C   0  0  0  0  0  0  0  0  0  0  0  0
  130.8523  136.9476  161.1432 C   0  0  0  0  0  0  0  0  0  0  0  0
  131.7233  137.3939  160.2604 C   0  0  0  0  0  0  0  0  0  0  0  0
  133.1211  137.3406  160.8890 C   0  0  1  0  0  0  0  0  0  0  0  0
  133.8906  137.9694  160.4411 H   0  0  0  0  0  0  0  0  0  0  0  0
  132.7546  137.6356  162.3896 C   0  0  0  0  0  0  0  0  0  0  0  0
  131.6107  136.5569  162.4177 C   0  0  2  0  0  0  0  0  0  0  0  0
  131.0200  136.4944  163.3317 H   0  0  0  0  0  0  0  0  0  0  0  0
  132.3968  135.2695  162.0123 C   0  0  1  0  0  0  0  0  0  0  0  0
  132.9080  134.8448  162.8762 H   0  0  0  0  0  0  0  0  0  0  0  0
  131.5179  134.3084  161.4244 O   0  0  0  0  0  0  0  0  0  0  0  0
  133.4370  135.8132  160.9711 C   0  0  1  0  0  0  0  0  0  0  0  0
  134.4572  135.6510  161.3192 H   0  0  0  0  0  0  0  0  0  0  0  0
  133.2360  135.1897  159.7011 O   0  0  0  0  0  0  0  0  0  0  0  0
  127.6791  135.4993  159.6979 C   0  0  0  0  0  0  0  0  0  0  0  0
  127.5711  135.8297  158.3597 C   0  0  0  0  0  0  0  0  0  0  0  0
  126.3291  135.8699  157.7545 C   0  0  0  0  0  0  0  0  0  0  0  0
  125.1928  135.5788  158.4860 C   0  0  0  0  0  0  0  0  0  0  0  0
  125.2986  135.2475  159.8256 C   0  0  0  0  0  0  0  0  0  0  0  0
  124.1886  134.9625  160.5412 F   0  0  0  0  0  0  0  0  0  0  0  0
  126.5445  135.2027  160.4308 C   0  0  0  0  0  0  0  0  0  0  0  0
  126.6805  134.7808  162.1093 Cl  0  0  0  0  0  0  0  0  0  0  0  0
  130.3943  133.6309  157.4917 N   0  0  0  0  0  0  0  0  0  0  0  0
  130.8325  134.2738  156.9127 H   0  0  0  0  0  0  0  0  0  0  0  0
  131.3061  130.5570  155.8846 C   0  0  0  0  0  0  0  0  0  0  0  0
  131.6131  129.9359  154.6924 C   0  0  0  0  0  0  0  0  0  0  0  0
  131.9828  129.0135  152.2881 H   0  0  0  0  0  0  0  0  0  0  0  0
  131.0254  130.1198  151.4620 H   0  0  0  0  0  0  0  0  0  0  0  0
  129.8438  131.9038  152.5790 H   0  0  0  0  0  0  0  0  0  0  0  0
  129.2829  133.0100  154.7023 H   0  0  0  0  0  0  0  0  0  0  0  0
  129.1814  130.7411  158.3135 H   0  0  0  0  0  0  0  0  0  0  0  0
  130.7804  135.6915  159.1721 H   0  0  0  0  0  0  0  0  0  0  0  0
  129.0352  137.6076  160.2391 H   0  0  0  0  0  0  0  0  0  0  0  0
  128.8523  136.9611  161.8874 H   0  0  0  0  0  0  0  0  0  0  0  0
  131.4915  137.7404  159.2640 H   0  0  0  0  0  0  0  0  0  0  0  0
  132.3778  138.6479  162.5362 H   0  0  0  0  0  0  0  0  0  0  0  0
  133.5690  137.3985  163.0743 H   0  0  0  0  0  0  0  0  0  0  0  0
  131.0708  134.6207  160.6259 H   0  0  0  0  0  0  0  0  0  0  0  0
  133.7909  135.5480  158.9948 H   0  0  0  0  0  0  0  0  0  0  0  0
  128.4580  136.0570  157.7869 H   0  0  0  0  0  0  0  0  0  0  0  0
  126.2463  136.1286  156.7091 H   0  0  0  0  0  0  0  0  0  0  0  0
  124.2227  135.6105  158.0124 H   0  0  0  0  0  0  0  0  0  0  0  0
  131.7179  130.1831  156.8103 H   0  0  0  0  0  0  0  0  0  0  0  0
  132.2651  129.0750  154.6846 H   0  0  0  0  0  0  0  0  0  0  0  0
  1  2  1  0
  1 40  1  0
  1 41  1  0
  2 39  2  0
  2  3  1  0
  3  4  2  0
  3 42  1  0
  4  5  1  0
  4 43  1  0
  5  6  1  0
  5 38  2  0
  6 36  1  0
  6  7  2  0
  7  8  1  0
  7 44  1  0
  8  9  1  0
  8 10  1  0
 10 11  1  0
 10 36  2  0
 11 12  1  0
 11 45  1  0
 12 13  1  1
 12 14  1  0
 12 28  1  0
 14 15  1  0
 14 46  1  0
 14 47  1  0
 15 20  1  0
 15 16  2  0
 16 17  1  0
 16 48  1  0
 17 18  1  6
 17 25  1  0
 17 19  1  0
 19 20  1  0
 19 49  1  0
 19 50  1  0
 20 21  1  1
 20 22  1  0
 22 23  1  1
 22 24  1  0
 22 25  1  0
 24 51  1  0
 25 26  1  1
 25 27  1  0
 27 52  1  0
 28 34  1  0
 28 29  2  0
 29 30  1  0
 29 53  1  0
 30 31  2  0
 30 54  1  0
 31 32  1  0
 31 55  1  0
 32 33  1  0
 32 34  2  0
 34 35  1  0
 36 37  1  0
 38 39  1  0
 38 56  1  0
 39 57  1  0
M  CHG  1  36   1
M  END
>  <DOCK_score>  (1) 
-56.935196

>  <SMILES>  (1) 
Nc1ccc(-c2c[nH]c(N[C@@H](CC3=C[C@H]4C[C@@H]3[C@@H](O)[C@H]4O)c3cccc(F)c3Cl)[nH+]2)cc1

$$$$
