Oc1cc(F)cc(C[NH+]=C(NCc2cc(F)cc(Cl)c2)NC2CC=CC2)c1
     RDKit          3D

 48 50  0  0  1  0  0  0  0  0999 V2000
  124.9120  136.0302  163.3777 O   0  0  0  0  0  0  0  0  0  0  0  0
  126.1422  135.9680  163.9518 C   0  0  0  0  0  0  0  0  0  0  0  0
  126.2752  135.5390  165.2641 C   0  0  0  0  0  0  0  0  0  0  0  0
  127.5286  135.4771  165.8463 C   0  0  0  0  0  0  0  0  0  0  0  0
  127.6599  135.0600  167.1245 F   0  0  0  0  0  0  0  0  0  0  0  0
  128.6496  135.8381  165.1169 C   0  0  0  0  0  0  0  0  0  0  0  0
  128.5169  136.2709  163.8112 C   0  0  0  0  0  0  0  0  0  0  0  0
  129.7377  136.6687  163.0223 C   0  0  0  0  0  0  0  0  0  0  0  0
  129.6653  136.0823  161.6815 N   0  0  0  0  0  0  0  0  0  0  0  0
  128.9048  135.5343  161.4324 H   0  0  0  0  0  0  0  0  0  0  0  0
  130.6226  136.2974  160.8237 C   0  0  0  0  0  0  0  0  0  0  0  0
  131.7004  137.0743  161.1769 N   0  0  0  0  0  0  0  0  0  0  0  0
  132.7766  137.3161  160.2126 C   0  0  0  0  0  0  0  0  0  0  0  0
  133.8291  138.1908  160.8434 C   0  0  0  0  0  0  0  0  0  0  0  0
  133.7419  139.5658  160.7325 C   0  0  0  0  0  0  0  0  0  0  0  0
  134.7061  140.3700  161.3160 C   0  0  0  0  0  0  0  0  0  0  0  0
  134.6184  141.7141  161.2122 F   0  0  0  0  0  0  0  0  0  0  0  0
  135.7631  139.7956  162.0015 C   0  0  0  0  0  0  0  0  0  0  0  0
  135.8517  138.4195  162.1069 C   0  0  0  0  0  0  0  0  0  0  0  0
  137.1763  137.6984  162.9667 Cl  0  0  0  0  0  0  0  0  0  0  0  0
  134.8842  137.6176  161.5276 C   0  0  0  0  0  0  0  0  0  0  0  0
  130.5547  135.7472  159.5656 N   0  0  0  0  0  0  0  0  0  0  0  0
  129.4063  134.9192  159.1891 C   0  0  0  0  0  0  0  0  0  0  0  0
  129.3972  133.5902  159.9798 C   0  0  0  0  0  0  0  0  0  0  0  0
  128.9057  132.5585  158.9912 C   0  0  0  0  0  0  0  0  0  0  0  0
  128.9846  133.0053  157.7673 C   0  0  0  0  0  0  0  0  0  0  0  0
  129.5420  134.4095  157.7356 C   0  0  0  0  0  0  0  0  0  0  0  0
  127.2666  136.3340  163.2263 C   0  0  0  0  0  0  0  0  0  0  0  0
  124.9206  136.3409  162.4620 H   0  0  0  0  0  0  0  0  0  0  0  0
  125.4012  135.2540  165.8309 H   0  0  0  0  0  0  0  0  0  0  0  0
  129.6283  135.7853  165.5708 H   0  0  0  0  0  0  0  0  0  0  0  0
  130.6319  136.3063  163.5294 H   0  0  0  0  0  0  0  0  0  0  0  0
  129.7804  137.7548  162.9420 H   0  0  0  0  0  0  0  0  0  0  0  0
  131.7484  137.4625  162.0646 H   0  0  0  0  0  0  0  0  0  0  0  0
  132.3704  137.8139  159.3321 H   0  0  0  0  0  0  0  0  0  0  0  0
  133.2220  136.3655  159.9194 H   0  0  0  0  0  0  0  0  0  0  0  0
  132.9195  140.0131  160.1939 H   0  0  0  0  0  0  0  0  0  0  0  0
  136.5178  140.4220  162.4538 H   0  0  0  0  0  0  0  0  0  0  0  0
  134.9535  136.5430  161.6106 H   0  0  0  0  0  0  0  0  0  0  0  0
  131.2673  135.9072  158.9271 H   0  0  0  0  0  0  0  0  0  0  0  0
  128.4721  135.4637  159.3272 H   0  0  0  0  0  0  0  0  0  0  0  0
  130.4034  133.3427  160.3180 H   0  0  0  0  0  0  0  0  0  0  0  0
  128.7163  133.6577  160.8282 H   0  0  0  0  0  0  0  0  0  0  0  0
  128.5370  131.5801  159.2618 H   0  0  0  0  0  0  0  0  0  0  0  0
  128.6900  132.4451  156.8923 H   0  0  0  0  0  0  0  0  0  0  0  0
  128.9596  135.0340  157.0582 H   0  0  0  0  0  0  0  0  0  0  0  0
  130.5893  134.3974  157.4337 H   0  0  0  0  0  0  0  0  0  0  0  0
  127.1646  136.6687  162.2045 H   0  0  0  0  0  0  0  0  0  0  0  0
  1  2  1  0
  1 29  1  0
  2 28  2  0
  2  3  1  0
  3  4  2  0
  3 30  1  0
  4  5  1  0
  4  6  1  0
  6  7  2  0
  6 31  1  0
  7  8  1  0
  7 28  1  0
  8  9  1  0
  8 32  1  0
  8 33  1  0
  9 10  1  0
 11  9  2  0
 11 12  1  0
 11 22  1  0
 12 13  1  0
 12 34  1  0
 13 14  1  0
 13 35  1  0
 13 36  1  0
 14 21  1  0
 14 15  2  0
 15 16  1  0
 15 37  1  0
 16 17  1  0
 16 18  2  0
 18 19  1  0
 18 38  1  0
 19 20  1  0
 19 21  2  0
 21 39  1  0
 22 23  1  0
 22 40  1  0
 23 27  1  0
 23 24  1  0
 23 41  1  0
 24 25  1  0
 24 42  1  0
 24 43  1  0
 25 26  2  0
 25 44  1  0
 26 27  1  0
 26 45  1  0
 27 46  1  0
 27 47  1  0
 28 48  1  0
M  CHG  1   9   1
M  END
>  <DOCK_score>  (1) 
-42.450069

>  <SMILES>  (1) 
Oc1cc(F)cc(C[NH+]=C(NCc2cc(F)cc(Cl)c2)NC2CC=CC2)c1

$$$$
