CC(C)(O)[C@H](Nc1[nH]cc(-c2ccc(N)cc2)[nH+]1)c1ccccc1
     RDKit          3D

 47 49  0  0  1  0  0  0  0  0999 V2000
  130.9125  136.9305  162.5703 C   0  0  0  0  0  0  0  0  0  0  0  0
  131.2754  136.6951  161.1027 C   0  0  0  0  0  0  0  0  0  0  0  0
  132.7974  136.6926  160.9476 C   0  0  0  0  0  0  0  0  0  0  0  0
  130.7165  137.7376  160.3007 O   0  0  0  0  0  0  0  0  0  0  0  0
  130.7142  135.3460  160.6487 C   0  0  2  0  0  0  0  0  0  0  0  0
  131.1404  134.5509  161.2604 H   0  0  0  0  0  0  0  0  0  0  0  0
  131.0615  135.1207  159.2435 N   0  0  0  0  0  0  0  0  0  0  0  0
  130.6587  133.9581  158.6088 C   0  0  0  0  0  0  0  0  0  0  0  0
  129.9403  132.9524  159.1780 N   0  0  0  0  0  0  0  0  0  0  0  0
  129.6203  132.9215  160.0932 H   0  0  0  0  0  0  0  0  0  0  0  0
  129.7514  131.9884  158.2162 C   0  0  0  0  0  0  0  0  0  0  0  0
  130.3595  132.4333  157.0889 C   0  0  0  0  0  0  0  0  0  0  0  0
  130.4162  131.7215  155.7885 C   0  0  0  0  0  0  0  0  0  0  0  0
  129.8684  132.3066  154.6480 C   0  0  0  0  0  0  0  0  0  0  0  0
  129.9274  131.6457  153.4392 C   0  0  0  0  0  0  0  0  0  0  0  0
  130.5218  130.3921  153.3596 C   0  0  0  0  0  0  0  0  0  0  0  0
  130.5750  129.7222  152.1350 N   0  0  0  0  0  0  0  0  0  0  0  0
  131.0639  129.8042  154.4967 C   0  0  0  0  0  0  0  0  0  0  0  0
  131.0122  130.4639  155.7064 C   0  0  0  0  0  0  0  0  0  0  0  0
  130.9072  133.6443  157.3605 N   0  0  0  0  0  0  0  0  0  0  0  0
  131.4034  134.1909  156.7314 H   0  0  0  0  0  0  0  0  0  0  0  0
  129.2150  135.3485  160.8015 C   0  0  0  0  0  0  0  0  0  0  0  0
  128.6400  134.9223  161.9842 C   0  0  0  0  0  0  0  0  0  0  0  0
  127.2649  134.9288  162.1258 C   0  0  0  0  0  0  0  0  0  0  0  0
  126.4645  135.3528  161.0816 C   0  0  0  0  0  0  0  0  0  0  0  0
  127.0392  135.7741  159.8970 C   0  0  0  0  0  0  0  0  0  0  0  0
  128.4144  135.7717  159.7569 C   0  0  0  0  0  0  0  0  0  0  0  0
  131.3388  136.1354  163.1820 H   0  0  0  0  0  0  0  0  0  0  0  0
  131.3124  137.8917  162.8938 H   0  0  0  0  0  0  0  0  0  0  0  0
  129.8282  136.9324  162.6807 H   0  0  0  0  0  0  0  0  0  0  0  0
  133.0558  136.5249  159.9021 H   0  0  0  0  0  0  0  0  0  0  0  0
  133.1972  137.6537  161.2711 H   0  0  0  0  0  0  0  0  0  0  0  0
  133.2237  135.8974  161.5593 H   0  0  0  0  0  0  0  0  0  0  0  0
  130.9071  137.6525  159.3566 H   0  0  0  0  0  0  0  0  0  0  0  0
  131.5735  135.7861  158.7577 H   0  0  0  0  0  0  0  0  0  0  0  0
  129.2238  131.0538  158.3368 H   0  0  0  0  0  0  0  0  0  0  0  0
  129.4023  133.2788  154.7101 H   0  0  0  0  0  0  0  0  0  0  0  0
  129.5069  132.1005  152.5545 H   0  0  0  0  0  0  0  0  0  0  0  0
  130.9898  128.8465  152.0791 H   0  0  0  0  0  0  0  0  0  0  0  0
  130.1967  130.1309  151.3414 H   0  0  0  0  0  0  0  0  0  0  0  0
  131.5255  128.8300  154.4327 H   0  0  0  0  0  0  0  0  0  0  0  0
  131.4335  130.0069  156.5896 H   0  0  0  0  0  0  0  0  0  0  0  0
  129.2652  134.5875  162.7986 H   0  0  0  0  0  0  0  0  0  0  0  0
  126.8159  134.5999  163.0514 H   0  0  0  0  0  0  0  0  0  0  0  0
  125.3900  135.3552  161.1913 H   0  0  0  0  0  0  0  0  0  0  0  0
  126.4138  136.1054  159.0813 H   0  0  0  0  0  0  0  0  0  0  0  0
  128.8635  136.1008  158.8314 H   0  0  0  0  0  0  0  0  0  0  0  0
  1  2  1  0
  1 28  1  0
  1 29  1  0
  1 30  1  0
  2  3  1  0
  2  4  1  0
  2  5  1  0
  3 31  1  0
  3 32  1  0
  3 33  1  0
  4 34  1  0
  5  6  1  1
  5  7  1  0
  5 22  1  0
  7 35  1  0
  8  7  1  0
  8 20  2  0
  8  9  1  0
  9 10  1  0
  9 11  1  0
 11 12  2  0
 11 36  1  0
 12 13  1  0
 12 20  1  0
 13 19  1  0
 13 14  2  0
 14 15  1  0
 14 37  1  0
 15 16  2  0
 15 38  1  0
 16 17  1  0
 16 18  1  0
 17 39  1  0
 17 40  1  0
 18 19  2  0
 18 41  1  0
 19 42  1  0
 20 21  1  0
 22 27  1  0
 22 23  2  0
 23 24  1  0
 23 43  1  0
 24 25  2  0
 24 44  1  0
 25 26  1  0
 25 45  1  0
 26 27  2  0
 26 46  1  0
 27 47  1  0
M  CHG  1  20   1
M  END
>  <DOCK_score>  (1) 
-56.21376

>  <SMILES>  (1) 
CC(C)(O)[C@H](Nc1[nH]cc(-c2ccc(N)cc2)[nH+]1)c1ccccc1

$$$$
