OCC[NH2+]Cc1c[nH]nc1-c1ccc(NCC2CC3C[C@H]3C2)o1
     RDKit          3D

 48 51  0  0  1  0  0  0  0  0999 V2000
  133.3313  138.4971  159.2711 O   0  0  0  0  0  0  0  0  0  0  0  0
  133.8045  137.7649  160.4033 C   0  0  0  0  0  0  0  0  0  0  0  0
  132.6684  136.9108  160.9695 C   0  0  0  0  0  0  0  0  0  0  0  0
  132.2013  135.9726  159.9399 N   0  0  0  0  0  0  0  0  0  0  0  0
  132.9639  135.3746  159.6589 H   0  0  0  0  0  0  0  0  0  0  0  0
  131.8671  136.4897  159.1405 H   0  0  0  0  0  0  0  0  0  0  0  0
  131.1105  135.1525  160.4835 C   0  0  0  0  0  0  0  0  0  0  0  0
  130.6314  134.1901  159.4274 C   0  0  0  0  0  0  0  0  0  0  0  0
  131.4130  133.4472  158.6149 C   0  0  0  0  0  0  0  0  0  0  0  0
  130.6081  132.7145  157.8152 N   0  0  0  0  0  0  0  0  0  0  0  0
  130.9000  132.0885  157.1342 H   0  0  0  0  0  0  0  0  0  0  0  0
  129.2790  133.0194  158.1351 N   0  0  0  0  0  0  0  0  0  0  0  0
  129.2862  133.9097  159.1077 C   0  0  0  0  0  0  0  0  0  0  0  0
  128.0967  134.5075  159.7487 C   0  0  0  0  0  0  0  0  0  0  0  0
  126.8025  134.2383  159.4332 C   0  0  0  0  0  0  0  0  0  0  0  0
  126.0025  135.0222  160.2881 C   0  0  0  0  0  0  0  0  0  0  0  0
  126.8459  135.7350  161.0758 C   0  0  0  0  0  0  0  0  0  0  0  0
  126.4671  136.6402  162.0604 N   0  0  0  0  0  0  0  0  0  0  0  0
  127.4114  137.0104  163.1174 C   0  0  0  0  0  0  0  0  0  0  0  0
  127.2556  136.0514  164.2993 C   0  0  1  0  0  0  0  0  0  0  0  0
  128.1194  136.5136  165.4990 C   0  0  0  0  0  0  0  0  0  0  0  0
  127.4307  135.8823  166.7265 C   0  0  1  0  0  0  0  0  0  0  0  0
  126.3016  136.6622  167.4028 C   0  0  0  0  0  0  0  0  0  0  0  0
  125.9669  135.6274  166.3267 C   0  0  1  0  0  0  0  0  0  0  0  0
  125.4534  134.7091  166.6112 H   0  0  0  0  0  0  0  0  0  0  0  0
  125.8170  136.1128  164.8701 C   0  0  0  0  0  0  0  0  0  0  0  0
  128.1092  135.4188  160.7442 O   0  0  0  0  0  0  0  0  0  0  0  0
  133.0065  137.9402  158.5502 H   0  0  0  0  0  0  0  0  0  0  0  0
  134.1511  138.4611  161.1671 H   0  0  0  0  0  0  0  0  0  0  0  0
  134.6282  137.1190  160.0998 H   0  0  0  0  0  0  0  0  0  0  0  0
  131.8446  137.5568  161.2730 H   0  0  0  0  0  0  0  0  0  0  0  0
  133.0294  136.3522  161.8331 H   0  0  0  0  0  0  0  0  0  0  0  0
  130.2867  135.7984  160.7870 H   0  0  0  0  0  0  0  0  0  0  0  0
  131.4715  134.5940  161.3472 H   0  0  0  0  0  0  0  0  0  0  0  0
  132.4929  133.4385  158.6075 H   0  0  0  0  0  0  0  0  0  0  0  0
  126.4540  133.5535  158.6743 H   0  0  0  0  0  0  0  0  0  0  0  0
  124.9232  135.0525  160.3096 H   0  0  0  0  0  0  0  0  0  0  0  0
  125.5775  137.0268  162.0474 H   0  0  0  0  0  0  0  0  0  0  0  0
  128.4293  136.9503  162.7325 H   0  0  0  0  0  0  0  0  0  0  0  0
  127.2070  138.0291  163.4468 H   0  0  0  0  0  0  0  0  0  0  0  0
  127.5146  135.0340  164.0060 H   0  0  0  0  0  0  0  0  0  0  0  0
  129.1393  136.1419  165.4003 H   0  0  0  0  0  0  0  0  0  0  0  0
  128.1145  137.6009  165.5759 H   0  0  0  0  0  0  0  0  0  0  0  0
  128.0057  135.1627  167.3095 H   0  0  0  0  0  0  0  0  0  0  0  0
  126.0639  136.4082  168.4358 H   0  0  0  0  0  0  0  0  0  0  0  0
  126.1899  137.7143  167.1402 H   0  0  0  0  0  0  0  0  0  0  0  0
  125.4403  137.1354  164.8457 H   0  0  0  0  0  0  0  0  0  0  0  0
  125.1566  135.4486  164.3127 H   0  0  0  0  0  0  0  0  0  0  0  0
  1  2  1  0
  1 28  1  0
  2  3  1  0
  2 29  1  0
  2 30  1  0
  3  4  1  0
  3 31  1  0
  3 32  1  0
  4  5  1  0
  4  6  1  0
  4  7  1  0
  7  8  1  0
  7 33  1  0
  7 34  1  0
  8 13  1  0
  8  9  2  0
  9 10  1  0
  9 35  1  0
 10 11  1  0
 10 12  1  0
 12 13  2  0
 13 14  1  0
 14 27  1  0
 14 15  2  0
 15 16  1  0
 15 36  1  0
 16 17  2  0
 16 37  1  0
 17 18  1  0
 17 27  1  0
 18 19  1  0
 18 38  1  0
 19 20  1  0
 19 39  1  0
 19 40  1  0
 20 26  1  0
 20 21  1  0
 20 41  1  6
 21 22  1  0
 21 42  1  0
 21 43  1  0
 22 24  1  0
 22 23  1  0
 22 44  1  1
 23 24  1  0
 23 45  1  0
 23 46  1  0
 24 25  1  1
 24 26  1  0
 26 47  1  0
 26 48  1  0
M  CHG  1   4   1
M  END
>  <DOCK_score>  (1) 
-48.514187

>  <SMILES>  (1) 
OCC[NH2+]Cc1c[nH]nc1-c1ccc(NCC2CC3C[C@H]3C2)o1

$$$$
