NNc1c(Nc2c(F)cccc2N[C@H]2C=CCC2)cccc1-c1cccc(F)c1NC1=[NH+]CCN1
     RDKit          3D

 63 67  0  0  1  0  0  0  0  0999 V2000
  130.7840  139.2021  158.8411 N   0  0  0  0  0  0  0  0  0  0  0  0
  130.9632  139.0786  160.2787 N   0  0  0  0  0  0  0  0  0  0  0  0
  131.8035  138.0047  160.5886 C   0  0  0  0  0  0  0  0  0  0  0  0
  133.1802  138.1986  160.6875 C   0  0  0  0  0  0  0  0  0  0  0  0
  133.7257  139.4705  160.4770 N   0  0  0  0  0  0  0  0  0  0  0  0
  135.1101  139.6646  160.5766 C   0  0  0  0  0  0  0  0  0  0  0  0
  135.9175  139.5107  159.4572 C   0  0  0  0  0  0  0  0  0  0  0  0
  135.3691  139.1732  158.2695 F   0  0  0  0  0  0  0  0  0  0  0  0
  137.2836  139.7097  159.5576 C   0  0  0  0  0  0  0  0  0  0  0  0
  137.8491  140.0488  160.7733 C   0  0  0  0  0  0  0  0  0  0  0  0
  137.0529  140.1975  161.8934 C   0  0  0  0  0  0  0  0  0  0  0  0
  135.6818  140.0068  161.8011 C   0  0  0  0  0  0  0  0  0  0  0  0
  134.8745  140.1573  162.9349 N   0  0  0  0  0  0  0  0  0  0  0  0
  135.4772  140.5169  164.2209 C   0  0  1  0  0  0  0  0  0  0  0  0
  136.2611  141.2606  164.0771 H   0  0  0  0  0  0  0  0  0  0  0  0
  134.4228  141.0401  165.1683 C   0  0  0  0  0  0  0  0  0  0  0  0
  134.5626  140.5184  166.3587 C   0  0  0  0  0  0  0  0  0  0  0  0
  135.7345  139.5654  166.4019 C   0  0  0  0  0  0  0  0  0  0  0  0
  136.0479  139.2606  164.9186 C   0  0  0  0  0  0  0  0  0  0  0  0
  134.0091  137.1297  160.9952 C   0  0  0  0  0  0  0  0  0  0  0  0
  133.4744  135.8706  161.2044 C   0  0  0  0  0  0  0  0  0  0  0  0
  132.1130  135.6670  161.1092 C   0  0  0  0  0  0  0  0  0  0  0  0
  131.2663  136.7331  160.8063 C   0  0  0  0  0  0  0  0  0  0  0  0
  129.8029  136.5169  160.7101 C   0  0  0  0  0  0  0  0  0  0  0  0
  128.9363  137.2092  161.5537 C   0  0  0  0  0  0  0  0  0  0  0  0
  127.5742  137.0087  161.4583 C   0  0  0  0  0  0  0  0  0  0  0  0
  127.0636  136.1143  160.5337 C   0  0  0  0  0  0  0  0  0  0  0  0
  127.9135  135.4171  159.6940 C   0  0  0  0  0  0  0  0  0  0  0  0
  127.4084  134.5455  158.7937 F   0  0  0  0  0  0  0  0  0  0  0  0
  129.2862  135.6130  159.7761 C   0  0  0  0  0  0  0  0  0  0  0  0
  130.1485  134.9087  158.9286 N   0  0  0  0  0  0  0  0  0  0  0  0
  129.8023  133.6609  158.4825 C   0  0  0  0  0  0  0  0  0  0  0  0
  129.0487  132.8333  159.1881 N   0  0  0  0  0  0  0  0  0  0  0  0
  128.6775  133.0205  160.0644 H   0  0  0  0  0  0  0  0  0  0  0  0
  128.8607  131.5850  158.4323 C   0  0  0  0  0  0  0  0  0  0  0  0
  129.6603  131.8266  157.1360 C   0  0  0  0  0  0  0  0  0  0  0  0
  130.1991  133.1840  157.3138 N   0  0  0  0  0  0  0  0  0  0  0  0
  131.6595  139.4082  158.3839 H   0  0  0  0  0  0  0  0  0  0  0  0
  130.3624  138.3700  158.4565 H   0  0  0  0  0  0  0  0  0  0  0  0
  131.3138  139.9379  160.6746 H   0  0  0  0  0  0  0  0  0  0  0  0
  133.1454  140.2176  160.2621 H   0  0  0  0  0  0  0  0  0  0  0  0
  137.9102  139.5947  158.6855 H   0  0  0  0  0  0  0  0  0  0  0  0
  138.9161  140.1981  160.8476 H   0  0  0  0  0  0  0  0  0  0  0  0
  137.4983  140.4627  162.8409 H   0  0  0  0  0  0  0  0  0  0  0  0
  133.9160  140.0232  162.8690 H   0  0  0  0  0  0  0  0  0  0  0  0
  133.6552  141.7496  164.8966 H   0  0  0  0  0  0  0  0  0  0  0  0
  133.9251  140.7412  167.2015 H   0  0  0  0  0  0  0  0  0  0  0  0
  135.4610  138.6508  166.9279 H   0  0  0  0  0  0  0  0  0  0  0  0
  136.5912  140.0387  166.8815 H   0  0  0  0  0  0  0  0  0  0  0  0
  135.5313  138.3600  164.5866 H   0  0  0  0  0  0  0  0  0  0  0  0
  137.1222  139.1757  164.7544 H   0  0  0  0  0  0  0  0  0  0  0  0
  135.0757  137.2808  161.0719 H   0  0  0  0  0  0  0  0  0  0  0  0
  134.1260  135.0431  161.4432 H   0  0  0  0  0  0  0  0  0  0  0  0
  131.7021  134.6819  161.2738 H   0  0  0  0  0  0  0  0  0  0  0  0
  129.3303  137.9053  162.2795 H   0  0  0  0  0  0  0  0  0  0  0  0
  126.9042  137.5491  162.1105 H   0  0  0  0  0  0  0  0  0  0  0  0
  125.9967  135.9600  160.4674 H   0  0  0  0  0  0  0  0  0  0  0  0
  130.9915  135.3042  158.6567 H   0  0  0  0  0  0  0  0  0  0  0  0
  127.8063  131.4231  158.2086 H   0  0  0  0  0  0  0  0  0  0  0  0
  129.2695  130.7381  158.9834 H   0  0  0  0  0  0  0  0  0  0  0  0
  129.0040  131.7848  156.2666 H   0  0  0  0  0  0  0  0  0  0  0  0
  130.4689  131.1020  157.0401 H   0  0  0  0  0  0  0  0  0  0  0  0
  130.7576  133.6547  156.6756 H   0  0  0  0  0  0  0  0  0  0  0  0
  1  2  1  0
  1 38  1  0
  1 39  1  0
  2  3  1  0
  2 40  1  0
  3 23  2  0
  3  4  1  0
  4  5  1  0
  4 20  2  0
  5  6  1  0
  5 41  1  0
  6 12  1  0
  6  7  2  0
  7  8  1  0
  7  9  1  0
  9 10  2  0
  9 42  1  0
 10 11  1  0
 10 43  1  0
 11 12  2  0
 11 44  1  0
 12 13  1  0
 13 14  1  0
 13 45  1  0
 14 15  1  6
 14 19  1  0
 14 16  1  0
 16 17  2  0
 16 46  1  0
 17 18  1  0
 17 47  1  0
 18 19  1  0
 18 48  1  0
 18 49  1  0
 19 50  1  0
 19 51  1  0
 20 21  1  0
 20 52  1  0
 21 22  2  0
 21 53  1  0
 22 23  1  0
 22 54  1  0
 23 24  1  0
 24 30  1  0
 24 25  2  0
 25 26  1  0
 25 55  1  0
 26 27  2  0
 26 56  1  0
 27 28  1  0
 27 57  1  0
 28 29  1  0
 28 30  2  0
 30 31  1  0
 31 32  1  0
 31 58  1  0
 32 37  2  0
 32 33  1  0
 33 34  1  0
 33 35  1  0
 35 36  1  0
 35 59  1  0
 35 60  1  0
 36 37  1  0
 36 61  1  0
 36 62  1  0
 37 63  1  0
M  CHG  1  37   1
M  END
>  <DOCK_score>  (1) 
-60.074753

>  <SMILES>  (1) 
NNc1c(Nc2c(F)cccc2N[C@H]2C=CCC2)cccc1-c1cccc(F)c1NC1=[NH+]CCN1

$$$$
