Nc1ccc(-c2c[nH]c(Nc3cc(O)cc(Nc4ccccc4N)c3)[nH+]2)cc1
     RDKit          3D

 49 52  0  0  1  0  0  0  0  0999 V2000
  131.4096  129.8058  151.9559 N   0  0  0  0  0  0  0  0  0  0  0  0
  131.0810  130.4659  153.1425 C   0  0  0  0  0  0  0  0  0  0  0  0
  130.3729  131.6612  153.0987 C   0  0  0  0  0  0  0  0  0  0  0  0
  130.0476  132.3142  154.2689 C   0  0  0  0  0  0  0  0  0  0  0  0
  130.4295  131.7747  155.4962 C   0  0  0  0  0  0  0  0  0  0  0  0
  130.0807  132.4754  156.7565 C   0  0  0  0  0  0  0  0  0  0  0  0
  129.3197  131.9769  157.7623 C   0  0  0  0  0  0  0  0  0  0  0  0
  129.2506  132.9504  158.7299 N   0  0  0  0  0  0  0  0  0  0  0  0
  128.7757  132.8894  159.5735 H   0  0  0  0  0  0  0  0  0  0  0  0
  129.9721  134.0155  158.2860 C   0  0  0  0  0  0  0  0  0  0  0  0
  130.1543  135.2075  158.9682 N   0  0  0  0  0  0  0  0  0  0  0  0
  129.1655  135.6720  159.8397 C   0  0  0  0  0  0  0  0  0  0  0  0
  127.8318  135.3618  159.6060 C   0  0  0  0  0  0  0  0  0  0  0  0
  126.8501  135.8268  160.4675 C   0  0  0  0  0  0  0  0  0  0  0  0
  125.5451  135.5273  160.2349 O   0  0  0  0  0  0  0  0  0  0  0  0
  127.1996  136.5927  161.5695 C   0  0  0  0  0  0  0  0  0  0  0  0
  128.5330  136.8992  161.8079 C   0  0  0  0  0  0  0  0  0  0  0  0
  128.8848  137.6709  162.9176 N   0  0  0  0  0  0  0  0  0  0  0  0
  128.5746  137.2241  164.2078 C   0  0  0  0  0  0  0  0  0  0  0  0
  128.5195  135.8650  164.4787 C   0  0  0  0  0  0  0  0  0  0  0  0
  128.2134  135.4261  165.7535 C   0  0  0  0  0  0  0  0  0  0  0  0
  127.9617  136.3385  166.7615 C   0  0  0  0  0  0  0  0  0  0  0  0
  128.0140  137.6953  166.5003 C   0  0  0  0  0  0  0  0  0  0  0  0
  128.3259  138.1446  165.2260 C   0  0  0  0  0  0  0  0  0  0  0  0
  128.3855  139.5177  164.9608 N   0  0  0  0  0  0  0  0  0  0  0  0
  129.5163  136.4385  160.9424 C   0  0  0  0  0  0  0  0  0  0  0  0
  130.4618  133.7295  157.1040 N   0  0  0  0  0  0  0  0  0  0  0  0
  131.0112  134.3201  156.5651 H   0  0  0  0  0  0  0  0  0  0  0  0
  131.1445  130.5788  155.5373 C   0  0  0  0  0  0  0  0  0  0  0  0
  131.4625  129.9263  154.3649 C   0  0  0  0  0  0  0  0  0  0  0  0
  131.1440  130.1826  151.1020 H   0  0  0  0  0  0  0  0  0  0  0  0
  131.9044  128.9726  151.9852 H   0  0  0  0  0  0  0  0  0  0  0  0
  130.0773  132.0789  152.1476 H   0  0  0  0  0  0  0  0  0  0  0  0
  129.4972  133.2427  154.2345 H   0  0  0  0  0  0  0  0  0  0  0  0
  128.8568  131.0017  157.7964 H   0  0  0  0  0  0  0  0  0  0  0  0
  130.9682  135.7197  158.8408 H   0  0  0  0  0  0  0  0  0  0  0  0
  127.5591  134.7617  158.7506 H   0  0  0  0  0  0  0  0  0  0  0  0
  124.9346  135.8950  160.8884 H   0  0  0  0  0  0  0  0  0  0  0  0
  126.4346  136.9506  162.2427 H   0  0  0  0  0  0  0  0  0  0  0  0
  129.3440  138.5165  162.7945 H   0  0  0  0  0  0  0  0  0  0  0  0
  128.7153  135.1495  163.6937 H   0  0  0  0  0  0  0  0  0  0  0  0
  128.1705  134.3675  165.9626 H   0  0  0  0  0  0  0  0  0  0  0  0
  127.7232  135.9904  167.7556 H   0  0  0  0  0  0  0  0  0  0  0  0
  127.8164  138.4052  167.2899 H   0  0  0  0  0  0  0  0  0  0  0  0
  128.6002  139.8304  164.0680 H   0  0  0  0  0  0  0  0  0  0  0  0
  128.2122  140.1566  165.6699 H   0  0  0  0  0  0  0  0  0  0  0  0
  130.5534  136.6768  161.1270 H   0  0  0  0  0  0  0  0  0  0  0  0
  131.4456  130.1615  156.4868 H   0  0  0  0  0  0  0  0  0  0  0  0
  132.0127  128.9974  154.3965 H   0  0  0  0  0  0  0  0  0  0  0  0
  1  2  1  0
  1 31  1  0
  1 32  1  0
  2 30  2  0
  2  3  1  0
  3  4  2  0
  3 33  1  0
  4  5  1  0
  4 34  1  0
  5  6  1  0
  5 29  2  0
  6 27  1  0
  6  7  2  0
  7  8  1  0
  7 35  1  0
  8  9  1  0
  8 10  1  0
 10 11  1  0
 10 27  2  0
 11 12  1  0
 11 36  1  0
 12 26  1  0
 12 13  2  0
 13 14  1  0
 13 37  1  0
 14 15  1  0
 14 16  2  0
 15 38  1  0
 16 17  1  0
 16 39  1  0
 17 18  1  0
 17 26  2  0
 18 19  1  0
 18 40  1  0
 19 24  1  0
 19 20  2  0
 20 21  1  0
 20 41  1  0
 21 22  2  0
 21 42  1  0
 22 23  1  0
 22 43  1  0
 23 24  2  0
 23 44  1  0
 24 25  1  0
 25 45  1  0
 25 46  1  0
 26 47  1  0
 27 28  1  0
 29 30  1  0
 29 48  1  0
 30 49  1  0
M  CHG  1  27   1
M  END
>  <DOCK_score>  (1) 
-54.714104

>  <SMILES>  (1) 
Nc1ccc(-c2c[nH]c(Nc3cc(O)cc(Nc4ccccc4N)c3)[nH+]2)cc1

$$$$
