Oc1ccc2c(c1)C(Nc1[nH]cc(-c3ccc(Nc4cccc5cc[nH]c45)cc3)[nH+]1)c1cc(O)ccc1-2
     RDKit          3D

 61 67  0  0  1  0  0  0  0  0999 V2000
  131.2522  129.8478  158.1079 O   0  0  0  0  0  0  0  0  0  0  0  0
  130.0983  130.3359  158.6339 C   0  0  0  0  0  0  0  0  0  0  0  0
  129.0290  129.4834  158.8726 C   0  0  0  0  0  0  0  0  0  0  0  0
  127.8565  129.9744  159.4055 C   0  0  0  0  0  0  0  0  0  0  0  0
  127.7407  131.3332  159.7070 C   0  0  0  0  0  0  0  0  0  0  0  0
  128.8177  132.1823  159.4649 C   0  0  0  0  0  0  0  0  0  0  0  0
  129.9879  131.6877  158.9317 C   0  0  0  0  0  0  0  0  0  0  0  0
  128.4043  133.5718  159.8842 C   0  0  0  0  0  0  0  0  0  0  0  0
  129.2825  134.0589  160.9509 N   0  0  0  0  0  0  0  0  0  0  0  0
  130.0300  135.2087  160.7611 C   0  0  0  0  0  0  0  0  0  0  0  0
  130.0375  135.9723  159.6350 N   0  0  0  0  0  0  0  0  0  0  0  0
  129.5244  135.8107  158.8277 H   0  0  0  0  0  0  0  0  0  0  0  0
  130.9027  137.0178  159.8543 C   0  0  0  0  0  0  0  0  0  0  0  0
  131.4038  136.8578  161.1042 C   0  0  0  0  0  0  0  0  0  0  0  0
  132.3823  137.7497  161.7731 C   0  0  0  0  0  0  0  0  0  0  0  0
  133.2723  137.2303  162.7119 C   0  0  0  0  0  0  0  0  0  0  0  0
  134.1814  138.0611  163.3321 C   0  0  0  0  0  0  0  0  0  0  0  0
  134.2071  139.4167  163.0257 C   0  0  0  0  0  0  0  0  0  0  0  0
  135.1253  140.2576  163.6591 N   0  0  0  0  0  0  0  0  0  0  0  0
  134.7814  140.8927  164.8565 C   0  0  0  0  0  0  0  0  0  0  0  0
  133.5337  140.6863  165.4202 C   0  0  0  0  0  0  0  0  0  0  0  0
  133.1840  141.3123  166.6077 C   0  0  0  0  0  0  0  0  0  0  0  0
  134.0642  142.1432  167.2417 C   0  0  0  0  0  0  0  0  0  0  0  0
  135.3298  142.3677  166.6924 C   0  0  0  0  0  0  0  0  0  0  0  0
  136.4854  143.1726  167.0951 C   0  0  0  0  0  0  0  0  0  0  0  0
  137.4394  142.9812  166.1697 C   0  0  0  0  0  0  0  0  0  0  0  0
  136.9838  142.1306  165.2005 N   0  0  0  0  0  0  0  0  0  0  0  0
  137.4907  141.8487  164.4230 H   0  0  0  0  0  0  0  0  0  0  0  0
  135.6967  141.7343  165.4931 C   0  0  0  0  0  0  0  0  0  0  0  0
  133.3241  139.9359  162.0859 C   0  0  0  0  0  0  0  0  0  0  0  0
  132.4135  139.1087  161.4633 C   0  0  0  0  0  0  0  0  0  0  0  0
  130.8476  135.7409  161.6367 N   0  0  0  0  0  0  0  0  0  0  0  0
  131.0264  135.3917  162.5238 H   0  0  0  0  0  0  0  0  0  0  0  0
  126.9880  133.4520  160.3914 C   0  0  0  0  0  0  0  0  0  0  0  0
  126.1056  134.3786  160.8992 C   0  0  0  0  0  0  0  0  0  0  0  0
  124.8359  133.9833  161.2992 C   0  0  0  0  0  0  0  0  0  0  0  0
  123.9654  134.8985  161.8000 O   0  0  0  0  0  0  0  0  0  0  0  0
  124.4566  132.6525  161.1877 C   0  0  0  0  0  0  0  0  0  0  0  0
  125.3369  131.7207  160.6812 C   0  0  0  0  0  0  0  0  0  0  0  0
  126.6149  132.1134  160.2776 C   0  0  0  0  0  0  0  0  0  0  0  0
  131.9385  130.5164  157.9769 H   0  0  0  0  0  0  0  0  0  0  0  0
  129.1158  128.4325  158.6396 H   0  0  0  0  0  0  0  0  0  0  0  0
  127.0267  129.3080  159.5898 H   0  0  0  0  0  0  0  0  0  0  0  0
  130.8197  132.3511  158.7465 H   0  0  0  0  0  0  0  0  0  0  0  0
  128.4411  134.2481  159.0302 H   0  0  0  0  0  0  0  0  0  0  0  0
  129.3402  133.5760  161.7900 H   0  0  0  0  0  0  0  0  0  0  0  0
  131.1398  137.8130  159.1630 H   0  0  0  0  0  0  0  0  0  0  0  0
  133.2502  136.1778  162.9531 H   0  0  0  0  0  0  0  0  0  0  0  0
  134.8708  137.6591  164.0598 H   0  0  0  0  0  0  0  0  0  0  0  0
  136.0015  140.4010  163.2684 H   0  0  0  0  0  0  0  0  0  0  0  0
  132.8268  140.0326  164.9311 H   0  0  0  0  0  0  0  0  0  0  0  0
  132.2070  141.1410  167.0355 H   0  0  0  0  0  0  0  0  0  0  0  0
  133.7824  142.6263  168.1656 H   0  0  0  0  0  0  0  0  0  0  0  0
  136.5605  143.7926  167.9761 H   0  0  0  0  0  0  0  0  0  0  0  0
  138.4174  143.4388  166.1834 H   0  0  0  0  0  0  0  0  0  0  0  0
  133.3484  140.9888  161.8465 H   0  0  0  0  0  0  0  0  0  0  0  0
  131.7247  139.5133  160.7365 H   0  0  0  0  0  0  0  0  0  0  0  0
  126.4013  135.4138  160.9861 H   0  0  0  0  0  0  0  0  0  0  0  0
  124.3191  135.7977  161.8392 H   0  0  0  0  0  0  0  0  0  0  0  0
  123.4688  132.3465  161.4992 H   0  0  0  0  0  0  0  0  0  0  0  0
  125.0380  130.6864  160.5960 H   0  0  0  0  0  0  0  0  0  0  0  0
  1  2  1  0
  1 41  1  0
  2  7  2  0
  2  3  1  0
  3  4  2  0
  3 42  1  0
  4  5  1  0
  4 43  1  0
  5 40  1  0
  5  6  2  0
  6  7  1  0
  6  8  1  0
  7 44  1  0
  8  9  1  0
  8 34  1  0
  8 45  1  0
  9 46  1  0
 10  9  1  0
 10 32  2  0
 10 11  1  0
 11 12  1  0
 11 13  1  0
 13 14  2  0
 13 47  1  0
 14 15  1  0
 14 32  1  0
 15 31  1  0
 15 16  2  0
 16 17  1  0
 16 48  1  0
 17 18  2  0
 17 49  1  0
 18 19  1  0
 18 30  1  0
 19 20  1  0
 19 50  1  0
 20 29  1  0
 20 21  2  0
 21 22  1  0
 21 51  1  0
 22 23  2  0
 22 52  1  0
 23 24  1  0
 23 53  1  0
 24 29  2  0
 24 25  1  0
 25 26  2  0
 25 54  1  0
 26 27  1  0
 26 55  1  0
 27 28  1  0
 27 29  1  0
 30 31  2  0
 30 56  1  0
 31 57  1  0
 32 33  1  0
 34 40  2  0
 34 35  1  0
 35 36  2  0
 35 58  1  0
 36 37  1  0
 36 38  1  0
 37 59  1  0
 38 39  2  0
 38 60  1  0
 39 40  1  0
 39 61  1  0
M  CHG  1  32   1
M  END
>  <DOCK_score>  (1) 
-45.472271

>  <SMILES>  (1) 
Oc1ccc2c(c1)C(Nc1[nH]cc(-c3ccc(Nc4cccc5cc[nH]c45)cc3)[nH+]1)c1cc(O)ccc1-2

$$$$
