Oc1cccc(-c2ccc([C@H](Nc3[nH]cc(-c4ccc(F)cc4)[nH+]3)c3ccccc3)cc2)c1
     RDKit          3D

 56 60  0  0  1  0  0  0  0  0999 V2000
  138.0576  138.0042  163.8371 O   0  0  0  0  0  0  0  0  0  0  0  0
  137.3006  138.3011  162.7482 C   0  0  0  0  0  0  0  0  0  0  0  0
  137.7130  139.2894  161.8647 C   0  0  0  0  0  0  0  0  0  0  0  0
  136.9460  139.5948  160.7563 C   0  0  0  0  0  0  0  0  0  0  0  0
  135.7650  138.9192  160.5219 C   0  0  0  0  0  0  0  0  0  0  0  0
  135.3439  137.9261  161.4037 C   0  0  0  0  0  0  0  0  0  0  0  0
  134.0747  137.1988  161.1543 C   0  0  0  0  0  0  0  0  0  0  0  0
  133.9289  135.8803  161.5809 C   0  0  0  0  0  0  0  0  0  0  0  0
  132.7461  135.2087  161.3466 C   0  0  0  0  0  0  0  0  0  0  0  0
  131.7064  135.8422  160.6900 C   0  0  0  0  0  0  0  0  0  0  0  0
  130.4172  135.1038  160.4376 C   0  0  2  0  0  0  0  0  0  0  0  0
  130.4922  134.0938  160.8403 H   0  0  0  0  0  0  0  0  0  0  0  0
  130.1669  135.0373  158.9956 N   0  0  0  0  0  0  0  0  0  0  0  0
  130.0636  133.8082  158.3670 C   0  0  0  0  0  0  0  0  0  0  0  0
  129.6018  132.6623  158.9377 N   0  0  0  0  0  0  0  0  0  0  0  0
  129.2889  132.5605  159.8502 H   0  0  0  0  0  0  0  0  0  0  0  0
  129.6613  131.6760  157.9828 C   0  0  0  0  0  0  0  0  0  0  0  0
  130.1573  132.2473  156.8575 C   0  0  0  0  0  0  0  0  0  0  0  0
  130.3978  131.5623  155.5638 C   0  0  0  0  0  0  0  0  0  0  0  0
  129.7388  131.9908  154.4129 C   0  0  0  0  0  0  0  0  0  0  0  0
  129.9695  131.3541  153.2107 C   0  0  0  0  0  0  0  0  0  0  0  0
  130.8460  130.2830  153.1489 C   0  0  0  0  0  0  0  0  0  0  0  0
  131.0647  129.6588  151.9708 F   0  0  0  0  0  0  0  0  0  0  0  0
  131.4992  129.8501  154.2914 C   0  0  0  0  0  0  0  0  0  0  0  0
  131.2790  130.4846  155.4969 C   0  0  0  0  0  0  0  0  0  0  0  0
  130.3892  133.5575  157.1223 N   0  0  0  0  0  0  0  0  0  0  0  0
  130.7420  134.2048  156.4920 H   0  0  0  0  0  0  0  0  0  0  0  0
  129.2820  135.8305  161.1114 C   0  0  0  0  0  0  0  0  0  0  0  0
  129.5125  136.5516  162.2680 C   0  0  0  0  0  0  0  0  0  0  0  0
  128.4721  137.2220  162.8837 C   0  0  0  0  0  0  0  0  0  0  0  0
  127.1990  137.1634  162.3478 C   0  0  0  0  0  0  0  0  0  0  0  0
  126.9675  136.4381  161.1942 C   0  0  0  0  0  0  0  0  0  0  0  0
  128.0089  135.7714  160.5761 C   0  0  0  0  0  0  0  0  0  0  0  0
  131.8479  137.1490  160.2593 C   0  0  0  0  0  0  0  0  0  0  0  0
  133.0243  137.8319  160.4929 C   0  0  0  0  0  0  0  0  0  0  0  0
  136.1148  137.6218  162.5232 C   0  0  0  0  0  0  0  0  0  0  0  0
  138.8659  138.5299  163.9094 H   0  0  0  0  0  0  0  0  0  0  0  0
  138.6362  139.8207  162.0437 H   0  0  0  0  0  0  0  0  0  0  0  0
  137.2713  140.3644  160.0719 H   0  0  0  0  0  0  0  0  0  0  0  0
  135.1675  139.1607  159.6552 H   0  0  0  0  0  0  0  0  0  0  0  0
  134.7397  135.3850  162.0943 H   0  0  0  0  0  0  0  0  0  0  0  0
  132.6320  134.1868  161.6769 H   0  0  0  0  0  0  0  0  0  0  0  0
  130.0736  135.8545  158.4813 H   0  0  0  0  0  0  0  0  0  0  0  0
  129.3685  130.6436  158.1049 H   0  0  0  0  0  0  0  0  0  0  0  0
  129.0516  132.8226  154.4611 H   0  0  0  0  0  0  0  0  0  0  0  0
  129.4627  131.6883  152.3175 H   0  0  0  0  0  0  0  0  0  0  0  0
  132.1816  129.0148  154.2386 H   0  0  0  0  0  0  0  0  0  0  0  0
  131.7889  130.1468  156.3868 H   0  0  0  0  0  0  0  0  0  0  0  0
  130.5064  136.5942  162.6887 H   0  0  0  0  0  0  0  0  0  0  0  0
  128.6532  137.7888  163.7849 H   0  0  0  0  0  0  0  0  0  0  0  0
  126.3859  137.6848  162.8309 H   0  0  0  0  0  0  0  0  0  0  0  0
  125.9729  136.3924  160.7757 H   0  0  0  0  0  0  0  0  0  0  0  0
  127.8278  135.2046  159.6748 H   0  0  0  0  0  0  0  0  0  0  0  0
  131.0345  137.6375  159.7432 H   0  0  0  0  0  0  0  0  0  0  0  0
  133.1321  138.8536  160.1602 H   0  0  0  0  0  0  0  0  0  0  0  0
  135.7906  136.8556  163.2118 H   0  0  0  0  0  0  0  0  0  0  0  0
  1  2  1  0
  1 37  1  0
  2 36  2  0
  2  3  1  0
  3  4  2  0
  3 38  1  0
  4  5  1  0
  4 39  1  0
  5  6  2  0
  5 40  1  0
  6  7  1  0
  6 36  1  0
  7 35  1  0
  7  8  2  0
  8  9  1  0
  8 41  1  0
  9 10  2  0
  9 42  1  0
 10 11  1  0
 10 34  1  0
 11 12  1  1
 11 13  1  0
 11 28  1  0
 13 43  1  0
 14 13  1  0
 14 26  2  0
 14 15  1  0
 15 16  1  0
 15 17  1  0
 17 18  2  0
 17 44  1  0
 18 19  1  0
 18 26  1  0
 19 25  1  0
 19 20  2  0
 20 21  1  0
 20 45  1  0
 21 22  2  0
 21 46  1  0
 22 23  1  0
 22 24  1  0
 24 25  2  0
 24 47  1  0
 25 48  1  0
 26 27  1  0
 28 33  1  0
 28 29  2  0
 29 30  1  0
 29 49  1  0
 30 31  2  0
 30 50  1  0
 31 32  1  0
 31 51  1  0
 32 33  2  0
 32 52  1  0
 33 53  1  0
 34 35  2  0
 34 54  1  0
 35 55  1  0
 36 56  1  0
M  CHG  1  26   1
M  END
>  <DOCK_score>  (1) 
-57.109249

>  <SMILES>  (1) 
Oc1cccc(-c2ccc([C@H](Nc3[nH]cc(-c4ccc(F)cc4)[nH+]3)c3ccccc3)cc2)c1

$$$$
