CCc1ccc(-c2c[nH]c(NCc3c[nH]nc3-c3ccc(C(C)C)cc3)[nH+]2)cc1
     RDKit          3D

 57 60  0  0  1  0  0  0  0  0999 V2000
  129.4456  129.5233  151.2255 C   0  0  0  0  0  0  0  0  0  0  0  0
  130.8386  129.9633  151.6803 C   0  0  0  0  0  0  0  0  0  0  0  0
  130.7462  130.5893  153.0479 C   0  0  0  0  0  0  0  0  0  0  0  0
  130.8788  129.8011  154.1769 C   0  0  0  0  0  0  0  0  0  0  0  0
  130.7997  130.3698  155.4319 C   0  0  0  0  0  0  0  0  0  0  0  0
  130.5757  131.7395  155.5605 C   0  0  0  0  0  0  0  0  0  0  0  0
  130.4851  132.3559  156.9067 C   0  0  0  0  0  0  0  0  0  0  0  0
  130.0328  131.7509  158.0328 C   0  0  0  0  0  0  0  0  0  0  0  0
  130.1223  132.6749  159.0453 N   0  0  0  0  0  0  0  0  0  0  0  0
  129.8742  132.5368  159.9727 H   0  0  0  0  0  0  0  0  0  0  0  0
  130.6191  133.8215  158.5059 C   0  0  0  0  0  0  0  0  0  0  0  0
  130.8569  134.9991  159.1937 N   0  0  0  0  0  0  0  0  0  0  0  0
  130.5690  135.0808  160.6279 C   0  0  0  0  0  0  0  0  0  0  0  0
  129.5479  136.1613  160.8746 C   0  0  0  0  0  0  0  0  0  0  0  0
  128.2065  136.0018  160.8797 C   0  0  0  0  0  0  0  0  0  0  0  0
  127.6452  137.2018  161.1415 N   0  0  0  0  0  0  0  0  0  0  0  0
  126.6946  137.3833  161.2078 H   0  0  0  0  0  0  0  0  0  0  0  0
  128.6736  138.1402  161.2949 N   0  0  0  0  0  0  0  0  0  0  0  0
  129.8224  137.5180  161.1349 C   0  0  0  0  0  0  0  0  0  0  0  0
  131.1691  138.1365  161.2154 C   0  0  0  0  0  0  0  0  0  0  0  0
  131.8379  138.1990  162.4361 C   0  0  0  0  0  0  0  0  0  0  0  0
  133.0923  138.7706  162.5043 C   0  0  0  0  0  0  0  0  0  0  0  0
  133.6807  139.2912  161.3654 C   0  0  0  0  0  0  0  0  0  0  0  0
  135.0480  139.9198  161.4470 C   0  0  0  0  0  0  0  0  0  0  0  0
  136.0124  139.1637  160.5318 C   0  0  0  0  0  0  0  0  0  0  0  0
  134.9644  141.3819  161.0047 C   0  0  0  0  0  0  0  0  0  0  0  0
  133.0190  139.2366  160.1524 C   0  0  0  0  0  0  0  0  0  0  0  0
  131.7666  138.6621  160.0717 C   0  0  0  0  0  0  0  0  0  0  0  0
  130.8347  133.6270  157.2278 N   0  0  0  0  0  0  0  0  0  0  0  0
  131.1874  134.2864  156.6102 H   0  0  0  0  0  0  0  0  0  0  0  0
  130.4375  132.5279  154.4195 C   0  0  0  0  0  0  0  0  0  0  0  0
  130.5231  131.9491  153.1696 C   0  0  0  0  0  0  0  0  0  0  0  0
  129.0457  128.7957  151.9318 H   0  0  0  0  0  0  0  0  0  0  0  0
  128.7862  130.3901  151.1843 H   0  0  0  0  0  0  0  0  0  0  0  0
  129.5126  129.0703  150.2363 H   0  0  0  0  0  0  0  0  0  0  0  0
  131.4982  129.0963  151.7214 H   0  0  0  0  0  0  0  0  0  0  0  0
  131.2385  130.6908  150.9739 H   0  0  0  0  0  0  0  0  0  0  0  0
  131.0487  128.7394  154.0761 H   0  0  0  0  0  0  0  0  0  0  0  0
  130.9079  129.7543  156.3127 H   0  0  0  0  0  0  0  0  0  0  0  0
  129.6735  130.7359  158.1179 H   0  0  0  0  0  0  0  0  0  0  0  0
  131.2139  135.7703  158.7260 H   0  0  0  0  0  0  0  0  0  0  0  0
  130.1772  134.1246  160.9748 H   0  0  0  0  0  0  0  0  0  0  0  0
  131.4852  135.3161  161.1695 H   0  0  0  0  0  0  0  0  0  0  0  0
  127.6763  135.0768  160.7075 H   0  0  0  0  0  0  0  0  0  0  0  0
  131.3774  137.7971  163.3264 H   0  0  0  0  0  0  0  0  0  0  0  0
  133.6135  138.8156  163.4491 H   0  0  0  0  0  0  0  0  0  0  0  0
  135.4091  139.8715  162.4749 H   0  0  0  0  0  0  0  0  0  0  0  0
  135.6514  139.2120  159.5046 H   0  0  0  0  0  0  0  0  0  0  0  0
  137.0013  139.6184  160.5910 H   0  0  0  0  0  0  0  0  0  0  0  0
  136.0720  138.1221  160.8474 H   0  0  0  0  0  0  0  0  0  0  0  0
  134.6032  141.4302  159.9774 H   0  0  0  0  0  0  0  0  0  0  0  0
  134.2772  141.9206  161.6572 H   0  0  0  0  0  0  0  0  0  0  0  0
  135.9532  141.8365  161.0638 H   0  0  0  0  0  0  0  0  0  0  0  0
  133.4829  139.6446  159.2666 H   0  0  0  0  0  0  0  0  0  0  0  0
  131.2510  138.6197  159.1238 H   0  0  0  0  0  0  0  0  0  0  0  0
  130.2634  133.5897  154.5133 H   0  0  0  0  0  0  0  0  0  0  0  0
  130.4163  132.5591  152.2848 H   0  0  0  0  0  0  0  0  0  0  0  0
  1  2  1  0
  1 33  1  0
  1 34  1  0
  1 35  1  0
  2  3  1  0
  2 36  1  0
  2 37  1  0
  3 32  2  0
  3  4  1  0
  4  5  2  0
  4 38  1  0
  5  6  1  0
  5 39  1  0
  6  7  1  0
  6 31  2  0
  7 29  1  0
  7  8  2  0
  8  9  1  0
  8 40  1  0
  9 10  1  0
  9 11  1  0
 11 12  1  0
 11 29  2  0
 12 13  1  0
 12 41  1  0
 13 14  1  0
 13 42  1  0
 13 43  1  0
 14 19  1  0
 14 15  2  0
 15 16  1  0
 15 44  1  0
 16 17  1  0
 16 18  1  0
 18 19  2  0
 19 20  1  0
 20 28  1  0
 20 21  2  0
 21 22  1  0
 21 45  1  0
 22 23  2  0
 22 46  1  0
 23 24  1  0
 23 27  1  0
 24 25  1  0
 24 26  1  0
 24 47  1  0
 25 48  1  0
 25 49  1  0
 25 50  1  0
 26 51  1  0
 26 52  1  0
 26 53  1  0
 27 28  2  0
 27 54  1  0
 28 55  1  0
 29 30  1  0
 31 32  1  0
 31 56  1  0
 32 57  1  0
M  CHG  1  29   1
M  END
>  <DOCK_score>  (1) 
-60.860588

>  <SMILES>  (1) 
CCc1ccc(-c2c[nH]c(NCc3c[nH]nc3-c3ccc(C(C)C)cc3)[nH+]2)cc1

$$$$
