c1cc2cc(Nc3ccc(-c4n[nH]cc4C[NH2+]CC4CC5C[C@H]5C4)o3)ccc2cn1
     RDKit          3D

 56 61  0  0  1  0  0  0  0  0999 V2000
  127.6683  140.8328  165.6584 C   0  0  0  0  0  0  0  0  0  0  0  0
  126.9234  140.2379  164.6862 C   0  0  0  0  0  0  0  0  0  0  0  0
  127.2445  138.9232  164.2990 C   0  0  0  0  0  0  0  0  0  0  0  0
  126.5313  138.2448  163.3029 C   0  0  0  0  0  0  0  0  0  0  0  0
  126.8997  136.9590  162.9648 C   0  0  0  0  0  0  0  0  0  0  0  0
  126.1905  136.2751  161.9778 N   0  0  0  0  0  0  0  0  0  0  0  0
  126.8328  135.3244  161.1929 C   0  0  0  0  0  0  0  0  0  0  0  0
  126.2517  134.2317  160.6371 C   0  0  0  0  0  0  0  0  0  0  0  0
  127.2578  133.5470  159.9280 C   0  0  0  0  0  0  0  0  0  0  0  0
  128.4052  134.2581  160.0870 C   0  0  0  0  0  0  0  0  0  0  0  0
  129.7235  133.9129  159.5158 C   0  0  0  0  0  0  0  0  0  0  0  0
  129.9922  132.8668  158.7594 N   0  0  0  0  0  0  0  0  0  0  0  0
  131.3528  132.9068  158.4298 N   0  0  0  0  0  0  0  0  0  0  0  0
  131.8246  132.2601  157.8819 H   0  0  0  0  0  0  0  0  0  0  0  0
  131.8943  134.0017  159.0063 C   0  0  0  0  0  0  0  0  0  0  0  0
  130.9171  134.6474  159.6778 C   0  0  0  0  0  0  0  0  0  0  0  0
  131.0742  135.9236  160.4639 C   0  0  0  0  0  0  0  0  0  0  0  0
  130.8264  137.0739  159.5846 N   0  0  0  0  0  0  0  0  0  0  0  0
  131.4886  137.0642  158.8233 H   0  0  0  0  0  0  0  0  0  0  0  0
  129.8889  137.0196  159.2156 H   0  0  0  0  0  0  0  0  0  0  0  0
  130.9797  138.3178  160.3508 C   0  0  0  0  0  0  0  0  0  0  0  0
  132.4015  138.4004  160.9103 C   0  0  2  0  0  0  0  0  0  0  0  0
  132.6481  139.7743  161.5814 C   0  0  0  0  0  0  0  0  0  0  0  0
  134.1799  139.9505  161.5306 C   0  0  1  0  0  0  0  0  0  0  0  0
  135.0578  138.7314  161.8207 C   0  0  0  0  0  0  0  0  0  0  0  0
  134.6857  139.0687  160.3754 C   0  0  1  0  0  0  0  0  0  0  0  0
  135.4538  139.4217  159.6873 H   0  0  0  0  0  0  0  0  0  0  0  0
  133.4437  138.3875  159.7646 C   0  0  0  0  0  0  0  0  0  0  0  0
  128.1329  135.3360  160.8517 O   0  0  0  0  0  0  0  0  0  0  0  0
  127.9792  136.3331  163.6021 C   0  0  0  0  0  0  0  0  0  0  0  0
  128.6895  136.9739  164.5677 C   0  0  0  0  0  0  0  0  0  0  0  0
  128.3409  138.2840  164.9366 C   0  0  0  0  0  0  0  0  0  0  0  0
  129.0431  138.9871  165.9270 C   0  0  0  0  0  0  0  0  0  0  0  0
  128.6841  140.2106  166.2411 N   0  0  0  0  0  0  0  0  0  0  0  0
  127.4253  141.8400  165.9633 H   0  0  0  0  0  0  0  0  0  0  0  0
  126.0998  140.7623  164.2246 H   0  0  0  0  0  0  0  0  0  0  0  0
  125.6984  138.7218  162.8076 H   0  0  0  0  0  0  0  0  0  0  0  0
  125.2490  136.4627  161.8391 H   0  0  0  0  0  0  0  0  0  0  0  0
  125.2147  133.9421  160.7221 H   0  0  0  0  0  0  0  0  0  0  0  0
  127.1399  132.6327  159.3653 H   0  0  0  0  0  0  0  0  0  0  0  0
  132.9273  134.3096  158.9375 H   0  0  0  0  0  0  0  0  0  0  0  0
  130.3589  135.9341  161.2863 H   0  0  0  0  0  0  0  0  0  0  0  0
  132.0871  135.9824  160.8625 H   0  0  0  0  0  0  0  0  0  0  0  0
  130.7959  139.1715  159.6985 H   0  0  0  0  0  0  0  0  0  0  0  0
  130.2644  138.3285  161.1732 H   0  0  0  0  0  0  0  0  0  0  0  0
  132.5871  137.5862  161.6107 H   0  0  0  0  0  0  0  0  0  0  0  0
  132.1542  140.5674  161.0202 H   0  0  0  0  0  0  0  0  0  0  0  0
  132.2996  139.7625  162.6142 H   0  0  0  0  0  0  0  0  0  0  0  0
  134.5820  140.9496  161.6990 H   0  0  0  0  0  0  0  0  0  0  0  0
  134.5788  137.8634  162.2735 H   0  0  0  0  0  0  0  0  0  0  0  0
  136.0865  138.9153  162.1307 H   0  0  0  0  0  0  0  0  0  0  0  0
  133.6757  137.3636  159.4714 H   0  0  0  0  0  0  0  0  0  0  0  0
  133.0780  138.9565  158.9098 H   0  0  0  0  0  0  0  0  0  0  0  0
  128.2508  135.3260  163.3221 H   0  0  0  0  0  0  0  0  0  0  0  0
  129.5191  136.4779  165.0493 H   0  0  0  0  0  0  0  0  0  0  0  0
  129.8784  138.5229  166.4301 H   0  0  0  0  0  0  0  0  0  0  0  0
  1 34  2  0
  1  2  1  0
  1 35  1  0
  2  3  2  0
  2 36  1  0
  3 32  1  0
  3  4  1  0
  4  5  2  0
  4 37  1  0
  5  6  1  0
  5 30  1  0
  6  7  1  0
  6 38  1  0
  7 29  1  0
  7  8  2  0
  8  9  1  0
  8 39  1  0
  9 10  2  0
  9 40  1  0
 10 11  1  0
 10 29  1  0
 11 16  1  0
 11 12  2  0
 12 13  1  0
 13 14  1  0
 13 15  1  0
 15 16  2  0
 15 41  1  0
 16 17  1  0
 17 18  1  0
 17 42  1  0
 17 43  1  0
 18 19  1  0
 18 20  1  0
 18 21  1  0
 21 22  1  0
 21 44  1  0
 21 45  1  0
 22 28  1  0
 22 23  1  0
 22 46  1  1
 23 24  1  0
 23 47  1  0
 23 48  1  0
 24 26  1  0
 24 25  1  0
 24 49  1  6
 25 26  1  0
 25 50  1  0
 25 51  1  0
 26 27  1  6
 26 28  1  0
 28 52  1  0
 28 53  1  0
 30 31  2  0
 30 54  1  0
 31 32  1  0
 31 55  1  0
 32 33  2  0
 33 34  1  0
 33 56  1  0
M  CHG  1  18   1
M  END
>  <DOCK_score>  (1) 
-45.369423

>  <SMILES>  (1) 
c1cc2cc(Nc3ccc(-c4n[nH]cc4C[NH2+]CC4CC5C[C@H]5C4)o3)ccc2cn1

$$$$
