CCc1ccc(-c2c[nH]c(N[C@H](c3ccccc3)c3ccc(OC4=CC(=O)CC4)cc3)[nH+]2)cc1
     RDKit          3D

 62 66  0  0  1  0  0  0  0  0999 V2000
  130.3305  128.2821  151.6781 C   0  0  0  0  0  0  0  0  0  0  0  0
  131.2927  129.4623  151.8264 C   0  0  0  0  0  0  0  0  0  0  0  0
  131.0206  130.1721  153.1276 C   0  0  0  0  0  0  0  0  0  0  0  0
  131.6855  129.7832  154.2765 C   0  0  0  0  0  0  0  0  0  0  0  0
  131.4404  130.4294  155.4711 C   0  0  0  0  0  0  0  0  0  0  0  0
  130.5208  131.4756  155.5184 C   0  0  0  0  0  0  0  0  0  0  0  0
  130.2530  132.1740  156.7993 C   0  0  0  0  0  0  0  0  0  0  0  0
  129.7701  131.6062  157.9322 C   0  0  0  0  0  0  0  0  0  0  0  0
  129.6752  132.6055  158.8698 N   0  0  0  0  0  0  0  0  0  0  0  0
  129.3612  132.5090  159.7826 H   0  0  0  0  0  0  0  0  0  0  0  0
  130.1033  133.7559  158.2821 C   0  0  0  0  0  0  0  0  0  0  0  0
  130.1648  134.9978  158.8906 N   0  0  0  0  0  0  0  0  0  0  0  0
  129.7468  135.1513  160.2863 C   0  0  2  0  0  0  0  0  0  0  0  0
  130.0899  134.2934  160.8647 H   0  0  0  0  0  0  0  0  0  0  0  0
  128.2436  135.2340  160.3543 C   0  0  0  0  0  0  0  0  0  0  0  0
  127.5753  134.7666  161.4703 C   0  0  0  0  0  0  0  0  0  0  0  0
  126.1967  134.8465  161.5343 C   0  0  0  0  0  0  0  0  0  0  0  0
  125.4858  135.3855  160.4784 C   0  0  0  0  0  0  0  0  0  0  0  0
  126.1537  135.8481  159.3601 C   0  0  0  0  0  0  0  0  0  0  0  0
  127.5327  135.7722  159.2979 C   0  0  0  0  0  0  0  0  0  0  0  0
  130.3456  136.4121  160.8543 C   0  0  0  0  0  0  0  0  0  0  0  0
  129.6569  137.6073  160.7582 C   0  0  0  0  0  0  0  0  0  0  0  0
  130.2032  138.7645  161.2783 C   0  0  0  0  0  0  0  0  0  0  0  0
  131.4442  138.7270  161.8974 C   0  0  0  0  0  0  0  0  0  0  0  0
  131.9841  139.8639  162.4095 O   0  0  0  0  0  0  0  0  0  0  0  0
  131.6951  140.1539  163.6922 C   0  0  0  0  0  0  0  0  0  0  0  0
  132.1391  141.2301  164.3596 C   0  0  0  0  0  0  0  0  0  0  0  0
  131.6806  141.2867  165.6807 C   0  0  0  0  0  0  0  0  0  0  0  0
  131.9381  142.1599  166.4852 O   0  0  0  0  0  0  0  0  0  0  0  0
  130.8156  140.0726  165.9394 C   0  0  0  0  0  0  0  0  0  0  0  0
  130.8280  139.3130  164.5996 C   0  0  0  0  0  0  0  0  0  0  0  0
  132.1335  137.5261  161.9928 C   0  0  0  0  0  0  0  0  0  0  0  0
  131.5825  136.3718  161.4710 C   0  0  0  0  0  0  0  0  0  0  0  0
  130.4423  133.4951  157.0431 N   0  0  0  0  0  0  0  0  0  0  0  0
  130.7775  134.1428  156.4035 H   0  0  0  0  0  0  0  0  0  0  0  0
  129.8496  131.8595  154.3587 C   0  0  0  0  0  0  0  0  0  0  0  0
  130.1067  131.2097  153.1688 C   0  0  0  0  0  0  0  0  0  0  0  0
  129.3034  128.6472  151.6849 H   0  0  0  0  0  0  0  0  0  0  0  0
  130.5273  127.7689  150.7367 H   0  0  0  0  0  0  0  0  0  0  0  0
  130.4753  127.5890  152.5069 H   0  0  0  0  0  0  0  0  0  0  0  0
  131.1477  130.1554  150.9973 H   0  0  0  0  0  0  0  0  0  0  0  0
  132.3194  129.0973  151.8193 H   0  0  0  0  0  0  0  0  0  0  0  0
  132.3979  128.9724  154.2386 H   0  0  0  0  0  0  0  0  0  0  0  0
  131.9603  130.1251  156.3674 H   0  0  0  0  0  0  0  0  0  0  0  0
  129.5096  130.5673  158.0705 H   0  0  0  0  0  0  0  0  0  0  0  0
  130.4846  135.7665  158.3928 H   0  0  0  0  0  0  0  0  0  0  0  0
  128.1305  134.3421  162.2937 H   0  0  0  0  0  0  0  0  0  0  0  0
  125.6748  134.4854  162.4083 H   0  0  0  0  0  0  0  0  0  0  0  0
  124.4086  135.4455  160.5273 H   0  0  0  0  0  0  0  0  0  0  0  0
  125.5984  136.2693  158.5351 H   0  0  0  0  0  0  0  0  0  0  0  0
  128.0544  136.1337  158.4241 H   0  0  0  0  0  0  0  0  0  0  0  0
  128.6930  137.6369  160.2720 H   0  0  0  0  0  0  0  0  0  0  0  0
  129.6651  139.6978  161.2026 H   0  0  0  0  0  0  0  0  0  0  0  0
  132.7824  141.9783  163.9208 H   0  0  0  0  0  0  0  0  0  0  0  0
  129.8007  140.3748  166.1979 H   0  0  0  0  0  0  0  0  0  0  0  0
  131.2457  139.4586  166.7307 H   0  0  0  0  0  0  0  0  0  0  0  0
  129.8181  139.2371  164.1965 H   0  0  0  0  0  0  0  0  0  0  0  0
  131.2611  138.3209  164.7272 H   0  0  0  0  0  0  0  0  0  0  0  0
  133.0998  137.4940  162.4742 H   0  0  0  0  0  0  0  0  0  0  0  0
  132.1181  135.4369  161.5451 H   0  0  0  0  0  0  0  0  0  0  0  0
  129.1324  132.6664  154.3906 H   0  0  0  0  0  0  0  0  0  0  0  0
  129.5901  131.5090  152.2686 H   0  0  0  0  0  0  0  0  0  0  0  0
  1  2  1  0
  1 38  1  0
  1 39  1  0
  1 40  1  0
  2  3  1  0
  2 41  1  0
  2 42  1  0
  3 37  2  0
  3  4  1  0
  4  5  2  0
  4 43  1  0
  5  6  1  0
  5 44  1  0
  6  7  1  0
  6 36  2  0
  7 34  1  0
  7  8  2  0
  8  9  1  0
  8 45  1  0
  9 10  1  0
  9 11  1  0
 11 12  1  0
 11 34  2  0
 12 13  1  0
 12 46  1  0
 13 14  1  1
 13 15  1  0
 13 21  1  0
 15 20  1  0
 15 16  2  0
 16 17  1  0
 16 47  1  0
 17 18  2  0
 17 48  1  0
 18 19  1  0
 18 49  1  0
 19 20  2  0
 19 50  1  0
 20 51  1  0
 21 33  1  0
 21 22  2  0
 22 23  1  0
 22 52  1  0
 23 24  2  0
 23 53  1  0
 24 25  1  0
 24 32  1  0
 25 26  1  0
 26 31  1  0
 26 27  2  0
 27 28  1  0
 27 54  1  0
 28 29  2  0
 28 30  1  0
 30 31  1  0
 30 55  1  0
 30 56  1  0
 31 57  1  0
 31 58  1  0
 32 33  2  0
 32 59  1  0
 33 60  1  0
 34 35  1  0
 36 37  1  0
 36 61  1  0
 37 62  1  0
M  CHG  1  34   1
M  END
>  <DOCK_score>  (1) 
-58.798145

>  <SMILES>  (1) 
CCc1ccc(-c2c[nH]c(N[C@H](c3ccccc3)c3ccc(OC4=CC(=O)CC4)cc3)[nH+]2)cc1

$$$$
