CC=CNc1ccc(-c2c[nH]c(N[C@@H](Cc3ccccc3)c3ccccc3)[nH+]2)cc1
     RDKit          3D

 57 60  0  0  1  0  0  0  0  0999 V2000
  129.5307  126.9289  149.8423 C   0  0  0  0  0  0  0  0  0  0  0  0
  130.4588  128.0266  150.2950 C   0  0  0  0  0  0  0  0  0  0  0  0
  130.2869  128.5913  151.4759 C   0  0  0  0  0  0  0  0  0  0  0  0
  131.1425  129.6033  151.8932 N   0  0  0  0  0  0  0  0  0  0  0  0
  130.9609  130.2003  153.1433 C   0  0  0  0  0  0  0  0  0  0  0  0
  130.1424  131.3180  153.2655 C   0  0  0  0  0  0  0  0  0  0  0  0
  129.9618  131.9096  154.4978 C   0  0  0  0  0  0  0  0  0  0  0  0
  130.6002  131.3863  155.6214 C   0  0  0  0  0  0  0  0  0  0  0  0
  130.4078  132.0214  156.9481 C   0  0  0  0  0  0  0  0  0  0  0  0
  129.8835  131.4275  158.0486 C   0  0  0  0  0  0  0  0  0  0  0  0
  129.8887  132.3690  159.0503 N   0  0  0  0  0  0  0  0  0  0  0  0
  129.5746  132.2426  159.9594 H   0  0  0  0  0  0  0  0  0  0  0  0
  130.4164  133.5107  158.5312 C   0  0  0  0  0  0  0  0  0  0  0  0
  130.5972  134.6998  159.2168 N   0  0  0  0  0  0  0  0  0  0  0  0
  130.2064  134.8001  160.6252 C   0  0  1  0  0  0  0  0  0  0  0  0
  130.4733  133.8788  161.1428 H   0  0  0  0  0  0  0  0  0  0  0  0
  130.9345  135.9790  161.2738 C   0  0  0  0  0  0  0  0  0  0  0  0
  130.9378  135.8051  162.7708 C   0  0  0  0  0  0  0  0  0  0  0  0
  129.9054  136.3246  163.5293 C   0  0  0  0  0  0  0  0  0  0  0  0
  129.9087  136.1654  164.9024 C   0  0  0  0  0  0  0  0  0  0  0  0
  130.9437  135.4858  165.5170 C   0  0  0  0  0  0  0  0  0  0  0  0
  131.9786  134.9706  164.7591 C   0  0  0  0  0  0  0  0  0  0  0  0
  131.9733  135.1263  163.3855 C   0  0  0  0  0  0  0  0  0  0  0  0
  128.7178  135.0159  160.7191 C   0  0  0  0  0  0  0  0  0  0  0  0
  128.0181  134.5404  161.8124 C   0  0  0  0  0  0  0  0  0  0  0  0
  126.6535  134.7416  161.9006 C   0  0  0  0  0  0  0  0  0  0  0  0
  125.9869  135.4114  160.8914 C   0  0  0  0  0  0  0  0  0  0  0  0
  126.6858  135.8823  159.7957 C   0  0  0  0  0  0  0  0  0  0  0  0
  128.0511  135.6843  159.7093 C   0  0  0  0  0  0  0  0  0  0  0  0
  130.7201  133.3009  157.2735 N   0  0  0  0  0  0  0  0  0  0  0  0
  131.1086  133.9553  156.6721 H   0  0  0  0  0  0  0  0  0  0  0  0
  131.4242  130.2688  155.4953 C   0  0  0  0  0  0  0  0  0  0  0  0
  131.5978  129.6772  154.2620 C   0  0  0  0  0  0  0  0  0  0  0  0
  128.5095  127.3082  149.8067 H   0  0  0  0  0  0  0  0  0  0  0  0
  129.8270  126.5889  148.8499 H   0  0  0  0  0  0  0  0  0  0  0  0
  129.5847  126.0957  150.5430 H   0  0  0  0  0  0  0  0  0  0  0  0
  131.2645  128.3513  149.6532 H   0  0  0  0  0  0  0  0  0  0  0  0
  129.4812  128.2665  152.1176 H   0  0  0  0  0  0  0  0  0  0  0  0
  131.8662  129.8950  151.3170 H   0  0  0  0  0  0  0  0  0  0  0  0
  129.6482  131.7230  152.3949 H   0  0  0  0  0  0  0  0  0  0  0  0
  129.3260  132.7775  154.5926 H   0  0  0  0  0  0  0  0  0  0  0  0
  129.5293  130.4100  158.1236 H   0  0  0  0  0  0  0  0  0  0  0  0
  130.9827  135.4665  158.7647 H   0  0  0  0  0  0  0  0  0  0  0  0
  130.4238  136.9072  161.0170 H   0  0  0  0  0  0  0  0  0  0  0  0
  131.9612  136.0166  160.9101 H   0  0  0  0  0  0  0  0  0  0  0  0
  129.0965  136.8552  163.0490 H   0  0  0  0  0  0  0  0  0  0  0  0
  129.1023  136.5716  165.4950 H   0  0  0  0  0  0  0  0  0  0  0  0
  130.9462  135.3615  166.5898 H   0  0  0  0  0  0  0  0  0  0  0  0
  132.7895  134.4434  165.2396 H   0  0  0  0  0  0  0  0  0  0  0  0
  132.7800  134.7207  162.7930 H   0  0  0  0  0  0  0  0  0  0  0  0
  128.5382  134.0142  162.5992 H   0  0  0  0  0  0  0  0  0  0  0  0
  126.1073  134.3734  162.7565 H   0  0  0  0  0  0  0  0  0  0  0  0
  124.9203  135.5664  160.9589 H   0  0  0  0  0  0  0  0  0  0  0  0
  126.1651  136.4052  159.0071 H   0  0  0  0  0  0  0  0  0  0  0  0
  128.5971  136.0522  158.8532 H   0  0  0  0  0  0  0  0  0  0  0  0
  131.9230  129.8644  156.3636 H   0  0  0  0  0  0  0  0  0  0  0  0
  132.2330  128.8093  154.1644 H   0  0  0  0  0  0  0  0  0  0  0  0
  1  2  1  0
  1 34  1  0
  1 35  1  0
  1 36  1  0
  2  3  2  0
  2 37  1  0
  3  4  1  0
  3 38  1  0
  4  5  1  0
  4 39  1  0
  5 33  2  0
  5  6  1  0
  6  7  2  0
  6 40  1  0
  7  8  1  0
  7 41  1  0
  8  9  1  0
  8 32  2  0
  9 30  1  0
  9 10  2  0
 10 11  1  0
 10 42  1  0
 11 12  1  0
 11 13  1  0
 13 14  1  0
 13 30  2  0
 14 15  1  0
 14 43  1  0
 15 16  1  1
 15 17  1  0
 15 24  1  0
 17 18  1  0
 17 44  1  0
 17 45  1  0
 18 23  1  0
 18 19  2  0
 19 20  1  0
 19 46  1  0
 20 21  2  0
 20 47  1  0
 21 22  1  0
 21 48  1  0
 22 23  2  0
 22 49  1  0
 23 50  1  0
 24 29  1  0
 24 25  2  0
 25 26  1  0
 25 51  1  0
 26 27  2  0
 26 52  1  0
 27 28  1  0
 27 53  1  0
 28 29  2  0
 28 54  1  0
 29 55  1  0
 30 31  1  0
 32 33  1  0
 32 56  1  0
 33 57  1  0
M  CHG  1  30   1
M  END
>  <DOCK_score>  (1) 
-56.775806

>  <SMILES>  (1) 
CC=CNc1ccc(-c2c[nH]c(N[C@@H](Cc3ccccc3)c3ccccc3)[nH+]2)cc1

$$$$
