Nc1ccc(Nc2cc(-c3n[nH]cc3C[NH2+]C3CCCCCC3)ccc2F)cc1
     RDKit          3D

 58 61  0  0  0  0  0  0  0  0999 V2000
  127.5337  136.7825  166.5443 N   0  0  0  0  0  0  0  0  0  0  0  0
  127.0003  136.1927  165.3924 C   0  0  0  0  0  0  0  0  0  0  0  0
  127.8456  135.6521  164.4332 C   0  0  0  0  0  0  0  0  0  0  0  0
  127.3188  135.0706  163.2970 C   0  0  0  0  0  0  0  0  0  0  0  0
  125.9428  135.0262  163.1138 C   0  0  0  0  0  0  0  0  0  0  0  0
  125.4086  134.4371  161.9617 N   0  0  0  0  0  0  0  0  0  0  0  0
  126.0903  133.3917  161.3306 C   0  0  0  0  0  0  0  0  0  0  0  0
  127.0225  133.6683  160.3420 C   0  0  0  0  0  0  0  0  0  0  0  0
  127.6944  132.6241  159.7120 C   0  0  0  0  0  0  0  0  0  0  0  0
  128.6883  132.9138  158.6485 C   0  0  0  0  0  0  0  0  0  0  0  0
  128.6307  132.4986  157.4008 N   0  0  0  0  0  0  0  0  0  0  0  0
  129.7564  132.9886  156.7265 N   0  0  0  0  0  0  0  0  0  0  0  0
  129.9712  132.8371  155.7928 H   0  0  0  0  0  0  0  0  0  0  0  0
  130.4880  133.7125  157.6006 C   0  0  0  0  0  0  0  0  0  0  0  0
  129.8596  133.6820  158.7960 C   0  0  0  0  0  0  0  0  0  0  0  0
  130.3256  134.3556  160.0610 C   0  0  0  0  0  0  0  0  0  0  0  0
  131.5900  135.0581  159.8045 N   0  0  0  0  0  0  0  0  0  0  0  0
  132.2871  134.3954  159.4998 H   0  0  0  0  0  0  0  0  0  0  0  0
  131.4493  135.7524  159.0860 H   0  0  0  0  0  0  0  0  0  0  0  0
  132.0442  135.7147  161.0377 C   0  0  0  0  0  0  0  0  0  0  0  0
  131.2137  136.9960  161.2565 C   0  0  0  0  0  0  0  0  0  0  0  0
  131.2999  137.3792  162.7090 C   0  0  0  0  0  0  0  0  0  0  0  0
  132.4196  138.4013  162.9836 C   0  0  0  0  0  0  0  0  0  0  0  0
  133.7157  138.0894  162.2112 C   0  0  0  0  0  0  0  0  0  0  0  0
  134.0467  136.6216  162.2109 C   0  0  0  0  0  0  0  0  0  0  0  0
  133.4692  135.9894  160.9280 C   0  0  0  0  0  0  0  0  0  0  0  0
  127.4359  131.3067  160.0859 C   0  0  0  0  0  0  0  0  0  0  0  0
  126.5111  131.0376  161.0751 C   0  0  0  0  0  0  0  0  0  0  0  0
  125.8383  132.0734  161.6985 C   0  0  0  0  0  0  0  0  0  0  0  0
  124.9343  131.8045  162.6660 F   0  0  0  0  0  0  0  0  0  0  0  0
  125.0969  135.5713  164.0711 C   0  0  0  0  0  0  0  0  0  0  0  0
  125.6237  136.1485  165.2095 C   0  0  0  0  0  0  0  0  0  0  0  0
  128.4947  136.8133  166.6723 H   0  0  0  0  0  0  0  0  0  0  0  0
  126.9427  137.1603  167.2144 H   0  0  0  0  0  0  0  0  0  0  0  0
  128.9157  135.6869  164.5755 H   0  0  0  0  0  0  0  0  0  0  0  0
  127.9768  134.6508  162.5506 H   0  0  0  0  0  0  0  0  0  0  0  0
  124.5657  134.7538  161.6013 H   0  0  0  0  0  0  0  0  0  0  0  0
  127.2234  134.6908  160.0581 H   0  0  0  0  0  0  0  0  0  0  0  0
  131.4137  134.2245  157.3828 H   0  0  0  0  0  0  0  0  0  0  0  0
  130.4776  133.6056  160.8372 H   0  0  0  0  0  0  0  0  0  0  0  0
  129.5724  135.0715  160.3901 H   0  0  0  0  0  0  0  0  0  0  0  0
  131.8783  135.0404  161.8778 H   0  0  0  0  0  0  0  0  0  0  0  0
  131.6141  137.8014  160.6408 H   0  0  0  0  0  0  0  0  0  0  0  0
  130.1740  136.8085  160.9883 H   0  0  0  0  0  0  0  0  0  0  0  0
  131.4880  136.4828  163.2997 H   0  0  0  0  0  0  0  0  0  0  0  0
  130.3466  137.8096  163.0158 H   0  0  0  0  0  0  0  0  0  0  0  0
  132.6387  138.4042  164.0513 H   0  0  0  0  0  0  0  0  0  0  0  0
  132.0680  139.3917  162.6947 H   0  0  0  0  0  0  0  0  0  0  0  0
  134.5396  138.6365  162.6695 H   0  0  0  0  0  0  0  0  0  0  0  0
  133.6017  138.4254  161.1808 H   0  0  0  0  0  0  0  0  0  0  0  0
  133.6026  136.1458  163.0854 H   0  0  0  0  0  0  0  0  0  0  0  0
  135.1286  136.4901  162.2289 H   0  0  0  0  0  0  0  0  0  0  0  0
  133.9944  135.0556  160.7273 H   0  0  0  0  0  0  0  0  0  0  0  0
  133.6340  136.6725  160.0946 H   0  0  0  0  0  0  0  0  0  0  0  0
  127.9591  130.4957  159.6010 H   0  0  0  0  0  0  0  0  0  0  0  0
  126.3127  130.0158  161.3635 H   0  0  0  0  0  0  0  0  0  0  0  0
  124.0272  135.5407  163.9267 H   0  0  0  0  0  0  0  0  0  0  0  0
  124.9658  136.5688  165.9558 H   0  0  0  0  0  0  0  0  0  0  0  0
  1  2  1  0
  1 33  1  0
  1 34  1  0
  2 32  2  0
  2  3  1  0
  3  4  2  0
  3 35  1  0
  4  5  1  0
  4 36  1  0
  5  6  1  0
  5 31  2  0
  6  7  1  0
  6 37  1  0
  7 29  1  0
  7  8  2  0
  8  9  1  0
  8 38  1  0
  9 10  1  0
  9 27  2  0
 10 15  1  0
 10 11  2  0
 11 12  1  0
 12 13  1  0
 12 14  1  0
 14 15  2  0
 14 39  1  0
 15 16  1  0
 16 17  1  0
 16 40  1  0
 16 41  1  0
 17 18  1  0
 17 19  1  0
 17 20  1  0
 20 26  1  0
 20 21  1  0
 20 42  1  0
 21 22  1  0
 21 43  1  0
 21 44  1  0
 22 23  1  0
 22 45  1  0
 22 46  1  0
 23 24  1  0
 23 47  1  0
 23 48  1  0
 24 25  1  0
 24 49  1  0
 24 50  1  0
 25 26  1  0
 25 51  1  0
 25 52  1  0
 26 53  1  0
 26 54  1  0
 27 28  1  0
 27 55  1  0
 28 29  2  0
 28 56  1  0
 29 30  1  0
 31 32  1  0
 31 57  1  0
 32 58  1  0
M  CHG  1  17   1
M  END
>  <DOCK_score>  (1) 
-42.095493

>  <SMILES>  (1) 
Nc1ccc(Nc2cc(-c3n[nH]cc3C[NH2+]C3CCCCCC3)ccc2F)cc1

$$$$
