CCc1ccc(-c2c[nH]c(N[C@H](c3ccccc3)c3ccc(C(=O)C4=COCCC4)cc3)[nH+]2)cc1
     RDKit          3D

 65 69  0  0  1  0  0  0  0  0999 V2000
  130.3567  128.6212  151.3516 C   0  0  0  0  0  0  0  0  0  0  0  0
  131.4721  129.6020  151.7185 C   0  0  0  0  0  0  0  0  0  0  0  0
  131.1142  130.3144  152.9974 C   0  0  0  0  0  0  0  0  0  0  0  0
  131.4994  129.7803  154.2139 C   0  0  0  0  0  0  0  0  0  0  0  0
  131.1794  130.4308  155.3883 C   0  0  0  0  0  0  0  0  0  0  0  0
  130.4570  131.6221  155.3475 C   0  0  0  0  0  0  0  0  0  0  0  0
  130.1053  132.3230  156.6066 C   0  0  0  0  0  0  0  0  0  0  0  0
  129.3623  131.8161  157.6213 C   0  0  0  0  0  0  0  0  0  0  0  0
  129.2826  132.7931  158.5838 N   0  0  0  0  0  0  0  0  0  0  0  0
  128.8153  132.7279  159.4313 H   0  0  0  0  0  0  0  0  0  0  0  0
  129.9799  133.8694  158.1284 C   0  0  0  0  0  0  0  0  0  0  0  0
  130.1445  135.0676  158.8023 N   0  0  0  0  0  0  0  0  0  0  0  0
  129.5398  135.2537  160.1236 C   0  0  2  0  0  0  0  0  0  0  0  0
  129.9353  134.5075  160.8126 H   0  0  0  0  0  0  0  0  0  0  0  0
  128.0446  135.0975  160.0183 C   0  0  0  0  0  0  0  0  0  0  0  0
  127.3229  134.6120  161.0926 C   0  0  0  0  0  0  0  0  0  0  0  0
  125.9509  134.4730  160.9976 C   0  0  0  0  0  0  0  0  0  0  0  0
  125.3016  134.8111  159.8250 C   0  0  0  0  0  0  0  0  0  0  0  0
  126.0238  135.2917  158.7489 C   0  0  0  0  0  0  0  0  0  0  0  0
  127.3953  135.4347  158.8453 C   0  0  0  0  0  0  0  0  0  0  0  0
  129.8659  136.6330  160.6355 C   0  0  0  0  0  0  0  0  0  0  0  0
  130.0517  137.6733  159.7421 C   0  0  0  0  0  0  0  0  0  0  0  0
  130.3457  138.9393  160.2045 C   0  0  0  0  0  0  0  0  0  0  0  0
  130.4657  139.1677  161.5758 C   0  0  0  0  0  0  0  0  0  0  0  0
  130.7856  140.5222  162.0786 C   0  0  0  0  0  0  0  0  0  0  0  0
  131.4556  141.2804  161.4014 O   0  0  0  0  0  0  0  0  0  0  0  0
  130.3127  140.9364  163.3473 C   0  0  0  0  0  0  0  0  0  0  0  0
  131.2017  141.2801  164.2861 C   0  0  0  0  0  0  0  0  0  0  0  0
  130.8478  141.6769  165.5190 O   0  0  0  0  0  0  0  0  0  0  0  0
  129.4646  142.0719  165.7270 C   0  0  0  0  0  0  0  0  0  0  0  0
  128.5591  141.0029  165.1004 C   0  0  0  0  0  0  0  0  0  0  0  0
  128.8289  140.9682  163.5927 C   0  0  0  0  0  0  0  0  0  0  0  0
  130.2825  138.1130  162.4716 C   0  0  0  0  0  0  0  0  0  0  0  0
  129.9840  136.8526  161.9964 C   0  0  0  0  0  0  0  0  0  0  0  0
  130.4750  133.5827  156.9492 N   0  0  0  0  0  0  0  0  0  0  0  0
  131.0169  134.1769  156.4069 H   0  0  0  0  0  0  0  0  0  0  0  0
  130.0667  132.1525  154.1190 C   0  0  0  0  0  0  0  0  0  0  0  0
  130.3971  131.4964  152.9509 C   0  0  0  0  0  0  0  0  0  0  0  0
  130.6153  128.1064  150.4263 H   0  0  0  0  0  0  0  0  0  0  0  0
  130.2370  127.8915  152.1524 H   0  0  0  0  0  0  0  0  0  0  0  0
  129.4230  129.1669  151.2148 H   0  0  0  0  0  0  0  0  0  0  0  0
  132.4055  129.0569  151.8549 H   0  0  0  0  0  0  0  0  0  0  0  0
  131.5914  130.3323  150.9173 H   0  0  0  0  0  0  0  0  0  0  0  0
  132.0550  128.8547  154.2446 H   0  0  0  0  0  0  0  0  0  0  0  0
  131.4847  130.0155  156.3374 H   0  0  0  0  0  0  0  0  0  0  0  0
  128.9180  130.8327  157.6645 H   0  0  0  0  0  0  0  0  0  0  0  0
  130.6601  135.7837  158.3997 H   0  0  0  0  0  0  0  0  0  0  0  0
  127.8307  134.3443  162.0075 H   0  0  0  0  0  0  0  0  0  0  0  0
  125.3866  134.0977  161.8385 H   0  0  0  0  0  0  0  0  0  0  0  0
  124.2299  134.6999  159.7498 H   0  0  0  0  0  0  0  0  0  0  0  0
  125.5165  135.5558  157.8326 H   0  0  0  0  0  0  0  0  0  0  0  0
  127.9596  135.8103  158.0045 H   0  0  0  0  0  0  0  0  0  0  0  0
  129.9622  137.4944  158.6808 H   0  0  0  0  0  0  0  0  0  0  0  0
  130.4860  139.7513  159.5063 H   0  0  0  0  0  0  0  0  0  0  0  0
  132.2525  141.2404  164.0394 H   0  0  0  0  0  0  0  0  0  0  0  0
  129.2817  143.0346  165.2492 H   0  0  0  0  0  0  0  0  0  0  0  0
  129.2598  142.1472  166.7949 H   0  0  0  0  0  0  0  0  0  0  0  0
  127.5141  141.2548  165.2810 H   0  0  0  0  0  0  0  0  0  0  0  0
  128.7831  140.0293  165.5364 H   0  0  0  0  0  0  0  0  0  0  0  0
  128.4029  141.8569  163.1270 H   0  0  0  0  0  0  0  0  0  0  0  0
  128.3705  140.0777  163.1626 H   0  0  0  0  0  0  0  0  0  0  0  0
  130.3737  138.2833  163.5342 H   0  0  0  0  0  0  0  0  0  0  0  0
  129.8419  136.0357  162.6884 H   0  0  0  0  0  0  0  0  0  0  0  0
  129.5067  133.0751  154.0816 H   0  0  0  0  0  0  0  0  0  0  0  0
  130.0956  131.9067  151.9984 H   0  0  0  0  0  0  0  0  0  0  0  0
  1  2  1  0
  1 39  1  0
  1 40  1  0
  1 41  1  0
  2  3  1  0
  2 42  1  0
  2 43  1  0
  3 38  2  0
  3  4  1  0
  4  5  2  0
  4 44  1  0
  5  6  1  0
  5 45  1  0
  6  7  1  0
  6 37  2  0
  7 35  1  0
  7  8  2  0
  8  9  1  0
  8 46  1  0
  9 10  1  0
  9 11  1  0
 11 12  1  0
 11 35  2  0
 12 13  1  0
 12 47  1  0
 13 14  1  1
 13 15  1  0
 13 21  1  0
 15 20  1  0
 15 16  2  0
 16 17  1  0
 16 48  1  0
 17 18  2  0
 17 49  1  0
 18 19  1  0
 18 50  1  0
 19 20  2  0
 19 51  1  0
 20 52  1  0
 21 34  1  0
 21 22  2  0
 22 23  1  0
 22 53  1  0
 23 24  2  0
 23 54  1  0
 24 25  1  0
 24 33  1  0
 25 26  2  0
 25 27  1  0
 27 32  1  0
 27 28  2  0
 28 29  1  0
 28 55  1  0
 29 30  1  0
 30 31  1  0
 30 56  1  0
 30 57  1  0
 31 32  1  0
 31 58  1  0
 31 59  1  0
 32 60  1  0
 32 61  1  0
 33 34  2  0
 33 62  1  0
 34 63  1  0
 35 36  1  0
 37 38  1  0
 37 64  1  0
 38 65  1  0
M  CHG  1  35   1
M  END
>  <DOCK_score>  (1) 
-61.804203

>  <SMILES>  (1) 
CCc1ccc(-c2c[nH]c(N[C@H](c3ccccc3)c3ccc(C(=O)C4=COCCC4)cc3)[nH+]2)cc1

$$$$
