CC(C)(Oc1cccc(CC2=CCC[N@@H+](Cc3ccccc3)C2)c1)C(F)(F)F
     RDKit          3D

 55 57  0  0  1  0  0  0  0  0999 V2000
  126.4572  138.5033  165.4903 C   0  0  0  0  0  0  0  0  0  0  0  0
  126.3923  139.3191  164.1977 C   0  0  0  0  0  0  0  0  0  0  0  0
  127.7201  140.0499  163.9886 C   0  0  0  0  0  0  0  0  0  0  0  0
  126.1513  138.4440  163.0938 O   0  0  0  0  0  0  0  0  0  0  0  0
  127.0720  137.4707  162.8657 C   0  0  0  0  0  0  0  0  0  0  0  0
  126.9356  136.2296  163.4709 C   0  0  0  0  0  0  0  0  0  0  0  0
  127.8698  135.2403  163.2333 C   0  0  0  0  0  0  0  0  0  0  0  0
  128.9459  135.4894  162.4012 C   0  0  0  0  0  0  0  0  0  0  0  0
  129.0870  136.7270  161.8015 C   0  0  0  0  0  0  0  0  0  0  0  0
  130.2610  136.9950  160.8954 C   0  0  0  0  0  0  0  0  0  0  0  0
  130.6821  135.7118  160.2263 C   0  0  0  0  0  0  0  0  0  0  0  0
  131.8905  135.2787  160.4254 C   0  0  0  0  0  0  0  0  0  0  0  0
  132.4090  134.0118  159.8034 C   0  0  0  0  0  0  0  0  0  0  0  0
  131.2365  133.1789  159.2788 C   0  0  0  0  0  0  0  0  0  0  0  0
  130.3686  134.0497  158.4698 N   0  0  1  0  0  0  0  0  0  0  0  0
  130.9280  134.5556  157.7996 H   0  0  0  0  0  0  0  0  0  0  0  0
  129.3717  133.2345  157.7629 C   0  0  0  0  0  0  0  0  0  0  0  0
  130.0018  132.6193  156.5400 C   0  0  0  0  0  0  0  0  0  0  0  0
  129.9635  133.2892  155.3315 C   0  0  0  0  0  0  0  0  0  0  0  0
  130.5448  132.7266  154.2106 C   0  0  0  0  0  0  0  0  0  0  0  0
  131.1575  131.4904  154.2964 C   0  0  0  0  0  0  0  0  0  0  0  0
  131.1912  130.8181  155.5039 C   0  0  0  0  0  0  0  0  0  0  0  0
  130.6132  131.3825  156.6257 C   0  0  0  0  0  0  0  0  0  0  0  0
  129.6868  134.9994  159.3572 C   0  0  0  0  0  0  0  0  0  0  0  0
  128.1525  137.7181  162.0319 C   0  0  0  0  0  0  0  0  0  0  0  0
  125.2577  140.3408  164.2957 C   0  0  0  0  0  0  0  0  0  0  0  0
  125.4936  141.1975  165.3762 F   0  0  0  0  0  0  0  0  0  0  0  0
  125.1984  141.0866  163.1136 F   0  0  0  0  0  0  0  0  0  0  0  0
  124.0436  139.6725  164.4867 F   0  0  0  0  0  0  0  0  0  0  0  0
  127.2037  137.7160  165.3861 H   0  0  0  0  0  0  0  0  0  0  0  0
  125.4828  138.0563  165.6872 H   0  0  0  0  0  0  0  0  0  0  0  0
  126.7313  139.1565  166.3189 H   0  0  0  0  0  0  0  0  0  0  0  0
  128.5145  139.3212  163.8272 H   0  0  0  0  0  0  0  0  0  0  0  0
  127.6429  140.7019  163.1186 H   0  0  0  0  0  0  0  0  0  0  0  0
  127.9489  140.6473  164.8711 H   0  0  0  0  0  0  0  0  0  0  0  0
  126.0978  136.0359  164.1244 H   0  0  0  0  0  0  0  0  0  0  0  0
  127.7619  134.2728  163.7009 H   0  0  0  0  0  0  0  0  0  0  0  0
  129.6776  134.7159  162.2199 H   0  0  0  0  0  0  0  0  0  0  0  0
  129.9756  137.7236  160.1367 H   0  0  0  0  0  0  0  0  0  0  0  0
  131.0909  137.3879  161.4826 H   0  0  0  0  0  0  0  0  0  0  0  0
  132.5474  135.8492  161.0654 H   0  0  0  0  0  0  0  0  0  0  0  0
  132.9577  133.4366  160.5492 H   0  0  0  0  0  0  0  0  0  0  0  0
  133.0741  134.2629  158.9772 H   0  0  0  0  0  0  0  0  0  0  0  0
  130.6698  132.7751  160.1178 H   0  0  0  0  0  0  0  0  0  0  0  0
  131.6110  132.3614  158.6627 H   0  0  0  0  0  0  0  0  0  0  0  0
  129.0137  132.4450  158.4235 H   0  0  0  0  0  0  0  0  0  0  0  0
  128.5343  133.8644  157.4624 H   0  0  0  0  0  0  0  0  0  0  0  0
  129.4819  134.2535  155.2637 H   0  0  0  0  0  0  0  0  0  0  0  0
  130.5182  133.2517  153.2672 H   0  0  0  0  0  0  0  0  0  0  0  0
  131.6094  131.0496  153.4202 H   0  0  0  0  0  0  0  0  0  0  0  0
  131.6695  129.8521  155.5709 H   0  0  0  0  0  0  0  0  0  0  0  0
  130.6396  130.8572  157.5689 H   0  0  0  0  0  0  0  0  0  0  0  0
  128.9793  134.4601  159.9869 H   0  0  0  0  0  0  0  0  0  0  0  0
  129.1479  135.7294  158.7532 H   0  0  0  0  0  0  0  0  0  0  0  0
  128.2634  138.6849  161.5634 H   0  0  0  0  0  0  0  0  0  0  0  0
  1  2  1  0
  1 30  1  0
  1 31  1  0
  1 32  1  0
  2  3  1  0
  2  4  1  0
  2 26  1  0
  3 33  1  0
  3 34  1  0
  3 35  1  0
  4  5  1  0
  5 25  2  0
  5  6  1  0
  6  7  2  0
  6 36  1  0
  7  8  1  0
  7 37  1  0
  8  9  2  0
  8 38  1  0
  9 10  1  0
  9 25  1  0
 10 11  1  0
 10 39  1  0
 10 40  1  0
 11 24  1  0
 11 12  2  0
 12 13  1  0
 12 41  1  0
 13 14  1  0
 13 42  1  0
 13 43  1  0
 14 15  1  0
 14 44  1  0
 14 45  1  0
 15 16  1  6
 15 17  1  0
 15 24  1  0
 17 18  1  0
 17 46  1  0
 17 47  1  0
 18 23  1  0
 18 19  2  0
 19 20  1  0
 19 48  1  0
 20 21  2  0
 20 49  1  0
 21 22  1  0
 21 50  1  0
 22 23  2  0
 22 51  1  0
 23 52  1  0
 24 53  1  0
 24 54  1  0
 25 55  1  0
 26 27  1  0
 26 28  1  0
 26 29  1  0
M  CHG  1  15   1
M  END
>  <DOCK_score>  (1) 
-42.924297

>  <SMILES>  (1) 
CC(C)(Oc1cccc(CC2=CCC[N@@H+](Cc3ccccc3)C2)c1)C(F)(F)F

$$$$
