C[C@@H](C(=O)NC1CCCCCC1)n1cc(C[C@@H]([NH3+])C(=O)Nc2cccc(O)c2)nn1
     RDKit          3D

 61 63  0  0  1  0  0  0  0  0999 V2000
  132.0601  138.7053  163.1873 C   0  0  0  0  0  0  0  0  0  0  0  0
  131.0985  137.5442  163.4478 C   0  0  1  0  0  0  0  0  0  0  0  0
  131.5797  136.8123  164.0964 H   0  0  0  0  0  0  0  0  0  0  0  0
  129.8519  138.0647  164.1160 C   0  0  0  0  0  0  0  0  0  0  0  0
  129.5350  137.6543  165.2124 O   0  0  0  0  0  0  0  0  0  0  0  0
  129.0892  138.9863  163.4951 N   0  0  0  0  0  0  0  0  0  0  0  0
  127.8774  139.4922  164.1445 C   0  0  0  0  0  0  0  0  0  0  0  0
  126.6923  138.5781  163.7723 C   0  0  0  0  0  0  0  0  0  0  0  0
  125.6051  138.7640  164.7959 C   0  0  0  0  0  0  0  0  0  0  0  0
  124.5616  139.8118  164.3638 C   0  0  0  0  0  0  0  0  0  0  0  0
  125.1972  141.0536  163.7096 C   0  0  0  0  0  0  0  0  0  0  0  0
  126.4404  141.5084  164.4249 C   0  0  0  0  0  0  0  0  0  0  0  0
  127.6638  140.8721  163.7340 C   0  0  0  0  0  0  0  0  0  0  0  0
  130.7423  136.9101  162.1760 N   0  0  0  0  0  0  0  0  0  0  0  0
  131.4016  135.8843  161.5895 C   0  0  0  0  0  0  0  0  0  0  0  0
  130.7361  135.6153  160.4420 C   0  0  0  0  0  0  0  0  0  0  0  0
  131.0760  134.5510  159.4309 C   0  0  0  0  0  0  0  0  0  0  0  0
  130.0670  134.5984  158.2817 C   0  0  1  0  0  0  0  0  0  0  0  0
  129.8418  135.6367  158.0385 H   0  0  0  0  0  0  0  0  0  0  0  0
  130.6359  133.9316  157.1028 N   0  0  0  0  0  0  0  0  0  0  0  0
  131.4837  134.4035  156.8258 H   0  0  0  0  0  0  0  0  0  0  0  0
  130.8445  132.9704  157.3279 H   0  0  0  0  0  0  0  0  0  0  0  0
  129.9706  133.9629  156.3449 H   0  0  0  0  0  0  0  0  0  0  0  0
  128.8010  133.8934  158.6953 C   0  0  0  0  0  0  0  0  0  0  0  0
  128.4110  132.9304  158.0697 O   0  0  0  0  0  0  0  0  0  0  0  0
  128.1020  134.3331  159.7604 N   0  0  0  0  0  0  0  0  0  0  0  0
  126.9264  133.6787  160.1444 C   0  0  0  0  0  0  0  0  0  0  0  0
  126.7770  132.3186  159.9034 C   0  0  0  0  0  0  0  0  0  0  0  0
  125.6187  131.6715  160.2876 C   0  0  0  0  0  0  0  0  0  0  0  0
  124.6013  132.3768  160.9021 C   0  0  0  0  0  0  0  0  0  0  0  0
  124.7427  133.7366  161.1401 C   0  0  0  0  0  0  0  0  0  0  0  0
  123.7412  134.4289  161.7439 O   0  0  0  0  0  0  0  0  0  0  0  0
  125.9060  134.3885  160.7611 C   0  0  0  0  0  0  0  0  0  0  0  0
  129.7205  136.4838  160.3795 N   0  0  0  0  0  0  0  0  0  0  0  0
  129.7518  137.2370  161.4216 N   0  0  0  0  0  0  0  0  0  0  0  0
  132.9617  138.3288  162.7040 H   0  0  0  0  0  0  0  0  0  0  0  0
  132.3251  139.1769  164.1335 H   0  0  0  0  0  0  0  0  0  0  0  0
  131.5787  139.4372  162.5387 H   0  0  0  0  0  0  0  0  0  0  0  0
  129.3427  139.3145  162.6182 H   0  0  0  0  0  0  0  0  0  0  0  0
  128.0182  139.4632  165.2249 H   0  0  0  0  0  0  0  0  0  0  0  0
  126.3165  138.8491  162.7857 H   0  0  0  0  0  0  0  0  0  0  0  0
  127.0187  137.5381  163.7698 H   0  0  0  0  0  0  0  0  0  0  0  0
  126.0562  139.0824  165.7357 H   0  0  0  0  0  0  0  0  0  0  0  0
  125.1026  137.8094  164.9520 H   0  0  0  0  0  0  0  0  0  0  0  0
  123.9962  140.1272  165.2407 H   0  0  0  0  0  0  0  0  0  0  0  0
  123.8770  139.3510  163.6518 H   0  0  0  0  0  0  0  0  0  0  0  0
  124.4703  141.8657  163.7145 H   0  0  0  0  0  0  0  0  0  0  0  0
  125.4515  140.8166  162.6765 H   0  0  0  0  0  0  0  0  0  0  0  0
  126.4010  141.1893  165.4664 H   0  0  0  0  0  0  0  0  0  0  0  0
  126.5152  142.5947  164.3744 H   0  0  0  0  0  0  0  0  0  0  0  0
  128.5512  141.4551  163.9805 H   0  0  0  0  0  0  0  0  0  0  0  0
  127.5121  140.8999  162.6549 H   0  0  0  0  0  0  0  0  0  0  0  0
  132.2806  135.3801  161.9631 H   0  0  0  0  0  0  0  0  0  0  0  0
  132.0788  134.7265  159.0415 H   0  0  0  0  0  0  0  0  0  0  0  0
  131.0378  133.5715  159.9076 H   0  0  0  0  0  0  0  0  0  0  0  0
  128.4139  135.1033  160.2607 H   0  0  0  0  0  0  0  0  0  0  0  0
  127.5687  131.7661  159.4194 H   0  0  0  0  0  0  0  0  0  0  0  0
  125.5060  130.6134  160.1032 H   0  0  0  0  0  0  0  0  0  0  0  0
  123.6951  131.8690  161.1976 H   0  0  0  0  0  0  0  0  0  0  0  0
  123.9316  135.3691  161.8669 H   0  0  0  0  0  0  0  0  0  0  0  0
  126.0180  135.4466  160.9459 H   0  0  0  0  0  0  0  0  0  0  0  0
  1  2  1  0
  1 36  1  0
  1 37  1  0
  1 38  1  0
  2  3  1  1
  2  4  1  0
  2 14  1  0
  4  5  2  0
  4  6  1  0
  6  7  1  0
  6 39  1  0
  7 13  1  0
  7  8  1  0
  7 40  1  0
  8  9  1  0
  8 41  1  0
  8 42  1  0
  9 10  1  0
  9 43  1  0
  9 44  1  0
 10 11  1  0
 10 45  1  0
 10 46  1  0
 11 12  1  0
 11 47  1  0
 11 48  1  0
 12 13  1  0
 12 49  1  0
 12 50  1  0
 13 51  1  0
 13 52  1  0
 14 35  1  0
 14 15  1  0
 15 16  2  0
 15 53  1  0
 16 17  1  0
 16 34  1  0
 17 18  1  0
 17 54  1  0
 17 55  1  0
 18 19  1  6
 18 20  1  0
 18 24  1  0
 20 21  1  0
 20 22  1  0
 20 23  1  0
 24 25  2  0
 24 26  1  0
 26 27  1  0
 26 56  1  0
 27 33  1  0
 27 28  2  0
 28 29  1  0
 28 57  1  0
 29 30  2  0
 29 58  1  0
 30 31  1  0
 30 59  1  0
 31 32  1  0
 31 33  2  0
 32 60  1  0
 33 61  1  0
 34 35  2  0
M  CHG  1  20   1
M  END
>  <DOCK_score>  (1) 
-48.142387

>  <SMILES>  (1) 
C[C@@H](C(=O)NC1CCCCCC1)n1cc(C[C@@H]([NH3+])C(=O)Nc2cccc(O)c2)nn1

$$$$
