CCc1ccc(-c2c[nH]c(N[C@H](CSC3=CCC3)Cc3ccccc3)[nH+]2)cc1
     RDKit          3D

 56 59  0  0  1  0  0  0  0  0999 V2000
  130.0250  129.1188  151.2358 C   0  0  0  0  0  0  0  0  0  0  0  0
  131.3255  129.6787  151.8158 C   0  0  0  0  0  0  0  0  0  0  0  0
  131.0367  130.3644  153.1264 C   0  0  0  0  0  0  0  0  0  0  0  0
  131.0902  129.6451  154.3067 C   0  0  0  0  0  0  0  0  0  0  0  0
  130.8322  130.2691  155.5103 C   0  0  0  0  0  0  0  0  0  0  0  0
  130.5063  131.6241  155.5340 C   0  0  0  0  0  0  0  0  0  0  0  0
  130.2227  132.2992  156.8240 C   0  0  0  0  0  0  0  0  0  0  0  0
  129.6960  131.7178  157.9301 C   0  0  0  0  0  0  0  0  0  0  0  0
  129.6020  132.6971  158.8888 N   0  0  0  0  0  0  0  0  0  0  0  0
  129.2619  132.5876  159.7906 H   0  0  0  0  0  0  0  0  0  0  0  0
  130.0744  133.8494  158.3400 C   0  0  0  0  0  0  0  0  0  0  0  0
  130.1514  135.0748  158.9794 N   0  0  0  0  0  0  0  0  0  0  0  0
  129.1829  135.4183  160.0235 C   0  0  2  0  0  0  0  0  0  0  0  0
  128.9902  134.5422  160.6428 H   0  0  0  0  0  0  0  0  0  0  0  0
  127.8769  135.8816  159.3751 C   0  0  0  0  0  0  0  0  0  0  0  0
  126.9161  134.4353  158.8497 S   0  0  0  0  0  0  0  0  0  0  0  0
  126.1570  133.8986  160.3464 C   0  0  0  0  0  0  0  0  0  0  0  0
  125.0271  133.2885  160.6057 C   0  0  0  0  0  0  0  0  0  0  0  0
  125.2563  133.2647  162.0866 C   0  0  0  0  0  0  0  0  0  0  0  0
  126.5727  133.9685  161.7847 C   0  0  0  0  0  0  0  0  0  0  0  0
  129.7477  136.5433  160.8930 C   0  0  0  0  0  0  0  0  0  0  0  0
  131.0342  136.0870  161.5316 C   0  0  0  0  0  0  0  0  0  0  0  0
  131.0105  135.4654  162.7661 C   0  0  0  0  0  0  0  0  0  0  0  0
  132.1900  135.0425  163.3498 C   0  0  0  0  0  0  0  0  0  0  0  0
  133.3943  135.2505  162.7037 C   0  0  0  0  0  0  0  0  0  0  0  0
  133.4184  135.8767  161.4715 C   0  0  0  0  0  0  0  0  0  0  0  0
  132.2384  136.2950  160.8855 C   0  0  0  0  0  0  0  0  0  0  0  0
  130.4498  133.6062  157.1079 N   0  0  0  0  0  0  0  0  0  0  0  0
  130.8274  134.2574  156.4961 H   0  0  0  0  0  0  0  0  0  0  0  0
  130.4485  132.3424  154.3409 C   0  0  0  0  0  0  0  0  0  0  0  0
  130.7138  131.7093  153.1437 C   0  0  0  0  0  0  0  0  0  0  0  0
  129.3198  129.9335  151.0720 H   0  0  0  0  0  0  0  0  0  0  0  0
  130.2339  128.6227  150.2880 H   0  0  0  0  0  0  0  0  0  0  0  0
  129.5950  128.4010  151.9345 H   0  0  0  0  0  0  0  0  0  0  0  0
  132.0307  128.8638  151.9797 H   0  0  0  0  0  0  0  0  0  0  0  0
  131.7555  130.3964  151.1172 H   0  0  0  0  0  0  0  0  0  0  0  0
  131.3381  128.5942  154.2867 H   0  0  0  0  0  0  0  0  0  0  0  0
  130.8788  129.7078  156.4319 H   0  0  0  0  0  0  0  0  0  0  0  0
  129.4057  130.6830  158.0368 H   0  0  0  0  0  0  0  0  0  0  0  0
  130.8468  135.7059  158.7363 H   0  0  0  0  0  0  0  0  0  0  0  0
  127.2984  136.4597  160.0958 H   0  0  0  0  0  0  0  0  0  0  0  0
  128.1020  136.5027  158.5081 H   0  0  0  0  0  0  0  0  0  0  0  0
  124.2224  132.9323  159.9796 H   0  0  0  0  0  0  0  0  0  0  0  0
  124.5482  133.8713  162.6511 H   0  0  0  0  0  0  0  0  0  0  0  0
  125.3816  132.2624  162.4963 H   0  0  0  0  0  0  0  0  0  0  0  0
  127.4543  133.3712  162.0173 H   0  0  0  0  0  0  0  0  0  0  0  0
  126.6288  134.9837  162.1775 H   0  0  0  0  0  0  0  0  0  0  0  0
  129.9403  137.4193  160.2737 H   0  0  0  0  0  0  0  0  0  0  0  0
  129.0270  136.7989  161.6698 H   0  0  0  0  0  0  0  0  0  0  0  0
  130.0700  135.3070  163.2729 H   0  0  0  0  0  0  0  0  0  0  0  0
  132.1712  134.5535  164.3125 H   0  0  0  0  0  0  0  0  0  0  0  0
  134.3163  134.9240  163.1616 H   0  0  0  0  0  0  0  0  0  0  0  0
  134.3593  136.0395  160.9669 H   0  0  0  0  0  0  0  0  0  0  0  0
  132.2573  136.7846  159.9231 H   0  0  0  0  0  0  0  0  0  0  0  0
  130.1962  133.3926  154.3534 H   0  0  0  0  0  0  0  0  0  0  0  0
  130.6690  132.2649  152.2187 H   0  0  0  0  0  0  0  0  0  0  0  0
  1  2  1  0
  1 32  1  0
  1 33  1  0
  1 34  1  0
  2  3  1  0
  2 35  1  0
  2 36  1  0
  3 31  2  0
  3  4  1  0
  4  5  2  0
  4 37  1  0
  5  6  1  0
  5 38  1  0
  6  7  1  0
  6 30  2  0
  7 28  1  0
  7  8  2  0
  8  9  1  0
  8 39  1  0
  9 10  1  0
  9 11  1  0
 11 12  1  0
 11 28  2  0
 12 13  1  0
 12 40  1  0
 13 14  1  1
 13 15  1  0
 13 21  1  0
 15 16  1  0
 15 41  1  0
 15 42  1  0
 16 17  1  0
 17 20  1  0
 17 18  2  0
 18 19  1  0
 18 43  1  0
 19 20  1  0
 19 44  1  0
 19 45  1  0
 20 46  1  0
 20 47  1  0
 21 22  1  0
 21 48  1  0
 21 49  1  0
 22 27  1  0
 22 23  2  0
 23 24  1  0
 23 50  1  0
 24 25  2  0
 24 51  1  0
 25 26  1  0
 25 52  1  0
 26 27  2  0
 26 53  1  0
 27 54  1  0
 28 29  1  0
 30 31  1  0
 30 55  1  0
 31 56  1  0
M  CHG  1  28   1
M  END
>  <DOCK_score>  (1) 
-60.071571

>  <SMILES>  (1) 
CCc1ccc(-c2c[nH]c(N[C@H](CSC3=CCC3)Cc3ccccc3)[nH+]2)cc1

$$$$
