CCCC=C1C=C([NH2+]Cc2c[nH]c3cccc(NCc4ccccc4N)c23)CC1
     RDKit          3D

 60 63  0  0  0  0  0  0  0  0999 V2000
  130.5862  132.3412  152.3518 C   0  0  0  0  0  0  0  0  0  0  0  0
  129.9963  131.6179  153.5641 C   0  0  0  0  0  0  0  0  0  0  0  0
  130.2219  132.4611  154.8207 C   0  0  0  0  0  0  0  0  0  0  0  0
  129.6408  131.7485  156.0148 C   0  0  0  0  0  0  0  0  0  0  0  0
  129.7216  132.2994  157.2212 C   0  0  0  0  0  0  0  0  0  0  0  0
  130.2367  133.6377  157.5332 C   0  0  0  0  0  0  0  0  0  0  0  0
  130.1917  133.9005  158.8251 C   0  0  0  0  0  0  0  0  0  0  0  0
  130.6198  135.0968  159.4085 N   0  0  0  0  0  0  0  0  0  0  0  0
  131.3679  135.4905  158.8576 H   0  0  0  0  0  0  0  0  0  0  0  0
  130.9505  134.9151  160.3442 H   0  0  0  0  0  0  0  0  0  0  0  0
  129.4988  136.0448  159.4606 C   0  0  0  0  0  0  0  0  0  0  0  0
  129.9602  137.3342  160.0895 C   0  0  0  0  0  0  0  0  0  0  0  0
  130.4787  138.3939  159.4494 C   0  0  0  0  0  0  0  0  0  0  0  0
  130.7707  139.3842  160.3493 N   0  0  0  0  0  0  0  0  0  0  0  0
  131.1546  140.2462  160.1244 H   0  0  0  0  0  0  0  0  0  0  0  0
  130.4514  138.9682  161.6224 C   0  0  0  0  0  0  0  0  0  0  0  0
  130.5556  139.5634  162.8770 C   0  0  0  0  0  0  0  0  0  0  0  0
  130.1434  138.8816  164.0006 C   0  0  0  0  0  0  0  0  0  0  0  0
  129.6215  137.5999  163.9007 C   0  0  0  0  0  0  0  0  0  0  0  0
  129.5073  136.9873  162.6658 C   0  0  0  0  0  0  0  0  0  0  0  0
  128.9817  135.6982  162.5665 N   0  0  0  0  0  0  0  0  0  0  0  0
  128.1596  135.1567  163.6516 C   0  0  0  0  0  0  0  0  0  0  0  0
  127.1585  134.1828  163.0855 C   0  0  0  0  0  0  0  0  0  0  0  0
  127.4826  132.8448  162.9738 C   0  0  0  0  0  0  0  0  0  0  0  0
  126.5649  131.9508  162.4540 C   0  0  0  0  0  0  0  0  0  0  0  0
  125.3199  132.3926  162.0442 C   0  0  0  0  0  0  0  0  0  0  0  0
  124.9895  133.7288  162.1530 C   0  0  0  0  0  0  0  0  0  0  0  0
  125.9093  134.6299  162.6749 C   0  0  0  0  0  0  0  0  0  0  0  0
  125.5806  135.9832  162.7810 N   0  0  0  0  0  0  0  0  0  0  0  0
  129.9288  137.6686  161.5151 C   0  0  0  0  0  0  0  0  0  0  0  0
  129.6092  132.7362  159.5856 C   0  0  0  0  0  0  0  0  0  0  0  0
  129.2927  131.6648  158.5273 C   0  0  0  0  0  0  0  0  0  0  0  0
  130.3488  131.7843  151.4454 H   0  0  0  0  0  0  0  0  0  0  0  0
  130.1618  133.3429  152.2845 H   0  0  0  0  0  0  0  0  0  0  0  0
  131.6683  132.4116  152.4619 H   0  0  0  0  0  0  0  0  0  0  0  0
  130.4845  130.6506  153.6830 H   0  0  0  0  0  0  0  0  0  0  0  0
  128.9270  131.4691  153.4135 H   0  0  0  0  0  0  0  0  0  0  0  0
  129.7337  133.4283  154.7017 H   0  0  0  0  0  0  0  0  0  0  0  0
  131.2911  132.6098  154.9713 H   0  0  0  0  0  0  0  0  0  0  0  0
  129.1587  130.7901  155.8898 H   0  0  0  0  0  0  0  0  0  0  0  0
  130.6119  134.3269  156.7911 H   0  0  0  0  0  0  0  0  0  0  0  0
  128.6906  135.6193  160.0555 H   0  0  0  0  0  0  0  0  0  0  0  0
  129.1414  136.2409  158.4498 H   0  0  0  0  0  0  0  0  0  0  0  0
  130.6339  138.4595  158.3826 H   0  0  0  0  0  0  0  0  0  0  0  0
  130.9598  140.5607  162.9692 H   0  0  0  0  0  0  0  0  0  0  0  0
  130.2271  139.3500  164.9701 H   0  0  0  0  0  0  0  0  0  0  0  0
  129.3027  137.0784  164.7911 H   0  0  0  0  0  0  0  0  0  0  0  0
  129.1607  135.1607  161.7792 H   0  0  0  0  0  0  0  0  0  0  0  0
  127.6330  135.9711  164.1494 H   0  0  0  0  0  0  0  0  0  0  0  0
  128.7986  134.6441  164.3706 H   0  0  0  0  0  0  0  0  0  0  0  0
  128.4539  132.4966  163.2925 H   0  0  0  0  0  0  0  0  0  0  0  0
  126.8205  130.9051  162.3681 H   0  0  0  0  0  0  0  0  0  0  0  0
  124.6053  131.6915  161.6389 H   0  0  0  0  0  0  0  0  0  0  0  0
  124.0174  134.0732  161.8325 H   0  0  0  0  0  0  0  0  0  0  0  0
  124.7092  136.2949  162.4902 H   0  0  0  0  0  0  0  0  0  0  0  0
  126.2235  136.6114  163.1455 H   0  0  0  0  0  0  0  0  0  0  0  0
  130.3353  132.3538  160.3030 H   0  0  0  0  0  0  0  0  0  0  0  0
  128.6973  133.0405  160.0995 H   0  0  0  0  0  0  0  0  0  0  0  0
  129.8670  130.7583  158.7181 H   0  0  0  0  0  0  0  0  0  0  0  0
  128.2251  131.4458  158.5130 H   0  0  0  0  0  0  0  0  0  0  0  0
  1  2  1  0
  1 33  1  0
  1 34  1  0
  1 35  1  0
  2  3  1  0
  2 36  1  0
  2 37  1  0
  3  4  1  0
  3 38  1  0
  3 39  1  0
  4  5  2  0
  4 40  1  0
  5 32  1  0
  5  6  1  0
  6  7  2  0
  6 41  1  0
  7  8  1  0
  7 31  1  0
  8  9  1  0
  8 10  1  0
  8 11  1  0
 11 12  1  0
 11 42  1  0
 11 43  1  0
 12 30  1  0
 12 13  2  0
 13 14  1  0
 13 44  1  0
 14 15  1  0
 14 16  1  0
 16 30  2  0
 16 17  1  0
 17 18  2  0
 17 45  1  0
 18 19  1  0
 18 46  1  0
 19 20  2  0
 19 47  1  0
 20 21  1  0
 20 30  1  0
 21 22  1  0
 21 48  1  0
 22 23  1  0
 22 49  1  0
 22 50  1  0
 23 28  1  0
 23 24  2  0
 24 25  1  0
 24 51  1  0
 25 26  2  0
 25 52  1  0
 26 27  1  0
 26 53  1  0
 27 28  2  0
 27 54  1  0
 28 29  1  0
 29 55  1  0
 29 56  1  0
 31 32  1  0
 31 57  1  0
 31 58  1  0
 32 59  1  0
 32 60  1  0
M  CHG  1   8   1
M  END
>  <DOCK_score>  (1) 
-49.641918

>  <SMILES>  (1) 
CCCC=C1C=C([NH2+]Cc2c[nH]c3cccc(NCc4ccccc4N)c23)CC1

$$$$
