c1ccc(C(Sc2ccsc2)[C@H](Nc2[nH]c3ccccc3[nH+]2)c2ccccc2)cc1
     RDKit          3D

 52 56  0  0  1  0  0  0  0  0999 V2000
  134.4403  138.9618  159.5087 C   0  0  0  0  0  0  0  0  0  0  0  0
  134.3444  138.5990  160.8391 C   0  0  0  0  0  0  0  0  0  0  0  0
  133.1156  138.2666  161.3781 C   0  0  0  0  0  0  0  0  0  0  0  0
  131.9827  138.2971  160.5865 C   0  0  0  0  0  0  0  0  0  0  0  0
  130.6432  137.9344  161.1739 C   0  0  2  0  0  0  0  0  0  0  0  0
  130.6166  138.3707  162.9344 S   0  0  0  0  0  0  0  0  0  0  0  0
  130.3032  140.1044  162.9083 C   0  0  0  0  0  0  0  0  0  0  0  0
  129.1894  140.6726  163.5109 C   0  0  0  0  0  0  0  0  0  0  0  0
  129.1047  141.9990  163.3966 C   0  0  0  0  0  0  0  0  0  0  0  0
  130.4867  142.6059  162.4941 S   0  0  0  0  0  0  0  0  0  0  0  0
  131.1201  140.9760  162.3054 C   0  0  0  0  0  0  0  0  0  0  0  0
  130.4082  136.4305  161.0176 C   0  0  2  0  0  0  0  0  0  0  0  0
  130.9485  135.8953  161.7984 H   0  0  0  0  0  0  0  0  0  0  0  0
  130.8893  135.9950  159.7042 N   0  0  0  0  0  0  0  0  0  0  0  0
  130.7829  134.6745  159.3363 C   0  0  0  0  0  0  0  0  0  0  0  0
  130.2666  133.7107  160.0957 N   0  0  0  0  0  0  0  0  0  0  0  0
  129.9080  133.8240  160.9899 H   0  0  0  0  0  0  0  0  0  0  0  0
  130.3244  132.5322  159.3993 C   0  0  0  0  0  0  0  0  0  0  0  0
  129.9389  131.2254  159.6841 C   0  0  0  0  0  0  0  0  0  0  0  0
  130.1438  130.2321  158.7511 C   0  0  0  0  0  0  0  0  0  0  0  0
  130.7318  130.5251  157.5294 C   0  0  0  0  0  0  0  0  0  0  0  0
  131.1193  131.8135  157.2314 C   0  0  0  0  0  0  0  0  0  0  0  0
  130.9198  132.8287  158.1624 C   0  0  0  0  0  0  0  0  0  0  0  0
  131.1864  134.1727  158.1713 N   0  0  0  0  0  0  0  0  0  0  0  0
  131.5996  134.6736  157.4507 H   0  0  0  0  0  0  0  0  0  0  0  0
  128.9346  136.1375  161.1353 C   0  0  0  0  0  0  0  0  0  0  0  0
  128.3826  135.8553  162.3708 C   0  0  0  0  0  0  0  0  0  0  0  0
  127.0301  135.5905  162.4794 C   0  0  0  0  0  0  0  0  0  0  0  0
  126.2314  135.5995  161.3512 C   0  0  0  0  0  0  0  0  0  0  0  0
  126.7844  135.8763  160.1149 C   0  0  0  0  0  0  0  0  0  0  0  0
  128.1362  136.1451  160.0069 C   0  0  0  0  0  0  0  0  0  0  0  0
  132.0795  138.6548  159.2547 C   0  0  0  0  0  0  0  0  0  0  0  0
  133.3075  138.9922  158.7172 C   0  0  0  0  0  0  0  0  0  0  0  0
  135.4005  139.2211  159.0877 H   0  0  0  0  0  0  0  0  0  0  0  0
  135.2295  138.5749  161.4576 H   0  0  0  0  0  0  0  0  0  0  0  0
  133.0406  137.9829  162.4174 H   0  0  0  0  0  0  0  0  0  0  0  0
  129.8575  138.4809  160.6521 H   0  0  0  0  0  0  0  0  0  0  0  0
  128.4477  140.0857  164.0322 H   0  0  0  0  0  0  0  0  0  0  0  0
  128.3103  142.6084  163.8013 H   0  0  0  0  0  0  0  0  0  0  0  0
  132.0315  140.7186  161.7864 H   0  0  0  0  0  0  0  0  0  0  0  0
  131.2829  136.6382  159.0941 H   0  0  0  0  0  0  0  0  0  0  0  0
  129.4804  130.9906  160.6333 H   0  0  0  0  0  0  0  0  0  0  0  0
  129.8441  129.2184  158.9726 H   0  0  0  0  0  0  0  0  0  0  0  0
  130.8866  129.7378  156.8064 H   0  0  0  0  0  0  0  0  0  0  0  0
  131.5762  132.0349  156.2781 H   0  0  0  0  0  0  0  0  0  0  0  0
  129.0073  135.8451  163.2518 H   0  0  0  0  0  0  0  0  0  0  0  0
  126.5981  135.3738  163.4451 H   0  0  0  0  0  0  0  0  0  0  0  0
  125.1753  135.3899  161.4356 H   0  0  0  0  0  0  0  0  0  0  0  0
  126.1604  135.8830  159.2334 H   0  0  0  0  0  0  0  0  0  0  0  0
  128.5682  136.3613  159.0411 H   0  0  0  0  0  0  0  0  0  0  0  0
  131.1950  138.6743  158.6352 H   0  0  0  0  0  0  0  0  0  0  0  0
  133.3826  139.2753  157.6776 H   0  0  0  0  0  0  0  0  0  0  0  0
  1 33  2  0
  1  2  1  0
  1 34  1  0
  2  3  2  0
  2 35  1  0
  3  4  1  0
  3 36  1  0
  4  5  1  0
  4 32  2  0
  5  6  1  0
  5 12  1  0
  5 37  1  6
  6  7  1  0
  7 11  2  0
  7  8  1  0
  8  9  2  0
  8 38  1  0
  9 10  1  0
  9 39  1  0
 10 11  1  0
 11 40  1  0
 12 13  1  1
 12 14  1  0
 12 26  1  0
 14 15  1  0
 14 41  1  0
 15 24  1  0
 15 16  2  0
 16 17  1  0
 16 18  1  0
 18 23  2  0
 18 19  1  0
 19 20  2  0
 19 42  1  0
 20 21  1  0
 20 43  1  0
 21 22  2  0
 21 44  1  0
 22 23  1  0
 22 45  1  0
 23 24  1  0
 24 25  1  0
 26 31  1  0
 26 27  2  0
 27 28  1  0
 27 46  1  0
 28 29  2  0
 28 47  1  0
 29 30  1  0
 29 48  1  0
 30 31  2  0
 30 49  1  0
 31 50  1  0
 32 33  1  0
 32 51  1  0
 33 52  1  0
M  CHG  1  16   1
M  END
>  <DOCK_score>  (1) 
-57.091972

>  <SMILES>  (1) 
c1ccc(C(Sc2ccsc2)[C@H](Nc2[nH]c3ccccc3[nH+]2)c2ccccc2)cc1

$$$$
