Cc1cccc(N2CC[NH+](C(c3ccccc3)c3ccccc3N3CC(C)[C@@H](C)C3)CC2)c1CCl
     RDKit          3D

 74 78  0  0  1  0  0  0  0  0999 V2000
  135.5314  140.5904  163.5542 C   0  0  0  0  0  0  0  0  0  0  0  0
  135.0313  140.0618  162.2346 C   0  0  0  0  0  0  0  0  0  0  0  0
  135.4918  140.6105  161.0515 C   0  0  0  0  0  0  0  0  0  0  0  0
  135.0349  140.1292  159.8385 C   0  0  0  0  0  0  0  0  0  0  0  0
  134.1169  139.0976  159.8047 C   0  0  0  0  0  0  0  0  0  0  0  0
  133.6527  138.5441  160.9908 C   0  0  0  0  0  0  0  0  0  0  0  0
  132.7247  137.5005  160.9602 N   0  0  0  0  0  0  0  0  0  0  0  0
  133.2950  136.3071  160.3194 C   0  0  0  0  0  0  0  0  0  0  0  0
  132.2701  135.1714  160.3594 C   0  0  0  0  0  0  0  0  0  0  0  0
  131.0490  135.5888  159.6578 N   0  0  0  0  0  0  0  0  0  0  0  0
  131.2731  135.8192  158.7014 H   0  0  0  0  0  0  0  0  0  0  0  0
  130.0723  134.4918  159.6808 C   0  0  2  0  0  0  0  0  0  0  0  0
  130.6574  133.2836  158.9958 C   0  0  0  0  0  0  0  0  0  0  0  0
  130.4740  133.1028  157.6377 C   0  0  0  0  0  0  0  0  0  0  0  0
  131.0145  131.9969  157.0086 C   0  0  0  0  0  0  0  0  0  0  0  0
  131.7312  131.0673  157.7396 C   0  0  0  0  0  0  0  0  0  0  0  0
  131.9096  131.2454  159.0984 C   0  0  0  0  0  0  0  0  0  0  0  0
  131.3727  132.3536  159.7266 C   0  0  0  0  0  0  0  0  0  0  0  0
  128.8193  134.9195  158.9610 C   0  0  0  0  0  0  0  0  0  0  0  0
  128.8937  135.8304  157.9252 C   0  0  0  0  0  0  0  0  0  0  0  0
  127.7447  136.2228  157.2637 C   0  0  0  0  0  0  0  0  0  0  0  0
  126.5174  135.7051  157.6363 C   0  0  0  0  0  0  0  0  0  0  0  0
  126.4359  134.7946  158.6712 C   0  0  0  0  0  0  0  0  0  0  0  0
  127.5890  134.3941  159.3346 C   0  0  0  0  0  0  0  0  0  0  0  0
  127.5109  133.4689  160.3779 N   0  0  0  0  0  0  0  0  0  0  0  0
  126.5630  133.9274  161.4260 C   0  0  0  0  0  0  0  0  0  0  0  0
  126.1732  132.6421  162.1872 C   0  0  1  0  0  0  0  0  0  0  0  0
  124.6977  132.6889  162.5886 C   0  0  0  0  0  0  0  0  0  0  0  0
  126.4205  131.4936  161.1874 C   0  0  1  0  0  0  0  0  0  0  0  0
  127.1696  130.8055  161.5790 H   0  0  0  0  0  0  0  0  0  0  0  0
  125.1151  130.7491  160.9000 C   0  0  0  0  0  0  0  0  0  0  0  0
  126.9387  132.1816  159.9063 C   0  0  0  0  0  0  0  0  0  0  0  0
  130.4777  136.7666  160.3240 C   0  0  0  0  0  0  0  0  0  0  0  0
  131.4876  137.9155  160.2837 C   0  0  0  0  0  0  0  0  0  0  0  0
  134.1134  139.0304  162.2079 C   0  0  0  0  0  0  0  0  0  0  0  0
  133.6120  138.4334  163.4976 C   0  0  0  0  0  0  0  0  0  0  0  0
  134.6821  137.0659  163.9827 Cl  0  0  0  0  0  0  0  0  0  0  0  0
  134.8839  141.4003  163.8900 H   0  0  0  0  0  0  0  0  0  0  0  0
  135.5237  139.7890  164.2930 H   0  0  0  0  0  0  0  0  0  0  0  0
  136.5483  140.9640  163.4342 H   0  0  0  0  0  0  0  0  0  0  0  0
  136.2096  141.4171  161.0751 H   0  0  0  0  0  0  0  0  0  0  0  0
  135.3929  140.5632  158.9166 H   0  0  0  0  0  0  0  0  0  0  0  0
  133.7604  138.7221  158.8568 H   0  0  0  0  0  0  0  0  0  0  0  0
  133.5450  136.5351  159.2832 H   0  0  0  0  0  0  0  0  0  0  0  0
  134.1956  136.0032  160.8528 H   0  0  0  0  0  0  0  0  0  0  0  0
  132.0305  134.9346  161.3961 H   0  0  0  0  0  0  0  0  0  0  0  0
  132.6858  134.2897  159.8719 H   0  0  0  0  0  0  0  0  0  0  0  0
  129.8305  134.2421  160.7139 H   0  0  0  0  0  0  0  0  0  0  0  0
  129.9113  133.8271  157.0675 H   0  0  0  0  0  0  0  0  0  0  0  0
  130.8750  131.8577  155.9467 H   0  0  0  0  0  0  0  0  0  0  0  0
  132.1501  130.2015  157.2482 H   0  0  0  0  0  0  0  0  0  0  0  0
  132.4689  130.5192  159.6692 H   0  0  0  0  0  0  0  0  0  0  0  0
  131.5125  132.4928  160.7885 H   0  0  0  0  0  0  0  0  0  0  0  0
  129.8505  136.2362  157.6315 H   0  0  0  0  0  0  0  0  0  0  0  0
  127.8058  136.9347  156.4539 H   0  0  0  0  0  0  0  0  0  0  0  0
  125.6221  136.0132  157.1170 H   0  0  0  0  0  0  0  0  0  0  0  0
  125.4772  134.3907  158.9615 H   0  0  0  0  0  0  0  0  0  0  0  0
  127.0513  134.6336  162.0975 H   0  0  0  0  0  0  0  0  0  0  0  0
  125.6837  134.3829  160.9705 H   0  0  0  0  0  0  0  0  0  0  0  0
  126.8025  132.5186  163.0687 H   0  0  0  0  0  0  0  0  0  0  0  0
  124.0816  132.7995  161.6962 H   0  0  0  0  0  0  0  0  0  0  0  0
  124.4311  131.7649  163.1017 H   0  0  0  0  0  0  0  0  0  0  0  0
  124.5288  133.5356  163.2538 H   0  0  0  0  0  0  0  0  0  0  0  0
  124.3884  131.4410  160.4743 H   0  0  0  0  0  0  0  0  0  0  0  0
  125.3054  129.9417  160.1929 H   0  0  0  0  0  0  0  0  0  0  0  0
  124.7215  130.3343  161.8279 H   0  0  0  0  0  0  0  0  0  0  0  0
  126.1174  132.3621  159.2128 H   0  0  0  0  0  0  0  0  0  0  0  0
  127.7099  131.5734  159.4336 H   0  0  0  0  0  0  0  0  0  0  0  0
  130.2473  136.5215  161.3608 H   0  0  0  0  0  0  0  0  0  0  0  0
  129.5646  137.0673  159.8103 H   0  0  0  0  0  0  0  0  0  0  0  0
  131.0697  138.7851  160.7911 H   0  0  0  0  0  0  0  0  0  0  0  0
  131.7079  138.1700  159.2469 H   0  0  0  0  0  0  0  0  0  0  0  0
  133.6193  139.1949  164.2774 H   0  0  0  0  0  0  0  0  0  0  0  0
  132.5950  138.0669  163.3571 H   0  0  0  0  0  0  0  0  0  0  0  0
  1  2  1  0
  1 38  1  0
  1 39  1  0
  1 40  1  0
  2 35  2  0
  2  3  1  0
  3  4  2  0
  3 41  1  0
  4  5  1  0
  4 42  1  0
  5  6  2  0
  5 43  1  0
  6  7  1  0
  6 35  1  0
  7 34  1  0
  7  8  1  0
  8  9  1  0
  8 44  1  0
  8 45  1  0
  9 10  1  0
  9 46  1  0
  9 47  1  0
 10 11  1  0
 10 12  1  0
 10 33  1  0
 12 13  1  0
 12 19  1  0
 12 48  1  1
 13 18  1  0
 13 14  2  0
 14 15  1  0
 14 49  1  0
 15 16  2  0
 15 50  1  0
 16 17  1  0
 16 51  1  0
 17 18  2  0
 17 52  1  0
 18 53  1  0
 19 24  1  0
 19 20  2  0
 20 21  1  0
 20 54  1  0
 21 22  2  0
 21 55  1  0
 22 23  1  0
 22 56  1  0
 23 24  2  0
 23 57  1  0
 24 25  1  0
 25 32  1  0
 25 26  1  0
 26 27  1  0
 26 58  1  0
 26 59  1  0
 27 28  1  0
 27 29  1  0
 27 60  1  1
 28 61  1  0
 28 62  1  0
 28 63  1  0
 29 30  1  1
 29 31  1  0
 29 32  1  0
 31 64  1  0
 31 65  1  0
 31 66  1  0
 32 67  1  0
 32 68  1  0
 33 34  1  0
 33 69  1  0
 33 70  1  0
 34 71  1  0
 34 72  1  0
 35 36  1  0
 36 37  1  0
 36 73  1  0
 36 74  1  0
M  CHG  1  10   1
M  END
>  <DOCK_score>  (1) 
-61.147957

>  <SMILES>  (1) 
Cc1cccc(N2CC[NH+](C(c3ccccc3)c3ccccc3N3CC(C)[C@@H](C)C3)CC2)c1CCl

$$$$
