Nc1ccc(-c2c[nH]c(N[C@@H](Cc3ccncc3)c3ccccc3)[nH+]2)cc1
     RDKit          3D

 49 52  0  0  1  0  0  0  0  0999 V2000
  131.6805  129.7977  151.9838 N   0  0  0  0  0  0  0  0  0  0  0  0
  131.3741  130.4257  153.1934 C   0  0  0  0  0  0  0  0  0  0  0  0
  130.8898  131.7283  153.1956 C   0  0  0  0  0  0  0  0  0  0  0  0
  130.5867  132.3503  154.3884 C   0  0  0  0  0  0  0  0  0  0  0  0
  130.7663  131.6714  155.5927 C   0  0  0  0  0  0  0  0  0  0  0  0
  130.4409  132.3384  156.8772 C   0  0  0  0  0  0  0  0  0  0  0  0
  130.0100  131.7259  158.0076 C   0  0  0  0  0  0  0  0  0  0  0  0
  129.8313  132.7100  158.9509 N   0  0  0  0  0  0  0  0  0  0  0  0
  129.5282  132.5830  159.8634 H   0  0  0  0  0  0  0  0  0  0  0  0
  130.1588  133.8951  158.3678 C   0  0  0  0  0  0  0  0  0  0  0  0
  130.1151  135.1351  158.9818 N   0  0  0  0  0  0  0  0  0  0  0  0
  129.6878  135.2462  160.3787 C   0  0  1  0  0  0  0  0  0  0  0  0
  130.1037  134.4183  160.9528 H   0  0  0  0  0  0  0  0  0  0  0  0
  130.1854  136.5710  160.9604 C   0  0  0  0  0  0  0  0  0  0  0  0
  131.6358  136.4368  161.3465 C   0  0  0  0  0  0  0  0  0  0  0  0
  132.6419  136.7307  160.4389 C   0  0  0  0  0  0  0  0  0  0  0  0
  133.9611  136.6000  160.8301 C   0  0  0  0  0  0  0  0  0  0  0  0
  134.2666  136.1922  162.0463 N   0  0  0  0  0  0  0  0  0  0  0  0
  133.3362  135.8996  162.9338 C   0  0  0  0  0  0  0  0  0  0  0  0
  131.9960  136.0110  162.6159 C   0  0  0  0  0  0  0  0  0  0  0  0
  128.1831  135.2004  160.4488 C   0  0  0  0  0  0  0  0  0  0  0  0
  127.5588  134.6729  161.5636 C   0  0  0  0  0  0  0  0  0  0  0  0
  126.1785  134.6345  161.6296 C   0  0  0  0  0  0  0  0  0  0  0  0
  125.4226  135.1160  160.5771 C   0  0  0  0  0  0  0  0  0  0  0  0
  126.0470  135.6386  159.4600 C   0  0  0  0  0  0  0  0  0  0  0  0
  127.4272  135.6806  159.3956 C   0  0  0  0  0  0  0  0  0  0  0  0
  130.5171  133.6696  157.1272 N   0  0  0  0  0  0  0  0  0  0  0  0
  130.7946  134.3464  156.4902 H   0  0  0  0  0  0  0  0  0  0  0  0
  131.2574  130.3668  155.5883 C   0  0  0  0  0  0  0  0  0  0  0  0
  131.5533  129.7466  154.3928 C   0  0  0  0  0  0  0  0  0  0  0  0
  131.5550  130.2705  151.1463 H   0  0  0  0  0  0  0  0  0  0  0  0
  132.0181  128.8882  151.9814 H   0  0  0  0  0  0  0  0  0  0  0  0
  130.7511  132.2540  152.2626 H   0  0  0  0  0  0  0  0  0  0  0  0
  130.2102  133.3625  154.3896 H   0  0  0  0  0  0  0  0  0  0  0  0
  129.8394  130.6679  158.1412 H   0  0  0  0  0  0  0  0  0  0  0  0
  130.3674  135.9304  158.4870 H   0  0  0  0  0  0  0  0  0  0  0  0
  130.0793  137.3582  160.2139 H   0  0  0  0  0  0  0  0  0  0  0  0
  129.5966  136.8247  161.8419 H   0  0  0  0  0  0  0  0  0  0  0  0
  132.3980  137.0608  159.4400 H   0  0  0  0  0  0  0  0  0  0  0  0
  134.7506  136.8303  160.1301 H   0  0  0  0  0  0  0  0  0  0  0  0
  133.6251  135.5685  163.9205 H   0  0  0  0  0  0  0  0  0  0  0  0
  131.2386  135.7691  163.3468 H   0  0  0  0  0  0  0  0  0  0  0  0
  128.1494  134.2936  162.3844 H   0  0  0  0  0  0  0  0  0  0  0  0
  125.6908  134.2258  162.5022 H   0  0  0  0  0  0  0  0  0  0  0  0
  124.3443  135.0835  160.6274 H   0  0  0  0  0  0  0  0  0  0  0  0
  125.4564  136.0145  158.6376 H   0  0  0  0  0  0  0  0  0  0  0  0
  127.9150  136.0890  158.5229 H   0  0  0  0  0  0  0  0  0  0  0  0
  131.4015  129.8405  156.5204 H   0  0  0  0  0  0  0  0  0  0  0  0
  131.9296  128.7342  154.3887 H   0  0  0  0  0  0  0  0  0  0  0  0
  1  2  1  0
  1 31  1  0
  1 32  1  0
  2 30  2  0
  2  3  1  0
  3  4  2  0
  3 33  1  0
  4  5  1  0
  4 34  1  0
  5  6  1  0
  5 29  2  0
  6 27  1  0
  6  7  2  0
  7  8  1  0
  7 35  1  0
  8  9  1  0
  8 10  1  0
 10 11  1  0
 10 27  2  0
 11 12  1  0
 11 36  1  0
 12 13  1  1
 12 14  1  0
 12 21  1  0
 14 15  1  0
 14 37  1  0
 14 38  1  0
 15 20  1  0
 15 16  2  0
 16 17  1  0
 16 39  1  0
 17 18  2  0
 17 40  1  0
 18 19  1  0
 19 20  2  0
 19 41  1  0
 20 42  1  0
 21 26  1  0
 21 22  2  0
 22 23  1  0
 22 43  1  0
 23 24  2  0
 23 44  1  0
 24 25  1  0
 24 45  1  0
 25 26  2  0
 25 46  1  0
 26 47  1  0
 27 28  1  0
 29 30  1  0
 29 48  1  0
 30 49  1  0
M  CHG  1  27   1
M  END
>  <DOCK_score>  (1) 
-56.302773

>  <SMILES>  (1) 
Nc1ccc(-c2c[nH]c(N[C@@H](Cc3ccncc3)c3ccccc3)[nH+]2)cc1

$$$$
