F[C@@H](CNc1[nH]c2ccccc2[nH+]1)c1ccc(-c2cccc3ccccc23)cc1
     RDKit          3D

 50 54  0  0  1  0  0  0  0  0999 V2000
  128.7240  137.6146  159.5891 F   0  0  0  0  0  0  0  0  0  0  0  0
  129.5265  137.0298  160.5748 C   0  0  1  0  0  0  0  0  0  0  0  0
  129.1134  137.2523  161.5586 H   0  0  0  0  0  0  0  0  0  0  0  0
  129.5646  135.5143  160.3685 C   0  0  0  0  0  0  0  0  0  0  0  0
  130.1198  135.2154  159.0461 N   0  0  0  0  0  0  0  0  0  0  0  0
  130.2524  133.9099  158.6351 C   0  0  0  0  0  0  0  0  0  0  0  0
  130.7372  133.5274  157.4561 N   0  0  0  0  0  0  0  0  0  0  0  0
  131.0511  134.1178  156.7533 H   0  0  0  0  0  0  0  0  0  0  0  0
  130.7206  132.1583  157.4040 C   0  0  0  0  0  0  0  0  0  0  0  0
  131.1001  131.2265  156.4422 C   0  0  0  0  0  0  0  0  0  0  0  0
  130.9471  129.8804  156.6947 C   0  0  0  0  0  0  0  0  0  0  0  0
  130.4173  129.4469  157.9012 C   0  0  0  0  0  0  0  0  0  0  0  0
  130.0366  130.3561  158.8643 C   0  0  0  0  0  0  0  0  0  0  0  0
  130.1843  131.7194  158.6255 C   0  0  0  0  0  0  0  0  0  0  0  0
  129.9091  132.8451  159.3564 N   0  0  0  0  0  0  0  0  0  0  0  0
  129.5281  132.8631  160.2482 H   0  0  0  0  0  0  0  0  0  0  0  0
  130.9242  137.5851  160.4794 C   0  0  0  0  0  0  0  0  0  0  0  0
  131.2268  138.5270  159.5125 C   0  0  0  0  0  0  0  0  0  0  0  0
  132.5049  139.0391  159.4202 C   0  0  0  0  0  0  0  0  0  0  0  0
  133.4923  138.6051  160.3042 C   0  0  0  0  0  0  0  0  0  0  0  0
  134.8666  139.1505  160.2102 C   0  0  0  0  0  0  0  0  0  0  0  0
  135.6032  138.9930  159.0495 C   0  0  0  0  0  0  0  0  0  0  0  0
  136.8934  139.5020  158.9536 C   0  0  0  0  0  0  0  0  0  0  0  0
  137.4677  140.1670  159.9945 C   0  0  0  0  0  0  0  0  0  0  0  0
  136.7552  140.3493  161.1921 C   0  0  0  0  0  0  0  0  0  0  0  0
  137.3255  141.0310  162.2815 C   0  0  0  0  0  0  0  0  0  0  0  0
  136.6077  141.1903  163.4268 C   0  0  0  0  0  0  0  0  0  0  0  0
  135.3134  140.6862  163.5375 C   0  0  0  0  0  0  0  0  0  0  0  0
  134.7303  140.0202  162.5024 C   0  0  0  0  0  0  0  0  0  0  0  0
  135.4397  139.8374  161.3065 C   0  0  0  0  0  0  0  0  0  0  0  0
  133.1825  137.6514  161.2734 C   0  0  0  0  0  0  0  0  0  0  0  0
  131.8994  137.1509  161.3594 C   0  0  0  0  0  0  0  0  0  0  0  0
  130.1898  135.0587  161.1364 H   0  0  0  0  0  0  0  0  0  0  0  0
  128.5538  135.1126  160.4373 H   0  0  0  0  0  0  0  0  0  0  0  0
  130.3939  135.9383  158.4604 H   0  0  0  0  0  0  0  0  0  0  0  0
  131.5136  131.5574  155.5009 H   0  0  0  0  0  0  0  0  0  0  0  0
  131.2420  129.1579  155.9482 H   0  0  0  0  0  0  0  0  0  0  0  0
  130.3028  128.3892  158.0873 H   0  0  0  0  0  0  0  0  0  0  0  0
  129.6251  130.0119  159.8016 H   0  0  0  0  0  0  0  0  0  0  0  0
  130.4614  138.8621  158.8282 H   0  0  0  0  0  0  0  0  0  0  0  0
  132.7398  139.7746  158.6651 H   0  0  0  0  0  0  0  0  0  0  0  0
  135.1714  138.4696  158.2093 H   0  0  0  0  0  0  0  0  0  0  0  0
  137.4498  139.3680  158.0377 H   0  0  0  0  0  0  0  0  0  0  0  0
  138.4728  140.5507  159.9009 H   0  0  0  0  0  0  0  0  0  0  0  0
  138.3278  141.4266  162.2096 H   0  0  0  0  0  0  0  0  0  0  0  0
  137.0477  141.7146  164.2622 H   0  0  0  0  0  0  0  0  0  0  0  0
  134.7647  140.8257  164.4572 H   0  0  0  0  0  0  0  0  0  0  0  0
  133.7264  139.6344  162.6022 H   0  0  0  0  0  0  0  0  0  0  0  0
  133.9441  137.3082  161.9578 H   0  0  0  0  0  0  0  0  0  0  0  0
  131.6570  136.4159  162.1127 H   0  0  0  0  0  0  0  0  0  0  0  0
  1  2  1  0
  2  3  1  1
  2  4  1  0
  2 17  1  0
  4  5  1  0
  4 33  1  0
  4 34  1  0
  5  6  1  0
  5 35  1  0
  6 15  1  0
  6  7  2  0
  7  8  1  0
  7  9  1  0
  9 14  2  0
  9 10  1  0
 10 11  2  0
 10 36  1  0
 11 12  1  0
 11 37  1  0
 12 13  2  0
 12 38  1  0
 13 14  1  0
 13 39  1  0
 14 15  1  0
 15 16  1  0
 17 32  1  0
 17 18  2  0
 18 19  1  0
 18 40  1  0
 19 20  2  0
 19 41  1  0
 20 21  1  0
 20 31  1  0
 21 30  1  0
 21 22  2  0
 22 23  1  0
 22 42  1  0
 23 24  2  0
 23 43  1  0
 24 25  1  0
 24 44  1  0
 25 30  2  0
 25 26  1  0
 26 27  2  0
 26 45  1  0
 27 28  1  0
 27 46  1  0
 28 29  2  0
 28 47  1  0
 29 30  1  0
 29 48  1  0
 31 32  2  0
 31 49  1  0
 32 50  1  0
M  CHG  1   7   1
M  END
>  <DOCK_score>  (1) 
-56.62664

>  <SMILES>  (1) 
F[C@@H](CNc1[nH]c2ccccc2[nH+]1)c1ccc(-c2cccc3ccccc23)cc1

$$$$
