Cc1cccc(N2CC[NH+]([C@@H](c3ccccc3)c3ccccc3Br)CC2)c1C
     RDKit          3D

 56 59  0  0  1  0  0  0  0  0999 V2000
  135.9236  141.1450  162.7813 C   0  0  0  0  0  0  0  0  0  0  0  0
  135.3581  140.4397  161.5757 C   0  0  0  0  0  0  0  0  0  0  0  0
  135.7573  140.8147  160.3057 C   0  0  0  0  0  0  0  0  0  0  0  0
  135.2407  140.1705  159.1968 C   0  0  0  0  0  0  0  0  0  0  0  0
  134.3241  139.1493  159.3540 C   0  0  0  0  0  0  0  0  0  0  0  0
  133.9210  138.7702  160.6279 C   0  0  0  0  0  0  0  0  0  0  0  0
  132.9939  137.7383  160.7905 N   0  0  0  0  0  0  0  0  0  0  0  0
  131.6964  138.0982  160.2013 C   0  0  0  0  0  0  0  0  0  0  0  0
  130.6946  136.9690  160.4525 C   0  0  0  0  0  0  0  0  0  0  0  0
  131.1967  135.7261  159.8518 N   0  0  0  0  0  0  0  0  0  0  0  0
  131.3257  135.8603  158.8601 H   0  0  0  0  0  0  0  0  0  0  0  0
  130.2263  134.6466  160.0776 C   0  0  1  0  0  0  0  0  0  0  0  0
  130.0865  134.5019  161.1489 H   0  0  0  0  0  0  0  0  0  0  0  0
  128.9092  135.0146  159.4444 C   0  0  0  0  0  0  0  0  0  0  0  0
  127.7272  134.5426  159.9838 C   0  0  0  0  0  0  0  0  0  0  0  0
  126.5188  134.8837  159.4055 C   0  0  0  0  0  0  0  0  0  0  0  0
  126.4930  135.6888  158.2821 C   0  0  0  0  0  0  0  0  0  0  0  0
  127.6753  136.1567  157.7398 C   0  0  0  0  0  0  0  0  0  0  0  0
  128.8834  135.8194  158.3208 C   0  0  0  0  0  0  0  0  0  0  0  0
  130.7412  133.3714  159.4614 C   0  0  0  0  0  0  0  0  0  0  0  0
  130.9955  133.3131  158.1039 C   0  0  0  0  0  0  0  0  0  0  0  0
  131.4727  132.1451  157.5394 C   0  0  0  0  0  0  0  0  0  0  0  0
  131.6850  131.0310  158.3303 C   0  0  0  0  0  0  0  0  0  0  0  0
  131.4259  131.0868  159.6866 C   0  0  0  0  0  0  0  0  0  0  0  0
  130.9537  132.2574  160.2530 C   0  0  0  0  0  0  0  0  0  0  0  0
  130.5985  132.3340  162.1087 Br  0  0  0  0  0  0  0  0  0  0  0  0
  132.4807  135.3667  160.4681 C   0  0  0  0  0  0  0  0  0  0  0  0
  133.4974  136.4824  160.2166 C   0  0  0  0  0  0  0  0  0  0  0  0
  134.4378  139.4234  161.7398 C   0  0  0  0  0  0  0  0  0  0  0  0
  133.9988  139.0196  163.1238 C   0  0  0  0  0  0  0  0  0  0  0  0
  135.2927  141.9977  163.0325 H   0  0  0  0  0  0  0  0  0  0  0  0
  135.9545  140.4550  163.6246 H   0  0  0  0  0  0  0  0  0  0  0  0
  136.9325  141.4925  162.5591 H   0  0  0  0  0  0  0  0  0  0  0  0
  136.4740  141.6129  160.1799 H   0  0  0  0  0  0  0  0  0  0  0  0
  135.5546  140.4658  158.2065 H   0  0  0  0  0  0  0  0  0  0  0  0
  133.9209  138.6465  158.4873 H   0  0  0  0  0  0  0  0  0  0  0  0
  131.8136  138.2483  159.1280 H   0  0  0  0  0  0  0  0  0  0  0  0
  131.3311  139.0171  160.6597 H   0  0  0  0  0  0  0  0  0  0  0  0
  129.7356  137.2277  160.0038 H   0  0  0  0  0  0  0  0  0  0  0  0
  130.5675  136.8282  161.5259 H   0  0  0  0  0  0  0  0  0  0  0  0
  127.7477  133.9102  160.8590 H   0  0  0  0  0  0  0  0  0  0  0  0
  125.5951  134.5183  159.8293 H   0  0  0  0  0  0  0  0  0  0  0  0
  125.5491  135.9524  157.8283 H   0  0  0  0  0  0  0  0  0  0  0  0
  127.6551  136.7859  156.8622 H   0  0  0  0  0  0  0  0  0  0  0  0
  129.8072  136.1847  157.8969 H   0  0  0  0  0  0  0  0  0  0  0  0
  130.8254  134.1817  157.4848 H   0  0  0  0  0  0  0  0  0  0  0  0
  131.6756  132.1014  156.4795 H   0  0  0  0  0  0  0  0  0  0  0  0
  132.0536  130.1173  157.8880 H   0  0  0  0  0  0  0  0  0  0  0  0
  131.5917  130.2165  160.3043 H   0  0  0  0  0  0  0  0  0  0  0  0
  132.3442  135.2343  161.5414 H   0  0  0  0  0  0  0  0  0  0  0  0
  132.8459  134.4373  160.0310 H   0  0  0  0  0  0  0  0  0  0  0  0
  133.6442  136.6060  159.1437 H   0  0  0  0  0  0  0  0  0  0  0  0
  134.4463  136.2227  160.6860 H   0  0  0  0  0  0  0  0  0  0  0  0
  134.6602  138.2400  163.5017 H   0  0  0  0  0  0  0  0  0  0  0  0
  134.0417  139.8847  163.7854 H   0  0  0  0  0  0  0  0  0  0  0  0
  132.9770  138.6421  163.0851 H   0  0  0  0  0  0  0  0  0  0  0  0
  1  2  1  0
  1 31  1  0
  1 32  1  0
  1 33  1  0
  2 29  2  0
  2  3  1  0
  3  4  2  0
  3 34  1  0
  4  5  1  0
  4 35  1  0
  5  6  2  0
  5 36  1  0
  6  7  1  0
  6 29  1  0
  7 28  1  0
  7  8  1  0
  8  9  1  0
  8 37  1  0
  8 38  1  0
  9 10  1  0
  9 39  1  0
  9 40  1  0
 10 11  1  0
 10 12  1  0
 10 27  1  0
 12 13  1  1
 12 14  1  0
 12 20  1  0
 14 19  1  0
 14 15  2  0
 15 16  1  0
 15 41  1  0
 16 17  2  0
 16 42  1  0
 17 18  1  0
 17 43  1  0
 18 19  2  0
 18 44  1  0
 19 45  1  0
 20 25  1  0
 20 21  2  0
 21 22  1  0
 21 46  1  0
 22 23  2  0
 22 47  1  0
 23 24  1  0
 23 48  1  0
 24 25  2  0
 24 49  1  0
 25 26  1  0
 27 28  1  0
 27 50  1  0
 27 51  1  0
 28 52  1  0
 28 53  1  0
 29 30  1  0
 30 54  1  0
 30 55  1  0
 30 56  1  0
M  CHG  1  10   1
M  END
>  <DOCK_score>  (1) 
-57.521202

>  <SMILES>  (1) 
Cc1cccc(N2CC[NH+]([C@@H](c3ccccc3)c3ccccc3Br)CC2)c1C

$$$$
