Cc1ccc(CSc2cccc(C3=CC[N@H+](Cc4cccc5ccccc45)CC3)c2C)cc1
     RDKit          3D

 65 69  0  0  1  0  0  0  0  0999 V2000
  128.5958  142.2609  164.1721 C   0  0  0  0  0  0  0  0  0  0  0  0
  130.0564  141.9160  164.3089 C   0  0  0  0  0  0  0  0  0  0  0  0
  130.5972  141.6819  165.5593 C   0  0  0  0  0  0  0  0  0  0  0  0
  131.9380  141.3703  165.6852 C   0  0  0  0  0  0  0  0  0  0  0  0
  132.7357  141.2823  164.5598 C   0  0  0  0  0  0  0  0  0  0  0  0
  134.1963  140.9366  164.6964 C   0  0  0  0  0  0  0  0  0  0  0  0
  134.4018  139.1363  164.6115 S   0  0  0  0  0  0  0  0  0  0  0  0
  134.3329  138.8106  162.8812 C   0  0  0  0  0  0  0  0  0  0  0  0
  135.2642  139.3908  162.0265 C   0  0  0  0  0  0  0  0  0  0  0  0
  135.2142  139.1379  160.6692 C   0  0  0  0  0  0  0  0  0  0  0  0
  134.2397  138.3076  160.1523 C   0  0  0  0  0  0  0  0  0  0  0  0
  133.2998  137.7212  161.0012 C   0  0  0  0  0  0  0  0  0  0  0  0
  132.2556  136.8319  160.4498 C   0  0  0  0  0  0  0  0  0  0  0  0
  131.1093  137.3569  160.0742 C   0  0  0  0  0  0  0  0  0  0  0  0
  129.9856  136.5409  159.5035 C   0  0  0  0  0  0  0  0  0  0  0  0
  130.4792  135.2369  159.0456 N   0  0  2  0  0  0  0  0  0  0  0  0
  131.0873  135.3662  158.2509 H   0  0  0  0  0  0  0  0  0  0  0  0
  129.3428  134.3873  158.6647 C   0  0  0  0  0  0  0  0  0  0  0  0
  129.8232  133.2815  157.7607 C   0  0  0  0  0  0  0  0  0  0  0  0
  129.8405  133.4599  156.4113 C   0  0  0  0  0  0  0  0  0  0  0  0
  130.2868  132.4512  155.5599 C   0  0  0  0  0  0  0  0  0  0  0  0
  130.7076  131.2540  156.0520 C   0  0  0  0  0  0  0  0  0  0  0  0
  130.6987  131.0308  157.4392 C   0  0  0  0  0  0  0  0  0  0  0  0
  131.1253  129.8075  157.9842 C   0  0  0  0  0  0  0  0  0  0  0  0
  131.1023  129.6269  159.3329 C   0  0  0  0  0  0  0  0  0  0  0  0
  130.6613  130.6379  160.1849 C   0  0  0  0  0  0  0  0  0  0  0  0
  130.2409  131.8352  159.6932 C   0  0  0  0  0  0  0  0  0  0  0  0
  130.2502  132.0589  158.3057 C   0  0  0  0  0  0  0  0  0  0  0  0
  131.2273  134.5973  160.1395 C   0  0  0  0  0  0  0  0  0  0  0  0
  132.5394  135.3588  160.3442 C   0  0  0  0  0  0  0  0  0  0  0  0
  133.3534  137.9708  162.3718 C   0  0  0  0  0  0  0  0  0  0  0  0
  132.3470  137.3353  163.2961 C   0  0  0  0  0  0  0  0  0  0  0  0
  132.1939  141.5113  163.3088 C   0  0  0  0  0  0  0  0  0  0  0  0
  130.8541  141.8280  163.1834 C   0  0  0  0  0  0  0  0  0  0  0  0
  128.0156  141.3455  164.0555 H   0  0  0  0  0  0  0  0  0  0  0  0
  128.2625  142.7911  165.0642 H   0  0  0  0  0  0  0  0  0  0  0  0
  128.4527  142.8956  163.2976 H   0  0  0  0  0  0  0  0  0  0  0  0
  129.9729  141.7463  166.4383 H   0  0  0  0  0  0  0  0  0  0  0  0
  132.3614  141.1912  166.6625 H   0  0  0  0  0  0  0  0  0  0  0  0
  134.7577  141.4049  163.8881 H   0  0  0  0  0  0  0  0  0  0  0  0
  134.5675  141.2998  165.6547 H   0  0  0  0  0  0  0  0  0  0  0  0
  136.0290  140.0408  162.4252 H   0  0  0  0  0  0  0  0  0  0  0  0
  135.9400  139.5908  160.0102 H   0  0  0  0  0  0  0  0  0  0  0  0
  134.2043  138.1122  159.0907 H   0  0  0  0  0  0  0  0  0  0  0  0
  130.9718  138.4230  160.1774 H   0  0  0  0  0  0  0  0  0  0  0  0
  129.5411  137.0736  158.6626 H   0  0  0  0  0  0  0  0  0  0  0  0
  129.2300  136.3901  160.2744 H   0  0  0  0  0  0  0  0  0  0  0  0
  128.8954  133.9560  159.5602 H   0  0  0  0  0  0  0  0  0  0  0  0
  128.5996  134.9882  158.1406 H   0  0  0  0  0  0  0  0  0  0  0  0
  129.5072  134.3989  155.9945 H   0  0  0  0  0  0  0  0  0  0  0  0
  130.2943  132.6201  154.4931 H   0  0  0  0  0  0  0  0  0  0  0  0
  131.0465  130.4795  155.3797 H   0  0  0  0  0  0  0  0  0  0  0  0
  131.4700  129.0153  157.3363 H   0  0  0  0  0  0  0  0  0  0  0  0
  131.4310  128.6861  159.7493 H   0  0  0  0  0  0  0  0  0  0  0  0
  130.6534  130.4687  161.2516 H   0  0  0  0  0  0  0  0  0  0  0  0
  129.9019  132.6093  160.3656 H   0  0  0  0  0  0  0  0  0  0  0  0
  131.4425  133.5611  159.8785 H   0  0  0  0  0  0  0  0  0  0  0  0
  130.6389  134.6291  161.0564 H   0  0  0  0  0  0  0  0  0  0  0  0
  133.2011  135.1764  159.4973 H   0  0  0  0  0  0  0  0  0  0  0  0
  133.0193  135.0149  161.2605 H   0  0  0  0  0  0  0  0  0  0  0  0
  131.4792  137.9878  163.3924 H   0  0  0  0  0  0  0  0  0  0  0  0
  132.0350  136.3740  162.8876 H   0  0  0  0  0  0  0  0  0  0  0  0
  132.7986  137.1841  164.2764 H   0  0  0  0  0  0  0  0  0  0  0  0
  132.8170  141.4423  162.4295 H   0  0  0  0  0  0  0  0  0  0  0  0
  130.4307  142.0065  162.2061 H   0  0  0  0  0  0  0  0  0  0  0  0
  1  2  1  0
  1 35  1  0
  1 36  1  0
  1 37  1  0
  2 34  2  0
  2  3  1  0
  3  4  2  0
  3 38  1  0
  4  5  1  0
  4 39  1  0
  5  6  1  0
  5 33  2  0
  6  7  1  0
  6 40  1  0
  6 41  1  0
  7  8  1  0
  8 31  1  0
  8  9  2  0
  9 10  1  0
  9 42  1  0
 10 11  2  0
 10 43  1  0
 11 12  1  0
 11 44  1  0
 12 13  1  0
 12 31  2  0
 13 30  1  0
 13 14  2  0
 14 15  1  0
 14 45  1  0
 15 16  1  0
 15 46  1  0
 15 47  1  0
 16 17  1  6
 16 18  1  0
 16 29  1  0
 18 19  1  0
 18 48  1  0
 18 49  1  0
 19 28  1  0
 19 20  2  0
 20 21  1  0
 20 50  1  0
 21 22  2  0
 21 51  1  0
 22 23  1  0
 22 52  1  0
 23 28  2  0
 23 24  1  0
 24 25  2  0
 24 53  1  0
 25 26  1  0
 25 54  1  0
 26 27  2  0
 26 55  1  0
 27 28  1  0
 27 56  1  0
 29 30  1  0
 29 57  1  0
 29 58  1  0
 30 59  1  0
 30 60  1  0
 31 32  1  0
 32 61  1  0
 32 62  1  0
 32 63  1  0
 33 34  1  0
 33 64  1  0
 34 65  1  0
M  CHG  1  16   1
M  END
>  <DOCK_score>  (1) 
-56.011303

>  <SMILES>  (1) 
Cc1ccc(CSc2cccc(C3=CC[N@H+](Cc4cccc5ccccc45)CC3)c2C)cc1

$$$$
