FC1(F)C[C@H]1CNc1cc(NC2=CCCC2)c(Cl)c(Nc2[nH]c3ccccc3[nH+]2)c1
     RDKit          3D

 53 57  0  0  1  0  0  0  0  0999 V2000
  125.6336  131.4562  160.6673 F   0  0  0  0  0  0  0  0  0  0  0  0
  124.5667  132.2305  161.1358 C   0  0  0  0  0  0  0  0  0  0  0  0
  123.2910  131.7751  160.7857 F   0  0  0  0  0  0  0  0  0  0  0  0
  124.7271  132.9017  162.5013 C   0  0  0  0  0  0  0  0  0  0  0  0
  124.7771  133.7433  161.2246 C   0  0  1  0  0  0  0  0  0  0  0  0
  123.9216  134.3839  161.0101 H   0  0  0  0  0  0  0  0  0  0  0  0
  126.1382  134.2936  160.7941 C   0  0  0  0  0  0  0  0  0  0  0  0
  126.3322  135.6250  161.3738 N   0  0  0  0  0  0  0  0  0  0  0  0
  127.5098  136.3328  161.1199 C   0  0  0  0  0  0  0  0  0  0  0  0
  127.6911  137.5969  161.6648 C   0  0  0  0  0  0  0  0  0  0  0  0
  128.8633  138.2983  161.4165 C   0  0  0  0  0  0  0  0  0  0  0  0
  129.0481  139.5684  161.9698 N   0  0  0  0  0  0  0  0  0  0  0  0
  129.0358  139.7339  163.3495 C   0  0  0  0  0  0  0  0  0  0  0  0
  129.1947  140.8866  163.9641 C   0  0  0  0  0  0  0  0  0  0  0  0
  129.1263  140.7128  165.4634 C   0  0  0  0  0  0  0  0  0  0  0  0
  129.3184  139.1963  165.6940 C   0  0  0  0  0  0  0  0  0  0  0  0
  128.8314  138.6154  164.3447 C   0  0  0  0  0  0  0  0  0  0  0  0
  129.8503  137.7395  160.6143 C   0  0  0  0  0  0  0  0  0  0  0  0
  131.3131  138.6190  160.2979 Cl  0  0  0  0  0  0  0  0  0  0  0  0
  129.6662  136.4774  160.0655 C   0  0  0  0  0  0  0  0  0  0  0  0
  130.6597  135.9146  159.2571 N   0  0  0  0  0  0  0  0  0  0  0  0
  130.8192  134.5482  159.2135 C   0  0  0  0  0  0  0  0  0  0  0  0
  131.2604  133.8651  158.1594 N   0  0  0  0  0  0  0  0  0  0  0  0
  131.5198  134.2453  157.3056 H   0  0  0  0  0  0  0  0  0  0  0  0
  131.2894  132.5351  158.4859 C   0  0  0  0  0  0  0  0  0  0  0  0
  131.6556  131.3823  157.7972 C   0  0  0  0  0  0  0  0  0  0  0  0
  131.5626  130.1553  158.4175 C   0  0  0  0  0  0  0  0  0  0  0  0
  131.1073  130.0604  159.7245 C   0  0  0  0  0  0  0  0  0  0  0  0
  130.7411  131.1917  160.4208 C   0  0  0  0  0  0  0  0  0  0  0  0
  130.8284  132.4391  159.8092 C   0  0  0  0  0  0  0  0  0  0  0  0
  130.5490  133.7166  160.2175 N   0  0  0  0  0  0  0  0  0  0  0  0
  130.2115  133.9719  161.0903 H   0  0  0  0  0  0  0  0  0  0  0  0
  128.4960  135.7743  160.3184 C   0  0  0  0  0  0  0  0  0  0  0  0
  123.8387  132.9887  163.1269 H   0  0  0  0  0  0  0  0  0  0  0  0
  125.6638  132.7401  163.0347 H   0  0  0  0  0  0  0  0  0  0  0  0
  126.9266  133.6270  161.1433 H   0  0  0  0  0  0  0  0  0  0  0  0
  126.1753  134.3619  159.7069 H   0  0  0  0  0  0  0  0  0  0  0  0
  125.6429  136.0153  161.9338 H   0  0  0  0  0  0  0  0  0  0  0  0
  126.9219  138.0329  162.2850 H   0  0  0  0  0  0  0  0  0  0  0  0
  129.1852  140.3344  161.3907 H   0  0  0  0  0  0  0  0  0  0  0  0
  129.3534  141.8305  163.4636 H   0  0  0  0  0  0  0  0  0  0  0  0
  129.9254  141.2744  165.9474 H   0  0  0  0  0  0  0  0  0  0  0  0
  128.1547  141.0337  165.8387 H   0  0  0  0  0  0  0  0  0  0  0  0
  130.3671  138.9575  165.8706 H   0  0  0  0  0  0  0  0  0  0  0  0
  128.6953  138.8438  166.5160 H   0  0  0  0  0  0  0  0  0  0  0  0
  127.7765  138.3472  164.4028 H   0  0  0  0  0  0  0  0  0  0  0  0
  129.4299  137.7474  164.0683 H   0  0  0  0  0  0  0  0  0  0  0  0
  131.2362  136.4872  158.7274 H   0  0  0  0  0  0  0  0  0  0  0  0
  132.0112  131.4491  156.7797 H   0  0  0  0  0  0  0  0  0  0  0  0
  131.8465  129.2611  157.8824 H   0  0  0  0  0  0  0  0  0  0  0  0
  131.0389  129.0929  160.1995 H   0  0  0  0  0  0  0  0  0  0  0  0
  130.3871  131.1109  161.4379 H   0  0  0  0  0  0  0  0  0  0  0  0
  128.3530  134.7926  159.8916 H   0  0  0  0  0  0  0  0  0  0  0  0
  1  2  1  0
  2  5  1  0
  2  3  1  0
  2  4  1  0
  4  5  1  0
  4 34  1  0
  4 35  1  0
  5  6  1  1
  5  7  1  0
  7  8  1  0
  7 36  1  0
  7 37  1  0
  8  9  1  0
  8 38  1  0
  9 33  1  0
  9 10  2  0
 10 11  1  0
 10 39  1  0
 11 12  1  0
 11 18  2  0
 12 13  1  0
 12 40  1  0
 13 17  1  0
 13 14  2  0
 14 15  1  0
 14 41  1  0
 15 16  1  0
 15 42  1  0
 15 43  1  0
 16 17  1  0
 16 44  1  0
 16 45  1  0
 17 46  1  0
 17 47  1  0
 18 19  1  0
 18 20  1  0
 20 21  1  0
 20 33  2  0
 21 22  1  0
 21 48  1  0
 22 31  1  0
 22 23  2  0
 23 24  1  0
 23 25  1  0
 25 30  2  0
 25 26  1  0
 26 27  2  0
 26 49  1  0
 27 28  1  0
 27 50  1  0
 28 29  2  0
 28 51  1  0
 29 30  1  0
 29 52  1  0
 30 31  1  0
 31 32  1  0
 33 53  1  0
M  CHG  1  23   1
M  END
>  <DOCK_score>  (1) 
-49.389771

>  <SMILES>  (1) 
FC1(F)C[C@H]1CNc1cc(NC2=CCCC2)c(Cl)c(Nc2[nH]c3ccccc3[nH+]2)c1

$$$$
