O=C1CCC(NC(NC2CCc3ccccc3C2)=[NH+][C@H]2COc3cc(Cl)ccc3C2)CN1
     RDKit          3D

 62 66  0  0  1  0  0  0  0  0999 V2000
  124.5697  136.2017  164.6668 O   0  0  0  0  0  0  0  0  0  0  0  0
  125.6929  136.1207  164.2169 C   0  0  0  0  0  0  0  0  0  0  0  0
  126.8019  135.7115  165.1431 C   0  0  0  0  0  0  0  0  0  0  0  0
  128.1550  136.0841  164.5321 C   0  0  0  0  0  0  0  0  0  0  0  0
  128.1866  135.5840  163.0829 C   0  0  2  0  0  0  0  0  0  0  0  0
  129.5293  135.7710  162.5274 N   0  0  0  0  0  0  0  0  0  0  0  0
  129.7966  135.3925  161.2331 C   0  0  0  0  0  0  0  0  0  0  0  0
  130.7514  136.0616  160.5044 N   0  0  0  0  0  0  0  0  0  0  0  0
  131.4839  137.1780  161.1073 C   0  0  2  0  0  0  0  0  0  0  0  0
  130.5023  138.2898  161.4961 C   0  0  0  0  0  0  0  0  0  0  0  0
  131.2532  139.3249  162.3313 C   0  0  0  0  0  0  0  0  0  0  0  0
  132.5153  139.7558  161.6311 C   0  0  0  0  0  0  0  0  0  0  0  0
  133.1183  140.9343  162.0521 C   0  0  0  0  0  0  0  0  0  0  0  0
  134.2828  141.3764  161.4596 C   0  0  0  0  0  0  0  0  0  0  0  0
  134.8548  140.6416  160.4374 C   0  0  0  0  0  0  0  0  0  0  0  0
  134.2556  139.4731  160.0157 C   0  0  0  0  0  0  0  0  0  0  0  0
  133.0823  139.0269  160.6102 C   0  0  0  0  0  0  0  0  0  0  0  0
  132.4792  137.7454  160.0971 C   0  0  0  0  0  0  0  0  0  0  0  0
  129.1448  134.3995  160.6967 N   0  0  0  0  0  0  0  0  0  0  0  0
  128.2359  134.2083  160.9764 H   0  0  0  0  0  0  0  0  0  0  0  0
  129.7849  133.5717  159.6714 C   0  0  1  0  0  0  0  0  0  0  0  0
  130.8611  133.5417  159.8417 H   0  0  0  0  0  0  0  0  0  0  0  0
  129.2132  132.1490  159.7240 C   0  0  0  0  0  0  0  0  0  0  0  0
  129.9274  131.3417  158.7870 O   0  0  0  0  0  0  0  0  0  0  0  0
  130.0839  131.8207  157.5255 C   0  0  0  0  0  0  0  0  0  0  0  0
  130.4451  130.9317  156.5182 C   0  0  0  0  0  0  0  0  0  0  0  0
  130.6175  131.3789  155.2257 C   0  0  0  0  0  0  0  0  0  0  0  0
  131.0681  130.2647  153.9731 Cl  0  0  0  0  0  0  0  0  0  0  0  0
  130.4310  132.7177  154.9281 C   0  0  0  0  0  0  0  0  0  0  0  0
  130.0709  133.6024  155.9252 C   0  0  0  0  0  0  0  0  0  0  0  0
  129.8950  133.1574  157.2251 C   0  0  0  0  0  0  0  0  0  0  0  0
  129.4979  134.1536  158.2849 C   0  0  0  0  0  0  0  0  0  0  0  0
  127.1763  136.3895  162.2649 C   0  0  0  0  0  0  0  0  0  0  0  0
  125.8773  136.4002  162.9260 N   0  0  0  0  0  0  0  0  0  0  0  0
  126.7611  134.6340  165.3028 H   0  0  0  0  0  0  0  0  0  0  0  0
  126.6823  136.2239  166.0978 H   0  0  0  0  0  0  0  0  0  0  0  0
  128.9567  135.6125  165.1006 H   0  0  0  0  0  0  0  0  0  0  0  0
  128.2799  137.1667  164.5497 H   0  0  0  0  0  0  0  0  0  0  0  0
  127.9233  134.5266  163.0549 H   0  0  0  0  0  0  0  0  0  0  0  0
  130.2297  136.1618  163.0730 H   0  0  0  0  0  0  0  0  0  0  0  0
  130.9400  135.7946  159.5913 H   0  0  0  0  0  0  0  0  0  0  0  0
  132.0168  136.8317  161.9929 H   0  0  0  0  0  0  0  0  0  0  0  0
  130.1064  138.7610  160.5964 H   0  0  0  0  0  0  0  0  0  0  0  0
  129.6844  137.8693  162.0812 H   0  0  0  0  0  0  0  0  0  0  0  0
  131.5087  138.8900  163.2976 H   0  0  0  0  0  0  0  0  0  0  0  0
  130.6134  140.1937  162.4860 H   0  0  0  0  0  0  0  0  0  0  0  0
  132.6717  141.5091  162.8500 H   0  0  0  0  0  0  0  0  0  0  0  0
  134.7464  142.2930  161.7931 H   0  0  0  0  0  0  0  0  0  0  0  0
  135.7673  140.9819  159.9706 H   0  0  0  0  0  0  0  0  0  0  0  0
  134.7027  138.9002  159.2168 H   0  0  0  0  0  0  0  0  0  0  0  0
  133.2726  137.0178  159.9267 H   0  0  0  0  0  0  0  0  0  0  0  0
  131.9641  137.9424  159.1570 H   0  0  0  0  0  0  0  0  0  0  0  0
  129.3348  131.7414  160.7276 H   0  0  0  0  0  0  0  0  0  0  0  0
  128.1555  132.1685  159.4614 H   0  0  0  0  0  0  0  0  0  0  0  0
  130.5912  129.8868  156.7492 H   0  0  0  0  0  0  0  0  0  0  0  0
  130.5667  133.0702  153.9162 H   0  0  0  0  0  0  0  0  0  0  0  0
  129.9259  134.6466  155.6905 H   0  0  0  0  0  0  0  0  0  0  0  0
  128.4337  134.3724  158.1966 H   0  0  0  0  0  0  0  0  0  0  0  0
  130.0694  135.0721  158.1517 H   0  0  0  0  0  0  0  0  0  0  0  0
  127.5342  137.4135  162.1576 H   0  0  0  0  0  0  0  0  0  0  0  0
  127.0738  135.9414  161.2765 H   0  0  0  0  0  0  0  0  0  0  0  0
  125.0981  136.6245  162.3937 H   0  0  0  0  0  0  0  0  0  0  0  0
  1  2  2  0
  2 34  1  0
  2  3  1  0
  3  4  1  0
  3 35  1  0
  3 36  1  0
  4  5  1  0
  4 37  1  0
  4 38  1  0
  5  6  1  0
  5 33  1  0
  5 39  1  1
  6 40  1  0
  7  6  1  0
  7  8  1  0
  7 19  2  0
  8  9  1  0
  8 41  1  0
  9 18  1  0
  9 10  1  0
  9 42  1  1
 10 11  1  0
 10 43  1  0
 10 44  1  0
 11 12  1  0
 11 45  1  0
 11 46  1  0
 12 17  2  0
 12 13  1  0
 13 14  2  0
 13 47  1  0
 14 15  1  0
 14 48  1  0
 15 16  2  0
 15 49  1  0
 16 17  1  0
 16 50  1  0
 17 18  1  0
 18 51  1  0
 18 52  1  0
 19 20  1  0
 19 21  1  0
 21 22  1  1
 21 32  1  0
 21 23  1  0
 23 24  1  0
 23 53  1  0
 23 54  1  0
 24 25  1  0
 25 31  2  0
 25 26  1  0
 26 27  2  0
 26 55  1  0
 27 28  1  0
 27 29  1  0
 29 30  2  0
 29 56  1  0
 30 31  1  0
 30 57  1  0
 31 32  1  0
 32 58  1  0
 32 59  1  0
 33 34  1  0
 33 60  1  0
 33 61  1  0
 34 62  1  0
M  CHG  1  19   1
M  END
>  <DOCK_score>  (1) 
-47.377026

>  <SMILES>  (1) 
O=C1CCC(NC(NC2CCc3ccccc3C2)=[NH+][C@H]2COc3cc(Cl)ccc3C2)CN1

$$$$
