O=C(c1cccc2c[nH+]cn12)N1CC[C@@H]1CNc1ncnc2c1ncn2-c1cccnc1
     RDKit          3D

 52 57  0  0  1  0  0  0  0  0999 V2000
  126.9465  132.9890  159.4401 O   0  0  0  0  0  0  0  0  0  0  0  0
  128.1134  133.2721  159.2411 C   0  0  0  0  0  0  0  0  0  0  0  0
  129.0187  132.2798  158.6511 C   0  0  0  0  0  0  0  0  0  0  0  0
  129.2410  131.0941  159.2919 C   0  0  0  0  0  0  0  0  0  0  0  0
  130.0981  130.1377  158.7361 C   0  0  0  0  0  0  0  0  0  0  0  0
  130.7271  130.3902  157.5533 C   0  0  0  0  0  0  0  0  0  0  0  0
  130.5035  131.6129  156.8959 C   0  0  0  0  0  0  0  0  0  0  0  0
  130.9715  132.1634  155.7178 C   0  0  0  0  0  0  0  0  0  0  0  0
  130.4151  133.3673  155.5920 N   0  0  0  0  0  0  0  0  0  0  0  0
  130.5679  133.9773  154.8534 H   0  0  0  0  0  0  0  0  0  0  0  0
  129.6301  133.6046  156.6142 C   0  0  0  0  0  0  0  0  0  0  0  0
  129.6504  132.5497  157.4491 N   0  0  0  0  0  0  0  0  0  0  0  0
  128.5739  134.4972  159.5629 N   0  0  0  0  0  0  0  0  0  0  0  0
  129.8850  135.1678  159.4659 C   0  0  0  0  0  0  0  0  0  0  0  0
  129.3934  136.0657  160.6158 C   0  0  0  0  0  0  0  0  0  0  0  0
  127.9694  135.7070  160.1538 C   0  0  2  0  0  0  0  0  0  0  0  0
  127.5595  136.3979  159.4169 H   0  0  0  0  0  0  0  0  0  0  0  0
  127.0025  135.4177  161.3036 C   0  0  0  0  0  0  0  0  0  0  0  0
  126.4615  136.6791  161.8159 N   0  0  0  0  0  0  0  0  0  0  0  0
  127.1127  137.3466  162.8383 C   0  0  0  0  0  0  0  0  0  0  0  0
  128.2299  136.8573  163.3667 N   0  0  0  0  0  0  0  0  0  0  0  0
  128.8582  137.4877  164.3421 C   0  0  0  0  0  0  0  0  0  0  0  0
  128.4228  138.6237  164.8451 N   0  0  0  0  0  0  0  0  0  0  0  0
  127.3138  139.1891  164.3805 C   0  0  0  0  0  0  0  0  0  0  0  0
  126.6115  138.5605  163.3381 C   0  0  0  0  0  0  0  0  0  0  0  0
  125.5325  139.3315  163.0607 N   0  0  0  0  0  0  0  0  0  0  0  0
  125.5306  140.3730  163.8410 C   0  0  0  0  0  0  0  0  0  0  0  0
  126.6107  140.3323  164.6752 N   0  0  0  0  0  0  0  0  0  0  0  0
  126.9416  141.2818  165.6519 C   0  0  0  0  0  0  0  0  0  0  0  0
  128.0817  141.1217  166.4351 C   0  0  0  0  0  0  0  0  0  0  0  0
  128.3669  142.0866  167.3871 C   0  0  0  0  0  0  0  0  0  0  0  0
  127.5173  143.1684  167.5277 C   0  0  0  0  0  0  0  0  0  0  0  0
  126.4451  143.2905  166.7699 N   0  0  0  0  0  0  0  0  0  0  0  0
  126.1406  142.3983  165.8485 C   0  0  0  0  0  0  0  0  0  0  0  0
  128.7483  130.8915  160.2313 H   0  0  0  0  0  0  0  0  0  0  0  0
  130.2653  129.2010  159.2471 H   0  0  0  0  0  0  0  0  0  0  0  0
  131.3931  129.6562  157.1243 H   0  0  0  0  0  0  0  0  0  0  0  0
  131.6611  131.7022  155.0263 H   0  0  0  0  0  0  0  0  0  0  0  0
  129.0557  134.5070  156.7632 H   0  0  0  0  0  0  0  0  0  0  0  0
  130.0378  135.7001  158.5272 H   0  0  0  0  0  0  0  0  0  0  0  0
  130.7273  134.5305  159.7355 H   0  0  0  0  0  0  0  0  0  0  0  0
  129.6441  137.1187  160.4880 H   0  0  0  0  0  0  0  0  0  0  0  0
  129.6415  135.6871  161.6073 H   0  0  0  0  0  0  0  0  0  0  0  0
  126.1860  134.7920  160.9429 H   0  0  0  0  0  0  0  0  0  0  0  0
  127.5325  134.8986  162.1022 H   0  0  0  0  0  0  0  0  0  0  0  0
  125.6469  137.0463  161.4385 H   0  0  0  0  0  0  0  0  0  0  0  0
  129.7631  137.0548  164.7426 H   0  0  0  0  0  0  0  0  0  0  0  0
  124.7850  141.1545  163.8299 H   0  0  0  0  0  0  0  0  0  0  0  0
  128.7280  140.2665  166.3034 H   0  0  0  0  0  0  0  0  0  0  0  0
  129.2430  141.9953  168.0122 H   0  0  0  0  0  0  0  0  0  0  0  0
  127.7347  143.9235  168.2686 H   0  0  0  0  0  0  0  0  0  0  0  0
  125.2563  142.5348  165.2437 H   0  0  0  0  0  0  0  0  0  0  0  0
  1  2  2  0
  2  3  1  0
  2 13  1  0
  3 12  1  0
  3  4  2  0
  4  5  1  0
  4 35  1  0
  5  6  2  0
  5 36  1  0
  6  7  1  0
  6 37  1  0
  7 12  1  0
  7  8  2  0
  8  9  1  0
  8 38  1  0
  9 10  1  0
  9 11  2  0
 11 12  1  0
 11 39  1  0
 13 16  1  0
 13 14  1  0
 14 15  1  0
 14 40  1  0
 14 41  1  0
 15 16  1  0
 15 42  1  0
 15 43  1  0
 16 17  1  6
 16 18  1  0
 18 19  1  0
 18 44  1  0
 18 45  1  0
 19 20  1  0
 19 46  1  0
 20 25  1  0
 20 21  2  0
 21 22  1  0
 22 23  2  0
 22 47  1  0
 23 24  1  0
 24 28  1  0
 24 25  2  0
 25 26  1  0
 26 27  2  0
 27 28  1  0
 27 48  1  0
 28 29  1  0
 29 34  1  0
 29 30  2  0
 30 31  1  0
 30 49  1  0
 31 32  2  0
 31 50  1  0
 32 33  1  0
 32 51  1  0
 33 34  2  0
 34 52  1  0
M  CHG  1   9   1
M  END
>  <DOCK_score>  (1) 
-44.190742

>  <SMILES>  (1) 
O=C(c1cccc2c[nH+]cn12)N1CC[C@@H]1CNc1ncnc2c1ncn2-c1cccnc1

$$$$
