O=C1CC[C@H](NC(NC2CC=CC2)=[NH+]CCc2ccc(-c3ccccc3)cc2)CN1
     RDKit          3D

 61 64  0  0  1  0  0  0  0  0999 V2000
  124.2862  133.7047  161.8524 O   0  0  0  0  0  0  0  0  0  0  0  0
  125.4215  134.0915  161.6724 C   0  0  0  0  0  0  0  0  0  0  0  0
  126.4820  133.0699  161.3773 C   0  0  0  0  0  0  0  0  0  0  0  0
  127.8679  133.6747  161.6135 C   0  0  0  0  0  0  0  0  0  0  0  0
  127.9341  135.0296  160.8983 C   0  0  2  0  0  0  0  0  0  0  0  0
  127.6348  134.9112  159.8569 H   0  0  0  0  0  0  0  0  0  0  0  0
  129.3014  135.5520  160.9603 N   0  0  0  0  0  0  0  0  0  0  0  0
  130.2005  135.2446  159.9667 C   0  0  0  0  0  0  0  0  0  0  0  0
  129.8163  134.4471  158.9147 N   0  0  0  0  0  0  0  0  0  0  0  0
  130.8004  133.5921  158.2464 C   0  0  0  0  0  0  0  0  0  0  0  0
  130.1159  132.6446  157.2340 C   0  0  0  0  0  0  0  0  0  0  0  0
  130.8829  131.3467  157.3443 C   0  0  0  0  0  0  0  0  0  0  0  0
  131.5960  131.3133  158.4370 C   0  0  0  0  0  0  0  0  0  0  0  0
  131.4234  132.5826  159.2383 C   0  0  0  0  0  0  0  0  0  0  0  0
  131.4170  135.7094  160.0218 N   0  0  0  0  0  0  0  0  0  0  0  0
  132.0513  135.4926  159.3208 H   0  0  0  0  0  0  0  0  0  0  0  0
  131.8261  136.5595  161.1427 C   0  0  0  0  0  0  0  0  0  0  0  0
  133.2905  136.9662  160.9662 C   0  0  0  0  0  0  0  0  0  0  0  0
  133.7115  137.8405  162.1191 C   0  0  0  0  0  0  0  0  0  0  0  0
  134.2479  137.2680  163.2583 C   0  0  0  0  0  0  0  0  0  0  0  0
  134.6394  138.0644  164.3152 C   0  0  0  0  0  0  0  0  0  0  0  0
  134.4840  139.4469  164.2375 C   0  0  0  0  0  0  0  0  0  0  0  0
  134.8976  140.3078  165.3731 C   0  0  0  0  0  0  0  0  0  0  0  0
  134.2413  141.5137  165.6116 C   0  0  0  0  0  0  0  0  0  0  0  0
  134.6271  142.3084  166.6721 C   0  0  0  0  0  0  0  0  0  0  0  0
  135.6699  141.9147  167.4911 C   0  0  0  0  0  0  0  0  0  0  0  0
  136.3282  140.7211  167.2559 C   0  0  0  0  0  0  0  0  0  0  0  0
  135.9474  139.9161  166.2013 C   0  0  0  0  0  0  0  0  0  0  0  0
  133.9382  140.0180  163.0895 C   0  0  0  0  0  0  0  0  0  0  0  0
  133.5549  139.2125  162.0365 C   0  0  0  0  0  0  0  0  0  0  0  0
  126.9819  135.9999  161.5985 C   0  0  0  0  0  0  0  0  0  0  0  0
  125.6613  135.4012  161.7466 N   0  0  0  0  0  0  0  0  0  0  0  0
  126.3468  132.2084  162.0312 H   0  0  0  0  0  0  0  0  0  0  0  0
  126.3983  132.7509  160.3384 H   0  0  0  0  0  0  0  0  0  0  0  0
  128.6322  133.0097  161.2111 H   0  0  0  0  0  0  0  0  0  0  0  0
  128.0293  133.8157  162.6822 H   0  0  0  0  0  0  0  0  0  0  0  0
  129.5724  136.1146  161.7025 H   0  0  0  0  0  0  0  0  0  0  0  0
  128.8937  134.4505  158.6152 H   0  0  0  0  0  0  0  0  0  0  0  0
  131.5713  134.1913  157.7619 H   0  0  0  0  0  0  0  0  0  0  0  0
  129.0708  132.4920  157.5034 H   0  0  0  0  0  0  0  0  0  0  0  0
  130.1936  133.0477  156.2242 H   0  0  0  0  0  0  0  0  0  0  0  0
  130.8458  130.5515  156.6143 H   0  0  0  0  0  0  0  0  0  0  0  0
  132.2264  130.4868  158.7300 H   0  0  0  0  0  0  0  0  0  0  0  0
  132.3897  132.9436  159.5906 H   0  0  0  0  0  0  0  0  0  0  0  0
  130.7520  132.4139  160.0803 H   0  0  0  0  0  0  0  0  0  0  0  0
  131.7120  136.0091  162.0767 H   0  0  0  0  0  0  0  0  0  0  0  0
  131.2016  137.4525  161.1684 H   0  0  0  0  0  0  0  0  0  0  0  0
  133.9151  136.0732  160.9403 H   0  0  0  0  0  0  0  0  0  0  0  0
  133.4046  137.5166  160.0322 H   0  0  0  0  0  0  0  0  0  0  0  0
  134.3641  136.1960  163.3191 H   0  0  0  0  0  0  0  0  0  0  0  0
  135.0615  137.6166  165.2027 H   0  0  0  0  0  0  0  0  0  0  0  0
  133.4297  141.8239  164.9702 H   0  0  0  0  0  0  0  0  0  0  0  0
  134.1164  143.2412  166.8603 H   0  0  0  0  0  0  0  0  0  0  0  0
  135.9714  142.5416  168.3172 H   0  0  0  0  0  0  0  0  0  0  0  0
  137.1416  140.4184  167.8987 H   0  0  0  0  0  0  0  0  0  0  0  0
  136.4623  138.9848  166.0183 H   0  0  0  0  0  0  0  0  0  0  0  0
  133.8152  141.0890  163.0242 H   0  0  0  0  0  0  0  0  0  0  0  0
  133.1314  139.6540  161.1464 H   0  0  0  0  0  0  0  0  0  0  0  0
  127.3785  136.2459  162.5836 H   0  0  0  0  0  0  0  0  0  0  0  0
  126.8996  136.9128  161.0086 H   0  0  0  0  0  0  0  0  0  0  0  0
  124.9099  135.9924  161.9096 H   0  0  0  0  0  0  0  0  0  0  0  0
  1  2  2  0
  2 32  1  0
  2  3  1  0
  3  4  1  0
  3 33  1  0
  3 34  1  0
  4  5  1  0
  4 35  1  0
  4 36  1  0
  5  6  1  6
  5  7  1  0
  5 31  1  0
  7 37  1  0
  8  7  1  0
  8  9  1  0
  8 15  2  0
  9 10  1  0
  9 38  1  0
 10 14  1  0
 10 11  1  0
 10 39  1  0
 11 12  1  0
 11 40  1  0
 11 41  1  0
 12 13  2  0
 12 42  1  0
 13 14  1  0
 13 43  1  0
 14 44  1  0
 14 45  1  0
 15 16  1  0
 15 17  1  0
 17 18  1  0
 17 46  1  0
 17 47  1  0
 18 19  1  0
 18 48  1  0
 18 49  1  0
 19 30  1  0
 19 20  2  0
 20 21  1  0
 20 50  1  0
 21 22  2  0
 21 51  1  0
 22 23  1  0
 22 29  1  0
 23 28  1  0
 23 24  2  0
 24 25  1  0
 24 52  1  0
 25 26  2  0
 25 53  1  0
 26 27  1  0
 26 54  1  0
 27 28  2  0
 27 55  1  0
 28 56  1  0
 29 30  2  0
 29 57  1  0
 30 58  1  0
 31 32  1  0
 31 59  1  0
 31 60  1  0
 32 61  1  0
M  CHG  1  15   1
M  END
>  <DOCK_score>  (1) 
-47.506485

>  <SMILES>  (1) 
O=C1CC[C@H](NC(NC2CC=CC2)=[NH+]CCc2ccc(-c3ccccc3)cc2)CN1

$$$$
