Nc1ccc(-c2c[nH]c(Nc3cc(N)ccc3NC(c3ccccc3)c3ccccc3)[nH+]2)cc1
     RDKit          3D

 61 65  0  0  1  0  0  0  0  0999 V2000
  131.2592  129.7688  152.2657 N   0  0  0  0  0  0  0  0  0  0  0  0
  131.0079  130.5055  153.4258 C   0  0  0  0  0  0  0  0  0  0  0  0
  130.6698  131.8507  153.3338 C   0  0  0  0  0  0  0  0  0  0  0  0
  130.4212  132.5798  154.4774 C   0  0  0  0  0  0  0  0  0  0  0  0
  130.5091  131.9670  155.7263 C   0  0  0  0  0  0  0  0  0  0  0  0
  130.2422  132.7494  156.9582 C   0  0  0  0  0  0  0  0  0  0  0  0
  129.7388  132.2622  158.1194 C   0  0  0  0  0  0  0  0  0  0  0  0
  129.6480  133.3218  158.9902 N   0  0  0  0  0  0  0  0  0  0  0  0
  129.3198  133.2895  159.9024 H   0  0  0  0  0  0  0  0  0  0  0  0
  130.1041  134.4248  158.3359 C   0  0  0  0  0  0  0  0  0  0  0  0
  130.1795  135.7027  158.8643 N   0  0  0  0  0  0  0  0  0  0  0  0
  129.2639  136.1112  159.8421 C   0  0  0  0  0  0  0  0  0  0  0  0
  127.9811  135.5849  159.8557 C   0  0  0  0  0  0  0  0  0  0  0  0
  127.0776  135.9875  160.8296 C   0  0  0  0  0  0  0  0  0  0  0  0
  125.7842  135.4525  160.8477 N   0  0  0  0  0  0  0  0  0  0  0  0
  127.4541  136.9247  161.7825 C   0  0  0  0  0  0  0  0  0  0  0  0
  128.7308  137.4550  161.7675 C   0  0  0  0  0  0  0  0  0  0  0  0
  129.6389  137.0524  160.8005 C   0  0  0  0  0  0  0  0  0  0  0  0
  130.9338  137.5915  160.7858 N   0  0  0  0  0  0  0  0  0  0  0  0
  131.1246  139.0351  160.6260 C   0  0  0  0  0  0  0  0  0  0  0  0
  131.1381  139.6932  161.9816 C   0  0  0  0  0  0  0  0  0  0  0  0
  130.6966  140.9956  162.1221 C   0  0  0  0  0  0  0  0  0  0  0  0
  130.7045  141.5976  163.3665 C   0  0  0  0  0  0  0  0  0  0  0  0
  131.1639  140.9008  164.4685 C   0  0  0  0  0  0  0  0  0  0  0  0
  131.6104  139.6003  164.3270 C   0  0  0  0  0  0  0  0  0  0  0  0
  131.5976  138.9964  163.0836 C   0  0  0  0  0  0  0  0  0  0  0  0
  132.4350  139.2945  159.9286 C   0  0  0  0  0  0  0  0  0  0  0  0
  133.5904  139.4632  160.6687 C   0  0  0  0  0  0  0  0  0  0  0  0
  134.7933  139.6963  160.0288 C   0  0  0  0  0  0  0  0  0  0  0  0
  134.8391  139.7712  158.6492 C   0  0  0  0  0  0  0  0  0  0  0  0
  133.6830  139.6078  157.9093 C   0  0  0  0  0  0  0  0  0  0  0  0
  132.4809  139.3694  158.5490 C   0  0  0  0  0  0  0  0  0  0  0  0
  130.4611  134.0775  157.1231 N   0  0  0  0  0  0  0  0  0  0  0  0
  130.8206  134.6760  156.4497 H   0  0  0  0  0  0  0  0  0  0  0  0
  130.8537  130.6192  155.8163 C   0  0  0  0  0  0  0  0  0  0  0  0
  131.0963  129.8927  154.6697 C   0  0  0  0  0  0  0  0  0  0  0  0
  131.1976  130.1962  151.3969 H   0  0  0  0  0  0  0  0  0  0  0  0
  131.4956  128.8304  152.3289 H   0  0  0  0  0  0  0  0  0  0  0  0
  130.6017  132.3251  152.3660 H   0  0  0  0  0  0  0  0  0  0  0  0
  130.1583  133.6249  154.4056 H   0  0  0  0  0  0  0  0  0  0  0  0
  129.4586  131.2387  158.3201 H   0  0  0  0  0  0  0  0  0  0  0  0
  130.8663  136.3148  158.5571 H   0  0  0  0  0  0  0  0  0  0  0  0
  127.6866  134.8595  159.1117 H   0  0  0  0  0  0  0  0  0  0  0  0
  125.1513  135.7366  161.5257 H   0  0  0  0  0  0  0  0  0  0  0  0
  125.5208  134.7978  160.1822 H   0  0  0  0  0  0  0  0  0  0  0  0
  126.7483  137.2403  162.5366 H   0  0  0  0  0  0  0  0  0  0  0  0
  129.0209  138.1841  162.5096 H   0  0  0  0  0  0  0  0  0  0  0  0
  131.7031  137.0083  160.8815 H   0  0  0  0  0  0  0  0  0  0  0  0
  130.3089  139.4457  160.0308 H   0  0  0  0  0  0  0  0  0  0  0  0
  130.3417  141.5415  161.2604 H   0  0  0  0  0  0  0  0  0  0  0  0
  130.3559  142.6138  163.4770 H   0  0  0  0  0  0  0  0  0  0  0  0
  131.1742  141.3727  165.4399 H   0  0  0  0  0  0  0  0  0  0  0  0
  131.9697  139.0560  165.1879 H   0  0  0  0  0  0  0  0  0  0  0  0
  131.9467  137.9805  162.9730 H   0  0  0  0  0  0  0  0  0  0  0  0
  133.5538  139.4089  161.7466 H   0  0  0  0  0  0  0  0  0  0  0  0
  135.6965  139.8243  160.6069 H   0  0  0  0  0  0  0  0  0  0  0  0
  135.7781  139.9578  158.1495 H   0  0  0  0  0  0  0  0  0  0  0  0
  133.7188  139.6667  156.8315 H   0  0  0  0  0  0  0  0  0  0  0  0
  131.5775  139.2422  157.9710 H   0  0  0  0  0  0  0  0  0  0  0  0
  130.9272  130.1436  156.7831 H   0  0  0  0  0  0  0  0  0  0  0  0
  131.3594  128.8475  154.7388 H   0  0  0  0  0  0  0  0  0  0  0  0
  1  2  1  0
  1 37  1  0
  1 38  1  0
  2 36  2  0
  2  3  1  0
  3  4  2  0
  3 39  1  0
  4  5  1  0
  4 40  1  0
  5  6  1  0
  5 35  2  0
  6 33  1  0
  6  7  2  0
  7  8  1  0
  7 41  1  0
  8  9  1  0
  8 10  1  0
 10 11  1  0
 10 33  2  0
 11 12  1  0
 11 42  1  0
 12 18  1  0
 12 13  2  0
 13 14  1  0
 13 43  1  0
 14 15  1  0
 14 16  2  0
 15 44  1  0
 15 45  1  0
 16 17  1  0
 16 46  1  0
 17 18  2  0
 17 47  1  0
 18 19  1  0
 19 20  1  0
 19 48  1  0
 20 21  1  0
 20 27  1  0
 20 49  1  0
 21 26  1  0
 21 22  2  0
 22 23  1  0
 22 50  1  0
 23 24  2  0
 23 51  1  0
 24 25  1  0
 24 52  1  0
 25 26  2  0
 25 53  1  0
 26 54  1  0
 27 32  1  0
 27 28  2  0
 28 29  1  0
 28 55  1  0
 29 30  2  0
 29 56  1  0
 30 31  1  0
 30 57  1  0
 31 32  2  0
 31 58  1  0
 32 59  1  0
 33 34  1  0
 35 36  1  0
 35 60  1  0
 36 61  1  0
M  CHG  1  33   1
M  END
>  <DOCK_score>  (1) 
-67.283394

>  <SMILES>  (1) 
Nc1ccc(-c2c[nH]c(Nc3cc(N)ccc3NC(c3ccccc3)c3ccccc3)[nH+]2)cc1

$$$$
