Cc1cccc(N2CC[NH+](C(c3ccccc3)c3ccccc3)CC2)c1COC(=O)Cc1ccc[nH]1
     RDKit          3D

 70 74  0  0  1  0  0  0  0  0999 V2000
  135.7162  141.2509  162.5221 C   0  0  0  0  0  0  0  0  0  0  0  0
  135.1095  140.5057  161.3611 C   0  0  0  0  0  0  0  0  0  0  0  0
  135.5119  140.7935  160.0695 C   0  0  0  0  0  0  0  0  0  0  0  0
  134.9581  140.1120  159.0015 C   0  0  0  0  0  0  0  0  0  0  0  0
  134.0004  139.1414  159.2215 C   0  0  0  0  0  0  0  0  0  0  0  0
  133.5973  138.8468  160.5176 C   0  0  0  0  0  0  0  0  0  0  0  0
  132.6326  137.8624  160.7438 N   0  0  0  0  0  0  0  0  0  0  0  0
  133.1155  136.5428  160.3133 C   0  0  0  0  0  0  0  0  0  0  0  0
  132.0556  135.4861  160.6323 C   0  0  0  0  0  0  0  0  0  0  0  0
  130.8060  135.8201  159.9365 N   0  0  0  0  0  0  0  0  0  0  0  0
  130.9734  135.8530  158.9420 H   0  0  0  0  0  0  0  0  0  0  0  0
  129.7943  134.7957  160.2285 C   0  0  0  0  0  0  0  0  0  0  0  0
  128.5120  135.1382  159.5147 C   0  0  0  0  0  0  0  0  0  0  0  0
  127.2978  134.7547  160.0528 C   0  0  0  0  0  0  0  0  0  0  0  0
  126.1214  135.0729  159.4005 C   0  0  0  0  0  0  0  0  0  0  0  0
  126.1593  135.7658  158.2055 C   0  0  0  0  0  0  0  0  0  0  0  0
  127.3740  136.1447  157.6641 C   0  0  0  0  0  0  0  0  0  0  0  0
  128.5504  135.8308  158.3190 C   0  0  0  0  0  0  0  0  0  0  0  0
  130.2887  133.4527  159.7567 C   0  0  0  0  0  0  0  0  0  0  0  0
  129.8935  132.3015  160.4122 C   0  0  0  0  0  0  0  0  0  0  0  0
  130.3431  131.0690  159.9765 C   0  0  0  0  0  0  0  0  0  0  0  0
  131.1964  130.9886  158.8919 C   0  0  0  0  0  0  0  0  0  0  0  0
  131.5958  132.1399  158.2398 C   0  0  0  0  0  0  0  0  0  0  0  0
  131.1419  133.3720  158.6722 C   0  0  0  0  0  0  0  0  0  0  0  0
  130.3232  137.1294  160.3949 C   0  0  0  0  0  0  0  0  0  0  0  0
  131.3686  138.1998  160.0740 C   0  0  0  0  0  0  0  0  0  0  0  0
  134.1523  139.5369  161.5881 C   0  0  0  0  0  0  0  0  0  0  0  0
  133.7145  139.2241  162.9958 C   0  0  0  0  0  0  0  0  0  0  0  0
  134.8813  139.1212  163.8538 O   0  0  0  0  0  0  0  0  0  0  0  0
  135.4426  137.9082  163.9762 C   0  0  0  0  0  0  0  0  0  0  0  0
  134.9746  136.9635  163.3859 O   0  0  0  0  0  0  0  0  0  0  0  0
  136.6567  137.7244  164.8497 C   0  0  0  0  0  0  0  0  0  0  0  0
  137.0867  136.2804  164.8151 C   0  0  0  0  0  0  0  0  0  0  0  0
  138.3497  135.8280  164.9528 C   0  0  0  0  0  0  0  0  0  0  0  0
  138.3071  134.4231  164.8578 C   0  0  0  0  0  0  0  0  0  0  0  0
  137.0198  134.0703  164.6655 C   0  0  0  0  0  0  0  0  0  0  0  0
  136.2668  135.2064  164.6326 N   0  0  0  0  0  0  0  0  0  0  0  0
  135.3062  135.2442  164.5032 H   0  0  0  0  0  0  0  0  0  0  0  0
  136.6000  140.7185  162.8735 H   0  0  0  0  0  0  0  0  0  0  0  0
  135.9993  142.2537  162.2021 H   0  0  0  0  0  0  0  0  0  0  0  0
  134.9881  141.3194  163.3303 H   0  0  0  0  0  0  0  0  0  0  0  0
  136.2605  141.5521  159.8947 H   0  0  0  0  0  0  0  0  0  0  0  0
  135.2745  140.3391  157.9943 H   0  0  0  0  0  0  0  0  0  0  0  0
  133.5682  138.6094  158.3868 H   0  0  0  0  0  0  0  0  0  0  0  0
  133.3035  136.5568  159.2397 H   0  0  0  0  0  0  0  0  0  0  0  0
  134.0385  136.3032  160.8414 H   0  0  0  0  0  0  0  0  0  0  0  0
  131.8779  135.4629  161.7075 H   0  0  0  0  0  0  0  0  0  0  0  0
  132.4059  134.5085  160.3008 H   0  0  0  0  0  0  0  0  0  0  0  0
  129.6136  134.7594  161.3028 H   0  0  0  0  0  0  0  0  0  0  0  0
  127.2682  134.2096  160.9846 H   0  0  0  0  0  0  0  0  0  0  0  0
  125.1725  134.7766  159.8228 H   0  0  0  0  0  0  0  0  0  0  0  0
  125.2406  136.0104  157.6930 H   0  0  0  0  0  0  0  0  0  0  0  0
  127.4039  136.6854  156.7298 H   0  0  0  0  0  0  0  0  0  0  0  0
  129.4992  136.1266  157.8963 H   0  0  0  0  0  0  0  0  0  0  0  0
  129.2304  132.3647  161.2623 H   0  0  0  0  0  0  0  0  0  0  0  0
  130.0314  130.1695  160.4864 H   0  0  0  0  0  0  0  0  0  0  0  0
  131.5513  130.0259  158.5543 H   0  0  0  0  0  0  0  0  0  0  0  0
  132.2627  132.0772  157.3926 H   0  0  0  0  0  0  0  0  0  0  0  0
  131.4543  134.2717  158.1628 H   0  0  0  0  0  0  0  0  0  0  0  0
  130.1542  137.0977  161.4714 H   0  0  0  0  0  0  0  0  0  0  0  0
  129.3890  137.3702  159.8875 H   0  0  0  0  0  0  0  0  0  0  0  0
  131.0170  139.1690  160.4275 H   0  0  0  0  0  0  0  0  0  0  0  0
  131.5278  138.2411  158.9965 H   0  0  0  0  0  0  0  0  0  0  0  0
  133.1716  138.2790  163.0059 H   0  0  0  0  0  0  0  0  0  0  0  0
  133.0649  140.0201  163.3596 H   0  0  0  0  0  0  0  0  0  0  0  0
  136.4134  138.0065  165.8741 H   0  0  0  0  0  0  0  0  0  0  0  0
  137.4674  138.3538  164.4825 H   0  0  0  0  0  0  0  0  0  0  0  0
  139.2317  136.4319  165.1073 H   0  0  0  0  0  0  0  0  0  0  0  0
  139.1505  133.7520  164.9260 H   0  0  0  0  0  0  0  0  0  0  0  0
  136.6498  133.0619  164.5526 H   0  0  0  0  0  0  0  0  0  0  0  0
  1  2  1  0
  1 39  1  0
  1 40  1  0
  1 41  1  0
  2 27  2  0
  2  3  1  0
  3  4  2  0
  3 42  1  0
  4  5  1  0
  4 43  1  0
  5  6  2  0
  5 44  1  0
  6  7  1  0
  6 27  1  0
  7 26  1  0
  7  8  1  0
  8  9  1  0
  8 45  1  0
  8 46  1  0
  9 10  1  0
  9 47  1  0
  9 48  1  0
 10 11  1  0
 10 12  1  0
 10 25  1  0
 12 13  1  0
 12 19  1  0
 12 49  1  0
 13 18  1  0
 13 14  2  0
 14 15  1  0
 14 50  1  0
 15 16  2  0
 15 51  1  0
 16 17  1  0
 16 52  1  0
 17 18  2  0
 17 53  1  0
 18 54  1  0
 19 24  1  0
 19 20  2  0
 20 21  1  0
 20 55  1  0
 21 22  2  0
 21 56  1  0
 22 23  1  0
 22 57  1  0
 23 24  2  0
 23 58  1  0
 24 59  1  0
 25 26  1  0
 25 60  1  0
 25 61  1  0
 26 62  1  0
 26 63  1  0
 27 28  1  0
 28 29  1  0
 28 64  1  0
 28 65  1  0
 29 30  1  0
 30 31  2  0
 30 32  1  0
 32 33  1  0
 32 66  1  0
 32 67  1  0
 33 37  1  0
 33 34  2  0
 34 35  1  0
 34 68  1  0
 35 36  2  0
 35 69  1  0
 36 37  1  0
 36 70  1  0
 37 38  1  0
M  CHG  1  10   1
M  END
>  <DOCK_score>  (1) 
-58.832047

>  <SMILES>  (1) 
Cc1cccc(N2CC[NH+](C(c3ccccc3)c3ccccc3)CC2)c1COC(=O)Cc1ccc[nH]1

$$$$
