CC=Cc1ccc(-c2c[nH]c(NC(C3[C@H](C)[C@H]3C)[C@H](C(N)=O)c3ccc(C(F)(F)F)cc3)[nH+]2)cc1
     RDKit          3D

 65 68  0  0  1  0  0  0  0  0999 V2000
  130.1895  129.7817  150.4847 C   0  0  0  0  0  0  0  0  0  0  0  0
  130.1882  130.5214  151.7977 C   0  0  0  0  0  0  0  0  0  0  0  0
  130.8071  130.0043  152.8510 C   0  0  0  0  0  0  0  0  0  0  0  0
  130.8058  130.7292  154.1378 C   0  0  0  0  0  0  0  0  0  0  0  0
  130.5408  132.1003  154.1669 C   0  0  0  0  0  0  0  0  0  0  0  0
  130.5392  132.7754  155.3668 C   0  0  0  0  0  0  0  0  0  0  0  0
  130.8024  132.0903  156.5535 C   0  0  0  0  0  0  0  0  0  0  0  0
  130.8011  132.8179  157.8448 C   0  0  0  0  0  0  0  0  0  0  0  0
  130.4681  132.2990  159.0535 C   0  0  0  0  0  0  0  0  0  0  0  0
  130.6041  133.3107  159.9724 N   0  0  0  0  0  0  0  0  0  0  0  0
  130.4375  133.2468  160.9259 H   0  0  0  0  0  0  0  0  0  0  0  0
  131.0164  134.4191  159.2986 C   0  0  0  0  0  0  0  0  0  0  0  0
  131.2699  135.6577  159.8627 N   0  0  0  0  0  0  0  0  0  0  0  0
  131.0976  135.8551  161.3041 C   0  0  1  0  0  0  0  0  0  0  0  0
  132.0739  136.9273  161.7922 C   0  0  0  0  0  0  0  0  0  0  0  0
  132.6033  136.8024  163.2222 C   0  0  2  0  0  0  0  0  0  0  0  0
  132.2561  135.9562  163.8153 H   0  0  0  0  0  0  0  0  0  0  0  0
  132.8504  138.0963  164.0002 C   0  0  0  0  0  0  0  0  0  0  0  0
  133.5237  136.5039  162.0369 C   0  0  1  0  0  0  0  0  0  0  0  0
  134.3048  137.2297  161.8112 H   0  0  0  0  0  0  0  0  0  0  0  0
  133.8866  135.0409  161.7752 C   0  0  0  0  0  0  0  0  0  0  0  0
  129.6629  136.3038  161.5895 C   0  0  2  0  0  0  0  0  0  0  0  0
  129.3441  137.0104  160.8232 H   0  0  0  0  0  0  0  0  0  0  0  0
  129.6038  136.9678  162.9410 C   0  0  0  0  0  0  0  0  0  0  0  0
  129.1989  138.2491  163.0452 N   0  0  0  0  0  0  0  0  0  0  0  0
  129.9205  136.3493  163.9350 O   0  0  0  0  0  0  0  0  0  0  0  0
  128.7500  135.1049  161.5784 C   0  0  0  0  0  0  0  0  0  0  0  0
  128.9593  134.0686  162.4692 C   0  0  0  0  0  0  0  0  0  0  0  0
  128.1189  132.9710  162.4622 C   0  0  0  0  0  0  0  0  0  0  0  0
  127.0755  132.9052  161.5579 C   0  0  0  0  0  0  0  0  0  0  0  0
  126.1625  131.7063  161.5470 C   0  0  0  0  0  0  0  0  0  0  0  0
  126.5682  130.8021  162.5343 F   0  0  0  0  0  0  0  0  0  0  0  0
  124.8499  132.1173  161.8022 F   0  0  0  0  0  0  0  0  0  0  0  0
  126.2218  131.0863  160.2942 F   0  0  0  0  0  0  0  0  0  0  0  0
  126.8697  133.9389  160.6635 C   0  0  0  0  0  0  0  0  0  0  0  0
  127.7069  135.0388  160.6739 C   0  0  0  0  0  0  0  0  0  0  0  0
  131.1283  134.1223  158.0271 N   0  0  0  0  0  0  0  0  0  0  0  0
  131.4031  134.7362  157.3282 H   0  0  0  0  0  0  0  0  0  0  0  0
  131.0725  130.7217  156.5247 C   0  0  0  0  0  0  0  0  0  0  0  0
  131.0690  130.0442  155.3261 C   0  0  0  0  0  0  0  0  0  0  0  0
  129.7173  128.8081  150.6158 H   0  0  0  0  0  0  0  0  0  0  0  0
  129.6356  130.3571  149.7430 H   0  0  0  0  0  0  0  0  0  0  0  0
  131.2165  129.6449  150.1458 H   0  0  0  0  0  0  0  0  0  0  0  0
  129.6834  131.4726  151.8812 H   0  0  0  0  0  0  0  0  0  0  0  0
  131.3118  129.0531  152.7675 H   0  0  0  0  0  0  0  0  0  0  0  0
  130.3367  132.6307  153.2486 H   0  0  0  0  0  0  0  0  0  0  0  0
  130.3347  133.8356  155.3896 H   0  0  0  0  0  0  0  0  0  0  0  0
  130.1560  131.2849  159.2545 H   0  0  0  0  0  0  0  0  0  0  0  0
  131.5616  136.3946  159.3036 H   0  0  0  0  0  0  0  0  0  0  0  0
  131.2958  134.9187  161.8253 H   0  0  0  0  0  0  0  0  0  0  0  0
  131.9014  137.9316  161.4054 H   0  0  0  0  0  0  0  0  0  0  0  0
  133.5852  138.7034  163.4716 H   0  0  0  0  0  0  0  0  0  0  0  0
  131.9163  138.6511  164.0884 H   0  0  0  0  0  0  0  0  0  0  0  0
  133.2255  137.8562  164.9951 H   0  0  0  0  0  0  0  0  0  0  0  0
  133.3303  134.4004  162.4595 H   0  0  0  0  0  0  0  0  0  0  0  0
  133.6323  134.7816  160.7473 H   0  0  0  0  0  0  0  0  0  0  0  0
  134.9558  134.8981  161.9320 H   0  0  0  0  0  0  0  0  0  0  0  0
  128.9455  138.7438  162.2502 H   0  0  0  0  0  0  0  0  0  0  0  0
  129.1607  138.6765  163.9152 H   0  0  0  0  0  0  0  0  0  0  0  0
  129.7771  134.1182  163.1729 H   0  0  0  0  0  0  0  0  0  0  0  0
  128.2799  132.1632  163.1607 H   0  0  0  0  0  0  0  0  0  0  0  0
  126.0546  133.8873  159.9567 H   0  0  0  0  0  0  0  0  0  0  0  0
  127.5461  135.8464  159.9750 H   0  0  0  0  0  0  0  0  0  0  0  0
  131.2805  130.1929  157.4430 H   0  0  0  0  0  0  0  0  0  0  0  0
  131.2738  128.9839  155.3043 H   0  0  0  0  0  0  0  0  0  0  0  0
  1  2  1  0
  1 41  1  0
  1 42  1  0
  1 43  1  0
  2  3  2  0
  2 44  1  0
  3  4  1  0
  3 45  1  0
  4 40  2  0
  4  5  1  0
  5  6  2  0
  5 46  1  0
  6  7  1  0
  6 47  1  0
  7  8  1  0
  7 39  2  0
  8 37  1  0
  8  9  2  0
  9 10  1  0
  9 48  1  0
 10 11  1  0
 10 12  1  0
 12 13  1  0
 12 37  2  0
 13 14  1  0
 13 49  1  0
 14 15  1  0
 14 22  1  0
 14 50  1  1
 15 19  1  0
 15 16  1  0
 15 51  1  0
 16 17  1  1
 16 18  1  0
 16 19  1  0
 18 52  1  0
 18 53  1  0
 18 54  1  0
 19 20  1  6
 19 21  1  0
 21 55  1  0
 21 56  1  0
 21 57  1  0
 22 23  1  6
 22 24  1  0
 22 27  1  0
 24 25  1  0
 24 26  2  0
 25 58  1  0
 25 59  1  0
 27 36  1  0
 27 28  2  0
 28 29  1  0
 28 60  1  0
 29 30  2  0
 29 61  1  0
 30 31  1  0
 30 35  1  0
 31 32  1  0
 31 33  1  0
 31 34  1  0
 35 36  2  0
 35 62  1  0
 36 63  1  0
 37 38  1  0
 39 40  1  0
 39 64  1  0
 40 65  1  0
M  CHG  1  37   1
M  END
>  <DOCK_score>  (1) 
-58.349751

>  <SMILES>  (1) 
CC=Cc1ccc(-c2c[nH]c(NC(C3[C@H](C)[C@H]3C)[C@H](C(N)=O)c3ccc(C(F)(F)F)cc3)[nH+]2)cc1

$$$$
