Cc1cccc(-c2ccccc2[C@@]2(O)CCCCC2Nc2[nH]cc(-c3ccc(N)cc3)[nH+]2)c1
     RDKit          3D

 64 68  0  0  1  0  0  0  0  0999 V2000
  136.0847  141.1101  162.5586 C   0  0  0  0  0  0  0  0  0  0  0  0
  135.3631  140.4236  161.4276 C   0  0  0  0  0  0  0  0  0  0  0  0
  136.0417  140.1142  160.2625 C   0  0  0  0  0  0  0  0  0  0  0  0
  135.3857  139.4843  159.2205 C   0  0  0  0  0  0  0  0  0  0  0  0
  134.0489  139.1607  159.3384 C   0  0  0  0  0  0  0  0  0  0  0  0
  133.3607  139.4699  160.5094 C   0  0  0  0  0  0  0  0  0  0  0  0
  131.9235  139.1249  160.6418 C   0  0  0  0  0  0  0  0  0  0  0  0
  130.9463  140.0358  160.2449 C   0  0  0  0  0  0  0  0  0  0  0  0
  129.6113  139.7100  160.3705 C   0  0  0  0  0  0  0  0  0  0  0  0
  129.2422  138.4818  160.8894 C   0  0  0  0  0  0  0  0  0  0  0  0
  130.2077  137.5741  161.2848 C   0  0  0  0  0  0  0  0  0  0  0  0
  131.5461  137.8896  161.1635 C   0  0  0  0  0  0  0  0  0  0  0  0
  132.5971  136.8992  161.5943 C   0  0  1  0  0  0  0  0  0  0  0  0
  133.7711  137.0741  160.7987 O   0  0  0  0  0  0  0  0  0  0  0  0
  132.9404  137.1283  163.0676 C   0  0  0  0  0  0  0  0  0  0  0  0
  134.0075  136.1227  163.5050 C   0  0  0  0  0  0  0  0  0  0  0  0
  133.4739  134.7007  163.3210 C   0  0  0  0  0  0  0  0  0  0  0  0
  133.1306  134.4715  161.8477 C   0  0  0  0  0  0  0  0  0  0  0  0
  132.0636  135.4771  161.4104 C   0  0  2  0  0  0  0  0  0  0  0  0
  131.7346  135.2576  159.9997 N   0  0  0  0  0  0  0  0  0  0  0  0
  130.4393  134.9346  159.6331 C   0  0  0  0  0  0  0  0  0  0  0  0
  129.8468  135.2555  158.4509 N   0  0  0  0  0  0  0  0  0  0  0  0
  130.2524  135.7473  157.7197 H   0  0  0  0  0  0  0  0  0  0  0  0
  128.5684  134.7507  158.4829 C   0  0  0  0  0  0  0  0  0  0  0  0
  128.4149  134.1450  159.6862 C   0  0  0  0  0  0  0  0  0  0  0  0
  127.1899  133.4622  160.1698 C   0  0  0  0  0  0  0  0  0  0  0  0
  126.5550  133.9057  161.3290 C   0  0  0  0  0  0  0  0  0  0  0  0
  125.4128  133.2734  161.7732 C   0  0  0  0  0  0  0  0  0  0  0  0
  124.9018  132.1872  161.0735 C   0  0  0  0  0  0  0  0  0  0  0  0
  123.7473  131.5450  161.5277 N   0  0  0  0  0  0  0  0  0  0  0  0
  125.5362  131.7396  159.9202 C   0  0  0  0  0  0  0  0  0  0  0  0
  126.6750  132.3726  159.4689 C   0  0  0  0  0  0  0  0  0  0  0  0
  129.5795  134.2742  160.3698 N   0  0  0  0  0  0  0  0  0  0  0  0
  129.7488  133.9327  161.2618 H   0  0  0  0  0  0  0  0  0  0  0  0
  134.0253  140.1095  161.5542 C   0  0  0  0  0  0  0  0  0  0  0  0
  136.0027  142.1904  162.4393 H   0  0  0  0  0  0  0  0  0  0  0  0
  135.6374  140.8143  163.5076 H   0  0  0  0  0  0  0  0  0  0  0  0
  137.1358  140.8219  162.5469 H   0  0  0  0  0  0  0  0  0  0  0  0
  137.0877  140.3652  160.1661 H   0  0  0  0  0  0  0  0  0  0  0  0
  135.9203  139.2447  158.3132 H   0  0  0  0  0  0  0  0  0  0  0  0
  133.5376  138.6684  158.5243 H   0  0  0  0  0  0  0  0  0  0  0  0
  131.2334  140.9950  159.8401 H   0  0  0  0  0  0  0  0  0  0  0  0
  128.8531  140.4151  160.0629 H   0  0  0  0  0  0  0  0  0  0  0  0
  128.1961  138.2327  160.9901 H   0  0  0  0  0  0  0  0  0  0  0  0
  129.9140  136.6167  161.6892 H   0  0  0  0  0  0  0  0  0  0  0  0
  133.6273  136.9437  159.8514 H   0  0  0  0  0  0  0  0  0  0  0  0
  133.3206  138.1415  163.1986 H   0  0  0  0  0  0  0  0  0  0  0  0
  132.0450  136.9949  163.6744 H   0  0  0  0  0  0  0  0  0  0  0  0
  134.2521  136.2861  164.5545 H   0  0  0  0  0  0  0  0  0  0  0  0
  134.9031  136.2562  162.8981 H   0  0  0  0  0  0  0  0  0  0  0  0
  132.5783  134.5673  163.9279 H   0  0  0  0  0  0  0  0  0  0  0  0
  134.2340  133.9843  163.6325 H   0  0  0  0  0  0  0  0  0  0  0  0
  132.7504  133.4583  161.7166 H   0  0  0  0  0  0  0  0  0  0  0  0
  134.0260  134.6049  161.2409 H   0  0  0  0  0  0  0  0  0  0  0  0
  131.1680  135.3436  162.0173 H   0  0  0  0  0  0  0  0  0  0  0  0
  132.4245  135.3384  159.3226 H   0  0  0  0  0  0  0  0  0  0  0  0
  127.8269  134.8266  157.7013 H   0  0  0  0  0  0  0  0  0  0  0  0
  126.9546  134.7468  161.8760 H   0  0  0  0  0  0  0  0  0  0  0  0
  124.9180  133.6195  162.6685 H   0  0  0  0  0  0  0  0  0  0  0  0
  123.3896  130.7871  161.0393 H   0  0  0  0  0  0  0  0  0  0  0  0
  123.3038  131.8568  162.3320 H   0  0  0  0  0  0  0  0  0  0  0  0
  125.1370  130.8955  159.3776 H   0  0  0  0  0  0  0  0  0  0  0  0
  127.1680  132.0245  158.5733 H   0  0  0  0  0  0  0  0  0  0  0  0
  133.4954  140.3554  162.4625 H   0  0  0  0  0  0  0  0  0  0  0  0
  1  2  1  0
  1 36  1  0
  1 37  1  0
  1 38  1  0
  2 35  2  0
  2  3  1  0
  3  4  2  0
  3 39  1  0
  4  5  1  0
  4 40  1  0
  5  6  2  0
  5 41  1  0
  6  7  1  0
  6 35  1  0
  7 12  1  0
  7  8  2  0
  8  9  1  0
  8 42  1  0
  9 10  2  0
  9 43  1  0
 10 11  1  0
 10 44  1  0
 11 12  2  0
 11 45  1  0
 12 13  1  0
 13 19  1  0
 13 14  1  6
 13 15  1  0
 14 46  1  0
 15 16  1  0
 15 47  1  0
 15 48  1  0
 16 17  1  0
 16 49  1  0
 16 50  1  0
 17 18  1  0
 17 51  1  0
 17 52  1  0
 18 19  1  0
 18 53  1  0
 18 54  1  0
 19 20  1  0
 19 55  1  1
 20 56  1  0
 21 20  1  0
 21 33  2  0
 21 22  1  0
 22 23  1  0
 22 24  1  0
 24 25  2  0
 24 57  1  0
 25 26  1  0
 25 33  1  0
 26 32  1  0
 26 27  2  0
 27 28  1  0
 27 58  1  0
 28 29  2  0
 28 59  1  0
 29 30  1  0
 29 31  1  0
 30 60  1  0
 30 61  1  0
 31 32  2  0
 31 62  1  0
 32 63  1  0
 33 34  1  0
 35 64  1  0
M  CHG  1  33   1
M  END
>  <DOCK_score>  (1) 
-56.515007

>  <SMILES>  (1) 
Cc1cccc(-c2ccccc2[C@@]2(O)CCCCC2Nc2[nH]cc(-c3ccc(N)cc3)[nH+]2)c1

$$$$
