Cc1c(SC2C[C@H](O)C2(C)C)cccc1N1CC[NH+](C(c2ccccc2)c2ccccn2)CC1
     RDKit          3D

 70 74  0  0  1  0  0  0  0  0999 V2000
  133.4613  135.9257  163.7645 C   0  0  0  0  0  0  0  0  0  0  0  0
  134.0622  136.7512  162.6562 C   0  0  0  0  0  0  0  0  0  0  0  0
  135.0876  137.6460  162.9324 C   0  0  0  0  0  0  0  0  0  0  0  0
  135.6876  137.8189  164.5801 S   0  0  0  0  0  0  0  0  0  0  0  0
  137.0169  136.5874  164.6617 C   0  0  1  0  0  0  0  0  0  0  0  0
  138.3517  137.0824  164.0803 C   0  0  0  0  0  0  0  0  0  0  0  0
  139.0392  136.3609  165.2517 C   0  0  2  0  0  0  0  0  0  0  0  0
  139.8729  136.9181  165.6787 H   0  0  0  0  0  0  0  0  0  0  0  0
  139.3676  134.9987  164.9713 O   0  0  0  0  0  0  0  0  0  0  0  0
  137.7223  136.5321  166.0271 C   0  0  0  0  0  0  0  0  0  0  0  0
  137.6398  137.8421  166.8131 C   0  0  0  0  0  0  0  0  0  0  0  0
  137.3411  135.3098  166.8648 C   0  0  0  0  0  0  0  0  0  0  0  0
  135.6398  138.4055  161.9073 C   0  0  0  0  0  0  0  0  0  0  0  0
  135.1691  138.2710  160.6153 C   0  0  0  0  0  0  0  0  0  0  0  0
  134.1534  137.3771  160.3365 C   0  0  0  0  0  0  0  0  0  0  0  0
  133.5927  136.6186  161.3575 C   0  0  0  0  0  0  0  0  0  0  0  0
  132.5614  135.7199  161.0753 N   0  0  0  0  0  0  0  0  0  0  0  0
  131.3659  136.4249  160.5917 C   0  0  0  0  0  0  0  0  0  0  0  0
  130.2432  135.4133  160.3516 C   0  0  0  0  0  0  0  0  0  0  0  0
  130.6816  134.4210  159.3613 N   0  0  0  0  0  0  0  0  0  0  0  0
  130.9168  134.8882  158.4986 H   0  0  0  0  0  0  0  0  0  0  0  0
  129.5970  133.4606  159.1176 C   0  0  1  0  0  0  0  0  0  0  0  0
  128.3870  134.1912  158.5950 C   0  0  0  0  0  0  0  0  0  0  0  0
  127.1197  133.7046  158.8557 C   0  0  0  0  0  0  0  0  0  0  0  0
  126.0097  134.3775  158.3804 C   0  0  0  0  0  0  0  0  0  0  0  0
  126.1672  135.5315  157.6359 C   0  0  0  0  0  0  0  0  0  0  0  0
  127.4348  136.0151  157.3705 C   0  0  0  0  0  0  0  0  0  0  0  0
  128.5446  135.3450  157.8502 C   0  0  0  0  0  0  0  0  0  0  0  0
  130.0464  132.4423  158.1016 C   0  0  0  0  0  0  0  0  0  0  0  0
  130.4212  132.8578  156.8377 C   0  0  0  0  0  0  0  0  0  0  0  0
  130.8326  131.9130  155.9104 C   0  0  0  0  0  0  0  0  0  0  0  0
  130.8517  130.5796  156.2907 C   0  0  0  0  0  0  0  0  0  0  0  0
  130.4572  130.2387  157.5704 C   0  0  0  0  0  0  0  0  0  0  0  0
  130.0771  131.1653  158.4285 N   0  0  0  0  0  0  0  0  0  0  0  0
  131.8612  133.7082  159.8693 C   0  0  0  0  0  0  0  0  0  0  0  0
  132.9976  134.7057  160.1052 C   0  0  0  0  0  0  0  0  0  0  0  0
  134.0088  134.9877  163.8569 H   0  0  0  0  0  0  0  0  0  0  0  0
  133.5239  136.4768  164.7030 H   0  0  0  0  0  0  0  0  0  0  0  0
  132.4165  135.7156  163.5355 H   0  0  0  0  0  0  0  0  0  0  0  0
  136.7126  135.6105  164.2861 H   0  0  0  0  0  0  0  0  0  0  0  0
  138.5883  136.6560  163.1055 H   0  0  0  0  0  0  0  0  0  0  0  0
  138.4650  138.1661  164.1082 H   0  0  0  0  0  0  0  0  0  0  0  0
  138.6857  134.5233  164.4775 H   0  0  0  0  0  0  0  0  0  0  0  0
  136.5945  138.0902  166.9970 H   0  0  0  0  0  0  0  0  0  0  0  0
  138.1589  137.7281  167.7649 H   0  0  0  0  0  0  0  0  0  0  0  0
  138.1071  138.6412  166.2377 H   0  0  0  0  0  0  0  0  0  0  0  0
  137.6070  134.4015  166.3242 H   0  0  0  0  0  0  0  0  0  0  0  0
  137.8769  135.3381  167.8136 H   0  0  0  0  0  0  0  0  0  0  0  0
  136.2675  135.3191  167.0534 H   0  0  0  0  0  0  0  0  0  0  0  0
  136.4373  139.1017  162.1212 H   0  0  0  0  0  0  0  0  0  0  0  0
  135.5999  138.8622  159.8208 H   0  0  0  0  0  0  0  0  0  0  0  0
  133.7914  137.2708  159.3245 H   0  0  0  0  0  0  0  0  0  0  0  0
  131.5989  136.9380  159.6587 H   0  0  0  0  0  0  0  0  0  0  0  0
  131.0464  137.1526  161.3376 H   0  0  0  0  0  0  0  0  0  0  0  0
  129.3600  135.9323  159.9793 H   0  0  0  0  0  0  0  0  0  0  0  0
  130.0012  134.9100  161.2876 H   0  0  0  0  0  0  0  0  0  0  0  0
  129.3423  132.9559  160.0496 H   0  0  0  0  0  0  0  0  0  0  0  0
  126.9967  132.8007  159.4339 H   0  0  0  0  0  0  0  0  0  0  0  0
  125.0194  133.9995  158.5875 H   0  0  0  0  0  0  0  0  0  0  0  0
  125.3001  136.0551  157.2614 H   0  0  0  0  0  0  0  0  0  0  0  0
  127.5578  136.9165  156.7885 H   0  0  0  0  0  0  0  0  0  0  0  0
  129.5349  135.7229  157.6427 H   0  0  0  0  0  0  0  0  0  0  0  0
  130.3943  133.9053  156.5760 H   0  0  0  0  0  0  0  0  0  0  0  0
  131.1315  132.2085  154.9155 H   0  0  0  0  0  0  0  0  0  0  0  0
  131.1665  129.8167  155.5940 H   0  0  0  0  0  0  0  0  0  0  0  0
  130.4646  129.2019  157.8728 H   0  0  0  0  0  0  0  0  0  0  0  0
  131.6107  133.2139  160.8080 H   0  0  0  0  0  0  0  0  0  0  0  0
  132.1777  132.9631  159.1394 H   0  0  0  0  0  0  0  0  0  0  0  0
  133.2573  135.1906  159.1641 H   0  0  0  0  0  0  0  0  0  0  0  0
  133.8682  134.1792  160.4960 H   0  0  0  0  0  0  0  0  0  0  0  0
  1  2  1  0
  1 37  1  0
  1 38  1  0
  1 39  1  0
  2 16  2  0
  2  3  1  0
  3  4  1  0
  3 13  2  0
  4  5  1  0
  5 10  1  0
  5  6  1  0
  5 40  1  6
  6  7  1  0
  6 41  1  0
  6 42  1  0
  7  8  1  1
  7  9  1  0
  7 10  1  0
  9 43  1  0
 10 11  1  0
 10 12  1  0
 11 44  1  0
 11 45  1  0
 11 46  1  0
 12 47  1  0
 12 48  1  0
 12 49  1  0
 13 14  1  0
 13 50  1  0
 14 15  2  0
 14 51  1  0
 15 16  1  0
 15 52  1  0
 16 17  1  0
 17 36  1  0
 17 18  1  0
 18 19  1  0
 18 53  1  0
 18 54  1  0
 19 20  1  0
 19 55  1  0
 19 56  1  0
 20 21  1  0
 20 22  1  0
 20 35  1  0
 22 23  1  0
 22 29  1  0
 22 57  1  1
 23 28  1  0
 23 24  2  0
 24 25  1  0
 24 58  1  0
 25 26  2  0
 25 59  1  0
 26 27  1  0
 26 60  1  0
 27 28  2  0
 27 61  1  0
 28 62  1  0
 29 34  1  0
 29 30  2  0
 30 31  1  0
 30 63  1  0
 31 32  2  0
 31 64  1  0
 32 33  1  0
 32 65  1  0
 33 34  2  0
 33 66  1  0
 35 36  1  0
 35 67  1  0
 35 68  1  0
 36 69  1  0
 36 70  1  0
M  CHG  1  20   1
M  END
>  <DOCK_score>  (1) 
-56.438221

>  <SMILES>  (1) 
Cc1c(SC2C[C@H](O)C2(C)C)cccc1N1CC[NH+](C(c2ccccc2)c2ccccn2)CC1

$$$$
