Cc1cccc(N2CC[NH+]([C@H](C3=CCCC3)c3ccccc3C(=O)NCC3CC3(F)F)CC2)c1C
     RDKit          3D

 71 75  0  0  1  0  0  0  0  0999 V2000
  135.8412  141.6845  162.2440 C   0  0  0  0  0  0  0  0  0  0  0  0
  135.2813  140.7997  161.1602 C   0  0  0  0  0  0  0  0  0  0  0  0
  135.7452  140.9189  159.8628 C   0  0  0  0  0  0  0  0  0  0  0  0
  135.2340  140.1094  158.8653 C   0  0  0  0  0  0  0  0  0  0  0  0
  134.2580  139.1781  159.1619 C   0  0  0  0  0  0  0  0  0  0  0  0
  133.7899  139.0556  160.4638 C   0  0  0  0  0  0  0  0  0  0  0  0
  132.8027  138.1152  160.7672 N   0  0  0  0  0  0  0  0  0  0  0  0
  131.5485  138.4231  160.0655 C   0  0  0  0  0  0  0  0  0  0  0  0
  130.4785  137.4067  160.4700 C   0  0  0  0  0  0  0  0  0  0  0  0
  130.9331  136.0533  160.1249 N   0  0  0  0  0  0  0  0  0  0  0  0
  131.1043  135.9992  159.1320 H   0  0  0  0  0  0  0  0  0  0  0  0
  129.8979  135.0797  160.4969 C   0  0  2  0  0  0  0  0  0  0  0  0
  129.7125  135.1383  161.5694 H   0  0  0  0  0  0  0  0  0  0  0  0
  130.3642  133.6909  160.1430 C   0  0  0  0  0  0  0  0  0  0  0  0
  131.1692  133.4121  159.1542 C   0  0  0  0  0  0  0  0  0  0  0  0
  131.4397  131.9275  159.0749 C   0  0  0  0  0  0  0  0  0  0  0  0
  130.9849  131.3700  160.4438 C   0  0  0  0  0  0  0  0  0  0  0  0
  129.9561  132.4380  160.8824 C   0  0  0  0  0  0  0  0  0  0  0  0
  128.6262  135.3882  159.7495 C   0  0  0  0  0  0  0  0  0  0  0  0
  128.6144  135.3751  158.3699 C   0  0  0  0  0  0  0  0  0  0  0  0
  127.4481  135.6591  157.6824 C   0  0  0  0  0  0  0  0  0  0  0  0
  126.2862  135.9576  158.3723 C   0  0  0  0  0  0  0  0  0  0  0  0
  126.2831  135.9685  159.7514 C   0  0  0  0  0  0  0  0  0  0  0  0
  127.4579  135.6886  160.4513 C   0  0  0  0  0  0  0  0  0  0  0  0
  127.4631  135.7040  161.9297 C   0  0  0  0  0  0  0  0  0  0  0  0
  127.1759  136.7225  162.5279 O   0  0  0  0  0  0  0  0  0  0  0  0
  127.7865  134.5889  162.6142 N   0  0  0  0  0  0  0  0  0  0  0  0
  127.7917  134.6043  164.0791 C   0  0  0  0  0  0  0  0  0  0  0  0
  128.7964  135.6465  164.5744 C   0  0  1  0  0  0  0  0  0  0  0  0
  129.5037  135.3704  165.9028 C   0  0  0  0  0  0  0  0  0  0  0  0
  130.2748  135.2526  164.5865 C   0  0  0  0  0  0  0  0  0  0  0  0
  130.6045  133.9672  164.1436 F   0  0  0  0  0  0  0  0  0  0  0  0
  131.2114  136.2501  164.2951 F   0  0  0  0  0  0  0  0  0  0  0  0
  132.1729  135.7514  160.8524 C   0  0  0  0  0  0  0  0  0  0  0  0
  133.2571  136.7538  160.4508 C   0  0  0  0  0  0  0  0  0  0  0  0
  134.3017  139.8746  161.4625 C   0  0  0  0  0  0  0  0  0  0  0  0
  133.7925  139.7496  162.8754 C   0  0  0  0  0  0  0  0  0  0  0  0
  135.2491  142.5975  162.3098 H   0  0  0  0  0  0  0  0  0  0  0  0
  135.8045  141.1584  163.1979 H   0  0  0  0  0  0  0  0  0  0  0  0
  136.8747  141.9379  162.0083 H   0  0  0  0  0  0  0  0  0  0  0  0
  136.5082  141.6463  159.6281 H   0  0  0  0  0  0  0  0  0  0  0  0
  135.5984  140.2050  157.8532 H   0  0  0  0  0  0  0  0  0  0  0  0
  133.8591  138.5459  158.3823 H   0  0  0  0  0  0  0  0  0  0  0  0
  131.7117  138.3706  158.9891 H   0  0  0  0  0  0  0  0  0  0  0  0
  131.2178  139.4261  160.3351 H   0  0  0  0  0  0  0  0  0  0  0  0
  129.5514  137.6248  159.9398 H   0  0  0  0  0  0  0  0  0  0  0  0
  130.3059  137.4691  161.5444 H   0  0  0  0  0  0  0  0  0  0  0  0
  131.5885  134.1461  158.4821 H   0  0  0  0  0  0  0  0  0  0  0  0
  132.5027  131.7403  158.9229 H   0  0  0  0  0  0  0  0  0  0  0  0
  130.8557  131.4810  158.2700 H   0  0  0  0  0  0  0  0  0  0  0  0
  131.8196  131.3204  161.1429 H   0  0  0  0  0  0  0  0  0  0  0  0
  130.5123  130.3944  160.3313 H   0  0  0  0  0  0  0  0  0  0  0  0
  130.0104  132.5978  161.9592 H   0  0  0  0  0  0  0  0  0  0  0  0
  128.9493  132.1369  160.5925 H   0  0  0  0  0  0  0  0  0  0  0  0
  129.5179  135.1429  157.8256 H   0  0  0  0  0  0  0  0  0  0  0  0
  127.4444  135.6482  156.6025 H   0  0  0  0  0  0  0  0  0  0  0  0
  125.3791  136.1788  157.8294 H   0  0  0  0  0  0  0  0  0  0  0  0
  125.3745  136.1973  160.2889 H   0  0  0  0  0  0  0  0  0  0  0  0
  128.0156  133.7762  162.1368 H   0  0  0  0  0  0  0  0  0  0  0  0
  126.7962  134.8575  164.4435 H   0  0  0  0  0  0  0  0  0  0  0  0
  128.0756  133.6202  164.4520 H   0  0  0  0  0  0  0  0  0  0  0  0
  128.5532  136.6828  164.3397 H   0  0  0  0  0  0  0  0  0  0  0  0
  129.7263  136.2250  166.5416 H   0  0  0  0  0  0  0  0  0  0  0  0
  129.2535  134.4462  166.4238 H   0  0  0  0  0  0  0  0  0  0  0  0
  131.9914  135.8224  161.9248 H   0  0  0  0  0  0  0  0  0  0  0  0
  132.5023  134.7421  160.6056 H   0  0  0  0  0  0  0  0  0  0  0  0
  133.4485  136.6737  159.3807 H   0  0  0  0  0  0  0  0  0  0  0  0
  134.1730  136.5389  161.0013 H   0  0  0  0  0  0  0  0  0  0  0  0
  134.3965  139.0211  163.4163 H   0  0  0  0  0  0  0  0  0  0  0  0
  133.8588  140.7174  163.3725 H   0  0  0  0  0  0  0  0  0  0  0  0
  132.7536  139.4200  162.8593 H   0  0  0  0  0  0  0  0  0  0  0  0
  1  2  1  0
  1 38  1  0
  1 39  1  0
  1 40  1  0
  2 36  2  0
  2  3  1  0
  3  4  2  0
  3 41  1  0
  4  5  1  0
  4 42  1  0
  5  6  2  0
  5 43  1  0
  6  7  1  0
  6 36  1  0
  7 35  1  0
  7  8  1  0
  8  9  1  0
  8 44  1  0
  8 45  1  0
  9 10  1  0
  9 46  1  0
  9 47  1  0
 10 11  1  0
 10 12  1  0
 10 34  1  0
 12 13  1  1
 12 14  1  0
 12 19  1  0
 14 18  1  0
 14 15  2  0
 15 16  1  0
 15 48  1  0
 16 17  1  0
 16 49  1  0
 16 50  1  0
 17 18  1  0
 17 51  1  0
 17 52  1  0
 18 53  1  0
 18 54  1  0
 19 24  1  0
 19 20  2  0
 20 21  1  0
 20 55  1  0
 21 22  2  0
 21 56  1  0
 22 23  1  0
 22 57  1  0
 23 24  2  0
 23 58  1  0
 24 25  1  0
 25 26  2  0
 25 27  1  0
 27 28  1  0
 27 59  1  0
 28 29  1  0
 28 60  1  0
 28 61  1  0
 29 31  1  0
 29 30  1  0
 29 62  1  1
 30 31  1  0
 30 63  1  0
 30 64  1  0
 31 32  1  0
 31 33  1  0
 34 35  1  0
 34 65  1  0
 34 66  1  0
 35 67  1  0
 35 68  1  0
 36 37  1  0
 37 69  1  0
 37 70  1  0
 37 71  1  0
M  CHG  1  10   1
M  END
>  <DOCK_score>  (1) 
-47.625134

>  <SMILES>  (1) 
Cc1cccc(N2CC[NH+]([C@H](C3=CCCC3)c3ccccc3C(=O)NCC3CC3(F)F)CC2)c1C

$$$$
