CC1=C(C)CC(C(Nc2[nH]cc(-c3ccc(N)cc3)[nH+]2)[C@H]2CCCC2O)=C(CBr)C1
     RDKit          3D

 62 65  0  0  1  0  0  0  0  0999 V2000
  132.2509  139.0597  163.2296 C   0  0  0  0  0  0  0  0  0  0  0  0
  131.2680  138.1339  162.5603 C   0  0  0  0  0  0  0  0  0  0  0  0
  130.5648  138.5870  161.5675 C   0  0  0  0  0  0  0  0  0  0  0  0
  130.7667  140.0162  161.1340 C   0  0  0  0  0  0  0  0  0  0  0  0
  129.5608  137.7500  160.8335 C   0  0  0  0  0  0  0  0  0  0  0  0
  129.8103  136.2881  161.0529 C   0  0  0  0  0  0  0  0  0  0  0  0
  129.2197  135.3018  160.0785 C   0  0  2  0  0  0  0  0  0  0  0  0
  130.1705  135.0612  158.9902 N   0  0  0  0  0  0  0  0  0  0  0  0
  130.1914  133.8351  158.3477 C   0  0  0  0  0  0  0  0  0  0  0  0
  129.8596  132.6406  158.9086 N   0  0  0  0  0  0  0  0  0  0  0  0
  129.5693  132.4959  159.8228 H   0  0  0  0  0  0  0  0  0  0  0  0
  130.0125  131.6766  157.9404 C   0  0  0  0  0  0  0  0  0  0  0  0
  130.4328  132.3102  156.8177 C   0  0  0  0  0  0  0  0  0  0  0  0
  130.7302  131.6694  155.5132 C   0  0  0  0  0  0  0  0  0  0  0  0
  130.5394  132.3779  154.3279 C   0  0  0  0  0  0  0  0  0  0  0  0
  130.8220  131.7823  153.1168 C   0  0  0  0  0  0  0  0  0  0  0  0
  131.2861  130.4729  153.0767 C   0  0  0  0  0  0  0  0  0  0  0  0
  131.5665  129.8696  151.8482 N   0  0  0  0  0  0  0  0  0  0  0  0
  131.4712  129.7625  154.2568 C   0  0  0  0  0  0  0  0  0  0  0  0
  131.1954  130.3560  155.4705 C   0  0  0  0  0  0  0  0  0  0  0  0
  130.5287  133.6342  157.0970 N   0  0  0  0  0  0  0  0  0  0  0  0
  130.8047  134.3224  156.4716 H   0  0  0  0  0  0  0  0  0  0  0  0
  127.9198  135.8688  159.5039 C   0  0  1  0  0  0  0  0  0  0  0  0
  128.0248  136.9353  159.3055 H   0  0  0  0  0  0  0  0  0  0  0  0
  127.5236  135.1132  158.2111 C   0  0  0  0  0  0  0  0  0  0  0  0
  125.9943  135.3542  158.1311 C   0  0  0  0  0  0  0  0  0  0  0  0
  125.5209  135.2852  159.5978 C   0  0  0  0  0  0  0  0  0  0  0  0
  126.7453  135.6124  160.4706 C   0  0  1  0  0  0  0  0  0  0  0  0
  127.0468  134.5072  161.3249 O   0  0  0  0  0  0  0  0  0  0  0  0
  130.5133  135.8358  162.0451 C   0  0  0  0  0  0  0  0  0  0  0  0
  130.7033  134.3463  162.1727 C   0  0  0  0  0  0  0  0  0  0  0  0
  129.2533  133.5920  163.2654 Br  0  0  0  0  0  0  0  0  0  0  0  0
  131.1441  136.7296  163.0702 C   0  0  0  0  0  0  0  0  0  0  0  0
  133.1914  139.0509  162.6784 H   0  0  0  0  0  0  0  0  0  0  0  0
  131.8465  140.0718  163.2417 H   0  0  0  0  0  0  0  0  0  0  0  0
  132.4261  138.7260  164.2522 H   0  0  0  0  0  0  0  0  0  0  0  0
  131.8195  140.1809  160.9047 H   0  0  0  0  0  0  0  0  0  0  0  0
  130.1660  140.2149  160.2465 H   0  0  0  0  0  0  0  0  0  0  0  0
  130.4607  140.6863  161.9375 H   0  0  0  0  0  0  0  0  0  0  0  0
  128.5606  137.9989  161.1880 H   0  0  0  0  0  0  0  0  0  0  0  0
  129.6256  137.9676  159.7674 H   0  0  0  0  0  0  0  0  0  0  0  0
  129.0109  134.3637  160.5926 H   0  0  0  0  0  0  0  0  0  0  0  0
  130.7854  135.7610  158.7199 H   0  0  0  0  0  0  0  0  0  0  0  0
  129.8320  130.6177  158.0525 H   0  0  0  0  0  0  0  0  0  0  0  0
  130.1746  133.3940  154.3584 H   0  0  0  0  0  0  0  0  0  0  0  0
  130.6786  132.3323  152.1985 H   0  0  0  0  0  0  0  0  0  0  0  0
  131.8902  128.9557  151.8194 H   0  0  0  0  0  0  0  0  0  0  0  0
  131.4377  130.3647  151.0242 H   0  0  0  0  0  0  0  0  0  0  0  0
  131.8316  128.7449  154.2233 H   0  0  0  0  0  0  0  0  0  0  0  0
  131.3400  129.8039  156.3874 H   0  0  0  0  0  0  0  0  0  0  0  0
  128.0297  135.5386  157.3445 H   0  0  0  0  0  0  0  0  0  0  0  0
  127.7417  134.0492  158.3033 H   0  0  0  0  0  0  0  0  0  0  0  0
  125.5152  134.5749  157.5385 H   0  0  0  0  0  0  0  0  0  0  0  0
  125.7847  136.3369  157.7085 H   0  0  0  0  0  0  0  0  0  0  0  0
  125.1566  134.2835  159.8258 H   0  0  0  0  0  0  0  0  0  0  0  0
  124.7323  136.0174  159.7712 H   0  0  0  0  0  0  0  0  0  0  0  0
  126.5517  136.5036  161.0675 H   0  0  0  0  0  0  0  0  0  0  0  0
  127.2670  133.6931  160.8519 H   0  0  0  0  0  0  0  0  0  0  0  0
  130.6858  133.8917  161.1821 H   0  0  0  0  0  0  0  0  0  0  0  0
  131.6618  134.1416  162.6495 H   0  0  0  0  0  0  0  0  0  0  0  0
  132.1359  136.3492  163.3142 H   0  0  0  0  0  0  0  0  0  0  0  0
  130.5300  136.7293  163.9707 H   0  0  0  0  0  0  0  0  0  0  0  0
  1  2  1  0
  1 34  1  0
  1 35  1  0
  1 36  1  0
  2 33  1  0
  2  3  2  0
  3  4  1  0
  3  5  1  0
  4 37  1  0
  4 38  1  0
  4 39  1  0
  5  6  1  0
  5 40  1  0
  5 41  1  0
  6  7  1  0
  6 30  2  0
  7  8  1  0
  7 23  1  0
  7 42  1  1
  8 43  1  0
  9  8  1  0
  9 21  2  0
  9 10  1  0
 10 11  1  0
 10 12  1  0
 12 13  2  0
 12 44  1  0
 13 14  1  0
 13 21  1  0
 14 20  1  0
 14 15  2  0
 15 16  1  0
 15 45  1  0
 16 17  2  0
 16 46  1  0
 17 18  1  0
 17 19  1  0
 18 47  1  0
 18 48  1  0
 19 20  2  0
 19 49  1  0
 20 50  1  0
 21 22  1  0
 23 24  1  6
 23 28  1  0
 23 25  1  0
 25 26  1  0
 25 51  1  0
 25 52  1  0
 26 27  1  0
 26 53  1  0
 26 54  1  0
 27 28  1  0
 27 55  1  0
 27 56  1  0
 28 29  1  0
 28 57  1  1
 29 58  1  0
 30 31  1  0
 30 33  1  0
 31 32  1  0
 31 59  1  0
 31 60  1  0
 33 61  1  0
 33 62  1  0
M  CHG  1  21   1
M  END
>  <DOCK_score>  (1) 
-58.839634

>  <SMILES>  (1) 
CC1=C(C)CC(C(Nc2[nH]cc(-c3ccc(N)cc3)[nH+]2)[C@H]2CCCC2O)=C(CBr)C1

$$$$
