CCC=CCC[N@@H+]1CCC(c2c[nH]c3ccccc23)C1
     RDKit          3D

 45 47  0  0  1  0  0  0  0  0999 V2000
  131.7657  128.7727  152.8225 C   0  0  0  0  0  0  0  0  0  0  0  0
  131.1870  130.0170  152.1459 C   0  0  0  0  0  0  0  0  0  0  0  0
  131.3183  131.1989  153.0716 C   0  0  0  0  0  0  0  0  0  0  0  0
  130.3569  131.4794  153.9161 C   0  0  0  0  0  0  0  0  0  0  0  0
  130.4882  132.6614  154.8416 C   0  0  0  0  0  0  0  0  0  0  0  0
  130.4248  132.1820  156.2932 C   0  0  0  0  0  0  0  0  0  0  0  0
  130.5527  133.3341  157.1954 N   0  0  2  0  0  0  0  0  0  0  0  0
  131.2420  133.9798  156.8403 H   0  0  0  0  0  0  0  0  0  0  0  0
  130.9299  132.8805  158.5516 C   0  0  0  0  0  0  0  0  0  0  0  0
  130.2155  133.8068  159.5530 C   0  0  0  0  0  0  0  0  0  0  0  0
  129.3928  134.7843  158.6825 C   0  0  2  0  0  0  0  0  0  0  0  0
  128.0464  135.0493  159.3054 C   0  0  0  0  0  0  0  0  0  0  0  0
  127.5684  136.2410  159.6972 C   0  0  0  0  0  0  0  0  0  0  0  0
  126.3116  136.0915  160.2170 N   0  0  0  0  0  0  0  0  0  0  0  0
  125.7634  136.8119  160.5653 H   0  0  0  0  0  0  0  0  0  0  0  0
  125.9407  134.7663  160.1711 C   0  0  0  0  0  0  0  0  0  0  0  0
  124.7952  134.0784  160.5587 C   0  0  0  0  0  0  0  0  0  0  0  0
  124.7221  132.7147  160.3778 C   0  0  0  0  0  0  0  0  0  0  0  0
  125.7811  132.0177  159.8119 C   0  0  0  0  0  0  0  0  0  0  0  0
  126.9153  132.6733  159.4241 C   0  0  0  0  0  0  0  0  0  0  0  0
  127.0084  134.0563  159.5924 C   0  0  0  0  0  0  0  0  0  0  0  0
  129.2412  134.0149  157.3464 C   0  0  0  0  0  0  0  0  0  0  0  0
  131.2204  128.5739  153.7451 H   0  0  0  0  0  0  0  0  0  0  0  0
  131.6709  127.9177  152.1530 H   0  0  0  0  0  0  0  0  0  0  0  0
  132.8183  128.9397  153.0515 H   0  0  0  0  0  0  0  0  0  0  0  0
  130.1346  129.8496  151.9170 H   0  0  0  0  0  0  0  0  0  0  0  0
  131.7324  130.2157  151.2233 H   0  0  0  0  0  0  0  0  0  0  0  0
  132.2050  131.8147  153.0387 H   0  0  0  0  0  0  0  0  0  0  0  0
  129.4703  130.8637  153.9489 H   0  0  0  0  0  0  0  0  0  0  0  0
  131.4424  133.1576  154.6642 H   0  0  0  0  0  0  0  0  0  0  0  0
  129.6741  133.3617  154.6544 H   0  0  0  0  0  0  0  0  0  0  0  0
  129.4706  131.6858  156.4707 H   0  0  0  0  0  0  0  0  0  0  0  0
  131.2388  131.4817  156.4805 H   0  0  0  0  0  0  0  0  0  0  0  0
  130.6059  131.8507  158.7022 H   0  0  0  0  0  0  0  0  0  0  0  0
  132.0099  132.9520  158.6802 H   0  0  0  0  0  0  0  0  0  0  0  0
  129.5554  133.2283  160.1991 H   0  0  0  0  0  0  0  0  0  0  0  0
  130.9456  134.3541  160.1493 H   0  0  0  0  0  0  0  0  0  0  0  0
  129.9362  135.7170  158.5310 H   0  0  0  0  0  0  0  0  0  0  0  0
  128.0976  137.1788  159.6145 H   0  0  0  0  0  0  0  0  0  0  0  0
  123.9661  134.6118  160.9995 H   0  0  0  0  0  0  0  0  0  0  0  0
  123.8322  132.1824  160.6796 H   0  0  0  0  0  0  0  0  0  0  0  0
  125.7074  130.9488  159.6767 H   0  0  0  0  0  0  0  0  0  0  0  0
  127.7349  132.1246  158.9842 H   0  0  0  0  0  0  0  0  0  0  0  0
  129.0695  134.7063  156.5215 H   0  0  0  0  0  0  0  0  0  0  0  0
  128.4343  133.2849  157.4121 H   0  0  0  0  0  0  0  0  0  0  0  0
  1  2  1  0
  1 23  1  0
  1 24  1  0
  1 25  1  0
  2  3  1  0
  2 26  1  0
  2 27  1  0
  3  4  2  0
  3 28  1  0
  4  5  1  0
  4 29  1  0
  5  6  1  0
  5 30  1  0
  5 31  1  0
  6  7  1  0
  6 32  1  0
  6 33  1  0
  7  8  1  6
  7 22  1  0
  7  9  1  0
  9 10  1  0
  9 34  1  0
  9 35  1  0
 10 11  1  0
 10 36  1  0
 10 37  1  0
 11 12  1  0
 11 22  1  0
 11 38  1  6
 12 21  1  0
 12 13  2  0
 13 14  1  0
 13 39  1  0
 14 15  1  0
 14 16  1  0
 16 21  2  0
 16 17  1  0
 17 18  2  0
 17 40  1  0
 18 19  1  0
 18 41  1  0
 19 20  2  0
 19 42  1  0
 20 21  1  0
 20 43  1  0
 22 44  1  0
 22 45  1  0
M  CHG  1   7   1
M  END
>  <DOCK_score>  (1) 
-43.792355

>  <SMILES>  (1) 
CCC=CCC[N@@H+]1CCC(c2c[nH]c3ccccc23)C1

$$$$
