CCOC(=O)c1oc2ccc(-c3ccc(N)cc3)cc2c1C[NH2+][C@H]1COC2(CC2)C1
     RDKit          3D

 57 61  0  0  1  0  0  0  0  0999 V2000
  125.0314  134.3422  159.7474 C   0  0  0  0  0  0  0  0  0  0  0  0
  126.1567  133.9093  160.6895 C   0  0  0  0  0  0  0  0  0  0  0  0
  127.3023  134.7829  160.5087 O   0  0  0  0  0  0  0  0  0  0  0  0
  127.3582  135.8871  161.2809 C   0  0  0  0  0  0  0  0  0  0  0  0
  126.4732  136.1131  162.0833 O   0  0  0  0  0  0  0  0  0  0  0  0
  128.4876  136.8161  161.1526 C   0  0  0  0  0  0  0  0  0  0  0  0
  128.4295  138.1450  161.3796 O   0  0  0  0  0  0  0  0  0  0  0  0
  129.6313  138.7203  161.1763 C   0  0  0  0  0  0  0  0  0  0  0  0
  130.0838  140.0323  161.2741 C   0  0  0  0  0  0  0  0  0  0  0  0
  131.3970  140.3328  160.9986 C   0  0  0  0  0  0  0  0  0  0  0  0
  132.2935  139.3283  160.6176 C   0  0  0  0  0  0  0  0  0  0  0  0
  133.7072  139.6688  160.3231 C   0  0  0  0  0  0  0  0  0  0  0  0
  134.4296  138.9133  159.4011 C   0  0  0  0  0  0  0  0  0  0  0  0
  135.7418  139.2343  159.1255 C   0  0  0  0  0  0  0  0  0  0  0  0
  136.3477  140.3043  159.7741 C   0  0  0  0  0  0  0  0  0  0  0  0
  137.6779  140.6246  159.4971 N   0  0  0  0  0  0  0  0  0  0  0  0
  135.6306  141.0558  160.6978 C   0  0  0  0  0  0  0  0  0  0  0  0
  134.3166  140.7413  160.9725 C   0  0  0  0  0  0  0  0  0  0  0  0
  131.8599  138.0148  160.5101 C   0  0  0  0  0  0  0  0  0  0  0  0
  130.5287  137.7053  160.7931 C   0  0  0  0  0  0  0  0  0  0  0  0
  129.7490  136.4677  160.7869 C   0  0  0  0  0  0  0  0  0  0  0  0
  130.2442  135.0864  160.4440 C   0  0  0  0  0  0  0  0  0  0  0  0
  130.0785  134.8501  159.0037 N   0  0  0  0  0  0  0  0  0  0  0  0
  129.1024  134.9274  158.7603 H   0  0  0  0  0  0  0  0  0  0  0  0
  130.6092  135.5355  158.4872 H   0  0  0  0  0  0  0  0  0  0  0  0
  130.5613  133.5035  158.6695 C   0  0  1  0  0  0  0  0  0  0  0  0
  131.4717  133.2706  159.2219 H   0  0  0  0  0  0  0  0  0  0  0  0
  129.4649  132.4407  158.9368 C   0  0  0  0  0  0  0  0  0  0  0  0
  129.8182  131.3589  158.0464 O   0  0  0  0  0  0  0  0  0  0  0  0
  130.2541  131.9558  156.8172 C   0  0  0  0  0  0  0  0  0  0  0  0
  130.9057  131.1113  155.7246 C   0  0  0  0  0  0  0  0  0  0  0  0
  129.5063  131.6937  155.5118 C   0  0  0  0  0  0  0  0  0  0  0  0
  130.7886  133.3607  157.1441 C   0  0  0  0  0  0  0  0  0  0  0  0
  124.7443  135.3694  159.9724 H   0  0  0  0  0  0  0  0  0  0  0  0
  125.3772  134.2793  158.7155 H   0  0  0  0  0  0  0  0  0  0  0  0
  124.1714  133.6865  159.8830 H   0  0  0  0  0  0  0  0  0  0  0  0
  126.4438  132.8821  160.4644 H   0  0  0  0  0  0  0  0  0  0  0  0
  125.8110  133.9722  161.7213 H   0  0  0  0  0  0  0  0  0  0  0  0
  129.4018  140.8167  161.5677 H   0  0  0  0  0  0  0  0  0  0  0  0
  131.7399  141.3540  161.0776 H   0  0  0  0  0  0  0  0  0  0  0  0
  133.9608  138.0792  158.9003 H   0  0  0  0  0  0  0  0  0  0  0  0
  136.3009  138.6515  158.4084 H   0  0  0  0  0  0  0  0  0  0  0  0
  138.1011  141.3712  159.9491 H   0  0  0  0  0  0  0  0  0  0  0  0
  138.1789  140.1007  158.8526 H   0  0  0  0  0  0  0  0  0  0  0  0
  136.1031  141.8864  161.2009 H   0  0  0  0  0  0  0  0  0  0  0  0
  133.7597  141.3257  161.6898 H   0  0  0  0  0  0  0  0  0  0  0  0
  132.5477  137.2374  160.2115 H   0  0  0  0  0  0  0  0  0  0  0  0
  131.2988  135.0029  160.7070 H   0  0  0  0  0  0  0  0  0  0  0  0
  129.6710  134.3459  161.0020 H   0  0  0  0  0  0  0  0  0  0  0  0
  129.4963  132.1098  159.9748 H   0  0  0  0  0  0  0  0  0  0  0  0
  128.4796  132.8353  158.6886 H   0  0  0  0  0  0  0  0  0  0  0  0
  131.7276  131.5585  155.1655 H   0  0  0  0  0  0  0  0  0  0  0  0
  130.9833  130.0378  155.8971 H   0  0  0  0  0  0  0  0  0  0  0  0
  128.6634  131.0034  155.5444 H   0  0  0  0  0  0  0  0  0  0  0  0
  129.4072  132.5242  154.8129 H   0  0  0  0  0  0  0  0  0  0  0  0
  130.2254  134.1197  156.6013 H   0  0  0  0  0  0  0  0  0  0  0  0
  131.8505  133.4298  156.9081 H   0  0  0  0  0  0  0  0  0  0  0  0
  1  2  1  0
  1 34  1  0
  1 35  1  0
  1 36  1  0
  2  3  1  0
  2 37  1  0
  2 38  1  0
  3  4  1  0
  4  5  2  0
  4  6  1  0
  6 21  2  0
  6  7  1  0
  7  8  1  0
  8 20  2  0
  8  9  1  0
  9 10  2  0
  9 39  1  0
 10 11  1  0
 10 40  1  0
 11 12  1  0
 11 19  2  0
 12 18  1  0
 12 13  2  0
 13 14  1  0
 13 41  1  0
 14 15  2  0
 14 42  1  0
 15 16  1  0
 15 17  1  0
 16 43  1  0
 16 44  1  0
 17 18  2  0
 17 45  1  0
 18 46  1  0
 19 20  1  0
 19 47  1  0
 20 21  1  0
 21 22  1  0
 22 23  1  0
 22 48  1  0
 22 49  1  0
 23 24  1  0
 23 25  1  0
 23 26  1  0
 26 27  1  1
 26 33  1  0
 26 28  1  0
 28 29  1  0
 28 50  1  0
 28 51  1  0
 29 30  1  0
 30 32  1  0
 30 31  1  0
 30 33  1  0
 31 32  1  0
 31 52  1  0
 31 53  1  0
 32 54  1  0
 32 55  1  0
 33 56  1  0
 33 57  1  0
M  CHG  1  23   1
M  END
>  <DOCK_score>  (1) 
-43.511898

>  <SMILES>  (1) 
CCOC(=O)c1oc2ccc(-c3ccc(N)cc3)cc2c1C[NH2+][C@H]1COC2(CC2)C1

$$$$
