O=C1CC[C@H](NC(NC2COc3ccc(C4CC4)cc3C2)=[NH+]C2CC2)CN1
     RDKit          3D

 56 60  0  0  1  0  0  0  0  0999 V2000
  123.8609  134.0241  162.1391 O   0  0  0  0  0  0  0  0  0  0  0  0
  125.0296  134.2498  161.9067 C   0  0  0  0  0  0  0  0  0  0  0  0
  125.8844  133.1228  161.4022 C   0  0  0  0  0  0  0  0  0  0  0  0
  127.3642  133.4688  161.5860 C   0  0  0  0  0  0  0  0  0  0  0  0
  127.6048  134.8782  161.0318 C   0  0  2  0  0  0  0  0  0  0  0  0
  127.2212  134.9412  160.0135 H   0  0  0  0  0  0  0  0  0  0  0  0
  129.0406  135.1690  161.0349 N   0  0  0  0  0  0  0  0  0  0  0  0
  129.8075  134.8573  159.9372 C   0  0  0  0  0  0  0  0  0  0  0  0
  130.9172  135.6116  159.6373 N   0  0  0  0  0  0  0  0  0  0  0  0
  131.2825  136.7475  160.4875 C   0  0  2  0  0  0  0  0  0  0  0  0
  130.6219  138.0254  159.9548 C   0  0  0  0  0  0  0  0  0  0  0  0
  130.9106  139.0924  160.8594 O   0  0  0  0  0  0  0  0  0  0  0  0
  132.2011  139.2655  161.2462 C   0  0  0  0  0  0  0  0  0  0  0  0
  132.5651  140.4796  161.8203 C   0  0  0  0  0  0  0  0  0  0  0  0
  133.8654  140.6920  162.2298 C   0  0  0  0  0  0  0  0  0  0  0  0
  134.8112  139.6959  162.0698 C   0  0  0  0  0  0  0  0  0  0  0  0
  136.2314  139.9260  162.5185 C   0  0  0  0  0  0  0  0  0  0  0  0
  136.9298  141.1964  162.0294 C   0  0  0  0  0  0  0  0  0  0  0  0
  137.3308  139.8340  161.4584 C   0  0  0  0  0  0  0  0  0  0  0  0
  134.4539  138.4902  161.4992 C   0  0  0  0  0  0  0  0  0  0  0  0
  133.1504  138.2718  161.0847 C   0  0  0  0  0  0  0  0  0  0  0  0
  132.8003  136.9445  160.4613 C   0  0  0  0  0  0  0  0  0  0  0  0
  129.4826  133.8469  159.1809 N   0  0  0  0  0  0  0  0  0  0  0  0
  128.5519  133.5891  159.0892 H   0  0  0  0  0  0  0  0  0  0  0  0
  130.5228  133.1002  158.4691 C   0  0  0  0  0  0  0  0  0  0  0  0
  130.5611  133.2209  156.9442 C   0  0  0  0  0  0  0  0  0  0  0  0
  130.0773  131.9245  157.5972 C   0  0  0  0  0  0  0  0  0  0  0  0
  126.8749  135.8880  161.9183 C   0  0  0  0  0  0  0  0  0  0  0  0
  125.4871  135.4853  162.1132 N   0  0  0  0  0  0  0  0  0  0  0  0
  125.6797  132.9587  160.3442 H   0  0  0  0  0  0  0  0  0  0  0  0
  125.6528  132.2152  161.9595 H   0  0  0  0  0  0  0  0  0  0  0  0
  127.9790  132.7511  161.0432 H   0  0  0  0  0  0  0  0  0  0  0  0
  127.6181  133.4429  162.6458 H   0  0  0  0  0  0  0  0  0  0  0  0
  129.4503  135.5815  161.8114 H   0  0  0  0  0  0  0  0  0  0  0  0
  131.4583  135.3916  158.8629 H   0  0  0  0  0  0  0  0  0  0  0  0
  130.9536  136.5625  161.5099 H   0  0  0  0  0  0  0  0  0  0  0  0
  129.5435  137.8813  159.8893 H   0  0  0  0  0  0  0  0  0  0  0  0
  131.0217  138.2618  158.9688 H   0  0  0  0  0  0  0  0  0  0  0  0
  131.8272  141.2583  161.9459 H   0  0  0  0  0  0  0  0  0  0  0  0
  134.1445  141.6357  162.6748 H   0  0  0  0  0  0  0  0  0  0  0  0
  136.4698  139.5753  163.5225 H   0  0  0  0  0  0  0  0  0  0  0  0
  136.3620  141.8658  161.3831 H   0  0  0  0  0  0  0  0  0  0  0  0
  137.6279  141.6813  162.7116 H   0  0  0  0  0  0  0  0  0  0  0  0
  138.2926  139.4231  161.7652 H   0  0  0  0  0  0  0  0  0  0  0  0
  137.0269  139.6067  160.4365 H   0  0  0  0  0  0  0  0  0  0  0  0
  135.1944  137.7139  161.3753 H   0  0  0  0  0  0  0  0  0  0  0  0
  133.1511  136.9245  159.4294 H   0  0  0  0  0  0  0  0  0  0  0  0
  133.2798  136.1424  161.0223 H   0  0  0  0  0  0  0  0  0  0  0  0
  131.4753  133.0072  158.9909 H   0  0  0  0  0  0  0  0  0  0  0  0
  129.8122  133.8558  156.4707 H   0  0  0  0  0  0  0  0  0  0  0  0
  131.5388  133.2076  156.4627 H   0  0  0  0  0  0  0  0  0  0  0  0
  130.7370  131.0583  157.5451 H   0  0  0  0  0  0  0  0  0  0  0  0
  129.0104  131.7065  157.5531 H   0  0  0  0  0  0  0  0  0  0  0  0
  127.3715  135.9420  162.8871 H   0  0  0  0  0  0  0  0  0  0  0  0
  126.9052  136.8701  161.4462 H   0  0  0  0  0  0  0  0  0  0  0  0
  124.8562  136.1600  162.4096 H   0  0  0  0  0  0  0  0  0  0  0  0
  1  2  2  0
  2 29  1  0
  2  3  1  0
  3  4  1  0
  3 30  1  0
  3 31  1  0
  4  5  1  0
  4 32  1  0
  4 33  1  0
  5  6  1  6
  5  7  1  0
  5 28  1  0
  7 34  1  0
  8  7  1  0
  8  9  1  0
  8 23  2  0
  9 10  1  0
  9 35  1  0
 10 22  1  0
 10 11  1  0
 10 36  1  1
 11 12  1  0
 11 37  1  0
 11 38  1  0
 12 13  1  0
 13 21  2  0
 13 14  1  0
 14 15  2  0
 14 39  1  0
 15 16  1  0
 15 40  1  0
 16 17  1  0
 16 20  2  0
 17 19  1  0
 17 18  1  0
 17 41  1  0
 18 19  1  0
 18 42  1  0
 18 43  1  0
 19 44  1  0
 19 45  1  0
 20 21  1  0
 20 46  1  0
 21 22  1  0
 22 47  1  0
 22 48  1  0
 23 24  1  0
 23 25  1  0
 25 27  1  0
 25 26  1  0
 25 49  1  0
 26 27  1  0
 26 50  1  0
 26 51  1  0
 27 52  1  0
 27 53  1  0
 28 29  1  0
 28 54  1  0
 28 55  1  0
 29 56  1  0
M  CHG  1  23   1
M  END
>  <DOCK_score>  (1) 
-47.095005

>  <SMILES>  (1) 
O=C1CC[C@H](NC(NC2COc3ccc(C4CC4)cc3C2)=[NH+]C2CC2)CN1

$$$$
