O=C(NC[C@H]1CCCc2[nH+]ccn21)Nc1sccc1C(=O)C(c1ccccc1)c1ccccc1
     RDKit          3D

 61 65  0  0  1  0  0  0  0  0999 V2000
  132.4182  133.1102  160.1491 O   0  0  0  0  0  0  0  0  0  0  0  0
  132.2478  134.1002  159.4644 C   0  0  0  0  0  0  0  0  0  0  0  0
  131.6778  133.9886  158.2482 N   0  0  0  0  0  0  0  0  0  0  0  0
  131.2635  132.6742  157.7513 C   0  0  0  0  0  0  0  0  0  0  0  0
  129.8176  132.4028  158.1714 C   0  0  1  0  0  0  0  0  0  0  0  0
  129.3912  131.6284  157.5337 H   0  0  0  0  0  0  0  0  0  0  0  0
  129.7852  131.9406  159.6323 C   0  0  0  0  0  0  0  0  0  0  0  0
  128.3355  131.9052  160.1252 C   0  0  0  0  0  0  0  0  0  0  0  0
  127.8062  133.3403  160.2422 C   0  0  0  0  0  0  0  0  0  0  0  0
  128.1302  134.0691  158.9595 C   0  0  0  0  0  0  0  0  0  0  0  0
  127.6199  135.1884  158.5363 N   0  0  0  0  0  0  0  0  0  0  0  0
  126.9491  135.7116  159.0023 H   0  0  0  0  0  0  0  0  0  0  0  0
  128.1684  135.5042  157.3520 C   0  0  0  0  0  0  0  0  0  0  0  0
  129.0548  134.5400  157.0311 C   0  0  0  0  0  0  0  0  0  0  0  0
  129.0313  133.6324  158.0479 N   0  0  0  0  0  0  0  0  0  0  0  0
  132.6292  135.3094  159.9214 N   0  0  0  0  0  0  0  0  0  0  0  0
  133.2146  135.4240  161.1701 C   0  0  0  0  0  0  0  0  0  0  0  0
  134.1571  134.2146  161.9143 S   0  0  0  0  0  0  0  0  0  0  0  0
  134.4318  135.1956  163.3425 C   0  0  0  0  0  0  0  0  0  0  0  0
  133.8348  136.3716  163.2309 C   0  0  0  0  0  0  0  0  0  0  0  0
  133.1161  136.5307  161.9829 C   0  0  0  0  0  0  0  0  0  0  0  0
  132.3978  137.6964  161.6355 C   0  0  0  0  0  0  0  0  0  0  0  0
  131.4257  137.6177  160.9116 O   0  0  0  0  0  0  0  0  0  0  0  0
  132.8375  139.0377  162.1633 C   0  0  0  0  0  0  0  0  0  0  0  0
  131.6377  139.9378  162.3098 C   0  0  0  0  0  0  0  0  0  0  0  0
  131.2429  140.7405  161.2558 C   0  0  0  0  0  0  0  0  0  0  0  0
  130.1418  141.5654  161.3900 C   0  0  0  0  0  0  0  0  0  0  0  0
  129.4354  141.5874  162.5779 C   0  0  0  0  0  0  0  0  0  0  0  0
  129.8333  140.7887  163.6338 C   0  0  0  0  0  0  0  0  0  0  0  0
  130.9319  139.9605  163.4981 C   0  0  0  0  0  0  0  0  0  0  0  0
  133.8173  139.6593  161.2015 C   0  0  0  0  0  0  0  0  0  0  0  0
  134.7980  140.5137  161.6698 C   0  0  0  0  0  0  0  0  0  0  0  0
  135.6996  141.0801  160.7883 C   0  0  0  0  0  0  0  0  0  0  0  0
  135.6141  140.8003  159.4373 C   0  0  0  0  0  0  0  0  0  0  0  0
  134.6301  139.9501  158.9684 C   0  0  0  0  0  0  0  0  0  0  0  0
  133.7317  139.3796  159.8505 C   0  0  0  0  0  0  0  0  0  0  0  0
  131.5420  134.7785  157.7019 H   0  0  0  0  0  0  0  0  0  0  0  0
  131.3351  132.6577  156.6638 H   0  0  0  0  0  0  0  0  0  0  0  0
  131.9138  131.9060  158.1700 H   0  0  0  0  0  0  0  0  0  0  0  0
  130.2188  130.9435  159.7076 H   0  0  0  0  0  0  0  0  0  0  0  0
  130.3604  132.6342  160.2456 H   0  0  0  0  0  0  0  0  0  0  0  0
  127.7234  131.3483  159.4159 H   0  0  0  0  0  0  0  0  0  0  0  0
  128.2944  131.4206  161.1007 H   0  0  0  0  0  0  0  0  0  0  0  0
  126.7268  133.3229  160.3926 H   0  0  0  0  0  0  0  0  0  0  0  0
  128.2870  133.8421  161.0819 H   0  0  0  0  0  0  0  0  0  0  0  0
  127.9392  136.3777  156.7596 H   0  0  0  0  0  0  0  0  0  0  0  0
  129.6645  134.4951  156.1407 H   0  0  0  0  0  0  0  0  0  0  0  0
  132.4934  136.0994  159.3751 H   0  0  0  0  0  0  0  0  0  0  0  0
  135.0138  134.8833  164.1970 H   0  0  0  0  0  0  0  0  0  0  0  0
  133.8766  137.1345  163.9942 H   0  0  0  0  0  0  0  0  0  0  0  0
  133.3147  138.9074  163.1345 H   0  0  0  0  0  0  0  0  0  0  0  0
  131.7944  140.7227  160.3275 H   0  0  0  0  0  0  0  0  0  0  0  0
  129.8333  142.1924  160.5666 H   0  0  0  0  0  0  0  0  0  0  0  0
  128.5751  142.2319  162.6828 H   0  0  0  0  0  0  0  0  0  0  0  0
  129.2840  140.8091  164.5633 H   0  0  0  0  0  0  0  0  0  0  0  0
  131.2400  139.3332  164.3214 H   0  0  0  0  0  0  0  0  0  0  0  0
  134.8620  140.7357  162.7248 H   0  0  0  0  0  0  0  0  0  0  0  0
  136.4681  141.7446  161.1545 H   0  0  0  0  0  0  0  0  0  0  0  0
  136.3158  141.2463  158.7479 H   0  0  0  0  0  0  0  0  0  0  0  0
  134.5630  139.7319  157.9128 H   0  0  0  0  0  0  0  0  0  0  0  0
  132.9627  138.7156  159.4842 H   0  0  0  0  0  0  0  0  0  0  0  0
  1  2  2  0
  2  3  1  0
  2 16  1  0
  3  4  1  0
  3 37  1  0
  4  5  1  0
  4 38  1  0
  4 39  1  0
  5  6  1  6
  5 15  1  0
  5  7  1  0
  7  8  1  0
  7 40  1  0
  7 41  1  0
  8  9  1  0
  8 42  1  0
  8 43  1  0
  9 44  1  0
  9 45  1  0
 10  9  1  0
 10 15  1  0
 10 11  2  0
 11 12  1  0
 11 13  1  0
 13 14  2  0
 13 46  1  0
 14 15  1  0
 14 47  1  0
 16 17  1  0
 16 48  1  0
 17 21  2  0
 17 18  1  0
 18 19  1  0
 19 20  2  0
 19 49  1  0
 20 21  1  0
 20 50  1  0
 21 22  1  0
 22 23  2  0
 22 24  1  0
 24 25  1  0
 24 31  1  0
 24 51  1  0
 25 30  1  0
 25 26  2  0
 26 27  1  0
 26 52  1  0
 27 28  2  0
 27 53  1  0
 28 29  1  0
 28 54  1  0
 29 30  2  0
 29 55  1  0
 30 56  1  0
 31 36  1  0
 31 32  2  0
 32 33  1  0
 32 57  1  0
 33 34  2  0
 33 58  1  0
 34 35  1  0
 34 59  1  0
 35 36  2  0
 35 60  1  0
 36 61  1  0
M  CHG  1  11   1
M  END
>  <DOCK_score>  (1) 
-59.200169

>  <SMILES>  (1) 
O=C(NC[C@H]1CCCc2[nH+]ccn21)Nc1sccc1C(=O)C(c1ccccc1)c1ccccc1

$$$$
