C[C@@H]([NH2+]C1C=CCCC1)c1cnc(SCC2C=CCC2)c(N[C@H]2CCC(=O)NC2)c1
     RDKit          3D

 65 68  0  0  1  0  0  0  0  0999 V2000
  132.5677  134.8267  160.1556 C   0  0  0  0  0  0  0  0  0  0  0  0
  131.8875  136.1041  160.6521 C   0  0  1  0  0  0  0  0  0  0  0  0
  132.1516  136.2741  161.6958 H   0  0  0  0  0  0  0  0  0  0  0  0
  132.3355  137.2444  159.8416 N   0  0  0  0  0  0  0  0  0  0  0  0
  131.6743  138.0012  159.9312 H   0  0  0  0  0  0  0  0  0  0  0  0
  132.3981  136.9653  158.8740 H   0  0  0  0  0  0  0  0  0  0  0  0
  133.6551  137.6892  160.3093 C   0  0  1  0  0  0  0  0  0  0  0  0
  134.3264  138.4751  159.2213 C   0  0  0  0  0  0  0  0  0  0  0  0
  134.9796  139.5751  159.4185 C   0  0  0  0  0  0  0  0  0  0  0  0
  135.1482  140.2236  160.7613 C   0  0  0  0  0  0  0  0  0  0  0  0
  134.8303  139.2222  161.8739 C   0  0  0  0  0  0  0  0  0  0  0  0
  133.4846  138.5571  161.5580 C   0  0  0  0  0  0  0  0  0  0  0  0
  130.3927  135.9573  160.5299 C   0  0  0  0  0  0  0  0  0  0  0  0
  129.8494  135.1664  159.5378 C   0  0  0  0  0  0  0  0  0  0  0  0
  128.5419  135.0235  159.4218 N   0  0  0  0  0  0  0  0  0  0  0  0
  127.7004  135.6368  160.2382 C   0  0  0  0  0  0  0  0  0  0  0  0
  125.9645  135.4154  160.0325 S   0  0  0  0  0  0  0  0  0  0  0  0
  125.8458  133.7426  159.3409 C   0  0  0  0  0  0  0  0  0  0  0  0
  126.4541  132.7401  160.3236 C   0  0  2  0  0  0  0  0  0  0  0  0
  126.2661  131.3282  159.8193 C   0  0  0  0  0  0  0  0  0  0  0  0
  125.8630  130.5378  160.7794 C   0  0  0  0  0  0  0  0  0  0  0  0
  125.7199  131.2912  162.0814 C   0  0  0  0  0  0  0  0  0  0  0  0
  125.6992  132.7822  161.6726 C   0  0  0  0  0  0  0  0  0  0  0  0
  128.1780  136.4584  161.2630 C   0  0  0  0  0  0  0  0  0  0  0  0
  127.2882  137.1070  162.1273 N   0  0  0  0  0  0  0  0  0  0  0  0
  127.8012  137.9657  163.1976 C   0  0  1  0  0  0  0  0  0  0  0  0
  128.6835  137.5066  163.6435 H   0  0  0  0  0  0  0  0  0  0  0  0
  128.1703  139.3389  162.6233 C   0  0  0  0  0  0  0  0  0  0  0  0
  128.8696  140.1490  163.7178 C   0  0  0  0  0  0  0  0  0  0  0  0
  128.0685  140.0919  164.9867 C   0  0  0  0  0  0  0  0  0  0  0  0
  128.2906  140.9208  165.8436 O   0  0  0  0  0  0  0  0  0  0  0  0
  127.1255  139.1785  165.2214 N   0  0  0  0  0  0  0  0  0  0  0  0
  126.7225  138.1553  164.2648 C   0  0  0  0  0  0  0  0  0  0  0  0
  129.5489  136.6212  161.4108 C   0  0  0  0  0  0  0  0  0  0  0  0
  133.6390  134.8878  160.3468 H   0  0  0  0  0  0  0  0  0  0  0  0
  132.1531  133.9665  160.6809 H   0  0  0  0  0  0  0  0  0  0  0  0
  132.3955  134.7161  159.0848 H   0  0  0  0  0  0  0  0  0  0  0  0
  134.2637  136.8189  160.5546 H   0  0  0  0  0  0  0  0  0  0  0  0
  134.2609  138.0993  158.2109 H   0  0  0  0  0  0  0  0  0  0  0  0
  135.4316  140.0559  158.5636 H   0  0  0  0  0  0  0  0  0  0  0  0
  134.4729  141.0757  160.8384 H   0  0  0  0  0  0  0  0  0  0  0  0
  136.1763  140.5690  160.8692 H   0  0  0  0  0  0  0  0  0  0  0  0
  134.7659  139.7438  162.8289 H   0  0  0  0  0  0  0  0  0  0  0  0
  135.6114  138.4637  161.9226 H   0  0  0  0  0  0  0  0  0  0  0  0
  132.7319  139.3232  161.3718 H   0  0  0  0  0  0  0  0  0  0  0  0
  133.1741  137.9347  162.3972 H   0  0  0  0  0  0  0  0  0  0  0  0
  130.5038  134.6529  158.8489 H   0  0  0  0  0  0  0  0  0  0  0  0
  124.7984  133.4938  159.1696 H   0  0  0  0  0  0  0  0  0  0  0  0
  126.3884  133.7005  158.3965 H   0  0  0  0  0  0  0  0  0  0  0  0
  127.5127  132.9518  160.4742 H   0  0  0  0  0  0  0  0  0  0  0  0
  126.4400  131.0152  158.8005 H   0  0  0  0  0  0  0  0  0  0  0  0
  125.6602  129.4840  160.6579 H   0  0  0  0  0  0  0  0  0  0  0  0
  126.5697  131.0879  162.7332 H   0  0  0  0  0  0  0  0  0  0  0  0
  124.7881  131.0206  162.5782 H   0  0  0  0  0  0  0  0  0  0  0  0
  126.2318  133.3950  162.4000 H   0  0  0  0  0  0  0  0  0  0  0  0
  124.6772  133.1370  161.5382 H   0  0  0  0  0  0  0  0  0  0  0  0
  126.3317  136.9879  162.0176 H   0  0  0  0  0  0  0  0  0  0  0  0
  128.8419  139.2130  161.7741 H   0  0  0  0  0  0  0  0  0  0  0  0
  127.2666  139.8578  162.3035 H   0  0  0  0  0  0  0  0  0  0  0  0
  129.8617  139.7345  163.8970 H   0  0  0  0  0  0  0  0  0  0  0  0
  128.9645  141.1860  163.3958 H   0  0  0  0  0  0  0  0  0  0  0  0
  126.6798  139.1963  166.0829 H   0  0  0  0  0  0  0  0  0  0  0  0
  125.7909  138.4567  163.7861 H   0  0  0  0  0  0  0  0  0  0  0  0
  126.5658  137.2131  164.7900 H   0  0  0  0  0  0  0  0  0  0  0  0
  129.9499  137.2495  162.1924 H   0  0  0  0  0  0  0  0  0  0  0  0
  1  2  1  0
  1 35  1  0
  1 36  1  0
  1 37  1  0
  2  3  1  1
  2  4  1  0
  2 13  1  0
  4  5  1  0
  4  6  1  0
  4  7  1  0
  7 12  1  0
  7  8  1  0
  7 38  1  1
  8  9  2  0
  8 39  1  0
  9 10  1  0
  9 40  1  0
 10 11  1  0
 10 41  1  0
 10 42  1  0
 11 12  1  0
 11 43  1  0
 11 44  1  0
 12 45  1  0
 12 46  1  0
 13 34  1  0
 13 14  2  0
 14 15  1  0
 14 47  1  0
 15 16  2  0
 16 17  1  0
 16 24  1  0
 17 18  1  0
 18 19  1  0
 18 48  1  0
 18 49  1  0
 19 23  1  0
 19 20  1  0
 19 50  1  1
 20 21  2  0
 20 51  1  0
 21 22  1  0
 21 52  1  0
 22 23  1  0
 22 53  1  0
 22 54  1  0
 23 55  1  0
 23 56  1  0
 24 25  1  0
 24 34  2  0
 25 26  1  0
 25 57  1  0
 26 27  1  1
 26 33  1  0
 26 28  1  0
 28 29  1  0
 28 58  1  0
 28 59  1  0
 29 30  1  0
 29 60  1  0
 29 61  1  0
 30 31  2  0
 30 32  1  0
 32 33  1  0
 32 62  1  0
 33 63  1  0
 33 64  1  0
 34 65  1  0
M  CHG  1   4   1
M  END
>  <DOCK_score>  (1) 
-45.892258

>  <SMILES>  (1) 
C[C@@H]([NH2+]C1C=CCCC1)c1cnc(SCC2C=CCC2)c(N[C@H]2CCC(=O)NC2)c1

$$$$
