Nc1ccc(-c2c[nH]c(N[C@@H](CCc3cccc4ccccc34)C3COC3)[nH+]2)cc1
     RDKit          3D

 57 61  0  0  1  0  0  0  0  0999 V2000
  130.7610  130.0343  152.9065 N   0  0  0  0  0  0  0  0  0  0  0  0
  130.7632  130.7314  154.1170 C   0  0  0  0  0  0  0  0  0  0  0  0
  130.5090  132.0977  154.1314 C   0  0  0  0  0  0  0  0  0  0  0  0
  130.5107  132.7879  155.3252 C   0  0  0  0  0  0  0  0  0  0  0  0
  130.7674  132.1140  156.5183 C   0  0  0  0  0  0  0  0  0  0  0  0
  130.7696  132.8543  157.8039 C   0  0  0  0  0  0  0  0  0  0  0  0
  130.4315  132.3493  159.0160 C   0  0  0  0  0  0  0  0  0  0  0  0
  130.5742  133.3694  159.9267 N   0  0  0  0  0  0  0  0  0  0  0  0
  130.4059  133.3159  160.8805 H   0  0  0  0  0  0  0  0  0  0  0  0
  130.9955  134.4678  159.2428 C   0  0  0  0  0  0  0  0  0  0  0  0
  131.2586  135.7096  159.7951 N   0  0  0  0  0  0  0  0  0  0  0  0
  131.0874  135.9224  161.2344 C   0  0  1  0  0  0  0  0  0  0  0  0
  131.4470  135.0477  161.7763 H   0  0  0  0  0  0  0  0  0  0  0  0
  131.8858  137.1540  161.6665 C   0  0  0  0  0  0  0  0  0  0  0  0
  133.3589  136.7749  161.8305 C   0  0  0  0  0  0  0  0  0  0  0  0
  134.1454  137.9880  162.2560 C   0  0  0  0  0  0  0  0  0  0  0  0
  134.3072  138.2692  163.5781 C   0  0  0  0  0  0  0  0  0  0  0  0
  135.0314  139.3857  163.9906 C   0  0  0  0  0  0  0  0  0  0  0  0
  135.5971  140.2286  163.0836 C   0  0  0  0  0  0  0  0  0  0  0  0
  135.4512  139.9711  161.7101 C   0  0  0  0  0  0  0  0  0  0  0  0
  136.0215  140.8177  160.7440 C   0  0  0  0  0  0  0  0  0  0  0  0
  135.8602  140.5361  159.4224 C   0  0  0  0  0  0  0  0  0  0  0  0
  135.1360  139.4189  159.0098 C   0  0  0  0  0  0  0  0  0  0  0  0
  134.5696  138.5769  159.9165 C   0  0  0  0  0  0  0  0  0  0  0  0
  134.7152  138.8347  161.2905 C   0  0  0  0  0  0  0  0  0  0  0  0
  129.6052  136.1408  161.5449 C   0  0  0  0  0  0  0  0  0  0  0  0
  129.1340  137.5927  161.3395 C   0  0  0  0  0  0  0  0  0  0  0  0
  128.4265  137.4196  162.5838 O   0  0  0  0  0  0  0  0  0  0  0  0
  129.3106  136.3755  163.0384 C   0  0  0  0  0  0  0  0  0  0  0  0
  131.1057  134.1576  157.9740 N   0  0  0  0  0  0  0  0  0  0  0  0
  131.3850  134.7628  157.2693 H   0  0  0  0  0  0  0  0  0  0  0  0
  131.0276  130.7446  156.5009 C   0  0  0  0  0  0  0  0  0  0  0  0
  131.0188  130.0575  155.3053 C   0  0  0  0  0  0  0  0  0  0  0  0
  130.5823  130.5039  152.0767 H   0  0  0  0  0  0  0  0  0  0  0  0
  130.9382  129.0807  152.8956 H   0  0  0  0  0  0  0  0  0  0  0  0
  130.3106  132.6195  153.2068 H   0  0  0  0  0  0  0  0  0  0  0  0
  130.3129  133.8496  155.3359 H   0  0  0  0  0  0  0  0  0  0  0  0
  130.1113  131.3395  159.2258 H   0  0  0  0  0  0  0  0  0  0  0  0
  131.5563  136.4390  159.2290 H   0  0  0  0  0  0  0  0  0  0  0  0
  131.4979  137.5239  162.6156 H   0  0  0  0  0  0  0  0  0  0  0  0
  131.7930  137.9315  160.9083 H   0  0  0  0  0  0  0  0  0  0  0  0
  133.7469  136.4051  160.8813 H   0  0  0  0  0  0  0  0  0  0  0  0
  133.4519  135.9974  162.5887 H   0  0  0  0  0  0  0  0  0  0  0  0
  133.8681  137.6167  164.3184 H   0  0  0  0  0  0  0  0  0  0  0  0
  135.1450  139.5860  165.0458 H   0  0  0  0  0  0  0  0  0  0  0  0
  136.1588  141.0883  163.4180 H   0  0  0  0  0  0  0  0  0  0  0  0
  136.5848  141.6873  161.0488 H   0  0  0  0  0  0  0  0  0  0  0  0
  136.2994  141.1883  158.6822 H   0  0  0  0  0  0  0  0  0  0  0  0
  135.0223  139.2188  157.9546 H   0  0  0  0  0  0  0  0  0  0  0  0
  134.0109  137.7153  159.5821 H   0  0  0  0  0  0  0  0  0  0  0  0
  128.9586  135.3963  161.0803 H   0  0  0  0  0  0  0  0  0  0  0  0
  129.9372  138.3281  161.3875 H   0  0  0  0  0  0  0  0  0  0  0  0
  128.4819  137.7270  160.4764 H   0  0  0  0  0  0  0  0  0  0  0  0
  128.7985  135.5440  163.5229 H   0  0  0  0  0  0  0  0  0  0  0  0
  130.1684  136.7368  163.6058 H   0  0  0  0  0  0  0  0  0  0  0  0
  131.2311  130.2214  157.4235 H   0  0  0  0  0  0  0  0  0  0  0  0
  131.2160  128.9957  155.2918 H   0  0  0  0  0  0  0  0  0  0  0  0
  1  2  1  0
  1 34  1  0
  1 35  1  0
  2 33  2  0
  2  3  1  0
  3  4  2  0
  3 36  1  0
  4  5  1  0
  4 37  1  0
  5  6  1  0
  5 32  2  0
  6 30  1  0
  6  7  2  0
  7  8  1  0
  7 38  1  0
  8  9  1  0
  8 10  1  0
 10 11  1  0
 10 30  2  0
 11 12  1  0
 11 39  1  0
 12 13  1  1
 12 14  1  0
 12 26  1  0
 14 15  1  0
 14 40  1  0
 14 41  1  0
 15 16  1  0
 15 42  1  0
 15 43  1  0
 16 25  1  0
 16 17  2  0
 17 18  1  0
 17 44  1  0
 18 19  2  0
 18 45  1  0
 19 20  1  0
 19 46  1  0
 20 25  2  0
 20 21  1  0
 21 22  2  0
 21 47  1  0
 22 23  1  0
 22 48  1  0
 23 24  2  0
 23 49  1  0
 24 25  1  0
 24 50  1  0
 26 29  1  0
 26 27  1  0
 26 51  1  0
 27 28  1  0
 27 52  1  0
 27 53  1  0
 28 29  1  0
 29 54  1  0
 29 55  1  0
 30 31  1  0
 32 33  1  0
 32 56  1  0
 33 57  1  0
M  CHG  1  30   1
M  END
>  <DOCK_score>  (1) 
-58.723991

>  <SMILES>  (1) 
Nc1ccc(-c2c[nH]c(N[C@@H](CCc3cccc4ccccc34)C3COC3)[nH+]2)cc1

$$$$
