CCc1ccc([C@@](O)(c2ccccc2)C(Nc2[nH]cc(-c3ccc(N)cc3)[nH+]2)c2ccccc2)cc1
     RDKit          3D

 67 71  0  0  1  0  0  0  0  0999 V2000
  127.1785  137.2332  166.5573 C   0  0  0  0  0  0  0  0  0  0  0  0
  128.3162  138.1879  166.1900 C   0  0  0  0  0  0  0  0  0  0  0  0
  128.7456  137.9340  164.7679 C   0  0  0  0  0  0  0  0  0  0  0  0
  128.1433  138.6218  163.7308 C   0  0  0  0  0  0  0  0  0  0  0  0
  128.5368  138.3886  162.4264 C   0  0  0  0  0  0  0  0  0  0  0  0
  129.5331  137.4683  162.1589 C   0  0  0  0  0  0  0  0  0  0  0  0
  129.9620  137.2142  160.7368 C   0  0  1  0  0  0  0  0  0  0  0  0
  129.1979  138.0383  159.8542 O   0  0  0  0  0  0  0  0  0  0  0  0
  131.4257  137.5405  160.5876 C   0  0  0  0  0  0  0  0  0  0  0  0
  132.3777  136.5622  160.8055 C   0  0  0  0  0  0  0  0  0  0  0  0
  133.7206  136.8633  160.6757 C   0  0  0  0  0  0  0  0  0  0  0  0
  134.1114  138.1423  160.3257 C   0  0  0  0  0  0  0  0  0  0  0  0
  133.1593  139.1205  160.1073 C   0  0  0  0  0  0  0  0  0  0  0  0
  131.8166  138.8197  160.2385 C   0  0  0  0  0  0  0  0  0  0  0  0
  129.7298  135.7423  160.3894 C   0  0  2  0  0  0  0  0  0  0  0  0
  130.1467  135.4953  159.0069 N   0  0  0  0  0  0  0  0  0  0  0  0
  130.0300  134.2266  158.4649 C   0  0  0  0  0  0  0  0  0  0  0  0
  129.5514  133.1294  159.1119 N   0  0  0  0  0  0  0  0  0  0  0  0
  129.2333  133.0954  160.0276 H   0  0  0  0  0  0  0  0  0  0  0  0
  129.5986  132.0786  158.2265 C   0  0  0  0  0  0  0  0  0  0  0  0
  130.1129  132.5626  157.0690 C   0  0  0  0  0  0  0  0  0  0  0  0
  130.3537  131.7854  155.8286 C   0  0  0  0  0  0  0  0  0  0  0  0
  129.7106  132.1434  154.6447 C   0  0  0  0  0  0  0  0  0  0  0  0
  129.9404  131.4232  153.4915 C   0  0  0  0  0  0  0  0  0  0  0  0
  130.8035  130.3340  153.5115 C   0  0  0  0  0  0  0  0  0  0  0  0
  131.0301  129.6024  152.3432 N   0  0  0  0  0  0  0  0  0  0  0  0
  131.4413  129.9717  154.6920 C   0  0  0  0  0  0  0  0  0  0  0  0
  131.2189  130.6926  155.8463 C   0  0  0  0  0  0  0  0  0  0  0  0
  130.3677  133.8831  157.2458 N   0  0  0  0  0  0  0  0  0  0  0  0
  130.7407  134.4784  156.5768 H   0  0  0  0  0  0  0  0  0  0  0  0
  128.2661  135.4160  160.5385 C   0  0  0  0  0  0  0  0  0  0  0  0
  127.7791  134.9619  161.7498 C   0  0  0  0  0  0  0  0  0  0  0  0
  126.4356  134.6673  161.8880 C   0  0  0  0  0  0  0  0  0  0  0  0
  125.5810  134.8167  160.8118 C   0  0  0  0  0  0  0  0  0  0  0  0
  126.0689  135.2657  159.5989 C   0  0  0  0  0  0  0  0  0  0  0  0
  127.4115  135.5655  159.4623 C   0  0  0  0  0  0  0  0  0  0  0  0
  130.1319  136.7771  163.1955 C   0  0  0  0  0  0  0  0  0  0  0  0
  129.7412  137.0131  164.5003 C   0  0  0  0  0  0  0  0  0  0  0  0
  126.8680  137.4168  167.5859 H   0  0  0  0  0  0  0  0  0  0  0  0
  126.3345  137.3992  165.8879 H   0  0  0  0  0  0  0  0  0  0  0  0
  127.5226  136.2034  166.4600 H   0  0  0  0  0  0  0  0  0  0  0  0
  129.1603  138.0220  166.8593 H   0  0  0  0  0  0  0  0  0  0  0  0
  127.9723  139.2175  166.2873 H   0  0  0  0  0  0  0  0  0  0  0  0
  127.3653  139.3411  163.9398 H   0  0  0  0  0  0  0  0  0  0  0  0
  128.0662  138.9258  161.6161 H   0  0  0  0  0  0  0  0  0  0  0  0
  129.4214  137.9269  158.9200 H   0  0  0  0  0  0  0  0  0  0  0  0
  132.0724  135.5628  161.0782 H   0  0  0  0  0  0  0  0  0  0  0  0
  134.4642  136.0989  160.8456 H   0  0  0  0  0  0  0  0  0  0  0  0
  135.1604  138.3771  160.2224 H   0  0  0  0  0  0  0  0  0  0  0  0
  133.4648  140.1196  159.8338 H   0  0  0  0  0  0  0  0  0  0  0  0
  131.0727  139.5839  160.0679 H   0  0  0  0  0  0  0  0  0  0  0  0
  130.3125  135.1138  161.0625 H   0  0  0  0  0  0  0  0  0  0  0  0
  130.5046  136.2205  158.4713 H   0  0  0  0  0  0  0  0  0  0  0  0
  129.2900  131.0614  158.4180 H   0  0  0  0  0  0  0  0  0  0  0  0
  129.0361  132.9868  154.6297 H   0  0  0  0  0  0  0  0  0  0  0  0
  129.4459  131.7028  152.5730 H   0  0  0  0  0  0  0  0  0  0  0  0
  131.6318  128.8413  152.3568 H   0  0  0  0  0  0  0  0  0  0  0  0
  130.5846  129.8536  151.5193 H   0  0  0  0  0  0  0  0  0  0  0  0
  132.1116  129.1250  154.7054 H   0  0  0  0  0  0  0  0  0  0  0  0
  131.7151  130.4109  156.7634 H   0  0  0  0  0  0  0  0  0  0  0  0
  128.4475  134.8409  162.5895 H   0  0  0  0  0  0  0  0  0  0  0  0
  126.0544  134.3160  162.8354 H   0  0  0  0  0  0  0  0  0  0  0  0
  124.5321  134.5822  160.9185 H   0  0  0  0  0  0  0  0  0  0  0  0
  125.4012  135.3822  158.7580 H   0  0  0  0  0  0  0  0  0  0  0  0
  127.7927  135.9160  158.5145 H   0  0  0  0  0  0  0  0  0  0  0  0
  130.9071  136.0549  162.9862 H   0  0  0  0  0  0  0  0  0  0  0  0
  130.2113  136.4755  165.3104 H   0  0  0  0  0  0  0  0  0  0  0  0
  1  2  1  0
  1 39  1  0
  1 40  1  0
  1 41  1  0
  2  3  1  0
  2 42  1  0
  2 43  1  0
  3 38  2  0
  3  4  1  0
  4  5  2  0
  4 44  1  0
  5  6  1  0
  5 45  1  0
  6  7  1  0
  6 37  2  0
  7  8  1  6
  7  9  1  0
  7 15  1  0
  8 46  1  0
  9 14  1  0
  9 10  2  0
 10 11  1  0
 10 47  1  0
 11 12  2  0
 11 48  1  0
 12 13  1  0
 12 49  1  0
 13 14  2  0
 13 50  1  0
 14 51  1  0
 15 16  1  0
 15 31  1  0
 15 52  1  1
 16 53  1  0
 17 16  1  0
 17 29  2  0
 17 18  1  0
 18 19  1  0
 18 20  1  0
 20 21  2  0
 20 54  1  0
 21 22  1  0
 21 29  1  0
 22 28  1  0
 22 23  2  0
 23 24  1  0
 23 55  1  0
 24 25  2  0
 24 56  1  0
 25 26  1  0
 25 27  1  0
 26 57  1  0
 26 58  1  0
 27 28  2  0
 27 59  1  0
 28 60  1  0
 29 30  1  0
 31 36  1  0
 31 32  2  0
 32 33  1  0
 32 61  1  0
 33 34  2  0
 33 62  1  0
 34 35  1  0
 34 63  1  0
 35 36  2  0
 35 64  1  0
 36 65  1  0
 37 38  1  0
 37 66  1  0
 38 67  1  0
M  CHG  1  29   1
M  END
>  <DOCK_score>  (1) 
-61.747513

>  <SMILES>  (1) 
CCc1ccc([C@@](O)(c2ccccc2)C(Nc2[nH]cc(-c3ccc(N)cc3)[nH+]2)c2ccccc2)cc1

$$$$
