CCOC(=O)c1oc2ccc(-c3ccccc3)cc2c1C[NH2+][C@H]1COC2(CCC2)C1
     RDKit          3D

 58 62  0  0  1  0  0  0  0  0999 V2000
  124.9473  134.8869  160.0078 C   0  0  0  0  0  0  0  0  0  0  0  0
  126.0479  134.4342  160.9692 C   0  0  0  0  0  0  0  0  0  0  0  0
  127.2271  135.2601  160.7788 O   0  0  0  0  0  0  0  0  0  0  0  0
  127.3181  136.3788  161.5261 C   0  0  0  0  0  0  0  0  0  0  0  0
  126.4359  136.6560  162.3155 O   0  0  0  0  0  0  0  0  0  0  0  0
  128.4826  137.2618  161.3870 C   0  0  0  0  0  0  0  0  0  0  0  0
  128.4728  138.5967  161.5842 O   0  0  0  0  0  0  0  0  0  0  0  0
  129.6968  139.1218  161.3793 C   0  0  0  0  0  0  0  0  0  0  0  0
  130.1976  140.4180  161.4522 C   0  0  0  0  0  0  0  0  0  0  0  0
  131.5252  140.6617  161.1892 C   0  0  0  0  0  0  0  0  0  0  0  0
  132.3848  139.6169  160.8329 C   0  0  0  0  0  0  0  0  0  0  0  0
  133.8134  139.8974  160.5451 C   0  0  0  0  0  0  0  0  0  0  0  0
  134.5129  139.1039  159.6383 C   0  0  0  0  0  0  0  0  0  0  0  0
  135.8428  139.3662  159.3784 C   0  0  0  0  0  0  0  0  0  0  0  0
  136.4782  140.4209  160.0078 C   0  0  0  0  0  0  0  0  0  0  0  0
  135.7883  141.2125  160.9088 C   0  0  0  0  0  0  0  0  0  0  0  0
  134.4598  140.9557  161.1806 C   0  0  0  0  0  0  0  0  0  0  0  0
  131.9039  138.3181  160.7539 C   0  0  0  0  0  0  0  0  0  0  0  0
  130.5585  138.0657  161.0267 C   0  0  0  0  0  0  0  0  0  0  0  0
  129.7329  136.8583  161.0405 C   0  0  0  0  0  0  0  0  0  0  0  0
  130.1785  135.4522  160.7322 C   0  0  0  0  0  0  0  0  0  0  0  0
  130.0161  135.1907  159.2958 N   0  0  0  0  0  0  0  0  0  0  0  0
  129.0457  135.2993  159.0419 H   0  0  0  0  0  0  0  0  0  0  0  0
  130.5765  135.8442  158.7695 H   0  0  0  0  0  0  0  0  0  0  0  0
  130.4505  133.8201  158.9953 C   0  0  1  0  0  0  0  0  0  0  0  0
  131.3468  133.5718  159.5639 H   0  0  0  0  0  0  0  0  0  0  0  0
  129.3213  132.8166  159.3035 C   0  0  0  0  0  0  0  0  0  0  0  0
  128.9540  132.1862  158.0624 O   0  0  0  0  0  0  0  0  0  0  0  0
  130.0936  132.2680  157.2008 C   0  0  0  0  0  0  0  0  0  0  0  0
  129.8526  131.9345  155.7309 C   0  0  0  0  0  0  0  0  0  0  0  0
  131.2475  131.2823  155.7412 C   0  0  0  0  0  0  0  0  0  0  0  0
  131.0680  131.0945  157.2590 C   0  0  0  0  0  0  0  0  0  0  0  0
  130.7057  133.6530  157.4756 C   0  0  0  0  0  0  0  0  0  0  0  0
  124.0623  134.2670  160.1507 H   0  0  0  0  0  0  0  0  0  0  0  0
  124.6970  135.9289  160.2070 H   0  0  0  0  0  0  0  0  0  0  0  0
  125.2985  134.7876  158.9807 H   0  0  0  0  0  0  0  0  0  0  0  0
  126.2983  133.3921  160.7700 H   0  0  0  0  0  0  0  0  0  0  0  0
  125.6968  134.5336  161.9963 H   0  0  0  0  0  0  0  0  0  0  0  0
  129.5433  141.2338  161.7219 H   0  0  0  0  0  0  0  0  0  0  0  0
  131.9067  141.6700  161.2533 H   0  0  0  0  0  0  0  0  0  0  0  0
  134.0166  138.2825  159.1432 H   0  0  0  0  0  0  0  0  0  0  0  0
  136.3872  138.7490  158.6790 H   0  0  0  0  0  0  0  0  0  0  0  0
  137.5179  140.6250  159.7980 H   0  0  0  0  0  0  0  0  0  0  0  0
  136.2904  142.0325  161.4007 H   0  0  0  0  0  0  0  0  0  0  0  0
  133.9223  141.5736  161.8845 H   0  0  0  0  0  0  0  0  0  0  0  0
  132.5655  137.5083  160.4838 H   0  0  0  0  0  0  0  0  0  0  0  0
  131.2269  135.3349  161.0065 H   0  0  0  0  0  0  0  0  0  0  0  0
  129.5730  134.7463  161.3007 H   0  0  0  0  0  0  0  0  0  0  0  0
  129.6758  132.0658  160.0095 H   0  0  0  0  0  0  0  0  0  0  0  0
  128.4623  133.3426  159.7201 H   0  0  0  0  0  0  0  0  0  0  0  0
  129.0396  131.2265  155.5703 H   0  0  0  0  0  0  0  0  0  0  0  0
  129.7849  132.8124  155.0884 H   0  0  0  0  0  0  0  0  0  0  0  0
  132.0521  131.9693  155.4789 H   0  0  0  0  0  0  0  0  0  0  0  0
  131.2942  130.3440  155.1883 H   0  0  0  0  0  0  0  0  0  0  0  0
  131.9695  131.3024  157.8353 H   0  0  0  0  0  0  0  0  0  0  0  0
  130.5988  130.1493  157.5321 H   0  0  0  0  0  0  0  0  0  0  0  0
  130.1900  134.4267  156.9066 H   0  0  0  0  0  0  0  0  0  0  0  0
  131.7735  133.6573  157.2570 H   0  0  0  0  0  0  0  0  0  0  0  0
  1  2  1  0
  1 34  1  0
  1 35  1  0
  1 36  1  0
  2  3  1  0
  2 37  1  0
  2 38  1  0
  3  4  1  0
  4  5  2  0
  4  6  1  0
  6 20  2  0
  6  7  1  0
  7  8  1  0
  8 19  2  0
  8  9  1  0
  9 10  2  0
  9 39  1  0
 10 11  1  0
 10 40  1  0
 11 12  1  0
 11 18  2  0
 12 17  1  0
 12 13  2  0
 13 14  1  0
 13 41  1  0
 14 15  2  0
 14 42  1  0
 15 16  1  0
 15 43  1  0
 16 17  2  0
 16 44  1  0
 17 45  1  0
 18 19  1  0
 18 46  1  0
 19 20  1  0
 20 21  1  0
 21 22  1  0
 21 47  1  0
 21 48  1  0
 22 23  1  0
 22 24  1  0
 22 25  1  0
 25 26  1  1
 25 33  1  0
 25 27  1  0
 27 28  1  0
 27 49  1  0
 27 50  1  0
 28 29  1  0
 29 32  1  0
 29 30  1  0
 29 33  1  0
 30 31  1  0
 30 51  1  0
 30 52  1  0
 31 32  1  0
 31 53  1  0
 31 54  1  0
 32 55  1  0
 32 56  1  0
 33 57  1  0
 33 58  1  0
M  CHG  1  22   1
M  END
>  <DOCK_score>  (1) 
-44.885326

>  <SMILES>  (1) 
CCOC(=O)c1oc2ccc(-c3ccccc3)cc2c1C[NH2+][C@H]1COC2(CCC2)C1

$$$$
