O=C1CCC(NC(NC2CC2)=[NH+][C@H]2COc3c(F)cc(F)cc3C2)CN1
     RDKit          3D

 49 52  0  0  1  0  0  0  0  0999 V2000
  123.7017  133.7786  161.5093 O   0  0  0  0  0  0  0  0  0  0  0  0
  124.8689  133.9531  161.2298 C   0  0  0  0  0  0  0  0  0  0  0  0
  125.6325  132.8118  160.6220 C   0  0  0  0  0  0  0  0  0  0  0  0
  127.1367  133.0661  160.7473 C   0  0  0  0  0  0  0  0  0  0  0  0
  127.4299  134.4895  160.2577 C   0  0  2  0  0  0  0  0  0  0  0  0
  128.8784  134.7015  160.2019 N   0  0  0  0  0  0  0  0  0  0  0  0
  129.5720  134.4112  159.0508 C   0  0  0  0  0  0  0  0  0  0  0  0
  128.9061  133.9218  157.9520 N   0  0  0  0  0  0  0  0  0  0  0  0
  129.6449  133.6124  156.7254 C   0  0  0  0  0  0  0  0  0  0  0  0
  129.4383  132.2287  156.1062 C   0  0  0  0  0  0  0  0  0  0  0  0
  130.7537  132.5620  156.8145 C   0  0  0  0  0  0  0  0  0  0  0  0
  130.8607  134.5998  159.0013 N   0  0  0  0  0  0  0  0  0  0  0  0
  131.2860  134.8241  158.1587 H   0  0  0  0  0  0  0  0  0  0  0  0
  131.6668  134.4733  160.2180 C   0  0  1  0  0  0  0  0  0  0  0  0
  131.2058  133.7498  160.8904 H   0  0  0  0  0  0  0  0  0  0  0  0
  133.0836  134.0114  159.8539 C   0  0  0  0  0  0  0  0  0  0  0  0
  133.8122  133.7988  161.0637 O   0  0  0  0  0  0  0  0  0  0  0  0
  133.7824  134.7799  162.0045 C   0  0  0  0  0  0  0  0  0  0  0  0
  134.7473  134.7656  163.0095 C   0  0  0  0  0  0  0  0  0  0  0  0
  135.6853  133.7936  163.0285 F   0  0  0  0  0  0  0  0  0  0  0  0
  134.7476  135.7420  163.9865 C   0  0  0  0  0  0  0  0  0  0  0  0
  133.7861  136.7384  163.9672 C   0  0  0  0  0  0  0  0  0  0  0  0
  133.7832  137.6937  164.9225 F   0  0  0  0  0  0  0  0  0  0  0  0
  132.8290  136.7547  162.9695 C   0  0  0  0  0  0  0  0  0  0  0  0
  132.8256  135.7778  161.9866 C   0  0  0  0  0  0  0  0  0  0  0  0
  131.7674  135.8330  160.9139 C   0  0  0  0  0  0  0  0  0  0  0  0
  126.8033  135.4830  161.2368 C   0  0  0  0  0  0  0  0  0  0  0  0
  125.4054  135.1484  161.4783 N   0  0  0  0  0  0  0  0  0  0  0  0
  125.3674  132.7189  159.5688 H   0  0  0  0  0  0  0  0  0  0  0  0
  125.3771  131.8880  161.1411 H   0  0  0  0  0  0  0  0  0  0  0  0
  127.6826  132.3479  160.1355 H   0  0  0  0  0  0  0  0  0  0  0  0
  127.4402  132.9669  161.7895 H   0  0  0  0  0  0  0  0  0  0  0  0
  127.0014  134.6305  159.2654 H   0  0  0  0  0  0  0  0  0  0  0  0
  129.3482  135.0467  160.9772 H   0  0  0  0  0  0  0  0  0  0  0  0
  127.9476  133.7776  157.9904 H   0  0  0  0  0  0  0  0  0  0  0  0
  129.7989  134.4502  156.0453 H   0  0  0  0  0  0  0  0  0  0  0  0
  128.7525  131.5485  156.6115 H   0  0  0  0  0  0  0  0  0  0  0  0
  129.4566  132.1560  155.0189 H   0  0  0  0  0  0  0  0  0  0  0  0
  131.6370  132.7085  156.1928 H   0  0  0  0  0  0  0  0  0  0  0  0
  130.9336  132.1014  157.7859 H   0  0  0  0  0  0  0  0  0  0  0  0
  133.0325  133.0816  159.2871 H   0  0  0  0  0  0  0  0  0  0  0  0
  133.5782  134.7786  159.2580 H   0  0  0  0  0  0  0  0  0  0  0  0
  135.4964  135.7282  164.7647 H   0  0  0  0  0  0  0  0  0  0  0  0
  132.0803  137.5329  162.9560 H   0  0  0  0  0  0  0  0  0  0  0  0
  132.0324  136.5962  160.1821 H   0  0  0  0  0  0  0  0  0  0  0  0
  130.8067  136.0817  161.3646 H   0  0  0  0  0  0  0  0  0  0  0  0
  127.3492  135.4525  162.1797 H   0  0  0  0  0  0  0  0  0  0  0  0
  126.8664  136.4881  160.8199 H   0  0  0  0  0  0  0  0  0  0  0  0
  124.8293  135.8385  161.8427 H   0  0  0  0  0  0  0  0  0  0  0  0
  1  2  2  0
  2 28  1  0
  2  3  1  0
  3  4  1  0
  3 29  1  0
  3 30  1  0
  4  5  1  0
  4 31  1  0
  4 32  1  0
  5  6  1  0
  5 27  1  0
  5 33  1  6
  6 34  1  0
  7  6  1  0
  7  8  1  0
  7 12  2  0
  8  9  1  0
  8 35  1  0
  9 11  1  0
  9 10  1  0
  9 36  1  0
 10 11  1  0
 10 37  1  0
 10 38  1  0
 11 39  1  0
 11 40  1  0
 12 13  1  0
 12 14  1  0
 14 15  1  1
 14 26  1  0
 14 16  1  0
 16 17  1  0
 16 41  1  0
 16 42  1  0
 17 18  1  0
 18 25  2  0
 18 19  1  0
 19 20  1  0
 19 21  2  0
 21 22  1  0
 21 43  1  0
 22 23  1  0
 22 24  2  0
 24 25  1  0
 24 44  1  0
 25 26  1  0
 26 45  1  0
 26 46  1  0
 27 28  1  0
 27 47  1  0
 27 48  1  0
 28 49  1  0
M  CHG  1  12   1
M  END
>  <DOCK_score>  (1) 
-47.412163

>  <SMILES>  (1) 
O=C1CCC(NC(NC2CC2)=[NH+][C@H]2COc3c(F)cc(F)cc3C2)CN1

$$$$
