CCc1ccc(-c2c[nH]c(N[C@@H](c3ccc(-c4ncccc4Cl)cc3)C3CCC3)[nH+]2)cc1
     RDKit          3D

 60 64  0  0  1  0  0  0  0  0999 V2000
  130.2474  128.9981  151.3056 C   0  0  0  0  0  0  0  0  0  0  0  0
  131.5186  129.6598  151.8412 C   0  0  0  0  0  0  0  0  0  0  0  0
  131.2181  130.3362  153.1540 C   0  0  0  0  0  0  0  0  0  0  0  0
  131.3599  129.6359  154.3384 C   0  0  0  0  0  0  0  0  0  0  0  0
  131.0906  130.2518  155.5436 C   0  0  0  0  0  0  0  0  0  0  0  0
  130.6648  131.5788  155.5654 C   0  0  0  0  0  0  0  0  0  0  0  0
  130.3689  132.2446  156.8574 C   0  0  0  0  0  0  0  0  0  0  0  0
  129.9195  131.6374  157.9835 C   0  0  0  0  0  0  0  0  0  0  0  0
  129.7808  132.6171  158.9365 N   0  0  0  0  0  0  0  0  0  0  0  0
  129.4758  132.4921  159.8487 H   0  0  0  0  0  0  0  0  0  0  0  0
  130.1499  133.7953  158.3642 C   0  0  0  0  0  0  0  0  0  0  0  0
  130.1535  135.0298  158.9908 N   0  0  0  0  0  0  0  0  0  0  0  0
  129.1925  135.3114  160.0600 C   0  0  1  0  0  0  0  0  0  0  0  0
  129.0837  134.4301  160.6922 H   0  0  0  0  0  0  0  0  0  0  0  0
  129.6891  136.4668  160.8904 C   0  0  0  0  0  0  0  0  0  0  0  0
  129.9035  137.6986  160.2986 C   0  0  0  0  0  0  0  0  0  0  0  0
  130.3536  138.7616  161.0551 C   0  0  0  0  0  0  0  0  0  0  0  0
  130.6024  138.5893  162.4156 C   0  0  0  0  0  0  0  0  0  0  0  0
  131.0912  139.7265  163.2329 C   0  0  0  0  0  0  0  0  0  0  0  0
  132.3957  139.9302  163.3634 N   0  0  0  0  0  0  0  0  0  0  0  0
  132.8705  140.9312  164.0761 C   0  0  0  0  0  0  0  0  0  0  0  0
  132.0203  141.8060  164.7276 C   0  0  0  0  0  0  0  0  0  0  0  0
  130.6487  141.6270  164.6227 C   0  0  0  0  0  0  0  0  0  0  0  0
  130.1763  140.5694  163.8623 C   0  0  0  0  0  0  0  0  0  0  0  0
  128.4697  140.2972  163.6964 Cl  0  0  0  0  0  0  0  0  0  0  0  0
  130.3896  137.3446  163.0054 C   0  0  0  0  0  0  0  0  0  0  0  0
  129.9344  136.2902  162.2402 C   0  0  0  0  0  0  0  0  0  0  0  0
  127.8374  135.6695  159.4466 C   0  0  0  0  0  0  0  0  0  0  0  0
  126.7370  135.9249  160.4901 C   0  0  0  0  0  0  0  0  0  0  0  0
  125.7812  135.1700  159.5514 C   0  0  0  0  0  0  0  0  0  0  0  0
  127.0205  134.4454  159.0002 C   0  0  0  0  0  0  0  0  0  0  0  0
  130.5055  133.5680  157.1233 N   0  0  0  0  0  0  0  0  0  0  0  0
  130.8151  134.2389  156.4950 H   0  0  0  0  0  0  0  0  0  0  0  0
  130.5186  132.2778  154.3685 C   0  0  0  0  0  0  0  0  0  0  0  0
  130.7957  131.6535  153.1695 C   0  0  0  0  0  0  0  0  0  0  0  0
  130.4647  128.5089  150.3562 H   0  0  0  0  0  0  0  0  0  0  0  0
  129.8932  128.2579  152.0230 H   0  0  0  0  0  0  0  0  0  0  0  0
  129.4785  129.7561  151.1561 H   0  0  0  0  0  0  0  0  0  0  0  0
  132.2876  128.9018  151.9907 H   0  0  0  0  0  0  0  0  0  0  0  0
  131.8729  130.4001  151.1238 H   0  0  0  0  0  0  0  0  0  0  0  0
  131.6857  128.6064  154.3201 H   0  0  0  0  0  0  0  0  0  0  0  0
  131.2059  129.7055  156.4681 H   0  0  0  0  0  0  0  0  0  0  0  0
  129.7102  130.5851  158.1074 H   0  0  0  0  0  0  0  0  0  0  0  0
  130.7923  135.7083  158.7218 H   0  0  0  0  0  0  0  0  0  0  0  0
  129.7147  137.8297  159.2434 H   0  0  0  0  0  0  0  0  0  0  0  0
  130.5167  139.7239  160.5930 H   0  0  0  0  0  0  0  0  0  0  0  0
  133.9388  141.0680  164.1564 H   0  0  0  0  0  0  0  0  0  0  0  0
  132.4203  142.6207  165.3130 H   0  0  0  0  0  0  0  0  0  0  0  0
  129.9645  142.2966  165.1225 H   0  0  0  0  0  0  0  0  0  0  0  0
  130.5804  137.2056  164.0592 H   0  0  0  0  0  0  0  0  0  0  0  0
  129.7688  135.3252  162.6963 H   0  0  0  0  0  0  0  0  0  0  0  0
  127.9092  136.4474  158.6866 H   0  0  0  0  0  0  0  0  0  0  0  0
  126.9088  135.4169  161.4391 H   0  0  0  0  0  0  0  0  0  0  0  0
  126.4872  136.9788  160.6122 H   0  0  0  0  0  0  0  0  0  0  0  0
  125.2895  135.8119  158.8204 H   0  0  0  0  0  0  0  0  0  0  0  0
  125.0865  134.5115  160.0730 H   0  0  0  0  0  0  0  0  0  0  0  0
  126.9996  134.3050  157.9195 H   0  0  0  0  0  0  0  0  0  0  0  0
  127.2698  133.5330  159.5418 H   0  0  0  0  0  0  0  0  0  0  0  0
  130.1886  133.3061  154.3794 H   0  0  0  0  0  0  0  0  0  0  0  0
  130.6825  132.1941  152.2414 H   0  0  0  0  0  0  0  0  0  0  0  0
  1  2  1  0
  1 36  1  0
  1 37  1  0
  1 38  1  0
  2  3  1  0
  2 39  1  0
  2 40  1  0
  3 35  2  0
  3  4  1  0
  4  5  2  0
  4 41  1  0
  5  6  1  0
  5 42  1  0
  6  7  1  0
  6 34  2  0
  7 32  1  0
  7  8  2  0
  8  9  1  0
  8 43  1  0
  9 10  1  0
  9 11  1  0
 11 12  1  0
 11 32  2  0
 12 13  1  0
 12 44  1  0
 13 14  1  1
 13 15  1  0
 13 28  1  0
 15 27  1  0
 15 16  2  0
 16 17  1  0
 16 45  1  0
 17 18  2  0
 17 46  1  0
 18 19  1  0
 18 26  1  0
 19 24  1  0
 19 20  2  0
 20 21  1  0
 21 22  2  0
 21 47  1  0
 22 23  1  0
 22 48  1  0
 23 24  2  0
 23 49  1  0
 24 25  1  0
 26 27  2  0
 26 50  1  0
 27 51  1  0
 28 31  1  0
 28 29  1  0
 28 52  1  0
 29 30  1  0
 29 53  1  0
 29 54  1  0
 30 31  1  0
 30 55  1  0
 30 56  1  0
 31 57  1  0
 31 58  1  0
 32 33  1  0
 34 35  1  0
 34 59  1  0
 35 60  1  0
M  CHG  1  32   1
M  END
>  <DOCK_score>  (1) 
-59.682724

>  <SMILES>  (1) 
CCc1ccc(-c2c[nH]c(N[C@@H](c3ccc(-c4ncccc4Cl)cc3)C3CCC3)[nH+]2)cc1

$$$$
