CCC1=CCCC1=C[C@H](Nc1[nH]cc(-c2ccc(Br)cc2)[nH+]1)c1cccs1
     RDKit          3D

 50 53  0  0  1  0  0  0  0  0999 V2000
  131.3618  140.1701  160.4835 C   0  0  0  0  0  0  0  0  0  0  0  0
  130.4376  139.6733  161.5972 C   0  0  0  0  0  0  0  0  0  0  0  0
  130.9139  138.3286  162.0829 C   0  0  0  0  0  0  0  0  0  0  0  0
  131.7793  138.1653  163.0651 C   0  0  0  0  0  0  0  0  0  0  0  0
  132.0412  136.7001  163.3062 C   0  0  0  0  0  0  0  0  0  0  0  0
  131.1796  135.9487  162.2761 C   0  0  0  0  0  0  0  0  0  0  0  0
  130.4734  137.0497  161.5135 C   0  0  0  0  0  0  0  0  0  0  0  0
  129.6133  136.8878  160.5137 C   0  0  0  0  0  0  0  0  0  0  0  0
  129.2605  135.5013  160.0402 C   0  0  2  0  0  0  0  0  0  0  0  0
  129.3323  134.8033  160.8744 H   0  0  0  0  0  0  0  0  0  0  0  0
  130.1891  135.0954  158.9824 N   0  0  0  0  0  0  0  0  0  0  0  0
  130.0614  133.8510  158.3893 C   0  0  0  0  0  0  0  0  0  0  0  0
  129.5692  132.7333  158.9898 N   0  0  0  0  0  0  0  0  0  0  0  0
  129.2479  132.6656  159.9024 H   0  0  0  0  0  0  0  0  0  0  0  0
  129.6115  131.7185  158.0646 C   0  0  0  0  0  0  0  0  0  0  0  0
  130.1277  132.2449  156.9265 C   0  0  0  0  0  0  0  0  0  0  0  0
  130.3598  131.5170  155.6550 C   0  0  0  0  0  0  0  0  0  0  0  0
  129.7184  131.9269  154.4874 C   0  0  0  0  0  0  0  0  0  0  0  0
  129.9426  131.2500  153.3060 C   0  0  0  0  0  0  0  0  0  0  0  0
  130.7931  130.1582  153.2817 C   0  0  0  0  0  0  0  0  0  0  0  0
  131.0890  129.2303  151.6608 Br  0  0  0  0  0  0  0  0  0  0  0  0
  131.4281  129.7436  154.4396 C   0  0  0  0  0  0  0  0  0  0  0  0
  131.2155  130.4173  155.6250 C   0  0  0  0  0  0  0  0  0  0  0  0
  130.3893  133.5565  157.1548 N   0  0  0  0  0  0  0  0  0  0  0  0
  130.7616  134.1766  156.5085 H   0  0  0  0  0  0  0  0  0  0  0  0
  127.8530  135.4974  159.5018 C   0  0  0  0  0  0  0  0  0  0  0  0
  126.7556  135.2527  160.2198 C   0  0  0  0  0  0  0  0  0  0  0  0
  125.5695  135.3048  159.5081 C   0  0  0  0  0  0  0  0  0  0  0  0
  125.7035  135.5914  158.2123 C   0  0  0  0  0  0  0  0  0  0  0  0
  127.4051  135.8219  157.8323 S   0  0  0  0  0  0  0  0  0  0  0  0
  131.3489  139.4598  159.6569 H   0  0  0  0  0  0  0  0  0  0  0  0
  131.0173  141.1427  160.1324 H   0  0  0  0  0  0  0  0  0  0  0  0
  132.3776  140.2616  160.8681 H   0  0  0  0  0  0  0  0  0  0  0  0
  130.4506  140.3836  162.4240 H   0  0  0  0  0  0  0  0  0  0  0  0
  129.4219  139.5819  161.2126 H   0  0  0  0  0  0  0  0  0  0  0  0
  132.2354  138.9705  163.6218 H   0  0  0  0  0  0  0  0  0  0  0  0
  131.7456  136.4229  164.3181 H   0  0  0  0  0  0  0  0  0  0  0  0
  133.0964  136.4776  163.1485 H   0  0  0  0  0  0  0  0  0  0  0  0
  130.4557  135.3075  162.7789 H   0  0  0  0  0  0  0  0  0  0  0  0
  131.8074  135.3619  161.6057 H   0  0  0  0  0  0  0  0  0  0  0  0
  129.1672  137.7499  160.0403 H   0  0  0  0  0  0  0  0  0  0  0  0
  130.8934  135.6984  158.6976 H   0  0  0  0  0  0  0  0  0  0  0  0
  129.2938  130.6973  158.2149 H   0  0  0  0  0  0  0  0  0  0  0  0
  129.0506  132.7754  154.5065 H   0  0  0  0  0  0  0  0  0  0  0  0
  129.4498  131.5698  152.3997 H   0  0  0  0  0  0  0  0  0  0  0  0
  132.0907  128.8911  154.4153 H   0  0  0  0  0  0  0  0  0  0  0  0
  131.7118  130.0931  156.5278 H   0  0  0  0  0  0  0  0  0  0  0  0
  126.7900  135.0314  161.2763 H   0  0  0  0  0  0  0  0  0  0  0  0
  124.6083  135.1262  159.9674 H   0  0  0  0  0  0  0  0  0  0  0  0
  124.8910  135.6730  157.5056 H   0  0  0  0  0  0  0  0  0  0  0  0
  1  2  1  0
  1 31  1  0
  1 32  1  0
  1 33  1  0
  2  3  1  0
  2 34  1  0
  2 35  1  0
  3  7  1  0
  3  4  2  0
  4  5  1  0
  4 36  1  0
  5  6  1  0
  5 37  1  0
  5 38  1  0
  6  7  1  0
  6 39  1  0
  6 40  1  0
  7  8  2  0
  8  9  1  0
  8 41  1  0
  9 10  1  1
  9 11  1  0
  9 26  1  0
 11 42  1  0
 12 11  1  0
 12 24  2  0
 12 13  1  0
 13 14  1  0
 13 15  1  0
 15 16  2  0
 15 43  1  0
 16 17  1  0
 16 24  1  0
 17 23  1  0
 17 18  2  0
 18 19  1  0
 18 44  1  0
 19 20  2  0
 19 45  1  0
 20 21  1  0
 20 22  1  0
 22 23  2  0
 22 46  1  0
 23 47  1  0
 24 25  1  0
 26 30  1  0
 26 27  2  0
 27 28  1  0
 27 48  1  0
 28 29  2  0
 28 49  1  0
 29 30  1  0
 29 50  1  0
M  CHG  1  24   1
M  END
>  <DOCK_score>  (1) 
-58.942528

>  <SMILES>  (1) 
CCC1=CCCC1=C[C@H](Nc1[nH]cc(-c2ccc(Br)cc2)[nH+]1)c1cccs1

$$$$
