CCc1ccc(-c2c[nH]c(NC[C@H](Nc3ccc(N)cc3)c3ccnn3C)[nH+]2)cc1
     RDKit          3D

 58 61  0  0  1  0  0  0  0  0999 V2000
  135.8368  140.2798  164.0477 C   0  0  0  0  0  0  0  0  0  0  0  0
  136.2625  138.8174  163.9019 C   0  0  0  0  0  0  0  0  0  0  0  0
  135.2124  138.0634  163.1275 C   0  0  0  0  0  0  0  0  0  0  0  0
  135.2964  137.9851  161.7490 C   0  0  0  0  0  0  0  0  0  0  0  0
  134.3402  137.2918  161.0350 C   0  0  0  0  0  0  0  0  0  0  0  0
  133.2830  136.6784  161.7048 C   0  0  0  0  0  0  0  0  0  0  0  0
  132.2496  135.9357  160.9427 C   0  0  0  0  0  0  0  0  0  0  0  0
  130.9503  135.7832  161.2997 C   0  0  0  0  0  0  0  0  0  0  0  0
  130.3518  135.0342  160.3159 N   0  0  0  0  0  0  0  0  0  0  0  0
  129.4217  134.7604  160.2880 H   0  0  0  0  0  0  0  0  0  0  0  0
  131.3059  134.7434  159.3899 C   0  0  0  0  0  0  0  0  0  0  0  0
  131.1120  133.9989  158.2389 N   0  0  0  0  0  0  0  0  0  0  0  0
  129.7613  133.8209  157.7004 C   0  0  0  0  0  0  0  0  0  0  0  0
  129.1301  132.5678  158.3105 C   0  0  2  0  0  0  0  0  0  0  0  0
  128.1250  132.4355  157.9098 H   0  0  0  0  0  0  0  0  0  0  0  0
  129.0598  132.7158  159.7663 N   0  0  0  0  0  0  0  0  0  0  0  0
  127.9277  133.2892  160.3578 C   0  0  0  0  0  0  0  0  0  0  0  0
  127.1909  134.2421  159.6671 C   0  0  0  0  0  0  0  0  0  0  0  0
  126.0710  134.8035  160.2483 C   0  0  0  0  0  0  0  0  0  0  0  0
  125.6888  134.4238  161.5281 C   0  0  0  0  0  0  0  0  0  0  0  0
  124.5568  134.9972  162.1197 N   0  0  0  0  0  0  0  0  0  0  0  0
  126.4290  133.4751  162.2211 C   0  0  0  0  0  0  0  0  0  0  0  0
  127.5453  132.9092  161.6375 C   0  0  0  0  0  0  0  0  0  0  0  0
  129.9700  131.3645  157.9678 C   0  0  0  0  0  0  0  0  0  0  0  0
  130.5745  130.5360  158.8504 C   0  0  0  0  0  0  0  0  0  0  0  0
  131.2493  129.5504  158.1228 C   0  0  0  0  0  0  0  0  0  0  0  0
  131.0633  129.7834  156.8489 N   0  0  0  0  0  0  0  0  0  0  0  0
  130.2589  130.9236  156.7255 N   0  0  0  0  0  0  0  0  0  0  0  0
  129.8107  131.5305  155.4696 C   0  0  0  0  0  0  0  0  0  0  0  0
  132.4385  135.2839  159.7679 N   0  0  0  0  0  0  0  0  0  0  0  0
  133.2777  135.2266  159.2850 H   0  0  0  0  0  0  0  0  0  0  0  0
  133.2005  136.7652  163.0934 C   0  0  0  0  0  0  0  0  0  0  0  0
  134.1650  137.4571  163.7974 C   0  0  0  0  0  0  0  0  0  0  0  0
  136.5964  140.8252  164.6078 H   0  0  0  0  0  0  0  0  0  0  0  0
  135.7239  140.7256  163.0595 H   0  0  0  0  0  0  0  0  0  0  0  0
  134.8869  140.3302  164.5797 H   0  0  0  0  0  0  0  0  0  0  0  0
  137.2125  138.7669  163.3698 H   0  0  0  0  0  0  0  0  0  0  0  0
  136.3754  138.3716  164.8901 H   0  0  0  0  0  0  0  0  0  0  0  0
  136.1141  138.4637  161.2309 H   0  0  0  0  0  0  0  0  0  0  0  0
  134.4093  137.2274  159.9591 H   0  0  0  0  0  0  0  0  0  0  0  0
  130.4762  136.1774  162.1865 H   0  0  0  0  0  0  0  0  0  0  0  0
  131.8707  133.5951  157.7891 H   0  0  0  0  0  0  0  0  0  0  0  0
  129.1537  134.6913  157.9483 H   0  0  0  0  0  0  0  0  0  0  0  0
  129.8135  133.7109  156.6172 H   0  0  0  0  0  0  0  0  0  0  0  0
  129.7974  132.4165  160.3204 H   0  0  0  0  0  0  0  0  0  0  0  0
  127.4909  134.5408  158.6735 H   0  0  0  0  0  0  0  0  0  0  0  0
  125.4952  135.5413  159.7094 H   0  0  0  0  0  0  0  0  0  0  0  0
  124.2896  134.7317  163.0135 H   0  0  0  0  0  0  0  0  0  0  0  0
  124.0397  135.6599  161.6356 H   0  0  0  0  0  0  0  0  0  0  0  0
  126.1319  133.1801  163.2166 H   0  0  0  0  0  0  0  0  0  0  0  0
  128.1210  132.1714  162.1764 H   0  0  0  0  0  0  0  0  0  0  0  0
  130.5402  130.6197  159.9267 H   0  0  0  0  0  0  0  0  0  0  0  0
  131.8274  128.7392  158.5403 H   0  0  0  0  0  0  0  0  0  0  0  0
  130.5400  132.2719  155.1438 H   0  0  0  0  0  0  0  0  0  0  0  0
  129.7129  130.7575  154.7073 H   0  0  0  0  0  0  0  0  0  0  0  0
  128.8455  132.0131  155.6235 H   0  0  0  0  0  0  0  0  0  0  0  0
  132.3831  136.2922  163.6175 H   0  0  0  0  0  0  0  0  0  0  0  0
  134.1021  137.5249  164.8735 H   0  0  0  0  0  0  0  0  0  0  0  0
  1  2  1  0
  1 34  1  0
  1 35  1  0
  1 36  1  0
  2  3  1  0
  2 37  1  0
  2 38  1  0
  3 33  2  0
  3  4  1  0
  4  5  2  0
  4 39  1  0
  5  6  1  0
  5 40  1  0
  6  7  1  0
  6 32  2  0
  7 30  1  0
  7  8  2  0
  8  9  1  0
  8 41  1  0
  9 10  1  0
  9 11  1  0
 11 12  1  0
 11 30  2  0
 12 13  1  0
 12 42  1  0
 13 14  1  0
 13 43  1  0
 13 44  1  0
 14 15  1  6
 14 16  1  0
 14 24  1  0
 16 17  1  0
 16 45  1  0
 17 23  1  0
 17 18  2  0
 18 19  1  0
 18 46  1  0
 19 20  2  0
 19 47  1  0
 20 21  1  0
 20 22  1  0
 21 48  1  0
 21 49  1  0
 22 23  2  0
 22 50  1  0
 23 51  1  0
 24 28  1  0
 24 25  2  0
 25 26  1  0
 25 52  1  0
 26 27  2  0
 26 53  1  0
 27 28  1  0
 28 29  1  0
 29 54  1  0
 29 55  1  0
 29 56  1  0
 30 31  1  0
 32 33  1  0
 32 57  1  0
 33 58  1  0
M  CHG  1  30   1
M  END
>  <DOCK_score>  (1) 
-44.762466

>  <SMILES>  (1) 
CCc1ccc(-c2c[nH]c(NC[C@H](Nc3ccc(N)cc3)c3ccnn3C)[nH+]2)cc1

$$$$
