Fc1cccc(F)c1Nc1ccccc1Nc1cccc(F)c1NC1=[NH+]CCN1
     RDKit          3D

 48 51  0  0  0  0  0  0  0  0999 V2000
  134.2451  138.1631  162.7791 F   0  0  0  0  0  0  0  0  0  0  0  0
  135.1984  138.6414  161.9500 C   0  0  0  0  0  0  0  0  0  0  0  0
  136.4675  138.9050  162.4329 C   0  0  0  0  0  0  0  0  0  0  0  0
  137.4442  139.3941  161.5848 C   0  0  0  0  0  0  0  0  0  0  0  0
  137.1567  139.6216  160.2514 C   0  0  0  0  0  0  0  0  0  0  0  0
  135.8900  139.3606  159.7607 C   0  0  0  0  0  0  0  0  0  0  0  0
  135.6103  139.5829  158.4579 F   0  0  0  0  0  0  0  0  0  0  0  0
  134.9054  138.8689  160.6101 C   0  0  0  0  0  0  0  0  0  0  0  0
  133.6223  138.6029  160.1173 N   0  0  0  0  0  0  0  0  0  0  0  0
  132.5147  139.2701  160.6529 C   0  0  0  0  0  0  0  0  0  0  0  0
  132.6564  140.5497  161.1694 C   0  0  0  0  0  0  0  0  0  0  0  0
  131.5599  141.2087  161.6936 C   0  0  0  0  0  0  0  0  0  0  0  0
  130.3223  140.5923  161.7146 C   0  0  0  0  0  0  0  0  0  0  0  0
  130.1727  139.3152  161.2069 C   0  0  0  0  0  0  0  0  0  0  0  0
  131.2660  138.6481  160.6742 C   0  0  0  0  0  0  0  0  0  0  0  0
  131.1168  137.3553  160.1592 N   0  0  0  0  0  0  0  0  0  0  0  0
  131.2916  136.2457  160.9931 C   0  0  0  0  0  0  0  0  0  0  0  0
  131.6075  136.4249  162.3328 C   0  0  0  0  0  0  0  0  0  0  0  0
  131.7801  135.3280  163.1554 C   0  0  0  0  0  0  0  0  0  0  0  0
  131.6385  134.0490  162.6487 C   0  0  0  0  0  0  0  0  0  0  0  0
  131.3237  133.8604  161.3140 C   0  0  0  0  0  0  0  0  0  0  0  0
  131.1857  132.6096  160.8223 F   0  0  0  0  0  0  0  0  0  0  0  0
  131.1435  134.9574  160.4822 C   0  0  0  0  0  0  0  0  0  0  0  0
  130.8181  134.7696  159.1303 N   0  0  0  0  0  0  0  0  0  0  0  0
  130.0947  133.6726  158.7463 C   0  0  0  0  0  0  0  0  0  0  0  0
  130.2211  133.1146  157.5531 N   0  0  0  0  0  0  0  0  0  0  0  0
  130.8199  133.4169  156.8524 H   0  0  0  0  0  0  0  0  0  0  0  0
  129.3128  131.9610  157.4586 C   0  0  0  0  0  0  0  0  0  0  0  0
  128.6089  131.9450  158.8306 C   0  0  0  0  0  0  0  0  0  0  0  0
  129.2086  133.0881  159.5366 N   0  0  0  0  0  0  0  0  0  0  0  0
  136.6972  138.7244  163.4725 H   0  0  0  0  0  0  0  0  0  0  0  0
  138.4340  139.5993  161.9649 H   0  0  0  0  0  0  0  0  0  0  0  0
  137.9222  140.0035  159.5922 H   0  0  0  0  0  0  0  0  0  0  0  0
  133.5009  137.9561  159.4046 H   0  0  0  0  0  0  0  0  0  0  0  0
  133.6224  141.0324  161.1586 H   0  0  0  0  0  0  0  0  0  0  0  0
  131.6713  142.2066  162.0915 H   0  0  0  0  0  0  0  0  0  0  0  0
  129.4699  141.1104  162.1288 H   0  0  0  0  0  0  0  0  0  0  0  0
  129.2046  138.8368  161.2253 H   0  0  0  0  0  0  0  0  0  0  0  0
  130.8922  137.2287  159.2240 H   0  0  0  0  0  0  0  0  0  0  0  0
  131.7183  137.4220  162.7324 H   0  0  0  0  0  0  0  0  0  0  0  0
  132.0258  135.4700  164.1973 H   0  0  0  0  0  0  0  0  0  0  0  0
  131.7736  133.1952  163.2959 H   0  0  0  0  0  0  0  0  0  0  0  0
  131.1057  135.4170  158.4677 H   0  0  0  0  0  0  0  0  0  0  0  0
  129.8726  131.0388  157.3035 H   0  0  0  0  0  0  0  0  0  0  0  0
  128.5887  132.1085  156.6573 H   0  0  0  0  0  0  0  0  0  0  0  0
  128.8183  131.0148  159.3587 H   0  0  0  0  0  0  0  0  0  0  0  0
  127.5343  132.0859  158.7151 H   0  0  0  0  0  0  0  0  0  0  0  0
  128.9890  133.3690  160.4387 H   0  0  0  0  0  0  0  0  0  0  0  0
  1  2  1  0
  2  8  2  0
  2  3  1  0
  3  4  2  0
  3 31  1  0
  4  5  1  0
  4 32  1  0
  5  6  2  0
  5 33  1  0
  6  7  1  0
  6  8  1  0
  8  9  1  0
  9 10  1  0
  9 34  1  0
 10 15  1  0
 10 11  2  0
 11 12  1  0
 11 35  1  0
 12 13  2  0
 12 36  1  0
 13 14  1  0
 13 37  1  0
 14 15  2  0
 14 38  1  0
 15 16  1  0
 16 17  1  0
 16 39  1  0
 17 23  1  0
 17 18  2  0
 18 19  1  0
 18 40  1  0
 19 20  2  0
 19 41  1  0
 20 21  1  0
 20 42  1  0
 21 22  1  0
 21 23  2  0
 23 24  1  0
 24 25  1  0
 24 43  1  0
 25 30  2  0
 25 26  1  0
 26 27  1  0
 26 28  1  0
 28 29  1  0
 28 44  1  0
 28 45  1  0
 29 30  1  0
 29 46  1  0
 29 47  1  0
 30 48  1  0
M  CHG  1  30   1
M  END
>  <DOCK_score>  (1) 
-55.983978

>  <SMILES>  (1) 
Fc1cccc(F)c1Nc1ccccc1Nc1cccc(F)c1NC1=[NH+]CCN1

$$$$
