CCc1[nH]c(NCc2ccccc2C(O)(C(C)=O)[C@H](C)Nc2nc3ccccc3[nH]2)nc1C(C)=O
     RDKit          3D

 65 68  0  0  1  0  0  0  0  0999 V2000
  131.6244  130.0071  158.1575 C   0  0  0  0  0  0  0  0  0  0  0  0
  130.7158  130.9747  157.3965 C   0  0  0  0  0  0  0  0  0  0  0  0
  130.3936  132.1568  158.2740 C   0  0  0  0  0  0  0  0  0  0  0  0
  131.0998  133.3177  158.3622 N   0  0  0  0  0  0  0  0  0  0  0  0
  131.9062  133.5360  157.8693 H   0  0  0  0  0  0  0  0  0  0  0  0
  130.4686  134.1185  159.2684 C   0  0  0  0  0  0  0  0  0  0  0  0
  130.8751  135.3870  159.6407 N   0  0  0  0  0  0  0  0  0  0  0  0
  130.1061  136.1405  160.6343 C   0  0  0  0  0  0  0  0  0  0  0  0
  130.6359  135.8400  162.0127 C   0  0  0  0  0  0  0  0  0  0  0  0
  130.1100  134.7894  162.7416 C   0  0  0  0  0  0  0  0  0  0  0  0
  130.5962  134.5136  164.0057 C   0  0  0  0  0  0  0  0  0  0  0  0
  131.6082  135.2890  164.5415 C   0  0  0  0  0  0  0  0  0  0  0  0
  132.1338  136.3387  163.8128 C   0  0  0  0  0  0  0  0  0  0  0  0
  131.6478  136.6144  162.5482 C   0  0  0  0  0  0  0  0  0  0  0  0
  132.2256  137.7554  161.7511 C   0  0  1  0  0  0  0  0  0  0  0  0
  132.1389  137.4544  160.3567 O   0  0  0  0  0  0  0  0  0  0  0  0
  131.4509  139.0147  162.0423 C   0  0  0  0  0  0  0  0  0  0  0  0
  131.3849  139.5505  163.4493 C   0  0  0  0  0  0  0  0  0  0  0  0
  130.8831  139.5946  161.1480 O   0  0  0  0  0  0  0  0  0  0  0  0
  133.6919  137.9574  162.1388 C   0  0  2  0  0  0  0  0  0  0  0  0
  133.7582  138.1868  163.2023 H   0  0  0  0  0  0  0  0  0  0  0  0
  134.2785  139.1156  161.3296 C   0  0  0  0  0  0  0  0  0  0  0  0
  134.4450  136.7329  161.8557 N   0  0  0  0  0  0  0  0  0  0  0  0
  135.5447  136.4073  162.6213 C   0  0  0  0  0  0  0  0  0  0  0  0
  136.0018  137.1181  163.6219 N   0  0  0  0  0  0  0  0  0  0  0  0
  137.0927  136.5069  164.1548 C   0  0  0  0  0  0  0  0  0  0  0  0
  137.9478  136.8220  165.2137 C   0  0  0  0  0  0  0  0  0  0  0  0
  138.9991  135.9856  165.5158 C   0  0  0  0  0  0  0  0  0  0  0  0
  139.2159  134.8323  164.7763 C   0  0  0  0  0  0  0  0  0  0  0  0
  138.3802  134.5070  163.7280 C   0  0  0  0  0  0  0  0  0  0  0  0
  137.3169  135.3379  163.4094 C   0  0  0  0  0  0  0  0  0  0  0  0
  136.3227  135.2992  162.4454 N   0  0  0  0  0  0  0  0  0  0  0  0
  136.2021  134.6127  161.7706 H   0  0  0  0  0  0  0  0  0  0  0  0
  129.4192  133.4894  159.7322 N   0  0  0  0  0  0  0  0  0  0  0  0
  129.3363  132.2686  159.1330 C   0  0  0  0  0  0  0  0  0  0  0  0
  128.3052  131.2571  159.3710 C   0  0  0  0  0  0  0  0  0  0  0  0
  127.1961  131.5285  160.3546 C   0  0  0  0  0  0  0  0  0  0  0  0
  128.3435  130.1998  158.7762 O   0  0  0  0  0  0  0  0  0  0  0  0
  131.8573  129.1521  157.5228 H   0  0  0  0  0  0  0  0  0  0  0  0
  132.5474  130.5168  158.4338 H   0  0  0  0  0  0  0  0  0  0  0  0
  131.1156  129.6632  159.0580 H   0  0  0  0  0  0  0  0  0  0  0  0
  129.7927  130.4651  157.1203 H   0  0  0  0  0  0  0  0  0  0  0  0
  131.2245  131.3186  156.4960 H   0  0  0  0  0  0  0  0  0  0  0  0
  131.6692  135.7778  159.2438 H   0  0  0  0  0  0  0  0  0  0  0  0
  129.0568  135.8512  160.5773 H   0  0  0  0  0  0  0  0  0  0  0  0
  130.2002  137.2077  160.4335 H   0  0  0  0  0  0  0  0  0  0  0  0
  129.3195  134.1841  162.3230 H   0  0  0  0  0  0  0  0  0  0  0  0
  130.1854  133.6930  164.5750 H   0  0  0  0  0  0  0  0  0  0  0  0
  131.9877  135.0734  165.5294 H   0  0  0  0  0  0  0  0  0  0  0  0
  132.9245  136.9438  164.2312 H   0  0  0  0  0  0  0  0  0  0  0  0
  132.3622  138.1973  159.7793 H   0  0  0  0  0  0  0  0  0  0  0  0
  131.9530  138.8989  164.1132 H   0  0  0  0  0  0  0  0  0  0  0  0
  131.8083  140.5545  163.4759 H   0  0  0  0  0  0  0  0  0  0  0  0
  130.3457  139.5856  163.7763 H   0  0  0  0  0  0  0  0  0  0  0  0
  133.7182  140.0265  161.5402 H   0  0  0  0  0  0  0  0  0  0  0  0
  135.3230  139.2595  161.6058 H   0  0  0  0  0  0  0  0  0  0  0  0
  134.2123  138.8861  160.2661 H   0  0  0  0  0  0  0  0  0  0  0  0
  134.1701  136.1514  161.1296 H   0  0  0  0  0  0  0  0  0  0  0  0
  137.7850  137.7186  165.7934 H   0  0  0  0  0  0  0  0  0  0  0  0
  139.6600  136.2298  166.3341 H   0  0  0  0  0  0  0  0  0  0  0  0
  140.0440  134.1846  165.0232 H   0  0  0  0  0  0  0  0  0  0  0  0
  138.5541  133.6073  163.1562 H   0  0  0  0  0  0  0  0  0  0  0  0
  126.3589  131.9975  159.8378 H   0  0  0  0  0  0  0  0  0  0  0  0
  126.8680  130.5895  160.8004 H   0  0  0  0  0  0  0  0  0  0  0  0
  127.5594  132.1948  161.1370 H   0  0  0  0  0  0  0  0  0  0  0  0
  1  2  1  0
  1 39  1  0
  1 40  1  0
  1 41  1  0
  2  3  1  0
  2 42  1  0
  2 43  1  0
  3 35  2  0
  3  4  1  0
  4  5  1  0
  4  6  1  0
  6  7  1  0
  6 34  2  0
  7  8  1  0
  7 44  1  0
  8  9  1  0
  8 45  1  0
  8 46  1  0
  9 14  1  0
  9 10  2  0
 10 11  1  0
 10 47  1  0
 11 12  2  0
 11 48  1  0
 12 13  1  0
 12 49  1  0
 13 14  2  0
 13 50  1  0
 14 15  1  0
 15 16  1  6
 15 17  1  0
 15 20  1  0
 16 51  1  0
 17 18  1  0
 17 19  2  0
 18 52  1  0
 18 53  1  0
 18 54  1  0
 20 21  1  1
 20 22  1  0
 20 23  1  0
 22 55  1  0
 22 56  1  0
 22 57  1  0
 23 24  1  0
 23 58  1  0
 24 32  1  0
 24 25  2  0
 25 26  1  0
 26 31  2  0
 26 27  1  0
 27 28  2  0
 27 59  1  0
 28 29  1  0
 28 60  1  0
 29 30  2  0
 29 61  1  0
 30 31  1  0
 30 62  1  0
 31 32  1  0
 32 33  1  0
 34 35  1  0
 35 36  1  0
 36 37  1  0
 36 38  2  0
 37 63  1  0
 37 64  1  0
 37 65  1  0
M  END
>  <DOCK_score>  (1) 
-50.50246

>  <SMILES>  (1) 
CCc1[nH]c(NCc2ccccc2C(O)(C(C)=O)[C@H](C)Nc2nc3ccccc3[nH]2)nc1C(C)=O

$$$$
