CC1CC[C@H](C(=O)C2=C(O)CC=C2)C1[NH2+]Cc1cnn(-c2ccccc2)c1
     RDKit          3D

 53 56  0  0  1  0  0  0  0  0999 V2000
  128.0792  136.5125  161.0095 C   0  0  0  0  0  0  0  0  0  0  0  0
  129.5293  136.2080  161.3912 C   0  0  2  0  0  0  0  0  0  0  0  0
  130.0006  137.1509  162.5260 C   0  0  0  0  0  0  0  0  0  0  0  0
  131.5408  137.1419  162.3602 C   0  0  0  0  0  0  0  0  0  0  0  0
  131.7567  137.1194  160.8329 C   0  0  2  0  0  0  0  0  0  0  0  0
  132.6155  136.4950  160.5864 H   0  0  0  0  0  0  0  0  0  0  0  0
  131.9737  138.5203  160.3215 C   0  0  0  0  0  0  0  0  0  0  0  0
  131.0256  139.1910  159.9675 O   0  0  0  0  0  0  0  0  0  0  0  0
  133.2844  139.0548  160.2539 C   0  0  0  0  0  0  0  0  0  0  0  0
  134.3081  138.5303  159.5215 C   0  0  0  0  0  0  0  0  0  0  0  0
  134.2638  137.4328  158.7445 O   0  0  0  0  0  0  0  0  0  0  0  0
  135.5031  139.4272  159.7562 C   0  0  0  0  0  0  0  0  0  0  0  0
  135.0197  140.5043  160.6994 C   0  0  0  0  0  0  0  0  0  0  0  0
  133.7447  140.2593  160.9645 C   0  0  0  0  0  0  0  0  0  0  0  0
  130.4779  136.5256  160.2168 C   0  0  1  0  0  0  0  0  0  0  0  0
  130.7981  135.2948  159.4815 N   0  0  0  0  0  0  0  0  0  0  0  0
  131.4184  135.5120  158.7159 H   0  0  0  0  0  0  0  0  0  0  0  0
  131.2477  134.6392  160.1030 H   0  0  0  0  0  0  0  0  0  0  0  0
  129.5608  134.7021  158.9564 C   0  0  0  0  0  0  0  0  0  0  0  0
  129.8894  133.4396  158.2021 C   0  0  0  0  0  0  0  0  0  0  0  0
  129.9578  132.1513  158.7438 C   0  0  0  0  0  0  0  0  0  0  0  0
  130.2650  131.3183  157.7822 N   0  0  0  0  0  0  0  0  0  0  0  0
  130.4122  132.0518  156.5978 N   0  0  0  0  0  0  0  0  0  0  0  0
  130.7456  131.5299  155.3401 C   0  0  0  0  0  0  0  0  0  0  0  0
  130.8535  132.3739  154.2431 C   0  0  0  0  0  0  0  0  0  0  0  0
  131.1887  131.8576  153.0066 C   0  0  0  0  0  0  0  0  0  0  0  0
  131.4041  130.4998  152.8581 C   0  0  0  0  0  0  0  0  0  0  0  0
  131.2912  129.6557  153.9476 C   0  0  0  0  0  0  0  0  0  0  0  0
  130.9629  130.1670  155.1880 C   0  0  0  0  0  0  0  0  0  0  0  0
  130.1762  133.3524  156.8825 C   0  0  0  0  0  0  0  0  0  0  0  0
  127.9979  137.5520  160.6917 H   0  0  0  0  0  0  0  0  0  0  0  0
  127.7733  135.8580  160.1934 H   0  0  0  0  0  0  0  0  0  0  0  0
  127.4337  136.3447  161.8716 H   0  0  0  0  0  0  0  0  0  0  0  0
  129.6325  135.1658  161.6937 H   0  0  0  0  0  0  0  0  0  0  0  0
  129.7147  136.7555  163.5006 H   0  0  0  0  0  0  0  0  0  0  0  0
  129.6031  138.1563  162.3868 H   0  0  0  0  0  0  0  0  0  0  0  0
  131.9686  136.2507  162.8191 H   0  0  0  0  0  0  0  0  0  0  0  0
  131.9763  138.0420  162.7939 H   0  0  0  0  0  0  0  0  0  0  0  0
  133.6337  137.4395  158.0109 H   0  0  0  0  0  0  0  0  0  0  0  0
  136.3154  138.8620  160.2133 H   0  0  0  0  0  0  0  0  0  0  0  0
  135.8337  139.8692  158.8163 H   0  0  0  0  0  0  0  0  0  0  0  0
  135.6073  141.3234  161.0869 H   0  0  0  0  0  0  0  0  0  0  0  0
  133.1269  140.8624  161.6133 H   0  0  0  0  0  0  0  0  0  0  0  0
  130.0142  137.2506  159.5479 H   0  0  0  0  0  0  0  0  0  0  0  0
  128.8908  134.4674  159.7833 H   0  0  0  0  0  0  0  0  0  0  0  0
  129.0752  135.4104  158.2850 H   0  0  0  0  0  0  0  0  0  0  0  0
  129.7841  131.8890  159.7769 H   0  0  0  0  0  0  0  0  0  0  0  0
  130.6803  133.4338  154.3575 H   0  0  0  0  0  0  0  0  0  0  0  0
  131.2779  132.5143  152.1540 H   0  0  0  0  0  0  0  0  0  0  0  0
  131.6613  130.0977  151.8893 H   0  0  0  0  0  0  0  0  0  0  0  0
  131.4604  128.5957  153.8286 H   0  0  0  0  0  0  0  0  0  0  0  0
  130.8756  129.5074  156.0386 H   0  0  0  0  0  0  0  0  0  0  0  0
  130.2109  134.1742  156.1825 H   0  0  0  0  0  0  0  0  0  0  0  0
  1  2  1  0
  1 31  1  0
  1 32  1  0
  1 33  1  0
  2 15  1  0
  2  3  1  0
  2 34  1  1
  3  4  1  0
  3 35  1  0
  3 36  1  0
  4  5  1  0
  4 37  1  0
  4 38  1  0
  5  6  1  1
  5  7  1  0
  5 15  1  0
  7  8  2  0
  7  9  1  0
  9 14  1  0
  9 10  2  0
 10 11  1  0
 10 12  1  0
 11 39  1  0
 12 13  1  0
 12 40  1  0
 12 41  1  0
 13 14  2  0
 13 42  1  0
 14 43  1  0
 15 16  1  0
 15 44  1  6
 16 17  1  0
 16 18  1  0
 16 19  1  0
 19 20  1  0
 19 45  1  0
 19 46  1  0
 20 30  2  0
 20 21  1  0
 21 22  2  0
 21 47  1  0
 22 23  1  0
 23 24  1  0
 23 30  1  0
 24 29  1  0
 24 25  2  0
 25 26  1  0
 25 48  1  0
 26 27  2  0
 26 49  1  0
 27 28  1  0
 27 50  1  0
 28 29  2  0
 28 51  1  0
 29 52  1  0
 30 53  1  0
M  CHG  1  16   1
M  END
>  <DOCK_score>  (1) 
-56.322643

>  <SMILES>  (1) 
CC1CC[C@H](C(=O)C2=C(O)CC=C2)C1[NH2+]Cc1cnn(-c2ccccc2)c1

$$$$
