COc1ccc(NC(C)c2ccc(Cl)cc2)cc1C[C@H]1CCC[NH+](C2CC(c3ccccc3)C2)C1
     RDKit          3D

 73 77  0  0  1  0  0  0  0  0999 V2000
  125.0702  131.3083  160.1533 C   0  0  0  0  0  0  0  0  0  0  0  0
  125.9643  132.3019  159.6479 O   0  0  0  0  0  0  0  0  0  0  0  0
  126.0345  133.4749  160.3325 C   0  0  0  0  0  0  0  0  0  0  0  0
  125.2582  133.6633  161.4666 C   0  0  0  0  0  0  0  0  0  0  0  0
  125.3296  134.8536  162.1629 C   0  0  0  0  0  0  0  0  0  0  0  0
  126.1785  135.8627  161.7272 C   0  0  0  0  0  0  0  0  0  0  0  0
  126.2518  137.0691  162.4325 N   0  0  0  0  0  0  0  0  0  0  0  0
  127.4992  137.8374  162.4416 C   0  0  2  0  0  0  0  0  0  0  0  0
  128.6177  136.9869  163.0468 C   0  0  0  0  0  0  0  0  0  0  0  0
  127.3145  139.0851  163.2665 C   0  0  0  0  0  0  0  0  0  0  0  0
  128.0363  140.2252  162.9658 C   0  0  0  0  0  0  0  0  0  0  0  0
  127.8632  141.3715  163.7184 C   0  0  0  0  0  0  0  0  0  0  0  0
  126.9756  141.3744  164.7799 C   0  0  0  0  0  0  0  0  0  0  0  0
  126.7624  142.8118  165.7296 Cl  0  0  0  0  0  0  0  0  0  0  0  0
  126.2577  140.2313  165.0837 C   0  0  0  0  0  0  0  0  0  0  0  0
  126.4275  139.0875  164.3268 C   0  0  0  0  0  0  0  0  0  0  0  0
  126.9548  135.6735  160.5918 C   0  0  0  0  0  0  0  0  0  0  0  0
  126.8821  134.4822  159.8964 C   0  0  0  0  0  0  0  0  0  0  0  0
  127.7247  134.2767  158.6639 C   0  0  0  0  0  0  0  0  0  0  0  0
  129.0705  133.6674  159.0619 C   0  0  1  0  0  0  0  0  0  0  0  0
  128.9157  132.9195  159.8398 H   0  0  0  0  0  0  0  0  0  0  0  0
  129.7148  133.0076  157.8393 C   0  0  0  0  0  0  0  0  0  0  0  0
  131.0946  132.4700  158.2294 C   0  0  0  0  0  0  0  0  0  0  0  0
  131.9437  133.6152  158.7852 C   0  0  0  0  0  0  0  0  0  0  0  0
  131.2875  134.1866  159.9673 N   0  0  1  0  0  0  0  0  0  0  0  0
  131.1401  133.4609  160.6526 H   0  0  0  0  0  0  0  0  0  0  0  0
  132.1431  135.2330  160.5427 C   0  0  2  0  0  0  0  0  0  0  0  0
  133.5029  134.7133  161.0382 C   0  0  0  0  0  0  0  0  0  0  0  0
  132.8182  134.4535  162.3935 C   0  0  1  0  0  0  0  0  0  0  0  0
  133.6773  134.8036  163.5811 C   0  0  0  0  0  0  0  0  0  0  0  0
  133.0897  135.2300  164.7574 C   0  0  0  0  0  0  0  0  0  0  0  0
  133.8775  135.5473  165.8481 C   0  0  0  0  0  0  0  0  0  0  0  0
  135.2535  135.4468  165.7595 C   0  0  0  0  0  0  0  0  0  0  0  0
  135.8412  135.0248  164.5816 C   0  0  0  0  0  0  0  0  0  0  0  0
  135.0531  134.7038  163.4922 C   0  0  0  0  0  0  0  0  0  0  0  0
  131.8178  135.5569  162.0103 C   0  0  0  0  0  0  0  0  0  0  0  0
  129.9946  134.7682  159.5869 C   0  0  0  0  0  0  0  0  0  0  0  0
  124.0545  131.7040  160.1614 H   0  0  0  0  0  0  0  0  0  0  0  0
  125.1109  130.4250  159.5159 H   0  0  0  0  0  0  0  0  0  0  0  0
  125.3632  131.0382  161.1677 H   0  0  0  0  0  0  0  0  0  0  0  0
  124.5981  132.8785  161.8054 H   0  0  0  0  0  0  0  0  0  0  0  0
  124.7257  134.9996  163.0464 H   0  0  0  0  0  0  0  0  0  0  0  0
  125.4769  137.3966  162.9153 H   0  0  0  0  0  0  0  0  0  0  0  0
  127.7640  138.1127  161.4207 H   0  0  0  0  0  0  0  0  0  0  0  0
  129.5458  137.5586  163.0537 H   0  0  0  0  0  0  0  0  0  0  0  0
  128.3530  136.7116  164.0677 H   0  0  0  0  0  0  0  0  0  0  0  0
  128.7513  136.0844  162.4503 H   0  0  0  0  0  0  0  0  0  0  0  0
  128.7323  140.2215  162.1401 H   0  0  0  0  0  0  0  0  0  0  0  0
  128.4238  142.2633  163.4809 H   0  0  0  0  0  0  0  0  0  0  0  0
  125.5645  140.2332  165.9118 H   0  0  0  0  0  0  0  0  0  0  0  0
  125.8669  138.1952  164.5636 H   0  0  0  0  0  0  0  0  0  0  0  0
  127.6118  136.4594  160.2497 H   0  0  0  0  0  0  0  0  0  0  0  0
  127.2090  133.6031  157.9795 H   0  0  0  0  0  0  0  0  0  0  0  0
  127.8909  135.2358  158.1735 H   0  0  0  0  0  0  0  0  0  0  0  0
  129.0870  132.1853  157.4957 H   0  0  0  0  0  0  0  0  0  0  0  0
  129.8209  133.7430  157.0418 H   0  0  0  0  0  0  0  0  0  0  0  0
  130.9825  131.6976  158.9902 H   0  0  0  0  0  0  0  0  0  0  0  0
  131.5827  132.0482  157.3507 H   0  0  0  0  0  0  0  0  0  0  0  0
  132.9268  133.2359  159.0637 H   0  0  0  0  0  0  0  0  0  0  0  0
  132.0549  134.3871  158.0237 H   0  0  0  0  0  0  0  0  0  0  0  0
  132.2181  136.1153  159.9071 H   0  0  0  0  0  0  0  0  0  0  0  0
  133.8339  133.8056  160.5334 H   0  0  0  0  0  0  0  0  0  0  0  0
  134.2753  135.4814  161.0794 H   0  0  0  0  0  0  0  0  0  0  0  0
  132.3678  133.4641  162.4726 H   0  0  0  0  0  0  0  0  0  0  0  0
  132.0151  135.3121  164.8255 H   0  0  0  0  0  0  0  0  0  0  0  0
  133.4184  135.8773  166.7683 H   0  0  0  0  0  0  0  0  0  0  0  0
  135.8691  135.6980  166.6105 H   0  0  0  0  0  0  0  0  0  0  0  0
  136.9162  134.9466  164.5123 H   0  0  0  0  0  0  0  0  0  0  0  0
  135.5124  134.3746  162.5719 H   0  0  0  0  0  0  0  0  0  0  0  0
  132.1301  136.5551  162.3167 H   0  0  0  0  0  0  0  0  0  0  0  0
  130.7886  135.3311  162.2894 H   0  0  0  0  0  0  0  0  0  0  0  0
  130.1478  135.5153  158.8081 H   0  0  0  0  0  0  0  0  0  0  0  0
  129.5388  135.2402  160.4573 H   0  0  0  0  0  0  0  0  0  0  0  0
  1  2  1  0
  1 38  1  0
  1 39  1  0
  1 40  1  0
  2  3  1  0
  3 18  2  0
  3  4  1  0
  4  5  2  0
  4 41  1  0
  5  6  1  0
  5 42  1  0
  6  7  1  0
  6 17  2  0
  7  8  1  0
  7 43  1  0
  8  9  1  0
  8 10  1  0
  8 44  1  6
  9 45  1  0
  9 46  1  0
  9 47  1  0
 10 16  1  0
 10 11  2  0
 11 12  1  0
 11 48  1  0
 12 13  2  0
 12 49  1  0
 13 14  1  0
 13 15  1  0
 15 16  2  0
 15 50  1  0
 16 51  1  0
 17 18  1  0
 17 52  1  0
 18 19  1  0
 19 20  1  0
 19 53  1  0
 19 54  1  0
 20 21  1  1
 20 37  1  0
 20 22  1  0
 22 23  1  0
 22 55  1  0
 22 56  1  0
 23 24  1  0
 23 57  1  0
 23 58  1  0
 24 25  1  0
 24 59  1  0
 24 60  1  0
 25 26  1  1
 25 27  1  0
 25 37  1  0
 27 36  1  0
 27 28  1  0
 27 61  1  6
 28 29  1  0
 28 62  1  0
 28 63  1  0
 29 30  1  0
 29 36  1  0
 29 64  1  1
 30 35  1  0
 30 31  2  0
 31 32  1  0
 31 65  1  0
 32 33  2  0
 32 66  1  0
 33 34  1  0
 33 67  1  0
 34 35  2  0
 34 68  1  0
 35 69  1  0
 36 70  1  0
 36 71  1  0
 37 72  1  0
 37 73  1  0
M  CHG  1  25   1
M  END
>  <DOCK_score>  (1) 
-45.413452

>  <SMILES>  (1) 
COc1ccc(NC(C)c2ccc(Cl)cc2)cc1C[C@H]1CCC[NH+](C2CC(c3ccccc3)C2)C1

$$$$
