C=C(C)CNc1ccccc1[C@@H](c1ccc(C)cc1)[NH+]1CCN(c2cccc(C)c2C)CC1
     RDKit          3D

 71 74  0  0  1  0  0  0  0  0999 V2000
  124.4738  133.6858  161.1941 C   0  0  0  0  0  0  0  0  0  0  0  0
  125.5865  132.9981  161.2656 C   0  0  0  0  0  0  0  0  0  0  0  0
  126.5339  133.2155  162.4172 C   0  0  0  0  0  0  0  0  0  0  0  0
  125.9191  131.9894  160.1965 C   0  0  0  0  0  0  0  0  0  0  0  0
  127.1812  132.3598  159.5513 N   0  0  0  0  0  0  0  0  0  0  0  0
  127.2985  133.5908  158.9021 C   0  0  0  0  0  0  0  0  0  0  0  0
  126.1598  134.2742  158.4942 C   0  0  0  0  0  0  0  0  0  0  0  0
  126.2793  135.4937  157.8573 C   0  0  0  0  0  0  0  0  0  0  0  0
  127.5310  136.0319  157.6202 C   0  0  0  0  0  0  0  0  0  0  0  0
  128.6666  135.3518  158.0197 C   0  0  0  0  0  0  0  0  0  0  0  0
  128.5542  134.1318  158.6577 C   0  0  0  0  0  0  0  0  0  0  0  0
  129.7924  133.3911  159.0927 C   0  0  1  0  0  0  0  0  0  0  0  0
  129.5689  132.7999  159.9808 H   0  0  0  0  0  0  0  0  0  0  0  0
  130.2478  132.4786  157.9832 C   0  0  0  0  0  0  0  0  0  0  0  0
  130.5891  133.0051  156.7514 C   0  0  0  0  0  0  0  0  0  0  0  0
  131.0118  132.1686  155.7354 C   0  0  0  0  0  0  0  0  0  0  0  0
  131.0823  130.8044  155.9475 C   0  0  0  0  0  0  0  0  0  0  0  0
  131.5372  129.8917  154.8379 C   0  0  0  0  0  0  0  0  0  0  0  0
  130.7360  130.2774  157.1776 C   0  0  0  0  0  0  0  0  0  0  0  0
  130.3187  131.1145  158.1955 C   0  0  0  0  0  0  0  0  0  0  0  0
  130.8567  134.3554  159.4016 N   0  0  0  0  0  0  0  0  0  0  0  0
  131.0634  134.9026  158.5794 H   0  0  0  0  0  0  0  0  0  0  0  0
  132.0637  133.6332  159.8247 C   0  0  0  0  0  0  0  0  0  0  0  0
  133.1786  134.6365  160.1282 C   0  0  0  0  0  0  0  0  0  0  0  0
  132.7357  135.5499  161.1911 N   0  0  0  0  0  0  0  0  0  0  0  0
  133.7490  136.4480  161.5337 C   0  0  0  0  0  0  0  0  0  0  0  0
  134.2669  137.3115  160.5764 C   0  0  0  0  0  0  0  0  0  0  0  0
  135.2683  138.1986  160.9187 C   0  0  0  0  0  0  0  0  0  0  0  0
  135.7559  138.2277  162.2125 C   0  0  0  0  0  0  0  0  0  0  0  0
  135.2427  137.3698  163.1676 C   0  0  0  0  0  0  0  0  0  0  0  0
  135.7773  137.4052  164.5762 C   0  0  0  0  0  0  0  0  0  0  0  0
  134.2370  136.4839  162.8335 C   0  0  0  0  0  0  0  0  0  0  0  0
  133.6739  135.5536  163.8768 C   0  0  0  0  0  0  0  0  0  0  0  0
  131.5135  136.2619  160.7916 C   0  0  0  0  0  0  0  0  0  0  0  0
  130.4124  135.2451  160.4824 C   0  0  0  0  0  0  0  0  0  0  0  0
  123.7948  133.5299  160.3687 H   0  0  0  0  0  0  0  0  0  0  0  0
  124.2354  134.4085  161.9602 H   0  0  0  0  0  0  0  0  0  0  0  0
  127.2476  133.9973  162.1577 H   0  0  0  0  0  0  0  0  0  0  0  0
  125.9698  133.5170  163.2998 H   0  0  0  0  0  0  0  0  0  0  0  0
  127.0695  132.2896  162.6270 H   0  0  0  0  0  0  0  0  0  0  0  0
  125.1222  131.9721  159.4530 H   0  0  0  0  0  0  0  0  0  0  0  0
  126.0174  131.0016  160.6468 H   0  0  0  0  0  0  0  0  0  0  0  0
  127.9351  131.7501  159.5752 H   0  0  0  0  0  0  0  0  0  0  0  0
  125.1820  133.8546  158.6791 H   0  0  0  0  0  0  0  0  0  0  0  0
  125.3944  136.0274  157.5437 H   0  0  0  0  0  0  0  0  0  0  0  0
  127.6218  136.9855  157.1214 H   0  0  0  0  0  0  0  0  0  0  0  0
  129.6426  135.7746  157.8323 H   0  0  0  0  0  0  0  0  0  0  0  0
  130.5294  134.0704  156.5842 H   0  0  0  0  0  0  0  0  0  0  0  0
  131.2827  132.5802  154.7744 H   0  0  0  0  0  0  0  0  0  0  0  0
  130.6743  129.5719  154.2537 H   0  0  0  0  0  0  0  0  0  0  0  0
  132.2356  130.4246  154.1924 H   0  0  0  0  0  0  0  0  0  0  0  0
  132.0308  129.0188  155.2648 H   0  0  0  0  0  0  0  0  0  0  0  0
  130.7910  129.2115  157.3433 H   0  0  0  0  0  0  0  0  0  0  0  0
  130.0478  130.7027  159.1564 H   0  0  0  0  0  0  0  0  0  0  0  0
  131.8439  133.0521  160.7204 H   0  0  0  0  0  0  0  0  0  0  0  0
  132.3849  132.9636  159.0269 H   0  0  0  0  0  0  0  0  0  0  0  0
  133.4079  135.2085  159.2292 H   0  0  0  0  0  0  0  0  0  0  0  0
  134.0702  134.1019  160.4562 H   0  0  0  0  0  0  0  0  0  0  0  0
  133.8865  137.2892  159.5658 H   0  0  0  0  0  0  0  0  0  0  0  0
  135.6714  138.8700  160.1749 H   0  0  0  0  0  0  0  0  0  0  0  0
  136.5392  138.9225  162.4775 H   0  0  0  0  0  0  0  0  0  0  0  0
  135.1989  138.1160  165.1665 H   0  0  0  0  0  0  0  0  0  0  0  0
  135.6964  136.4132  165.0205 H   0  0  0  0  0  0  0  0  0  0  0  0
  136.8230  137.7123  164.5604 H   0  0  0  0  0  0  0  0  0  0  0  0
  134.2453  134.6253  163.8821 H   0  0  0  0  0  0  0  0  0  0  0  0
  133.7381  136.0255  164.8572 H   0  0  0  0  0  0  0  0  0  0  0  0
  132.6310  135.3368  163.6454 H   0  0  0  0  0  0  0  0  0  0  0  0
  131.7153  136.8608  159.9036 H   0  0  0  0  0  0  0  0  0  0  0  0
  131.1899  136.9127  161.6039 H   0  0  0  0  0  0  0  0  0  0  0  0
  129.5092  135.7708  160.1722 H   0  0  0  0  0  0  0  0  0  0  0  0
  130.2014  134.6556  161.3746 H   0  0  0  0  0  0  0  0  0  0  0  0
  1  2  2  0
  1 36  1  0
  1 37  1  0
  2  3  1  0
  2  4  1  0
  3 38  1  0
  3 39  1  0
  3 40  1  0
  4  5  1  0
  4 41  1  0
  4 42  1  0
  5  6  1  0
  5 43  1  0
  6 11  2  0
  6  7  1  0
  7  8  2  0
  7 44  1  0
  8  9  1  0
  8 45  1  0
  9 10  2  0
  9 46  1  0
 10 11  1  0
 10 47  1  0
 11 12  1  0
 12 13  1  1
 12 14  1  0
 12 21  1  0
 14 20  1  0
 14 15  2  0
 15 16  1  0
 15 48  1  0
 16 17  2  0
 16 49  1  0
 17 18  1  0
 17 19  1  0
 18 50  1  0
 18 51  1  0
 18 52  1  0
 19 20  2  0
 19 53  1  0
 20 54  1  0
 21 22  1  0
 21 35  1  0
 21 23  1  0
 23 24  1  0
 23 55  1  0
 23 56  1  0
 24 25  1  0
 24 57  1  0
 24 58  1  0
 25 26  1  0
 25 34  1  0
 26 32  1  0
 26 27  2  0
 27 28  1  0
 27 59  1  0
 28 29  2  0
 28 60  1  0
 29 30  1  0
 29 61  1  0
 30 31  1  0
 30 32  2  0
 31 62  1  0
 31 63  1  0
 31 64  1  0
 32 33  1  0
 33 65  1  0
 33 66  1  0
 33 67  1  0
 34 35  1  0
 34 68  1  0
 34 69  1  0
 35 70  1  0
 35 71  1  0
M  CHG  1  21   1
M  END
>  <DOCK_score>  (1) 
-55.927353

>  <SMILES>  (1) 
C=C(C)CNc1ccccc1[C@@H](c1ccc(C)cc1)[NH+]1CCN(c2cccc(C)c2C)CC1

$$$$
