O=C(c1c[nH]nc1[C@H]1CCC[NH2+]C1)N(c1cccc(OCCF)c1)c1cccnc1Cl
     RDKit          3D

 55 58  0  0  1  0  0  0  0  0999 V2000
  130.0666  134.2608  162.9455 O   0  0  0  0  0  0  0  0  0  0  0  0
  129.7809  135.3218  162.4242 C   0  0  0  0  0  0  0  0  0  0  0  0
  128.4926  135.4763  161.7255 C   0  0  0  0  0  0  0  0  0  0  0  0
  127.3016  135.8946  162.2849 C   0  0  0  0  0  0  0  0  0  0  0  0
  126.3794  135.9003  161.3091 N   0  0  0  0  0  0  0  0  0  0  0  0
  125.4486  136.1537  161.4104 H   0  0  0  0  0  0  0  0  0  0  0  0
  126.9860  135.4733  160.1225 N   0  0  0  0  0  0  0  0  0  0  0  0
  128.2433  135.2183  160.3586 C   0  0  0  0  0  0  0  0  0  0  0  0
  129.2530  134.7334  159.3504 C   0  0  1  0  0  0  0  0  0  0  0  0
  130.2439  135.0956  159.6246 H   0  0  0  0  0  0  0  0  0  0  0  0
  129.2568  133.2023  159.3262 C   0  0  0  0  0  0  0  0  0  0  0  0
  130.2282  132.7210  158.2446 C   0  0  0  0  0  0  0  0  0  0  0  0
  129.8209  133.3213  156.8972 C   0  0  0  0  0  0  0  0  0  0  0  0
  129.8625  134.7863  156.9777 N   0  0  0  0  0  0  0  0  0  0  0  0
  130.7863  135.0808  157.2566 H   0  0  0  0  0  0  0  0  0  0  0  0
  129.6443  135.1781  156.0737 H   0  0  0  0  0  0  0  0  0  0  0  0
  128.8825  135.2601  157.9624 C   0  0  0  0  0  0  0  0  0  0  0  0
  130.6427  136.3562  162.4852 N   0  0  0  0  0  0  0  0  0  0  0  0
  130.3140  137.5772  161.8852 C   0  0  0  0  0  0  0  0  0  0  0  0
  131.1228  138.1000  160.8837 C   0  0  0  0  0  0  0  0  0  0  0  0
  130.7987  139.3052  160.2919 C   0  0  0  0  0  0  0  0  0  0  0  0
  129.6696  139.9939  160.6936 C   0  0  0  0  0  0  0  0  0  0  0  0
  128.8582  139.4765  161.6934 C   0  0  0  0  0  0  0  0  0  0  0  0
  127.7486  140.1549  162.0877 O   0  0  0  0  0  0  0  0  0  0  0  0
  126.9598  139.5634  163.1220 C   0  0  0  0  0  0  0  0  0  0  0  0
  125.7623  140.4648  163.4288 C   0  0  0  0  0  0  0  0  0  0  0  0
  124.9835  140.6143  162.2762 F   0  0  0  0  0  0  0  0  0  0  0  0
  129.1832  138.2700  162.2937 C   0  0  0  0  0  0  0  0  0  0  0  0
  131.8671  136.2094  163.1489 C   0  0  0  0  0  0  0  0  0  0  0  0
  132.1848  137.0231  164.2330 C   0  0  0  0  0  0  0  0  0  0  0  0
  133.4059  136.8362  164.8609 C   0  0  0  0  0  0  0  0  0  0  0  0
  134.2670  135.8640  164.3881 C   0  0  0  0  0  0  0  0  0  0  0  0
  133.9393  135.1122  163.3550 N   0  0  0  0  0  0  0  0  0  0  0  0
  132.7854  135.2529  162.7318 C   0  0  0  0  0  0  0  0  0  0  0  0
  132.4102  134.2342  161.3771 Cl  0  0  0  0  0  0  0  0  0  0  0  0
  127.1420  136.1694  163.3172 H   0  0  0  0  0  0  0  0  0  0  0  0
  129.5755  132.8232  160.2972 H   0  0  0  0  0  0  0  0  0  0  0  0
  128.2537  132.8387  159.1031 H   0  0  0  0  0  0  0  0  0  0  0  0
  131.2395  133.0414  158.4949 H   0  0  0  0  0  0  0  0  0  0  0  0
  130.1955  131.6332  158.1839 H   0  0  0  0  0  0  0  0  0  0  0  0
  130.5103  132.9805  156.1248 H   0  0  0  0  0  0  0  0  0  0  0  0
  128.8094  133.0005  156.6480 H   0  0  0  0  0  0  0  0  0  0  0  0
  127.8911  134.8982  157.6896 H   0  0  0  0  0  0  0  0  0  0  0  0
  128.8792  136.3499  157.9767 H   0  0  0  0  0  0  0  0  0  0  0  0
  132.0052  137.5635  160.5674 H   0  0  0  0  0  0  0  0  0  0  0  0
  131.4284  139.7100  159.5135 H   0  0  0  0  0  0  0  0  0  0  0  0
  129.4188  140.9359  160.2290 H   0  0  0  0  0  0  0  0  0  0  0  0
  126.6046  138.5863  162.7943 H   0  0  0  0  0  0  0  0  0  0  0  0
  127.5664  139.4469  164.0201 H   0  0  0  0  0  0  0  0  0  0  0  0
  125.1606  140.0136  164.2178 H   0  0  0  0  0  0  0  0  0  0  0  0
  126.1174  141.4418  163.7566 H   0  0  0  0  0  0  0  0  0  0  0  0
  128.5554  137.8680  163.0752 H   0  0  0  0  0  0  0  0  0  0  0  0
  131.4948  137.7785  164.5788 H   0  0  0  0  0  0  0  0  0  0  0  0
  133.6833  137.4464  165.7077 H   0  0  0  0  0  0  0  0  0  0  0  0
  135.2218  135.7179  164.8711 H   0  0  0  0  0  0  0  0  0  0  0  0
  1  2  2  0
  2  3  1  0
  2 18  1  0
  3  8  1  0
  3  4  2  0
  4  5  1  0
  4 36  1  0
  5  6  1  0
  5  7  1  0
  7  8  2  0
  8  9  1  0
  9 10  1  1
  9 17  1  0
  9 11  1  0
 11 12  1  0
 11 37  1  0
 11 38  1  0
 12 13  1  0
 12 39  1  0
 12 40  1  0
 13 14  1  0
 13 41  1  0
 13 42  1  0
 14 15  1  0
 14 16  1  0
 14 17  1  0
 17 43  1  0
 17 44  1  0
 18 19  1  0
 18 29  1  0
 19 28  1  0
 19 20  2  0
 20 21  1  0
 20 45  1  0
 21 22  2  0
 21 46  1  0
 22 23  1  0
 22 47  1  0
 23 24  1  0
 23 28  2  0
 24 25  1  0
 25 26  1  0
 25 48  1  0
 25 49  1  0
 26 27  1  0
 26 50  1  0
 26 51  1  0
 28 52  1  0
 29 34  1  0
 29 30  2  0
 30 31  1  0
 30 53  1  0
 31 32  2  0
 31 54  1  0
 32 33  1  0
 32 55  1  0
 33 34  2  0
 34 35  1  0
M  CHG  1  14   1
M  END
>  <DOCK_score>  (1) 
-40.922863

>  <SMILES>  (1) 
O=C(c1c[nH]nc1[C@H]1CCC[NH2+]C1)N(c1cccc(OCCF)c1)c1cccnc1Cl

$$$$
