Nc1cc(Nc2[nH]cc(-c3cccnc3)[nH+]2)ccc1O
     RDKit          3D

 34 36  0  0  1  0  0  0  0  0999 V2000
  128.2944  134.9787  163.4812 N   0  0  0  0  0  0  0  0  0  0  0  0
  128.1672  135.2597  162.1161 C   0  0  0  0  0  0  0  0  0  0  0  0
  129.1718  134.8905  161.2345 C   0  0  0  0  0  0  0  0  0  0  0  0
  129.0427  135.1712  159.8811 C   0  0  0  0  0  0  0  0  0  0  0  0
  130.0559  134.7992  158.9895 N   0  0  0  0  0  0  0  0  0  0  0  0
  130.0200  133.5559  158.3801 C   0  0  0  0  0  0  0  0  0  0  0  0
  129.4803  132.4262  158.9142 N   0  0  0  0  0  0  0  0  0  0  0  0
  129.0548  132.3477  159.7823 H   0  0  0  0  0  0  0  0  0  0  0  0
  129.6466  131.4189  157.9957 C   0  0  0  0  0  0  0  0  0  0  0  0
  130.2898  131.9591  156.9309 C   0  0  0  0  0  0  0  0  0  0  0  0
  130.6867  131.2416  155.6948 C   0  0  0  0  0  0  0  0  0  0  0  0
  130.1901  131.6416  154.4507 C   0  0  0  0  0  0  0  0  0  0  0  0
  130.5948  130.9424  153.3269 C   0  0  0  0  0  0  0  0  0  0  0  0
  131.4606  129.8733  153.4704 C   0  0  0  0  0  0  0  0  0  0  0  0
  131.9088  129.5160  154.6583 N   0  0  0  0  0  0  0  0  0  0  0  0
  131.5560  130.1542  155.7553 C   0  0  0  0  0  0  0  0  0  0  0  0
  130.5054  133.2717  157.1959 N   0  0  0  0  0  0  0  0  0  0  0  0
  130.9485  133.8997  156.6041 H   0  0  0  0  0  0  0  0  0  0  0  0
  127.9087  135.8209  159.4115 C   0  0  0  0  0  0  0  0  0  0  0  0
  126.9041  136.1837  160.2890 C   0  0  0  0  0  0  0  0  0  0  0  0
  127.0311  135.9110  161.6409 C   0  0  0  0  0  0  0  0  0  0  0  0
  126.0437  136.2743  162.5042 O   0  0  0  0  0  0  0  0  0  0  0  0
  127.5914  135.2375  164.0973 H   0  0  0  0  0  0  0  0  0  0  0  0
  129.0858  134.5252  163.8112 H   0  0  0  0  0  0  0  0  0  0  0  0
  130.0538  134.3858  161.6003 H   0  0  0  0  0  0  0  0  0  0  0  0
  130.7828  135.4123  158.7985 H   0  0  0  0  0  0  0  0  0  0  0  0
  129.3296  130.3920  158.1026 H   0  0  0  0  0  0  0  0  0  0  0  0
  129.5113  132.4775  154.3681 H   0  0  0  0  0  0  0  0  0  0  0  0
  130.2345  131.2255  152.3488 H   0  0  0  0  0  0  0  0  0  0  0  0
  131.7749  129.3227  152.5961 H   0  0  0  0  0  0  0  0  0  0  0  0
  131.9443  129.8321  156.7102 H   0  0  0  0  0  0  0  0  0  0  0  0
  127.8094  136.0388  158.3584 H   0  0  0  0  0  0  0  0  0  0  0  0
  126.0210  136.6846  159.9206 H   0  0  0  0  0  0  0  0  0  0  0  0
  125.2965  136.7201  162.0823 H   0  0  0  0  0  0  0  0  0  0  0  0
  1  2  1  0
  1 23  1  0
  1 24  1  0
  2 21  2  0
  2  3  1  0
  3  4  2  0
  3 25  1  0
  4  5  1  0
  4 19  1  0
  5 26  1  0
  6  5  1  0
  6 17  2  0
  6  7  1  0
  7  8  1  0
  7  9  1  0
  9 10  2  0
  9 27  1  0
 10 11  1  0
 10 17  1  0
 11 16  1  0
 11 12  2  0
 12 13  1  0
 12 28  1  0
 13 14  2  0
 13 29  1  0
 14 15  1  0
 14 30  1  0
 15 16  2  0
 16 31  1  0
 17 18  1  0
 19 20  2  0
 19 32  1  0
 20 21  1  0
 20 33  1  0
 21 22  1  0
 22 34  1  0
M  CHG  1  17   1
M  END
>  <DOCK_score>  (1) 
-44.765152

>  <SMILES>  (1) 
Nc1cc(Nc2[nH]cc(-c3cccnc3)[nH+]2)ccc1O

$$$$
