CCc1ccc(-c2c[nH]c(N[C@H](c3ccccc3)c3ccccc3N)[nH+]2)cc1
     RDKit          3D

 53 56  0  0  1  0  0  0  0  0999 V2000
  130.6074  128.3893  151.7629 C   0  0  0  0  0  0  0  0  0  0  0  0
  131.6730  129.4287  152.1161 C   0  0  0  0  0  0  0  0  0  0  0  0
  131.2623  130.1649  153.3653 C   0  0  0  0  0  0  0  0  0  0  0  0
  131.6481  129.6875  154.6044 C   0  0  0  0  0  0  0  0  0  0  0  0
  131.2798  130.3605  155.7516 C   0  0  0  0  0  0  0  0  0  0  0  0
  130.5078  131.5173  155.6601 C   0  0  0  0  0  0  0  0  0  0  0  0
  130.1041  132.2421  156.8898 C   0  0  0  0  0  0  0  0  0  0  0  0
  129.3658  131.7359  157.9085 C   0  0  0  0  0  0  0  0  0  0  0  0
  129.2273  132.7387  158.8370 N   0  0  0  0  0  0  0  0  0  0  0  0
  128.7484  132.6803  159.6785 H   0  0  0  0  0  0  0  0  0  0  0  0
  129.8856  133.8293  158.3582 C   0  0  0  0  0  0  0  0  0  0  0  0
  129.9865  135.0543  158.9952 N   0  0  0  0  0  0  0  0  0  0  0  0
  128.9126  135.5096  159.8816 C   0  0  2  0  0  0  0  0  0  0  0  0
  128.7889  134.7978  160.6977 H   0  0  0  0  0  0  0  0  0  0  0  0
  127.6265  135.6092  159.1025 C   0  0  0  0  0  0  0  0  0  0  0  0
  126.4162  135.3984  159.7365 C   0  0  0  0  0  0  0  0  0  0  0  0
  125.2363  135.4938  159.0226 C   0  0  0  0  0  0  0  0  0  0  0  0
  125.2670  135.7911  157.6730 C   0  0  0  0  0  0  0  0  0  0  0  0
  126.4774  135.9972  157.0380 C   0  0  0  0  0  0  0  0  0  0  0  0
  127.6573  135.9057  157.7527 C   0  0  0  0  0  0  0  0  0  0  0  0
  129.2652  136.8626  160.4440 C   0  0  0  0  0  0  0  0  0  0  0  0
  130.0468  137.7339  159.7107 C   0  0  0  0  0  0  0  0  0  0  0  0
  130.3700  138.9757  160.2256 C   0  0  0  0  0  0  0  0  0  0  0  0
  129.9128  139.3495  161.4763 C   0  0  0  0  0  0  0  0  0  0  0  0
  129.1315  138.4831  162.2149 C   0  0  0  0  0  0  0  0  0  0  0  0
  128.7997  137.2369  161.6979 C   0  0  0  0  0  0  0  0  0  0  0  0
  128.0048  136.3604  162.4399 N   0  0  0  0  0  0  0  0  0  0  0  0
  130.4131  133.5269  157.1971 N   0  0  0  0  0  0  0  0  0  0  0  0
  130.9385  134.1266  156.6446 H   0  0  0  0  0  0  0  0  0  0  0  0
  130.1170  131.9910  154.4089 C   0  0  0  0  0  0  0  0  0  0  0  0
  130.4960  131.3129  153.2681 C   0  0  0  0  0  0  0  0  0  0  0  0
  130.5051  127.6808  152.5850 H   0  0  0  0  0  0  0  0  0  0  0  0
  129.6538  128.8892  151.5934 H   0  0  0  0  0  0  0  0  0  0  0  0
  130.9044  127.8569  150.8594 H   0  0  0  0  0  0  0  0  0  0  0  0
  132.6264  128.9294  152.2852 H   0  0  0  0  0  0  0  0  0  0  0  0
  131.7750  130.1377  151.2936 H   0  0  0  0  0  0  0  0  0  0  0  0
  132.2422  128.7883  154.6743 H   0  0  0  0  0  0  0  0  0  0  0  0
  131.5855  129.9893  156.7186 H   0  0  0  0  0  0  0  0  0  0  0  0
  128.9635  130.7360  157.9765 H   0  0  0  0  0  0  0  0  0  0  0  0
  130.7683  135.6111  158.8547 H   0  0  0  0  0  0  0  0  0  0  0  0
  126.3924  135.1625  160.7901 H   0  0  0  0  0  0  0  0  0  0  0  0
  124.2906  135.3325  159.5187 H   0  0  0  0  0  0  0  0  0  0  0  0
  124.3453  135.8622  157.1146 H   0  0  0  0  0  0  0  0  0  0  0  0
  126.5014  136.2292  155.9835 H   0  0  0  0  0  0  0  0  0  0  0  0
  128.6029  136.0663  157.2566 H   0  0  0  0  0  0  0  0  0  0  0  0
  130.4056  137.4450  158.7339 H   0  0  0  0  0  0  0  0  0  0  0  0
  130.9810  139.6552  159.6501 H   0  0  0  0  0  0  0  0  0  0  0  0
  130.1678  140.3199  161.8759 H   0  0  0  0  0  0  0  0  0  0  0  0
  128.7748  138.7756  163.1915 H   0  0  0  0  0  0  0  0  0  0  0  0
  127.7772  135.4891  162.0796 H   0  0  0  0  0  0  0  0  0  0  0  0
  127.6804  136.6230  163.3155 H   0  0  0  0  0  0  0  0  0  0  0  0
  129.5186  132.8868  154.3322 H   0  0  0  0  0  0  0  0  0  0  0  0
  130.1941  131.6794  152.2981 H   0  0  0  0  0  0  0  0  0  0  0  0
  1  2  1  0
  1 32  1  0
  1 33  1  0
  1 34  1  0
  2  3  1  0
  2 35  1  0
  2 36  1  0
  3 31  2  0
  3  4  1  0
  4  5  2  0
  4 37  1  0
  5  6  1  0
  5 38  1  0
  6  7  1  0
  6 30  2  0
  7 28  1  0
  7  8  2  0
  8  9  1  0
  8 39  1  0
  9 10  1  0
  9 11  1  0
 11 12  1  0
 11 28  2  0
 12 13  1  0
 12 40  1  0
 13 14  1  1
 13 15  1  0
 13 21  1  0
 15 20  1  0
 15 16  2  0
 16 17  1  0
 16 41  1  0
 17 18  2  0
 17 42  1  0
 18 19  1  0
 18 43  1  0
 19 20  2  0
 19 44  1  0
 20 45  1  0
 21 26  1  0
 21 22  2  0
 22 23  1  0
 22 46  1  0
 23 24  2  0
 23 47  1  0
 24 25  1  0
 24 48  1  0
 25 26  2  0
 25 49  1  0
 26 27  1  0
 27 50  1  0
 27 51  1  0
 28 29  1  0
 30 31  1  0
 30 52  1  0
 31 53  1  0
M  CHG  1  28   1
M  END
>  <DOCK_score>  (1) 
-63.360504

>  <SMILES>  (1) 
CCc1ccc(-c2c[nH]c(N[C@H](c3ccccc3)c3ccccc3N)[nH+]2)cc1

$$$$
