BrC1(Br)CC1CNc1ccc(-c2n[nH]cc2C[NH2+]C[C@H]2CC23CC3)cc1
     RDKit          3D

 51 55  0  0  1  0  0  0  0  0999 V2000
  127.1428  140.0556  163.2057 Br  0  0  0  0  0  0  0  0  0  0  0  0
  125.7519  139.4174  164.4397 C   0  0  0  0  0  0  0  0  0  0  0  0
  123.9816  140.2448  164.2236 Br  0  0  0  0  0  0  0  0  0  0  0  0
  126.1854  139.0363  165.8567 C   0  0  0  0  0  0  0  0  0  0  0  0
  125.7979  137.9457  164.8560 C   0  0  2  0  0  0  0  0  0  0  0  0
  126.9227  137.0835  164.2798 C   0  0  0  0  0  0  0  0  0  0  0  0
  126.5749  136.6732  162.9176 N   0  0  0  0  0  0  0  0  0  0  0  0
  127.4537  135.8752  162.1826 C   0  0  0  0  0  0  0  0  0  0  0  0
  127.3527  135.8253  160.7969 C   0  0  0  0  0  0  0  0  0  0  0  0
  128.2197  135.0378  160.0696 C   0  0  0  0  0  0  0  0  0  0  0  0
  129.1979  134.2916  160.7244 C   0  0  0  0  0  0  0  0  0  0  0  0
  130.1323  133.4433  159.9436 C   0  0  0  0  0  0  0  0  0  0  0  0
  129.7963  132.4454  159.1538 N   0  0  0  0  0  0  0  0  0  0  0  0
  130.9690  131.9084  158.6078 N   0  0  0  0  0  0  0  0  0  0  0  0
  131.0195  131.1624  157.9898 H   0  0  0  0  0  0  0  0  0  0  0  0
  132.0168  132.6131  159.0865 C   0  0  0  0  0  0  0  0  0  0  0  0
  131.5354  133.5636  159.9170 C   0  0  0  0  0  0  0  0  0  0  0  0
  132.3538  134.5767  160.6752 C   0  0  0  0  0  0  0  0  0  0  0  0
  132.5243  135.7824  159.8535 N   0  0  0  0  0  0  0  0  0  0  0  0
  131.6195  136.1738  159.6386 H   0  0  0  0  0  0  0  0  0  0  0  0
  132.9983  135.5408  158.9961 H   0  0  0  0  0  0  0  0  0  0  0  0
  133.3222  136.7700  160.5924 C   0  0  0  0  0  0  0  0  0  0  0  0
  133.4998  138.0256  159.7365 C   0  0  1  0  0  0  0  0  0  0  0  0
  134.0039  137.8763  158.7817 H   0  0  0  0  0  0  0  0  0  0  0  0
  132.3945  139.0820  159.7941 C   0  0  0  0  0  0  0  0  0  0  0  0
  133.7432  139.3487  160.4652 C   0  0  0  0  0  0  0  0  0  0  0  0
  134.8011  140.4528  160.5161 C   0  0  0  0  0  0  0  0  0  0  0  0
  134.2777  139.8343  161.8140 C   0  0  0  0  0  0  0  0  0  0  0  0
  129.2937  134.3386  162.1142 C   0  0  0  0  0  0  0  0  0  0  0  0
  128.4289  135.1324  162.8373 C   0  0  0  0  0  0  0  0  0  0  0  0
  125.4890  139.2444  166.6690 H   0  0  0  0  0  0  0  0  0  0  0  0
  127.2417  139.1394  166.1046 H   0  0  0  0  0  0  0  0  0  0  0  0
  124.8467  137.4361  165.0101 H   0  0  0  0  0  0  0  0  0  0  0  0
  127.0573  136.1987  164.9020 H   0  0  0  0  0  0  0  0  0  0  0  0
  127.8485  137.6588  164.2614 H   0  0  0  0  0  0  0  0  0  0  0  0
  125.7343  136.9574  162.5250 H   0  0  0  0  0  0  0  0  0  0  0  0
  126.5945  136.4036  160.2898 H   0  0  0  0  0  0  0  0  0  0  0  0
  128.1413  134.9995  158.9931 H   0  0  0  0  0  0  0  0  0  0  0  0
  133.0568  132.4450  158.8489 H   0  0  0  0  0  0  0  0  0  0  0  0
  133.3313  134.1540  160.9073 H   0  0  0  0  0  0  0  0  0  0  0  0
  131.8416  134.8378  161.6013 H   0  0  0  0  0  0  0  0  0  0  0  0
  134.2997  136.3471  160.8243 H   0  0  0  0  0  0  0  0  0  0  0  0
  132.8102  137.0309  161.5185 H   0  0  0  0  0  0  0  0  0  0  0  0
  132.1718  139.6279  158.8773 H   0  0  0  0  0  0  0  0  0  0  0  0
  131.5406  138.8822  160.4415 H   0  0  0  0  0  0  0  0  0  0  0  0
  135.8141  140.1938  160.2079 H   0  0  0  0  0  0  0  0  0  0  0  0
  134.4818  141.4671  160.2775 H   0  0  0  0  0  0  0  0  0  0  0  0
  133.6139  140.4418  162.4291 H   0  0  0  0  0  0  0  0  0  0  0  0
  134.9463  139.1684  162.3597 H   0  0  0  0  0  0  0  0  0  0  0  0
  130.0479  133.7573  162.6237 H   0  0  0  0  0  0  0  0  0  0  0  0
  128.5061  135.1732  163.9138 H   0  0  0  0  0  0  0  0  0  0  0  0
  1  2  1  0
  2  5  1  0
  2  3  1  0
  2  4  1  0
  4  5  1  0
  4 31  1  0
  4 32  1  0
  5  6  1  0
  5 33  1  1
  6  7  1  0
  6 34  1  0
  6 35  1  0
  7  8  1  0
  7 36  1  0
  8 30  1  0
  8  9  2  0
  9 10  1  0
  9 37  1  0
 10 11  2  0
 10 38  1  0
 11 12  1  0
 11 29  1  0
 12 17  1  0
 12 13  2  0
 13 14  1  0
 14 15  1  0
 14 16  1  0
 16 17  2  0
 16 39  1  0
 17 18  1  0
 18 19  1  0
 18 40  1  0
 18 41  1  0
 19 20  1  0
 19 21  1  0
 19 22  1  0
 22 23  1  0
 22 42  1  0
 22 43  1  0
 23 24  1  6
 23 26  1  0
 23 25  1  0
 25 26  1  0
 25 44  1  0
 25 45  1  0
 26 28  1  0
 26 27  1  0
 27 28  1  0
 27 46  1  0
 27 47  1  0
 28 48  1  0
 28 49  1  0
 29 30  2  0
 29 50  1  0
 30 51  1  0
M  CHG  1  19   1
M  END
>  <DOCK_score>  (1) 
-43.980091

>  <SMILES>  (1) 
BrC1(Br)CC1CNc1ccc(-c2n[nH]cc2C[NH2+]C[C@H]2CC23CC3)cc1

$$$$
