Nc1ccccc1-c1c[nH]c(N[C@@H](Cc2ccc(Cl)cc2)c2ccc(Cl)cc2)[nH+]1
     RDKit          3D

 50 53  0  0  1  0  0  0  0  0999 V2000
  126.3438  135.7196  160.4865 N   0  0  0  0  0  0  0  0  0  0  0  0
  126.0932  134.3730  160.2164 C   0  0  0  0  0  0  0  0  0  0  0  0
  124.8483  133.8273  160.4929 C   0  0  0  0  0  0  0  0  0  0  0  0
  124.6020  132.4943  160.2243 C   0  0  0  0  0  0  0  0  0  0  0  0
  125.5930  131.6967  159.6797 C   0  0  0  0  0  0  0  0  0  0  0  0
  126.8349  132.2276  159.3936 C   0  0  0  0  0  0  0  0  0  0  0  0
  127.0970  133.5682  159.6651 C   0  0  0  0  0  0  0  0  0  0  0  0
  128.4316  134.1419  159.3658 C   0  0  0  0  0  0  0  0  0  0  0  0
  129.0228  134.1935  158.1464 C   0  0  0  0  0  0  0  0  0  0  0  0
  130.2408  134.8073  158.3197 N   0  0  0  0  0  0  0  0  0  0  0  0
  130.8946  134.9924  157.6275 H   0  0  0  0  0  0  0  0  0  0  0  0
  130.3609  135.1040  159.6422 C   0  0  0  0  0  0  0  0  0  0  0  0
  131.4469  135.7268  160.2335 N   0  0  0  0  0  0  0  0  0  0  0  0
  131.4462  135.9877  161.6750 C   0  0  1  0  0  0  0  0  0  0  0  0
  131.0124  135.1356  162.1983 H   0  0  0  0  0  0  0  0  0  0  0  0
  132.8829  136.2035  162.1550 C   0  0  0  0  0  0  0  0  0  0  0  0
  133.4826  137.3815  161.4314 C   0  0  0  0  0  0  0  0  0  0  0  0
  134.1598  137.1899  160.2415 C   0  0  0  0  0  0  0  0  0  0  0  0
  134.7052  138.2708  159.5746 C   0  0  0  0  0  0  0  0  0  0  0  0
  134.5830  139.5431  160.1039 C   0  0  0  0  0  0  0  0  0  0  0  0
  135.2743  140.9002  159.2706 Cl  0  0  0  0  0  0  0  0  0  0  0  0
  133.9100  139.7336  161.2975 C   0  0  0  0  0  0  0  0  0  0  0  0
  133.3602  138.6527  161.9606 C   0  0  0  0  0  0  0  0  0  0  0  0
  130.6301  137.2217  161.9617 C   0  0  0  0  0  0  0  0  0  0  0  0
  129.9591  137.3425  163.1642 C   0  0  0  0  0  0  0  0  0  0  0  0
  129.2151  138.4766  163.4300 C   0  0  0  0  0  0  0  0  0  0  0  0
  129.1327  139.4860  162.4876 C   0  0  0  0  0  0  0  0  0  0  0  0
  128.1930  140.9079  162.8180 Cl  0  0  0  0  0  0  0  0  0  0  0  0
  129.7999  139.3621  161.2818 C   0  0  0  0  0  0  0  0  0  0  0  0
  130.5482  138.2301  161.0195 C   0  0  0  0  0  0  0  0  0  0  0  0
  129.2766  134.7081  160.2633 N   0  0  0  0  0  0  0  0  0  0  0  0
  129.1059  134.8043  161.2134 H   0  0  0  0  0  0  0  0  0  0  0  0
  127.2151  136.0992  160.2922 H   0  0  0  0  0  0  0  0  0  0  0  0
  125.6469  136.2755  160.8687 H   0  0  0  0  0  0  0  0  0  0  0  0
  124.0710  134.4446  160.9186 H   0  0  0  0  0  0  0  0  0  0  0  0
  123.6314  132.0728  160.4409 H   0  0  0  0  0  0  0  0  0  0  0  0
  125.3927  130.6556  159.4735 H   0  0  0  0  0  0  0  0  0  0  0  0
  127.6039  131.6028  158.9641 H   0  0  0  0  0  0  0  0  0  0  0  0
  128.6132  133.8274  157.2166 H   0  0  0  0  0  0  0  0  0  0  0  0
  132.2100  135.9866  159.6939 H   0  0  0  0  0  0  0  0  0  0  0  0
  132.8824  136.3977  163.2274 H   0  0  0  0  0  0  0  0  0  0  0  0
  133.4732  135.3108  161.9476 H   0  0  0  0  0  0  0  0  0  0  0  0
  134.2590  136.1960  159.8308 H   0  0  0  0  0  0  0  0  0  0  0  0
  135.2304  138.1215  158.6428 H   0  0  0  0  0  0  0  0  0  0  0  0
  133.8146  140.7267  161.7113 H   0  0  0  0  0  0  0  0  0  0  0  0
  132.8352  138.8012  162.8927 H   0  0  0  0  0  0  0  0  0  0  0  0
  130.0199  136.5524  163.8981 H   0  0  0  0  0  0  0  0  0  0  0  0
  128.6944  138.5727  164.3713 H   0  0  0  0  0  0  0  0  0  0  0  0
  129.7356  140.1497  160.5456 H   0  0  0  0  0  0  0  0  0  0  0  0
  131.0693  138.1335  160.0785 H   0  0  0  0  0  0  0  0  0  0  0  0
  1  2  1  0
  1 33  1  0
  1 34  1  0
  2  7  2  0
  2  3  1  0
  3  4  2  0
  3 35  1  0
  4  5  1  0
  4 36  1  0
  5  6  2  0
  5 37  1  0
  6  7  1  0
  6 38  1  0
  7  8  1  0
  8 31  1  0
  8  9  2  0
  9 10  1  0
  9 39  1  0
 10 11  1  0
 10 12  1  0
 12 13  1  0
 12 31  2  0
 13 14  1  0
 13 40  1  0
 14 15  1  1
 14 16  1  0
 14 24  1  0
 16 17  1  0
 16 41  1  0
 16 42  1  0
 17 23  1  0
 17 18  2  0
 18 19  1  0
 18 43  1  0
 19 20  2  0
 19 44  1  0
 20 21  1  0
 20 22  1  0
 22 23  2  0
 22 45  1  0
 23 46  1  0
 24 30  1  0
 24 25  2  0
 25 26  1  0
 25 47  1  0
 26 27  2  0
 26 48  1  0
 27 28  1  0
 27 29  1  0
 29 30  2  0
 29 49  1  0
 30 50  1  0
 31 32  1  0
M  CHG  1  31   1
M  END
>  <DOCK_score>  (1) 
-51.457783

>  <SMILES>  (1) 
Nc1ccccc1-c1c[nH]c(N[C@@H](Cc2ccc(Cl)cc2)c2ccc(Cl)cc2)[nH+]1

$$$$
