O=C1C=C(Nc2ccc(-c3n[nH]cc3C[NH2+]Cc3cccc(Cl)c3)o2)CC1
     RDKit          3D

 47 50  0  0  0  0  0  0  0  0999 V2000
  127.4010  139.7120  164.7746 O   0  0  0  0  0  0  0  0  0  0  0  0
  127.4278  138.6164  164.2488 C   0  0  0  0  0  0  0  0  0  0  0  0
  126.5639  138.1718  163.2481 C   0  0  0  0  0  0  0  0  0  0  0  0
  126.8188  136.9096  162.8503 C   0  0  0  0  0  0  0  0  0  0  0  0
  126.1246  136.2325  161.8923 N   0  0  0  0  0  0  0  0  0  0  0  0
  126.7630  135.2663  161.1236 C   0  0  0  0  0  0  0  0  0  0  0  0
  126.1785  134.1646  160.5898 C   0  0  0  0  0  0  0  0  0  0  0  0
  127.1811  133.4650  159.8916 C   0  0  0  0  0  0  0  0  0  0  0  0
  128.3307  134.1768  160.0345 C   0  0  0  0  0  0  0  0  0  0  0  0
  129.6472  133.8179  159.4676 C   0  0  0  0  0  0  0  0  0  0  0  0
  129.9133  132.7538  158.7357 N   0  0  0  0  0  0  0  0  0  0  0  0
  131.2729  132.7856  158.4007 N   0  0  0  0  0  0  0  0  0  0  0  0
  131.7427  132.1259  157.8671 H   0  0  0  0  0  0  0  0  0  0  0  0
  131.8150  133.8972  158.9440 C   0  0  0  0  0  0  0  0  0  0  0  0
  130.8426  134.5528  159.6130 C   0  0  0  0  0  0  0  0  0  0  0  0
  131.0040  135.8432  160.3741 C   0  0  0  0  0  0  0  0  0  0  0  0
  130.7568  136.9773  159.4736 N   0  0  0  0  0  0  0  0  0  0  0  0
  129.8183  136.9178  159.1078 H   0  0  0  0  0  0  0  0  0  0  0  0
  131.4173  136.9515  158.7112 H   0  0  0  0  0  0  0  0  0  0  0  0
  130.9142  138.2353  160.2156 C   0  0  0  0  0  0  0  0  0  0  0  0
  132.3158  138.3242  160.7621 C   0  0  0  0  0  0  0  0  0  0  0  0
  133.3165  138.9071  160.0068 C   0  0  0  0  0  0  0  0  0  0  0  0
  134.6011  138.9934  160.5094 C   0  0  0  0  0  0  0  0  0  0  0  0
  134.8885  138.4873  161.7634 C   0  0  0  0  0  0  0  0  0  0  0  0
  133.8890  137.8993  162.5172 C   0  0  0  0  0  0  0  0  0  0  0  0
  134.2489  137.2641  164.0923 Cl  0  0  0  0  0  0  0  0  0  0  0  0
  132.6018  137.8179  162.0158 C   0  0  0  0  0  0  0  0  0  0  0  0
  128.0647  135.2637  160.7877 O   0  0  0  0  0  0  0  0  0  0  0  0
  127.9954  136.3620  163.6236 C   0  0  0  0  0  0  0  0  0  0  0  0
  128.4077  137.5084  164.5659 C   0  0  0  0  0  0  0  0  0  0  0  0
  125.7699  138.7767  162.8356 H   0  0  0  0  0  0  0  0  0  0  0  0
  125.1850  136.4251  161.7469 H   0  0  0  0  0  0  0  0  0  0  0  0
  125.1413  133.8781  160.6832 H   0  0  0  0  0  0  0  0  0  0  0  0
  127.0601  132.5406  159.3464 H   0  0  0  0  0  0  0  0  0  0  0  0
  132.8466  134.2059  158.8602 H   0  0  0  0  0  0  0  0  0  0  0  0
  132.0179  135.9076  160.7694 H   0  0  0  0  0  0  0  0  0  0  0  0
  130.2905  135.8711  161.1977 H   0  0  0  0  0  0  0  0  0  0  0  0
  130.2008  138.2632  161.0392 H   0  0  0  0  0  0  0  0  0  0  0  0
  130.7307  139.0766  159.5473 H   0  0  0  0  0  0  0  0  0  0  0  0
  133.0934  139.2986  159.0253 H   0  0  0  0  0  0  0  0  0  0  0  0
  135.3816  139.4525  159.9207 H   0  0  0  0  0  0  0  0  0  0  0  0
  135.8933  138.5514  162.1544 H   0  0  0  0  0  0  0  0  0  0  0  0
  131.8210  137.3592  162.6041 H   0  0  0  0  0  0  0  0  0  0  0  0
  127.6974  135.4855  164.1990 H   0  0  0  0  0  0  0  0  0  0  0  0
  128.8120  136.1117  162.9465 H   0  0  0  0  0  0  0  0  0  0  0  0
  128.3118  137.2002  165.6069 H   0  0  0  0  0  0  0  0  0  0  0  0
  129.4277  137.8287  164.3540 H   0  0  0  0  0  0  0  0  0  0  0  0
  1  2  2  0
  2 30  1  0
  2  3  1  0
  3  4  2  0
  3 31  1  0
  4  5  1  0
  4 29  1  0
  5  6  1  0
  5 32  1  0
  6 28  1  0
  6  7  2  0
  7  8  1  0
  7 33  1  0
  8  9  2  0
  8 34  1  0
  9 10  1  0
  9 28  1  0
 10 15  1  0
 10 11  2  0
 11 12  1  0
 12 13  1  0
 12 14  1  0
 14 15  2  0
 14 35  1  0
 15 16  1  0
 16 17  1  0
 16 36  1  0
 16 37  1  0
 17 18  1  0
 17 19  1  0
 17 20  1  0
 20 21  1  0
 20 38  1  0
 20 39  1  0
 21 27  1  0
 21 22  2  0
 22 23  1  0
 22 40  1  0
 23 24  2  0
 23 41  1  0
 24 25  1  0
 24 42  1  0
 25 26  1  0
 25 27  2  0
 27 43  1  0
 29 30  1  0
 29 44  1  0
 29 45  1  0
 30 46  1  0
 30 47  1  0
M  CHG  1  17   1
M  END
>  <DOCK_score>  (1) 
-41.590698

>  <SMILES>  (1) 
O=C1C=C(Nc2ccc(-c3n[nH]cc3C[NH2+]Cc3cccc(Cl)c3)o2)CC1

$$$$
