O=C1C[C@H]([NH+]2CCCC(n3cccn3)C2)C(=O)N1c1ccc(O)cc1
     RDKit          3D

 46 49  0  0  1  0  0  0  0  0999 V2000
  127.3315  137.3114  162.0429 O   0  0  0  0  0  0  0  0  0  0  0  0
  128.1971  137.3817  161.1971 C   0  0  0  0  0  0  0  0  0  0  0  0
  128.4941  136.3238  160.1568 C   0  0  0  0  0  0  0  0  0  0  0  0
  129.6738  136.9198  159.3616 C   0  0  2  0  0  0  0  0  0  0  0  0
  129.3994  137.0603  158.3161 H   0  0  0  0  0  0  0  0  0  0  0  0
  130.8616  136.0627  159.4724 N   0  0  1  0  0  0  0  0  0  0  0  0
  131.6197  136.4705  158.9459 H   0  0  0  0  0  0  0  0  0  0  0  0
  131.2524  135.9505  160.8828 C   0  0  0  0  0  0  0  0  0  0  0  0
  132.5360  135.1254  160.9963 C   0  0  0  0  0  0  0  0  0  0  0  0
  132.2907  133.7279  160.4202 C   0  0  0  0  0  0  0  0  0  0  0  0
  131.8121  133.8605  158.9716 C   0  0  1  0  0  0  0  0  0  0  0  0
  131.5030  132.5327  158.4351 N   0  0  0  0  0  0  0  0  0  0  0  0
  131.0553  132.2635  157.1909 C   0  0  0  0  0  0  0  0  0  0  0  0
  130.8967  130.9235  157.0905 C   0  0  0  0  0  0  0  0  0  0  0  0
  131.2508  130.3551  158.3183 C   0  0  0  0  0  0  0  0  0  0  0  0
  131.6144  131.3186  159.1253 N   0  0  0  0  0  0  0  0  0  0  0  0
  130.5547  134.7319  158.9347 C   0  0  0  0  0  0  0  0  0  0  0  0
  129.9155  138.2543  160.0327 C   0  0  0  0  0  0  0  0  0  0  0  0
  130.7668  139.0564  159.7141 O   0  0  0  0  0  0  0  0  0  0  0  0
  129.0400  138.4090  161.0337 N   0  0  0  0  0  0  0  0  0  0  0  0
  129.0119  139.5515  161.8483 C   0  0  0  0  0  0  0  0  0  0  0  0
  129.4062  140.7796  161.3353 C   0  0  0  0  0  0  0  0  0  0  0  0
  129.3727  141.9045  162.1353 C   0  0  0  0  0  0  0  0  0  0  0  0
  128.9501  141.8065  163.4529 C   0  0  0  0  0  0  0  0  0  0  0  0
  128.9163  142.9146  164.2400 O   0  0  0  0  0  0  0  0  0  0  0  0
  128.5615  140.5783  163.9678 C   0  0  0  0  0  0  0  0  0  0  0  0
  128.5946  139.4528  163.1685 C   0  0  0  0  0  0  0  0  0  0  0  0
  127.6332  136.1677  159.5068 H   0  0  0  0  0  0  0  0  0  0  0  0
  128.7871  135.3889  160.6347 H   0  0  0  0  0  0  0  0  0  0  0  0
  131.4236  136.9461  161.2922 H   0  0  0  0  0  0  0  0  0  0  0  0
  130.4555  135.4607  161.4423 H   0  0  0  0  0  0  0  0  0  0  0  0
  133.3337  135.6146  160.4373 H   0  0  0  0  0  0  0  0  0  0  0  0
  132.8235  135.0418  162.0443 H   0  0  0  0  0  0  0  0  0  0  0  0
  133.2175  133.1548  160.4469 H   0  0  0  0  0  0  0  0  0  0  0  0
  131.5288  133.2189  161.0107 H   0  0  0  0  0  0  0  0  0  0  0  0
  132.5948  134.3233  158.3705 H   0  0  0  0  0  0  0  0  0  0  0  0
  130.8608  132.9879  156.4137 H   0  0  0  0  0  0  0  0  0  0  0  0
  130.5530  130.3879  156.2178 H   0  0  0  0  0  0  0  0  0  0  0  0
  131.2283  129.3024  158.5588 H   0  0  0  0  0  0  0  0  0  0  0  0
  129.7730  134.2686  159.5368 H   0  0  0  0  0  0  0  0  0  0  0  0
  130.2104  134.8271  157.9049 H   0  0  0  0  0  0  0  0  0  0  0  0
  129.7348  140.8561  160.3094 H   0  0  0  0  0  0  0  0  0  0  0  0
  129.6751  142.8610  161.7349 H   0  0  0  0  0  0  0  0  0  0  0  0
  128.6085  142.7477  165.1414 H   0  0  0  0  0  0  0  0  0  0  0  0
  128.2326  140.5024  164.9936 H   0  0  0  0  0  0  0  0  0  0  0  0
  128.2915  138.4968  163.5691 H   0  0  0  0  0  0  0  0  0  0  0  0
  1  2  2  0
  2 20  1  0
  2  3  1  0
  3  4  1  0
  3 28  1  0
  3 29  1  0
  4  5  1  6
  4  6  1  0
  4 18  1  0
  6  7  1  6
  6 17  1  0
  6  8  1  0
  8  9  1  0
  8 30  1  0
  8 31  1  0
  9 10  1  0
  9 32  1  0
  9 33  1  0
 10 11  1  0
 10 34  1  0
 10 35  1  0
 11 12  1  0
 11 17  1  0
 11 36  1  6
 12 16  1  0
 12 13  1  0
 13 14  2  0
 13 37  1  0
 14 15  1  0
 14 38  1  0
 15 16  2  0
 15 39  1  0
 17 40  1  0
 17 41  1  0
 18 19  2  0
 18 20  1  0
 20 21  1  0
 21 27  1  0
 21 22  2  0
 22 23  1  0
 22 42  1  0
 23 24  2  0
 23 43  1  0
 24 25  1  0
 24 26  1  0
 25 44  1  0
 26 27  2  0
 26 45  1  0
 27 46  1  0
M  CHG  1   6   1
M  END
>  <DOCK_score>  (1) 
-45.607025

>  <SMILES>  (1) 
O=C1C[C@H]([NH+]2CCCC(n3cccn3)C2)C(=O)N1c1ccc(O)cc1

$$$$
