CC(C[NH+]1CC2CC=CC[C@@H]2C1)C(=O)NC1CC2(CCC2)C1
     RDKit          3D

 53 56  0  0  1  0  0  0  0  0999 V2000
  130.5660  137.7038  160.2638 C   0  0  0  0  0  0  0  0  0  0  0  0
  129.6375  136.6099  160.7951 C   0  0  2  0  0  0  0  0  0  0  0  0
  129.0616  135.8153  159.6212 C   0  0  0  0  0  0  0  0  0  0  0  0
  130.1582  135.2004  158.8614 N   0  0  0  0  0  0  0  0  0  0  0  0
  130.7725  135.9194  158.5096 H   0  0  0  0  0  0  0  0  0  0  0  0
  130.9216  134.2745  159.7420 C   0  0  0  0  0  0  0  0  0  0  0  0
  131.3191  133.1253  158.8075 C   0  0  1  0  0  0  0  0  0  0  0  0
  131.5781  131.7936  159.4930 C   0  0  0  0  0  0  0  0  0  0  0  0
  131.5650  130.7230  158.4265 C   0  0  0  0  0  0  0  0  0  0  0  0
  131.0446  130.8702  157.2468 C   0  0  0  0  0  0  0  0  0  0  0  0
  130.3554  132.1285  156.7712 C   0  0  0  0  0  0  0  0  0  0  0  0
  130.0039  132.9600  157.9853 C   0  0  2  0  0  0  0  0  0  0  0  0
  129.2464  132.4425  158.5741 H   0  0  0  0  0  0  0  0  0  0  0  0
  129.6061  134.4111  157.7272 C   0  0  0  0  0  0  0  0  0  0  0  0
  128.5126  137.2408  161.5746 C   0  0  0  0  0  0  0  0  0  0  0  0
  127.3634  137.0715  161.2257 O   0  0  0  0  0  0  0  0  0  0  0  0
  128.7835  137.9932  162.6593 N   0  0  0  0  0  0  0  0  0  0  0  0
  127.6901  138.6066  163.4171 C   0  0  0  0  0  0  0  0  0  0  0  0
  127.4871  140.1006  163.1059 C   0  0  0  0  0  0  0  0  0  0  0  0
  127.2592  140.2924  164.6074 C   0  0  0  0  0  0  0  0  0  0  0  0
  127.6103  141.6100  165.2993 C   0  0  0  0  0  0  0  0  0  0  0  0
  126.1089  141.9443  165.2333 C   0  0  0  0  0  0  0  0  0  0  0  0
  125.8480  140.4280  165.1803 C   0  0  0  0  0  0  0  0  0  0  0  0
  128.0900  139.0303  164.8422 C   0  0  0  0  0  0  0  0  0  0  0  0
  130.0240  138.3261  159.5516 H   0  0  0  0  0  0  0  0  0  0  0  0
  130.9140  138.3195  161.0931 H   0  0  0  0  0  0  0  0  0  0  0  0
  131.4214  137.2450  159.7679 H   0  0  0  0  0  0  0  0  0  0  0  0
  130.1998  135.9406  161.4460 H   0  0  0  0  0  0  0  0  0  0  0  0
  128.4991  136.4846  158.9704 H   0  0  0  0  0  0  0  0  0  0  0  0
  128.4002  135.0358  159.9999 H   0  0  0  0  0  0  0  0  0  0  0  0
  130.2909  133.9089  160.5523 H   0  0  0  0  0  0  0  0  0  0  0  0
  131.8078  134.7683  160.1406 H   0  0  0  0  0  0  0  0  0  0  0  0
  132.1557  133.4077  158.1684 H   0  0  0  0  0  0  0  0  0  0  0  0
  132.5504  131.8137  159.9853 H   0  0  0  0  0  0  0  0  0  0  0  0
  130.7955  131.5960  160.2254 H   0  0  0  0  0  0  0  0  0  0  0  0
  132.0194  129.7719  158.6618 H   0  0  0  0  0  0  0  0  0  0  0  0
  131.1079  130.0391  156.5601 H   0  0  0  0  0  0  0  0  0  0  0  0
  131.0278  132.6997  156.1312 H   0  0  0  0  0  0  0  0  0  0  0  0
  129.4511  131.8696  156.2203 H   0  0  0  0  0  0  0  0  0  0  0  0
  130.0358  134.7560  156.7866 H   0  0  0  0  0  0  0  0  0  0  0  0
  128.5202  134.5031  157.7001 H   0  0  0  0  0  0  0  0  0  0  0  0
  129.7025  138.1288  162.9385 H   0  0  0  0  0  0  0  0  0  0  0  0
  126.7695  138.0241  163.3776 H   0  0  0  0  0  0  0  0  0  0  0  0
  128.3839  140.5954  162.7329 H   0  0  0  0  0  0  0  0  0  0  0  0
  126.6051  140.3053  162.4990 H   0  0  0  0  0  0  0  0  0  0  0  0
  127.9862  141.4843  166.3147 H   0  0  0  0  0  0  0  0  0  0  0  0
  128.2323  142.2697  164.6945 H   0  0  0  0  0  0  0  0  0  0  0  0
  125.8186  142.4687  164.3229 H   0  0  0  0  0  0  0  0  0  0  0  0
  125.7282  142.4210  166.1366 H   0  0  0  0  0  0  0  0  0  0  0  0
  125.0624  140.1433  164.4803 H   0  0  0  0  0  0  0  0  0  0  0  0
  125.7283  139.9687  166.1617 H   0  0  0  0  0  0  0  0  0  0  0  0
  127.6889  138.3810  165.6204 H   0  0  0  0  0  0  0  0  0  0  0  0
  129.1564  139.2237  164.9579 H   0  0  0  0  0  0  0  0  0  0  0  0
  1  2  1  0
  1 25  1  0
  1 26  1  0
  1 27  1  0
  2  3  1  0
  2 15  1  0
  2 28  1  1
  3  4  1  0
  3 29  1  0
  3 30  1  0
  4  5  1  0
  4 14  1  0
  4  6  1  0
  6  7  1  0
  6 31  1  0
  6 32  1  0
  7 12  1  0
  7  8  1  0
  7 33  1  6
  8  9  1  0
  8 34  1  0
  8 35  1  0
  9 10  2  0
  9 36  1  0
 10 11  1  0
 10 37  1  0
 11 12  1  0
 11 38  1  0
 11 39  1  0
 12 13  1  1
 12 14  1  0
 14 40  1  0
 14 41  1  0
 15 16  2  0
 15 17  1  0
 17 18  1  0
 17 42  1  0
 18 24  1  0
 18 19  1  0
 18 43  1  0
 19 20  1  0
 19 44  1  0
 19 45  1  0
 20 23  1  0
 20 21  1  0
 20 24  1  0
 21 22  1  0
 21 46  1  0
 21 47  1  0
 22 23  1  0
 22 48  1  0
 22 49  1  0
 23 50  1  0
 23 51  1  0
 24 52  1  0
 24 53  1  0
M  CHG  1   4   1
M  END
>  <DOCK_score>  (1) 
-41.18943

>  <SMILES>  (1) 
CC(C[NH+]1CC2CC=CC[C@@H]2C1)C(=O)NC1CC2(CCC2)C1

$$$$
