C=C[C@H]1CC=C(c2c[nH]c(NC(c3ccccc3)c3ccccc3)[nH+]2)CC1
     RDKit          3D

 53 56  0  0  1  0  0  0  0  0999 V2000
  130.4757  128.6941  151.6392 C   0  0  0  0  0  0  0  0  0  0  0  0
  131.1362  129.7062  152.1445 C   0  0  0  0  0  0  0  0  0  0  0  0
  130.5901  130.4399  153.3423 C   0  0  1  0  0  0  0  0  0  0  0  0
  129.5009  130.3952  153.3338 H   0  0  0  0  0  0  0  0  0  0  0  0
  131.1249  129.8000  154.6250 C   0  0  0  0  0  0  0  0  0  0  0  0
  130.8087  130.6681  155.8080 C   0  0  0  0  0  0  0  0  0  0  0  0
  130.4566  131.9284  155.7159 C   0  0  0  0  0  0  0  0  0  0  0  0
  130.1774  132.6654  156.9655 C   0  0  0  0  0  0  0  0  0  0  0  0
  129.6919  132.1328  158.1169 C   0  0  0  0  0  0  0  0  0  0  0  0
  129.5889  133.1624  159.0193 N   0  0  0  0  0  0  0  0  0  0  0  0
  129.2747  133.0947  159.9345 H   0  0  0  0  0  0  0  0  0  0  0  0
  130.0065  134.2963  158.3926 C   0  0  0  0  0  0  0  0  0  0  0  0
  130.0551  135.5586  158.9587 N   0  0  0  0  0  0  0  0  0  0  0  0
  129.6340  135.7548  160.3481 C   0  0  0  0  0  0  0  0  0  0  0  0
  129.7830  137.2083  160.7176 C   0  0  0  0  0  0  0  0  0  0  0  0
  128.9354  137.7745  161.6514 C   0  0  0  0  0  0  0  0  0  0  0  0
  129.0752  139.1064  161.9938 C   0  0  0  0  0  0  0  0  0  0  0  0
  130.0553  139.8748  161.3955 C   0  0  0  0  0  0  0  0  0  0  0  0
  130.8998  139.3100  160.4570 C   0  0  0  0  0  0  0  0  0  0  0  0
  130.7634  137.9767  160.1184 C   0  0  0  0  0  0  0  0  0  0  0  0
  128.1921  135.3436  160.4989 C   0  0  0  0  0  0  0  0  0  0  0  0
  127.7395  134.8392  161.7038 C   0  0  0  0  0  0  0  0  0  0  0  0
  126.4158  134.4663  161.8435 C   0  0  0  0  0  0  0  0  0  0  0  0
  125.5469  134.5883  160.7753 C   0  0  0  0  0  0  0  0  0  0  0  0
  126.0007  135.0878  159.5688 C   0  0  0  0  0  0  0  0  0  0  0  0
  127.3232  135.4654  159.4306 C   0  0  0  0  0  0  0  0  0  0  0  0
  130.3602  133.9959  157.1671 N   0  0  0  0  0  0  0  0  0  0  0  0
  130.6984  134.6234  156.5094 H   0  0  0  0  0  0  0  0  0  0  0  0
  130.3267  132.6671  154.4158 C   0  0  0  0  0  0  0  0  0  0  0  0
  131.0462  131.9037  153.3020 C   0  0  0  0  0  0  0  0  0  0  0  0
  129.5398  128.3855  152.0809 H   0  0  0  0  0  0  0  0  0  0  0  0
  130.8672  128.1683  150.7809 H   0  0  0  0  0  0  0  0  0  0  0  0
  132.0723  130.0148  151.7030 H   0  0  0  0  0  0  0  0  0  0  0  0
  130.6653  128.8208  154.7592 H   0  0  0  0  0  0  0  0  0  0  0  0
  132.2059  129.6841  154.5475 H   0  0  0  0  0  0  0  0  0  0  0  0
  130.8710  130.2283  156.7924 H   0  0  0  0  0  0  0  0  0  0  0  0
  129.4392  131.0971  158.2906 H   0  0  0  0  0  0  0  0  0  0  0  0
  130.3681  136.3131  158.4356 H   0  0  0  0  0  0  0  0  0  0  0  0
  130.2559  135.1472  161.0056 H   0  0  0  0  0  0  0  0  0  0  0  0
  128.1666  137.1752  162.1163 H   0  0  0  0  0  0  0  0  0  0  0  0
  128.4155  139.5479  162.7262 H   0  0  0  0  0  0  0  0  0  0  0  0
  130.1620  140.9167  161.6590 H   0  0  0  0  0  0  0  0  0  0  0  0
  131.6657  139.9105  159.9886 H   0  0  0  0  0  0  0  0  0  0  0  0
  131.4228  137.5355  159.3856 H   0  0  0  0  0  0  0  0  0  0  0  0
  128.4194  134.7397  162.5371 H   0  0  0  0  0  0  0  0  0  0  0  0
  126.0614  134.0757  162.7860 H   0  0  0  0  0  0  0  0  0  0  0  0
  124.5137  134.2929  160.8830 H   0  0  0  0  0  0  0  0  0  0  0  0
  125.3220  135.1826  158.7341 H   0  0  0  0  0  0  0  0  0  0  0  0
  127.6778  135.8553  158.4879 H   0  0  0  0  0  0  0  0  0  0  0  0
  129.2715  132.7680  154.1616 H   0  0  0  0  0  0  0  0  0  0  0  0
  130.7703  133.6576  154.5171 H   0  0  0  0  0  0  0  0  0  0  0  0
  130.7922  132.3399  152.3359 H   0  0  0  0  0  0  0  0  0  0  0  0
  132.1236  131.9589  153.4569 H   0  0  0  0  0  0  0  0  0  0  0  0
  1  2  2  0
  1 31  1  0
  1 32  1  0
  2  3  1  0
  2 33  1  0
  3  4  1  1
  3 30  1  0
  3  5  1  0
  5  6  1  0
  5 34  1  0
  5 35  1  0
  6  7  2  0
  6 36  1  0
  7  8  1  0
  7 29  1  0
  8 27  1  0
  8  9  2  0
  9 10  1  0
  9 37  1  0
 10 11  1  0
 10 12  1  0
 12 13  1  0
 12 27  2  0
 13 14  1  0
 13 38  1  0
 14 15  1  0
 14 21  1  0
 14 39  1  0
 15 20  1  0
 15 16  2  0
 16 17  1  0
 16 40  1  0
 17 18  2  0
 17 41  1  0
 18 19  1  0
 18 42  1  0
 19 20  2  0
 19 43  1  0
 20 44  1  0
 21 26  1  0
 21 22  2  0
 22 23  1  0
 22 45  1  0
 23 24  2  0
 23 46  1  0
 24 25  1  0
 24 47  1  0
 25 26  2  0
 25 48  1  0
 26 49  1  0
 27 28  1  0
 29 30  1  0
 29 50  1  0
 29 51  1  0
 30 52  1  0
 30 53  1  0
M  CHG  1  27   1
M  END
>  <DOCK_score>  (1) 
-56.203583

>  <SMILES>  (1) 
C=C[C@H]1CC=C(c2c[nH]c(NC(c3ccccc3)c3ccccc3)[nH+]2)CC1

$$$$
