Fc1ccc(-c2n[nH]cc2-c2ccccc2N2CC[NH+](C(c3ccccc3)c3ccccc3)CC2)cc1
     RDKit          3D

 67 72  0  0  1  0  0  0  0  0999 V2000
  140.0310  134.0199  163.8776 F   0  0  0  0  0  0  0  0  0  0  0  0
  138.7187  134.3039  164.0277 C   0  0  0  0  0  0  0  0  0  0  0  0
  137.8387  134.0764  162.9819 C   0  0  0  0  0  0  0  0  0  0  0  0
  136.4979  134.3657  163.1304 C   0  0  0  0  0  0  0  0  0  0  0  0
  136.0290  134.8873  164.3348 C   0  0  0  0  0  0  0  0  0  0  0  0
  134.5887  135.2005  164.4992 C   0  0  0  0  0  0  0  0  0  0  0  0
  133.7793  134.6763  165.3934 N   0  0  0  0  0  0  0  0  0  0  0  0
  132.5068  135.2334  165.2189 N   0  0  0  0  0  0  0  0  0  0  0  0
  131.7190  135.0247  165.7451 H   0  0  0  0  0  0  0  0  0  0  0  0
  132.5623  136.1109  164.1951 C   0  0  0  0  0  0  0  0  0  0  0  0
  133.8400  136.1188  163.7212 C   0  0  0  0  0  0  0  0  0  0  0  0
  134.3534  136.9390  162.5968 C   0  0  0  0  0  0  0  0  0  0  0  0
  135.3891  137.8455  162.8081 C   0  0  0  0  0  0  0  0  0  0  0  0
  135.8640  138.6063  161.7584 C   0  0  0  0  0  0  0  0  0  0  0  0
  135.3149  138.4724  160.4954 C   0  0  0  0  0  0  0  0  0  0  0  0
  134.2867  137.5761  160.2733 C   0  0  0  0  0  0  0  0  0  0  0  0
  133.8031  136.8013  161.3174 C   0  0  0  0  0  0  0  0  0  0  0  0
  132.7678  135.8914  161.0940 N   0  0  0  0  0  0  0  0  0  0  0  0
  133.1874  134.8345  160.1629 C   0  0  0  0  0  0  0  0  0  0  0  0
  132.0476  133.8279  159.9917 C   0  0  0  0  0  0  0  0  0  0  0  0
  130.8589  134.5175  159.4731 N   0  0  0  0  0  0  0  0  0  0  0  0
  131.0788  134.9456  158.5861 H   0  0  0  0  0  0  0  0  0  0  0  0
  129.7706  133.5477  159.2917 C   0  0  0  0  0  0  0  0  0  0  0  0
  128.5509  134.2550  158.7597 C   0  0  0  0  0  0  0  0  0  0  0  0
  127.2888  133.7807  159.0648 C   0  0  0  0  0  0  0  0  0  0  0  0
  126.1698  134.4324  158.5807 C   0  0  0  0  0  0  0  0  0  0  0  0
  126.3133  135.5522  157.7831 C   0  0  0  0  0  0  0  0  0  0  0  0
  127.5754  136.0235  157.4737 C   0  0  0  0  0  0  0  0  0  0  0  0
  128.6943  135.3749  157.9620 C   0  0  0  0  0  0  0  0  0  0  0  0
  130.2021  132.4856  158.3136 C   0  0  0  0  0  0  0  0  0  0  0  0
  129.9613  132.6514  156.9625 C   0  0  0  0  0  0  0  0  0  0  0  0
  130.3614  131.6792  156.0647 C   0  0  0  0  0  0  0  0  0  0  0  0
  130.9930  130.5367  156.5191 C   0  0  0  0  0  0  0  0  0  0  0  0
  131.2291  130.3685  157.8708 C   0  0  0  0  0  0  0  0  0  0  0  0
  130.8337  131.3429  158.7680 C   0  0  0  0  0  0  0  0  0  0  0  0
  130.4375  135.5536  160.4253 C   0  0  0  0  0  0  0  0  0  0  0  0
  131.5638  136.5745  160.6001 C   0  0  0  0  0  0  0  0  0  0  0  0
  136.9187  135.1192  165.3826 C   0  0  0  0  0  0  0  0  0  0  0  0
  138.2570  134.8222  165.2267 C   0  0  0  0  0  0  0  0  0  0  0  0
  138.2031  133.6722  162.0489 H   0  0  0  0  0  0  0  0  0  0  0  0
  135.8128  134.1881  162.3147 H   0  0  0  0  0  0  0  0  0  0  0  0
  131.7413  136.7045  163.8208 H   0  0  0  0  0  0  0  0  0  0  0  0
  135.8208  137.9530  163.7921 H   0  0  0  0  0  0  0  0  0  0  0  0
  136.6671  139.3092  161.9238 H   0  0  0  0  0  0  0  0  0  0  0  0
  135.6920  139.0706  159.6792 H   0  0  0  0  0  0  0  0  0  0  0  0
  133.8619  137.4762  159.2854 H   0  0  0  0  0  0  0  0  0  0  0  0
  133.4305  135.2765  159.1966 H   0  0  0  0  0  0  0  0  0  0  0  0
  134.0650  134.3257  160.5617 H   0  0  0  0  0  0  0  0  0  0  0  0
  131.8139  133.3762  160.9556 H   0  0  0  0  0  0  0  0  0  0  0  0
  132.3516  133.0507  159.2904 H   0  0  0  0  0  0  0  0  0  0  0  0
  129.5332  133.0846  160.2496 H   0  0  0  0  0  0  0  0  0  0  0  0
  127.1768  132.9032  159.6843 H   0  0  0  0  0  0  0  0  0  0  0  0
  125.1837  134.0639  158.8221 H   0  0  0  0  0  0  0  0  0  0  0  0
  125.4391  136.0587  157.4013 H   0  0  0  0  0  0  0  0  0  0  0  0
  127.6874  136.8982  156.8503 H   0  0  0  0  0  0  0  0  0  0  0  0
  129.6803  135.7429  157.7200 H   0  0  0  0  0  0  0  0  0  0  0  0
  129.4639  133.5420  156.6079 H   0  0  0  0  0  0  0  0  0  0  0  0
  130.1766  131.8104  155.0088 H   0  0  0  0  0  0  0  0  0  0  0  0
  131.3016  129.7751  155.8183 H   0  0  0  0  0  0  0  0  0  0  0  0
  131.7221  129.4757  158.2258 H   0  0  0  0  0  0  0  0  0  0  0  0
  131.0178  131.2115  159.8240 H   0  0  0  0  0  0  0  0  0  0  0  0
  130.2119  135.0930  161.3870 H   0  0  0  0  0  0  0  0  0  0  0  0
  129.5477  136.0557  160.0454 H   0  0  0  0  0  0  0  0  0  0  0  0
  131.2570  137.3352  161.3179 H   0  0  0  0  0  0  0  0  0  0  0  0
  131.7803  137.0451  159.6409 H   0  0  0  0  0  0  0  0  0  0  0  0
  136.5603  135.5270  166.3161 H   0  0  0  0  0  0  0  0  0  0  0  0
  138.9465  134.9984  166.0391 H   0  0  0  0  0  0  0  0  0  0  0  0
  1  2  1  0
  2 39  2  0
  2  3  1  0
  3  4  2  0
  3 40  1  0
  4  5  1  0
  4 41  1  0
  5  6  1  0
  5 38  2  0
  6 11  1  0
  6  7  2  0
  7  8  1  0
  8  9  1  0
  8 10  1  0
 10 11  2  0
 10 42  1  0
 11 12  1  0
 12 17  1  0
 12 13  2  0
 13 14  1  0
 13 43  1  0
 14 15  2  0
 14 44  1  0
 15 16  1  0
 15 45  1  0
 16 17  2  0
 16 46  1  0
 17 18  1  0
 18 37  1  0
 18 19  1  0
 19 20  1  0
 19 47  1  0
 19 48  1  0
 20 21  1  0
 20 49  1  0
 20 50  1  0
 21 22  1  0
 21 23  1  0
 21 36  1  0
 23 24  1  0
 23 30  1  0
 23 51  1  0
 24 29  1  0
 24 25  2  0
 25 26  1  0
 25 52  1  0
 26 27  2  0
 26 53  1  0
 27 28  1  0
 27 54  1  0
 28 29  2  0
 28 55  1  0
 29 56  1  0
 30 35  1  0
 30 31  2  0
 31 32  1  0
 31 57  1  0
 32 33  2  0
 32 58  1  0
 33 34  1  0
 33 59  1  0
 34 35  2  0
 34 60  1  0
 35 61  1  0
 36 37  1  0
 36 62  1  0
 36 63  1  0
 37 64  1  0
 37 65  1  0
 38 39  1  0
 38 66  1  0
 39 67  1  0
M  CHG  1  21   1
M  END
>  <DOCK_score>  (1) 
-66.315521

>  <SMILES>  (1) 
Fc1ccc(-c2n[nH]cc2-c2ccccc2N2CC[NH+](C(c3ccccc3)c3ccccc3)CC2)cc1

$$$$
