O=C1CCC(NC(N[C@H]2C[C@@H](O)C2)=[NH+][C@H]2COc3ccccc3C2)CN1
     RDKit          3D

 53 56  0  0  1  0  0  0  0  0999 V2000
  123.6812  133.6474  161.5386 O   0  0  0  0  0  0  0  0  0  0  0  0
  124.8523  133.9322  161.4031 C   0  0  0  0  0  0  0  0  0  0  0  0
  125.8036  132.8479  160.9850 C   0  0  0  0  0  0  0  0  0  0  0  0
  127.2427  133.2723  161.2881 C   0  0  0  0  0  0  0  0  0  0  0  0
  127.4562  134.6884  160.7396 C   0  0  2  0  0  0  0  0  0  0  0  0
  128.8697  135.0540  160.8595 N   0  0  0  0  0  0  0  0  0  0  0  0
  129.7414  134.7750  159.8338 C   0  0  0  0  0  0  0  0  0  0  0  0
  129.2865  134.1528  158.6953 N   0  0  0  0  0  0  0  0  0  0  0  0
  130.2154  133.8555  157.6021 C   0  0  1  0  0  0  0  0  0  0  0  0
  131.0361  134.5699  157.5379 H   0  0  0  0  0  0  0  0  0  0  0  0
  130.6699  132.3870  157.5622 C   0  0  0  0  0  0  0  0  0  0  0  0
  129.4479  132.1151  156.6690 C   0  0  1  0  0  0  0  0  0  0  0  0
  129.6501  131.4233  155.8512 H   0  0  0  0  0  0  0  0  0  0  0  0
  128.2659  131.7808  157.3992 O   0  0  0  0  0  0  0  0  0  0  0  0
  129.5192  133.5946  156.2560 C   0  0  0  0  0  0  0  0  0  0  0  0
  130.9990  135.1004  159.9405 N   0  0  0  0  0  0  0  0  0  0  0  0
  131.6765  134.5717  159.4906 H   0  0  0  0  0  0  0  0  0  0  0  0
  131.3893  136.2647  160.7394 C   0  0  1  0  0  0  0  0  0  0  0  0
  131.0674  136.1266  161.7716 H   0  0  0  0  0  0  0  0  0  0  0  0
  132.9127  136.4380  160.6909 C   0  0  0  0  0  0  0  0  0  0  0  0
  133.2717  137.5145  161.5582 O   0  0  0  0  0  0  0  0  0  0  0  0
  132.5863  138.6813  161.4397 C   0  0  0  0  0  0  0  0  0  0  0  0
  133.1327  139.8321  161.9993 C   0  0  0  0  0  0  0  0  0  0  0  0
  132.4591  141.0333  161.9131 C   0  0  0  0  0  0  0  0  0  0  0  0
  131.2422  141.0972  161.2594 C   0  0  0  0  0  0  0  0  0  0  0  0
  130.6979  139.9573  160.7014 C   0  0  0  0  0  0  0  0  0  0  0  0
  131.3675  138.7479  160.7881 C   0  0  0  0  0  0  0  0  0  0  0  0
  130.7433  137.5266  160.1621 C   0  0  0  0  0  0  0  0  0  0  0  0
  126.6034  135.6623  161.5535 C   0  0  0  0  0  0  0  0  0  0  0  0
  125.2264  135.1915  161.6328 N   0  0  0  0  0  0  0  0  0  0  0  0
  125.6975  132.6656  159.9157 H   0  0  0  0  0  0  0  0  0  0  0  0
  125.5730  131.9334  161.5315 H   0  0  0  0  0  0  0  0  0  0  0  0
  127.9374  132.5838  160.8069 H   0  0  0  0  0  0  0  0  0  0  0  0
  127.4075  133.2673  162.3655 H   0  0  0  0  0  0  0  0  0  0  0  0
  127.1569  134.7237  159.6922 H   0  0  0  0  0  0  0  0  0  0  0  0
  129.1906  135.4930  161.6630 H   0  0  0  0  0  0  0  0  0  0  0  0
  128.3506  133.9107  158.6158 H   0  0  0  0  0  0  0  0  0  0  0  0
  131.6232  132.2385  157.0549 H   0  0  0  0  0  0  0  0  0  0  0  0
  130.6224  131.8887  158.5305 H   0  0  0  0  0  0  0  0  0  0  0  0
  127.4452  131.9418  156.9139 H   0  0  0  0  0  0  0  0  0  0  0  0
  128.5428  134.0714  156.1697 H   0  0  0  0  0  0  0  0  0  0  0  0
  130.1579  133.7764  155.3916 H   0  0  0  0  0  0  0  0  0  0  0  0
  133.3974  135.5205  161.0244 H   0  0  0  0  0  0  0  0  0  0  0  0
  133.2236  136.6678  159.6718 H   0  0  0  0  0  0  0  0  0  0  0  0
  134.0850  139.7841  162.5066 H   0  0  0  0  0  0  0  0  0  0  0  0
  132.8840  141.9236  162.3525 H   0  0  0  0  0  0  0  0  0  0  0  0
  130.7157  142.0375  161.1891 H   0  0  0  0  0  0  0  0  0  0  0  0
  129.7454  140.0090  160.1946 H   0  0  0  0  0  0  0  0  0  0  0  0
  129.6741  137.5165  160.3741 H   0  0  0  0  0  0  0  0  0  0  0  0
  130.8983  137.5525  159.0834 H   0  0  0  0  0  0  0  0  0  0  0  0
  127.0139  135.7465  162.5598 H   0  0  0  0  0  0  0  0  0  0  0  0
  126.6220  136.6424  161.0770 H   0  0  0  0  0  0  0  0  0  0  0  0
  124.5389  135.8341  161.8674 H   0  0  0  0  0  0  0  0  0  0  0  0
  1  2  2  0
  2 30  1  0
  2  3  1  0
  3  4  1  0
  3 31  1  0
  3 32  1  0
  4  5  1  0
  4 33  1  0
  4 34  1  0
  5  6  1  0
  5 29  1  0
  5 35  1  6
  6 36  1  0
  7  6  1  0
  7  8  1  0
  7 16  2  0
  8  9  1  0
  8 37  1  0
  9 10  1  6
  9 15  1  0
  9 11  1  0
 11 12  1  0
 11 38  1  0
 11 39  1  0
 12 13  1  6
 12 14  1  0
 12 15  1  0
 14 40  1  0
 15 41  1  0
 15 42  1  0
 16 17  1  0
 16 18  1  0
 18 19  1  1
 18 28  1  0
 18 20  1  0
 20 21  1  0
 20 43  1  0
 20 44  1  0
 21 22  1  0
 22 27  2  0
 22 23  1  0
 23 24  2  0
 23 45  1  0
 24 25  1  0
 24 46  1  0
 25 26  2  0
 25 47  1  0
 26 27  1  0
 26 48  1  0
 27 28  1  0
 28 49  1  0
 28 50  1  0
 29 30  1  0
 29 51  1  0
 29 52  1  0
 30 53  1  0
M  CHG  1  16   1
M  END
>  <DOCK_score>  (1) 
-42.983425

>  <SMILES>  (1) 
O=C1CCC(NC(N[C@H]2C[C@@H](O)C2)=[NH+][C@H]2COc3ccccc3C2)CN1

$$$$
