Cc1c[nH]c(Nc2ccc(Nc3ccc(CC=O)cc3)cc2)[nH+]1
     RDKit          3D

 42 44  0  0  1  0  0  0  0  0999 V2000
  130.4683  131.6770  154.5959 C   0  0  0  0  0  0  0  0  0  0  0  0
  130.1439  132.3186  155.9204 C   0  0  0  0  0  0  0  0  0  0  0  0
  129.5591  131.7109  156.9669 C   0  0  0  0  0  0  0  0  0  0  0  0
  129.4480  132.6510  157.9660 N   0  0  0  0  0  0  0  0  0  0  0  0
  129.0654  132.5142  158.8469 H   0  0  0  0  0  0  0  0  0  0  0  0
  129.9759  133.8086  157.4838 C   0  0  0  0  0  0  0  0  0  0  0  0
  130.0621  135.0082  158.1715 N   0  0  0  0  0  0  0  0  0  0  0  0
  129.1053  135.3291  159.1424 C   0  0  0  0  0  0  0  0  0  0  0  0
  129.4546  136.1267  160.2244 C   0  0  0  0  0  0  0  0  0  0  0  0
  128.5113  136.4436  161.1814 C   0  0  0  0  0  0  0  0  0  0  0  0
  127.2129  135.9644  161.0621 C   0  0  0  0  0  0  0  0  0  0  0  0
  126.2567  136.2852  162.0326 N   0  0  0  0  0  0  0  0  0  0  0  0
  126.6502  136.5075  163.3543 C   0  0  0  0  0  0  0  0  0  0  0  0
  126.4019  137.7341  163.9577 C   0  0  0  0  0  0  0  0  0  0  0  0
  126.7919  137.9504  165.2645 C   0  0  0  0  0  0  0  0  0  0  0  0
  127.4291  136.9478  165.9727 C   0  0  0  0  0  0  0  0  0  0  0  0
  127.8532  137.1875  167.3988 C   0  0  0  0  0  0  0  0  0  0  0  0
  129.2502  137.7521  167.4192 C   0  0  0  0  0  0  0  0  0  0  0  0
  130.1332  137.1581  167.9900 O   0  0  0  0  0  0  0  0  0  0  0  0
  127.6829  135.7275  165.3734 C   0  0  0  0  0  0  0  0  0  0  0  0
  127.2905  135.5025  164.0686 C   0  0  0  0  0  0  0  0  0  0  0  0
  126.8652  135.1623  159.9828 C   0  0  0  0  0  0  0  0  0  0  0  0
  127.8072  134.8500  159.0231 C   0  0  0  0  0  0  0  0  0  0  0  0
  130.3843  133.5974  156.2547 N   0  0  0  0  0  0  0  0  0  0  0  0
  130.7972  134.2599  155.6789 H   0  0  0  0  0  0  0  0  0  0  0  0
  129.6224  131.7944  153.9185 H   0  0  0  0  0  0  0  0  0  0  0  0
  131.3476  132.1563  154.1656 H   0  0  0  0  0  0  0  0  0  0  0  0
  130.6693  130.6162  154.7456 H   0  0  0  0  0  0  0  0  0  0  0  0
  129.2374  130.6811  157.0147 H   0  0  0  0  0  0  0  0  0  0  0  0
  130.7851  135.6260  157.9804 H   0  0  0  0  0  0  0  0  0  0  0  0
  130.4641  136.4990  160.3173 H   0  0  0  0  0  0  0  0  0  0  0  0
  128.7827  137.0643  162.0225 H   0  0  0  0  0  0  0  0  0  0  0  0
  125.3207  136.3529  161.7873 H   0  0  0  0  0  0  0  0  0  0  0  0
  125.9041  138.5174  163.4054 H   0  0  0  0  0  0  0  0  0  0  0  0
  126.5995  138.9037  165.7342 H   0  0  0  0  0  0  0  0  0  0  0  0
  127.8340  136.2453  167.9467 H   0  0  0  0  0  0  0  0  0  0  0  0
  127.1686  137.8945  167.8675 H   0  0  0  0  0  0  0  0  0  0  0  0
  129.4618  138.6879  166.9231 H   0  0  0  0  0  0  0  0  0  0  0  0
  128.1848  134.9484  165.9277 H   0  0  0  0  0  0  0  0  0  0  0  0
  127.4850  134.5478  163.6025 H   0  0  0  0  0  0  0  0  0  0  0  0
  125.8569  134.7864  159.8922 H   0  0  0  0  0  0  0  0  0  0  0  0
  127.5358  134.2297  158.1817 H   0  0  0  0  0  0  0  0  0  0  0  0
  1  2  1  0
  1 26  1  0
  1 27  1  0
  1 28  1  0
  2 24  1  0
  2  3  2  0
  3  4  1  0
  3 29  1  0
  4  5  1  0
  4  6  1  0
  6  7  1  0
  6 24  2  0
  7  8  1  0
  7 30  1  0
  8 23  1  0
  8  9  2  0
  9 10  1  0
  9 31  1  0
 10 11  2  0
 10 32  1  0
 11 12  1  0
 11 22  1  0
 12 13  1  0
 12 33  1  0
 13 21  1  0
 13 14  2  0
 14 15  1  0
 14 34  1  0
 15 16  2  0
 15 35  1  0
 16 17  1  0
 16 20  1  0
 17 18  1  0
 17 36  1  0
 17 37  1  0
 18 19  2  0
 18 38  1  0
 20 21  2  0
 20 39  1  0
 21 40  1  0
 22 23  2  0
 22 41  1  0
 23 42  1  0
 24 25  1  0
M  CHG  1  24   1
M  END
>  <DOCK_score>  (1) 
-47.407051

>  <SMILES>  (1) 
Cc1c[nH]c(Nc2ccc(Nc3ccc(CC=O)cc3)cc2)[nH+]1

$$$$
