O=C1CC[C@H](NC(NC2CCCC2)=[NH+][C@H]2COc3cc(-c4ccc(Cl)cc4)ccc3C2)CN1
     RDKit          3D

 65 69  0  0  1  0  0  0  0  0999 V2000
  123.9186  134.1168  161.9753 O   0  0  0  0  0  0  0  0  0  0  0  0
  125.0836  134.3142  161.7019 C   0  0  0  0  0  0  0  0  0  0  0  0
  125.9176  133.1463  161.2596 C   0  0  0  0  0  0  0  0  0  0  0  0
  127.4039  133.4905  161.3849 C   0  0  0  0  0  0  0  0  0  0  0  0
  127.6381  134.8537  160.7244 C   0  0  2  0  0  0  0  0  0  0  0  0
  127.2259  134.8497  159.7154 H   0  0  0  0  0  0  0  0  0  0  0  0
  129.0762  135.1280  160.6701 N   0  0  0  0  0  0  0  0  0  0  0  0
  129.8112  134.7298  159.5785 C   0  0  0  0  0  0  0  0  0  0  0  0
  129.1967  134.0743  158.5380 N   0  0  0  0  0  0  0  0  0  0  0  0
  129.9798  133.6500  157.3750 C   0  0  0  0  0  0  0  0  0  0  0  0
  129.0813  132.8802  156.3851 C   0  0  0  0  0  0  0  0  0  0  0  0
  129.9996  131.7620  155.8302 C   0  0  0  0  0  0  0  0  0  0  0  0
  130.8249  131.3480  157.0738 C   0  0  0  0  0  0  0  0  0  0  0  0
  131.0883  132.6765  157.8125 C   0  0  0  0  0  0  0  0  0  0  0  0
  131.0907  134.9739  159.5301 N   0  0  0  0  0  0  0  0  0  0  0  0
  131.5262  135.1111  158.6744 H   0  0  0  0  0  0  0  0  0  0  0  0
  131.8708  135.0411  160.7683 C   0  0  1  0  0  0  0  0  0  0  0  0
  131.2189  134.8632  161.6236 H   0  0  0  0  0  0  0  0  0  0  0  0
  132.9826  133.9844  160.7369 C   0  0  0  0  0  0  0  0  0  0  0  0
  133.6578  134.0036  161.9952 O   0  0  0  0  0  0  0  0  0  0  0  0
  134.0621  135.2063  162.4812 C   0  0  0  0  0  0  0  0  0  0  0  0
  135.0152  135.2238  163.4923 C   0  0  0  0  0  0  0  0  0  0  0  0
  135.4516  136.4345  164.0192 C   0  0  0  0  0  0  0  0  0  0  0  0
  136.4702  136.4539  165.0982 C   0  0  0  0  0  0  0  0  0  0  0  0
  137.3541  137.5256  165.2056 C   0  0  0  0  0  0  0  0  0  0  0  0
  138.2967  137.5411  166.2134 C   0  0  0  0  0  0  0  0  0  0  0  0
  138.3713  136.4896  167.1109 C   0  0  0  0  0  0  0  0  0  0  0  0
  139.5632  136.5120  168.3728 Cl  0  0  0  0  0  0  0  0  0  0  0  0
  137.4987  135.4201  167.0050 C   0  0  0  0  0  0  0  0  0  0  0  0
  136.5494  135.3976  166.0035 C   0  0  0  0  0  0  0  0  0  0  0  0
  134.9283  137.6298  163.5288 C   0  0  0  0  0  0  0  0  0  0  0  0
  133.9840  137.6048  162.5246 C   0  0  0  0  0  0  0  0  0  0  0  0
  133.5500  136.3985  161.9971 C   0  0  0  0  0  0  0  0  0  0  0  0
  132.5226  136.4203  160.8934 C   0  0  0  0  0  0  0  0  0  0  0  0
  126.9419  135.9294  161.5589 C   0  0  0  0  0  0  0  0  0  0  0  0
  125.5552  135.5569  161.8097 N   0  0  0  0  0  0  0  0  0  0  0  0
  125.6920  132.2827  161.8850 H   0  0  0  0  0  0  0  0  0  0  0  0
  125.6882  132.9106  160.2203 H   0  0  0  0  0  0  0  0  0  0  0  0
  127.6821  133.5374  162.4377 H   0  0  0  0  0  0  0  0  0  0  0  0
  128.0004  132.7301  160.8812 H   0  0  0  0  0  0  0  0  0  0  0  0
  129.5098  135.5904  161.4043 H   0  0  0  0  0  0  0  0  0  0  0  0
  128.2444  133.8926  158.5740 H   0  0  0  0  0  0  0  0  0  0  0  0
  130.4183  134.5186  156.8835 H   0  0  0  0  0  0  0  0  0  0  0  0
  128.2252  132.4484  156.9035 H   0  0  0  0  0  0  0  0  0  0  0  0
  128.7499  133.5369  155.5807 H   0  0  0  0  0  0  0  0  0  0  0  0
  130.6502  132.1507  155.0467 H   0  0  0  0  0  0  0  0  0  0  0  0
  129.4108  130.9227  155.4604 H   0  0  0  0  0  0  0  0  0  0  0  0
  131.7651  130.8868  156.7714 H   0  0  0  0  0  0  0  0  0  0  0  0
  130.2529  130.6677  157.7046 H   0  0  0  0  0  0  0  0  0  0  0  0
  132.0646  133.0722  157.5326 H   0  0  0  0  0  0  0  0  0  0  0  0
  131.0435  132.5196  158.8902 H   0  0  0  0  0  0  0  0  0  0  0  0
  132.5479  132.9991  160.5685 H   0  0  0  0  0  0  0  0  0  0  0  0
  133.6870  134.2163  159.9380 H   0  0  0  0  0  0  0  0  0  0  0  0
  135.4176  134.2954  163.8696 H   0  0  0  0  0  0  0  0  0  0  0  0
  137.2995  138.3443  164.5036 H   0  0  0  0  0  0  0  0  0  0  0  0
  138.9797  138.3732  166.3002 H   0  0  0  0  0  0  0  0  0  0  0  0
  137.5612  134.6017  167.7070 H   0  0  0  0  0  0  0  0  0  0  0  0
  135.8689  134.5631  165.9220 H   0  0  0  0  0  0  0  0  0  0  0  0
  135.2616  138.5734  163.9349 H   0  0  0  0  0  0  0  0  0  0  0  0
  133.5797  138.5318  162.1459 H   0  0  0  0  0  0  0  0  0  0  0  0
  133.0072  136.6792  159.9518 H   0  0  0  0  0  0  0  0  0  0  0  0
  131.7587  137.1629  161.1236 H   0  0  0  0  0  0  0  0  0  0  0  0
  126.9687  136.8767  161.0203 H   0  0  0  0  0  0  0  0  0  0  0  0
  127.4626  136.0408  162.5099 H   0  0  0  0  0  0  0  0  0  0  0  0
  124.9367  136.2568  162.0712 H   0  0  0  0  0  0  0  0  0  0  0  0
  1  2  2  0
  2 36  1  0
  2  3  1  0
  3  4  1  0
  3 37  1  0
  3 38  1  0
  4  5  1  0
  4 39  1  0
  4 40  1  0
  5  6  1  6
  5  7  1  0
  5 35  1  0
  7 41  1  0
  8  7  1  0
  8  9  1  0
  8 15  2  0
  9 10  1  0
  9 42  1  0
 10 14  1  0
 10 11  1  0
 10 43  1  0
 11 12  1  0
 11 44  1  0
 11 45  1  0
 12 13  1  0
 12 46  1  0
 12 47  1  0
 13 14  1  0
 13 48  1  0
 13 49  1  0
 14 50  1  0
 14 51  1  0
 15 16  1  0
 15 17  1  0
 17 18  1  1
 17 34  1  0
 17 19  1  0
 19 20  1  0
 19 52  1  0
 19 53  1  0
 20 21  1  0
 21 33  2  0
 21 22  1  0
 22 23  2  0
 22 54  1  0
 23 24  1  0
 23 31  1  0
 24 30  1  0
 24 25  2  0
 25 26  1  0
 25 55  1  0
 26 27  2  0
 26 56  1  0
 27 28  1  0
 27 29  1  0
 29 30  2  0
 29 57  1  0
 30 58  1  0
 31 32  2  0
 31 59  1  0
 32 33  1  0
 32 60  1  0
 33 34  1  0
 34 61  1  0
 34 62  1  0
 35 36  1  0
 35 63  1  0
 35 64  1  0
 36 65  1  0
M  CHG  1  15   1
M  END
>  <DOCK_score>  (1) 
-51.507

>  <SMILES>  (1) 
O=C1CC[C@H](NC(NC2CCCC2)=[NH+][C@H]2COc3cc(-c4ccc(Cl)cc4)ccc3C2)CN1

$$$$
