Oc1ccc2[nH]c3c(c2c1)CC[NH2+][C@H]3c1c[nH]nc1-c1cccc(NCCC2=CCCC2)c1
     RDKit          3D

 63 68  0  0  1  0  0  0  0  0999 V2000
  124.3395  134.2764  162.2635 O   0  0  0  0  0  0  0  0  0  0  0  0
  125.1314  133.6458  161.3555 C   0  0  0  0  0  0  0  0  0  0  0  0
  125.1330  132.2549  161.2846 C   0  0  0  0  0  0  0  0  0  0  0  0
  125.9335  131.6013  160.3751 C   0  0  0  0  0  0  0  0  0  0  0  0
  126.7418  132.3291  159.5087 C   0  0  0  0  0  0  0  0  0  0  0  0
  127.6255  131.9663  158.5114 N   0  0  0  0  0  0  0  0  0  0  0  0
  127.8260  131.0541  158.2496 H   0  0  0  0  0  0  0  0  0  0  0  0
  128.1740  133.0810  157.9494 C   0  0  0  0  0  0  0  0  0  0  0  0
  127.6750  134.1814  158.5500 C   0  0  0  0  0  0  0  0  0  0  0  0
  126.7388  133.7361  159.5730 C   0  0  0  0  0  0  0  0  0  0  0  0
  125.9261  134.3869  160.5049 C   0  0  0  0  0  0  0  0  0  0  0  0
  128.0662  135.5868  158.1700 C   0  0  0  0  0  0  0  0  0  0  0  0
  128.7701  135.5226  156.8065 C   0  0  0  0  0  0  0  0  0  0  0  0
  129.8062  134.4819  156.8381 N   0  0  0  0  0  0  0  0  0  0  0  0
  130.4015  134.5786  156.0291 H   0  0  0  0  0  0  0  0  0  0  0  0
  130.3600  134.5870  157.6748 H   0  0  0  0  0  0  0  0  0  0  0  0
  129.1883  133.1469  156.8313 C   0  0  1  0  0  0  0  0  0  0  0  0
  128.6913  132.9784  155.8759 H   0  0  0  0  0  0  0  0  0  0  0  0
  130.2480  132.0974  157.0468 C   0  0  0  0  0  0  0  0  0  0  0  0
  130.5485  131.0854  156.2040 C   0  0  0  0  0  0  0  0  0  0  0  0
  131.5505  130.3673  156.7551 N   0  0  0  0  0  0  0  0  0  0  0  0
  131.9676  129.5818  156.3681 H   0  0  0  0  0  0  0  0  0  0  0  0
  131.8834  130.9542  157.9827 N   0  0  0  0  0  0  0  0  0  0  0  0
  131.1052  132.0008  158.1602 C   0  0  0  0  0  0  0  0  0  0  0  0
  131.1246  132.9152  159.3291 C   0  0  0  0  0  0  0  0  0  0  0  0
  130.3225  132.6492  160.4377 C   0  0  0  0  0  0  0  0  0  0  0  0
  130.3448  133.4978  161.5262 C   0  0  0  0  0  0  0  0  0  0  0  0
  131.1534  134.6187  161.5173 C   0  0  0  0  0  0  0  0  0  0  0  0
  131.9525  134.8946  160.4144 C   0  0  0  0  0  0  0  0  0  0  0  0
  132.7682  136.0287  160.4086 N   0  0  0  0  0  0  0  0  0  0  0  0
  132.4838  137.1401  161.3196 C   0  0  0  0  0  0  0  0  0  0  0  0
  132.9439  138.4526  160.6821 C   0  0  0  0  0  0  0  0  0  0  0  0
  132.6515  139.5959  161.6192 C   0  0  0  0  0  0  0  0  0  0  0  0
  133.5568  140.3965  162.1125 C   0  0  0  0  0  0  0  0  0  0  0  0
  132.9318  141.4344  163.0152 C   0  0  0  0  0  0  0  0  0  0  0  0
  131.5221  140.8827  163.3312 C   0  0  0  0  0  0  0  0  0  0  0  0
  131.2710  139.9702  162.1063 C   0  0  0  0  0  0  0  0  0  0  0  0
  131.9394  134.0436  159.3188 C   0  0  0  0  0  0  0  0  0  0  0  0
  124.4018  135.2410  162.2369 H   0  0  0  0  0  0  0  0  0  0  0  0
  124.5039  131.6842  161.9514 H   0  0  0  0  0  0  0  0  0  0  0  0
  125.9304  130.5222  160.3314 H   0  0  0  0  0  0  0  0  0  0  0  0
  125.9202  135.4656  160.5596 H   0  0  0  0  0  0  0  0  0  0  0  0
  127.1759  136.2113  158.0972 H   0  0  0  0  0  0  0  0  0  0  0  0
  128.7448  135.9965  158.9182 H   0  0  0  0  0  0  0  0  0  0  0  0
  128.0406  135.2856  156.0320 H   0  0  0  0  0  0  0  0  0  0  0  0
  129.2299  136.4867  156.5895 H   0  0  0  0  0  0  0  0  0  0  0  0
  130.0707  130.8855  155.2562 H   0  0  0  0  0  0  0  0  0  0  0  0
  129.6863  131.7766  160.4466 H   0  0  0  0  0  0  0  0  0  0  0  0
  129.7256  133.2875  162.3857 H   0  0  0  0  0  0  0  0  0  0  0  0
  131.1641  135.2820  162.3696 H   0  0  0  0  0  0  0  0  0  0  0  0
  133.5228  136.0802  159.8014 H   0  0  0  0  0  0  0  0  0  0  0  0
  131.4121  137.1864  161.5131 H   0  0  0  0  0  0  0  0  0  0  0  0
  133.0161  136.9859  162.2582 H   0  0  0  0  0  0  0  0  0  0  0  0
  134.0156  138.4065  160.4886 H   0  0  0  0  0  0  0  0  0  0  0  0
  132.4116  138.6069  159.7435 H   0  0  0  0  0  0  0  0  0  0  0  0
  134.6140  140.3261  161.9029 H   0  0  0  0  0  0  0  0  0  0  0  0
  133.5125  141.5397  163.9316 H   0  0  0  0  0  0  0  0  0  0  0  0
  132.8581  142.3916  162.4992 H   0  0  0  0  0  0  0  0  0  0  0  0
  131.5252  140.3086  164.2577 H   0  0  0  0  0  0  0  0  0  0  0  0
  130.7877  141.6871  163.3738 H   0  0  0  0  0  0  0  0  0  0  0  0
  130.7286  140.5116  161.3312 H   0  0  0  0  0  0  0  0  0  0  0  0
  130.7192  139.0789  162.4050 H   0  0  0  0  0  0  0  0  0  0  0  0
  132.5597  134.2559  158.4608 H   0  0  0  0  0  0  0  0  0  0  0  0
  1  2  1  0
  1 39  1  0
  2 11  2  0
  2  3  1  0
  3  4  2  0
  3 40  1  0
  4  5  1  0
  4 41  1  0
  5 10  2  0
  5  6  1  0
  6  7  1  0
  6  8  1  0
  8 17  1  0
  8  9  2  0
  9 10  1  0
  9 12  1  0
 10 11  1  0
 11 42  1  0
 12 13  1  0
 12 43  1  0
 12 44  1  0
 13 14  1  0
 13 45  1  0
 13 46  1  0
 14 15  1  0
 14 16  1  0
 14 17  1  0
 17 18  1  6
 17 19  1  0
 19 24  1  0
 19 20  2  0
 20 21  1  0
 20 47  1  0
 21 22  1  0
 21 23  1  0
 23 24  2  0
 24 25  1  0
 25 38  1  0
 25 26  2  0
 26 27  1  0
 26 48  1  0
 27 28  2  0
 27 49  1  0
 28 29  1  0
 28 50  1  0
 29 30  1  0
 29 38  2  0
 30 31  1  0
 30 51  1  0
 31 32  1  0
 31 52  1  0
 31 53  1  0
 32 33  1  0
 32 54  1  0
 32 55  1  0
 33 37  1  0
 33 34  2  0
 34 35  1  0
 34 56  1  0
 35 36  1  0
 35 57  1  0
 35 58  1  0
 36 37  1  0
 36 59  1  0
 36 60  1  0
 37 61  1  0
 37 62  1  0
 38 63  1  0
M  CHG  1  14   1
M  END
>  <DOCK_score>  (1) 
-55.088593

>  <SMILES>  (1) 
Oc1ccc2[nH]c3c(c2c1)CC[NH2+][C@H]3c1c[nH]nc1-c1cccc(NCCC2=CCCC2)c1

$$$$
