Cc1cccc(-c2ccc(-c3n[nH]cc3C[NH2+]CC[C@H]3CC3(Cl)Cl)cc2)c1
     RDKit          3D

 51 54  0  0  1  0  0  0  0  0999 V2000
  130.2380  131.1705  151.6295 C   0  0  0  0  0  0  0  0  0  0  0  0
  130.5417  130.9708  153.0921 C   0  0  0  0  0  0  0  0  0  0  0  0
  131.4102  129.9686  153.4864 C   0  0  0  0  0  0  0  0  0  0  0  0
  131.6935  129.7795  154.8267 C   0  0  0  0  0  0  0  0  0  0  0  0
  131.1098  130.5902  155.7793 C   0  0  0  0  0  0  0  0  0  0  0  0
  130.2338  131.6010  155.3880 C   0  0  0  0  0  0  0  0  0  0  0  0
  129.6034  132.4753  156.4068 C   0  0  0  0  0  0  0  0  0  0  0  0
  129.2686  133.7903  156.0861 C   0  0  0  0  0  0  0  0  0  0  0  0
  128.6835  134.6025  157.0325 C   0  0  0  0  0  0  0  0  0  0  0  0
  128.4263  134.1097  158.3112 C   0  0  0  0  0  0  0  0  0  0  0  0
  127.7967  134.9844  159.3305 C   0  0  0  0  0  0  0  0  0  0  0  0
  126.6165  135.5601  159.2347 N   0  0  0  0  0  0  0  0  0  0  0  0
  126.3959  136.2978  160.4050 N   0  0  0  0  0  0  0  0  0  0  0  0
  125.6059  136.8234  160.6058 H   0  0  0  0  0  0  0  0  0  0  0  0
  127.4717  136.1457  161.2071 C   0  0  0  0  0  0  0  0  0  0  0  0
  128.3557  135.3460  160.5721 C   0  0  0  0  0  0  0  0  0  0  0  0
  129.6987  134.9122  161.1004 C   0  0  0  0  0  0  0  0  0  0  0  0
  130.7240  135.8785  160.6846 N   0  0  0  0  0  0  0  0  0  0  0  0
  130.4962  136.7900  161.0527 H   0  0  0  0  0  0  0  0  0  0  0  0
  130.7568  135.9213  159.6770 H   0  0  0  0  0  0  0  0  0  0  0  0
  132.0332  135.4556  161.1996 C   0  0  0  0  0  0  0  0  0  0  0  0
  133.1009  136.4621  160.7664 C   0  0  0  0  0  0  0  0  0  0  0  0
  132.7556  137.8441  161.3247 C   0  0  1  0  0  0  0  0  0  0  0  0
  131.7983  138.2550  161.0037 H   0  0  0  0  0  0  0  0  0  0  0  0
  133.2235  138.1696  162.7445 C   0  0  0  0  0  0  0  0  0  0  0  0
  133.9083  138.8260  161.5431 C   0  0  0  0  0  0  0  0  0  0  0  0
  135.5698  138.2662  161.1228 Cl  0  0  0  0  0  0  0  0  0  0  0  0
  133.5792  140.5745  161.2504 Cl  0  0  0  0  0  0  0  0  0  0  0  0
  128.7664  132.7964  158.6337 C   0  0  0  0  0  0  0  0  0  0  0  0
  129.3458  131.9823  157.6855 C   0  0  0  0  0  0  0  0  0  0  0  0
  129.9478  131.7836  154.0359 C   0  0  0  0  0  0  0  0  0  0  0  0
  129.3759  130.5643  151.3512 H   0  0  0  0  0  0  0  0  0  0  0  0
  130.0177  132.2219  151.4444 H   0  0  0  0  0  0  0  0  0  0  0  0
  131.1007  130.8698  151.0349 H   0  0  0  0  0  0  0  0  0  0  0  0
  131.8689  129.3317  152.7444 H   0  0  0  0  0  0  0  0  0  0  0  0
  132.3725  128.9959  155.1287 H   0  0  0  0  0  0  0  0  0  0  0  0
  131.3311  130.4413  156.8258 H   0  0  0  0  0  0  0  0  0  0  0  0
  129.4683  134.1723  155.0958 H   0  0  0  0  0  0  0  0  0  0  0  0
  128.4241  135.6211  156.7841 H   0  0  0  0  0  0  0  0  0  0  0  0
  127.6029  136.5875  162.1838 H   0  0  0  0  0  0  0  0  0  0  0  0
  129.9449  133.9277  160.7029 H   0  0  0  0  0  0  0  0  0  0  0  0
  129.6633  134.8660  162.1888 H   0  0  0  0  0  0  0  0  0  0  0  0
  131.9977  135.4094  162.2880 H   0  0  0  0  0  0  0  0  0  0  0  0
  132.2792  134.4711  160.8020 H   0  0  0  0  0  0  0  0  0  0  0  0
  134.0723  136.1483  161.1485 H   0  0  0  0  0  0  0  0  0  0  0  0
  133.1364  136.5085  159.6779 H   0  0  0  0  0  0  0  0  0  0  0  0
  132.5744  138.7950  163.3574 H   0  0  0  0  0  0  0  0  0  0  0  0
  133.7773  137.3991  163.2811 H   0  0  0  0  0  0  0  0  0  0  0  0
  128.5715  132.4162  159.6257 H   0  0  0  0  0  0  0  0  0  0  0  0
  129.6051  130.9638  157.9340 H   0  0  0  0  0  0  0  0  0  0  0  0
  129.2660  132.5622  153.7274 H   0  0  0  0  0  0  0  0  0  0  0  0
  1  2  1  0
  1 32  1  0
  1 33  1  0
  1 34  1  0
  2 31  2  0
  2  3  1  0
  3  4  2  0
  3 35  1  0
  4  5  1  0
  4 36  1  0
  5  6  2  0
  5 37  1  0
  6  7  1  0
  6 31  1  0
  7 30  1  0
  7  8  2  0
  8  9  1  0
  8 38  1  0
  9 10  2  0
  9 39  1  0
 10 11  1  0
 10 29  1  0
 11 16  1  0
 11 12  2  0
 12 13  1  0
 13 14  1  0
 13 15  1  0
 15 16  2  0
 15 40  1  0
 16 17  1  0
 17 18  1  0
 17 41  1  0
 17 42  1  0
 18 19  1  0
 18 20  1  0
 18 21  1  0
 21 22  1  0
 21 43  1  0
 21 44  1  0
 22 23  1  0
 22 45  1  0
 22 46  1  0
 23 24  1  1
 23 26  1  0
 23 25  1  0
 25 26  1  0
 25 47  1  0
 25 48  1  0
 26 27  1  0
 26 28  1  0
 29 30  2  0
 29 49  1  0
 30 50  1  0
 31 51  1  0
M  CHG  1  18   1
M  END
>  <DOCK_score>  (1) 
-41.972469

>  <SMILES>  (1) 
Cc1cccc(-c2ccc(-c3n[nH]cc3C[NH2+]CC[C@H]3CC3(Cl)Cl)cc2)c1

$$$$
