Cc1ccc(Nc2cccc(-c3n[nH]cc3C[NH2+]Cc3c[nH]nc3C)c2)cc1
     RDKit          3D

 53 56  0  0  0  0  0  0  0  0999 V2000
  128.4657  137.4415  166.8850 C   0  0  0  0  0  0  0  0  0  0  0  0
  127.7696  136.9365  165.6473 C   0  0  0  0  0  0  0  0  0  0  0  0
  128.2296  135.7965  165.0137 C   0  0  0  0  0  0  0  0  0  0  0  0
  127.5935  135.3306  163.8800 C   0  0  0  0  0  0  0  0  0  0  0  0
  126.4943  136.0119  163.3725 C   0  0  0  0  0  0  0  0  0  0  0  0
  125.8523  135.5467  162.2221 N   0  0  0  0  0  0  0  0  0  0  0  0
  126.3157  134.3951  161.5807 C   0  0  0  0  0  0  0  0  0  0  0  0
  125.8114  133.1497  161.9375 C   0  0  0  0  0  0  0  0  0  0  0  0
  126.2671  132.0090  161.3050 C   0  0  0  0  0  0  0  0  0  0  0  0
  127.2262  132.0993  160.3156 C   0  0  0  0  0  0  0  0  0  0  0  0
  127.7377  133.3435  159.9517 C   0  0  0  0  0  0  0  0  0  0  0  0
  128.7690  133.4420  158.8887 C   0  0  0  0  0  0  0  0  0  0  0  0
  128.6346  133.0462  157.6407 N   0  0  0  0  0  0  0  0  0  0  0  0
  129.8320  133.3181  156.9665 N   0  0  0  0  0  0  0  0  0  0  0  0
  130.0140  133.1322  156.0320 H   0  0  0  0  0  0  0  0  0  0  0  0
  130.6907  133.8792  157.8446 C   0  0  0  0  0  0  0  0  0  0  0  0
  130.0661  133.9697  159.0389 C   0  0  0  0  0  0  0  0  0  0  0  0
  130.6529  134.5346  160.3068 C   0  0  0  0  0  0  0  0  0  0  0  0
  131.3482  135.7932  160.0062 N   0  0  0  0  0  0  0  0  0  0  0  0
  132.0875  135.6188  159.3420 H   0  0  0  0  0  0  0  0  0  0  0  0
  130.6936  136.4540  159.6150 H   0  0  0  0  0  0  0  0  0  0  0  0
  131.9203  136.3440  161.2421 C   0  0  0  0  0  0  0  0  0  0  0  0
  132.6336  137.6351  160.9336 C   0  0  0  0  0  0  0  0  0  0  0  0
  133.9345  137.7620  160.5837 C   0  0  0  0  0  0  0  0  0  0  0  0
  134.1833  139.0748  160.3938 N   0  0  0  0  0  0  0  0  0  0  0  0
  135.0340  139.4629  160.1357 H   0  0  0  0  0  0  0  0  0  0  0  0
  132.9959  139.7779  160.6351 N   0  0  0  0  0  0  0  0  0  0  0  0
  132.0664  138.9135  160.9526 C   0  0  0  0  0  0  0  0  0  0  0  0
  130.6332  139.2395  161.2856 C   0  0  0  0  0  0  0  0  0  0  0  0
  127.2749  134.4944  160.5838 C   0  0  0  0  0  0  0  0  0  0  0  0
  126.0316  137.1535  164.0148 C   0  0  0  0  0  0  0  0  0  0  0  0
  126.6722  137.6139  165.1482 C   0  0  0  0  0  0  0  0  0  0  0  0
  129.2541  138.1379  166.5997 H   0  0  0  0  0  0  0  0  0  0  0  0
  127.7451  137.9507  167.5249 H   0  0  0  0  0  0  0  0  0  0  0  0
  128.9014  136.6010  167.4252 H   0  0  0  0  0  0  0  0  0  0  0  0
  129.0869  135.2700  165.4063 H   0  0  0  0  0  0  0  0  0  0  0  0
  127.9531  134.4401  163.3859 H   0  0  0  0  0  0  0  0  0  0  0  0
  125.0849  136.0231  161.8687 H   0  0  0  0  0  0  0  0  0  0  0  0
  125.0612  133.0737  162.7106 H   0  0  0  0  0  0  0  0  0  0  0  0
  125.8717  131.0438  161.5849 H   0  0  0  0  0  0  0  0  0  0  0  0
  127.5802  131.2055  159.8237 H   0  0  0  0  0  0  0  0  0  0  0  0
  131.6994  134.1999  157.6298 H   0  0  0  0  0  0  0  0  0  0  0  0
  129.8543  134.7231  161.0244 H   0  0  0  0  0  0  0  0  0  0  0  0
  131.3602  133.8209  160.7294 H   0  0  0  0  0  0  0  0  0  0  0  0
  131.1217  136.5325  161.9596 H   0  0  0  0  0  0  0  0  0  0  0  0
  132.6274  135.6301  161.6647 H   0  0  0  0  0  0  0  0  0  0  0  0
  134.6462  136.9570  160.4754 H   0  0  0  0  0  0  0  0  0  0  0  0
  130.5403  139.4154  162.3574 H   0  0  0  0  0  0  0  0  0  0  0  0
  130.3286  140.1342  160.7429 H   0  0  0  0  0  0  0  0  0  0  0  0
  129.9943  138.4046  160.9977 H   0  0  0  0  0  0  0  0  0  0  0  0
  127.6647  135.4613  160.3016 H   0  0  0  0  0  0  0  0  0  0  0  0
  125.1742  137.6828  163.6257 H   0  0  0  0  0  0  0  0  0  0  0  0
  126.3157  138.5038  165.6454 H   0  0  0  0  0  0  0  0  0  0  0  0
  1  2  1  0
  1 33  1  0
  1 34  1  0
  1 35  1  0
  2 32  2  0
  2  3  1  0
  3  4  2  0
  3 36  1  0
  4  5  1  0
  4 37  1  0
  5  6  1  0
  5 31  2  0
  6  7  1  0
  6 38  1  0
  7 30  1  0
  7  8  2  0
  8  9  1  0
  8 39  1  0
  9 10  2  0
  9 40  1  0
 10 11  1  0
 10 41  1  0
 11 12  1  0
 11 30  2  0
 12 17  1  0
 12 13  2  0
 13 14  1  0
 14 15  1  0
 14 16  1  0
 16 17  2  0
 16 42  1  0
 17 18  1  0
 18 19  1  0
 18 43  1  0
 18 44  1  0
 19 20  1  0
 19 21  1  0
 19 22  1  0
 22 23  1  0
 22 45  1  0
 22 46  1  0
 23 28  1  0
 23 24  2  0
 24 25  1  0
 24 47  1  0
 25 26  1  0
 25 27  1  0
 27 28  2  0
 28 29  1  0
 29 48  1  0
 29 49  1  0
 29 50  1  0
 30 51  1  0
 31 32  1  0
 31 52  1  0
 32 53  1  0
M  CHG  1  19   1
M  END
>  <DOCK_score>  (1) 
-42.908569

>  <SMILES>  (1) 
Cc1ccc(Nc2cccc(-c3n[nH]cc3C[NH2+]Cc3c[nH]nc3C)c2)cc1

$$$$
