CC1(C)C(O)C[C@H]1[NH2+]Cc1c[nH]nc1-c1ccc(Nc2c[nH]c3ccccc23)o1
     RDKit          3D

 55 59  0  0  1  0  0  0  0  0999 V2000
  133.3974  138.1973  162.2440 C   0  0  0  0  0  0  0  0  0  0  0  0
  132.8813  138.5137  160.8389 C   0  0  0  0  0  0  0  0  0  0  0  0
  133.7888  137.9665  159.7355 C   0  0  0  0  0  0  0  0  0  0  0  0
  132.4913  139.9884  160.6436 C   0  0  2  0  0  0  0  0  0  0  0  0
  132.1260  140.6495  161.8567 O   0  0  0  0  0  0  0  0  0  0  0  0
  131.2876  139.4808  159.8321 C   0  0  0  0  0  0  0  0  0  0  0  0
  131.3947  138.1756  160.6381 C   0  0  1  0  0  0  0  0  0  0  0  0
  130.8165  138.1829  161.5621 H   0  0  0  0  0  0  0  0  0  0  0  0
  131.1694  136.9671  159.8338 N   0  0  0  0  0  0  0  0  0  0  0  0
  131.8292  136.9431  159.0709 H   0  0  0  0  0  0  0  0  0  0  0  0
  130.2300  136.9783  159.4657 H   0  0  0  0  0  0  0  0  0  0  0  0
  131.3511  135.7774  160.6761 C   0  0  0  0  0  0  0  0  0  0  0  0
  131.1201  134.5377  159.8510 C   0  0  0  0  0  0  0  0  0  0  0  0
  132.0575  133.8598  159.1548 C   0  0  0  0  0  0  0  0  0  0  0  0
  131.4548  132.8120  158.5521 N   0  0  0  0  0  0  0  0  0  0  0  0
  131.8892  132.1541  157.9868 H   0  0  0  0  0  0  0  0  0  0  0  0
  130.0947  132.8391  158.8852 N   0  0  0  0  0  0  0  0  0  0  0  0
  129.8860  133.8786  159.6691 C   0  0  0  0  0  0  0  0  0  0  0  0
  128.5901  134.2816  160.2530 C   0  0  0  0  0  0  0  0  0  0  0  0
  127.4045  133.6396  160.0795 C   0  0  0  0  0  0  0  0  0  0  0  0
  126.4393  134.3603  160.8094 C   0  0  0  0  0  0  0  0  0  0  0  0
  127.0813  135.4046  161.3913 C   0  0  0  0  0  0  0  0  0  0  0  0
  126.4948  136.3676  162.2027 N   0  0  0  0  0  0  0  0  0  0  0  0
  127.2475  136.9855  163.2170 C   0  0  0  0  0  0  0  0  0  0  0  0
  128.2674  136.4377  163.9051 C   0  0  0  0  0  0  0  0  0  0  0  0
  128.7573  137.3475  164.8125 N   0  0  0  0  0  0  0  0  0  0  0  0
  129.4946  137.1855  165.4216 H   0  0  0  0  0  0  0  0  0  0  0  0
  128.0419  138.5209  164.7312 C   0  0  0  0  0  0  0  0  0  0  0  0
  128.1157  139.7345  165.4085 C   0  0  0  0  0  0  0  0  0  0  0  0
  127.2370  140.7476  165.0947 C   0  0  0  0  0  0  0  0  0  0  0  0
  126.2770  140.5717  164.1073 C   0  0  0  0  0  0  0  0  0  0  0  0
  126.1871  139.3886  163.4297 C   0  0  0  0  0  0  0  0  0  0  0  0
  127.0673  138.3481  163.7318 C   0  0  0  0  0  0  0  0  0  0  0  0
  128.3815  135.3471  161.0548 O   0  0  0  0  0  0  0  0  0  0  0  0
  133.3676  137.1201  162.4080 H   0  0  0  0  0  0  0  0  0  0  0  0
  134.4235  138.5515  162.3426 H   0  0  0  0  0  0  0  0  0  0  0  0
  132.7687  138.6948  162.9826 H   0  0  0  0  0  0  0  0  0  0  0  0
  133.4867  138.3854  158.7755 H   0  0  0  0  0  0  0  0  0  0  0  0
  134.8221  138.2439  159.9439 H   0  0  0  0  0  0  0  0  0  0  0  0
  133.7041  136.8803  159.7006 H   0  0  0  0  0  0  0  0  0  0  0  0
  133.2102  140.5556  160.0523 H   0  0  0  0  0  0  0  0  0  0  0  0
  132.8272  140.6655  162.5223 H   0  0  0  0  0  0  0  0  0  0  0  0
  131.4982  139.3567  158.7698 H   0  0  0  0  0  0  0  0  0  0  0  0
  130.3687  140.0363  160.0202 H   0  0  0  0  0  0  0  0  0  0  0  0
  130.6384  135.8034  161.5003 H   0  0  0  0  0  0  0  0  0  0  0  0
  132.3659  135.7653  161.0737 H   0  0  0  0  0  0  0  0  0  0  0  0
  133.1059  134.1111  159.0912 H   0  0  0  0  0  0  0  0  0  0  0  0
  127.2351  132.7480  159.4942 H   0  0  0  0  0  0  0  0  0  0  0  0
  125.3880  134.1266  160.8900 H   0  0  0  0  0  0  0  0  0  0  0  0
  125.5661  136.6137  162.0697 H   0  0  0  0  0  0  0  0  0  0  0  0
  128.6453  135.4359  163.7637 H   0  0  0  0  0  0  0  0  0  0  0  0
  128.8595  139.8811  166.1776 H   0  0  0  0  0  0  0  0  0  0  0  0
  127.2958  141.6884  165.6218 H   0  0  0  0  0  0  0  0  0  0  0  0
  125.5959  141.3764  163.8728 H   0  0  0  0  0  0  0  0  0  0  0  0
  125.4381  139.2592  162.6627 H   0  0  0  0  0  0  0  0  0  0  0  0
  1  2  1  0
  1 35  1  0
  1 36  1  0
  1 37  1  0
  2  7  1  0
  2  3  1  0
  2  4  1  0
  3 38  1  0
  3 39  1  0
  3 40  1  0
  4  5  1  0
  4  6  1  0
  4 41  1  6
  5 42  1  0
  6  7  1  0
  6 43  1  0
  6 44  1  0
  7  8  1  1
  7  9  1  0
  9 10  1  0
  9 11  1  0
  9 12  1  0
 12 13  1  0
 12 45  1  0
 12 46  1  0
 13 18  1  0
 13 14  2  0
 14 15  1  0
 14 47  1  0
 15 16  1  0
 15 17  1  0
 17 18  2  0
 18 19  1  0
 19 34  1  0
 19 20  2  0
 20 21  1  0
 20 48  1  0
 21 22  2  0
 21 49  1  0
 22 23  1  0
 22 34  1  0
 23 24  1  0
 23 50  1  0
 24 33  1  0
 24 25  2  0
 25 26  1  0
 25 51  1  0
 26 27  1  0
 26 28  1  0
 28 33  2  0
 28 29  1  0
 29 30  2  0
 29 52  1  0
 30 31  1  0
 30 53  1  0
 31 32  2  0
 31 54  1  0
 32 33  1  0
 32 55  1  0
M  CHG  1   9   1
M  END
>  <DOCK_score>  (1) 
-44.086372

>  <SMILES>  (1) 
CC1(C)C(O)C[C@H]1[NH2+]Cc1c[nH]nc1-c1ccc(Nc2c[nH]c3ccccc23)o1

$$$$
