Cc1ccc2c(c1)C[C@H]([NH+]=C(NC1CC=CC1)NC1CCC(=O)NC1)CO2
     RDKit          3D

 56 59  0  0  1  0  0  0  0  0999 V2000
  136.5603  140.0935  162.2080 C   0  0  0  0  0  0  0  0  0  0  0  0
  135.1299  139.7916  161.8419 C   0  0  0  0  0  0  0  0  0  0  0  0
  134.1595  140.7667  161.9822 C   0  0  0  0  0  0  0  0  0  0  0  0
  132.8502  140.4889  161.6475 C   0  0  0  0  0  0  0  0  0  0  0  0
  132.5018  139.2296  161.1694 C   0  0  0  0  0  0  0  0  0  0  0  0
  133.4755  138.2566  161.0275 C   0  0  0  0  0  0  0  0  0  0  0  0
  134.7882  138.5412  161.3656 C   0  0  0  0  0  0  0  0  0  0  0  0
  133.1418  136.8810  160.5083 C   0  0  0  0  0  0  0  0  0  0  0  0
  131.6343  136.6396  160.6196 C   0  0  2  0  0  0  0  0  0  0  0  0
  131.3589  136.5116  161.6664 H   0  0  0  0  0  0  0  0  0  0  0  0
  131.2691  135.4396  159.8627 N   0  0  0  0  0  0  0  0  0  0  0  0
  131.9521  134.9366  159.3918 H   0  0  0  0  0  0  0  0  0  0  0  0
  130.0267  135.0477  159.8218 C   0  0  0  0  0  0  0  0  0  0  0  0
  129.5531  134.3778  158.7187 N   0  0  0  0  0  0  0  0  0  0  0  0
  130.4571  133.5409  157.9258 C   0  0  0  0  0  0  0  0  0  0  0  0
  129.6769  132.7343  156.8619 C   0  0  0  0  0  0  0  0  0  0  0  0
  130.3723  131.3929  156.8118 C   0  0  0  0  0  0  0  0  0  0  0  0
  131.1281  131.2155  157.8610 C   0  0  0  0  0  0  0  0  0  0  0  0
  131.0628  132.4081  158.7866 C   0  0  0  0  0  0  0  0  0  0  0  0
  129.1899  135.3041  160.8821 N   0  0  0  0  0  0  0  0  0  0  0  0
  127.7935  134.8636  160.8363 C   0  0  1  0  0  0  0  0  0  0  0  0
  127.6770  133.4592  161.4407 C   0  0  0  0  0  0  0  0  0  0  0  0
  126.2503  132.9523  161.2152 C   0  0  0  0  0  0  0  0  0  0  0  0
  125.2624  134.0014  161.6378 C   0  0  0  0  0  0  0  0  0  0  0  0
  124.1146  133.6629  161.8347 O   0  0  0  0  0  0  0  0  0  0  0  0
  125.5799  135.2853  161.8088 N   0  0  0  0  0  0  0  0  0  0  0  0
  126.9262  135.8220  161.6536 C   0  0  0  0  0  0  0  0  0  0  0  0
  130.9062  137.8587  160.0387 C   0  0  0  0  0  0  0  0  0  0  0  0
  131.2009  138.9911  160.8590 O   0  0  0  0  0  0  0  0  0  0  0  0
  137.0842  140.4833  161.3354 H   0  0  0  0  0  0  0  0  0  0  0  0
  136.5820  140.8354  163.0063 H   0  0  0  0  0  0  0  0  0  0  0  0
  137.0490  139.1802  162.5473 H   0  0  0  0  0  0  0  0  0  0  0  0
  134.4263  141.7450  162.3540 H   0  0  0  0  0  0  0  0  0  0  0  0
  132.0932  141.2515  161.7569 H   0  0  0  0  0  0  0  0  0  0  0  0
  135.5480  137.7814  161.2565 H   0  0  0  0  0  0  0  0  0  0  0  0
  133.6732  136.1326  161.0961 H   0  0  0  0  0  0  0  0  0  0  0  0
  133.4454  136.8039  159.4643 H   0  0  0  0  0  0  0  0  0  0  0  0
  128.6203  134.4593  158.4653 H   0  0  0  0  0  0  0  0  0  0  0  0
  131.2399  134.1428  157.4642 H   0  0  0  0  0  0  0  0  0  0  0  0
  128.6372  132.6118  157.1654 H   0  0  0  0  0  0  0  0  0  0  0  0
  129.7347  133.2292  155.8925 H   0  0  0  0  0  0  0  0  0  0  0  0
  130.2586  130.6757  156.0124 H   0  0  0  0  0  0  0  0  0  0  0  0
  131.7223  130.3324  158.0434 H   0  0  0  0  0  0  0  0  0  0  0  0
  132.0624  132.6812  159.1248 H   0  0  0  0  0  0  0  0  0  0  0  0
  130.4183  132.1926  159.6387 H   0  0  0  0  0  0  0  0  0  0  0  0
  129.5242  135.7767  161.6605 H   0  0  0  0  0  0  0  0  0  0  0  0
  127.4492  134.8465  159.8022 H   0  0  0  0  0  0  0  0  0  0  0  0
  128.3857  132.7899  160.9530 H   0  0  0  0  0  0  0  0  0  0  0  0
  127.8874  133.5009  162.5093 H   0  0  0  0  0  0  0  0  0  0  0  0
  126.1090  132.7269  160.1581 H   0  0  0  0  0  0  0  0  0  0  0  0
  126.0907  132.0474  161.8015 H   0  0  0  0  0  0  0  0  0  0  0  0
  124.8705  135.9006  162.0515 H   0  0  0  0  0  0  0  0  0  0  0  0
  127.3736  135.9625  162.6375 H   0  0  0  0  0  0  0  0  0  0  0  0
  126.8740  136.7842  161.1441 H   0  0  0  0  0  0  0  0  0  0  0  0
  131.2520  138.0425  159.0215 H   0  0  0  0  0  0  0  0  0  0  0  0
  129.8315  137.6768  160.0345 H   0  0  0  0  0  0  0  0  0  0  0  0
  1  2  1  0
  1 30  1  0
  1 31  1  0
  1 32  1  0
  2  7  2  0
  2  3  1  0
  3  4  2  0
  3 33  1  0
  4  5  1  0
  4 34  1  0
  5 29  1  0
  5  6  2  0
  6  7  1  0
  6  8  1  0
  7 35  1  0
  8  9  1  0
  8 36  1  0
  8 37  1  0
  9 10  1  1
  9 11  1  0
  9 28  1  0
 11 12  1  0
 13 11  2  0
 13 14  1  0
 13 20  1  0
 14 15  1  0
 14 38  1  0
 15 19  1  0
 15 16  1  0
 15 39  1  0
 16 17  1  0
 16 40  1  0
 16 41  1  0
 17 18  2  0
 17 42  1  0
 18 19  1  0
 18 43  1  0
 19 44  1  0
 19 45  1  0
 20 21  1  0
 20 46  1  0
 21 27  1  0
 21 22  1  0
 21 47  1  6
 22 23  1  0
 22 48  1  0
 22 49  1  0
 23 24  1  0
 23 50  1  0
 23 51  1  0
 24 25  2  0
 24 26  1  0
 26 27  1  0
 26 52  1  0
 27 53  1  0
 27 54  1  0
 28 29  1  0
 28 55  1  0
 28 56  1  0
M  CHG  1  11   1
M  END
>  <DOCK_score>  (1) 
-46.528694

>  <SMILES>  (1) 
Cc1ccc2c(c1)C[C@H]([NH+]=C(NC1CC=CC1)NC1CCC(=O)NC1)CO2

$$$$
