C1=C([NH+]=c2[nH]c3ccc(Nc4ccc(Nc5nc6ccccc6[nH]5)cc4)cc3[nH]2)CCC1
     RDKit          3D

 56 61  0  0  1  0  0  0  0  0999 V2000
  131.4985  130.0183  151.9503 C   0  0  0  0  0  0  0  0  0  0  0  0
  130.9830  130.8467  152.8509 C   0  0  0  0  0  0  0  0  0  0  0  0
  131.6890  131.4357  153.8522 N   0  0  0  0  0  0  0  0  0  0  0  0
  132.6297  131.6378  153.7285 H   0  0  0  0  0  0  0  0  0  0  0  0
  131.0951  131.7324  154.9913 C   0  0  0  0  0  0  0  0  0  0  0  0
  131.4321  132.7691  155.8170 N   0  0  0  0  0  0  0  0  0  0  0  0
  132.1449  133.4091  155.6649 H   0  0  0  0  0  0  0  0  0  0  0  0
  130.5726  132.7473  156.9161 C   0  0  0  0  0  0  0  0  0  0  0  0
  130.4631  133.5512  158.0420 C   0  0  0  0  0  0  0  0  0  0  0  0
  129.4899  133.2889  158.9850 C   0  0  0  0  0  0  0  0  0  0  0  0
  128.6243  132.2139  158.8161 C   0  0  0  0  0  0  0  0  0  0  0  0
  127.6429  131.9496  159.7776 N   0  0  0  0  0  0  0  0  0  0  0  0
  127.0945  132.9985  160.5242 C   0  0  0  0  0  0  0  0  0  0  0  0
  127.2116  133.0013  161.9083 C   0  0  0  0  0  0  0  0  0  0  0  0
  126.6702  134.0359  162.6447 C   0  0  0  0  0  0  0  0  0  0  0  0
  126.0078  135.0736  162.0019 C   0  0  0  0  0  0  0  0  0  0  0  0
  125.4582  136.1230  162.7491 N   0  0  0  0  0  0  0  0  0  0  0  0
  126.0371  136.4956  163.9449 C   0  0  0  0  0  0  0  0  0  0  0  0
  127.0983  135.9384  164.4731 N   0  0  0  0  0  0  0  0  0  0  0  0
  127.3965  136.5489  165.6497 C   0  0  0  0  0  0  0  0  0  0  0  0
  128.4012  136.3593  166.6021 C   0  0  0  0  0  0  0  0  0  0  0  0
  128.4449  137.1630  167.7191 C   0  0  0  0  0  0  0  0  0  0  0  0
  127.4955  138.1561  167.9096 C   0  0  0  0  0  0  0  0  0  0  0  0
  126.4936  138.3523  166.9815 C   0  0  0  0  0  0  0  0  0  0  0  0
  126.4342  137.5522  165.8505 C   0  0  0  0  0  0  0  0  0  0  0  0
  125.5822  137.4926  164.7600 N   0  0  0  0  0  0  0  0  0  0  0  0
  124.8122  138.0604  164.5999 H   0  0  0  0  0  0  0  0  0  0  0  0
  125.8857  135.0681  160.6184 C   0  0  0  0  0  0  0  0  0  0  0  0
  126.4324  134.0367  159.8812 C   0  0  0  0  0  0  0  0  0  0  0  0
  128.7285  131.4064  157.6930 C   0  0  0  0  0  0  0  0  0  0  0  0
  129.7019  131.6707  156.7408 C   0  0  0  0  0  0  0  0  0  0  0  0
  130.0421  131.0525  155.5398 N   0  0  0  0  0  0  0  0  0  0  0  0
  129.6075  130.2739  155.1581 H   0  0  0  0  0  0  0  0  0  0  0  0
  129.5030  131.0399  152.6147 C   0  0  0  0  0  0  0  0  0  0  0  0
  129.2668  130.5443  151.1678 C   0  0  0  0  0  0  0  0  0  0  0  0
  130.4352  129.5492  150.9845 C   0  0  0  0  0  0  0  0  0  0  0  0
  132.5361  129.7205  151.9130 H   0  0  0  0  0  0  0  0  0  0  0  0
  131.1367  134.3843  158.1784 H   0  0  0  0  0  0  0  0  0  0  0  0
  129.4031  133.9181  159.8585 H   0  0  0  0  0  0  0  0  0  0  0  0
  127.3427  131.0394  159.9267 H   0  0  0  0  0  0  0  0  0  0  0  0
  127.7267  132.1944  162.4083 H   0  0  0  0  0  0  0  0  0  0  0  0
  126.7612  134.0381  163.7209 H   0  0  0  0  0  0  0  0  0  0  0  0
  124.6706  136.5879  162.4260 H   0  0  0  0  0  0  0  0  0  0  0  0
  129.1437  135.5880  166.4601 H   0  0  0  0  0  0  0  0  0  0  0  0
  129.2246  137.0193  168.4526 H   0  0  0  0  0  0  0  0  0  0  0  0
  127.5410  138.7800  168.7898 H   0  0  0  0  0  0  0  0  0  0  0  0
  125.7576  139.1275  167.1354 H   0  0  0  0  0  0  0  0  0  0  0  0
  125.3665  135.8727  160.1190 H   0  0  0  0  0  0  0  0  0  0  0  0
  126.3410  134.0344  158.8051 H   0  0  0  0  0  0  0  0  0  0  0  0
  128.0530  130.5743  157.5600 H   0  0  0  0  0  0  0  0  0  0  0  0
  128.9252  130.4446  153.3215 H   0  0  0  0  0  0  0  0  0  0  0  0
  129.2397  132.0940  152.7010 H   0  0  0  0  0  0  0  0  0  0  0  0
  129.3371  131.3648  150.4534 H   0  0  0  0  0  0  0  0  0  0  0  0
  128.3056  130.0374  151.0832 H   0  0  0  0  0  0  0  0  0  0  0  0
  130.8089  129.5874  149.9612 H   0  0  0  0  0  0  0  0  0  0  0  0
  130.1149  128.5379  151.2348 H   0  0  0  0  0  0  0  0  0  0  0  0
  1 36  1  0
  1  2  2  0
  1 37  1  0
  2  3  1  0
  2 34  1  0
  3  4  1  0
  5  3  2  0
  5 32  1  0
  5  6  1  0
  6  7  1  0
  6  8  1  0
  8 31  2  0
  8  9  1  0
  9 10  2  0
  9 38  1  0
 10 11  1  0
 10 39  1  0
 11 12  1  0
 11 30  2  0
 12 13  1  0
 12 40  1  0
 13 29  1  0
 13 14  2  0
 14 15  1  0
 14 41  1  0
 15 16  2  0
 15 42  1  0
 16 17  1  0
 16 28  1  0
 17 18  1  0
 17 43  1  0
 18 26  1  0
 18 19  2  0
 19 20  1  0
 20 25  2  0
 20 21  1  0
 21 22  2  0
 21 44  1  0
 22 23  1  0
 22 45  1  0
 23 24  2  0
 23 46  1  0
 24 25  1  0
 24 47  1  0
 25 26  1  0
 26 27  1  0
 28 29  2  0
 28 48  1  0
 29 49  1  0
 30 31  1  0
 30 50  1  0
 31 32  1  0
 32 33  1  0
 34 35  1  0
 34 51  1  0
 34 52  1  0
 35 36  1  0
 35 53  1  0
 35 54  1  0
 36 55  1  0
 36 56  1  0
M  CHG  1   3   1
M  END
>  <DOCK_score>  (1) 
-49.885235

>  <SMILES>  (1) 
C1=C([NH+]=c2[nH]c3ccc(Nc4ccc(Nc5nc6ccccc6[nH]5)cc4)cc3[nH]2)CCC1

$$$$
