CCc1ccc(-c2c[nH]c(Nc3ccc(CC(=CCCc4ccccc4)c4ccccc4)cc3)[nH+]2)cc1
     RDKit          3D

 71 75  0  0  1  0  0  0  0  0999 V2000
  129.9693  129.0781  151.3660 C   0  0  0  0  0  0  0  0  0  0  0  0
  131.2989  129.6217  151.8927 C   0  0  0  0  0  0  0  0  0  0  0  0
  131.0667  130.3399  153.1969 C   0  0  0  0  0  0  0  0  0  0  0  0
  131.1440  129.6439  154.3897 C   0  0  0  0  0  0  0  0  0  0  0  0
  130.9329  130.2963  155.5874 C   0  0  0  0  0  0  0  0  0  0  0  0
  130.6415  131.6593  155.5935 C   0  0  0  0  0  0  0  0  0  0  0  0
  130.4136  132.3662  156.8775 C   0  0  0  0  0  0  0  0  0  0  0  0
  129.9001  131.8210  158.0084 C   0  0  0  0  0  0  0  0  0  0  0  0
  129.8666  132.8184  158.9518 N   0  0  0  0  0  0  0  0  0  0  0  0
  129.5528  132.7343  159.8659 H   0  0  0  0  0  0  0  0  0  0  0  0
  130.3523  133.9474  158.3668 C   0  0  0  0  0  0  0  0  0  0  0  0
  130.4831  135.1823  158.9809 N   0  0  0  0  0  0  0  0  0  0  0  0
  130.7189  135.2572  160.3565 C   0  0  0  0  0  0  0  0  0  0  0  0
  130.2608  136.3490  161.0829 C   0  0  0  0  0  0  0  0  0  0  0  0
  130.4904  136.4169  162.4431 C   0  0  0  0  0  0  0  0  0  0  0  0
  131.1851  135.4049  163.0800 C   0  0  0  0  0  0  0  0  0  0  0  0
  131.4387  135.4852  164.5633 C   0  0  0  0  0  0  0  0  0  0  0  0
  132.7442  136.1959  164.8119 C   0  0  0  0  0  0  0  0  0  0  0  0
  132.7639  137.5129  164.9617 C   0  0  0  0  0  0  0  0  0  0  0  0
  134.0694  138.2235  165.2102 C   0  0  0  0  0  0  0  0  0  0  0  0
  134.3270  138.3050  166.7162 C   0  0  0  0  0  0  0  0  0  0  0  0
  135.6325  139.0157  166.9647 C   0  0  0  0  0  0  0  0  0  0  0  0
  136.8088  138.2936  167.0421 C   0  0  0  0  0  0  0  0  0  0  0  0
  138.0068  138.9461  167.2653 C   0  0  0  0  0  0  0  0  0  0  0  0
  138.0274  140.3193  167.4214 C   0  0  0  0  0  0  0  0  0  0  0  0
  136.8506  141.0409  167.3493 C   0  0  0  0  0  0  0  0  0  0  0  0
  135.6530  140.3891  167.1210 C   0  0  0  0  0  0  0  0  0  0  0  0
  134.0027  135.4244  164.8888 C   0  0  0  0  0  0  0  0  0  0  0  0
  134.4481  134.9307  166.1155 C   0  0  0  0  0  0  0  0  0  0  0  0
  135.6212  134.2073  166.1797 C   0  0  0  0  0  0  0  0  0  0  0  0
  136.3608  133.9800  165.0329 C   0  0  0  0  0  0  0  0  0  0  0  0
  135.9275  134.4713  163.8145 C   0  0  0  0  0  0  0  0  0  0  0  0
  134.7534  135.1916  163.7357 C   0  0  0  0  0  0  0  0  0  0  0  0
  131.6478  134.3194  162.3588 C   0  0  0  0  0  0  0  0  0  0  0  0
  131.4166  134.2424  160.9994 C   0  0  0  0  0  0  0  0  0  0  0  0
  130.6814  133.6719  157.1282 N   0  0  0  0  0  0  0  0  0  0  0  0
  131.0566  134.3012  156.4927 H   0  0  0  0  0  0  0  0  0  0  0  0
  130.5595  132.3544  154.3881 C   0  0  0  0  0  0  0  0  0  0  0  0
  130.7781  131.6929  153.1969 C   0  0  0  0  0  0  0  0  0  0  0  0
  129.2759  129.9041  151.2077 H   0  0  0  0  0  0  0  0  0  0  0  0
  130.1372  128.5588  150.4225 H   0  0  0  0  0  0  0  0  0  0  0  0
  129.5476  128.3838  152.0929 H   0  0  0  0  0  0  0  0  0  0  0  0
  131.7207  130.3164  151.1656 H   0  0  0  0  0  0  0  0  0  0  0  0
  131.9923  128.7962  152.0505 H   0  0  0  0  0  0  0  0  0  0  0  0
  131.3695  128.5878  154.3837 H   0  0  0  0  0  0  0  0  0  0  0  0
  130.9937  129.7519  156.5181 H   0  0  0  0  0  0  0  0  0  0  0  0
  129.5832  130.7974  158.1428 H   0  0  0  0  0  0  0  0  0  0  0  0
  130.4069  135.9950  158.4570 H   0  0  0  0  0  0  0  0  0  0  0  0
  129.7222  137.1419  160.5854 H   0  0  0  0  0  0  0  0  0  0  0  0
  130.1310  137.2636  163.0091 H   0  0  0  0  0  0  0  0  0  0  0  0
  130.6285  136.0360  165.0412 H   0  0  0  0  0  0  0  0  0  0  0  0
  131.4883  134.4786  164.9785 H   0  0  0  0  0  0  0  0  0  0  0  0
  131.8444  138.0766  164.9055 H   0  0  0  0  0  0  0  0  0  0  0  0
  134.8795  137.6727  164.7324 H   0  0  0  0  0  0  0  0  0  0  0  0
  134.0199  139.2301  164.7951 H   0  0  0  0  0  0  0  0  0  0  0  0
  133.5169  138.8557  167.1942 H   0  0  0  0  0  0  0  0  0  0  0  0
  134.3766  137.2984  167.1314 H   0  0  0  0  0  0  0  0  0  0  0  0
  136.7921  137.2201  166.9245 H   0  0  0  0  0  0  0  0  0  0  0  0
  138.9262  138.3823  167.3220 H   0  0  0  0  0  0  0  0  0  0  0  0
  138.9629  140.8286  167.6002 H   0  0  0  0  0  0  0  0  0  0  0  0
  136.8665  142.1138  167.4717 H   0  0  0  0  0  0  0  0  0  0  0  0
  134.7336  140.9528  167.0650 H   0  0  0  0  0  0  0  0  0  0  0  0
  133.8737  135.1110  167.0121 H   0  0  0  0  0  0  0  0  0  0  0  0
  135.9648  133.8211  167.1279 H   0  0  0  0  0  0  0  0  0  0  0  0
  137.2807  133.4169  165.0892 H   0  0  0  0  0  0  0  0  0  0  0  0
  136.5096  134.2906  162.9228 H   0  0  0  0  0  0  0  0  0  0  0  0
  134.4162  135.5750  162.7840 H   0  0  0  0  0  0  0  0  0  0  0  0
  132.1902  133.5309  162.8592 H   0  0  0  0  0  0  0  0  0  0  0  0
  131.7783  133.3945  160.4368 H   0  0  0  0  0  0  0  0  0  0  0  0
  130.3296  133.4097  154.3868 H   0  0  0  0  0  0  0  0  0  0  0  0
  130.7192  132.2315  152.2626 H   0  0  0  0  0  0  0  0  0  0  0  0
  1  2  1  0
  1 40  1  0
  1 41  1  0
  1 42  1  0
  2  3  1  0
  2 43  1  0
  2 44  1  0
  3 39  2  0
  3  4  1  0
  4  5  2  0
  4 45  1  0
  5  6  1  0
  5 46  1  0
  6  7  1  0
  6 38  2  0
  7 36  1  0
  7  8  2  0
  8  9  1  0
  8 47  1  0
  9 10  1  0
  9 11  1  0
 11 12  1  0
 11 36  2  0
 12 13  1  0
 12 48  1  0
 13 35  1  0
 13 14  2  0
 14 15  1  0
 14 49  1  0
 15 16  2  0
 15 50  1  0
 16 17  1  0
 16 34  1  0
 17 18  1  0
 17 51  1  0
 17 52  1  0
 18 19  2  0
 18 28  1  0
 19 20  1  0
 19 53  1  0
 20 21  1  0
 20 54  1  0
 20 55  1  0
 21 22  1  0
 21 56  1  0
 21 57  1  0
 22 27  1  0
 22 23  2  0
 23 24  1  0
 23 58  1  0
 24 25  2  0
 24 59  1  0
 25 26  1  0
 25 60  1  0
 26 27  2  0
 26 61  1  0
 27 62  1  0
 28 33  1  0
 28 29  2  0
 29 30  1  0
 29 63  1  0
 30 31  2  0
 30 64  1  0
 31 32  1  0
 31 65  1  0
 32 33  2  0
 32 66  1  0
 33 67  1  0
 34 35  2  0
 34 68  1  0
 35 69  1  0
 36 37  1  0
 38 39  1  0
 38 70  1  0
 39 71  1  0
M  CHG  1  36   1
M  END
>  <DOCK_score>  (1) 
-57.305283

>  <SMILES>  (1) 
CCc1ccc(-c2c[nH]c(Nc3ccc(CC(=CCCc4ccccc4)c4ccccc4)cc3)[nH+]2)cc1

$$$$
