Nc1ccc(-c2c[nH]c(Nc3ccccc3Nc3ccccc3N)[nH+]2)cc1
     RDKit          3D

 48 51  0  0  1  0  0  0  0  0999 V2000
  131.2617  129.9340  152.5904 N   0  0  0  0  0  0  0  0  0  0  0  0
  130.9938  130.6151  153.7803 C   0  0  0  0  0  0  0  0  0  0  0  0
  130.6841  131.9697  153.7499 C   0  0  0  0  0  0  0  0  0  0  0  0
  130.4193  132.6441  154.9232 C   0  0  0  0  0  0  0  0  0  0  0  0
  130.4617  131.9659  156.1404 C   0  0  0  0  0  0  0  0  0  0  0  0
  130.1771  132.6893  157.4041 C   0  0  0  0  0  0  0  0  0  0  0  0
  129.6256  132.1556  158.5221 C   0  0  0  0  0  0  0  0  0  0  0  0
  129.5408  133.1684  159.4473 N   0  0  0  0  0  0  0  0  0  0  0  0
  129.1881  133.0960  160.3480 H   0  0  0  0  0  0  0  0  0  0  0  0
  130.0435  134.2918  158.8662 C   0  0  0  0  0  0  0  0  0  0  0  0
  130.1389  135.5367  159.4655 N   0  0  0  0  0  0  0  0  0  0  0  0
  129.2089  135.9173  160.4408 C   0  0  0  0  0  0  0  0  0  0  0  0
  127.9155  135.4183  160.4008 C   0  0  0  0  0  0  0  0  0  0  0  0
  126.9972  135.8006  161.3610 C   0  0  0  0  0  0  0  0  0  0  0  0
  127.3655  136.6751  162.3669 C   0  0  0  0  0  0  0  0  0  0  0  0
  128.6544  137.1724  162.4185 C   0  0  0  0  0  0  0  0  0  0  0  0
  129.5824  136.7947  161.4592 C   0  0  0  0  0  0  0  0  0  0  0  0
  130.8877  137.2967  161.5094 N   0  0  0  0  0  0  0  0  0  0  0  0
  131.8758  136.6072  162.2219 C   0  0  0  0  0  0  0  0  0  0  0  0
  131.7247  136.3843  163.5826 C   0  0  0  0  0  0  0  0  0  0  0  0
  132.7017  135.7028  164.2840 C   0  0  0  0  0  0  0  0  0  0  0  0
  133.8313  135.2419  163.6334 C   0  0  0  0  0  0  0  0  0  0  0  0
  133.9904  135.4596  162.2773 C   0  0  0  0  0  0  0  0  0  0  0  0
  133.0154  136.1419  161.5656 C   0  0  0  0  0  0  0  0  0  0  0  0
  133.1744  136.3633  160.1925 N   0  0  0  0  0  0  0  0  0  0  0  0
  130.4174  134.0024  157.6433 N   0  0  0  0  0  0  0  0  0  0  0  0
  130.8063  134.6271  157.0114 H   0  0  0  0  0  0  0  0  0  0  0  0
  130.7777  130.6086  156.1691 C   0  0  0  0  0  0  0  0  0  0  0  0
  131.0367  129.9372  154.9928 C   0  0  0  0  0  0  0  0  0  0  0  0
  131.2317  130.4065  151.7439 H   0  0  0  0  0  0  0  0  0  0  0  0
  131.4779  128.9887  152.6110 H   0  0  0  0  0  0  0  0  0  0  0  0
  130.6514  132.4946  152.8067 H   0  0  0  0  0  0  0  0  0  0  0  0
  130.1787  133.6967  154.8989 H   0  0  0  0  0  0  0  0  0  0  0  0
  129.3125  131.1311  158.6591 H   0  0  0  0  0  0  0  0  0  0  0  0
  130.8501  136.1450  159.2098 H   0  0  0  0  0  0  0  0  0  0  0  0
  127.6242  134.7352  159.6167 H   0  0  0  0  0  0  0  0  0  0  0  0
  125.9890  135.4148  161.3254 H   0  0  0  0  0  0  0  0  0  0  0  0
  126.6443  136.9701  163.1146 H   0  0  0  0  0  0  0  0  0  0  0  0
  128.9388  137.8546  163.2060 H   0  0  0  0  0  0  0  0  0  0  0  0
  131.1076  138.1224  161.0505 H   0  0  0  0  0  0  0  0  0  0  0  0
  130.8416  136.7393  164.0931 H   0  0  0  0  0  0  0  0  0  0  0  0
  132.5824  135.5300  165.3434 H   0  0  0  0  0  0  0  0  0  0  0  0
  134.5919  134.7106  164.1863 H   0  0  0  0  0  0  0  0  0  0  0  0
  134.8743  135.0985  161.7725 H   0  0  0  0  0  0  0  0  0  0  0  0
  133.9675  136.0394  159.7376 H   0  0  0  0  0  0  0  0  0  0  0  0
  132.4914  136.8407  159.6960 H   0  0  0  0  0  0  0  0  0  0  0  0
  130.8159  130.0823  157.1114 H   0  0  0  0  0  0  0  0  0  0  0  0
  131.2775  128.8845  155.0142 H   0  0  0  0  0  0  0  0  0  0  0  0
  1  2  1  0
  1 30  1  0
  1 31  1  0
  2 29  2  0
  2  3  1  0
  3  4  2  0
  3 32  1  0
  4  5  1  0
  4 33  1  0
  5  6  1  0
  5 28  2  0
  6 26  1  0
  6  7  2  0
  7  8  1  0
  7 34  1  0
  8  9  1  0
  8 10  1  0
 10 11  1  0
 10 26  2  0
 11 12  1  0
 11 35  1  0
 12 17  1  0
 12 13  2  0
 13 14  1  0
 13 36  1  0
 14 15  2  0
 14 37  1  0
 15 16  1  0
 15 38  1  0
 16 17  2  0
 16 39  1  0
 17 18  1  0
 18 19  1  0
 18 40  1  0
 19 24  1  0
 19 20  2  0
 20 21  1  0
 20 41  1  0
 21 22  2  0
 21 42  1  0
 22 23  1  0
 22 43  1  0
 23 24  2  0
 23 44  1  0
 24 25  1  0
 25 45  1  0
 25 46  1  0
 26 27  1  0
 28 29  1  0
 28 47  1  0
 29 48  1  0
M  CHG  1  26   1
M  END
>  <DOCK_score>  (1) 
-55.923813

>  <SMILES>  (1) 
Nc1ccc(-c2c[nH]c(Nc3ccccc3Nc3ccccc3N)[nH+]2)cc1

$$$$
