Fc1ccc(CNc2ccc(-c3n[nH]cc3C[NH2+]CC3=CCCC3)o2)c(F)c1
     RDKit          3D

 51 54  0  0  0  0  0  0  0  0999 V2000
  127.6330  134.8935  168.0187 F   0  0  0  0  0  0  0  0  0  0  0  0
  127.4985  135.4296  166.7859 C   0  0  0  0  0  0  0  0  0  0  0  0
  126.2738  135.3832  166.1405 C   0  0  0  0  0  0  0  0  0  0  0  0
  126.1344  135.9355  164.8815 C   0  0  0  0  0  0  0  0  0  0  0  0
  127.2197  136.5245  164.2600 C   0  0  0  0  0  0  0  0  0  0  0  0
  127.0677  137.1210  162.8845 C   0  0  0  0  0  0  0  0  0  0  0  0
  126.3142  136.1978  162.0325 N   0  0  0  0  0  0  0  0  0  0  0  0
  126.9850  135.2352  161.2870 C   0  0  0  0  0  0  0  0  0  0  0  0
  126.4379  134.1025  160.7797 C   0  0  0  0  0  0  0  0  0  0  0  0
  127.4646  133.4195  160.0984 C   0  0  0  0  0  0  0  0  0  0  0  0
  128.5893  134.1720  160.2247 C   0  0  0  0  0  0  0  0  0  0  0  0
  129.9173  133.8440  159.6664 C   0  0  0  0  0  0  0  0  0  0  0  0
  130.2196  132.7723  158.9602 N   0  0  0  0  0  0  0  0  0  0  0  0
  131.5777  132.8416  158.6250 N   0  0  0  0  0  0  0  0  0  0  0  0
  132.0699  132.1855  158.1071 H   0  0  0  0  0  0  0  0  0  0  0  0
  132.0821  133.9827  159.1422 C   0  0  0  0  0  0  0  0  0  0  0  0
  131.0875  134.6215  159.7947 C   0  0  0  0  0  0  0  0  0  0  0  0
  131.2051  135.9347  160.5249 C   0  0  0  0  0  0  0  0  0  0  0  0
  130.9215  137.0378  159.5972 N   0  0  0  0  0  0  0  0  0  0  0  0
  129.9861  136.9384  159.2323 H   0  0  0  0  0  0  0  0  0  0  0  0
  131.5836  137.0158  158.8360 H   0  0  0  0  0  0  0  0  0  0  0  0
  131.0361  138.3178  160.3089 C   0  0  0  0  0  0  0  0  0  0  0  0
  132.4333  138.4661  160.8538 C   0  0  0  0  0  0  0  0  0  0  0  0
  132.7217  138.6012  162.1196 C   0  0  0  0  0  0  0  0  0  0  0  0
  134.2132  138.7251  162.3278 C   0  0  0  0  0  0  0  0  0  0  0  0
  134.8376  138.2231  161.0051 C   0  0  0  0  0  0  0  0  0  0  0  0
  133.6845  138.4773  160.0067 C   0  0  0  0  0  0  0  0  0  0  0  0
  128.2862  135.2674  160.9527 O   0  0  0  0  0  0  0  0  0  0  0  0
  128.4448  136.5717  164.9033 C   0  0  0  0  0  0  0  0  0  0  0  0
  129.5038  137.1527  164.2982 F   0  0  0  0  0  0  0  0  0  0  0  0
  128.5842  136.0236  166.1669 C   0  0  0  0  0  0  0  0  0  0  0  0
  125.4263  134.9196  166.6233 H   0  0  0  0  0  0  0  0  0  0  0  0
  125.1780  135.9034  164.3810 H   0  0  0  0  0  0  0  0  0  0  0  0
  128.0533  137.2924  162.4518 H   0  0  0  0  0  0  0  0  0  0  0  0
  126.5326  138.0680  162.9562 H   0  0  0  0  0  0  0  0  0  0  0  0
  125.3470  136.2582  161.9886 H   0  0  0  0  0  0  0  0  0  0  0  0
  125.4106  133.7845  160.8794 H   0  0  0  0  0  0  0  0  0  0  0  0
  127.3750  132.4787  159.5756 H   0  0  0  0  0  0  0  0  0  0  0  0
  133.1029  134.3237  159.0515 H   0  0  0  0  0  0  0  0  0  0  0  0
  132.2156  136.0419  160.9191 H   0  0  0  0  0  0  0  0  0  0  0  0
  130.4900  135.9584  161.3471 H   0  0  0  0  0  0  0  0  0  0  0  0
  130.3210  138.3417  161.1312 H   0  0  0  0  0  0  0  0  0  0  0  0
  130.8258  139.1364  159.6205 H   0  0  0  0  0  0  0  0  0  0  0  0
  131.9902  138.6213  162.9140 H   0  0  0  0  0  0  0  0  0  0  0  0
  134.5337  138.0991  163.1605 H   0  0  0  0  0  0  0  0  0  0  0  0
  134.4866  139.7650  162.5060 H   0  0  0  0  0  0  0  0  0  0  0  0
  135.7190  138.8077  160.7419 H   0  0  0  0  0  0  0  0  0  0  0  0
  135.0775  137.1615  161.0638 H   0  0  0  0  0  0  0  0  0  0  0  0
  133.8073  139.4467  159.5236 H   0  0  0  0  0  0  0  0  0  0  0  0
  133.6454  137.6829  159.2613 H   0  0  0  0  0  0  0  0  0  0  0  0
  129.5396  136.0597  166.6693 H   0  0  0  0  0  0  0  0  0  0  0  0
  1  2  1  0
  2 31  2  0
  2  3  1  0
  3  4  2  0
  3 32  1  0
  4  5  1  0
  4 33  1  0
  5  6  1  0
  5 29  2  0
  6  7  1  0
  6 34  1  0
  6 35  1  0
  7  8  1  0
  7 36  1  0
  8 28  1  0
  8  9  2  0
  9 10  1  0
  9 37  1  0
 10 11  2  0
 10 38  1  0
 11 12  1  0
 11 28  1  0
 12 17  1  0
 12 13  2  0
 13 14  1  0
 14 15  1  0
 14 16  1  0
 16 17  2  0
 16 39  1  0
 17 18  1  0
 18 19  1  0
 18 40  1  0
 18 41  1  0
 19 20  1  0
 19 21  1  0
 19 22  1  0
 22 23  1  0
 22 42  1  0
 22 43  1  0
 23 27  1  0
 23 24  2  0
 24 25  1  0
 24 44  1  0
 25 26  1  0
 25 45  1  0
 25 46  1  0
 26 27  1  0
 26 47  1  0
 26 48  1  0
 27 49  1  0
 27 50  1  0
 29 30  1  0
 29 31  1  0
 31 51  1  0
M  CHG  1  19   1
M  END
>  <DOCK_score>  (1) 
-41.605

>  <SMILES>  (1) 
Fc1ccc(CNc2ccc(-c3n[nH]cc3C[NH2+]CC3=CCCC3)o2)c(F)c1

$$$$
