[NH3+][C@H](Cc1cn(C2CC=CC2)nn1)C(=O)Nc1cccc(O)c1
     RDKit          3D

 43 45  0  0  1  0  0  0  0  0999 V2000
  130.3579  134.0388  156.9505 N   0  0  0  0  0  0  0  0  0  0  0  0
  130.5269  133.0686  157.1697 H   0  0  0  0  0  0  0  0  0  0  0  0
  129.7041  134.1017  156.1846 H   0  0  0  0  0  0  0  0  0  0  0  0
  131.2264  134.4805  156.6882 H   0  0  0  0  0  0  0  0  0  0  0  0
  129.7998  134.7169  158.1280 C   0  0  2  0  0  0  0  0  0  0  0  0
  129.6172  135.7651  157.8911 H   0  0  0  0  0  0  0  0  0  0  0  0
  130.7913  134.6217  159.2892 C   0  0  0  0  0  0  0  0  0  0  0  0
  130.4793  135.6899  160.3053 C   0  0  0  0  0  0  0  0  0  0  0  0
  130.9833  136.9456  160.3411 C   0  0  0  0  0  0  0  0  0  0  0  0
  130.4238  137.5457  161.4172 N   0  0  0  0  0  0  0  0  0  0  0  0
  130.6686  138.9217  161.8564 C   0  0  0  0  0  0  0  0  0  0  0  0
  129.3707  139.5746  162.3859 C   0  0  0  0  0  0  0  0  0  0  0  0
  129.4465  141.0107  161.9221 C   0  0  0  0  0  0  0  0  0  0  0  0
  130.3368  141.1536  160.9784 C   0  0  0  0  0  0  0  0  0  0  0  0
  131.0035  139.8365  160.6555 C   0  0  0  0  0  0  0  0  0  0  0  0
  129.6433  136.6984  161.9912 N   0  0  0  0  0  0  0  0  0  0  0  0
  129.6541  135.5818  161.3526 N   0  0  0  0  0  0  0  0  0  0  0  0
  128.5026  134.0573  158.5197 C   0  0  0  0  0  0  0  0  0  0  0  0
  128.0844  133.1148  157.8807 O   0  0  0  0  0  0  0  0  0  0  0  0
  127.8073  134.5144  159.5798 N   0  0  0  0  0  0  0  0  0  0  0  0
  126.6029  133.9019  159.9434 C   0  0  0  0  0  0  0  0  0  0  0  0
  126.4076  132.5491  159.6942 C   0  0  0  0  0  0  0  0  0  0  0  0
  125.2188  131.9446  160.0531 C   0  0  0  0  0  0  0  0  0  0  0  0
  124.2233  132.6815  160.6666 C   0  0  0  0  0  0  0  0  0  0  0  0
  124.4106  134.0342  160.9127 C   0  0  0  0  0  0  0  0  0  0  0  0
  123.4286  134.7590  161.5105 O   0  0  0  0  0  0  0  0  0  0  0  0
  125.6023  134.6446  160.5536 C   0  0  0  0  0  0  0  0  0  0  0  0
  130.7100  133.6404  159.7569 H   0  0  0  0  0  0  0  0  0  0  0  0
  131.8051  134.7623  158.9138 H   0  0  0  0  0  0  0  0  0  0  0  0
  131.6880  137.3816  159.6486 H   0  0  0  0  0  0  0  0  0  0  0  0
  131.4588  138.9558  162.6066 H   0  0  0  0  0  0  0  0  0  0  0  0
  128.4968  139.0832  161.9585 H   0  0  0  0  0  0  0  0  0  0  0  0
  129.3392  139.5284  163.4745 H   0  0  0  0  0  0  0  0  0  0  0  0
  128.8433  141.8135  162.3194 H   0  0  0  0  0  0  0  0  0  0  0  0
  130.5667  142.0900  160.4920 H   0  0  0  0  0  0  0  0  0  0  0  0
  132.0819  139.9683  160.5676 H   0  0  0  0  0  0  0  0  0  0  0  0
  130.5964  139.4186  159.7348 H   0  0  0  0  0  0  0  0  0  0  0  0
  128.1417  135.2680  160.0907 H   0  0  0  0  0  0  0  0  0  0  0  0
  127.1858  131.9700  159.2193 H   0  0  0  0  0  0  0  0  0  0  0  0
  125.0685  130.8930  159.8583 H   0  0  0  0  0  0  0  0  0  0  0  0
  123.2967  132.2049  160.9507 H   0  0  0  0  0  0  0  0  0  0  0  0
  123.6511  135.6911  161.6398 H   0  0  0  0  0  0  0  0  0  0  0  0
  125.7517  135.6963  160.7487 H   0  0  0  0  0  0  0  0  0  0  0  0
  1  2  1  0
  1  3  1  0
  1  4  1  0
  1  5  1  0
  5  6  1  6
  5  7  1  0
  5 18  1  0
  7  8  1  0
  7 28  1  0
  7 29  1  0
  8 17  1  0
  8  9  2  0
  9 10  1  0
  9 30  1  0
 10 11  1  0
 10 16  1  0
 11 15  1  0
 11 12  1  0
 11 31  1  0
 12 13  1  0
 12 32  1  0
 12 33  1  0
 13 14  2  0
 13 34  1  0
 14 15  1  0
 14 35  1  0
 15 36  1  0
 15 37  1  0
 16 17  2  0
 18 19  2  0
 18 20  1  0
 20 21  1  0
 20 38  1  0
 21 27  1  0
 21 22  2  0
 22 23  1  0
 22 39  1  0
 23 24  2  0
 23 40  1  0
 24 25  1  0
 24 41  1  0
 25 26  1  0
 25 27  2  0
 26 42  1  0
 27 43  1  0
M  CHG  1   1   1
M  END
>  <DOCK_score>  (1) 
-46.645523

>  <SMILES>  (1) 
[NH3+][C@H](Cc1cn(C2CC=CC2)nn1)C(=O)Nc1cccc(O)c1

$$$$
