Cc1cc(O)ccc1Nc1[nH]cc(C2=CCC=CC2)[nH+]1
     RDKit          3D

 38 40  0  0  1  0  0  0  0  0999 V2000
  127.4779  135.4855  158.0789 C   0  0  0  0  0  0  0  0  0  0  0  0
  127.8980  135.7566  159.5006 C   0  0  0  0  0  0  0  0  0  0  0  0
  126.9753  136.2220  160.4168 C   0  0  0  0  0  0  0  0  0  0  0  0
  127.3616  136.4711  161.7251 C   0  0  0  0  0  0  0  0  0  0  0  0
  126.4523  136.9294  162.6266 O   0  0  0  0  0  0  0  0  0  0  0  0
  128.6737  136.2477  162.1165 C   0  0  0  0  0  0  0  0  0  0  0  0
  129.5989  135.7879  161.2004 C   0  0  0  0  0  0  0  0  0  0  0  0
  129.2128  135.5381  159.8897 C   0  0  0  0  0  0  0  0  0  0  0  0
  130.1491  135.0668  158.9615 N   0  0  0  0  0  0  0  0  0  0  0  0
  129.9497  133.8480  158.3347 C   0  0  0  0  0  0  0  0  0  0  0  0
  129.2962  132.7796  158.8688 N   0  0  0  0  0  0  0  0  0  0  0  0
  128.8908  132.7357  159.7489 H   0  0  0  0  0  0  0  0  0  0  0  0
  129.3142  131.7770  157.9314 C   0  0  0  0  0  0  0  0  0  0  0  0
  129.9869  132.2577  156.8533 C   0  0  0  0  0  0  0  0  0  0  0  0
  130.2601  131.5241  155.6003 C   0  0  0  0  0  0  0  0  0  0  0  0
  129.7991  132.0125  154.4692 C   0  0  0  0  0  0  0  0  0  0  0  0
  130.0250  131.3418  153.1475 C   0  0  0  0  0  0  0  0  0  0  0  0
  131.1756  130.3838  153.2155 C   0  0  0  0  0  0  0  0  0  0  0  0
  131.6301  129.9018  154.3311 C   0  0  0  0  0  0  0  0  0  0  0  0
  131.0572  130.2560  155.6679 C   0  0  0  0  0  0  0  0  0  0  0  0
  130.3639  133.5317  157.1322 N   0  0  0  0  0  0  0  0  0  0  0  0
  130.8603  134.1148  156.5367 H   0  0  0  0  0  0  0  0  0  0  0  0
  127.1406  134.4527  157.9904 H   0  0  0  0  0  0  0  0  0  0  0  0
  126.6647  136.1580  157.8057 H   0  0  0  0  0  0  0  0  0  0  0  0
  128.3245  135.6496  157.4122 H   0  0  0  0  0  0  0  0  0  0  0  0
  125.9526  136.3923  160.1140 H   0  0  0  0  0  0  0  0  0  0  0  0
  125.5646  137.0504  162.2630 H   0  0  0  0  0  0  0  0  0  0  0  0
  128.9727  136.4373  163.1367 H   0  0  0  0  0  0  0  0  0  0  0  0
  130.6214  135.6183  161.5039 H   0  0  0  0  0  0  0  0  0  0  0  0
  130.9374  135.5940  158.7575 H   0  0  0  0  0  0  0  0  0  0  0  0
  128.8808  130.7930  158.0332 H   0  0  0  0  0  0  0  0  0  0  0  0
  129.2355  132.9334  154.4936 H   0  0  0  0  0  0  0  0  0  0  0  0
  129.1238  130.7982  152.8640 H   0  0  0  0  0  0  0  0  0  0  0  0
  130.2366  132.1001  152.3936 H   0  0  0  0  0  0  0  0  0  0  0  0
  131.6487  130.0808  152.2930 H   0  0  0  0  0  0  0  0  0  0  0  0
  132.4636  129.2160  154.2943 H   0  0  0  0  0  0  0  0  0  0  0  0
  131.8689  130.3820  156.3844 H   0  0  0  0  0  0  0  0  0  0  0  0
  130.4102  129.4447  156.0017 H   0  0  0  0  0  0  0  0  0  0  0  0
  1  2  1  0
  1 23  1  0
  1 24  1  0
  1 25  1  0
  2  8  2  0
  2  3  1  0
  3  4  2  0
  3 26  1  0
  4  5  1  0
  4  6  1  0
  5 27  1  0
  6  7  2  0
  6 28  1  0
  7  8  1  0
  7 29  1  0
  8  9  1  0
  9 30  1  0
 10  9  1  0
 10 21  2  0
 10 11  1  0
 11 12  1  0
 11 13  1  0
 13 14  2  0
 13 31  1  0
 14 15  1  0
 14 21  1  0
 15 20  1  0
 15 16  2  0
 16 17  1  0
 16 32  1  0
 17 18  1  0
 17 33  1  0
 17 34  1  0
 18 19  2  0
 18 35  1  0
 19 20  1  0
 19 36  1  0
 20 37  1  0
 20 38  1  0
 21 22  1  0
M  CHG  1  21   1
M  END
>  <DOCK_score>  (1) 
-51.075073

>  <SMILES>  (1) 
Cc1cc(O)ccc1Nc1[nH]cc(C2=CCC=CC2)[nH+]1

$$$$
