Oc1ccc(SC2CC2)c(Nc2[nH]cc(-c3ccccc3)[nH+]2)c1
     RDKit          3D

 41 44  0  0  1  0  0  0  0  0999 V2000
  125.7035  136.0376  159.8651 O   0  0  0  0  0  0  0  0  0  0  0  0
  127.0346  136.0149  160.1431 C   0  0  0  0  0  0  0  0  0  0  0  0
  127.4860  136.3887  161.4004 C   0  0  0  0  0  0  0  0  0  0  0  0
  128.8380  136.3667  161.6874 C   0  0  0  0  0  0  0  0  0  0  0  0
  129.7475  135.9709  160.7178 C   0  0  0  0  0  0  0  0  0  0  0  0
  131.4709  135.9434  161.0834 S   0  0  0  0  0  0  0  0  0  0  0  0
  132.0133  137.6110  160.6192 C   0  0  0  0  0  0  0  0  0  0  0  0
  133.2578  137.7291  159.7370 C   0  0  0  0  0  0  0  0  0  0  0  0
  133.3276  138.1182  161.2159 C   0  0  0  0  0  0  0  0  0  0  0  0
  129.2957  135.5951  159.4527 C   0  0  0  0  0  0  0  0  0  0  0  0
  130.2108  135.1954  158.4709 N   0  0  0  0  0  0  0  0  0  0  0  0
  130.1280  133.9264  157.9227 C   0  0  0  0  0  0  0  0  0  0  0  0
  129.6632  132.8163  158.5591 N   0  0  0  0  0  0  0  0  0  0  0  0
  129.3330  132.7723  159.4701 H   0  0  0  0  0  0  0  0  0  0  0  0
  129.7480  131.7705  157.6731 C   0  0  0  0  0  0  0  0  0  0  0  0
  130.2564  132.2716  156.5198 C   0  0  0  0  0  0  0  0  0  0  0  0
  130.5190  131.5063  155.2767 C   0  0  0  0  0  0  0  0  0  0  0  0
  129.8740  131.8547  154.0913 C   0  0  0  0  0  0  0  0  0  0  0  0
  130.1261  131.1425  152.9364 C   0  0  0  0  0  0  0  0  0  0  0  0
  131.0083  130.0777  152.9560 C   0  0  0  0  0  0  0  0  0  0  0  0
  131.6475  129.7237  154.1311 C   0  0  0  0  0  0  0  0  0  0  0  0
  131.4073  130.4324  155.2906 C   0  0  0  0  0  0  0  0  0  0  0  0
  130.4848  133.5956  156.7054 N   0  0  0  0  0  0  0  0  0  0  0  0
  130.8499  134.2018  156.0419 H   0  0  0  0  0  0  0  0  0  0  0  0
  127.9390  135.6237  159.1674 C   0  0  0  0  0  0  0  0  0  0  0  0
  125.1517  136.3233  160.6061 H   0  0  0  0  0  0  0  0  0  0  0  0
  126.7795  136.6972  162.1567 H   0  0  0  0  0  0  0  0  0  0  0  0
  129.1864  136.6576  162.6673 H   0  0  0  0  0  0  0  0  0  0  0  0
  131.2163  138.3388  160.4653 H   0  0  0  0  0  0  0  0  0  0  0  0
  133.7507  136.8049  159.4357 H   0  0  0  0  0  0  0  0  0  0  0  0
  133.2799  138.5347  159.0032 H   0  0  0  0  0  0  0  0  0  0  0  0
  133.3957  139.1796  161.4543 H   0  0  0  0  0  0  0  0  0  0  0  0
  133.8664  137.4497  161.8874 H   0  0  0  0  0  0  0  0  0  0  0  0
  130.9027  135.8074  158.1749 H   0  0  0  0  0  0  0  0  0  0  0  0
  129.4604  130.7460  157.8578 H   0  0  0  0  0  0  0  0  0  0  0  0
  129.1815  132.6834  154.0756 H   0  0  0  0  0  0  0  0  0  0  0  0
  129.6304  131.4147  152.0163 H   0  0  0  0  0  0  0  0  0  0  0  0
  131.1992  129.5204  152.0508 H   0  0  0  0  0  0  0  0  0  0  0  0
  132.3360  128.8916  154.1407 H   0  0  0  0  0  0  0  0  0  0  0  0
  131.9072  130.1557  156.2072 H   0  0  0  0  0  0  0  0  0  0  0  0
  127.5867  135.3375  158.1875 H   0  0  0  0  0  0  0  0  0  0  0  0
  1  2  1  0
  1 26  1  0
  2 25  2  0
  2  3  1  0
  3  4  2  0
  3 27  1  0
  4  5  1  0
  4 28  1  0
  5  6  1  0
  5 10  2  0
  6  7  1  0
  7  9  1  0
  7  8  1  0
  7 29  1  0
  8  9  1  0
  8 30  1  0
  8 31  1  0
  9 32  1  0
  9 33  1  0
 10 11  1  0
 10 25  1  0
 11 34  1  0
 12 11  1  0
 12 23  2  0
 12 13  1  0
 13 14  1  0
 13 15  1  0
 15 16  2  0
 15 35  1  0
 16 17  1  0
 16 23  1  0
 17 22  1  0
 17 18  2  0
 18 19  1  0
 18 36  1  0
 19 20  2  0
 19 37  1  0
 20 21  1  0
 20 38  1  0
 21 22  2  0
 21 39  1  0
 22 40  1  0
 23 24  1  0
 25 41  1  0
M  CHG  1  23   1
M  END
>  <DOCK_score>  (1) 
-53.399128

>  <SMILES>  (1) 
Oc1ccc(SC2CC2)c(Nc2[nH]cc(-c3ccccc3)[nH+]2)c1

$$$$
