Cc1n[nH]cc1CN(CC1=[NH+]CCCN1)c1ccc(Nc2nc(-c3ccc(N)cc3)c[nH]2)o1
     RDKit          3D

 61 65  0  0  0  0  0  0  0  0999 V2000
  128.1378  131.3841  158.8226 C   0  0  0  0  0  0  0  0  0  0  0  0
  129.2156  132.4295  158.6942 C   0  0  0  0  0  0  0  0  0  0  0  0
  129.6635  132.9364  157.5742 N   0  0  0  0  0  0  0  0  0  0  0  0
  130.6626  133.8681  157.8840 N   0  0  0  0  0  0  0  0  0  0  0  0
  131.1711  134.3929  157.2461 H   0  0  0  0  0  0  0  0  0  0  0  0
  130.7931  133.9061  159.2266 C   0  0  0  0  0  0  0  0  0  0  0  0
  129.9072  133.0285  159.7521 C   0  0  0  0  0  0  0  0  0  0  0  0
  129.7057  132.7426  161.2180 C   0  0  0  0  0  0  0  0  0  0  0  0
  129.6561  134.0051  161.9595 N   0  0  0  0  0  0  0  0  0  0  0  0
  130.8886  134.5896  162.4939 C   0  0  0  0  0  0  0  0  0  0  0  0
  131.0981  135.9559  161.8934 C   0  0  0  0  0  0  0  0  0  0  0  0
  130.2094  136.4016  161.0348 N   0  0  0  0  0  0  0  0  0  0  0  0
  129.4491  135.8433  160.8087 H   0  0  0  0  0  0  0  0  0  0  0  0
  130.3345  137.7219  160.4152 C   0  0  0  0  0  0  0  0  0  0  0  0
  131.8204  138.0874  160.3191 C   0  0  0  0  0  0  0  0  0  0  0  0
  132.4361  137.9724  161.7184 C   0  0  0  0  0  0  0  0  0  0  0  0
  132.1626  136.6369  162.2519 N   0  0  0  0  0  0  0  0  0  0  0  0
  128.4339  134.6513  162.1570 C   0  0  0  0  0  0  0  0  0  0  0  0
  127.2313  134.2191  161.7174 C   0  0  0  0  0  0  0  0  0  0  0  0
  126.2732  135.1739  162.1392 C   0  0  0  0  0  0  0  0  0  0  0  0
  126.9468  136.1330  162.8113 C   0  0  0  0  0  0  0  0  0  0  0  0
  126.3827  137.2682  163.3997 N   0  0  0  0  0  0  0  0  0  0  0  0
  127.1891  138.1776  164.0625 C   0  0  0  0  0  0  0  0  0  0  0  0
  126.7787  139.2750  164.6516 N   0  0  0  0  0  0  0  0  0  0  0  0
  127.8451  139.9145  165.1929 C   0  0  0  0  0  0  0  0  0  0  0  0
  127.8068  141.1922  165.9459 C   0  0  0  0  0  0  0  0  0  0  0  0
  128.7432  141.4400  166.9484 C   0  0  0  0  0  0  0  0  0  0  0  0
  128.7087  142.6302  167.6436 C   0  0  0  0  0  0  0  0  0  0  0  0
  127.7354  143.5779  167.3532 C   0  0  0  0  0  0  0  0  0  0  0  0
  127.6993  144.7810  168.0623 N   0  0  0  0  0  0  0  0  0  0  0  0
  126.7966  143.3307  166.3576 C   0  0  0  0  0  0  0  0  0  0  0  0
  126.8307  142.1441  165.6561 C   0  0  0  0  0  0  0  0  0  0  0  0
  128.9522  139.1768  164.9290 C   0  0  0  0  0  0  0  0  0  0  0  0
  128.5390  138.0808  164.2097 N   0  0  0  0  0  0  0  0  0  0  0  0
  129.1040  137.3680  163.8730 H   0  0  0  0  0  0  0  0  0  0  0  0
  128.2547  135.8127  162.8135 O   0  0  0  0  0  0  0  0  0  0  0  0
  127.1776  131.8711  158.9921 H   0  0  0  0  0  0  0  0  0  0  0  0
  128.0904  130.7967  157.9055 H   0  0  0  0  0  0  0  0  0  0  0  0
  128.3660  130.7282  159.6627 H   0  0  0  0  0  0  0  0  0  0  0  0
  131.4816  134.5257  159.7822 H   0  0  0  0  0  0  0  0  0  0  0  0
  130.5334  132.1367  161.5870 H   0  0  0  0  0  0  0  0  0  0  0  0
  128.7694  132.2022  161.3574 H   0  0  0  0  0  0  0  0  0  0  0  0
  130.8093  134.6773  163.5774 H   0  0  0  0  0  0  0  0  0  0  0  0
  131.7335  133.9487  162.2422 H   0  0  0  0  0  0  0  0  0  0  0  0
  129.8148  138.4640  161.0211 H   0  0  0  0  0  0  0  0  0  0  0  0
  129.8996  137.6976  159.4160 H   0  0  0  0  0  0  0  0  0  0  0  0
  131.9244  139.1095  159.9548 H   0  0  0  0  0  0  0  0  0  0  0  0
  132.3242  137.4012  159.6385 H   0  0  0  0  0  0  0  0  0  0  0  0
  131.9956  138.7240  162.3735 H   0  0  0  0  0  0  0  0  0  0  0  0
  133.5133  138.1268  161.6566 H   0  0  0  0  0  0  0  0  0  0  0  0
  132.7834  136.2450  162.8859 H   0  0  0  0  0  0  0  0  0  0  0  0
  127.0378  133.3190  161.1526 H   0  0  0  0  0  0  0  0  0  0  0  0
  125.2090  135.1416  161.9577 H   0  0  0  0  0  0  0  0  0  0  0  0
  125.4261  137.4190  163.3434 H   0  0  0  0  0  0  0  0  0  0  0  0
  129.4977  140.7019  167.1776 H   0  0  0  0  0  0  0  0  0  0  0  0
  129.4363  142.8242  168.4178 H   0  0  0  0  0  0  0  0  0  0  0  0
  127.0191  145.4431  167.8596 H   0  0  0  0  0  0  0  0  0  0  0  0
  128.3526  144.9544  168.7569 H   0  0  0  0  0  0  0  0  0  0  0  0
  126.0403  144.0685  166.1336 H   0  0  0  0  0  0  0  0  0  0  0  0
  126.1019  141.9526  164.8824 H   0  0  0  0  0  0  0  0  0  0  0  0
  129.9648  139.4074  165.2255 H   0  0  0  0  0  0  0  0  0  0  0  0
  1  2  1  0
  1 37  1  0
  1 38  1  0
  1 39  1  0
  2  7  1  0
  2  3  2  0
  3  4  1  0
  4  5  1  0
  4  6  1  0
  6  7  2  0
  6 40  1  0
  7  8  1  0
  8  9  1  0
  8 41  1  0
  8 42  1  0
  9 10  1  0
  9 18  1  0
 10 11  1  0
 10 43  1  0
 10 44  1  0
 11 17  2  0
 11 12  1  0
 12 13  1  0
 12 14  1  0
 14 15  1  0
 14 45  1  0
 14 46  1  0
 15 16  1  0
 15 47  1  0
 15 48  1  0
 16 17  1  0
 16 49  1  0
 16 50  1  0
 17 51  1  0
 18 36  1  0
 18 19  2  0
 19 20  1  0
 19 52  1  0
 20 21  2  0
 20 53  1  0
 21 22  1  0
 21 36  1  0
 22 23  1  0
 22 54  1  0
 23 34  1  0
 23 24  2  0
 24 25  1  0
 25 26  1  0
 25 33  2  0
 26 32  1  0
 26 27  2  0
 27 28  1  0
 27 55  1  0
 28 29  2  0
 28 56  1  0
 29 30  1  0
 29 31  1  0
 30 57  1  0
 30 58  1  0
 31 32  2  0
 31 59  1  0
 32 60  1  0
 33 34  1  0
 33 61  1  0
 34 35  1  0
M  CHG  1  17   1
M  END
>  <DOCK_score>  (1) 
-41.159504

>  <SMILES>  (1) 
Cc1n[nH]cc1CN(CC1=[NH+]CCCN1)c1ccc(Nc2nc(-c3ccc(N)cc3)c[nH]2)o1

$$$$
