Clc1ccccc1[C@H](c1ccccc1)[NH+]1CCN(c2cccc(Cl)c2CC2=CCCC2)CC1
     RDKit          3D

 64 68  0  0  1  0  0  0  0  0999 V2000
  130.7762  132.4212  162.0162 Cl  0  0  0  0  0  0  0  0  0  0  0  0
  131.0806  132.3228  160.3099 C   0  0  0  0  0  0  0  0  0  0  0  0
  131.5771  131.1533  159.7618 C   0  0  0  0  0  0  0  0  0  0  0  0
  131.8187  131.0753  158.4034 C   0  0  0  0  0  0  0  0  0  0  0  0
  131.5652  132.1657  157.5922 C   0  0  0  0  0  0  0  0  0  0  0  0
  131.0640  133.3324  158.1381 C   0  0  0  0  0  0  0  0  0  0  0  0
  130.8268  133.4133  159.4976 C   0  0  0  0  0  0  0  0  0  0  0  0
  130.2856  134.6873  160.0937 C   0  0  2  0  0  0  0  0  0  0  0  0
  130.1598  134.5605  161.1690 H   0  0  0  0  0  0  0  0  0  0  0  0
  128.9536  135.0092  159.4666 C   0  0  0  0  0  0  0  0  0  0  0  0
  127.7892  134.5184  160.0271 C   0  0  0  0  0  0  0  0  0  0  0  0
  126.5670  134.8173  159.4546 C   0  0  0  0  0  0  0  0  0  0  0  0
  126.5099  135.5990  158.3160 C   0  0  0  0  0  0  0  0  0  0  0  0
  127.6746  136.0858  157.7527 C   0  0  0  0  0  0  0  0  0  0  0  0
  128.8966  135.7906  158.3278 C   0  0  0  0  0  0  0  0  0  0  0  0
  131.2261  135.7861  159.8369 N   0  0  0  0  0  0  0  0  0  0  0  0
  131.3424  135.9033  158.8415 H   0  0  0  0  0  0  0  0  0  0  0  0
  130.6981  137.0278  160.4173 C   0  0  0  0  0  0  0  0  0  0  0  0
  131.6683  138.1767  160.1338 C   0  0  0  0  0  0  0  0  0  0  0  0
  132.9799  137.8617  160.7175 N   0  0  0  0  0  0  0  0  0  0  0  0
  133.8789  138.9132  160.5251 C   0  0  0  0  0  0  0  0  0  0  0  0
  134.2015  139.3267  159.2384 C   0  0  0  0  0  0  0  0  0  0  0  0
  135.0910  140.3663  159.0511 C   0  0  0  0  0  0  0  0  0  0  0  0
  135.6609  140.9962  160.1422 C   0  0  0  0  0  0  0  0  0  0  0  0
  135.3422  140.5873  161.4253 C   0  0  0  0  0  0  0  0  0  0  0  0
  136.0603  141.3808  162.7921 Cl  0  0  0  0  0  0  0  0  0  0  0  0
  134.4525  139.5471  161.6194 C   0  0  0  0  0  0  0  0  0  0  0  0
  134.1052  139.1023  163.0168 C   0  0  0  0  0  0  0  0  0  0  0  0
  135.0661  138.0273  163.4551 C   0  0  0  0  0  0  0  0  0  0  0  0
  134.7150  136.8170  163.7951 C   0  0  0  0  0  0  0  0  0  0  0  0
  135.9188  135.9896  164.1815 C   0  0  0  0  0  0  0  0  0  0  0  0
  137.0438  137.0222  164.4249 C   0  0  0  0  0  0  0  0  0  0  0  0
  136.5632  138.2071  163.5522 C   0  0  0  0  0  0  0  0  0  0  0  0
  133.5100  136.6076  160.1641 C   0  0  0  0  0  0  0  0  0  0  0  0
  132.5245  135.4717  160.4473 C   0  0  0  0  0  0  0  0  0  0  0  0
  131.7752  130.3014  160.3953 H   0  0  0  0  0  0  0  0  0  0  0  0
  132.2062  130.1625  157.9755 H   0  0  0  0  0  0  0  0  0  0  0  0
  131.7549  132.1047  156.5307 H   0  0  0  0  0  0  0  0  0  0  0  0
  130.8616  134.1824  157.5033 H   0  0  0  0  0  0  0  0  0  0  0  0
  127.8340  133.9042  160.9145 H   0  0  0  0  0  0  0  0  0  0  0  0
  125.6571  134.4372  159.8949 H   0  0  0  0  0  0  0  0  0  0  0  0
  125.5553  135.8297  157.8667 H   0  0  0  0  0  0  0  0  0  0  0  0
  127.6301  136.6966  156.8631 H   0  0  0  0  0  0  0  0  0  0  0  0
  129.8065  136.1706  157.8875 H   0  0  0  0  0  0  0  0  0  0  0  0
  130.5844  136.9058  161.4946 H   0  0  0  0  0  0  0  0  0  0  0  0
  129.7285  137.2531  159.9730 H   0  0  0  0  0  0  0  0  0  0  0  0
  131.2840  139.0952  160.5773 H   0  0  0  0  0  0  0  0  0  0  0  0
  131.7717  138.3083  159.0567 H   0  0  0  0  0  0  0  0  0  0  0  0
  133.7572  138.8353  158.3856 H   0  0  0  0  0  0  0  0  0  0  0  0
  135.3451  140.6848  158.0510 H   0  0  0  0  0  0  0  0  0  0  0  0
  136.3563  141.8089  159.9928 H   0  0  0  0  0  0  0  0  0  0  0  0
  134.1755  139.9516  163.6964 H   0  0  0  0  0  0  0  0  0  0  0  0
  133.0888  138.7089  163.0308 H   0  0  0  0  0  0  0  0  0  0  0  0
  133.6977  136.4545  163.7995 H   0  0  0  0  0  0  0  0  0  0  0  0
  135.7162  135.4270  165.0929 H   0  0  0  0  0  0  0  0  0  0  0  0
  136.1919  135.3146  163.3705 H   0  0  0  0  0  0  0  0  0  0  0  0
  137.0969  137.3025  165.4770 H   0  0  0  0  0  0  0  0  0  0  0  0
  138.0041  136.6449  164.0734 H   0  0  0  0  0  0  0  0  0  0  0  0
  137.0163  138.1608  162.5619 H   0  0  0  0  0  0  0  0  0  0  0  0
  136.8013  139.1544  164.0358 H   0  0  0  0  0  0  0  0  0  0  0  0
  133.6437  136.7130  159.0874 H   0  0  0  0  0  0  0  0  0  0  0  0
  134.4693  136.3814  160.6296 H   0  0  0  0  0  0  0  0  0  0  0  0
  132.4016  135.3576  161.5244 H   0  0  0  0  0  0  0  0  0  0  0  0
  132.9091  134.5433  160.0252 H   0  0  0  0  0  0  0  0  0  0  0  0
  1  2  1  0
  2  7  2  0
  2  3  1  0
  3  4  2  0
  3 36  1  0
  4  5  1  0
  4 37  1  0
  5  6  2  0
  5 38  1  0
  6  7  1  0
  6 39  1  0
  7  8  1  0
  8  9  1  1
  8 10  1  0
  8 16  1  0
 10 15  1  0
 10 11  2  0
 11 12  1  0
 11 40  1  0
 12 13  2  0
 12 41  1  0
 13 14  1  0
 13 42  1  0
 14 15  2  0
 14 43  1  0
 15 44  1  0
 16 17  1  0
 16 35  1  0
 16 18  1  0
 18 19  1  0
 18 45  1  0
 18 46  1  0
 19 20  1  0
 19 47  1  0
 19 48  1  0
 20 21  1  0
 20 34  1  0
 21 27  1  0
 21 22  2  0
 22 23  1  0
 22 49  1  0
 23 24  2  0
 23 50  1  0
 24 25  1  0
 24 51  1  0
 25 26  1  0
 25 27  2  0
 27 28  1  0
 28 29  1  0
 28 52  1  0
 28 53  1  0
 29 33  1  0
 29 30  2  0
 30 31  1  0
 30 54  1  0
 31 32  1  0
 31 55  1  0
 31 56  1  0
 32 33  1  0
 32 57  1  0
 32 58  1  0
 33 59  1  0
 33 60  1  0
 34 35  1  0
 34 61  1  0
 34 62  1  0
 35 63  1  0
 35 64  1  0
M  CHG  1  16   1
M  END
>  <DOCK_score>  (1) 
-60.928211

>  <SMILES>  (1) 
Clc1ccccc1[C@H](c1ccccc1)[NH+]1CCN(c2cccc(Cl)c2CC2=CCCC2)CC1

$$$$
