C1=C([C@H]2COc3ccccc3C2)C[NH+](Cc2ccc(-c3ccccc3)[nH]2)CC1
     RDKit          3D

 55 59  0  0  1  0  0  0  0  0999 V2000
  133.6244  135.4343  161.8341 C   0  0  0  0  0  0  0  0  0  0  0  0
  133.0172  136.4412  161.2818 C   0  0  0  0  0  0  0  0  0  0  0  0
  133.6066  137.8172  161.4558 C   0  0  1  0  0  0  0  0  0  0  0  0
  132.8866  138.4652  161.9557 H   0  0  0  0  0  0  0  0  0  0  0  0
  134.8898  137.7282  162.2917 C   0  0  0  0  0  0  0  0  0  0  0  0
  135.3681  139.0531  162.5270 O   0  0  0  0  0  0  0  0  0  0  0  0
  135.4688  139.8906  161.4620 C   0  0  0  0  0  0  0  0  0  0  0  0
  136.2525  141.0334  161.5876 C   0  0  0  0  0  0  0  0  0  0  0  0
  136.3756  141.9106  160.5298 C   0  0  0  0  0  0  0  0  0  0  0  0
  135.7185  141.6546  159.3403 C   0  0  0  0  0  0  0  0  0  0  0  0
  134.9412  140.5205  159.2114 C   0  0  0  0  0  0  0  0  0  0  0  0
  134.8154  139.6352  160.2693 C   0  0  0  0  0  0  0  0  0  0  0  0
  133.9651  138.4036  160.0873 C   0  0  0  0  0  0  0  0  0  0  0  0
  131.7535  136.3012  160.4834 C   0  0  0  0  0  0  0  0  0  0  0  0
  131.5715  134.9074  160.0554 N   0  0  2  0  0  0  0  0  0  0  0  0
  132.2884  134.6584  159.3905 H   0  0  0  0  0  0  0  0  0  0  0  0
  130.2493  134.7512  159.4347 C   0  0  0  0  0  0  0  0  0  0  0  0
  130.2403  133.5123  158.5769 C   0  0  0  0  0  0  0  0  0  0  0  0
  129.9079  132.2697  158.9885 C   0  0  0  0  0  0  0  0  0  0  0  0
  130.0269  131.4086  157.8855 C   0  0  0  0  0  0  0  0  0  0  0  0
  130.4415  132.1596  156.8271 C   0  0  0  0  0  0  0  0  0  0  0  0
  130.7034  131.6652  155.4585 C   0  0  0  0  0  0  0  0  0  0  0  0
  130.5061  132.5037  154.3605 C   0  0  0  0  0  0  0  0  0  0  0  0
  130.7570  132.0377  153.0864 C   0  0  0  0  0  0  0  0  0  0  0  0
  131.1939  130.7393  152.8951 C   0  0  0  0  0  0  0  0  0  0  0  0
  131.3865  129.9008  153.9791 C   0  0  0  0  0  0  0  0  0  0  0  0
  131.1439  130.3560  155.2586 C   0  0  0  0  0  0  0  0  0  0  0  0
  130.5722  133.4556  157.2559 N   0  0  0  0  0  0  0  0  0  0  0  0
  130.8535  134.2067  156.7103 H   0  0  0  0  0  0  0  0  0  0  0  0
  131.6684  134.0330  161.2352 C   0  0  0  0  0  0  0  0  0  0  0  0
  133.1221  134.0220  161.7153 C   0  0  0  0  0  0  0  0  0  0  0  0
  134.5249  135.6189  162.4011 H   0  0  0  0  0  0  0  0  0  0  0  0
  135.6428  137.1570  161.7486 H   0  0  0  0  0  0  0  0  0  0  0  0
  134.6751  137.2411  163.2429 H   0  0  0  0  0  0  0  0  0  0  0  0
  136.7657  141.2347  162.5164 H   0  0  0  0  0  0  0  0  0  0  0  0
  136.9851  142.7965  160.6307 H   0  0  0  0  0  0  0  0  0  0  0  0
  135.8128  142.3418  158.5124 H   0  0  0  0  0  0  0  0  0  0  0  0
  134.4293  140.3224  158.2813 H   0  0  0  0  0  0  0  0  0  0  0  0
  133.0513  138.6689  159.5557 H   0  0  0  0  0  0  0  0  0  0  0  0
  134.5182  137.6631  159.5094 H   0  0  0  0  0  0  0  0  0  0  0  0
  130.9049  136.6078  161.0952 H   0  0  0  0  0  0  0  0  0  0  0  0
  131.8101  136.9420  159.6036 H   0  0  0  0  0  0  0  0  0  0  0  0
  129.4913  134.6601  160.2126 H   0  0  0  0  0  0  0  0  0  0  0  0
  130.0328  135.6227  158.8168 H   0  0  0  0  0  0  0  0  0  0  0  0
  129.6034  131.9891  159.9859 H   0  0  0  0  0  0  0  0  0  0  0  0
  129.8305  130.3467  157.8786 H   0  0  0  0  0  0  0  0  0  0  0  0
  130.1608  133.5164  154.5081 H   0  0  0  0  0  0  0  0  0  0  0  0
  130.6082  132.6868  152.2363 H   0  0  0  0  0  0  0  0  0  0  0  0
  131.3849  130.3782  151.8953 H   0  0  0  0  0  0  0  0  0  0  0  0
  131.7274  128.8880  153.8231 H   0  0  0  0  0  0  0  0  0  0  0  0
  131.2939  129.7006  156.1038 H   0  0  0  0  0  0  0  0  0  0  0  0
  131.3638  133.0213  160.9669 H   0  0  0  0  0  0  0  0  0  0  0  0
  131.0237  134.4111  162.0286 H   0  0  0  0  0  0  0  0  0  0  0  0
  133.7369  133.4771  160.9988 H   0  0  0  0  0  0  0  0  0  0  0  0
  133.1795  133.5333  162.6878 H   0  0  0  0  0  0  0  0  0  0  0  0
  1 31  1  0
  1  2  2  0
  1 32  1  0
  2  3  1  0
  2 14  1  0
  3  4  1  1
  3 13  1  0
  3  5  1  0
  5  6  1  0
  5 33  1  0
  5 34  1  0
  6  7  1  0
  7 12  2  0
  7  8  1  0
  8  9  2  0
  8 35  1  0
  9 10  1  0
  9 36  1  0
 10 11  2  0
 10 37  1  0
 11 12  1  0
 11 38  1  0
 12 13  1  0
 13 39  1  0
 13 40  1  0
 14 15  1  0
 14 41  1  0
 14 42  1  0
 15 16  1  6
 15 17  1  0
 15 30  1  0
 17 18  1  0
 17 43  1  0
 17 44  1  0
 18 28  1  0
 18 19  2  0
 19 20  1  0
 19 45  1  0
 20 21  2  0
 20 46  1  0
 21 22  1  0
 21 28  1  0
 22 27  1  0
 22 23  2  0
 23 24  1  0
 23 47  1  0
 24 25  2  0
 24 48  1  0
 25 26  1  0
 25 49  1  0
 26 27  2  0
 26 50  1  0
 27 51  1  0
 28 29  1  0
 30 31  1  0
 30 52  1  0
 30 53  1  0
 31 54  1  0
 31 55  1  0
M  CHG  1  15   1
M  END
>  <DOCK_score>  (1) 
-56.426403

>  <SMILES>  (1) 
C1=C([C@H]2COc3ccccc3C2)C[NH+](Cc2ccc(-c3ccccc3)[nH]2)CC1

$$$$
