CC(C[NH2+][C@H]1C=C(Cl)CC1)(NCc1cccc2c1NC(=O)CO2)c1ccccc1
     RDKit          3D

 56 59  0  0  1  0  0  0  0  0999 V2000
  128.5186  136.3665  160.0297 C   0  0  0  0  0  0  0  0  0  0  0  0
  129.6785  135.4038  160.2924 C   0  0  2  0  0  0  0  0  0  0  0  0
  130.8162  136.1538  160.9882 C   0  0  0  0  0  0  0  0  0  0  0  0
  131.5859  136.9099  159.9913 N   0  0  0  0  0  0  0  0  0  0  0  0
  130.9797  137.5715  159.5295 H   0  0  0  0  0  0  0  0  0  0  0  0
  131.9704  136.2733  159.3095 H   0  0  0  0  0  0  0  0  0  0  0  0
  132.6781  137.6302  160.6593 C   0  0  1  0  0  0  0  0  0  0  0  0
  133.1266  137.0079  161.4337 H   0  0  0  0  0  0  0  0  0  0  0  0
  133.7229  138.0526  159.6527 C   0  0  0  0  0  0  0  0  0  0  0  0
  133.6114  139.3224  159.3644 C   0  0  0  0  0  0  0  0  0  0  0  0
  134.6351  140.1698  158.2474 Cl  0  0  0  0  0  0  0  0  0  0  0  0
  132.4738  139.9567  160.1319 C   0  0  0  0  0  0  0  0  0  0  0  0
  132.1586  138.9541  161.2660 C   0  0  0  0  0  0  0  0  0  0  0  0
  130.1602  134.8578  159.0165 N   0  0  0  0  0  0  0  0  0  0  0  0
  129.0922  134.1292  158.3190 C   0  0  0  0  0  0  0  0  0  0  0  0
  129.7009  133.1929  157.3071 C   0  0  0  0  0  0  0  0  0  0  0  0
  129.9275  133.6233  156.0122 C   0  0  0  0  0  0  0  0  0  0  0  0
  130.4910  132.7680  155.0838 C   0  0  0  0  0  0  0  0  0  0  0  0
  130.8219  131.4726  155.4398 C   0  0  0  0  0  0  0  0  0  0  0  0
  130.5934  131.0333  156.7317 C   0  0  0  0  0  0  0  0  0  0  0  0
  130.0295  131.8975  157.6695 C   0  0  0  0  0  0  0  0  0  0  0  0
  129.8011  131.4387  158.9746 N   0  0  0  0  0  0  0  0  0  0  0  0
  130.4073  130.3032  159.3845 C   0  0  0  0  0  0  0  0  0  0  0  0
  130.2006  129.8707  160.4987 O   0  0  0  0  0  0  0  0  0  0  0  0
  131.3418  129.5759  158.4516 C   0  0  0  0  0  0  0  0  0  0  0  0
  130.9147  129.7644  157.1000 O   0  0  0  0  0  0  0  0  0  0  0  0
  129.2061  134.2771  161.1747 C   0  0  0  0  0  0  0  0  0  0  0  0
  127.8943  134.2429  161.6091 C   0  0  0  0  0  0  0  0  0  0  0  0
  127.4599  133.2071  162.4149 C   0  0  0  0  0  0  0  0  0  0  0  0
  128.3395  132.2104  162.7937 C   0  0  0  0  0  0  0  0  0  0  0  0
  129.6528  132.2474  162.3636 C   0  0  0  0  0  0  0  0  0  0  0  0
  130.0862  133.2809  161.5543 C   0  0  0  0  0  0  0  0  0  0  0  0
  128.8603  137.1815  159.3915 H   0  0  0  0  0  0  0  0  0  0  0  0
  127.7082  135.8322  159.5340 H   0  0  0  0  0  0  0  0  0  0  0  0
  128.1613  136.7717  160.9763 H   0  0  0  0  0  0  0  0  0  0  0  0
  131.4709  135.4392  161.4868 H   0  0  0  0  0  0  0  0  0  0  0  0
  130.4010  136.8416  161.7247 H   0  0  0  0  0  0  0  0  0  0  0  0
  134.4644  137.3924  159.2278 H   0  0  0  0  0  0  0  0  0  0  0  0
  131.6051  140.0850  159.4860 H   0  0  0  0  0  0  0  0  0  0  0  0
  132.7836  140.9155  160.5479 H   0  0  0  0  0  0  0  0  0  0  0  0
  131.0864  138.9031  161.4562 H   0  0  0  0  0  0  0  0  0  0  0  0
  132.7032  139.2081  162.1754 H   0  0  0  0  0  0  0  0  0  0  0  0
  130.5420  135.5866  158.4324 H   0  0  0  0  0  0  0  0  0  0  0  0
  128.5117  133.5557  159.0416 H   0  0  0  0  0  0  0  0  0  0  0  0
  128.4401  134.8394  157.8107 H   0  0  0  0  0  0  0  0  0  0  0  0
  129.6675  134.6319  155.7268 H   0  0  0  0  0  0  0  0  0  0  0  0
  130.6696  133.1109  154.0754 H   0  0  0  0  0  0  0  0  0  0  0  0
  131.2581  130.8058  154.7108 H   0  0  0  0  0  0  0  0  0  0  0  0
  129.2172  131.9293  159.5739 H   0  0  0  0  0  0  0  0  0  0  0  0
  131.3361  128.5120  158.6890 H   0  0  0  0  0  0  0  0  0  0  0  0
  132.3515  129.9688  158.5712 H   0  0  0  0  0  0  0  0  0  0  0  0
  127.2079  135.0236  161.3162 H   0  0  0  0  0  0  0  0  0  0  0  0
  126.4338  133.1779  162.7506 H   0  0  0  0  0  0  0  0  0  0  0  0
  128.0008  131.4025  163.4254 H   0  0  0  0  0  0  0  0  0  0  0  0
  130.3402  131.4688  162.6595 H   0  0  0  0  0  0  0  0  0  0  0  0
  131.1121  133.3099  161.2183 H   0  0  0  0  0  0  0  0  0  0  0  0
  1 33  1  0
  1 34  1  0
  1 35  1  0
  2  1  1  0
  2  3  1  0
  2 14  1  6
  2 27  1  0
  3  4  1  0
  3 36  1  0
  3 37  1  0
  4  5  1  0
  4  6  1  0
  4  7  1  0
  7  8  1  1
  7 13  1  0
  7  9  1  0
  9 10  2  0
  9 38  1  0
 10 11  1  0
 10 12  1  0
 12 13  1  0
 12 39  1  0
 12 40  1  0
 13 41  1  0
 13 42  1  0
 14 15  1  0
 14 43  1  0
 15 16  1  0
 15 44  1  0
 15 45  1  0
 16 21  1  0
 16 17  2  0
 17 18  1  0
 17 46  1  0
 18 19  2  0
 18 47  1  0
 19 20  1  0
 19 48  1  0
 20 26  1  0
 20 21  2  0
 21 22  1  0
 22 23  1  0
 22 49  1  0
 23 24  2  0
 23 25  1  0
 25 26  1  0
 25 50  1  0
 25 51  1  0
 27 32  1  0
 27 28  2  0
 28 29  1  0
 28 52  1  0
 29 30  2  0
 29 53  1  0
 30 31  1  0
 30 54  1  0
 31 32  2  0
 31 55  1  0
 32 56  1  0
M  CHG  1   4   1
M  END
>  <DOCK_score>  (1) 
-56.62326

>  <SMILES>  (1) 
CC(C[NH2+][C@H]1C=C(Cl)CC1)(NCc1cccc2c1NC(=O)CO2)c1ccccc1

$$$$
