O=C1CCC(NC(N[C@H]2C=CCC2)=[NH+]Cc2ncc(C3=CCC=CC3)c(=O)[nH]2)CN1
     RDKit          3D

 59 62  0  0  1  0  0  0  0  0999 V2000
  123.9625  132.7522  161.1956 O   0  0  0  0  0  0  0  0  0  0  0  0
  125.1121  133.0574  160.9590 C   0  0  0  0  0  0  0  0  0  0  0  0
  126.0633  131.9735  160.5396 C   0  0  0  0  0  0  0  0  0  0  0  0
  127.5069  132.4518  160.7129 C   0  0  0  0  0  0  0  0  0  0  0  0
  127.6399  133.8360  160.0667 C   0  0  2  0  0  0  0  0  0  0  0  0
  129.0470  134.2436  160.0630 N   0  0  0  0  0  0  0  0  0  0  0  0
  129.8526  133.9236  158.9959 C   0  0  0  0  0  0  0  0  0  0  0  0
  129.3377  133.2209  157.9322 N   0  0  0  0  0  0  0  0  0  0  0  0
  130.1962  132.8798  156.7951 C   0  0  1  0  0  0  0  0  0  0  0  0
  130.5908  133.7849  156.3334 H   0  0  0  0  0  0  0  0  0  0  0  0
  131.3258  131.9802  157.2397 C   0  0  0  0  0  0  0  0  0  0  0  0
  131.4892  130.9868  156.4056 C   0  0  0  0  0  0  0  0  0  0  0  0
  130.4989  131.0629  155.2669 C   0  0  0  0  0  0  0  0  0  0  0  0
  129.4099  132.0447  155.7580 C   0  0  0  0  0  0  0  0  0  0  0  0
  131.1046  134.2863  158.9926 N   0  0  0  0  0  0  0  0  0  0  0  0
  131.5543  134.4696  158.1528 H   0  0  0  0  0  0  0  0  0  0  0  0
  131.8326  134.4170  160.2571 C   0  0  0  0  0  0  0  0  0  0  0  0
  131.6878  135.8241  160.7769 C   0  0  0  0  0  0  0  0  0  0  0  0
  130.6904  136.1062  161.5725 N   0  0  0  0  0  0  0  0  0  0  0  0
  130.5083  137.3339  162.0583 C   0  0  0  0  0  0  0  0  0  0  0  0
  131.3979  138.3426  161.7210 C   0  0  0  0  0  0  0  0  0  0  0  0
  131.2240  139.7117  162.2425 C   0  0  0  0  0  0  0  0  0  0  0  0
  131.2346  139.8979  163.5460 C   0  0  0  0  0  0  0  0  0  0  0  0
  131.0713  141.2511  164.1702 C   0  0  0  0  0  0  0  0  0  0  0  0
  130.4362  142.2147  163.2138 C   0  0  0  0  0  0  0  0  0  0  0  0
  130.4205  142.0305  161.9295 C   0  0  0  0  0  0  0  0  0  0  0  0
  131.0363  140.8351  161.2674 C   0  0  0  0  0  0  0  0  0  0  0  0
  132.4830  138.0213  160.8589 C   0  0  0  0  0  0  0  0  0  0  0  0
  133.2933  138.8713  160.5322 O   0  0  0  0  0  0  0  0  0  0  0  0
  132.5937  136.7521  160.4117 N   0  0  0  0  0  0  0  0  0  0  0  0
  133.3251  136.5088  159.8228 H   0  0  0  0  0  0  0  0  0  0  0  0
  126.8179  134.8369  160.8796 C   0  0  0  0  0  0  0  0  0  0  0  0
  125.4642  134.3374  161.0855 N   0  0  0  0  0  0  0  0  0  0  0  0
  125.8881  131.7229  159.4934 H   0  0  0  0  0  0  0  0  0  0  0  0
  125.8980  131.0900  161.1563 H   0  0  0  0  0  0  0  0  0  0  0  0
  128.1863  131.7524  160.2254 H   0  0  0  0  0  0  0  0  0  0  0  0
  127.7474  132.5176  161.7741 H   0  0  0  0  0  0  0  0  0  0  0  0
  127.2672  133.7990  159.0430 H   0  0  0  0  0  0  0  0  0  0  0  0
  129.4104  134.7394  160.8133 H   0  0  0  0  0  0  0  0  0  0  0  0
  128.4061  132.9510  157.9346 H   0  0  0  0  0  0  0  0  0  0  0  0
  131.9180  132.1372  158.1291 H   0  0  0  0  0  0  0  0  0  0  0  0
  132.2360  130.2143  156.5153 H   0  0  0  0  0  0  0  0  0  0  0  0
  130.0661  130.0813  155.0739 H   0  0  0  0  0  0  0  0  0  0  0  0
  130.9816  131.4492  154.3692 H   0  0  0  0  0  0  0  0  0  0  0  0
  128.5854  131.5104  156.2299 H   0  0  0  0  0  0  0  0  0  0  0  0
  129.0508  132.6718  154.9420 H   0  0  0  0  0  0  0  0  0  0  0  0
  132.8877  134.1969  160.0934 H   0  0  0  0  0  0  0  0  0  0  0  0
  131.4242  133.7167  160.9856 H   0  0  0  0  0  0  0  0  0  0  0  0
  129.6729  137.5419  162.7102 H   0  0  0  0  0  0  0  0  0  0  0  0
  131.3698  139.0422  164.1910 H   0  0  0  0  0  0  0  0  0  0  0  0
  132.0489  141.6325  164.4651 H   0  0  0  0  0  0  0  0  0  0  0  0
  130.4418  141.1593  165.0553 H   0  0  0  0  0  0  0  0  0  0  0  0
  129.9697  143.1035  163.6121 H   0  0  0  0  0  0  0  0  0  0  0  0
  129.9419  142.7733  161.3087 H   0  0  0  0  0  0  0  0  0  0  0  0
  132.0052  141.1152  160.8542 H   0  0  0  0  0  0  0  0  0  0  0  0
  130.3871  140.5010  160.4582 H   0  0  0  0  0  0  0  0  0  0  0  0
  127.2951  134.9935  161.8470 H   0  0  0  0  0  0  0  0  0  0  0  0
  126.7744  135.7859  160.3451 H   0  0  0  0  0  0  0  0  0  0  0  0
  124.7761  134.9761  161.3297 H   0  0  0  0  0  0  0  0  0  0  0  0
  1  2  2  0
  2 33  1  0
  2  3  1  0
  3  4  1  0
  3 34  1  0
  3 35  1  0
  4  5  1  0
  4 36  1  0
  4 37  1  0
  5  6  1  0
  5 32  1  0
  5 38  1  6
  6 39  1  0
  7  6  1  0
  7  8  1  0
  7 15  2  0
  8  9  1  0
  8 40  1  0
  9 10  1  6
  9 14  1  0
  9 11  1  0
 11 12  2  0
 11 41  1  0
 12 13  1  0
 12 42  1  0
 13 14  1  0
 13 43  1  0
 13 44  1  0
 14 45  1  0
 14 46  1  0
 15 16  1  0
 15 17  1  0
 17 18  1  0
 17 47  1  0
 17 48  1  0
 18 30  1  0
 18 19  2  0
 19 20  1  0
 20 21  2  0
 20 49  1  0
 21 22  1  0
 21 28  1  0
 22 27  1  0
 22 23  2  0
 23 24  1  0
 23 50  1  0
 24 25  1  0
 24 51  1  0
 24 52  1  0
 25 26  2  0
 25 53  1  0
 26 27  1  0
 26 54  1  0
 27 55  1  0
 27 56  1  0
 28 29  2  0
 28 30  1  0
 30 31  1  0
 32 33  1  0
 32 57  1  0
 32 58  1  0
 33 59  1  0
M  CHG  1  15   1
M  END
>  <DOCK_score>  (1) 
-46.206169

>  <SMILES>  (1) 
O=C1CCC(NC(N[C@H]2C=CCC2)=[NH+]Cc2ncc(C3=CCC=CC3)c(=O)[nH]2)CN1

$$$$
