CCc1cccc(C)c1C[NH+]=C(NCc1ccccc1)N[C@H]1C[C@@H](O)C1
     RDKit          3D

 56 58  0  0  1  0  0  0  0  0999 V2000
  128.9943  139.5723  161.7537 C   0  0  0  0  0  0  0  0  0  0  0  0
  129.7456  139.1442  160.4915 C   0  0  0  0  0  0  0  0  0  0  0  0
  131.1416  138.7124  160.8599 C   0  0  0  0  0  0  0  0  0  0  0  0
  132.1690  139.6376  160.8790 C   0  0  0  0  0  0  0  0  0  0  0  0
  133.4493  139.2417  161.2169 C   0  0  0  0  0  0  0  0  0  0  0  0
  133.7027  137.9207  161.5364 C   0  0  0  0  0  0  0  0  0  0  0  0
  132.6758  136.9957  161.5173 C   0  0  0  0  0  0  0  0  0  0  0  0
  132.9521  135.5557  161.8645 C   0  0  0  0  0  0  0  0  0  0  0  0
  131.3949  137.3919  161.1794 C   0  0  0  0  0  0  0  0  0  0  0  0
  130.2754  136.3833  161.1580 C   0  0  0  0  0  0  0  0  0  0  0  0
  130.1809  135.7868  159.8233 N   0  0  0  0  0  0  0  0  0  0  0  0
  130.7923  136.0647  159.1235 H   0  0  0  0  0  0  0  0  0  0  0  0
  129.2751  134.8827  159.5762 C   0  0  0  0  0  0  0  0  0  0  0  0
  129.1864  134.3230  158.3236 N   0  0  0  0  0  0  0  0  0  0  0  0
  130.3863  134.1917  157.4934 C   0  0  0  0  0  0  0  0  0  0  0  0
  130.6207  132.7372  157.1759 C   0  0  0  0  0  0  0  0  0  0  0  0
  131.4033  131.9644  158.0132 C   0  0  0  0  0  0  0  0  0  0  0  0
  131.6143  130.6291  157.7245 C   0  0  0  0  0  0  0  0  0  0  0  0
  131.0514  130.0692  156.5929 C   0  0  0  0  0  0  0  0  0  0  0  0
  130.2731  130.8434  155.7528 C   0  0  0  0  0  0  0  0  0  0  0  0
  130.0576  132.1775  156.0442 C   0  0  0  0  0  0  0  0  0  0  0  0
  128.4084  134.4889  160.5681 N   0  0  0  0  0  0  0  0  0  0  0  0
  127.3903  133.4727  160.2903 C   0  0  1  0  0  0  0  0  0  0  0  0
  127.7020  132.7585  159.5283 H   0  0  0  0  0  0  0  0  0  0  0  0
  126.8171  132.8129  161.5556 C   0  0  0  0  0  0  0  0  0  0  0  0
  125.7660  133.9391  161.5683 C   0  0  1  0  0  0  0  0  0  0  0  0
  124.7660  133.6002  161.8389 H   0  0  0  0  0  0  0  0  0  0  0  0
  126.1752  135.0981  162.2972 O   0  0  0  0  0  0  0  0  0  0  0  0
  125.9875  134.0557  160.0510 C   0  0  0  0  0  0  0  0  0  0  0  0
  127.9846  139.8845  161.4871 H   0  0  0  0  0  0  0  0  0  0  0  0
  128.9438  138.7339  162.4485 H   0  0  0  0  0  0  0  0  0  0  0  0
  129.5191  140.4034  162.2246 H   0  0  0  0  0  0  0  0  0  0  0  0
  129.7961  139.9826  159.7967 H   0  0  0  0  0  0  0  0  0  0  0  0
  129.2208  138.3130  160.0204 H   0  0  0  0  0  0  0  0  0  0  0  0
  131.9701  140.6706  160.6343 H   0  0  0  0  0  0  0  0  0  0  0  0
  134.2518  139.9643  161.2319 H   0  0  0  0  0  0  0  0  0  0  0  0
  134.7032  137.6113  161.8004 H   0  0  0  0  0  0  0  0  0  0  0  0
  132.8202  135.4086  162.9364 H   0  0  0  0  0  0  0  0  0  0  0  0
  132.2603  134.9117  161.3216 H   0  0  0  0  0  0  0  0  0  0  0  0
  133.9759  135.3049  161.5866 H   0  0  0  0  0  0  0  0  0  0  0  0
  130.4759  135.6024  161.8916 H   0  0  0  0  0  0  0  0  0  0  0  0
  129.3356  136.8785  161.4021 H   0  0  0  0  0  0  0  0  0  0  0  0
  128.3293  134.0150  157.9895 H   0  0  0  0  0  0  0  0  0  0  0  0
  130.2494  134.7484  156.5664 H   0  0  0  0  0  0  0  0  0  0  0  0
  131.2463  134.5890  158.0323 H   0  0  0  0  0  0  0  0  0  0  0  0
  131.8468  132.4029  158.8950 H   0  0  0  0  0  0  0  0  0  0  0  0
  132.2227  130.0244  158.3807 H   0  0  0  0  0  0  0  0  0  0  0  0
  131.2199  129.0270  156.3649 H   0  0  0  0  0  0  0  0  0  0  0  0
  129.8336  130.4061  154.8685 H   0  0  0  0  0  0  0  0  0  0  0  0
  129.4499  132.7823  155.3876 H   0  0  0  0  0  0  0  0  0  0  0  0
  128.4710  134.8839  161.4518 H   0  0  0  0  0  0  0  0  0  0  0  0
  126.3949  131.8236  161.3790 H   0  0  0  0  0  0  0  0  0  0  0  0
  127.4967  132.8384  162.4074 H   0  0  0  0  0  0  0  0  0  0  0  0
  125.7121  135.9075  162.0413 H   0  0  0  0  0  0  0  0  0  0  0  0
  125.9977  135.0837  159.6889 H   0  0  0  0  0  0  0  0  0  0  0  0
  125.3393  133.4061  159.4627 H   0  0  0  0  0  0  0  0  0  0  0  0
  1  2  1  0
  1 30  1  0
  1 31  1  0
  1 32  1  0
  2  3  1  0
  2 33  1  0
  2 34  1  0
  3  9  2  0
  3  4  1  0
  4  5  2  0
  4 35  1  0
  5  6  1  0
  5 36  1  0
  6  7  2  0
  6 37  1  0
  7  8  1  0
  7  9  1  0
  8 38  1  0
  8 39  1  0
  8 40  1  0
  9 10  1  0
 10 11  1  0
 10 41  1  0
 10 42  1  0
 11 12  1  0
 13 11  2  0
 13 14  1  0
 13 22  1  0
 14 15  1  0
 14 43  1  0
 15 16  1  0
 15 44  1  0
 15 45  1  0
 16 21  1  0
 16 17  2  0
 17 18  1  0
 17 46  1  0
 18 19  2  0
 18 47  1  0
 19 20  1  0
 19 48  1  0
 20 21  2  0
 20 49  1  0
 21 50  1  0
 22 23  1  0
 22 51  1  0
 23 24  1  6
 23 29  1  0
 23 25  1  0
 25 26  1  0
 25 52  1  0
 25 53  1  0
 26 27  1  6
 26 28  1  0
 26 29  1  0
 28 54  1  0
 29 55  1  0
 29 56  1  0
M  CHG  1  11   1
M  END
>  <DOCK_score>  (1) 
-44.484245

>  <SMILES>  (1) 
CCc1cccc(C)c1C[NH+]=C(NCc1ccccc1)N[C@H]1C[C@@H](O)C1

$$$$
