Oc1cc(O)cc(C[NH+]=C(NCc2cccc3ccccc23)NC2CC=CC2)c1
     RDKit          3D

 55 58  0  0  1  0  0  0  0  0999 V2000
  127.4541  135.1694  167.2308 O   0  0  0  0  0  0  0  0  0  0  0  0
  127.3062  135.5511  165.9350 C   0  0  0  0  0  0  0  0  0  0  0  0
  126.0524  135.5285  165.3439 C   0  0  0  0  0  0  0  0  0  0  0  0
  125.9048  135.9181  164.0217 C   0  0  0  0  0  0  0  0  0  0  0  0
  124.6771  135.8964  163.4392 O   0  0  0  0  0  0  0  0  0  0  0  0
  127.0119  136.3299  163.2930 C   0  0  0  0  0  0  0  0  0  0  0  0
  128.2606  136.3512  163.8844 C   0  0  0  0  0  0  0  0  0  0  0  0
  129.4611  136.7978  163.0906 C   0  0  0  0  0  0  0  0  0  0  0  0
  129.4320  136.1711  161.7668 N   0  0  0  0  0  0  0  0  0  0  0  0
  128.7065  135.5725  161.5294 H   0  0  0  0  0  0  0  0  0  0  0  0
  130.3808  136.4178  160.9078 C   0  0  0  0  0  0  0  0  0  0  0  0
  131.4089  137.2663  161.2443 N   0  0  0  0  0  0  0  0  0  0  0  0
  132.4754  137.5437  160.2789 C   0  0  0  0  0  0  0  0  0  0  0  0
  133.4709  138.4959  160.8897 C   0  0  0  0  0  0  0  0  0  0  0  0
  133.3069  139.8400  160.7497 C   0  0  0  0  0  0  0  0  0  0  0  0
  134.2194  140.7356  161.3033 C   0  0  0  0  0  0  0  0  0  0  0  0
  135.2953  140.2929  162.0099 C   0  0  0  0  0  0  0  0  0  0  0  0
  135.4981  138.9125  162.1753 C   0  0  0  0  0  0  0  0  0  0  0  0
  136.6001  138.4174  162.8936 C   0  0  0  0  0  0  0  0  0  0  0  0
  136.7638  137.0739  163.0342 C   0  0  0  0  0  0  0  0  0  0  0  0
  135.8540  136.1778  162.4754 C   0  0  0  0  0  0  0  0  0  0  0  0
  134.7751  136.6203  161.7738 C   0  0  0  0  0  0  0  0  0  0  0  0
  134.5727  138.0012  161.6075 C   0  0  0  0  0  0  0  0  0  0  0  0
  130.3533  135.8297  159.6655 N   0  0  0  0  0  0  0  0  0  0  0  0
  129.2577  134.9257  159.3071 C   0  0  0  0  0  0  0  0  0  0  0  0
  129.3211  133.6211  160.1348 C   0  0  0  0  0  0  0  0  0  0  0  0
  128.8970  132.5352  159.1735 C   0  0  0  0  0  0  0  0  0  0  0  0
  128.9578  132.9515  157.9379 C   0  0  0  0  0  0  0  0  0  0  0  0
  129.4324  134.3844  157.8691 C   0  0  0  0  0  0  0  0  0  0  0  0
  128.4110  135.9582  165.2005 C   0  0  0  0  0  0  0  0  0  0  0  0
  128.3648  135.2147  167.5527 H   0  0  0  0  0  0  0  0  0  0  0  0
  125.1920  135.2081  165.9126 H   0  0  0  0  0  0  0  0  0  0  0  0
  124.6744  136.1850  162.5164 H   0  0  0  0  0  0  0  0  0  0  0  0
  126.8974  136.6334  162.2630 H   0  0  0  0  0  0  0  0  0  0  0  0
  130.3717  136.5029  163.6122 H   0  0  0  0  0  0  0  0  0  0  0  0
  129.4407  137.8819  162.9799 H   0  0  0  0  0  0  0  0  0  0  0  0
  131.4283  137.6812  162.1207 H   0  0  0  0  0  0  0  0  0  0  0  0
  132.0467  137.9920  159.3826 H   0  0  0  0  0  0  0  0  0  0  0  0
  132.9776  136.6129  160.0149 H   0  0  0  0  0  0  0  0  0  0  0  0
  132.4593  140.2176  160.1972 H   0  0  0  0  0  0  0  0  0  0  0  0
  134.0684  141.7971  161.1735 H   0  0  0  0  0  0  0  0  0  0  0  0
  135.9923  140.9989  162.4367 H   0  0  0  0  0  0  0  0  0  0  0  0
  137.3135  139.0999  163.3315 H   0  0  0  0  0  0  0  0  0  0  0  0
  137.6114  136.6961  163.5866 H   0  0  0  0  0  0  0  0  0  0  0  0
  136.0077  135.1161  162.6012 H   0  0  0  0  0  0  0  0  0  0  0  0
  134.0783  135.9143  161.3471 H   0  0  0  0  0  0  0  0  0  0  0  0
  131.0594  136.0133  159.0263 H   0  0  0  0  0  0  0  0  0  0  0  0
  128.2925  135.4181  159.4252 H   0  0  0  0  0  0  0  0  0  0  0  0
  130.3379  133.4425  160.4848 H   0  0  0  0  0  0  0  0  0  0  0  0
  128.6319  133.6723  160.9778 H   0  0  0  0  0  0  0  0  0  0  0  0
  128.5845  131.5448  159.4698 H   0  0  0  0  0  0  0  0  0  0  0  0
  128.7020  132.3508  157.0776 H   0  0  0  0  0  0  0  0  0  0  0  0
  128.8188  134.9546  157.1716 H   0  0  0  0  0  0  0  0  0  0  0  0
  130.4806  134.4252  157.5728 H   0  0  0  0  0  0  0  0  0  0  0  0
  129.3888  135.9715  165.6592 H   0  0  0  0  0  0  0  0  0  0  0  0
  1  2  1  0
  1 31  1  0
  2 30  2  0
  2  3  1  0
  3  4  2  0
  3 32  1  0
  4  5  1  0
  4  6  1  0
  5 33  1  0
  6  7  2  0
  6 34  1  0
  7  8  1  0
  7 30  1  0
  8  9  1  0
  8 35  1  0
  8 36  1  0
  9 10  1  0
 11  9  2  0
 11 12  1  0
 11 24  1  0
 12 13  1  0
 12 37  1  0
 13 14  1  0
 13 38  1  0
 13 39  1  0
 14 23  1  0
 14 15  2  0
 15 16  1  0
 15 40  1  0
 16 17  2  0
 16 41  1  0
 17 18  1  0
 17 42  1  0
 18 23  2  0
 18 19  1  0
 19 20  2  0
 19 43  1  0
 20 21  1  0
 20 44  1  0
 21 22  2  0
 21 45  1  0
 22 23  1  0
 22 46  1  0
 24 25  1  0
 24 47  1  0
 25 29  1  0
 25 26  1  0
 25 48  1  0
 26 27  1  0
 26 49  1  0
 26 50  1  0
 27 28  2  0
 27 51  1  0
 28 29  1  0
 28 52  1  0
 29 53  1  0
 29 54  1  0
 30 55  1  0
M  CHG  1   9   1
M  END
>  <DOCK_score>  (1) 
-44.155685

>  <SMILES>  (1) 
Oc1cc(O)cc(C[NH+]=C(NCc2cccc3ccccc23)NC2CC=CC2)c1

$$$$
