CCc1ccc(-c2c[nH]c(N[C@@H](Cc3ccc(Nc4cc(O)cc(O)c4)cc3)c3ccccc3)[nH+]2)cc1
     RDKit          3D

 68 72  0  0  1  0  0  0  0  0999 V2000
  130.4117  128.9478  151.6299 C   0  0  0  0  0  0  0  0  0  0  0  0
  131.6605  129.6555  152.1592 C   0  0  0  0  0  0  0  0  0  0  0  0
  131.3288  130.3607  153.4491 C   0  0  0  0  0  0  0  0  0  0  0  0
  131.4751  129.6990  154.6543 C   0  0  0  0  0  0  0  0  0  0  0  0
  131.1787  130.3424  155.8386 C   0  0  0  0  0  0  0  0  0  0  0  0
  130.7207  131.6587  155.8177 C   0  0  0  0  0  0  0  0  0  0  0  0
  130.3952  132.3539  157.0871 C   0  0  0  0  0  0  0  0  0  0  0  0
  129.9489  131.7683  158.2258 C   0  0  0  0  0  0  0  0  0  0  0  0
  129.7759  132.7712  159.1484 N   0  0  0  0  0  0  0  0  0  0  0  0
  129.4643  132.6650  160.0609 H   0  0  0  0  0  0  0  0  0  0  0  0
  130.1219  133.9414  158.5459 C   0  0  0  0  0  0  0  0  0  0  0  0
  130.0888  135.1931  159.1365 N   0  0  0  0  0  0  0  0  0  0  0  0
  129.6529  135.3352  160.5279 C   0  0  1  0  0  0  0  0  0  0  0  0
  130.0546  134.5131  161.1202 H   0  0  0  0  0  0  0  0  0  0  0  0
  130.1624  136.6644  161.0887 C   0  0  0  0  0  0  0  0  0  0  0  0
  131.6083  136.5201  161.4878 C   0  0  0  0  0  0  0  0  0  0  0  0
  132.6074  136.7891  160.5701 C   0  0  0  0  0  0  0  0  0  0  0  0
  133.9337  136.6626  160.9341 C   0  0  0  0  0  0  0  0  0  0  0  0
  134.2634  136.2541  162.2203 C   0  0  0  0  0  0  0  0  0  0  0  0
  135.6040  136.1192  162.5899 N   0  0  0  0  0  0  0  0  0  0  0  0
  136.1182  136.8795  163.6430 C   0  0  0  0  0  0  0  0  0  0  0  0
  137.1520  136.3774  164.4224 C   0  0  0  0  0  0  0  0  0  0  0  0
  137.6658  137.1352  165.4632 C   0  0  0  0  0  0  0  0  0  0  0  0
  138.6819  136.6468  166.2222 O   0  0  0  0  0  0  0  0  0  0  0  0
  137.1397  138.3898  165.7338 C   0  0  0  0  0  0  0  0  0  0  0  0
  136.1031  138.8895  164.9598 C   0  0  0  0  0  0  0  0  0  0  0  0
  135.5883  140.1188  165.2258 O   0  0  0  0  0  0  0  0  0  0  0  0
  135.5920  138.1357  163.9146 C   0  0  0  0  0  0  0  0  0  0  0  0
  133.2572  135.9797  163.1380 C   0  0  0  0  0  0  0  0  0  0  0  0
  131.9332  136.1138  162.7692 C   0  0  0  0  0  0  0  0  0  0  0  0
  128.1473  135.3087  160.5877 C   0  0  0  0  0  0  0  0  0  0  0  0
  127.5088  134.8095  161.7076 C   0  0  0  0  0  0  0  0  0  0  0  0
  126.1277  134.7888  161.7641 C   0  0  0  0  0  0  0  0  0  0  0  0
  125.3853  135.2598  160.6975 C   0  0  0  0  0  0  0  0  0  0  0  0
  126.0237  135.7543  159.5756 C   0  0  0  0  0  0  0  0  0  0  0  0
  127.4048  135.7785  159.5206 C   0  0  0  0  0  0  0  0  0  0  0  0
  130.4970  133.6873  157.3161 N   0  0  0  0  0  0  0  0  0  0  0  0
  130.7971  134.3473  156.6717 H   0  0  0  0  0  0  0  0  0  0  0  0
  130.5703  132.3194  154.5998 C   0  0  0  0  0  0  0  0  0  0  0  0
  130.8751  131.6679  153.4221 C   0  0  0  0  0  0  0  0  0  0  0  0
  130.0676  128.2198  152.3646 H   0  0  0  0  0  0  0  0  0  0  0  0
  129.6263  129.6822  151.4507 H   0  0  0  0  0  0  0  0  0  0  0  0
  130.6512  128.4372  150.6973 H   0  0  0  0  0  0  0  0  0  0  0  0
  132.4459  128.9211  152.3384 H   0  0  0  0  0  0  0  0  0  0  0  0
  132.0045  130.3836  151.4245 H   0  0  0  0  0  0  0  0  0  0  0  0
  131.8255  128.6775  154.6690 H   0  0  0  0  0  0  0  0  0  0  0  0
  131.2975  129.8258  156.7795 H   0  0  0  0  0  0  0  0  0  0  0  0
  129.7644  130.7151  158.3782 H   0  0  0  0  0  0  0  0  0  0  0  0
  130.3544  135.9760  158.6291 H   0  0  0  0  0  0  0  0  0  0  0  0
  130.0712  137.4389  160.3271 H   0  0  0  0  0  0  0  0  0  0  0  0
  129.5706  136.9415  161.9612 H   0  0  0  0  0  0  0  0  0  0  0  0
  132.3503  137.1022  159.5690 H   0  0  0  0  0  0  0  0  0  0  0  0
  134.7134  136.8764  160.2180 H   0  0  0  0  0  0  0  0  0  0  0  0
  136.1777  135.4974  162.1153 H   0  0  0  0  0  0  0  0  0  0  0  0
  137.5589  135.3987  164.2147 H   0  0  0  0  0  0  0  0  0  0  0  0
  138.9728  137.2463  166.9229 H   0  0  0  0  0  0  0  0  0  0  0  0
  137.5378  138.9780  166.5475 H   0  0  0  0  0  0  0  0  0  0  0  0
  134.8700  140.3811  164.6338 H   0  0  0  0  0  0  0  0  0  0  0  0
  134.7853  138.5253  163.3114 H   0  0  0  0  0  0  0  0  0  0  0  0
  133.5100  135.6616  164.1386 H   0  0  0  0  0  0  0  0  0  0  0  0
  131.1503  135.9006  163.4821 H   0  0  0  0  0  0  0  0  0  0  0  0
  128.0889  134.4384  162.5396 H   0  0  0  0  0  0  0  0  0  0  0  0
  125.6289  134.4022  162.6405 H   0  0  0  0  0  0  0  0  0  0  0  0
  124.3062  135.2413  160.7406 H   0  0  0  0  0  0  0  0  0  0  0  0
  125.4436  136.1219  158.7420 H   0  0  0  0  0  0  0  0  0  0  0  0
  127.9037  136.1646  158.6440 H   0  0  0  0  0  0  0  0  0  0  0  0
  130.2155  133.3393  154.5778 H   0  0  0  0  0  0  0  0  0  0  0  0
  130.7585  132.1789  152.4777 H   0  0  0  0  0  0  0  0  0  0  0  0
  1  2  1  0
  1 41  1  0
  1 42  1  0
  1 43  1  0
  2  3  1  0
  2 44  1  0
  2 45  1  0
  3 40  2  0
  3  4  1  0
  4  5  2  0
  4 46  1  0
  5  6  1  0
  5 47  1  0
  6  7  1  0
  6 39  2  0
  7 37  1  0
  7  8  2  0
  8  9  1  0
  8 48  1  0
  9 10  1  0
  9 11  1  0
 11 12  1  0
 11 37  2  0
 12 13  1  0
 12 49  1  0
 13 14  1  1
 13 15  1  0
 13 31  1  0
 15 16  1  0
 15 50  1  0
 15 51  1  0
 16 30  1  0
 16 17  2  0
 17 18  1  0
 17 52  1  0
 18 19  2  0
 18 53  1  0
 19 20  1  0
 19 29  1  0
 20 21  1  0
 20 54  1  0
 21 28  1  0
 21 22  2  0
 22 23  1  0
 22 55  1  0
 23 24  1  0
 23 25  2  0
 24 56  1  0
 25 26  1  0
 25 57  1  0
 26 27  1  0
 26 28  2  0
 27 58  1  0
 28 59  1  0
 29 30  2  0
 29 60  1  0
 30 61  1  0
 31 36  1  0
 31 32  2  0
 32 33  1  0
 32 62  1  0
 33 34  2  0
 33 63  1  0
 34 35  1  0
 34 64  1  0
 35 36  2  0
 35 65  1  0
 36 66  1  0
 37 38  1  0
 39 40  1  0
 39 67  1  0
 40 68  1  0
M  CHG  1  37   1
M  END
>  <DOCK_score>  (1) 
-63.271454

>  <SMILES>  (1) 
CCc1ccc(-c2c[nH]c(N[C@@H](Cc3ccc(Nc4cc(O)cc(O)c4)cc3)c3ccccc3)[nH+]2)cc1

$$$$
