Nc1ccc(-c2c[nH]c(N[C@H](Cc3ccc(F)cc3Cl)c3coc4ccccc34)[nH+]2)cc1
     RDKit          3D

 53 57  0  0  1  0  0  0  0  0999 V2000
  131.2855  129.6824  151.8447 N   0  0  0  0  0  0  0  0  0  0  0  0
  130.9906  130.3443  153.0390 C   0  0  0  0  0  0  0  0  0  0  0  0
  130.3135  131.5582  153.0106 C   0  0  0  0  0  0  0  0  0  0  0  0
  130.0209  132.2131  154.1882 C   0  0  0  0  0  0  0  0  0  0  0  0
  130.4049  131.6573  155.4076 C   0  0  0  0  0  0  0  0  0  0  0  0
  130.0919  132.3603  156.6759 C   0  0  0  0  0  0  0  0  0  0  0  0
  129.3368  131.8745  157.6920 C   0  0  0  0  0  0  0  0  0  0  0  0
  129.3052  132.8456  158.6647 N   0  0  0  0  0  0  0  0  0  0  0  0
  128.8398  132.7932  159.5142 H   0  0  0  0  0  0  0  0  0  0  0  0
  130.0426  133.8963  158.2131 C   0  0  0  0  0  0  0  0  0  0  0  0
  130.2616  135.0804  158.8960 N   0  0  0  0  0  0  0  0  0  0  0  0
  129.6756  135.2793  160.2239 C   0  0  2  0  0  0  0  0  0  0  0  0
  129.7449  134.3529  160.7941 H   0  0  0  0  0  0  0  0  0  0  0  0
  128.2061  135.6798  160.0782 C   0  0  0  0  0  0  0  0  0  0  0  0
  127.6035  135.8845  161.4443 C   0  0  0  0  0  0  0  0  0  0  0  0
  127.6401  137.1336  162.0353 C   0  0  0  0  0  0  0  0  0  0  0  0
  127.0871  137.3228  163.2875 C   0  0  0  0  0  0  0  0  0  0  0  0
  126.4958  136.2608  163.9511 C   0  0  0  0  0  0  0  0  0  0  0  0
  125.9552  136.4453  165.1753 F   0  0  0  0  0  0  0  0  0  0  0  0
  126.4596  135.0099  163.3595 C   0  0  0  0  0  0  0  0  0  0  0  0
  127.0091  134.8235  162.1036 C   0  0  0  0  0  0  0  0  0  0  0  0
  126.9572  133.2569  161.3573 Cl  0  0  0  0  0  0  0  0  0  0  0  0
  130.4245  136.3703  160.9450 C   0  0  0  0  0  0  0  0  0  0  0  0
  131.0450  137.4214  160.3922 C   0  0  0  0  0  0  0  0  0  0  0  0
  131.6029  138.1853  161.3477 O   0  0  0  0  0  0  0  0  0  0  0  0
  131.3800  137.6640  162.5708 C   0  0  0  0  0  0  0  0  0  0  0  0
  131.7357  138.0543  163.8560 C   0  0  0  0  0  0  0  0  0  0  0  0
  131.3482  137.2906  164.9362 C   0  0  0  0  0  0  0  0  0  0  0  0
  130.6041  136.1337  164.7549 C   0  0  0  0  0  0  0  0  0  0  0  0
  130.2430  135.7326  163.4986 C   0  0  0  0  0  0  0  0  0  0  0  0
  130.6261  136.4918  162.3940 C   0  0  0  0  0  0  0  0  0  0  0  0
  130.5109  133.6025  157.0246 N   0  0  0  0  0  0  0  0  0  0  0  0
  131.0679  134.1814  156.4808 H   0  0  0  0  0  0  0  0  0  0  0  0
  131.0887  130.4428  155.4330 C   0  0  0  0  0  0  0  0  0  0  0  0
  131.3745  129.7888  154.2532 C   0  0  0  0  0  0  0  0  0  0  0  0
  131.0176  130.0701  150.9962 H   0  0  0  0  0  0  0  0  0  0  0  0
  131.7580  128.8360  151.8630 H   0  0  0  0  0  0  0  0  0  0  0  0
  130.0164  131.9886  152.0656 H   0  0  0  0  0  0  0  0  0  0  0  0
  129.4944  133.1559  154.1659 H   0  0  0  0  0  0  0  0  0  0  0  0
  128.8528  130.9098  157.7298 H   0  0  0  0  0  0  0  0  0  0  0  0
  130.8029  135.7785  158.4953 H   0  0  0  0  0  0  0  0  0  0  0  0
  128.1368  136.6061  159.5080 H   0  0  0  0  0  0  0  0  0  0  0  0
  127.6644  134.8907  159.5568 H   0  0  0  0  0  0  0  0  0  0  0  0
  128.1008  137.9623  161.5181 H   0  0  0  0  0  0  0  0  0  0  0  0
  127.1157  138.2990  163.7486 H   0  0  0  0  0  0  0  0  0  0  0  0
  125.9988  134.1810  163.8761 H   0  0  0  0  0  0  0  0  0  0  0  0
  131.0889  137.6263  159.3328 H   0  0  0  0  0  0  0  0  0  0  0  0
  132.3143  138.9534  164.0082 H   0  0  0  0  0  0  0  0  0  0  0  0
  131.6265  137.5962  165.9339 H   0  0  0  0  0  0  0  0  0  0  0  0
  130.3079  135.5464  165.6115 H   0  0  0  0  0  0  0  0  0  0  0  0
  129.6631  134.8317  163.3627 H   0  0  0  0  0  0  0  0  0  0  0  0
  131.3911  130.0125  156.3763 H   0  0  0  0  0  0  0  0  0  0  0  0
  131.9009  128.8460  154.2728 H   0  0  0  0  0  0  0  0  0  0  0  0
  1  2  1  0
  1 36  1  0
  1 37  1  0
  2 35  2  0
  2  3  1  0
  3  4  2  0
  3 38  1  0
  4  5  1  0
  4 39  1  0
  5  6  1  0
  5 34  2  0
  6 32  1  0
  6  7  2  0
  7  8  1  0
  7 40  1  0
  8  9  1  0
  8 10  1  0
 10 11  1  0
 10 32  2  0
 11 12  1  0
 11 41  1  0
 12 13  1  1
 12 14  1  0
 12 23  1  0
 14 15  1  0
 14 42  1  0
 14 43  1  0
 15 21  1  0
 15 16  2  0
 16 17  1  0
 16 44  1  0
 17 18  2  0
 17 45  1  0
 18 19  1  0
 18 20  1  0
 20 21  2  0
 20 46  1  0
 21 22  1  0
 23 31  1  0
 23 24  2  0
 24 25  1  0
 24 47  1  0
 25 26  1  0
 26 31  2  0
 26 27  1  0
 27 28  2  0
 27 48  1  0
 28 29  1  0
 28 49  1  0
 29 30  2  0
 29 50  1  0
 30 31  1  0
 30 51  1  0
 32 33  1  0
 34 35  1  0
 34 52  1  0
 35 53  1  0
M  CHG  1  32   1
M  END
>  <DOCK_score>  (1) 
-56.702938

>  <SMILES>  (1) 
Nc1ccc(-c2c[nH]c(N[C@H](Cc3ccc(F)cc3Cl)c3coc4ccccc34)[nH+]2)cc1

$$$$
