OCCNc1ccc(-c2n[nH]cc2C[NH2+][C@H]2C[C@H]2F)o1
     RDKit          3D

 38 40  0  0  1  0  0  0  0  0999 V2000
  126.3950  135.0795  164.3641 O   0  0  0  0  0  0  0  0  0  0  0  0
  126.4055  136.5051  164.2660 C   0  0  0  0  0  0  0  0  0  0  0  0
  126.9338  136.9177  162.8906 C   0  0  0  0  0  0  0  0  0  0  0  0
  126.0670  136.3630  161.8480 N   0  0  0  0  0  0  0  0  0  0  0  0
  126.5908  135.4928  160.8990 C   0  0  0  0  0  0  0  0  0  0  0  0
  125.8769  134.6215  160.1433 C   0  0  0  0  0  0  0  0  0  0  0  0
  126.7967  133.9406  159.3215 C   0  0  0  0  0  0  0  0  0  0  0  0
  128.0285  134.4321  159.6182 C   0  0  0  0  0  0  0  0  0  0  0  0
  129.3014  134.0095  158.9982 C   0  0  0  0  0  0  0  0  0  0  0  0
  129.4418  133.0918  158.0619 N   0  0  0  0  0  0  0  0  0  0  0  0
  130.8039  132.9935  157.7505 N   0  0  0  0  0  0  0  0  0  0  0  0
  131.1957  132.3964  157.0941 H   0  0  0  0  0  0  0  0  0  0  0  0
  131.4768  133.8781  158.5181 C   0  0  0  0  0  0  0  0  0  0  0  0
  130.5824  134.5164  159.3025 C   0  0  0  0  0  0  0  0  0  0  0  0
  130.8956  135.5850  160.3181 C   0  0  0  0  0  0  0  0  0  0  0  0
  130.8447  136.9036  159.6728 N   0  0  0  0  0  0  0  0  0  0  0  0
  129.9215  137.0581  159.2958 H   0  0  0  0  0  0  0  0  0  0  0  0
  131.5229  136.9394  158.9266 H   0  0  0  0  0  0  0  0  0  0  0  0
  131.1501  137.9453  160.6625 C   0  0  1  0  0  0  0  0  0  0  0  0
  131.9453  137.7047  161.3681 H   0  0  0  0  0  0  0  0  0  0  0  0
  131.0176  139.4032  160.2176 C   0  0  0  0  0  0  0  0  0  0  0  0
  129.9862  138.7988  161.1724 C   0  0  1  0  0  0  0  0  0  0  0  0
  130.0153  139.1197  162.2136 H   0  0  0  0  0  0  0  0  0  0  0  0
  128.7129  138.5270  160.6599 F   0  0  0  0  0  0  0  0  0  0  0  0
  127.8904  135.3685  160.5804 O   0  0  0  0  0  0  0  0  0  0  0  0
  127.2654  134.6716  164.2585 H   0  0  0  0  0  0  0  0  0  0  0  0
  127.0505  136.9178  165.0418 H   0  0  0  0  0  0  0  0  0  0  0  0
  125.3924  136.8858  164.3952 H   0  0  0  0  0  0  0  0  0  0  0  0
  127.9469  136.5369  162.7613 H   0  0  0  0  0  0  0  0  0  0  0  0
  126.9420  138.0051  162.8158 H   0  0  0  0  0  0  0  0  0  0  0  0
  125.1276  136.6030  161.8198 H   0  0  0  0  0  0  0  0  0  0  0  0
  124.8068  134.4769  160.1673 H   0  0  0  0  0  0  0  0  0  0  0  0
  126.5669  133.1752  158.5951 H   0  0  0  0  0  0  0  0  0  0  0  0
  132.5441  134.0439  158.5079 H   0  0  0  0  0  0  0  0  0  0  0  0
  131.8928  135.4182  160.7253 H   0  0  0  0  0  0  0  0  0  0  0  0
  130.1628  135.5463  161.1240 H   0  0  0  0  0  0  0  0  0  0  0  0
  131.7255  140.1218  160.6308 H   0  0  0  0  0  0  0  0  0  0  0  0
  130.7042  139.5895  159.1903 H   0  0  0  0  0  0  0  0  0  0  0  0
  1  2  1  0
  1 26  1  0
  2  3  1  0
  2 27  1  0
  2 28  1  0
  3  4  1  0
  3 29  1  0
  3 30  1  0
  4  5  1  0
  4 31  1  0
  5 25  1  0
  5  6  2  0
  6  7  1  0
  6 32  1  0
  7  8  2  0
  7 33  1  0
  8  9  1  0
  8 25  1  0
  9 14  1  0
  9 10  2  0
 10 11  1  0
 11 12  1  0
 11 13  1  0
 13 14  2  0
 13 34  1  0
 14 15  1  0
 15 16  1  0
 15 35  1  0
 15 36  1  0
 16 17  1  0
 16 18  1  0
 16 19  1  0
 19 20  1  1
 19 22  1  0
 19 21  1  0
 21 22  1  0
 21 37  1  0
 21 38  1  0
 22 23  1  1
 22 24  1  0
M  CHG  1  16   1
M  END
>  <DOCK_score>  (1) 
-41.510071

>  <SMILES>  (1) 
OCCNc1ccc(-c2n[nH]cc2C[NH2+][C@H]2C[C@H]2F)o1

$$$$
