Oc1ccc2c(c1)C(N1CCC([NH2+]C3CC3)CC1)c1cc(O)ccc1-2
     RDKit          3D

 50 54  0  0  1  0  0  0  0  0999 V2000
  130.7102  131.7268  156.5881 O   0  0  0  0  0  0  0  0  0  0  0  0
  129.6656  131.9429  157.4300 C   0  0  0  0  0  0  0  0  0  0  0  0
  129.1030  130.8812  158.1252 C   0  0  0  0  0  0  0  0  0  0  0  0
  128.0437  131.0961  158.9804 C   0  0  0  0  0  0  0  0  0  0  0  0
  127.5327  132.3847  159.1503 C   0  0  0  0  0  0  0  0  0  0  0  0
  128.1023  133.4449  158.4495 C   0  0  0  0  0  0  0  0  0  0  0  0
  129.1610  133.2260  157.5955 C   0  0  0  0  0  0  0  0  0  0  0  0
  127.3508  134.6973  158.8298 C   0  0  0  0  0  0  0  0  0  0  0  0
  128.2627  135.6633  159.4571 N   0  0  0  0  0  0  0  0  0  0  0  0
  129.1419  135.0022  160.4297 C   0  0  0  0  0  0  0  0  0  0  0  0
  129.9737  136.0551  161.1658 C   0  0  0  0  0  0  0  0  0  0  0  0
  130.8060  136.8426  160.1499 C   0  0  0  0  0  0  0  0  0  0  0  0
  131.5622  137.8933  160.8440 N   0  0  0  0  0  0  0  0  0  0  0  0
  130.9571  138.6804  161.0236 H   0  0  0  0  0  0  0  0  0  0  0  0
  131.9137  137.5329  161.7185 H   0  0  0  0  0  0  0  0  0  0  0  0
  132.6880  138.3229  160.0037 C   0  0  0  0  0  0  0  0  0  0  0  0
  133.1379  139.7809  160.1169 C   0  0  0  0  0  0  0  0  0  0  0  0
  132.3886  139.3060  158.8703 C   0  0  0  0  0  0  0  0  0  0  0  0
  129.8696  137.4813  159.1204 C   0  0  0  0  0  0  0  0  0  0  0  0
  129.0409  136.3870  158.4436 C   0  0  0  0  0  0  0  0  0  0  0  0
  126.2929  134.2657  159.8157 C   0  0  0  0  0  0  0  0  0  0  0  0
  125.3212  134.9677  160.4949 C   0  0  0  0  0  0  0  0  0  0  0  0
  124.4610  134.3034  161.3593 C   0  0  0  0  0  0  0  0  0  0  0  0
  123.5019  134.9954  162.0285 O   0  0  0  0  0  0  0  0  0  0  0  0
  124.5807  132.9322  161.5390 C   0  0  0  0  0  0  0  0  0  0  0  0
  125.5519  132.2263  160.8618 C   0  0  0  0  0  0  0  0  0  0  0  0
  126.4191  132.8898  159.9910 C   0  0  0  0  0  0  0  0  0  0  0  0
  131.0341  132.5257  156.1499 H   0  0  0  0  0  0  0  0  0  0  0  0
  129.4963  129.8838  157.9952 H   0  0  0  0  0  0  0  0  0  0  0  0
  127.6089  130.2676  159.5199 H   0  0  0  0  0  0  0  0  0  0  0  0
  129.5983  134.0523  157.0546 H   0  0  0  0  0  0  0  0  0  0  0  0
  126.8860  135.1384  157.9481 H   0  0  0  0  0  0  0  0  0  0  0  0
  128.5375  134.4492  161.1487 H   0  0  0  0  0  0  0  0  0  0  0  0
  129.8068  134.3133  159.9087 H   0  0  0  0  0  0  0  0  0  0  0  0
  130.6375  135.5629  161.8766 H   0  0  0  0  0  0  0  0  0  0  0  0
  129.3099  136.7362  161.6982 H   0  0  0  0  0  0  0  0  0  0  0  0
  131.4972  136.1682  159.6446 H   0  0  0  0  0  0  0  0  0  0  0  0
  133.4570  137.5707  159.8278 H   0  0  0  0  0  0  0  0  0  0  0  0
  132.5985  140.4213  160.8148 H   0  0  0  0  0  0  0  0  0  0  0  0
  134.2031  139.9881  160.0154 H   0  0  0  0  0  0  0  0  0  0  0  0
  132.9610  139.2008  157.9486 H   0  0  0  0  0  0  0  0  0  0  0  0
  131.3563  139.6340  158.7480 H   0  0  0  0  0  0  0  0  0  0  0  0
  130.4591  138.0079  158.3698 H   0  0  0  0  0  0  0  0  0  0  0  0
  129.2042  138.1848  159.6207 H   0  0  0  0  0  0  0  0  0  0  0  0
  129.7064  135.6916  157.9319 H   0  0  0  0  0  0  0  0  0  0  0  0
  128.3631  136.8399  157.7202 H   0  0  0  0  0  0  0  0  0  0  0  0
  125.2281  136.0345  160.3545 H   0  0  0  0  0  0  0  0  0  0  0  0
  123.4962  135.9435  161.8386 H   0  0  0  0  0  0  0  0  0  0  0  0
  123.9113  132.4169  162.2118 H   0  0  0  0  0  0  0  0  0  0  0  0
  125.6419  131.1595  161.0043 H   0  0  0  0  0  0  0  0  0  0  0  0
  1  2  1  0
  1 28  1  0
  2  7  2  0
  2  3  1  0
  3  4  2  0
  3 29  1  0
  4  5  1  0
  4 30  1  0
  5 27  1  0
  5  6  2  0
  6  7  1  0
  6  8  1  0
  7 31  1  0
  8 21  1  0
  8 32  1  0
  9  8  1  0
  9 20  1  0
  9 10  1  0
 10 11  1  0
 10 33  1  0
 10 34  1  0
 11 12  1  0
 11 35  1  0
 11 36  1  0
 12 13  1  0
 12 19  1  0
 12 37  1  0
 13 14  1  0
 13 15  1  0
 13 16  1  0
 16 18  1  0
 16 17  1  0
 16 38  1  0
 17 18  1  0
 17 39  1  0
 17 40  1  0
 18 41  1  0
 18 42  1  0
 19 20  1  0
 19 43  1  0
 19 44  1  0
 20 45  1  0
 20 46  1  0
 21 27  2  0
 21 22  1  0
 22 23  2  0
 22 47  1  0
 23 24  1  0
 23 25  1  0
 24 48  1  0
 25 26  2  0
 25 49  1  0
 26 27  1  0
 26 50  1  0
M  CHG  1  13   1
M  END
>  <DOCK_score>  (1) 
-45.606678

>  <SMILES>  (1) 
Oc1ccc2c(c1)C(N1CCC([NH2+]C3CC3)CC1)c1cc(O)ccc1-2

$$$$
