COc1cccc(C2=CC[N@@H+](C(Cc3cccc4c3NC(=O)CO4)c3ccccc3)CC2)c1
     RDKit          3D

 62 66  0  0  1  0  0  0  0  0999 V2000
  138.1794  135.9263  164.2478 C   0  0  0  0  0  0  0  0  0  0  0  0
  137.1390  135.1175  163.6951 O   0  0  0  0  0  0  0  0  0  0  0  0
  136.1165  135.7649  163.0770 C   0  0  0  0  0  0  0  0  0  0  0  0
  136.1156  137.1515  163.0049 C   0  0  0  0  0  0  0  0  0  0  0  0
  135.0780  137.8152  162.3777 C   0  0  0  0  0  0  0  0  0  0  0  0
  134.0384  137.1033  161.8142 C   0  0  0  0  0  0  0  0  0  0  0  0
  134.0281  135.7099  161.8865 C   0  0  0  0  0  0  0  0  0  0  0  0
  132.9137  134.9444  161.2886 C   0  0  0  0  0  0  0  0  0  0  0  0
  132.6859  135.0594  159.9981 C   0  0  0  0  0  0  0  0  0  0  0  0
  131.5838  134.3215  159.2944 C   0  0  0  0  0  0  0  0  0  0  0  0
  130.5888  133.8437  160.2615 N   0  0  1  0  0  0  0  0  0  0  0  0
  130.1074  134.6310  160.6696 H   0  0  0  0  0  0  0  0  0  0  0  0
  129.6199  132.9741  159.5811 C   0  0  1  0  0  0  0  0  0  0  0  0
  128.5896  133.8347  158.8470 C   0  0  0  0  0  0  0  0  0  0  0  0
  127.5570  134.3279  159.8275 C   0  0  0  0  0  0  0  0  0  0  0  0
  126.4202  133.5789  160.0731 C   0  0  0  0  0  0  0  0  0  0  0  0
  125.4687  134.0320  160.9678 C   0  0  0  0  0  0  0  0  0  0  0  0
  125.6491  135.2344  161.6277 C   0  0  0  0  0  0  0  0  0  0  0  0
  126.7861  135.9865  161.3913 C   0  0  0  0  0  0  0  0  0  0  0  0
  127.7457  135.5296  160.4889 C   0  0  0  0  0  0  0  0  0  0  0  0
  128.8929  136.3021  160.2584 N   0  0  0  0  0  0  0  0  0  0  0  0
  129.2000  137.2924  161.1242 C   0  0  0  0  0  0  0  0  0  0  0  0
  130.1706  137.9931  160.9285 O   0  0  0  0  0  0  0  0  0  0  0  0
  128.3320  137.5233  162.3350 C   0  0  0  0  0  0  0  0  0  0  0  0
  126.9799  137.1704  162.0315 O   0  0  0  0  0  0  0  0  0  0  0  0
  130.3410  132.0983  158.5892 C   0  0  0  0  0  0  0  0  0  0  0  0
  130.5138  132.5268  157.2863 C   0  0  0  0  0  0  0  0  0  0  0  0
  131.1791  131.7252  156.3776 C   0  0  0  0  0  0  0  0  0  0  0  0
  131.6632  130.4911  156.7692 C   0  0  0  0  0  0  0  0  0  0  0  0
  131.4863  130.0605  158.0708 C   0  0  0  0  0  0  0  0  0  0  0  0
  130.8247  130.8639  158.9807 C   0  0  0  0  0  0  0  0  0  0  0  0
  131.2747  133.0842  161.3186 C   0  0  0  0  0  0  0  0  0  0  0  0
  132.0814  134.0616  162.1774 C   0  0  0  0  0  0  0  0  0  0  0  0
  135.0757  135.0414  162.5196 C   0  0  0  0  0  0  0  0  0  0  0  0
  137.7593  136.5952  164.9990 H   0  0  0  0  0  0  0  0  0  0  0  0
  138.9305  135.2862  164.7106 H   0  0  0  0  0  0  0  0  0  0  0  0
  138.6418  136.5148  163.4554 H   0  0  0  0  0  0  0  0  0  0  0  0
  136.9285  137.7135  163.4406 H   0  0  0  0  0  0  0  0  0  0  0  0
  135.0828  138.8939  162.3246 H   0  0  0  0  0  0  0  0  0  0  0  0
  133.2312  137.6247  161.3212 H   0  0  0  0  0  0  0  0  0  0  0  0
  133.3199  135.7143  159.4188 H   0  0  0  0  0  0  0  0  0  0  0  0
  132.0045  133.4700  158.7596 H   0  0  0  0  0  0  0  0  0  0  0  0
  131.1011  134.9891  158.5805 H   0  0  0  0  0  0  0  0  0  0  0  0
  129.1133  132.3492  160.3166 H   0  0  0  0  0  0  0  0  0  0  0  0
  128.1024  133.2388  158.0751 H   0  0  0  0  0  0  0  0  0  0  0  0
  129.0897  134.6868  158.3867 H   0  0  0  0  0  0  0  0  0  0  0  0
  126.2733  132.6394  159.5608 H   0  0  0  0  0  0  0  0  0  0  0  0
  124.5811  133.4450  161.1521 H   0  0  0  0  0  0  0  0  0  0  0  0
  124.9037  135.5856  162.3259 H   0  0  0  0  0  0  0  0  0  0  0  0
  129.4577  136.1279  159.4892 H   0  0  0  0  0  0  0  0  0  0  0  0
  128.6907  136.9089  163.1609 H   0  0  0  0  0  0  0  0  0  0  0  0
  128.3773  138.5747  162.6187 H   0  0  0  0  0  0  0  0  0  0  0  0
  130.1320  133.4892  156.9793 H   0  0  0  0  0  0  0  0  0  0  0  0
  131.3178  132.0618  155.3608 H   0  0  0  0  0  0  0  0  0  0  0  0
  132.1801  129.8634  156.0583 H   0  0  0  0  0  0  0  0  0  0  0  0
  131.8644  129.0963  158.3767 H   0  0  0  0  0  0  0  0  0  0  0  0
  130.6862  130.5273  159.9974 H   0  0  0  0  0  0  0  0  0  0  0  0
  130.5382  132.5737  161.9392 H   0  0  0  0  0  0  0  0  0  0  0  0
  131.9438  132.3515  160.8673 H   0  0  0  0  0  0  0  0  0  0  0  0
  131.3996  134.6770  162.7644 H   0  0  0  0  0  0  0  0  0  0  0  0
  132.7343  133.5026  162.8476 H   0  0  0  0  0  0  0  0  0  0  0  0
  135.0751  133.9628  162.5753 H   0  0  0  0  0  0  0  0  0  0  0  0
  1  2  1  0
  1 35  1  0
  1 36  1  0
  1 37  1  0
  2  3  1  0
  3 34  2  0
  3  4  1  0
  4  5  2  0
  4 38  1  0
  5  6  1  0
  5 39  1  0
  6  7  2  0
  6 40  1  0
  7  8  1  0
  7 34  1  0
  8 33  1  0
  8  9  2  0
  9 10  1  0
  9 41  1  0
 10 11  1  0
 10 42  1  0
 10 43  1  0
 11 12  1  1
 11 13  1  0
 11 32  1  0
 13 14  1  0
 13 26  1  0
 13 44  1  1
 14 15  1  0
 14 45  1  0
 14 46  1  0
 15 20  1  0
 15 16  2  0
 16 17  1  0
 16 47  1  0
 17 18  2  0
 17 48  1  0
 18 19  1  0
 18 49  1  0
 19 25  1  0
 19 20  2  0
 20 21  1  0
 21 22  1  0
 21 50  1  0
 22 23  2  0
 22 24  1  0
 24 25  1  0
 24 51  1  0
 24 52  1  0
 26 31  1  0
 26 27  2  0
 27 28  1  0
 27 53  1  0
 28 29  2  0
 28 54  1  0
 29 30  1  0
 29 55  1  0
 30 31  2  0
 30 56  1  0
 31 57  1  0
 32 33  1  0
 32 58  1  0
 32 59  1  0
 33 60  1  0
 33 61  1  0
 34 62  1  0
M  CHG  1  11   1
M  END
>  <DOCK_score>  (1) 
-44.563896

>  <SMILES>  (1) 
COc1cccc(C2=CC[N@@H+](C(Cc3cccc4c3NC(=O)CO4)c3ccccc3)CC2)c1

$$$$
