CCc1ccc(-c2c[nH]c(N[C@@H](C=Cc3ccc(OC)cc3)c3ccccc3)[nH+]2)cc1
     RDKit          3D

 59 62  0  0  1  0  0  0  0  0999 V2000
  130.6634  128.5710  151.8833 C   0  0  0  0  0  0  0  0  0  0  0  0
  131.6059  129.7433  152.1629 C   0  0  0  0  0  0  0  0  0  0  0  0
  131.1665  130.4530  153.4177 C   0  0  0  0  0  0  0  0  0  0  0  0
  131.6684  130.0577  154.6441 C   0  0  0  0  0  0  0  0  0  0  0  0
  131.2741  130.7076  155.7961 C   0  0  0  0  0  0  0  0  0  0  0  0
  130.3596  131.7567  155.7228 C   0  0  0  0  0  0  0  0  0  0  0  0
  129.9277  132.4554  156.9580 C   0  0  0  0  0  0  0  0  0  0  0  0
  129.3087  131.8863  158.0220 C   0  0  0  0  0  0  0  0  0  0  0  0
  129.0902  132.8864  158.9379 N   0  0  0  0  0  0  0  0  0  0  0  0
  128.6635  132.7895  159.8036 H   0  0  0  0  0  0  0  0  0  0  0  0
  129.5826  134.0385  158.4065 C   0  0  0  0  0  0  0  0  0  0  0  0
  129.5594  135.2817  159.0151 N   0  0  0  0  0  0  0  0  0  0  0  0
  128.4808  135.6213  159.9464 C   0  0  1  0  0  0  0  0  0  0  0  0
  128.4868  134.9198  160.7806 H   0  0  0  0  0  0  0  0  0  0  0  0
  128.6873  137.0210  160.4655 C   0  0  0  0  0  0  0  0  0  0  0  0
  128.2643  137.3471  161.6791 C   0  0  0  0  0  0  0  0  0  0  0  0
  128.4668  138.7195  162.1881 C   0  0  0  0  0  0  0  0  0  0  0  0
  129.4357  139.5433  161.6128 C   0  0  0  0  0  0  0  0  0  0  0  0
  129.6183  140.8247  162.0872 C   0  0  0  0  0  0  0  0  0  0  0  0
  128.8475  141.2927  163.1426 C   0  0  0  0  0  0  0  0  0  0  0  0
  129.0341  142.5541  163.6116 O   0  0  0  0  0  0  0  0  0  0  0  0
  128.2069  142.9712  164.6996 C   0  0  0  0  0  0  0  0  0  0  0  0
  127.8860  140.4743  163.7215 C   0  0  0  0  0  0  0  0  0  0  0  0
  127.6938  139.1935  163.2492 C   0  0  0  0  0  0  0  0  0  0  0  0
  127.1563  135.5410  159.2320 C   0  0  0  0  0  0  0  0  0  0  0  0
  126.0140  135.1967  159.9303 C   0  0  0  0  0  0  0  0  0  0  0  0
  124.7985  135.1270  159.2757 C   0  0  0  0  0  0  0  0  0  0  0  0
  124.7265  135.3933  157.9212 C   0  0  0  0  0  0  0  0  0  0  0  0
  125.8697  135.7323  157.2218 C   0  0  0  0  0  0  0  0  0  0  0  0
  127.0847  135.8059  157.8772 C   0  0  0  0  0  0  0  0  0  0  0  0
  130.0874  133.7758  157.2257 N   0  0  0  0  0  0  0  0  0  0  0  0
  130.5061  134.4226  156.6365 H   0  0  0  0  0  0  0  0  0  0  0  0
  129.8526  132.1473  154.4847 C   0  0  0  0  0  0  0  0  0  0  0  0
  130.2584  131.4940  153.3387 C   0  0  0  0  0  0  0  0  0  0  0  0
  129.6475  128.9441  151.7533 H   0  0  0  0  0  0  0  0  0  0  0  0
  130.9810  128.0579  150.9757 H   0  0  0  0  0  0  0  0  0  0  0  0
  130.6905  127.8757  152.7223 H   0  0  0  0  0  0  0  0  0  0  0  0
  132.6214  129.3709  152.2924 H   0  0  0  0  0  0  0  0  0  0  0  0
  131.5784  130.4393  151.3235 H   0  0  0  0  0  0  0  0  0  0  0  0
  132.3734  129.2415  154.7001 H   0  0  0  0  0  0  0  0  0  0  0  0
  131.6702  130.4010  156.7529 H   0  0  0  0  0  0  0  0  0  0  0  0
  129.0388  130.8460  158.1285 H   0  0  0  0  0  0  0  0  0  0  0  0
  130.2574  135.9278  158.8249 H   0  0  0  0  0  0  0  0  0  0  0  0
  129.1799  137.7583  159.8490 H   0  0  0  0  0  0  0  0  0  0  0  0
  127.7718  136.6097  162.2955 H   0  0  0  0  0  0  0  0  0  0  0  0
  130.0387  139.1787  160.7943 H   0  0  0  0  0  0  0  0  0  0  0  0
  130.3653  141.4640  161.6402 H   0  0  0  0  0  0  0  0  0  0  0  0
  127.1601  142.9224  164.3996 H   0  0  0  0  0  0  0  0  0  0  0  0
  128.3712  142.3141  165.5537 H   0  0  0  0  0  0  0  0  0  0  0  0
  128.4585  143.9953  164.9755 H   0  0  0  0  0  0  0  0  0  0  0  0
  127.2885  140.8415  164.5426 H   0  0  0  0  0  0  0  0  0  0  0  0
  126.9462  138.5576  163.6999 H   0  0  0  0  0  0  0  0  0  0  0  0
  126.0707  134.9855  160.9879 H   0  0  0  0  0  0  0  0  0  0  0  0
  123.9053  134.8618  159.8221 H   0  0  0  0  0  0  0  0  0  0  0  0
  123.7773  135.3361  157.4093 H   0  0  0  0  0  0  0  0  0  0  0  0
  125.8137  135.9399  156.1635 H   0  0  0  0  0  0  0  0  0  0  0  0
  127.9777  136.0708  157.3308 H   0  0  0  0  0  0  0  0  0  0  0  0
  129.1435  132.9595  154.4221 H   0  0  0  0  0  0  0  0  0  0  0  0
  129.8660  131.7956  152.3787 H   0  0  0  0  0  0  0  0  0  0  0  0
  1  2  1  0
  1 35  1  0
  1 36  1  0
  1 37  1  0
  2  3  1  0
  2 38  1  0
  2 39  1  0
  3 34  2  0
  3  4  1  0
  4  5  2  0
  4 40  1  0
  5  6  1  0
  5 41  1  0
  6  7  1  0
  6 33  2  0
  7 31  1  0
  7  8  2  0
  8  9  1  0
  8 42  1  0
  9 10  1  0
  9 11  1  0
 11 12  1  0
 11 31  2  0
 12 13  1  0
 12 43  1  0
 13 14  1  1
 13 15  1  0
 13 25  1  0
 15 16  2  0
 15 44  1  0
 16 17  1  0
 16 45  1  0
 17 24  1  0
 17 18  2  0
 18 19  1  0
 18 46  1  0
 19 20  2  0
 19 47  1  0
 20 21  1  0
 20 23  1  0
 21 22  1  0
 22 48  1  0
 22 49  1  0
 22 50  1  0
 23 24  2  0
 23 51  1  0
 24 52  1  0
 25 30  1  0
 25 26  2  0
 26 27  1  0
 26 53  1  0
 27 28  2  0
 27 54  1  0
 28 29  1  0
 28 55  1  0
 29 30  2  0
 29 56  1  0
 30 57  1  0
 31 32  1  0
 33 34  1  0
 33 58  1  0
 34 59  1  0
M  CHG  1  31   1
M  END
>  <DOCK_score>  (1) 
-56.508423

>  <SMILES>  (1) 
CCc1ccc(-c2c[nH]c(N[C@@H](C=Cc3ccc(OC)cc3)c3ccccc3)[nH+]2)cc1

$$$$
