CSc1ccc(N)cc1Nc1[nH]cc(-c2ccncc2)[nH+]1
     RDKit          3D

 37 39  0  0  1  0  0  0  0  0999 V2000
  129.7143  131.8775  156.9250 C   0  0  0  0  0  0  0  0  0  0  0  0
  130.3264  132.6441  158.4509 S   0  0  0  0  0  0  0  0  0  0  0  0
  128.8754  133.3676  159.1405 C   0  0  0  0  0  0  0  0  0  0  0  0
  127.7896  132.5689  159.4675 C   0  0  0  0  0  0  0  0  0  0  0  0
  126.6488  133.1365  160.0031 C   0  0  0  0  0  0  0  0  0  0  0  0
  126.5880  134.5069  160.2200 C   0  0  0  0  0  0  0  0  0  0  0  0
  125.4307  135.0784  160.7619 N   0  0  0  0  0  0  0  0  0  0  0  0
  127.6737  135.3104  159.8997 C   0  0  0  0  0  0  0  0  0  0  0  0
  128.8194  134.7436  159.3627 C   0  0  0  0  0  0  0  0  0  0  0  0
  129.9161  135.5517  159.0385 N   0  0  0  0  0  0  0  0  0  0  0  0
  130.5430  136.2959  160.0239 C   0  0  0  0  0  0  0  0  0  0  0  0
  130.1867  136.3327  161.3376 N   0  0  0  0  0  0  0  0  0  0  0  0
  129.4550  135.8457  161.7480 H   0  0  0  0  0  0  0  0  0  0  0  0
  131.0535  137.1845  161.9738 C   0  0  0  0  0  0  0  0  0  0  0  0
  131.9157  137.6451  161.0325 C   0  0  0  0  0  0  0  0  0  0  0  0
  133.0296  138.5960  161.2603 C   0  0  0  0  0  0  0  0  0  0  0  0
  134.1866  138.5486  160.4757 C   0  0  0  0  0  0  0  0  0  0  0  0
  135.1984  139.4528  160.7211 C   0  0  0  0  0  0  0  0  0  0  0  0
  135.0855  140.3523  161.6802 N   0  0  0  0  0  0  0  0  0  0  0  0
  134.0116  140.4305  162.4432 C   0  0  0  0  0  0  0  0  0  0  0  0
  132.9525  139.5654  162.2656 C   0  0  0  0  0  0  0  0  0  0  0  0
  131.5736  137.0855  159.8447 N   0  0  0  0  0  0  0  0  0  0  0  0
  132.0218  137.2428  158.9988 H   0  0  0  0  0  0  0  0  0  0  0  0
  129.2820  132.6437  156.2814 H   0  0  0  0  0  0  0  0  0  0  0  0
  130.5404  131.3911  156.4061 H   0  0  0  0  0  0  0  0  0  0  0  0
  128.9532  131.1369  157.1703 H   0  0  0  0  0  0  0  0  0  0  0  0
  127.8339  131.5030  159.2991 H   0  0  0  0  0  0  0  0  0  0  0  0
  125.8031  132.5132  160.2531 H   0  0  0  0  0  0  0  0  0  0  0  0
  125.3876  136.0355  160.9133 H   0  0  0  0  0  0  0  0  0  0  0  0
  124.6718  134.5173  160.9860 H   0  0  0  0  0  0  0  0  0  0  0  0
  127.6260  136.3761  160.0690 H   0  0  0  0  0  0  0  0  0  0  0  0
  130.2367  135.5903  158.1239 H   0  0  0  0  0  0  0  0  0  0  0  0
  131.0507  137.4393  163.0232 H   0  0  0  0  0  0  0  0  0  0  0  0
  134.2856  137.8154  159.6890 H   0  0  0  0  0  0  0  0  0  0  0  0
  136.0936  139.4272  160.1174 H   0  0  0  0  0  0  0  0  0  0  0  0
  133.9613  141.1826  163.2168 H   0  0  0  0  0  0  0  0  0  0  0  0
  132.0764  139.6356  162.8931 H   0  0  0  0  0  0  0  0  0  0  0  0
  1  2  1  0
  1 24  1  0
  1 25  1  0
  1 26  1  0
  2  3  1  0
  3  9  2  0
  3  4  1  0
  4  5  2  0
  4 27  1  0
  5  6  1  0
  5 28  1  0
  6  7  1  0
  6  8  2  0
  7 29  1  0
  7 30  1  0
  8  9  1  0
  8 31  1  0
  9 10  1  0
 10 32  1  0
 11 10  1  0
 11 22  2  0
 11 12  1  0
 12 13  1  0
 12 14  1  0
 14 15  2  0
 14 33  1  0
 15 16  1  0
 15 22  1  0
 16 21  1  0
 16 17  2  0
 17 18  1  0
 17 34  1  0
 18 19  2  0
 18 35  1  0
 19 20  1  0
 20 21  2  0
 20 36  1  0
 21 37  1  0
 22 23  1  0
M  CHG  1  22   1
M  END
>  <DOCK_score>  (1) 
-44.859592

>  <SMILES>  (1) 
CSc1ccc(N)cc1Nc1[nH]cc(-c2ccncc2)[nH+]1

$$$$
