Cc1ccc(C[NH+]=C(NC[C@H]2CC(O)C2(C)C)NC2CCCCC2)cc1-c1ccccc1
     RDKit          3D

 72 75  0  0  1  0  0  0  0  0999 V2000
  135.4275  139.4568  165.1280 C   0  0  0  0  0  0  0  0  0  0  0  0
  134.5817  138.7571  164.0956 C   0  0  0  0  0  0  0  0  0  0  0  0
  133.3546  139.2786  163.7381 C   0  0  0  0  0  0  0  0  0  0  0  0
  132.5799  138.6407  162.7866 C   0  0  0  0  0  0  0  0  0  0  0  0
  133.0248  137.4717  162.1954 C   0  0  0  0  0  0  0  0  0  0  0  0
  132.1726  136.7795  161.1630 C   0  0  0  0  0  0  0  0  0  0  0  0
  130.7848  136.7285  161.6299 N   0  0  0  0  0  0  0  0  0  0  0  0
  130.5480  137.1106  162.4894 H   0  0  0  0  0  0  0  0  0  0  0  0
  129.8686  136.1697  160.8903 C   0  0  0  0  0  0  0  0  0  0  0  0
  128.5663  136.1220  161.3283 N   0  0  0  0  0  0  0  0  0  0  0  0
  128.2086  136.6992  162.6265 C   0  0  0  0  0  0  0  0  0  0  0  0
  126.7096  136.5141  162.8712 C   0  0  1  0  0  0  0  0  0  0  0  0
  126.0941  136.9965  162.1120 H   0  0  0  0  0  0  0  0  0  0  0  0
  126.3072  135.0575  163.1565 C   0  0  0  0  0  0  0  0  0  0  0  0
  125.3438  135.6143  164.2180 C   0  0  2  0  0  0  0  0  0  0  0  0
  124.0455  135.9230  163.7070 O   0  0  0  0  0  0  0  0  0  0  0  0
  126.2768  136.8331  164.3120 C   0  0  0  0  0  0  0  0  0  0  0  0
  127.3983  136.6687  165.3396 C   0  0  0  0  0  0  0  0  0  0  0  0
  125.5345  138.1640  164.4484 C   0  0  0  0  0  0  0  0  0  0  0  0
  130.2043  135.6282  159.6720 N   0  0  0  0  0  0  0  0  0  0  0  0
  129.4510  134.4878  159.1446 C   0  0  0  0  0  0  0  0  0  0  0  0
  129.5617  133.3105  160.1155 C   0  0  0  0  0  0  0  0  0  0  0  0
  128.7750  132.1195  159.5647 C   0  0  0  0  0  0  0  0  0  0  0  0
  129.3478  131.7148  158.2050 C   0  0  0  0  0  0  0  0  0  0  0  0
  129.2371  132.8921  157.2340 C   0  0  0  0  0  0  0  0  0  0  0  0
  130.0238  134.0831  157.7848 C   0  0  0  0  0  0  0  0  0  0  0  0
  134.2498  136.9415  162.5450 C   0  0  0  0  0  0  0  0  0  0  0  0
  135.0369  137.5831  163.4994 C   0  0  0  0  0  0  0  0  0  0  0  0
  136.3551  137.0174  163.8800 C   0  0  0  0  0  0  0  0  0  0  0  0
  136.4351  135.7395  164.4296 C   0  0  0  0  0  0  0  0  0  0  0  0
  137.6642  135.2161  164.7768 C   0  0  0  0  0  0  0  0  0  0  0  0
  138.8141  135.9619  164.5894 C   0  0  0  0  0  0  0  0  0  0  0  0
  138.7398  137.2332  164.0496 C   0  0  0  0  0  0  0  0  0  0  0  0
  137.5166  137.7644  163.6940 C   0  0  0  0  0  0  0  0  0  0  0  0
  136.0813  140.1763  164.6352 H   0  0  0  0  0  0  0  0  0  0  0  0
  134.7813  139.9774  165.8349 H   0  0  0  0  0  0  0  0  0  0  0  0
  136.0317  138.7225  165.6609 H   0  0  0  0  0  0  0  0  0  0  0  0
  133.0005  140.1886  164.1998 H   0  0  0  0  0  0  0  0  0  0  0  0
  131.6224  139.0546  162.5067 H   0  0  0  0  0  0  0  0  0  0  0  0
  132.5413  135.7654  161.0082 H   0  0  0  0  0  0  0  0  0  0  0  0
  132.2200  137.3306  160.2239 H   0  0  0  0  0  0  0  0  0  0  0  0
  127.8844  135.7062  160.7779 H   0  0  0  0  0  0  0  0  0  0  0  0
  128.7701  136.1971  163.4145 H   0  0  0  0  0  0  0  0  0  0  0  0
  128.4488  137.7623  162.6301 H   0  0  0  0  0  0  0  0  0  0  0  0
  125.8030  134.5723  162.3208 H   0  0  0  0  0  0  0  0  0  0  0  0
  127.1145  134.4550  163.5726 H   0  0  0  0  0  0  0  0  0  0  0  0
  125.3090  135.0196  165.1309 H   0  0  0  0  0  0  0  0  0  0  0  0
  124.0550  136.3389  162.8340 H   0  0  0  0  0  0  0  0  0  0  0  0
  128.2238  137.3338  165.0861 H   0  0  0  0  0  0  0  0  0  0  0  0
  127.0217  136.9185  166.3315 H   0  0  0  0  0  0  0  0  0  0  0  0
  127.7483  135.6364  165.3333 H   0  0  0  0  0  0  0  0  0  0  0  0
  124.6335  138.1420  163.8353 H   0  0  0  0  0  0  0  0  0  0  0  0
  125.2603  138.3219  165.4916 H   0  0  0  0  0  0  0  0  0  0  0  0
  126.1807  138.9762  164.1156 H   0  0  0  0  0  0  0  0  0  0  0  0
  130.9401  136.0012  159.1617 H   0  0  0  0  0  0  0  0  0  0  0  0
  128.4035  134.7663  159.0292 H   0  0  0  0  0  0  0  0  0  0  0  0
  129.1537  133.5989  161.0842 H   0  0  0  0  0  0  0  0  0  0  0  0
  130.6092  133.0320  160.2309 H   0  0  0  0  0  0  0  0  0  0  0  0
  128.8538  131.2809  160.2565 H   0  0  0  0  0  0  0  0  0  0  0  0
  127.7275  132.3981  159.4493 H   0  0  0  0  0  0  0  0  0  0  0  0
  130.3953  131.4363  158.3203 H   0  0  0  0  0  0  0  0  0  0  0  0
  128.7873  130.8663  157.8126 H   0  0  0  0  0  0  0  0  0  0  0  0
  128.1895  133.1706  157.1187 H   0  0  0  0  0  0  0  0  0  0  0  0
  129.6452  132.6036  156.2654 H   0  0  0  0  0  0  0  0  0  0  0  0
  129.9449  134.9218  157.0932 H   0  0  0  0  0  0  0  0  0  0  0  0
  131.0713  133.8045  157.9002 H   0  0  0  0  0  0  0  0  0  0  0  0
  134.5978  136.0309  162.0803 H   0  0  0  0  0  0  0  0  0  0  0  0
  135.5376  135.1581  164.5800 H   0  0  0  0  0  0  0  0  0  0  0  0
  137.7278  134.2244  165.1991 H   0  0  0  0  0  0  0  0  0  0  0  0
  139.7733  135.5502  164.8664 H   0  0  0  0  0  0  0  0  0  0  0  0
  139.6407  137.8113  163.9060 H   0  0  0  0  0  0  0  0  0  0  0  0
  137.4596  138.7569  163.2721 H   0  0  0  0  0  0  0  0  0  0  0  0
  1  2  1  0
  1 35  1  0
  1 36  1  0
  1 37  1  0
  2 28  2  0
  2  3  1  0
  3  4  2  0
  3 38  1  0
  4  5  1  0
  4 39  1  0
  5  6  1  0
  5 27  2  0
  6  7  1  0
  6 40  1  0
  6 41  1  0
  7  8  1  0
  9  7  2  0
  9 10  1  0
  9 20  1  0
 10 11  1  0
 10 42  1  0
 11 12  1  0
 11 43  1  0
 11 44  1  0
 12 13  1  6
 12 17  1  0
 12 14  1  0
 14 15  1  0
 14 45  1  0
 14 46  1  0
 15 16  1  0
 15 17  1  0
 15 47  1  1
 16 48  1  0
 17 18  1  0
 17 19  1  0
 18 49  1  0
 18 50  1  0
 18 51  1  0
 19 52  1  0
 19 53  1  0
 19 54  1  0
 20 21  1  0
 20 55  1  0
 21 26  1  0
 21 22  1  0
 21 56  1  0
 22 23  1  0
 22 57  1  0
 22 58  1  0
 23 24  1  0
 23 59  1  0
 23 60  1  0
 24 25  1  0
 24 61  1  0
 24 62  1  0
 25 26  1  0
 25 63  1  0
 25 64  1  0
 26 65  1  0
 26 66  1  0
 27 28  1  0
 27 67  1  0
 28 29  1  0
 29 34  1  0
 29 30  2  0
 30 31  1  0
 30 68  1  0
 31 32  2  0
 31 69  1  0
 32 33  1  0
 32 70  1  0
 33 34  2  0
 33 71  1  0
 34 72  1  0
M  CHG  1   7   1
M  END
>  <DOCK_score>  (1) 
-41.451817

>  <SMILES>  (1) 
Cc1ccc(C[NH+]=C(NC[C@H]2CC(O)C2(C)C)NC2CCCCC2)cc1-c1ccccc1

$$$$
