O=C1CC[C@H](NC(NC2CC=CC2)=[NH+]CCc2cccc3c2OCCC3)CN1
     RDKit          3D

 59 62  0  0  1  0  0  0  0  0999 V2000
  124.0729  134.0488  161.5066 O   0  0  0  0  0  0  0  0  0  0  0  0
  125.2587  134.2642  161.3717 C   0  0  0  0  0  0  0  0  0  0  0  0
  126.1461  133.1239  160.9625 C   0  0  0  0  0  0  0  0  0  0  0  0
  127.6069  133.4658  161.2660 C   0  0  0  0  0  0  0  0  0  0  0  0
  127.9035  134.8636  160.7095 C   0  0  2  0  0  0  0  0  0  0  0  0
  127.6083  134.9128  159.6614 H   0  0  0  0  0  0  0  0  0  0  0  0
  129.3356  135.1472  160.8306 N   0  0  0  0  0  0  0  0  0  0  0  0
  130.1917  134.8117  159.8085 C   0  0  0  0  0  0  0  0  0  0  0  0
  129.7038  134.2100  158.6726 N   0  0  0  0  0  0  0  0  0  0  0  0
  130.5497  133.2876  157.9114 C   0  0  0  0  0  0  0  0  0  0  0  0
  130.8175  131.9915  158.7114 C   0  0  0  0  0  0  0  0  0  0  0  0
  130.8045  130.8894  157.6777 C   0  0  0  0  0  0  0  0  0  0  0  0
  130.2487  131.2926  156.5677 C   0  0  0  0  0  0  0  0  0  0  0  0
  129.7983  132.7309  156.6760 C   0  0  0  0  0  0  0  0  0  0  0  0
  131.4659  135.0641  159.9162 N   0  0  0  0  0  0  0  0  0  0  0  0
  132.0698  134.8274  159.1950 H   0  0  0  0  0  0  0  0  0  0  0  0
  131.9859  135.7053  161.1264 C   0  0  0  0  0  0  0  0  0  0  0  0
  133.4996  135.8865  160.9975 C   0  0  0  0  0  0  0  0  0  0  0  0
  134.0345  136.5461  162.2423 C   0  0  0  0  0  0  0  0  0  0  0  0
  134.4550  135.7719  163.3047 C   0  0  0  0  0  0  0  0  0  0  0  0
  134.9460  136.3756  164.4473 C   0  0  0  0  0  0  0  0  0  0  0  0
  135.0134  137.7531  164.5257 C   0  0  0  0  0  0  0  0  0  0  0  0
  134.5926  138.5351  163.4635 C   0  0  0  0  0  0  0  0  0  0  0  0
  134.1082  137.9333  162.3148 C   0  0  0  0  0  0  0  0  0  0  0  0
  133.6898  138.6615  161.2471 O   0  0  0  0  0  0  0  0  0  0  0  0
  133.4105  140.0472  161.4512 C   0  0  0  0  0  0  0  0  0  0  0  0
  134.5936  140.6741  162.2000 C   0  0  0  0  0  0  0  0  0  0  0  0
  134.6768  140.0352  163.5885 C   0  0  0  0  0  0  0  0  0  0  0  0
  127.1072  135.8906  161.5155 C   0  0  0  0  0  0  0  0  0  0  0  0
  125.7049  135.5010  161.5944 N   0  0  0  0  0  0  0  0  0  0  0  0
  125.8620  132.2278  161.5141 H   0  0  0  0  0  0  0  0  0  0  0  0
  126.0315  132.9413  159.8940 H   0  0  0  0  0  0  0  0  0  0  0  0
  128.2613  132.7352  160.7906 H   0  0  0  0  0  0  0  0  0  0  0  0
  127.7690  133.4579  162.3438 H   0  0  0  0  0  0  0  0  0  0  0  0
  129.6800  135.5716  161.6320 H   0  0  0  0  0  0  0  0  0  0  0  0
  128.7996  134.3964  158.3752 H   0  0  0  0  0  0  0  0  0  0  0  0
  131.4840  133.7667  157.6187 H   0  0  0  0  0  0  0  0  0  0  0  0
  130.0305  131.8305  159.4480 H   0  0  0  0  0  0  0  0  0  0  0  0
  131.7901  132.0416  159.2009 H   0  0  0  0  0  0  0  0  0  0  0  0
  131.2031  129.8983  157.8365 H   0  0  0  0  0  0  0  0  0  0  0  0
  130.1264  130.6789  155.6876 H   0  0  0  0  0  0  0  0  0  0  0  0
  130.0786  133.2851  155.7801 H   0  0  0  0  0  0  0  0  0  0  0  0
  128.7205  132.7808  156.8306 H   0  0  0  0  0  0  0  0  0  0  0  0
  131.5129  136.6790  161.2536 H   0  0  0  0  0  0  0  0  0  0  0  0
  131.7673  135.0795  161.9917 H   0  0  0  0  0  0  0  0  0  0  0  0
  133.9727  134.9127  160.8705 H   0  0  0  0  0  0  0  0  0  0  0  0
  133.7182  136.5123  160.1321 H   0  0  0  0  0  0  0  0  0  0  0  0
  134.4007  134.6950  163.2431 H   0  0  0  0  0  0  0  0  0  0  0  0
  135.2764  135.7703  165.2785 H   0  0  0  0  0  0  0  0  0  0  0  0
  135.3966  138.2223  165.4199 H   0  0  0  0  0  0  0  0  0  0  0  0
  132.5021  140.1553  162.0439 H   0  0  0  0  0  0  0  0  0  0  0  0
  133.2821  140.5415  160.4883 H   0  0  0  0  0  0  0  0  0  0  0  0
  134.4382  141.7484  162.2986 H   0  0  0  0  0  0  0  0  0  0  0  0
  135.5171  140.4852  161.6528 H   0  0  0  0  0  0  0  0  0  0  0  0
  133.8515  140.3947  164.2033 H   0  0  0  0  0  0  0  0  0  0  0  0
  135.6229  140.3077  164.0563 H   0  0  0  0  0  0  0  0  0  0  0  0
  127.5199  135.9570  162.5222 H   0  0  0  0  0  0  0  0  0  0  0  0
  127.1838  136.8650  161.0331 H   0  0  0  0  0  0  0  0  0  0  0  0
  125.0555  136.1842  161.8236 H   0  0  0  0  0  0  0  0  0  0  0  0
  1  2  2  0
  2 30  1  0
  2  3  1  0
  3  4  1  0
  3 31  1  0
  3 32  1  0
  4  5  1  0
  4 33  1  0
  4 34  1  0
  5  6  1  6
  5  7  1  0
  5 29  1  0
  7 35  1  0
  8  7  1  0
  8  9  1  0
  8 15  2  0
  9 10  1  0
  9 36  1  0
 10 14  1  0
 10 11  1  0
 10 37  1  0
 11 12  1  0
 11 38  1  0
 11 39  1  0
 12 13  2  0
 12 40  1  0
 13 14  1  0
 13 41  1  0
 14 42  1  0
 14 43  1  0
 15 16  1  0
 15 17  1  0
 17 18  1  0
 17 44  1  0
 17 45  1  0
 18 19  1  0
 18 46  1  0
 18 47  1  0
 19 24  1  0
 19 20  2  0
 20 21  1  0
 20 48  1  0
 21 22  2  0
 21 49  1  0
 22 23  1  0
 22 50  1  0
 23 28  1  0
 23 24  2  0
 24 25  1  0
 25 26  1  0
 26 27  1  0
 26 51  1  0
 26 52  1  0
 27 28  1  0
 27 53  1  0
 27 54  1  0
 28 55  1  0
 28 56  1  0
 29 30  1  0
 29 57  1  0
 29 58  1  0
 30 59  1  0
M  CHG  1  15   1
M  END
>  <DOCK_score>  (1) 
-45.898319

>  <SMILES>  (1) 
O=C1CC[C@H](NC(NC2CC=CC2)=[NH+]CCc2cccc3c2OCCC3)CN1

$$$$
