Cc1ccc(N)cc1NC(=O)[C@@H](Cc1cnn(C)c1)Nc1[nH]c2ccccc2[nH+]1
     RDKit          3D

 53 56  0  0  1  0  0  0  0  0999 V2000
  134.8437  138.9227  158.4886 C   0  0  0  0  0  0  0  0  0  0  0  0
  134.9805  139.2790  159.9464 C   0  0  0  0  0  0  0  0  0  0  0  0
  136.0661  140.0177  160.3773 C   0  0  0  0  0  0  0  0  0  0  0  0
  136.1982  140.3416  161.7136 C   0  0  0  0  0  0  0  0  0  0  0  0
  135.2365  139.9291  162.6284 C   0  0  0  0  0  0  0  0  0  0  0  0
  135.3711  140.2561  163.9797 N   0  0  0  0  0  0  0  0  0  0  0  0
  134.1426  139.1918  162.1979 C   0  0  0  0  0  0  0  0  0  0  0  0
  134.0129  138.8687  160.8547 C   0  0  0  0  0  0  0  0  0  0  0  0
  132.9114  138.1253  160.4164 N   0  0  0  0  0  0  0  0  0  0  0  0
  132.3241  137.2388  161.2445 C   0  0  0  0  0  0  0  0  0  0  0  0
  132.7505  137.0853  162.3695 O   0  0  0  0  0  0  0  0  0  0  0  0
  131.1417  136.4338  160.7704 C   0  0  1  0  0  0  0  0  0  0  0  0
  130.8082  135.7726  161.5701 H   0  0  0  0  0  0  0  0  0  0  0  0
  130.0033  137.3797  160.3826 C   0  0  0  0  0  0  0  0  0  0  0  0
  128.8208  136.5746  159.9085 C   0  0  0  0  0  0  0  0  0  0  0  0
  128.5708  136.1772  158.5909 C   0  0  0  0  0  0  0  0  0  0  0  0
  127.4553  135.4936  158.5748 N   0  0  0  0  0  0  0  0  0  0  0  0
  126.9545  135.4428  159.8821 N   0  0  0  0  0  0  0  0  0  0  0  0
  125.7191  134.7795  160.3064 C   0  0  0  0  0  0  0  0  0  0  0  0
  127.8104  136.1135  160.6812 C   0  0  0  0  0  0  0  0  0  0  0  0
  131.5305  135.6344  159.6059 N   0  0  0  0  0  0  0  0  0  0  0  0
  131.4383  134.2634  159.6516 C   0  0  0  0  0  0  0  0  0  0  0  0
  131.7584  133.4440  158.6525 N   0  0  0  0  0  0  0  0  0  0  0  0
  132.0910  133.7139  157.7823 H   0  0  0  0  0  0  0  0  0  0  0  0
  131.5415  132.1548  159.0626 C   0  0  0  0  0  0  0  0  0  0  0  0
  131.6980  130.9119  158.4559 C   0  0  0  0  0  0  0  0  0  0  0  0
  131.3764  129.7656  159.1498 C   0  0  0  0  0  0  0  0  0  0  0  0
  130.8976  129.8411  160.4495 C   0  0  0  0  0  0  0  0  0  0  0  0
  130.7366  131.0634  161.0650 C   0  0  0  0  0  0  0  0  0  0  0  0
  131.0565  132.2312  160.3785 C   0  0  0  0  0  0  0  0  0  0  0  0
  131.0104  133.5625  160.6993 N   0  0  0  0  0  0  0  0  0  0  0  0
  130.7155  133.9318  161.5464 H   0  0  0  0  0  0  0  0  0  0  0  0
  134.2883  139.7065  157.9735 H   0  0  0  0  0  0  0  0  0  0  0  0
  135.8340  138.8266  158.0434 H   0  0  0  0  0  0  0  0  0  0  0  0
  134.3096  137.9772  158.3942 H   0  0  0  0  0  0  0  0  0  0  0  0
  136.8150  140.3387  159.6685 H   0  0  0  0  0  0  0  0  0  0  0  0
  137.0497  140.9154  162.0479 H   0  0  0  0  0  0  0  0  0  0  0  0
  134.6998  139.9677  164.6177 H   0  0  0  0  0  0  0  0  0  0  0  0
  136.1360  140.7715  164.2800 H   0  0  0  0  0  0  0  0  0  0  0  0
  133.3937  138.8704  162.9065 H   0  0  0  0  0  0  0  0  0  0  0  0
  132.5705  138.2482  159.5166 H   0  0  0  0  0  0  0  0  0  0  0  0
  129.7140  137.9745  161.2489 H   0  0  0  0  0  0  0  0  0  0  0  0
  130.3368  138.0410  159.5828 H   0  0  0  0  0  0  0  0  0  0  0  0
  129.1929  136.3945  157.7351 H   0  0  0  0  0  0  0  0  0  0  0  0
  124.8890  135.4831  160.2442 H   0  0  0  0  0  0  0  0  0  0  0  0
  125.5224  133.9271  159.6561 H   0  0  0  0  0  0  0  0  0  0  0  0
  125.8267  134.4345  161.3348 H   0  0  0  0  0  0  0  0  0  0  0  0
  127.7075  136.2561  161.7469 H   0  0  0  0  0  0  0  0  0  0  0  0
  131.8530  136.0724  158.8027 H   0  0  0  0  0  0  0  0  0  0  0  0
  132.0706  130.8461  157.4444 H   0  0  0  0  0  0  0  0  0  0  0  0
  131.4984  128.8015  158.6785 H   0  0  0  0  0  0  0  0  0  0  0  0
  130.6488  128.9354  160.9826 H   0  0  0  0  0  0  0  0  0  0  0  0
  130.3637  131.1153  162.0772 H   0  0  0  0  0  0  0  0  0  0  0  0
  1  2  1  0
  1 33  1  0
  1 34  1  0
  1 35  1  0
  2  8  2  0
  2  3  1  0
  3  4  2  0
  3 36  1  0
  4  5  1  0
  4 37  1  0
  5  6  1  0
  5  7  2  0
  6 38  1  0
  6 39  1  0
  7  8  1  0
  7 40  1  0
  8  9  1  0
  9 10  1  0
  9 41  1  0
 10 11  2  0
 10 12  1  0
 12 13  1  1
 12 14  1  0
 12 21  1  0
 14 15  1  0
 14 42  1  0
 14 43  1  0
 15 20  2  0
 15 16  1  0
 16 17  2  0
 16 44  1  0
 17 18  1  0
 18 19  1  0
 18 20  1  0
 19 45  1  0
 19 46  1  0
 19 47  1  0
 20 48  1  0
 21 22  1  0
 21 49  1  0
 22 31  1  0
 22 23  2  0
 23 24  1  0
 23 25  1  0
 25 30  2  0
 25 26  1  0
 26 27  2  0
 26 50  1  0
 27 28  1  0
 27 51  1  0
 28 29  2  0
 28 52  1  0
 29 30  1  0
 29 53  1  0
 30 31  1  0
 31 32  1  0
M  CHG  1  23   1
M  END
>  <DOCK_score>  (1) 
-61.395931

>  <SMILES>  (1) 
Cc1ccc(N)cc1NC(=O)[C@@H](Cc1cnn(C)c1)Nc1[nH]c2ccccc2[nH+]1

$$$$
