Cc1c(N)cccc1[C@H](Nc1[nH]cc(-c2cccnc2)[nH+]1)c1ccncn1
     RDKit          3D

 47 50  0  0  1  0  0  0  0  0999 V2000
  133.1168  136.1803  160.3223 C   0  0  0  0  0  0  0  0  0  0  0  0
  132.2400  137.4033  160.4030 C   0  0  0  0  0  0  0  0  0  0  0  0
  132.8135  138.6642  160.5090 C   0  0  0  0  0  0  0  0  0  0  0  0
  134.2031  138.8009  160.5409 N   0  0  0  0  0  0  0  0  0  0  0  0
  132.0018  139.7893  160.5774 C   0  0  0  0  0  0  0  0  0  0  0  0
  130.6278  139.6506  160.5452 C   0  0  0  0  0  0  0  0  0  0  0  0
  130.0604  138.3938  160.4444 C   0  0  0  0  0  0  0  0  0  0  0  0
  130.8657  137.2715  160.3761 C   0  0  0  0  0  0  0  0  0  0  0  0
  130.2428  135.9037  160.2660 C   0  0  2  0  0  0  0  0  0  0  0  0
  130.8966  135.1680  160.7343 H   0  0  0  0  0  0  0  0  0  0  0  0
  130.0581  135.5636  158.8530 N   0  0  0  0  0  0  0  0  0  0  0  0
  130.1076  134.2409  158.4473 C   0  0  0  0  0  0  0  0  0  0  0  0
  129.7560  133.1660  159.2040 N   0  0  0  0  0  0  0  0  0  0  0  0
  129.4280  133.1883  160.1166 H   0  0  0  0  0  0  0  0  0  0  0  0
  129.9485  132.0434  158.4359 C   0  0  0  0  0  0  0  0  0  0  0  0
  130.4195  132.4638  157.2358 C   0  0  0  0  0  0  0  0  0  0  0  0
  130.7760  131.5973  156.0858 C   0  0  0  0  0  0  0  0  0  0  0  0
  130.6430  132.0656  154.7754 C   0  0  0  0  0  0  0  0  0  0  0  0
  130.9934  131.2199  153.7373 C   0  0  0  0  0  0  0  0  0  0  0  0
  131.4498  129.9467  154.0266 C   0  0  0  0  0  0  0  0  0  0  0  0
  131.5601  129.5308  155.2733 N   0  0  0  0  0  0  0  0  0  0  0  0
  131.2436  130.3013  156.2939 C   0  0  0  0  0  0  0  0  0  0  0  0
  130.5065  133.8172  157.2728 N   0  0  0  0  0  0  0  0  0  0  0  0
  130.8149  134.3811  156.5463 H   0  0  0  0  0  0  0  0  0  0  0  0
  128.9061  135.9031  160.9618 C   0  0  0  0  0  0  0  0  0  0  0  0
  128.8175  136.1971  162.3135 C   0  0  0  0  0  0  0  0  0  0  0  0
  127.5664  136.1884  162.9094 C   0  0  0  0  0  0  0  0  0  0  0  0
  126.5058  135.8922  162.1752 N   0  0  0  0  0  0  0  0  0  0  0  0
  126.6287  135.6131  160.8931 C   0  0  0  0  0  0  0  0  0  0  0  0
  127.8016  135.6164  160.2918 N   0  0  0  0  0  0  0  0  0  0  0  0
  133.3124  135.8064  161.3273 H   0  0  0  0  0  0  0  0  0  0  0  0
  132.6124  135.4094  159.7398 H   0  0  0  0  0  0  0  0  0  0  0  0
  134.0598  136.4404  159.8414 H   0  0  0  0  0  0  0  0  0  0  0  0
  134.6024  139.6822  160.6109 H   0  0  0  0  0  0  0  0  0  0  0  0
  134.7689  138.0142  160.4970 H   0  0  0  0  0  0  0  0  0  0  0  0
  132.4444  140.7713  160.6554 H   0  0  0  0  0  0  0  0  0  0  0  0
  129.9960  140.5250  160.5983 H   0  0  0  0  0  0  0  0  0  0  0  0
  128.9859  138.2883  160.4194 H   0  0  0  0  0  0  0  0  0  0  0  0
  129.9008  136.2652  158.2020 H   0  0  0  0  0  0  0  0  0  0  0  0
  129.7639  131.0214  158.7324 H   0  0  0  0  0  0  0  0  0  0  0  0
  130.2797  133.0634  154.5780 H   0  0  0  0  0  0  0  0  0  0  0  0
  130.9069  131.5490  152.7123 H   0  0  0  0  0  0  0  0  0  0  0  0
  131.7205  129.2827  153.2188 H   0  0  0  0  0  0  0  0  0  0  0  0
  131.3478  129.9253  157.3010 H   0  0  0  0  0  0  0  0  0  0  0  0
  129.7018  136.4310  162.8877 H   0  0  0  0  0  0  0  0  0  0  0  0
  127.4588  136.4161  163.9595 H   0  0  0  0  0  0  0  0  0  0  0  0
  125.7448  135.3752  160.3199 H   0  0  0  0  0  0  0  0  0  0  0  0
  1  2  1  0
  1 31  1  0
  1 32  1  0
  1 33  1  0
  2  8  2  0
  2  3  1  0
  3  4  1  0
  3  5  2  0
  4 34  1  0
  4 35  1  0
  5  6  1  0
  5 36  1  0
  6  7  2  0
  6 37  1  0
  7  8  1  0
  7 38  1  0
  8  9  1  0
  9 10  1  1
  9 11  1  0
  9 25  1  0
 11 39  1  0
 12 11  1  0
 12 23  2  0
 12 13  1  0
 13 14  1  0
 13 15  1  0
 15 16  2  0
 15 40  1  0
 16 17  1  0
 16 23  1  0
 17 22  1  0
 17 18  2  0
 18 19  1  0
 18 41  1  0
 19 20  2  0
 19 42  1  0
 20 21  1  0
 20 43  1  0
 21 22  2  0
 22 44  1  0
 23 24  1  0
 25 30  1  0
 25 26  2  0
 26 27  1  0
 26 45  1  0
 27 28  2  0
 27 46  1  0
 28 29  1  0
 29 30  2  0
 29 47  1  0
M  CHG  1  23   1
M  END
>  <DOCK_score>  (1) 
-48.62167

>  <SMILES>  (1) 
Cc1c(N)cccc1[C@H](Nc1[nH]cc(-c2cccnc2)[nH+]1)c1ccncn1

$$$$
