O=C1Nc2ccccc2CCC1[NH+]1CCC[C@@H](Oc2n[nH]cc2Br)C1
     RDKit          3D

 47 50  0  0  1  0  0  0  0  0999 V2000
  126.8271  136.5670  163.2032 O   0  0  0  0  0  0  0  0  0  0  0  0
  127.7504  137.1685  162.6964 C   0  0  0  0  0  0  0  0  0  0  0  0
  127.8884  138.4167  163.0429 N   0  0  0  0  0  0  0  0  0  0  0  0
  128.6485  139.4854  162.6265 C   0  0  0  0  0  0  0  0  0  0  0  0
  128.3090  140.7165  163.2147 C   0  0  0  0  0  0  0  0  0  0  0  0
  128.9905  141.8688  162.9095 C   0  0  0  0  0  0  0  0  0  0  0  0
  130.0381  141.8233  162.0070 C   0  0  0  0  0  0  0  0  0  0  0  0
  130.3719  140.6255  161.4183 C   0  0  0  0  0  0  0  0  0  0  0  0
  129.6841  139.4486  161.7184 C   0  0  0  0  0  0  0  0  0  0  0  0
  130.1493  138.2292  160.9911 C   0  0  0  0  0  0  0  0  0  0  0  0
  129.0807  137.2556  160.6021 C   0  0  0  0  0  0  0  0  0  0  0  0
  128.5996  136.4000  161.7488 C   0  0  2  0  0  0  0  0  0  0  0  0
  127.8208  135.2758  161.2127 N   0  0  1  0  0  0  0  0  0  0  0  0
  127.2630  134.8721  161.9505 H   0  0  0  0  0  0  0  0  0  0  0  0
  126.9379  135.7594  160.1445 C   0  0  0  0  0  0  0  0  0  0  0  0
  126.0662  134.6084  159.6378 C   0  0  0  0  0  0  0  0  0  0  0  0
  126.9660  133.4951  159.0935 C   0  0  0  0  0  0  0  0  0  0  0  0
  127.9328  133.0497  160.1945 C   0  0  1  0  0  0  0  0  0  0  0  0
  127.3682  132.6292  161.0266 H   0  0  0  0  0  0  0  0  0  0  0  0
  128.8254  132.0621  159.6749 O   0  0  0  0  0  0  0  0  0  0  0  0
  129.6102  132.4296  158.6267 C   0  0  0  0  0  0  0  0  0  0  0  0
  129.6224  133.6069  158.0499 N   0  0  0  0  0  0  0  0  0  0  0  0
  130.5685  133.5784  157.0173 N   0  0  0  0  0  0  0  0  0  0  0  0
  130.7885  134.3146  156.4253 H   0  0  0  0  0  0  0  0  0  0  0  0
  131.1166  132.3448  156.9868 C   0  0  0  0  0  0  0  0  0  0  0  0
  130.5437  131.6128  157.9702 C   0  0  0  0  0  0  0  0  0  0  0  0
  130.9326  129.8098  158.3867 Br  0  0  0  0  0  0  0  0  0  0  0  0
  128.7354  134.2585  160.6806 C   0  0  0  0  0  0  0  0  0  0  0  0
  127.3077  138.6528  163.7831 H   0  0  0  0  0  0  0  0  0  0  0  0
  127.4943  140.7566  163.9226 H   0  0  0  0  0  0  0  0  0  0  0  0
  128.7133  142.8037  163.3738 H   0  0  0  0  0  0  0  0  0  0  0  0
  130.5867  142.7212  161.7637 H   0  0  0  0  0  0  0  0  0  0  0  0
  131.1874  140.5943  160.7110 H   0  0  0  0  0  0  0  0  0  0  0  0
  130.6655  138.5485  160.0856 H   0  0  0  0  0  0  0  0  0  0  0  0
  130.8698  137.7095  161.6227 H   0  0  0  0  0  0  0  0  0  0  0  0
  129.4698  136.6042  159.8196 H   0  0  0  0  0  0  0  0  0  0  0  0
  128.2330  137.8122  160.2023 H   0  0  0  0  0  0  0  0  0  0  0  0
  129.4641  136.0085  162.2849 H   0  0  0  0  0  0  0  0  0  0  0  0
  126.3004  136.5539  160.5324 H   0  0  0  0  0  0  0  0  0  0  0  0
  127.5407  136.1469  159.3231 H   0  0  0  0  0  0  0  0  0  0  0  0
  125.4127  134.9691  158.8434 H   0  0  0  0  0  0  0  0  0  0  0  0
  125.4628  134.2202  160.4582 H   0  0  0  0  0  0  0  0  0  0  0  0
  127.5322  133.8685  158.2403 H   0  0  0  0  0  0  0  0  0  0  0  0
  126.3533  132.6490  158.7824 H   0  0  0  0  0  0  0  0  0  0  0  0
  131.8770  132.0031  156.3001 H   0  0  0  0  0  0  0  0  0  0  0  0
  129.2999  134.6779  159.8479 H   0  0  0  0  0  0  0  0  0  0  0  0
  129.4246  133.9444  161.4646 H   0  0  0  0  0  0  0  0  0  0  0  0
  1  2  2  0
  2 12  1  0
  2  3  1  0
  3  4  1  0
  3 29  1  0
  4  9  2  0
  4  5  1  0
  5  6  2  0
  5 30  1  0
  6  7  1  0
  6 31  1  0
  7  8  2  0
  7 32  1  0
  8  9  1  0
  8 33  1  0
  9 10  1  0
 10 11  1  0
 10 34  1  0
 10 35  1  0
 11 12  1  0
 11 36  1  0
 11 37  1  0
 12 13  1  0
 12 38  1  1
 13 14  1  1
 13 28  1  0
 13 15  1  0
 15 16  1  0
 15 39  1  0
 15 40  1  0
 16 17  1  0
 16 41  1  0
 16 42  1  0
 17 18  1  0
 17 43  1  0
 17 44  1  0
 18 19  1  1
 18 20  1  0
 18 28  1  0
 20 21  1  0
 21 26  1  0
 21 22  2  0
 22 23  1  0
 23 24  1  0
 23 25  1  0
 25 26  2  0
 25 45  1  0
 26 27  1  0
 28 46  1  0
 28 47  1  0
M  CHG  1  13   1
M  END
>  <DOCK_score>  (1) 
-41.863792

>  <SMILES>  (1) 
O=C1Nc2ccccc2CCC1[NH+]1CCC[C@@H](Oc2n[nH]cc2Br)C1

$$$$
