CCOC(=O)c1oc2ccc(-c3ccc4cc[nH]c4c3C)cc2c1C[NH2+][C@H]1COC2(CC2)C1
     RDKit          3D

 62 67  0  0  1  0  0  0  0  0999 V2000
  126.2761  132.6360  161.6986 C   0  0  0  0  0  0  0  0  0  0  0  0
  125.9608  133.7314  160.6782 C   0  0  0  0  0  0  0  0  0  0  0  0
  127.1207  134.5894  160.5151 O   0  0  0  0  0  0  0  0  0  0  0  0
  127.2102  135.6597  161.3306 C   0  0  0  0  0  0  0  0  0  0  0  0
  126.3420  135.8697  162.1553 O   0  0  0  0  0  0  0  0  0  0  0  0
  128.3558  136.5714  161.2223 C   0  0  0  0  0  0  0  0  0  0  0  0
  128.3279  137.8906  161.5052 O   0  0  0  0  0  0  0  0  0  0  0  0
  129.5379  138.4503  161.3074 C   0  0  0  0  0  0  0  0  0  0  0  0
  130.0188  139.7475  161.4535 C   0  0  0  0  0  0  0  0  0  0  0  0
  131.3239  140.0336  161.1732 C   0  0  0  0  0  0  0  0  0  0  0  0
  132.1983  139.0327  160.7357 C   0  0  0  0  0  0  0  0  0  0  0  0
  133.6129  139.3631  160.4353 C   0  0  0  0  0  0  0  0  0  0  0  0
  133.9754  139.7581  159.1429 C   0  0  0  0  0  0  0  0  0  0  0  0
  135.2721  140.0642  158.8529 C   0  0  0  0  0  0  0  0  0  0  0  0
  136.2466  139.9893  159.8521 C   0  0  0  0  0  0  0  0  0  0  0  0
  137.6902  140.2343  159.8820 C   0  0  0  0  0  0  0  0  0  0  0  0
  138.1048  139.9886  161.1354 C   0  0  0  0  0  0  0  0  0  0  0  0
  137.0455  139.6012  161.9099 N   0  0  0  0  0  0  0  0  0  0  0  0
  137.0976  139.3705  162.8506 H   0  0  0  0  0  0  0  0  0  0  0  0
  135.8936  139.5880  161.1543 C   0  0  0  0  0  0  0  0  0  0  0  0
  134.5697  139.2784  161.4385 C   0  0  0  0  0  0  0  0  0  0  0  0
  134.1735  138.8520  162.8285 C   0  0  0  0  0  0  0  0  0  0  0  0
  131.7412  137.7317  160.5776 C   0  0  0  0  0  0  0  0  0  0  0  0
  130.4087  137.4346  160.8685 C   0  0  0  0  0  0  0  0  0  0  0  0
  129.6045  136.2140  160.8226 C   0  0  0  0  0  0  0  0  0  0  0  0
  130.0665  134.8388  160.4144 C   0  0  0  0  0  0  0  0  0  0  0  0
  129.8749  134.6671  158.9682 N   0  0  0  0  0  0  0  0  0  0  0  0
  128.8969  134.7738  158.7435 H   0  0  0  0  0  0  0  0  0  0  0  0
  130.4116  135.3632  158.4726 H   0  0  0  0  0  0  0  0  0  0  0  0
  130.3253  133.3268  158.5703 C   0  0  1  0  0  0  0  0  0  0  0  0
  131.2388  133.0529  159.0982 H   0  0  0  0  0  0  0  0  0  0  0  0
  129.2118  132.2753  158.8095 C   0  0  0  0  0  0  0  0  0  0  0  0
  129.5300  131.2254  157.8691 O   0  0  0  0  0  0  0  0  0  0  0  0
  129.9598  131.8651  156.6595 C   0  0  0  0  0  0  0  0  0  0  0  0
  130.5781  131.0551  155.5224 C   0  0  0  0  0  0  0  0  0  0  0  0
  129.1878  131.6732  155.3559 C   0  0  0  0  0  0  0  0  0  0  0  0
  130.5275  133.2442  157.0368 C   0  0  0  0  0  0  0  0  0  0  0  0
  127.1199  132.0429  161.3459 H   0  0  0  0  0  0  0  0  0  0  0  0
  126.5278  133.0925  162.6558 H   0  0  0  0  0  0  0  0  0  0  0  0
  125.4053  131.9918  161.8210 H   0  0  0  0  0  0  0  0  0  0  0  0
  125.1169  134.3245  161.0309 H   0  0  0  0  0  0  0  0  0  0  0  0
  125.7090  133.2749  159.7210 H   0  0  0  0  0  0  0  0  0  0  0  0
  129.3567  140.5317  161.7897 H   0  0  0  0  0  0  0  0  0  0  0  0
  131.6856  141.0444  161.2900 H   0  0  0  0  0  0  0  0  0  0  0  0
  133.2234  139.8210  158.3703 H   0  0  0  0  0  0  0  0  0  0  0  0
  135.5452  140.3684  157.8532 H   0  0  0  0  0  0  0  0  0  0  0  0
  138.3042  140.5561  159.0540 H   0  0  0  0  0  0  0  0  0  0  0  0
  139.1236  140.0830  161.4810 H   0  0  0  0  0  0  0  0  0  0  0  0
  133.8122  139.7169  163.3848 H   0  0  0  0  0  0  0  0  0  0  0  0
  133.3836  138.1034  162.7676 H   0  0  0  0  0  0  0  0  0  0  0  0
  135.0380  138.4272  163.3386 H   0  0  0  0  0  0  0  0  0  0  0  0
  132.4109  136.9561  160.2365 H   0  0  0  0  0  0  0  0  0  0  0  0
  131.1229  134.7238  160.6571 H   0  0  0  0  0  0  0  0  0  0  0  0
  129.4866  134.0869  160.9496 H   0  0  0  0  0  0  0  0  0  0  0  0
  129.2517  131.9001  159.8321 H   0  0  0  0  0  0  0  0  0  0  0  0
  128.2310  132.6991  158.5934 H   0  0  0  0  0  0  0  0  0  0  0  0
  131.4006  131.5094  154.9699 H   0  0  0  0  0  0  0  0  0  0  0  0
  130.6364  129.9739  155.6483 H   0  0  0  0  0  0  0  0  0  0  0  0
  128.3317  130.9989  155.3725 H   0  0  0  0  0  0  0  0  0  0  0  0
  129.0953  132.5345  154.6943 H   0  0  0  0  0  0  0  0  0  0  0  0
  129.9717  134.0364  156.5351 H   0  0  0  0  0  0  0  0  0  0  0  0
  131.5869  133.3025  156.7874 H   0  0  0  0  0  0  0  0  0  0  0  0
  1  2  1  0
  1 38  1  0
  1 39  1  0
  1 40  1  0
  2  3  1  0
  2 41  1  0
  2 42  1  0
  3  4  1  0
  4  5  2  0
  4  6  1  0
  6 25  2  0
  6  7  1  0
  7  8  1  0
  8 24  2  0
  8  9  1  0
  9 10  2  0
  9 43  1  0
 10 11  1  0
 10 44  1  0
 11 12  1  0
 11 23  2  0
 12 21  1  0
 12 13  2  0
 13 14  1  0
 13 45  1  0
 14 15  2  0
 14 46  1  0
 15 20  1  0
 15 16  1  0
 16 17  2  0
 16 47  1  0
 17 18  1  0
 17 48  1  0
 18 19  1  0
 18 20  1  0
 20 21  2  0
 21 22  1  0
 22 49  1  0
 22 50  1  0
 22 51  1  0
 23 24  1  0
 23 52  1  0
 24 25  1  0
 25 26  1  0
 26 27  1  0
 26 53  1  0
 26 54  1  0
 27 28  1  0
 27 29  1  0
 27 30  1  0
 30 31  1  1
 30 37  1  0
 30 32  1  0
 32 33  1  0
 32 55  1  0
 32 56  1  0
 33 34  1  0
 34 36  1  0
 34 35  1  0
 34 37  1  0
 35 36  1  0
 35 57  1  0
 35 58  1  0
 36 59  1  0
 36 60  1  0
 37 61  1  0
 37 62  1  0
M  CHG  1  27   1
M  END
>  <DOCK_score>  (1) 
-45.013405

>  <SMILES>  (1) 
CCOC(=O)c1oc2ccc(-c3ccc4cc[nH]c4c3C)cc2c1C[NH2+][C@H]1COC2(CC2)C1

$$$$
