CN(C(=O)C(Cc1ccccc1)N1CC[NH+](Cc2cccc3ccccc23)CC1)[C@@H]1CCC(=O)NC1
     RDKit          3D

 73 77  0  0  1  0  0  0  0  0999 V2000
  131.1674  137.8307  164.1554 C   0  0  0  0  0  0  0  0  0  0  0  0
  130.7035  139.0153  163.4291 N   0  0  0  0  0  0  0  0  0  0  0  0
  130.9947  139.1609  162.1213 C   0  0  0  0  0  0  0  0  0  0  0  0
  130.6106  140.1416  161.5201 O   0  0  0  0  0  0  0  0  0  0  0  0
  131.7977  138.1050  161.4062 C   0  0  2  0  0  0  0  0  0  0  0  0
  132.6059  138.7539  160.2807 C   0  0  0  0  0  0  0  0  0  0  0  0
  133.8414  139.3970  160.8557 C   0  0  0  0  0  0  0  0  0  0  0  0
  133.8057  140.7154  161.2695 C   0  0  0  0  0  0  0  0  0  0  0  0
  134.9378  141.3039  161.8016 C   0  0  0  0  0  0  0  0  0  0  0  0
  136.1086  140.5770  161.9100 C   0  0  0  0  0  0  0  0  0  0  0  0
  136.1457  139.2600  161.4913 C   0  0  0  0  0  0  0  0  0  0  0  0
  135.0123  138.6701  160.9641 C   0  0  0  0  0  0  0  0  0  0  0  0
  130.8893  137.0991  160.8395 N   0  0  0  0  0  0  0  0  0  0  0  0
  130.2317  137.6068  159.6270 C   0  0  0  0  0  0  0  0  0  0  0  0
  129.2521  136.5545  159.1030 C   0  0  0  0  0  0  0  0  0  0  0  0
  129.9796  135.3142  158.8033 N   0  0  0  0  0  0  0  0  0  0  0  0
  130.6905  135.5001  158.1119 H   0  0  0  0  0  0  0  0  0  0  0  0
  129.0418  134.3101  158.2833 C   0  0  0  0  0  0  0  0  0  0  0  0
  129.8060  133.2510  157.5313 C   0  0  0  0  0  0  0  0  0  0  0  0
  130.0373  133.3917  156.1972 C   0  0  0  0  0  0  0  0  0  0  0  0
  130.7415  132.4229  155.4851 C   0  0  0  0  0  0  0  0  0  0  0  0
  131.2186  131.3076  156.1028 C   0  0  0  0  0  0  0  0  0  0  0  0
  130.9992  131.1276  157.4789 C   0  0  0  0  0  0  0  0  0  0  0  0
  131.4759  129.9890  158.1510 C   0  0  0  0  0  0  0  0  0  0  0  0
  131.2442  129.8481  159.4846 C   0  0  0  0  0  0  0  0  0  0  0  0
  130.5394  130.8170  160.1969 C   0  0  0  0  0  0  0  0  0  0  0  0
  130.0633  131.9326  159.5797 C   0  0  0  0  0  0  0  0  0  0  0  0
  130.2829  132.1131  158.2033 C   0  0  0  0  0  0  0  0  0  0  0  0
  130.6105  134.8062  160.0287 C   0  0  0  0  0  0  0  0  0  0  0  0
  131.6015  135.8441  160.5605 C   0  0  0  0  0  0  0  0  0  0  0  0
  129.9228  140.0417  164.1244 C   0  0  2  0  0  0  0  0  0  0  0  0
  129.7877  139.7543  165.1671 H   0  0  0  0  0  0  0  0  0  0  0  0
  128.5536  140.1912  163.4504 C   0  0  0  0  0  0  0  0  0  0  0  0
  127.6956  141.1311  164.3010 C   0  0  0  0  0  0  0  0  0  0  0  0
  128.4731  142.3721  164.6335 C   0  0  0  0  0  0  0  0  0  0  0  0
  127.8614  143.3483  165.0125 O   0  0  0  0  0  0  0  0  0  0  0  0
  129.8001  142.4584  164.5340 N   0  0  0  0  0  0  0  0  0  0  0  0
  130.6549  141.3821  164.0487 C   0  0  0  0  0  0  0  0  0  0  0  0
  132.1501  138.0287  164.5836 H   0  0  0  0  0  0  0  0  0  0  0  0
  130.4639  137.5954  164.9541 H   0  0  0  0  0  0  0  0  0  0  0  0
  131.2334  136.9864  163.4691 H   0  0  0  0  0  0  0  0  0  0  0  0
  132.4767  137.6254  162.1110 H   0  0  0  0  0  0  0  0  0  0  0  0
  132.8959  137.9929  159.5563 H   0  0  0  0  0  0  0  0  0  0  0  0
  131.9976  139.5121  159.7872 H   0  0  0  0  0  0  0  0  0  0  0  0
  132.8921  141.2846  161.1808 H   0  0  0  0  0  0  0  0  0  0  0  0
  134.9088  142.3328  162.1283 H   0  0  0  0  0  0  0  0  0  0  0  0
  136.9943  141.0380  162.3215 H   0  0  0  0  0  0  0  0  0  0  0  0
  137.0606  138.6922  161.5757 H   0  0  0  0  0  0  0  0  0  0  0  0
  135.0414  137.6413  160.6367 H   0  0  0  0  0  0  0  0  0  0  0  0
  130.9833  137.8150  158.8657 H   0  0  0  0  0  0  0  0  0  0  0  0
  129.6897  138.5226  159.8632 H   0  0  0  0  0  0  0  0  0  0  0  0
  128.7736  136.9232  158.1958 H   0  0  0  0  0  0  0  0  0  0  0  0
  128.4926  136.3565  159.8595 H   0  0  0  0  0  0  0  0  0  0  0  0
  128.3304  134.7908  157.6118 H   0  0  0  0  0  0  0  0  0  0  0  0
  128.5048  133.8504  159.1129 H   0  0  0  0  0  0  0  0  0  0  0  0
  129.6700  134.2676  155.6831 H   0  0  0  0  0  0  0  0  0  0  0  0
  130.9111  132.5588  154.4272 H   0  0  0  0  0  0  0  0  0  0  0  0
  131.7588  130.5629  155.5371 H   0  0  0  0  0  0  0  0  0  0  0  0
  132.0230  129.2296  157.6120 H   0  0  0  0  0  0  0  0  0  0  0  0
  131.6116  128.9723  159.9987 H   0  0  0  0  0  0  0  0  0  0  0  0
  130.3689  130.6807  161.2546 H   0  0  0  0  0  0  0  0  0  0  0  0
  129.5195  132.6753  160.1446 H   0  0  0  0  0  0  0  0  0  0  0  0
  129.8442  134.6172  160.7803 H   0  0  0  0  0  0  0  0  0  0  0  0
  131.1391  133.8790  159.8077 H   0  0  0  0  0  0  0  0  0  0  0  0
  132.3757  136.0232  159.8144 H   0  0  0  0  0  0  0  0  0  0  0  0
  132.0587  135.4737  161.4780 H   0  0  0  0  0  0  0  0  0  0  0  0
  128.6797  140.6119  162.4527 H   0  0  0  0  0  0  0  0  0  0  0  0
  128.0710  139.2166  163.3793 H   0  0  0  0  0  0  0  0  0  0  0  0
  126.7980  141.4038  163.7460 H   0  0  0  0  0  0  0  0  0  0  0  0
  127.4110  140.6256  165.2239 H   0  0  0  0  0  0  0  0  0  0  0  0
  130.2231  143.2895  164.8010 H   0  0  0  0  0  0  0  0  0  0  0  0
  131.5567  141.3351  164.6594 H   0  0  0  0  0  0  0  0  0  0  0  0
  130.9340  141.5822  163.0143 H   0  0  0  0  0  0  0  0  0  0  0  0
  1  2  1  0
  1 39  1  0
  1 40  1  0
  1 41  1  0
  2  3  1  0
  2 31  1  0
  3  4  2  0
  3  5  1  0
  5  6  1  0
  5 13  1  0
  5 42  1  1
  6  7  1  0
  6 43  1  0
  6 44  1  0
  7 12  1  0
  7  8  2  0
  8  9  1  0
  8 45  1  0
  9 10  2  0
  9 46  1  0
 10 11  1  0
 10 47  1  0
 11 12  2  0
 11 48  1  0
 12 49  1  0
 13 30  1  0
 13 14  1  0
 14 15  1  0
 14 50  1  0
 14 51  1  0
 15 16  1  0
 15 52  1  0
 15 53  1  0
 16 17  1  0
 16 18  1  0
 16 29  1  0
 18 19  1  0
 18 54  1  0
 18 55  1  0
 19 28  1  0
 19 20  2  0
 20 21  1  0
 20 56  1  0
 21 22  2  0
 21 57  1  0
 22 23  1  0
 22 58  1  0
 23 28  2  0
 23 24  1  0
 24 25  2  0
 24 59  1  0
 25 26  1  0
 25 60  1  0
 26 27  2  0
 26 61  1  0
 27 28  1  0
 27 62  1  0
 29 30  1  0
 29 63  1  0
 29 64  1  0
 30 65  1  0
 30 66  1  0
 31 32  1  1
 31 38  1  0
 31 33  1  0
 33 34  1  0
 33 67  1  0
 33 68  1  0
 34 35  1  0
 34 69  1  0
 34 70  1  0
 35 36  2  0
 35 37  1  0
 37 38  1  0
 37 71  1  0
 38 72  1  0
 38 73  1  0
M  CHG  1  16   1
M  END
>  <DOCK_score>  (1) 
-59.073864

>  <SMILES>  (1) 
CN(C(=O)C(Cc1ccccc1)N1CC[NH+](Cc2cccc3ccccc23)CC1)[C@@H]1CCC(=O)NC1

$$$$
