Cc1cccc(-c2ccc([C@@H]3C[C@H]3[NH2+][C@H]3CCC=C3NCc3ccc(Cl)cc3C)cc2)c1
     RDKit          3D

 64 68  0  0  1  0  0  0  0  0999 V2000
  136.7864  141.8498  168.3176 C   0  0  0  0  0  0  0  0  0  0  0  0
  137.0079  142.1813  166.8643 C   0  0  0  0  0  0  0  0  0  0  0  0
  137.8458  143.2258  166.5136 C   0  0  0  0  0  0  0  0  0  0  0  0
  138.0530  143.5352  165.1825 C   0  0  0  0  0  0  0  0  0  0  0  0
  137.4252  142.8031  164.1949 C   0  0  0  0  0  0  0  0  0  0  0  0
  136.5809  141.7506  164.5417 C   0  0  0  0  0  0  0  0  0  0  0  0
  135.9030  140.9604  163.4845 C   0  0  0  0  0  0  0  0  0  0  0  0
  134.6617  140.3784  163.7340 C   0  0  0  0  0  0  0  0  0  0  0  0
  134.0358  139.6439  162.7474 C   0  0  0  0  0  0  0  0  0  0  0  0
  134.6384  139.4851  161.5125 C   0  0  0  0  0  0  0  0  0  0  0  0
  133.9502  138.6815  160.4393 C   0  0  2  0  0  0  0  0  0  0  0  0
  134.1824  137.6167  160.4272 H   0  0  0  0  0  0  0  0  0  0  0  0
  133.7030  139.3661  159.0933 C   0  0  0  0  0  0  0  0  0  0  0  0
  132.5329  139.1002  160.0428 C   0  0  1  0  0  0  0  0  0  0  0  0
  132.0981  139.9567  160.5579 H   0  0  0  0  0  0  0  0  0  0  0  0
  131.5893  138.0360  159.6748 N   0  0  0  0  0  0  0  0  0  0  0  0
  131.9490  137.5273  158.8812 H   0  0  0  0  0  0  0  0  0  0  0  0
  130.6979  138.4446  159.4367 H   0  0  0  0  0  0  0  0  0  0  0  0
  131.4200  137.1181  160.8091 C   0  0  1  0  0  0  0  0  0  0  0  0
  132.3756  136.6684  161.0783 H   0  0  0  0  0  0  0  0  0  0  0  0
  130.8148  137.8626  162.0214 C   0  0  0  0  0  0  0  0  0  0  0  0
  129.3062  137.5794  161.8369 C   0  0  0  0  0  0  0  0  0  0  0  0
  129.2479  136.3016  161.0324 C   0  0  0  0  0  0  0  0  0  0  0  0
  130.4103  136.0457  160.4719 C   0  0  0  0  0  0  0  0  0  0  0  0
  130.6726  134.9407  159.6721 N   0  0  0  0  0  0  0  0  0  0  0  0
  129.6169  133.9595  159.4093 C   0  0  0  0  0  0  0  0  0  0  0  0
  129.9652  133.1647  158.1772 C   0  0  0  0  0  0  0  0  0  0  0  0
  130.7045  132.0019  158.2910 C   0  0  0  0  0  0  0  0  0  0  0  0
  131.0191  131.2696  157.1620 C   0  0  0  0  0  0  0  0  0  0  0  0
  130.5988  131.7032  155.9171 C   0  0  0  0  0  0  0  0  0  0  0  0
  130.9933  130.7834  154.4985 Cl  0  0  0  0  0  0  0  0  0  0  0  0
  129.8637  132.8695  155.8033 C   0  0  0  0  0  0  0  0  0  0  0  0
  129.5495  133.6011  156.9332 C   0  0  0  0  0  0  0  0  0  0  0  0
  128.7491  134.8720  156.8095 C   0  0  0  0  0  0  0  0  0  0  0  0
  135.8728  140.0560  161.2611 C   0  0  0  0  0  0  0  0  0  0  0  0
  136.5053  140.7970  162.2387 C   0  0  0  0  0  0  0  0  0  0  0  0
  136.3710  141.4462  165.8855 C   0  0  0  0  0  0  0  0  0  0  0  0
  135.9358  142.4179  168.6942 H   0  0  0  0  0  0  0  0  0  0  0  0
  136.5852  140.7834  168.4205 H   0  0  0  0  0  0  0  0  0  0  0  0
  137.6777  142.1082  168.8892 H   0  0  0  0  0  0  0  0  0  0  0  0
  138.3392  143.8009  167.2831 H   0  0  0  0  0  0  0  0  0  0  0  0
  138.7075  144.3516  164.9147 H   0  0  0  0  0  0  0  0  0  0  0  0
  137.5884  143.0456  163.1551 H   0  0  0  0  0  0  0  0  0  0  0  0
  134.1905  140.5016  164.6980 H   0  0  0  0  0  0  0  0  0  0  0  0
  133.0738  139.1922  162.9398 H   0  0  0  0  0  0  0  0  0  0  0  0
  133.7726  138.7515  158.1959 H   0  0  0  0  0  0  0  0  0  0  0  0
  134.0382  140.3975  158.9842 H   0  0  0  0  0  0  0  0  0  0  0  0
  131.1793  137.4433  162.9592 H   0  0  0  0  0  0  0  0  0  0  0  0
  131.0220  138.9313  161.9670 H   0  0  0  0  0  0  0  0  0  0  0  0
  128.8244  137.4433  162.8052 H   0  0  0  0  0  0  0  0  0  0  0  0
  128.8316  138.3932  161.2886 H   0  0  0  0  0  0  0  0  0  0  0  0
  128.3700  135.6806  160.9323 H   0  0  0  0  0  0  0  0  0  0  0  0
  131.5548  134.8186  159.2875 H   0  0  0  0  0  0  0  0  0  0  0  0
  128.6707  134.4771  159.2524 H   0  0  0  0  0  0  0  0  0  0  0  0
  129.5260  133.2866  160.2621 H   0  0  0  0  0  0  0  0  0  0  0  0
  131.0322  131.6633  159.2628 H   0  0  0  0  0  0  0  0  0  0  0  0
  131.5934  130.3593  157.2515 H   0  0  0  0  0  0  0  0  0  0  0  0
  129.5357  133.2086  154.8318 H   0  0  0  0  0  0  0  0  0  0  0  0
  127.6866  134.6411  156.8857 H   0  0  0  0  0  0  0  0  0  0  0  0
  129.0302  135.5578  157.6087 H   0  0  0  0  0  0  0  0  0  0  0  0
  128.9517  135.3364  155.8443 H   0  0  0  0  0  0  0  0  0  0  0  0
  136.3407  139.9254  160.2964 H   0  0  0  0  0  0  0  0  0  0  0  0
  137.4673  141.2457  162.0401 H   0  0  0  0  0  0  0  0  0  0  0  0
  135.7141  140.6342  166.1599 H   0  0  0  0  0  0  0  0  0  0  0  0
  1  2  1  0
  1 38  1  0
  1 39  1  0
  1 40  1  0
  2 37  2  0
  2  3  1  0
  3  4  2  0
  3 41  1  0
  4  5  1  0
  4 42  1  0
  5  6  2  0
  5 43  1  0
  6  7  1  0
  6 37  1  0
  7 36  1  0
  7  8  2  0
  8  9  1  0
  8 44  1  0
  9 10  2  0
  9 45  1  0
 10 11  1  0
 10 35  1  0
 11 12  1  6
 11 14  1  0
 11 13  1  0
 13 14  1  0
 13 46  1  0
 13 47  1  0
 14 15  1  1
 14 16  1  0
 16 17  1  0
 16 18  1  0
 16 19  1  0
 19 20  1  1
 19 24  1  0
 19 21  1  0
 21 22  1  0
 21 48  1  0
 21 49  1  0
 22 23  1  0
 22 50  1  0
 22 51  1  0
 23 24  2  0
 23 52  1  0
 24 25  1  0
 25 26  1  0
 25 53  1  0
 26 27  1  0
 26 54  1  0
 26 55  1  0
 27 33  1  0
 27 28  2  0
 28 29  1  0
 28 56  1  0
 29 30  2  0
 29 57  1  0
 30 31  1  0
 30 32  1  0
 32 33  2  0
 32 58  1  0
 33 34  1  0
 34 59  1  0
 34 60  1  0
 34 61  1  0
 35 36  2  0
 35 62  1  0
 36 63  1  0
 37 64  1  0
M  CHG  1  16   1
M  END
>  <DOCK_score>  (1) 
-56.743179

>  <SMILES>  (1) 
Cc1cccc(-c2ccc([C@@H]3C[C@H]3[NH2+][C@H]3CCC=C3NCc3ccc(Cl)cc3C)cc2)c1

$$$$
