C[C@@H](C=C[NH2+]C(Cc1ccccc1)Cc1ccccc1)NC=C1NCCN1
     RDKit          3D

 58 60  0  0  1  0  0  0  0  0999 V2000
  132.7286  136.2671  162.6919 C   0  0  0  0  0  0  0  0  0  0  0  0
  131.4321  136.8082  162.0860 C   0  0  1  0  0  0  0  0  0  0  0  0
  131.3978  137.8908  162.2090 H   0  0  0  0  0  0  0  0  0  0  0  0
  131.3826  136.4676  160.6190 C   0  0  0  0  0  0  0  0  0  0  0  0
  130.8390  135.3424  160.2258 C   0  0  0  0  0  0  0  0  0  0  0  0
  130.8510  134.9960  158.8714 N   0  0  0  0  0  0  0  0  0  0  0  0
  131.3144  135.7201  158.3432 H   0  0  0  0  0  0  0  0  0  0  0  0
  131.3444  134.1241  158.7516 H   0  0  0  0  0  0  0  0  0  0  0  0
  129.4704  134.8473  158.3918 C   0  0  0  0  0  0  0  0  0  0  0  0
  128.8796  136.2284  158.1016 C   0  0  0  0  0  0  0  0  0  0  0  0
  127.4634  136.0758  157.6094 C   0  0  0  0  0  0  0  0  0  0  0  0
  127.2122  135.9453  156.2564 C   0  0  0  0  0  0  0  0  0  0  0  0
  125.9135  135.8003  155.8054 C   0  0  0  0  0  0  0  0  0  0  0  0
  124.8653  135.7960  156.7065 C   0  0  0  0  0  0  0  0  0  0  0  0
  125.1161  135.9323  158.0590 C   0  0  0  0  0  0  0  0  0  0  0  0
  126.4152  136.0720  158.5106 C   0  0  0  0  0  0  0  0  0  0  0  0
  129.4630  134.0101  157.1111 C   0  0  0  0  0  0  0  0  0  0  0  0
  130.0449  132.6496  157.3970 C   0  0  0  0  0  0  0  0  0  0  0  0
  130.7055  131.9571  156.3996 C   0  0  0  0  0  0  0  0  0  0  0  0
  131.2435  130.7112  156.6631 C   0  0  0  0  0  0  0  0  0  0  0  0
  131.1121  130.1537  157.9212 C   0  0  0  0  0  0  0  0  0  0  0  0
  130.4465  130.8439  158.9170 C   0  0  0  0  0  0  0  0  0  0  0  0
  129.9131  132.0919  158.6549 C   0  0  0  0  0  0  0  0  0  0  0  0
  130.2849  136.2028  162.7668 N   0  0  0  0  0  0  0  0  0  0  0  0
  129.0162  136.8230  162.7018 C   0  0  0  0  0  0  0  0  0  0  0  0
  127.9743  136.2732  163.3201 C   0  0  0  0  0  0  0  0  0  0  0  0
  128.0351  135.0869  164.0497 N   0  0  0  0  0  0  0  0  0  0  0  0
  126.7018  134.7916  164.5892 C   0  0  0  0  0  0  0  0  0  0  0  0
  125.8036  135.9374  164.0947 C   0  0  0  0  0  0  0  0  0  0  0  0
  126.6880  136.8100  163.3123 N   0  0  0  0  0  0  0  0  0  0  0  0
  132.7630  135.1846  162.5689 H   0  0  0  0  0  0  0  0  0  0  0  0
  132.7645  136.5135  163.7530 H   0  0  0  0  0  0  0  0  0  0  0  0
  133.5821  136.7176  162.1852 H   0  0  0  0  0  0  0  0  0  0  0  0
  131.7953  137.1510  159.8915 H   0  0  0  0  0  0  0  0  0  0  0  0
  130.3816  134.6823  160.9479 H   0  0  0  0  0  0  0  0  0  0  0  0
  128.8722  134.3492  159.1548 H   0  0  0  0  0  0  0  0  0  0  0  0
  128.8848  136.8248  159.0140 H   0  0  0  0  0  0  0  0  0  0  0  0
  129.4778  136.7264  157.3385 H   0  0  0  0  0  0  0  0  0  0  0  0
  128.0309  135.9526  155.5520 H   0  0  0  0  0  0  0  0  0  0  0  0
  125.7176  135.6942  154.7486 H   0  0  0  0  0  0  0  0  0  0  0  0
  123.8505  135.6866  156.3538 H   0  0  0  0  0  0  0  0  0  0  0  0
  124.2971  135.9294  158.7630 H   0  0  0  0  0  0  0  0  0  0  0  0
  126.6110  136.1784  159.5673 H   0  0  0  0  0  0  0  0  0  0  0  0
  128.4386  133.8997  156.7552 H   0  0  0  0  0  0  0  0  0  0  0  0
  130.0611  134.5081  156.3480 H   0  0  0  0  0  0  0  0  0  0  0  0
  130.8047  132.3909  155.4156 H   0  0  0  0  0  0  0  0  0  0  0  0
  131.7632  130.1718  155.8851 H   0  0  0  0  0  0  0  0  0  0  0  0
  131.5291  129.1788  158.1260 H   0  0  0  0  0  0  0  0  0  0  0  0
  130.3435  130.4081  159.8997 H   0  0  0  0  0  0  0  0  0  0  0  0
  129.3931  132.6311  159.4330 H   0  0  0  0  0  0  0  0  0  0  0  0
  130.3959  135.3764  163.2625 H   0  0  0  0  0  0  0  0  0  0  0  0
  128.8927  137.7432  162.1500 H   0  0  0  0  0  0  0  0  0  0  0  0
  128.8294  134.5459  164.1815 H   0  0  0  0  0  0  0  0  0  0  0  0
  126.7264  134.7737  165.6788 H   0  0  0  0  0  0  0  0  0  0  0  0
  126.3444  133.8373  164.2025 H   0  0  0  0  0  0  0  0  0  0  0  0
  125.3865  136.4828  164.9413 H   0  0  0  0  0  0  0  0  0  0  0  0
  125.0036  135.5478  163.4654 H   0  0  0  0  0  0  0  0  0  0  0  0
  126.4206  137.6272  162.8632 H   0  0  0  0  0  0  0  0  0  0  0  0
  1  2  1  0
  1 31  1  0
  1 32  1  0
  1 33  1  0
  2  3  1  6
  2  4  1  0
  2 24  1  0
  4  5  2  0
  4 34  1  0
  5  6  1  0
  5 35  1  0
  6  7  1  0
  6  8  1  0
  6  9  1  0
  9 10  1  0
  9 17  1  0
  9 36  1  0
 10 11  1  0
 10 37  1  0
 10 38  1  0
 11 16  1  0
 11 12  2  0
 12 13  1  0
 12 39  1  0
 13 14  2  0
 13 40  1  0
 14 15  1  0
 14 41  1  0
 15 16  2  0
 15 42  1  0
 16 43  1  0
 17 18  1  0
 17 44  1  0
 17 45  1  0
 18 23  1  0
 18 19  2  0
 19 20  1  0
 19 46  1  0
 20 21  2  0
 20 47  1  0
 21 22  1  0
 21 48  1  0
 22 23  2  0
 22 49  1  0
 23 50  1  0
 24 25  1  0
 24 51  1  0
 25 26  2  0
 25 52  1  0
 26 30  1  0
 26 27  1  0
 27 28  1  0
 27 53  1  0
 28 29  1  0
 28 54  1  0
 28 55  1  0
 29 30  1  0
 29 56  1  0
 29 57  1  0
 30 58  1  0
M  CHG  1   6   1
M  END
>  <DOCK_score>  (1) 
-46.486488

>  <SMILES>  (1) 
C[C@@H](C=C[NH2+]C(Cc1ccccc1)Cc1ccccc1)NC=C1NCCN1

$$$$
