C[C@H](CC(=O)N1CC=C(c2ccccc2)CC1)Nc1[nH]cc(-c2ccc(N)cc2)[nH+]1
     RDKit          3D

 58 61  0  0  1  0  0  0  0  0999 V2000
  128.1252  135.9494  159.7343 C   0  0  0  0  0  0  0  0  0  0  0  0
  129.6013  135.5535  159.8090 C   0  0  2  0  0  0  0  0  0  0  0  0
  129.7070  134.6594  160.4234 H   0  0  0  0  0  0  0  0  0  0  0  0
  130.4053  136.6973  160.4305 C   0  0  0  0  0  0  0  0  0  0  0  0
  131.7144  136.1648  160.9537 C   0  0  0  0  0  0  0  0  0  0  0  0
  132.2381  135.2105  160.4188 O   0  0  0  0  0  0  0  0  0  0  0  0
  132.3032  136.7487  162.0161 N   0  0  0  0  0  0  0  0  0  0  0  0
  131.6915  137.9028  162.6905 C   0  0  0  0  0  0  0  0  0  0  0  0
  132.7559  138.9225  162.9862 C   0  0  0  0  0  0  0  0  0  0  0  0
  134.0393  138.6825  162.8665 C   0  0  0  0  0  0  0  0  0  0  0  0
  134.9792  139.7708  163.2089 C   0  0  0  0  0  0  0  0  0  0  0  0
  135.8647  140.2599  162.2479 C   0  0  0  0  0  0  0  0  0  0  0  0
  136.7363  141.2792  162.5725 C   0  0  0  0  0  0  0  0  0  0  0  0
  136.7402  141.8092  163.8503 C   0  0  0  0  0  0  0  0  0  0  0  0
  135.8684  141.3251  164.8092 C   0  0  0  0  0  0  0  0  0  0  0  0
  134.9886  140.3094  164.4960 C   0  0  0  0  0  0  0  0  0  0  0  0
  134.6176  137.3775  162.4060 C   0  0  0  0  0  0  0  0  0  0  0  0
  133.5825  136.2525  162.5517 C   0  0  0  0  0  0  0  0  0  0  0  0
  130.1026  135.2811  158.4597 N   0  0  0  0  0  0  0  0  0  0  0  0
  130.0248  134.0012  157.9378 C   0  0  0  0  0  0  0  0  0  0  0  0
  129.5082  132.9155  158.5748 N   0  0  0  0  0  0  0  0  0  0  0  0
  129.1312  132.8990  159.4684 H   0  0  0  0  0  0  0  0  0  0  0  0
  129.6197  131.8460  157.7180 C   0  0  0  0  0  0  0  0  0  0  0  0
  130.1953  132.3109  156.5817 C   0  0  0  0  0  0  0  0  0  0  0  0
  130.5084  131.5118  155.3717 C   0  0  0  0  0  0  0  0  0  0  0  0
  129.9306  131.8437  154.1473 C   0  0  0  0  0  0  0  0  0  0  0  0
  130.2276  131.1031  153.0226 C   0  0  0  0  0  0  0  0  0  0  0  0
  131.0930  130.0193  153.1115 C   0  0  0  0  0  0  0  0  0  0  0  0
  131.3874  129.2667  151.9720 N   0  0  0  0  0  0  0  0  0  0  0  0
  131.6660  129.6832  154.3324 C   0  0  0  0  0  0  0  0  0  0  0  0
  131.3764  130.4245  155.4584 C   0  0  0  0  0  0  0  0  0  0  0  0
  130.4375  133.6352  156.7486 N   0  0  0  0  0  0  0  0  0  0  0  0
  130.8470  134.2192  156.0911 H   0  0  0  0  0  0  0  0  0  0  0  0
  128.0195  136.8436  159.1201 H   0  0  0  0  0  0  0  0  0  0  0  0
  127.5524  135.1347  159.2916 H   0  0  0  0  0  0  0  0  0  0  0  0
  127.7523  136.1522  160.7382 H   0  0  0  0  0  0  0  0  0  0  0  0
  130.5988  137.4582  159.6744 H   0  0  0  0  0  0  0  0  0  0  0  0
  129.8378  137.1364  161.2509 H   0  0  0  0  0  0  0  0  0  0  0  0
  130.9343  138.3441  162.0424 H   0  0  0  0  0  0  0  0  0  0  0  0
  131.2298  137.5773  163.6226 H   0  0  0  0  0  0  0  0  0  0  0  0
  132.4473  139.9039  163.3149 H   0  0  0  0  0  0  0  0  0  0  0  0
  135.8657  139.8439  161.2512 H   0  0  0  0  0  0  0  0  0  0  0  0
  137.4195  141.6613  161.8285 H   0  0  0  0  0  0  0  0  0  0  0  0
  137.4271  142.6042  164.1004 H   0  0  0  0  0  0  0  0  0  0  0  0
  135.8766  141.7429  165.8050 H   0  0  0  0  0  0  0  0  0  0  0  0
  134.3089  139.9318  165.2456 H   0  0  0  0  0  0  0  0  0  0  0  0
  134.9145  137.4636  161.3607 H   0  0  0  0  0  0  0  0  0  0  0  0
  135.4944  137.1391  163.0082 H   0  0  0  0  0  0  0  0  0  0  0  0
  133.4651  135.9910  163.6035 H   0  0  0  0  0  0  0  0  0  0  0  0
  133.9037  135.3771  161.9873 H   0  0  0  0  0  0  0  0  0  0  0  0
  130.4891  135.9973  157.9321 H   0  0  0  0  0  0  0  0  0  0  0  0
  129.3046  130.8312  157.9111 H   0  0  0  0  0  0  0  0  0  0  0  0
  129.2540  132.6828  154.0787 H   0  0  0  0  0  0  0  0  0  0  0  0
  129.7836  131.3626  152.0729 H   0  0  0  0  0  0  0  0  0  0  0  0
  131.9915  128.5100  152.0335 H   0  0  0  0  0  0  0  0  0  0  0  0
  130.9879  129.5003  151.1199 H   0  0  0  0  0  0  0  0  0  0  0  0
  132.3384  128.8407  154.3993 H   0  0  0  0  0  0  0  0  0  0  0  0
  131.8220  130.1631  156.4069 H   0  0  0  0  0  0  0  0  0  0  0  0
  1  2  1  0
  1 34  1  0
  1 35  1  0
  1 36  1  0
  2  3  1  1
  2  4  1  0
  2 19  1  0
  4  5  1  0
  4 37  1  0
  4 38  1  0
  5  6  2  0
  5  7  1  0
  7 18  1  0
  7  8  1  0
  8  9  1  0
  8 39  1  0
  8 40  1  0
  9 10  2  0
  9 41  1  0
 10 11  1  0
 10 17  1  0
 11 16  1  0
 11 12  2  0
 12 13  1  0
 12 42  1  0
 13 14  2  0
 13 43  1  0
 14 15  1  0
 14 44  1  0
 15 16  2  0
 15 45  1  0
 16 46  1  0
 17 18  1  0
 17 47  1  0
 17 48  1  0
 18 49  1  0
 18 50  1  0
 19 51  1  0
 20 19  1  0
 20 32  2  0
 20 21  1  0
 21 22  1  0
 21 23  1  0
 23 24  2  0
 23 52  1  0
 24 25  1  0
 24 32  1  0
 25 31  1  0
 25 26  2  0
 26 27  1  0
 26 53  1  0
 27 28  2  0
 27 54  1  0
 28 29  1  0
 28 30  1  0
 29 55  1  0
 29 56  1  0
 30 31  2  0
 30 57  1  0
 31 58  1  0
 32 33  1  0
M  CHG  1  32   1
M  END
>  <DOCK_score>  (1) 
-56.327896

>  <SMILES>  (1) 
C[C@H](CC(=O)N1CC=C(c2ccccc2)CC1)Nc1[nH]cc(-c2ccc(N)cc2)[nH+]1

$$$$
