N#Cc1cc(CC2CC[N@@H+](Cc3cc(F)cc(SC4=CCCCC4)c3)C2)ccc1F
     RDKit          3D

 57 60  0  0  1  0  0  0  0  0999 V2000
  126.2053  138.0418  163.6012 N   0  0  0  0  0  0  0  0  0  0  0  0
  126.9940  138.7592  163.2090 C   0  0  0  0  0  0  0  0  0  0  0  0
  127.9880  139.6636  162.7145 C   0  0  0  0  0  0  0  0  0  0  0  0
  128.8220  139.2823  161.6607 C   0  0  0  0  0  0  0  0  0  0  0  0
  129.7768  140.1580  161.1891 C   0  0  0  0  0  0  0  0  0  0  0  0
  130.6766  139.7471  160.0523 C   0  0  0  0  0  0  0  0  0  0  0  0
  131.9305  139.0726  160.6126 C   0  0  2  0  0  0  0  0  0  0  0  0
  133.0489  139.0480  159.5455 C   0  0  0  0  0  0  0  0  0  0  0  0
  133.6960  137.6558  159.7539 C   0  0  0  0  0  0  0  0  0  0  0  0
  132.5347  136.7848  160.0686 N   0  0  1  0  0  0  0  0  0  0  0  0
  132.0544  136.5252  159.2202 H   0  0  0  0  0  0  0  0  0  0  0  0
  132.9823  135.5835  160.7859 C   0  0  0  0  0  0  0  0  0  0  0  0
  131.7929  134.7120  161.0971 C   0  0  0  0  0  0  0  0  0  0  0  0
  131.6564  134.1534  162.3548 C   0  0  0  0  0  0  0  0  0  0  0  0
  130.5647  133.3518  162.6449 C   0  0  0  0  0  0  0  0  0  0  0  0
  130.4342  132.8076  163.8745 F   0  0  0  0  0  0  0  0  0  0  0  0
  129.6082  133.1077  161.6759 C   0  0  0  0  0  0  0  0  0  0  0  0
  129.7441  133.6681  160.4121 C   0  0  0  0  0  0  0  0  0  0  0  0
  128.5285  133.3602  159.1745 S   0  0  0  0  0  0  0  0  0  0  0  0
  129.4549  132.5814  157.8939 C   0  0  0  0  0  0  0  0  0  0  0  0
  129.4875  133.1577  156.7223 C   0  0  0  0  0  0  0  0  0  0  0  0
  130.2301  132.6086  155.5392 C   0  0  0  0  0  0  0  0  0  0  0  0
  131.2439  131.5565  155.9939 C   0  0  0  0  0  0  0  0  0  0  0  0
  130.5317  130.5640  156.9214 C   0  0  0  0  0  0  0  0  0  0  0  0
  130.1544  131.2924  158.2130 C   0  0  0  0  0  0  0  0  0  0  0  0
  130.8414  134.4720  160.1257 C   0  0  0  0  0  0  0  0  0  0  0  0
  131.6467  137.5931  160.9320 C   0  0  0  0  0  0  0  0  0  0  0  0
  129.9153  141.4115  161.7603 C   0  0  0  0  0  0  0  0  0  0  0  0
  129.0909  141.8003  162.7997 C   0  0  0  0  0  0  0  0  0  0  0  0
  128.1286  140.9334  163.2838 C   0  0  0  0  0  0  0  0  0  0  0  0
  127.3267  141.3117  164.3030 F   0  0  0  0  0  0  0  0  0  0  0  0
  128.7187  138.3035  161.2160 H   0  0  0  0  0  0  0  0  0  0  0  0
  130.9636  140.6286  159.4791 H   0  0  0  0  0  0  0  0  0  0  0  0
  130.1473  139.0487  159.4041 H   0  0  0  0  0  0  0  0  0  0  0  0
  132.2723  139.5939  161.5067 H   0  0  0  0  0  0  0  0  0  0  0  0
  133.7735  139.8415  159.7278 H   0  0  0  0  0  0  0  0  0  0  0  0
  132.6277  139.1315  158.5435 H   0  0  0  0  0  0  0  0  0  0  0  0
  134.3972  137.6785  160.5883 H   0  0  0  0  0  0  0  0  0  0  0  0
  134.1917  137.3216  158.8426 H   0  0  0  0  0  0  0  0  0  0  0  0
  133.4711  135.8762  161.7152 H   0  0  0  0  0  0  0  0  0  0  0  0
  133.6857  135.0299  160.1640 H   0  0  0  0  0  0  0  0  0  0  0  0
  132.4022  134.3430  163.1125 H   0  0  0  0  0  0  0  0  0  0  0  0
  128.7568  132.4827  161.9017 H   0  0  0  0  0  0  0  0  0  0  0  0
  128.9510  134.0868  156.5983 H   0  0  0  0  0  0  0  0  0  0  0  0
  130.7532  133.4183  155.0305 H   0  0  0  0  0  0  0  0  0  0  0  0
  129.5177  132.1511  154.8528 H   0  0  0  0  0  0  0  0  0  0  0  0
  132.0583  132.0412  156.5322 H   0  0  0  0  0  0  0  0  0  0  0  0
  131.6411  131.0277  155.1274 H   0  0  0  0  0  0  0  0  0  0  0  0
  131.1993  129.7334  157.1508 H   0  0  0  0  0  0  0  0  0  0  0  0
  129.6310  130.1870  156.4370 H   0  0  0  0  0  0  0  0  0  0  0  0
  131.0574  131.5036  158.7858 H   0  0  0  0  0  0  0  0  0  0  0  0
  129.4932  130.6594  158.8049 H   0  0  0  0  0  0  0  0  0  0  0  0
  130.9474  134.9121  159.1454 H   0  0  0  0  0  0  0  0  0  0  0  0
  130.6044  137.3597  160.7148 H   0  0  0  0  0  0  0  0  0  0  0  0
  131.8643  137.3913  161.9809 H   0  0  0  0  0  0  0  0  0  0  0  0
  130.6683  142.0908  161.3890 H   0  0  0  0  0  0  0  0  0  0  0  0
  129.2016  142.7815  163.2371 H   0  0  0  0  0  0  0  0  0  0  0  0
  1  2  3  0
  2  3  1  0
  3 30  2  0
  3  4  1  0
  4  5  2  0
  4 32  1  0
  5  6  1  0
  5 28  1  0
  6  7  1  0
  6 33  1  0
  6 34  1  0
  7 27  1  0
  7  8  1  0
  7 35  1  1
  8  9  1  0
  8 36  1  0
  8 37  1  0
  9 10  1  0
  9 38  1  0
  9 39  1  0
 10 11  1  6
 10 12  1  0
 10 27  1  0
 12 13  1  0
 12 40  1  0
 12 41  1  0
 13 26  1  0
 13 14  2  0
 14 15  1  0
 14 42  1  0
 15 16  1  0
 15 17  2  0
 17 18  1  0
 17 43  1  0
 18 19  1  0
 18 26  2  0
 19 20  1  0
 20 25  1  0
 20 21  2  0
 21 22  1  0
 21 44  1  0
 22 23  1  0
 22 45  1  0
 22 46  1  0
 23 24  1  0
 23 47  1  0
 23 48  1  0
 24 25  1  0
 24 49  1  0
 24 50  1  0
 25 51  1  0
 25 52  1  0
 26 53  1  0
 27 54  1  0
 27 55  1  0
 28 29  2  0
 28 56  1  0
 29 30  1  0
 29 57  1  0
 30 31  1  0
M  CHG  1  10   1
M  END
>  <DOCK_score>  (1) 
-42.718517

>  <SMILES>  (1) 
N#Cc1cc(CC2CC[N@@H+](Cc3cc(F)cc(SC4=CCCCC4)c3)C2)ccc1F

$$$$
