Cc1ccccc1COc1ccccc1C[C@H]([NH3+])C(=O)Nc1cccc(O)c1
     RDKit          3D

 53 55  0  0  1  0  0  0  0  0999 V2000
  134.2283  141.1883  162.0455 C   0  0  0  0  0  0  0  0  0  0  0  0
  134.4571  140.2578  160.8823 C   0  0  0  0  0  0  0  0  0  0  0  0
  135.6250  140.3440  160.1475 C   0  0  0  0  0  0  0  0  0  0  0  0
  135.8351  139.4903  159.0810 C   0  0  0  0  0  0  0  0  0  0  0  0
  134.8770  138.5506  158.7487 C   0  0  0  0  0  0  0  0  0  0  0  0
  133.7118  138.4608  159.4867 C   0  0  0  0  0  0  0  0  0  0  0  0
  133.4995  139.3181  160.5504 C   0  0  0  0  0  0  0  0  0  0  0  0
  132.2266  139.2240  161.3515 C   0  0  0  0  0  0  0  0  0  0  0  0
  131.4034  138.1851  160.8176 O   0  0  0  0  0  0  0  0  0  0  0  0
  130.5853  137.5372  161.6882 C   0  0  0  0  0  0  0  0  0  0  0  0
  130.0864  138.2023  162.7991 C   0  0  0  0  0  0  0  0  0  0  0  0
  129.2553  137.5416  163.6825 C   0  0  0  0  0  0  0  0  0  0  0  0
  128.9210  136.2181  163.4610 C   0  0  0  0  0  0  0  0  0  0  0  0
  129.4123  135.5550  162.3519 C   0  0  0  0  0  0  0  0  0  0  0  0
  130.2481  136.2100  161.4680 C   0  0  0  0  0  0  0  0  0  0  0  0
  130.7877  135.4846  160.2622 C   0  0  0  0  0  0  0  0  0  0  0  0
  129.8220  135.6581  159.0883 C   0  0  2  0  0  0  0  0  0  0  0  0
  130.2122  135.1336  158.2162 H   0  0  0  0  0  0  0  0  0  0  0  0
  129.6804  137.0868  158.7775 N   0  0  0  0  0  0  0  0  0  0  0  0
  129.0434  137.2012  158.0034 H   0  0  0  0  0  0  0  0  0  0  0  0
  129.3190  137.5724  159.5849 H   0  0  0  0  0  0  0  0  0  0  0  0
  130.5813  137.4683  158.5310 H   0  0  0  0  0  0  0  0  0  0  0  0
  128.4763  135.0883  159.4566 C   0  0  0  0  0  0  0  0  0  0  0  0
  127.4958  135.8022  159.4598 O   0  0  0  0  0  0  0  0  0  0  0  0
  128.3614  133.7842  159.7768 N   0  0  0  0  0  0  0  0  0  0  0  0
  127.1110  133.2540  160.1132 C   0  0  0  0  0  0  0  0  0  0  0  0
  126.8233  131.9228  159.8385 C   0  0  0  0  0  0  0  0  0  0  0  0
  125.5910  131.3980  160.1758 C   0  0  0  0  0  0  0  0  0  0  0  0
  124.6373  132.1978  160.7766 C   0  0  0  0  0  0  0  0  0  0  0  0
  124.9171  133.5295  161.0481 C   0  0  0  0  0  0  0  0  0  0  0  0
  123.9783  134.3148  161.6385 O   0  0  0  0  0  0  0  0  0  0  0  0
  126.1548  134.0584  160.7163 C   0  0  0  0  0  0  0  0  0  0  0  0
  134.6199  140.7349  162.9561 H   0  0  0  0  0  0  0  0  0  0  0  0
  134.7397  142.1331  161.8611 H   0  0  0  0  0  0  0  0  0  0  0  0
  133.1597  141.3701  162.1606 H   0  0  0  0  0  0  0  0  0  0  0  0
  136.3735  141.0780  160.4072 H   0  0  0  0  0  0  0  0  0  0  0  0
  136.7475  139.5575  158.5071 H   0  0  0  0  0  0  0  0  0  0  0  0
  135.0410  137.8838  157.9150 H   0  0  0  0  0  0  0  0  0  0  0  0
  132.9656  137.7235  159.2301 H   0  0  0  0  0  0  0  0  0  0  0  0
  131.6933  140.1732  161.2991 H   0  0  0  0  0  0  0  0  0  0  0  0
  132.4670  138.9993  162.3905 H   0  0  0  0  0  0  0  0  0  0  0  0
  130.3473  139.2360  162.9724 H   0  0  0  0  0  0  0  0  0  0  0  0
  128.8668  138.0588  164.5474 H   0  0  0  0  0  0  0  0  0  0  0  0
  128.2711  135.7032  164.1531 H   0  0  0  0  0  0  0  0  0  0  0  0
  129.1460  134.5227  162.1788 H   0  0  0  0  0  0  0  0  0  0  0  0
  130.8925  134.4245  160.4928 H   0  0  0  0  0  0  0  0  0  0  0  0
  131.7611  135.8966  159.9958 H   0  0  0  0  0  0  0  0  0  0  0  0
  129.1456  133.2132  159.7743 H   0  0  0  0  0  0  0  0  0  0  0  0
  127.5652  131.2969  159.3650 H   0  0  0  0  0  0  0  0  0  0  0  0
  125.3705  130.3619  159.9652 H   0  0  0  0  0  0  0  0  0  0  0  0
  123.6731  131.7856  161.0354 H   0  0  0  0  0  0  0  0  0  0  0  0
  124.2649  135.2265  161.7873 H   0  0  0  0  0  0  0  0  0  0  0  0
  126.3745  135.0946  160.9272 H   0  0  0  0  0  0  0  0  0  0  0  0
  1  2  1  0
  1 33  1  0
  1 34  1  0
  1 35  1  0
  2  7  2  0
  2  3  1  0
  3  4  2  0
  3 36  1  0
  4  5  1  0
  4 37  1  0
  5  6  2  0
  5 38  1  0
  6  7  1  0
  6 39  1  0
  7  8  1  0
  8  9  1  0
  8 40  1  0
  8 41  1  0
  9 10  1  0
 10 15  1  0
 10 11  2  0
 11 12  1  0
 11 42  1  0
 12 13  2  0
 12 43  1  0
 13 14  1  0
 13 44  1  0
 14 15  2  0
 14 45  1  0
 15 16  1  0
 16 17  1  0
 16 46  1  0
 16 47  1  0
 17 18  1  6
 17 19  1  0
 17 23  1  0
 19 20  1  0
 19 21  1  0
 19 22  1  0
 23 24  2  0
 23 25  1  0
 25 26  1  0
 25 48  1  0
 26 32  1  0
 26 27  2  0
 27 28  1  0
 27 49  1  0
 28 29  2  0
 28 50  1  0
 29 30  1  0
 29 51  1  0
 30 31  1  0
 30 32  2  0
 31 52  1  0
 32 53  1  0
M  CHG  1  19   1
M  END
>  <DOCK_score>  (1) 
-44.299839

>  <SMILES>  (1) 
Cc1ccccc1COc1ccccc1C[C@H]([NH3+])C(=O)Nc1cccc(O)c1

$$$$
