Clc1ccc(NC2CC=CC2)c(Nc2[nH]cc(-c3ccccc3)[nH+]2)c1
     RDKit          3D

 45 48  0  0  1  0  0  0  0  0999 V2000
  125.8051  134.0838  159.9952 Cl  0  0  0  0  0  0  0  0  0  0  0  0
  127.4052  134.7551  159.9421 C   0  0  0  0  0  0  0  0  0  0  0  0
  127.8130  135.6448  160.9202 C   0  0  0  0  0  0  0  0  0  0  0  0
  129.0861  136.1828  160.8833 C   0  0  0  0  0  0  0  0  0  0  0  0
  129.9585  135.8310  159.8646 C   0  0  0  0  0  0  0  0  0  0  0  0
  131.2480  136.3754  159.8254 N   0  0  0  0  0  0  0  0  0  0  0  0
  131.9268  136.7410  161.0711 C   0  0  0  0  0  0  0  0  0  0  0  0
  131.7894  138.2550  161.3543 C   0  0  0  0  0  0  0  0  0  0  0  0
  133.0296  138.8749  160.7535 C   0  0  0  0  0  0  0  0  0  0  0  0
  133.9423  137.9708  160.5228 C   0  0  0  0  0  0  0  0  0  0  0  0
  133.4632  136.5973  160.9315 C   0  0  0  0  0  0  0  0  0  0  0  0
  129.5462  134.9381  158.8758 C   0  0  0  0  0  0  0  0  0  0  0  0
  130.4212  134.5829  157.8412 N   0  0  0  0  0  0  0  0  0  0  0  0
  130.3262  133.3331  157.2524 C   0  0  0  0  0  0  0  0  0  0  0  0
  129.9053  132.1954  157.8700 N   0  0  0  0  0  0  0  0  0  0  0  0
  129.6204  132.1148  158.7937 H   0  0  0  0  0  0  0  0  0  0  0  0
  129.9551  131.1835  156.9428 C   0  0  0  0  0  0  0  0  0  0  0  0
  130.4134  131.7289  155.7888 C   0  0  0  0  0  0  0  0  0  0  0  0
  130.6352  131.0092  154.5109 C   0  0  0  0  0  0  0  0  0  0  0  0
  129.9413  131.3904  153.3638 C   0  0  0  0  0  0  0  0  0  0  0  0
  130.1556  130.7204  152.1764 C   0  0  0  0  0  0  0  0  0  0  0  0
  131.0483  129.6656  152.1257 C   0  0  0  0  0  0  0  0  0  0  0  0
  131.7362  129.2792  153.2625 C   0  0  0  0  0  0  0  0  0  0  0  0
  131.5340  129.9456  154.4541 C   0  0  0  0  0  0  0  0  0  0  0  0
  130.6322  133.0492  156.0097 N   0  0  0  0  0  0  0  0  0  0  0  0
  130.9627  133.6822  155.3531 H   0  0  0  0  0  0  0  0  0  0  0  0
  128.2694  134.3988  158.9222 C   0  0  0  0  0  0  0  0  0  0  0  0
  127.1349  135.9199  161.7144 H   0  0  0  0  0  0  0  0  0  0  0  0
  129.4010  136.8775  161.6479 H   0  0  0  0  0  0  0  0  0  0  0  0
  131.6919  136.5103  158.9737 H   0  0  0  0  0  0  0  0  0  0  0  0
  131.5514  136.1510  161.9072 H   0  0  0  0  0  0  0  0  0  0  0  0
  131.7553  138.4389  162.4283 H   0  0  0  0  0  0  0  0  0  0  0  0
  130.8954  138.6517  160.8734 H   0  0  0  0  0  0  0  0  0  0  0  0
  133.1453  139.9276  160.5422 H   0  0  0  0  0  0  0  0  0  0  0  0
  134.9126  138.1773  160.0956 H   0  0  0  0  0  0  0  0  0  0  0  0
  133.7071  135.8654  160.1615 H   0  0  0  0  0  0  0  0  0  0  0  0
  133.9075  136.3079  161.8838 H   0  0  0  0  0  0  0  0  0  0  0  0
  131.0937  135.2124  157.5372 H   0  0  0  0  0  0  0  0  0  0  0  0
  129.6853  130.1500  157.1034 H   0  0  0  0  0  0  0  0  0  0  0  0
  129.2405  132.2112  153.4031 H   0  0  0  0  0  0  0  0  0  0  0  0
  129.6217  131.0178  151.2859 H   0  0  0  0  0  0  0  0  0  0  0  0
  131.2095  129.1415  151.1953 H   0  0  0  0  0  0  0  0  0  0  0  0
  132.4327  128.4550  153.2172 H   0  0  0  0  0  0  0  0  0  0  0  0
  132.0716  129.6436  155.3408 H   0  0  0  0  0  0  0  0  0  0  0  0
  127.9482  133.7045  158.1600 H   0  0  0  0  0  0  0  0  0  0  0  0
  1  2  1  0
  2 27  2  0
  2  3  1  0
  3  4  2  0
  3 28  1  0
  4  5  1  0
  4 29  1  0
  5  6  1  0
  5 12  2  0
  6  7  1  0
  6 30  1  0
  7 11  1  0
  7  8  1  0
  7 31  1  0
  8  9  1  0
  8 32  1  0
  8 33  1  0
  9 10  2  0
  9 34  1  0
 10 11  1  0
 10 35  1  0
 11 36  1  0
 11 37  1  0
 12 13  1  0
 12 27  1  0
 13 38  1  0
 14 13  1  0
 14 25  2  0
 14 15  1  0
 15 16  1  0
 15 17  1  0
 17 18  2  0
 17 39  1  0
 18 19  1  0
 18 25  1  0
 19 24  1  0
 19 20  2  0
 20 21  1  0
 20 40  1  0
 21 22  2  0
 21 41  1  0
 22 23  1  0
 22 42  1  0
 23 24  2  0
 23 43  1  0
 24 44  1  0
 25 26  1  0
 27 45  1  0
M  CHG  1  25   1
M  END
>  <DOCK_score>  (1) 
-61.763107

>  <SMILES>  (1) 
Clc1ccc(NC2CC=CC2)c(Nc2[nH]cc(-c3ccccc3)[nH+]2)c1

$$$$
