[NH3+][C@@H](C(=O)Nc1cccc(O)c1)c1cccc(C2=CCCCC2)c1
     RDKit          3D

 47 49  0  0  1  0  0  0  0  0999 V2000
  130.7389  133.6535  157.9064 N   0  0  0  0  0  0  0  0  0  0  0  0
  130.3036  133.2443  157.0934 H   0  0  0  0  0  0  0  0  0  0  0  0
  131.6133  134.0811  157.6406 H   0  0  0  0  0  0  0  0  0  0  0  0
  130.9111  132.9348  158.5934 H   0  0  0  0  0  0  0  0  0  0  0  0
  129.8489  134.6732  158.4774 C   0  0  1  0  0  0  0  0  0  0  0  0
  129.6628  135.4498  157.7355 H   0  0  0  0  0  0  0  0  0  0  0  0
  128.5429  134.0346  158.8746 C   0  0  0  0  0  0  0  0  0  0  0  0
  128.1296  133.0704  158.2661 O   0  0  0  0  0  0  0  0  0  0  0  0
  127.8342  134.5350  159.9061 N   0  0  0  0  0  0  0  0  0  0  0  0
  126.6218  133.9421  160.2748 C   0  0  0  0  0  0  0  0  0  0  0  0
  126.4214  132.5827  160.0691 C   0  0  0  0  0  0  0  0  0  0  0  0
  125.2266  131.9963  160.4384 C   0  0  0  0  0  0  0  0  0  0  0  0
  124.2234  132.7616  161.0027 C   0  0  0  0  0  0  0  0  0  0  0  0
  124.4159  134.1208  161.2052 C   0  0  0  0  0  0  0  0  0  0  0  0
  123.4286  134.8720  161.7599 O   0  0  0  0  0  0  0  0  0  0  0  0
  125.6158  134.7119  160.8412 C   0  0  0  0  0  0  0  0  0  0  0  0
  130.4990  135.2844  159.6919 C   0  0  0  0  0  0  0  0  0  0  0  0
  131.3671  134.5316  160.4627 C   0  0  0  0  0  0  0  0  0  0  0  0
  131.9634  135.0833  161.5821 C   0  0  0  0  0  0  0  0  0  0  0  0
  131.6992  136.3911  161.9344 C   0  0  0  0  0  0  0  0  0  0  0  0
  130.8290  137.1572  161.1585 C   0  0  0  0  0  0  0  0  0  0  0  0
  130.5413  138.5586  161.5303 C   0  0  0  0  0  0  0  0  0  0  0  0
  131.4737  139.2345  162.1570 C   0  0  0  0  0  0  0  0  0  0  0  0
  131.3189  140.6607  162.5979 C   0  0  0  0  0  0  0  0  0  0  0  0
  130.1419  141.3139  161.8704 C   0  0  0  0  0  0  0  0  0  0  0  0
  128.9240  140.3890  161.9874 C   0  0  0  0  0  0  0  0  0  0  0  0
  129.1967  139.1221  161.1740 C   0  0  0  0  0  0  0  0  0  0  0  0
  130.2309  136.5948  160.0300 C   0  0  0  0  0  0  0  0  0  0  0  0
  128.1648  135.3062  160.3928 H   0  0  0  0  0  0  0  0  0  0  0  0
  127.2020  131.9834  159.6243 H   0  0  0  0  0  0  0  0  0  0  0  0
  125.0741  130.9387  160.2816 H   0  0  0  0  0  0  0  0  0  0  0  0
  123.2889  132.3010  161.2867 H   0  0  0  0  0  0  0  0  0  0  0  0
  123.6552  135.8067  161.8609 H   0  0  0  0  0  0  0  0  0  0  0  0
  125.7675  135.7696  160.9984 H   0  0  0  0  0  0  0  0  0  0  0  0
  131.5771  133.5076  160.1912 H   0  0  0  0  0  0  0  0  0  0  0  0
  132.6370  134.4892  162.1819 H   0  0  0  0  0  0  0  0  0  0  0  0
  132.1650  136.8205  162.8092 H   0  0  0  0  0  0  0  0  0  0  0  0
  132.4094  138.7369  162.3647 H   0  0  0  0  0  0  0  0  0  0  0  0
  132.2325  141.2117  162.3745 H   0  0  0  0  0  0  0  0  0  0  0  0
  131.1380  140.6856  163.6727 H   0  0  0  0  0  0  0  0  0  0  0  0
  130.3942  141.4559  160.8195 H   0  0  0  0  0  0  0  0  0  0  0  0
  129.9162  142.2766  162.3292 H   0  0  0  0  0  0  0  0  0  0  0  0
  128.0416  140.8939  161.5941 H   0  0  0  0  0  0  0  0  0  0  0  0
  128.7632  140.1256  163.0327 H   0  0  0  0  0  0  0  0  0  0  0  0
  129.1763  139.3637  160.1113 H   0  0  0  0  0  0  0  0  0  0  0  0
  128.4260  138.3818  161.3889 H   0  0  0  0  0  0  0  0  0  0  0  0
  129.5564  137.1826  159.4251 H   0  0  0  0  0  0  0  0  0  0  0  0
  1  2  1  0
  1  3  1  0
  1  4  1  0
  1  5  1  0
  5  6  1  6
  5  7  1  0
  5 17  1  0
  7  8  2  0
  7  9  1  0
  9 10  1  0
  9 29  1  0
 10 16  1  0
 10 11  2  0
 11 12  1  0
 11 30  1  0
 12 13  2  0
 12 31  1  0
 13 14  1  0
 13 32  1  0
 14 15  1  0
 14 16  2  0
 15 33  1  0
 16 34  1  0
 17 28  1  0
 17 18  2  0
 18 19  1  0
 18 35  1  0
 19 20  2  0
 19 36  1  0
 20 21  1  0
 20 37  1  0
 21 22  1  0
 21 28  2  0
 22 27  1  0
 22 23  2  0
 23 24  1  0
 23 38  1  0
 24 25  1  0
 24 39  1  0
 24 40  1  0
 25 26  1  0
 25 41  1  0
 25 42  1  0
 26 27  1  0
 26 43  1  0
 26 44  1  0
 27 45  1  0
 27 46  1  0
 28 47  1  0
M  CHG  1   1   1
M  END
>  <DOCK_score>  (1) 
-41.06279

>  <SMILES>  (1) 
[NH3+][C@@H](C(=O)Nc1cccc(O)c1)c1cccc(C2=CCCCC2)c1

$$$$
