O=C1CC[C@H](NC(NC2CCC2)=[NH+][C@H]2COc3ccc(CCF)cc3C2)CN1
     RDKit          3D

 58 61  0  0  1  0  0  0  0  0999 V2000
  124.0038  133.5737  161.3646 O   0  0  0  0  0  0  0  0  0  0  0  0
  125.1924  133.7928  161.2627 C   0  0  0  0  0  0  0  0  0  0  0  0
  126.0603  132.7329  160.6473 C   0  0  0  0  0  0  0  0  0  0  0  0
  127.5274  132.9931  160.9977 C   0  0  0  0  0  0  0  0  0  0  0  0
  127.8430  134.4641  160.7013 C   0  0  2  0  0  0  0  0  0  0  0  0
  127.5445  134.7038  159.6808 H   0  0  0  0  0  0  0  0  0  0  0  0
  129.2800  134.7005  160.8614 N   0  0  0  0  0  0  0  0  0  0  0  0
  130.1261  134.5435  159.7893 C   0  0  0  0  0  0  0  0  0  0  0  0
  129.6239  134.1646  158.5669 N   0  0  0  0  0  0  0  0  0  0  0  0
  130.4520  133.3831  157.6451 C   0  0  0  0  0  0  0  0  0  0  0  0
  129.6389  132.5851  156.6123 C   0  0  0  0  0  0  0  0  0  0  0  0
  130.6436  131.4400  156.8227 C   0  0  0  0  0  0  0  0  0  0  0  0
  130.9032  132.0296  158.2191 C   0  0  0  0  0  0  0  0  0  0  0  0
  131.4045  134.7540  159.9318 N   0  0  0  0  0  0  0  0  0  0  0  0
  132.0403  134.2650  159.3864 H   0  0  0  0  0  0  0  0  0  0  0  0
  131.8812  135.7292  160.9157 C   0  0  1  0  0  0  0  0  0  0  0  0
  131.5526  135.4357  161.9128 H   0  0  0  0  0  0  0  0  0  0  0  0
  133.4132  135.7980  160.8754 C   0  0  0  0  0  0  0  0  0  0  0  0
  133.8522  136.6768  161.9122 O   0  0  0  0  0  0  0  0  0  0  0  0
  133.2541  137.8926  162.0096 C   0  0  0  0  0  0  0  0  0  0  0  0
  133.8869  138.8865  162.7500 C   0  0  0  0  0  0  0  0  0  0  0  0
  133.3085  140.1327  162.8762 C   0  0  0  0  0  0  0  0  0  0  0  0
  132.0961  140.3965  162.2658 C   0  0  0  0  0  0  0  0  0  0  0  0
  131.4626  141.7568  162.4044 C   0  0  0  0  0  0  0  0  0  0  0  0
  130.5549  141.7738  163.6359 C   0  0  0  0  0  0  0  0  0  0  0  0
  129.9669  143.0365  163.7645 F   0  0  0  0  0  0  0  0  0  0  0  0
  131.4661  139.4130  161.5287 C   0  0  0  0  0  0  0  0  0  0  0  0
  132.0427  138.1606  161.3969 C   0  0  0  0  0  0  0  0  0  0  0  0
  131.3291  137.1161  160.5769 C   0  0  0  0  0  0  0  0  0  0  0  0
  127.0661  135.3425  161.6828 C   0  0  0  0  0  0  0  0  0  0  0  0
  125.6586  134.9622  161.7028 N   0  0  0  0  0  0  0  0  0  0  0  0
  125.9383  132.7489  159.5643 H   0  0  0  0  0  0  0  0  0  0  0  0
  125.7646  131.7559  161.0294 H   0  0  0  0  0  0  0  0  0  0  0  0
  128.1684  132.3513  160.3932 H   0  0  0  0  0  0  0  0  0  0  0  0
  127.6943  132.7877  162.0551 H   0  0  0  0  0  0  0  0  0  0  0  0
  129.6343  134.9678  161.7240 H   0  0  0  0  0  0  0  0  0  0  0  0
  128.7213  134.4147  158.3149 H   0  0  0  0  0  0  0  0  0  0  0  0
  131.2638  133.9648  157.2086 H   0  0  0  0  0  0  0  0  0  0  0  0
  128.6282  132.3454  156.9429 H   0  0  0  0  0  0  0  0  0  0  0  0
  129.6672  133.0121  155.6098 H   0  0  0  0  0  0  0  0  0  0  0  0
  131.5075  131.4898  156.1600 H   0  0  0  0  0  0  0  0  0  0  0  0
  130.1821  130.4526  156.8447 H   0  0  0  0  0  0  0  0  0  0  0  0
  131.9525  132.0084  158.5138 H   0  0  0  0  0  0  0  0  0  0  0  0
  130.2391  131.6389  158.9899 H   0  0  0  0  0  0  0  0  0  0  0  0
  133.8296  134.8036  161.0365 H   0  0  0  0  0  0  0  0  0  0  0  0
  133.7383  136.1803  159.9078 H   0  0  0  0  0  0  0  0  0  0  0  0
  134.8337  138.6816  163.2274 H   0  0  0  0  0  0  0  0  0  0  0  0
  133.8027  140.9019  163.4512 H   0  0  0  0  0  0  0  0  0  0  0  0
  132.2418  142.5107  162.5170 H   0  0  0  0  0  0  0  0  0  0  0  0
  130.8720  141.9749  161.5146 H   0  0  0  0  0  0  0  0  0  0  0  0
  129.7757  141.0198  163.5231 H   0  0  0  0  0  0  0  0  0  0  0  0
  131.1455  141.5555  164.5257 H   0  0  0  0  0  0  0  0  0  0  0  0
  130.5194  139.6216  161.0527 H   0  0  0  0  0  0  0  0  0  0  0  0
  131.4834  137.3189  159.5170 H   0  0  0  0  0  0  0  0  0  0  0  0
  130.2625  137.1463  160.7998 H   0  0  0  0  0  0  0  0  0  0  0  0
  127.4838  135.2222  162.6824 H   0  0  0  0  0  0  0  0  0  0  0  0
  127.1560  136.3860  161.3814 H   0  0  0  0  0  0  0  0  0  0  0  0
  125.0207  135.6017  162.0565 H   0  0  0  0  0  0  0  0  0  0  0  0
  1  2  2  0
  2 31  1  0
  2  3  1  0
  3  4  1  0
  3 32  1  0
  3 33  1  0
  4  5  1  0
  4 34  1  0
  4 35  1  0
  5  6  1  6
  5  7  1  0
  5 30  1  0
  7 36  1  0
  8  7  1  0
  8  9  1  0
  8 14  2  0
  9 10  1  0
  9 37  1  0
 10 13  1  0
 10 11  1  0
 10 38  1  0
 11 12  1  0
 11 39  1  0
 11 40  1  0
 12 13  1  0
 12 41  1  0
 12 42  1  0
 13 43  1  0
 13 44  1  0
 14 15  1  0
 14 16  1  0
 16 17  1  1
 16 29  1  0
 16 18  1  0
 18 19  1  0
 18 45  1  0
 18 46  1  0
 19 20  1  0
 20 28  2  0
 20 21  1  0
 21 22  2  0
 21 47  1  0
 22 23  1  0
 22 48  1  0
 23 24  1  0
 23 27  2  0
 24 25  1  0
 24 49  1  0
 24 50  1  0
 25 26  1  0
 25 51  1  0
 25 52  1  0
 27 28  1  0
 27 53  1  0
 28 29  1  0
 29 54  1  0
 29 55  1  0
 30 31  1  0
 30 56  1  0
 30 57  1  0
 31 58  1  0
M  CHG  1  14   1
M  END
>  <DOCK_score>  (1) 
-44.04274

>  <SMILES>  (1) 
O=C1CC[C@H](NC(NC2CCC2)=[NH+][C@H]2COc3ccc(CCF)cc3C2)CN1

$$$$
