Nc1cccc(-c2cccc(C3=CC[N@H+](Cc4ccc(-c5ccccc5)[nH]4)CC3)c2)c1
     RDKit          3D

 59 63  0  0  1  0  0  0  0  0999 V2000
  135.8086  138.9547  166.4544 N   0  0  0  0  0  0  0  0  0  0  0  0
  135.9398  139.7620  165.3219 C   0  0  0  0  0  0  0  0  0  0  0  0
  136.4992  141.0297  165.4325 C   0  0  0  0  0  0  0  0  0  0  0  0
  136.6309  141.8305  164.3145 C   0  0  0  0  0  0  0  0  0  0  0  0
  136.2126  141.3743  163.0800 C   0  0  0  0  0  0  0  0  0  0  0  0
  135.6459  140.1068  162.9605 C   0  0  0  0  0  0  0  0  0  0  0  0
  135.1911  139.6173  161.6354 C   0  0  0  0  0  0  0  0  0  0  0  0
  135.8300  140.0505  160.4741 C   0  0  0  0  0  0  0  0  0  0  0  0
  135.4092  139.5962  159.2398 C   0  0  0  0  0  0  0  0  0  0  0  0
  134.3574  138.7064  159.1471 C   0  0  0  0  0  0  0  0  0  0  0  0
  133.7064  138.2695  160.3019 C   0  0  0  0  0  0  0  0  0  0  0  0
  132.5769  137.3210  160.2020 C   0  0  0  0  0  0  0  0  0  0  0  0
  131.3572  137.7979  160.0795 C   0  0  0  0  0  0  0  0  0  0  0  0
  130.1435  136.9199  159.9762 C   0  0  0  0  0  0  0  0  0  0  0  0
  130.5298  135.5549  159.6007 N   0  0  2  0  0  0  0  0  0  0  0  0
  130.8913  135.5532  158.6587 H   0  0  0  0  0  0  0  0  0  0  0  0
  129.3580  134.6726  159.6811 C   0  0  0  0  0  0  0  0  0  0  0  0
  129.6030  133.4356  158.8559 C   0  0  0  0  0  0  0  0  0  0  0  0
  129.3329  132.1679  159.2349 C   0  0  0  0  0  0  0  0  0  0  0  0
  129.7083  131.3184  158.1814 C   0  0  0  0  0  0  0  0  0  0  0  0
  130.2006  132.1034  157.1827 C   0  0  0  0  0  0  0  0  0  0  0  0
  130.7151  131.6324  155.8790 C   0  0  0  0  0  0  0  0  0  0  0  0
  130.6028  132.4418  154.7474 C   0  0  0  0  0  0  0  0  0  0  0  0
  131.0896  131.9987  153.5350 C   0  0  0  0  0  0  0  0  0  0  0  0
  131.6786  130.7506  153.4372 C   0  0  0  0  0  0  0  0  0  0  0  0
  131.7881  129.9411  154.5538 C   0  0  0  0  0  0  0  0  0  0  0  0
  131.3100  130.3745  155.7732 C   0  0  0  0  0  0  0  0  0  0  0  0
  130.1291  133.4082  157.5987 N   0  0  0  0  0  0  0  0  0  0  0  0
  130.4088  134.1821  157.0851 H   0  0  0  0  0  0  0  0  0  0  0  0
  131.5688  135.0792  160.5276 C   0  0  0  0  0  0  0  0  0  0  0  0
  132.8637  135.8451  160.2445 C   0  0  0  0  0  0  0  0  0  0  0  0
  134.1275  138.7253  161.5497 C   0  0  0  0  0  0  0  0  0  0  0  0
  135.5125  139.2988  164.0865 C   0  0  0  0  0  0  0  0  0  0  0  0
  135.4184  138.0701  166.3768 H   0  0  0  0  0  0  0  0  0  0  0  0
  136.1075  139.2790  167.3184 H   0  0  0  0  0  0  0  0  0  0  0  0
  136.8313  141.3897  166.3951 H   0  0  0  0  0  0  0  0  0  0  0  0
  137.0665  142.8147  164.4053 H   0  0  0  0  0  0  0  0  0  0  0  0
  136.3210  142.0016  162.2076 H   0  0  0  0  0  0  0  0  0  0  0  0
  136.6557  140.7434  160.5401 H   0  0  0  0  0  0  0  0  0  0  0  0
  135.9077  139.9347  158.3434 H   0  0  0  0  0  0  0  0  0  0  0  0
  134.0352  138.3513  158.1794 H   0  0  0  0  0  0  0  0  0  0  0  0
  131.2227  138.8691  160.0516 H   0  0  0  0  0  0  0  0  0  0  0  0
  129.4692  137.3244  159.2212 H   0  0  0  0  0  0  0  0  0  0  0  0
  129.6344  136.8984  160.9397 H   0  0  0  0  0  0  0  0  0  0  0  0
  129.1874  134.3888  160.7196 H   0  0  0  0  0  0  0  0  0  0  0  0
  128.4818  135.1966  159.2991 H   0  0  0  0  0  0  0  0  0  0  0  0
  128.9055  131.8622  160.1785 H   0  0  0  0  0  0  0  0  0  0  0  0
  129.6228  130.2419  158.1659 H   0  0  0  0  0  0  0  0  0  0  0  0
  130.1392  133.4144  154.8217 H   0  0  0  0  0  0  0  0  0  0  0  0
  131.0070  132.6256  152.6595 H   0  0  0  0  0  0  0  0  0  0  0  0
  132.0545  130.4067  152.4849 H   0  0  0  0  0  0  0  0  0  0  0  0
  132.2489  128.9678  154.4707 H   0  0  0  0  0  0  0  0  0  0  0  0
  131.3957  129.7413  156.6440 H   0  0  0  0  0  0  0  0  0  0  0  0
  131.2535  135.2608  161.5552 H   0  0  0  0  0  0  0  0  0  0  0  0
  131.7341  134.0126  160.3760 H   0  0  0  0  0  0  0  0  0  0  0  0
  133.5876  135.6383  161.0328 H   0  0  0  0  0  0  0  0  0  0  0  0
  133.2713  135.5270  159.2851 H   0  0  0  0  0  0  0  0  0  0  0  0
  133.6298  138.3874  162.4467 H   0  0  0  0  0  0  0  0  0  0  0  0
  135.0773  138.3144  163.9981 H   0  0  0  0  0  0  0  0  0  0  0  0
  1  2  1  0
  1 34  1  0
  1 35  1  0
  2 33  2  0
  2  3  1  0
  3  4  2  0
  3 36  1  0
  4  5  1  0
  4 37  1  0
  5  6  2  0
  5 38  1  0
  6  7  1  0
  6 33  1  0
  7 32  1  0
  7  8  2  0
  8  9  1  0
  8 39  1  0
  9 10  2  0
  9 40  1  0
 10 11  1  0
 10 41  1  0
 11 12  1  0
 11 32  2  0
 12 31  1  0
 12 13  2  0
 13 14  1  0
 13 42  1  0
 14 15  1  0
 14 43  1  0
 14 44  1  0
 15 16  1  6
 15 17  1  0
 15 30  1  0
 17 18  1  0
 17 45  1  0
 17 46  1  0
 18 28  1  0
 18 19  2  0
 19 20  1  0
 19 47  1  0
 20 21  2  0
 20 48  1  0
 21 22  1  0
 21 28  1  0
 22 27  1  0
 22 23  2  0
 23 24  1  0
 23 49  1  0
 24 25  2  0
 24 50  1  0
 25 26  1  0
 25 51  1  0
 26 27  2  0
 26 52  1  0
 27 53  1  0
 28 29  1  0
 30 31  1  0
 30 54  1  0
 30 55  1  0
 31 56  1  0
 31 57  1  0
 32 58  1  0
 33 59  1  0
M  CHG  1  15   1
M  END
>  <DOCK_score>  (1) 
-59.42688

>  <SMILES>  (1) 
Nc1cccc(-c2cccc(C3=CC[N@H+](Cc4ccc(-c5ccccc5)[nH]4)CC3)c2)c1

$$$$
