Cc1c(F)cccc1C(=O)Nc1cccnc1C[NH+]=C(NCc1ncccc1C1CC1)NC1CC1
     RDKit          3D

 65 69  0  0  1  0  0  0  0  0999 V2000
  125.1771  141.2005  164.3748 C   0  0  0  0  0  0  0  0  0  0  0  0
  126.1669  140.8318  165.4498 C   0  0  0  0  0  0  0  0  0  0  0  0
  126.7509  141.8183  166.2218 C   0  0  0  0  0  0  0  0  0  0  0  0
  126.4339  143.1148  166.0123 F   0  0  0  0  0  0  0  0  0  0  0  0
  127.6648  141.4800  167.2067 C   0  0  0  0  0  0  0  0  0  0  0  0
  127.9940  140.1544  167.4267 C   0  0  0  0  0  0  0  0  0  0  0  0
  127.4139  139.1605  166.6663 C   0  0  0  0  0  0  0  0  0  0  0  0
  126.4921  139.4931  165.6720 C   0  0  0  0  0  0  0  0  0  0  0  0
  125.8678  138.4321  164.8537 C   0  0  0  0  0  0  0  0  0  0  0  0
  124.6600  138.2952  164.8547 O   0  0  0  0  0  0  0  0  0  0  0  0
  126.6379  137.6163  164.1068 N   0  0  0  0  0  0  0  0  0  0  0  0
  126.0471  136.6123  163.3325 C   0  0  0  0  0  0  0  0  0  0  0  0
  124.8525  136.0197  163.7355 C   0  0  0  0  0  0  0  0  0  0  0  0
  124.3063  135.0303  162.9350 C   0  0  0  0  0  0  0  0  0  0  0  0
  124.9587  134.6657  161.7718 C   0  0  0  0  0  0  0  0  0  0  0  0
  126.0860  135.2498  161.4156 N   0  0  0  0  0  0  0  0  0  0  0  0
  126.6425  136.1918  162.1506 C   0  0  0  0  0  0  0  0  0  0  0  0
  127.9348  136.8233  161.7004 C   0  0  0  0  0  0  0  0  0  0  0  0
  128.3604  136.2169  160.4365 N   0  0  0  0  0  0  0  0  0  0  0  0
  127.8235  135.5199  160.0281 H   0  0  0  0  0  0  0  0  0  0  0  0
  129.4604  136.6139  159.8610 C   0  0  0  0  0  0  0  0  0  0  0  0
  130.2213  137.6017  160.4400 N   0  0  0  0  0  0  0  0  0  0  0  0
  131.4577  138.0481  159.7933 C   0  0  0  0  0  0  0  0  0  0  0  0
  132.0973  139.1300  160.6246 C   0  0  0  0  0  0  0  0  0  0  0  0
  131.5226  139.5148  161.7474 N   0  0  0  0  0  0  0  0  0  0  0  0
  132.0459  140.4571  162.5069 C   0  0  0  0  0  0  0  0  0  0  0  0
  133.2267  141.0797  162.1482 C   0  0  0  0  0  0  0  0  0  0  0  0
  133.8601  140.7017  160.9743 C   0  0  0  0  0  0  0  0  0  0  0  0
  133.2823  139.7035  160.2045 C   0  0  0  0  0  0  0  0  0  0  0  0
  133.9353  139.2539  158.9229 C   0  0  0  0  0  0  0  0  0  0  0  0
  134.7805  137.9793  158.9701 C   0  0  0  0  0  0  0  0  0  0  0  0
  135.4602  139.3445  158.8374 C   0  0  0  0  0  0  0  0  0  0  0  0
  129.8598  136.0447  158.6750 N   0  0  0  0  0  0  0  0  0  0  0  0
  129.0491  134.9920  158.0582 C   0  0  0  0  0  0  0  0  0  0  0  0
  129.2152  133.5679  158.5924 C   0  0  0  0  0  0  0  0  0  0  0  0
  129.7771  133.9401  157.2188 C   0  0  0  0  0  0  0  0  0  0  0  0
  124.1648  141.1267  164.7722 H   0  0  0  0  0  0  0  0  0  0  0  0
  125.3639  142.2219  164.0438 H   0  0  0  0  0  0  0  0  0  0  0  0
  125.2867  140.5193  163.5310 H   0  0  0  0  0  0  0  0  0  0  0  0
  128.1217  142.2541  167.8052 H   0  0  0  0  0  0  0  0  0  0  0  0
  128.7075  139.8971  168.1957 H   0  0  0  0  0  0  0  0  0  0  0  0
  127.6723  138.1263  166.8401 H   0  0  0  0  0  0  0  0  0  0  0  0
  127.6017  137.7256  164.1060 H   0  0  0  0  0  0  0  0  0  0  0  0
  124.3644  136.3246  164.6493 H   0  0  0  0  0  0  0  0  0  0  0  0
  123.3811  134.5492  163.2162 H   0  0  0  0  0  0  0  0  0  0  0  0
  124.5370  133.8947  161.1440 H   0  0  0  0  0  0  0  0  0  0  0  0
  128.7017  136.6608  162.4577 H   0  0  0  0  0  0  0  0  0  0  0  0
  127.7859  137.8937  161.5579 H   0  0  0  0  0  0  0  0  0  0  0  0
  129.9395  138.0033  161.2769 H   0  0  0  0  0  0  0  0  0  0  0  0
  132.1442  137.2062  159.7018 H   0  0  0  0  0  0  0  0  0  0  0  0
  131.2284  138.4391  158.8020 H   0  0  0  0  0  0  0  0  0  0  0  0
  131.5461  140.7460  163.4197 H   0  0  0  0  0  0  0  0  0  0  0  0
  133.6503  141.8509  162.7742 H   0  0  0  0  0  0  0  0  0  0  0  0
  134.7840  141.1704  160.6690 H   0  0  0  0  0  0  0  0  0  0  0  0
  133.3677  139.4479  158.0129 H   0  0  0  0  0  0  0  0  0  0  0  0
  134.8642  137.4661  159.9281 H   0  0  0  0  0  0  0  0  0  0  0  0
  134.7692  137.3352  158.0909 H   0  0  0  0  0  0  0  0  0  0  0  0
  135.8958  139.5978  157.8709 H   0  0  0  0  0  0  0  0  0  0  0  0
  135.9911  139.7296  159.7079 H   0  0  0  0  0  0  0  0  0  0  0  0
  130.6786  136.3402  158.2468 H   0  0  0  0  0  0  0  0  0  0  0  0
  128.0539  135.2948  157.7328 H   0  0  0  0  0  0  0  0  0  0  0  0
  129.9278  133.4143  159.4029 H   0  0  0  0  0  0  0  0  0  0  0  0
  128.3291  132.9336  158.6186 H   0  0  0  0  0  0  0  0  0  0  0  0
  129.2607  133.5507  156.3414 H   0  0  0  0  0  0  0  0  0  0  0  0
  130.8593  134.0316  157.1254 H   0  0  0  0  0  0  0  0  0  0  0  0
  1  2  1  0
  1 37  1  0
  1 38  1  0
  1 39  1  0
  2  8  2  0
  2  3  1  0
  3  4  1  0
  3  5  2  0
  5  6  1  0
  5 40  1  0
  6  7  2  0
  6 41  1  0
  7  8  1  0
  7 42  1  0
  8  9  1  0
  9 10  2  0
  9 11  1  0
 11 12  1  0
 11 43  1  0
 12 17  1  0
 12 13  2  0
 13 14  1  0
 13 44  1  0
 14 15  2  0
 14 45  1  0
 15 16  1  0
 15 46  1  0
 16 17  2  0
 17 18  1  0
 18 19  1  0
 18 47  1  0
 18 48  1  0
 19 20  1  0
 21 19  2  0
 21 22  1  0
 21 33  1  0
 22 23  1  0
 22 49  1  0
 23 24  1  0
 23 50  1  0
 23 51  1  0
 24 29  1  0
 24 25  2  0
 25 26  1  0
 26 27  2  0
 26 52  1  0
 27 28  1  0
 27 53  1  0
 28 29  2  0
 28 54  1  0
 29 30  1  0
 30 32  1  0
 30 31  1  0
 30 55  1  0
 31 32  1  0
 31 56  1  0
 31 57  1  0
 32 58  1  0
 32 59  1  0
 33 34  1  0
 33 60  1  0
 34 36  1  0
 34 35  1  0
 34 61  1  0
 35 36  1  0
 35 62  1  0
 35 63  1  0
 36 64  1  0
 36 65  1  0
M  CHG  1  19   1
M  END
>  <DOCK_score>  (1) 
-46.139576

>  <SMILES>  (1) 
Cc1c(F)cccc1C(=O)Nc1cccnc1C[NH+]=C(NCc1ncccc1C1CC1)NC1CC1

$$$$
