Nc1ccc(-c2c[nH]c(NCc3cn(-c4ccccc4)nc3-c3cccnc3)[nH+]2)cc1
     RDKit          3D

 53 57  0  0  1  0  0  0  0  0999 V2000
  131.0101  130.0262  152.8675 N   0  0  0  0  0  0  0  0  0  0  0  0
  130.9614  130.7188  154.0797 C   0  0  0  0  0  0  0  0  0  0  0  0
  130.6149  132.0646  154.0966 C   0  0  0  0  0  0  0  0  0  0  0  0
  130.5668  132.7503  155.2920 C   0  0  0  0  0  0  0  0  0  0  0  0
  130.8655  132.0925  156.4842 C   0  0  0  0  0  0  0  0  0  0  0  0
  130.8143  132.8280  157.7715 C   0  0  0  0  0  0  0  0  0  0  0  0
  130.5129  132.2971  158.9822 C   0  0  0  0  0  0  0  0  0  0  0  0
  130.5867  133.3215  159.8961 N   0  0  0  0  0  0  0  0  0  0  0  0
  130.4267  133.2528  160.8505 H   0  0  0  0  0  0  0  0  0  0  0  0
  130.9222  134.4501  159.2142 C   0  0  0  0  0  0  0  0  0  0  0  0
  131.0946  135.7066  159.7695 N   0  0  0  0  0  0  0  0  0  0  0  0
  131.3509  135.8439  161.2052 C   0  0  0  0  0  0  0  0  0  0  0  0
  130.7927  137.1564  161.6920 C   0  0  0  0  0  0  0  0  0  0  0  0
  129.5464  137.3615  162.1709 C   0  0  0  0  0  0  0  0  0  0  0  0
  129.4382  138.6746  162.5023 N   0  0  0  0  0  0  0  0  0  0  0  0
  128.3030  139.2980  163.0367 C   0  0  0  0  0  0  0  0  0  0  0  0
  128.3299  140.6535  163.3368 C   0  0  0  0  0  0  0  0  0  0  0  0
  127.2077  141.2661  163.8591 C   0  0  0  0  0  0  0  0  0  0  0  0
  126.0614  140.5289  164.0931 C   0  0  0  0  0  0  0  0  0  0  0  0
  126.0331  139.1777  163.8002 C   0  0  0  0  0  0  0  0  0  0  0  0
  127.1504  138.5603  163.2729 C   0  0  0  0  0  0  0  0  0  0  0  0
  130.6607  139.2957  162.2163 N   0  0  0  0  0  0  0  0  0  0  0  0
  131.4803  138.3854  161.7337 C   0  0  0  0  0  0  0  0  0  0  0  0
  132.8822  138.6145  161.3047 C   0  0  0  0  0  0  0  0  0  0  0  0
  133.2705  138.3663  159.9851 C   0  0  0  0  0  0  0  0  0  0  0  0
  134.5899  138.5959  159.6350 C   0  0  0  0  0  0  0  0  0  0  0  0
  135.4734  139.0594  160.5931 C   0  0  0  0  0  0  0  0  0  0  0  0
  135.0773  139.2846  161.8307 N   0  0  0  0  0  0  0  0  0  0  0  0
  133.8309  139.0862  162.2090 C   0  0  0  0  0  0  0  0  0  0  0  0
  131.0607  134.1505  157.9456 N   0  0  0  0  0  0  0  0  0  0  0  0
  131.3010  134.7750  157.2433 H   0  0  0  0  0  0  0  0  0  0  0  0
  131.2179  130.7438  156.4643 C   0  0  0  0  0  0  0  0  0  0  0  0
  131.2593  130.0607  155.2672 C   0  0  0  0  0  0  0  0  0  0  0  0
  130.8020  130.4846  152.0384 H   0  0  0  0  0  0  0  0  0  0  0  0
  131.2517  129.0869  152.8549 H   0  0  0  0  0  0  0  0  0  0  0  0
  130.3836  132.5738  153.1727 H   0  0  0  0  0  0  0  0  0  0  0  0
  130.2975  133.7961  155.3046 H   0  0  0  0  0  0  0  0  0  0  0  0
  130.2666  131.2662  159.1896 H   0  0  0  0  0  0  0  0  0  0  0  0
  131.0416  136.4962  159.2086 H   0  0  0  0  0  0  0  0  0  0  0  0
  130.8710  135.0243  161.7402 H   0  0  0  0  0  0  0  0  0  0  0  0
  132.4254  135.8164  161.3869 H   0  0  0  0  0  0  0  0  0  0  0  0
  128.7731  136.6143  162.2720 H   0  0  0  0  0  0  0  0  0  0  0  0
  129.2263  141.2289  163.1585 H   0  0  0  0  0  0  0  0  0  0  0  0
  127.2265  142.3214  164.0885 H   0  0  0  0  0  0  0  0  0  0  0  0
  125.1863  141.0093  164.5051 H   0  0  0  0  0  0  0  0  0  0  0  0
  125.1363  138.6046  163.9838 H   0  0  0  0  0  0  0  0  0  0  0  0
  127.1277  137.5051  163.0441 H   0  0  0  0  0  0  0  0  0  0  0  0
  132.5596  138.0041  159.2574 H   0  0  0  0  0  0  0  0  0  0  0  0
  134.9258  138.4155  158.6245 H   0  0  0  0  0  0  0  0  0  0  0  0
  136.5035  139.2392  160.3236 H   0  0  0  0  0  0  0  0  0  0  0  0
  133.5434  139.2864  163.2305 H   0  0  0  0  0  0  0  0  0  0  0  0
  131.4543  130.2335  157.3862 H   0  0  0  0  0  0  0  0  0  0  0  0
  131.5279  129.0149  155.2518 H   0  0  0  0  0  0  0  0  0  0  0  0
  1  2  1  0
  1 34  1  0
  1 35  1  0
  2 33  2  0
  2  3  1  0
  3  4  2  0
  3 36  1  0
  4  5  1  0
  4 37  1  0
  5  6  1  0
  5 32  2  0
  6 30  1  0
  6  7  2  0
  7  8  1  0
  7 38  1  0
  8  9  1  0
  8 10  1  0
 10 11  1  0
 10 30  2  0
 11 12  1  0
 11 39  1  0
 12 13  1  0
 12 40  1  0
 12 41  1  0
 13 23  1  0
 13 14  2  0
 14 15  1  0
 14 42  1  0
 15 16  1  0
 15 22  1  0
 16 21  1  0
 16 17  2  0
 17 18  1  0
 17 43  1  0
 18 19  2  0
 18 44  1  0
 19 20  1  0
 19 45  1  0
 20 21  2  0
 20 46  1  0
 21 47  1  0
 22 23  2  0
 23 24  1  0
 24 29  1  0
 24 25  2  0
 25 26  1  0
 25 48  1  0
 26 27  2  0
 26 49  1  0
 27 28  1  0
 27 50  1  0
 28 29  2  0
 29 51  1  0
 30 31  1  0
 32 33  1  0
 32 52  1  0
 33 53  1  0
M  CHG  1  30   1
M  END
>  <DOCK_score>  (1) 
-57.220901

>  <SMILES>  (1) 
Nc1ccc(-c2c[nH]c(NCc3cn(-c4ccccc4)nc3-c3cccnc3)[nH+]2)cc1

$$$$
