Cc1ccc([C@H](C)C2(O)C=C([NH2+]C(Cc3ccccc3)Cc3cccnc3)CCC2)cc1
     RDKit          3D

 67 70  0  0  1  0  0  0  0  0999 V2000
  135.4663  140.6007  159.2172 C   0  0  0  0  0  0  0  0  0  0  0  0
  134.6401  139.6744  160.0719 C   0  0  0  0  0  0  0  0  0  0  0  0
  133.2618  139.7784  160.0710 C   0  0  0  0  0  0  0  0  0  0  0  0
  132.5040  138.9287  160.8550 C   0  0  0  0  0  0  0  0  0  0  0  0
  133.1247  137.9752  161.6401 C   0  0  0  0  0  0  0  0  0  0  0  0
  132.2986  137.0491  162.4951 C   0  0  2  0  0  0  0  0  0  0  0  0
  131.2413  137.2799  162.3639 H   0  0  0  0  0  0  0  0  0  0  0  0
  132.6824  137.2337  163.9645 C   0  0  0  0  0  0  0  0  0  0  0  0
  132.5599  135.6006  162.0777 C   0  0  2  0  0  0  0  0  0  0  0  0
  133.9448  135.2982  162.2581 O   0  0  0  0  0  0  0  0  0  0  0  0
  132.1968  135.4261  160.6321 C   0  0  0  0  0  0  0  0  0  0  0  0
  131.5510  134.4065  160.1645 C   0  0  0  0  0  0  0  0  0  0  0  0
  131.2888  134.3701  158.7918 N   0  0  0  0  0  0  0  0  0  0  0  0
  131.6684  135.1965  158.3548 H   0  0  0  0  0  0  0  0  0  0  0  0
  131.7170  133.5499  158.3892 H   0  0  0  0  0  0  0  0  0  0  0  0
  129.8372  134.3225  158.5716 C   0  0  2  0  0  0  0  0  0  0  0  0
  129.5517  133.7910  157.1656 C   0  0  0  0  0  0  0  0  0  0  0  0
  130.1265  132.4050  157.0261 C   0  0  0  0  0  0  0  0  0  0  0  0
  130.5561  131.9559  155.7913 C   0  0  0  0  0  0  0  0  0  0  0  0
  131.0879  130.6863  155.6643 C   0  0  0  0  0  0  0  0  0  0  0  0
  131.1804  129.8618  156.7700 C   0  0  0  0  0  0  0  0  0  0  0  0
  130.7459  130.3090  158.0038 C   0  0  0  0  0  0  0  0  0  0  0  0
  130.2189  131.5805  158.1319 C   0  0  0  0  0  0  0  0  0  0  0  0
  129.2534  135.7297  158.7131 C   0  0  0  0  0  0  0  0  0  0  0  0
  127.7643  135.6809  158.4872 C   0  0  0  0  0  0  0  0  0  0  0  0
  126.8994  135.4697  159.5504 C   0  0  0  0  0  0  0  0  0  0  0  0
  125.5371  135.4368  159.2961 C   0  0  0  0  0  0  0  0  0  0  0  0
  125.0898  135.6039  157.9991 C   0  0  0  0  0  0  0  0  0  0  0  0
  125.9417  135.7979  157.0115 N   0  0  0  0  0  0  0  0  0  0  0  0
  127.2438  135.8403  157.2172 C   0  0  0  0  0  0  0  0  0  0  0  0
  131.0657  133.2613  161.0042 C   0  0  0  0  0  0  0  0  0  0  0  0
  131.7887  133.2569  162.3528 C   0  0  0  0  0  0  0  0  0  0  0  0
  131.7188  134.6651  162.9489 C   0  0  0  0  0  0  0  0  0  0  0  0
  134.5033  137.8745  161.6450 C   0  0  0  0  0  0  0  0  0  0  0  0
  135.2608  138.7205  160.8566 C   0  0  0  0  0  0  0  0  0  0  0  0
  135.7156  141.4956  159.7873 H   0  0  0  0  0  0  0  0  0  0  0  0
  136.3835  140.0950  158.9151 H   0  0  0  0  0  0  0  0  0  0  0  0
  134.8974  140.8814  158.3309 H   0  0  0  0  0  0  0  0  0  0  0  0
  132.7769  140.5238  159.4580 H   0  0  0  0  0  0  0  0  0  0  0  0
  131.4271  139.0103  160.8545 H   0  0  0  0  0  0  0  0  0  0  0  0
  133.7397  137.0029  164.0957 H   0  0  0  0  0  0  0  0  0  0  0  0
  132.4963  138.2657  164.2619 H   0  0  0  0  0  0  0  0  0  0  0  0
  132.0850  136.5639  164.5831 H   0  0  0  0  0  0  0  0  0  0  0  0
  134.2337  135.3126  163.1807 H   0  0  0  0  0  0  0  0  0  0  0  0
  132.4932  136.1994  159.9387 H   0  0  0  0  0  0  0  0  0  0  0  0
  129.3792  133.6634  159.3091 H   0  0  0  0  0  0  0  0  0  0  0  0
  128.4746  133.7559  157.0022 H   0  0  0  0  0  0  0  0  0  0  0  0
  130.0097  134.4502  156.4280 H   0  0  0  0  0  0  0  0  0  0  0  0
  130.4798  132.5984  154.9266 H   0  0  0  0  0  0  0  0  0  0  0  0
  131.4270  130.3368  154.7003 H   0  0  0  0  0  0  0  0  0  0  0  0
  131.5917  128.8682  156.6699 H   0  0  0  0  0  0  0  0  0  0  0  0
  130.8178  129.6648  158.8676 H   0  0  0  0  0  0  0  0  0  0  0  0
  129.8792  131.9297  159.0957 H   0  0  0  0  0  0  0  0  0  0  0  0
  129.4567  136.1083  159.7150 H   0  0  0  0  0  0  0  0  0  0  0  0
  129.7115  136.3890  157.9758 H   0  0  0  0  0  0  0  0  0  0  0  0
  127.2781  135.3376  160.5533 H   0  0  0  0  0  0  0  0  0  0  0  0
  124.8344  135.2779  160.1008 H   0  0  0  0  0  0  0  0  0  0  0  0
  124.0302  135.5756  157.7919 H   0  0  0  0  0  0  0  0  0  0  0  0
  127.9109  136.0013  156.3833 H   0  0  0  0  0  0  0  0  0  0  0  0
  129.9931  133.3637  161.1695 H   0  0  0  0  0  0  0  0  0  0  0  0
  131.2633  132.3235  160.4851 H   0  0  0  0  0  0  0  0  0  0  0  0
  131.3021  132.5522  163.0272 H   0  0  0  0  0  0  0  0  0  0  0  0
  132.8307  132.9711  162.2089 H   0  0  0  0  0  0  0  0  0  0  0  0
  132.1159  134.6543  163.9640 H   0  0  0  0  0  0  0  0  0  0  0  0
  130.6840  135.0069  162.9606 H   0  0  0  0  0  0  0  0  0  0  0  0
  134.9884  137.1324  162.2616 H   0  0  0  0  0  0  0  0  0  0  0  0
  136.3378  138.6390  160.8570 H   0  0  0  0  0  0  0  0  0  0  0  0
  1  2  1  0
  1 36  1  0
  1 37  1  0
  1 38  1  0
  2 35  2  0
  2  3  1  0
  3  4  2  0
  3 39  1  0
  4  5  1  0
  4 40  1  0
  5  6  1  0
  5 34  2  0
  6  7  1  1
  6  8  1  0
  6  9  1  0
  8 41  1  0
  8 42  1  0
  8 43  1  0
  9 33  1  0
  9 10  1  6
  9 11  1  0
 10 44  1  0
 11 12  2  0
 11 45  1  0
 12 13  1  0
 12 31  1  0
 13 14  1  0
 13 15  1  0
 13 16  1  0
 16 17  1  0
 16 24  1  0
 16 46  1  1
 17 18  1  0
 17 47  1  0
 17 48  1  0
 18 23  1  0
 18 19  2  0
 19 20  1  0
 19 49  1  0
 20 21  2  0
 20 50  1  0
 21 22  1  0
 21 51  1  0
 22 23  2  0
 22 52  1  0
 23 53  1  0
 24 25  1  0
 24 54  1  0
 24 55  1  0
 25 30  1  0
 25 26  2  0
 26 27  1  0
 26 56  1  0
 27 28  2  0
 27 57  1  0
 28 29  1  0
 28 58  1  0
 29 30  2  0
 30 59  1  0
 31 32  1  0
 31 60  1  0
 31 61  1  0
 32 33  1  0
 32 62  1  0
 32 63  1  0
 33 64  1  0
 33 65  1  0
 34 35  1  0
 34 66  1  0
 35 67  1  0
M  CHG  1  13   1
M  END
>  <DOCK_score>  (1) 
-58.573776

>  <SMILES>  (1) 
Cc1ccc([C@H](C)C2(O)C=C([NH2+]C(Cc3ccccc3)Cc3cccnc3)CCC2)cc1

$$$$
