Nc1ccc(-c2c[nH]c(NCCc3ccccc3CCc3cccc4ccccc34)[nH+]2)cc1
     RDKit          3D

 62 66  0  0  1  0  0  0  0  0999 V2000
  131.2993  130.0606  152.3231 N   0  0  0  0  0  0  0  0  0  0  0  0
  131.0287  130.7169  153.5260 C   0  0  0  0  0  0  0  0  0  0  0  0
  130.4114  131.9625  153.5130 C   0  0  0  0  0  0  0  0  0  0  0  0
  130.1438  132.6129  154.6992 C   0  0  0  0  0  0  0  0  0  0  0  0
  130.4926  132.0203  155.9118 C   0  0  0  0  0  0  0  0  0  0  0  0
  130.2057  132.7180  157.1892 C   0  0  0  0  0  0  0  0  0  0  0  0
  129.4212  132.2541  158.1930 C   0  0  0  0  0  0  0  0  0  0  0  0
  129.4346  133.2081  159.1829 N   0  0  0  0  0  0  0  0  0  0  0  0
  128.9682  133.1617  160.0322 H   0  0  0  0  0  0  0  0  0  0  0  0
  130.2202  134.2312  158.7496 C   0  0  0  0  0  0  0  0  0  0  0  0
  130.4919  135.3927  159.4523 N   0  0  0  0  0  0  0  0  0  0  0  0
  129.9129  135.5965  160.7825 C   0  0  0  0  0  0  0  0  0  0  0  0
  130.3674  136.9489  161.3347 C   0  0  0  0  0  0  0  0  0  0  0  0
  131.8712  136.9720  161.4324 C   0  0  0  0  0  0  0  0  0  0  0  0
  132.6265  137.4198  160.3645 C   0  0  0  0  0  0  0  0  0  0  0  0
  134.0056  137.4364  160.4523 C   0  0  0  0  0  0  0  0  0  0  0  0
  134.6299  137.0091  161.6096 C   0  0  0  0  0  0  0  0  0  0  0  0
  133.8746  136.5656  162.6788 C   0  0  0  0  0  0  0  0  0  0  0  0
  132.4949  136.5498  162.5913 C   0  0  0  0  0  0  0  0  0  0  0  0
  131.6715  136.0663  163.7572 C   0  0  0  0  0  0  0  0  0  0  0  0
  131.3384  137.2475  164.6709 C   0  0  0  0  0  0  0  0  0  0  0  0
  130.5150  136.7641  165.8368 C   0  0  0  0  0  0  0  0  0  0  0  0
  129.1565  136.7422  165.7525 C   0  0  0  0  0  0  0  0  0  0  0  0
  128.3786  136.2980  166.8197 C   0  0  0  0  0  0  0  0  0  0  0  0
  128.9545  135.8746  167.9783 C   0  0  0  0  0  0  0  0  0  0  0  0
  130.3540  135.8832  168.1026 C   0  0  0  0  0  0  0  0  0  0  0  0
  130.9848  135.4525  169.2824 C   0  0  0  0  0  0  0  0  0  0  0  0
  132.3430  135.4742  169.3663 C   0  0  0  0  0  0  0  0  0  0  0  0
  133.1211  135.9181  168.2985 C   0  0  0  0  0  0  0  0  0  0  0  0
  132.5453  136.3424  167.1407 C   0  0  0  0  0  0  0  0  0  0  0  0
  131.1454  136.3342  167.0165 C   0  0  0  0  0  0  0  0  0  0  0  0
  130.6820  133.9330  157.5596 N   0  0  0  0  0  0  0  0  0  0  0  0
  131.2703  134.4922  157.0285 H   0  0  0  0  0  0  0  0  0  0  0  0
  131.1165  130.7737  155.9221 C   0  0  0  0  0  0  0  0  0  0  0  0
  131.3770  130.1245  154.7339 C   0  0  0  0  0  0  0  0  0  0  0  0
  131.0563  130.4734  151.4798 H   0  0  0  0  0  0  0  0  0  0  0  0
  131.7301  129.1916  152.3313 H   0  0  0  0  0  0  0  0  0  0  0  0
  130.1413  132.4212  152.5733 H   0  0  0  0  0  0  0  0  0  0  0  0
  129.6640  133.5804  154.6887 H   0  0  0  0  0  0  0  0  0  0  0  0
  128.8910  131.3134  158.2131 H   0  0  0  0  0  0  0  0  0  0  0  0
  131.0657  136.0716  159.0639 H   0  0  0  0  0  0  0  0  0  0  0  0
  130.2459  134.8011  161.4494 H   0  0  0  0  0  0  0  0  0  0  0  0
  128.8253  135.5798  160.7118 H   0  0  0  0  0  0  0  0  0  0  0  0
  129.9367  137.1006  162.3244 H   0  0  0  0  0  0  0  0  0  0  0  0
  130.0345  137.7442  160.6678 H   0  0  0  0  0  0  0  0  0  0  0  0
  132.1389  137.7539  159.4606 H   0  0  0  0  0  0  0  0  0  0  0  0
  134.5958  137.7836  159.6171 H   0  0  0  0  0  0  0  0  0  0  0  0
  135.7077  137.0221  161.6783 H   0  0  0  0  0  0  0  0  0  0  0  0
  134.3623  136.2318  163.5828 H   0  0  0  0  0  0  0  0  0  0  0  0
  132.2370  135.3218  164.3173 H   0  0  0  0  0  0  0  0  0  0  0  0
  130.7477  135.6199  163.3892 H   0  0  0  0  0  0  0  0  0  0  0  0
  130.7730  137.9922  164.1107 H   0  0  0  0  0  0  0  0  0  0  0  0
  132.2622  137.6939  165.0388 H   0  0  0  0  0  0  0  0  0  0  0  0
  128.6745  137.0733  164.8445 H   0  0  0  0  0  0  0  0  0  0  0  0
  127.3027  136.2903  166.7269 H   0  0  0  0  0  0  0  0  0  0  0  0
  128.3390  135.5296  168.7959 H   0  0  0  0  0  0  0  0  0  0  0  0
  130.3947  135.1067  170.1182 H   0  0  0  0  0  0  0  0  0  0  0  0
  132.8251  135.1428  170.2742 H   0  0  0  0  0  0  0  0  0  0  0  0
  134.1969  135.9257  168.3915 H   0  0  0  0  0  0  0  0  0  0  0  0
  133.1609  136.6840  166.3217 H   0  0  0  0  0  0  0  0  0  0  0  0
  131.3920  130.3150  156.8602 H   0  0  0  0  0  0  0  0  0  0  0  0
  131.8563  129.1567  154.7415 H   0  0  0  0  0  0  0  0  0  0  0  0
  1  2  1  0
  1 36  1  0
  1 37  1  0
  2 35  2  0
  2  3  1  0
  3  4  2  0
  3 38  1  0
  4  5  1  0
  4 39  1  0
  5  6  1  0
  5 34  2  0
  6 32  1  0
  6  7  2  0
  7  8  1  0
  7 40  1  0
  8  9  1  0
  8 10  1  0
 10 11  1  0
 10 32  2  0
 11 12  1  0
 11 41  1  0
 12 13  1  0
 12 42  1  0
 12 43  1  0
 13 14  1  0
 13 44  1  0
 13 45  1  0
 14 19  1  0
 14 15  2  0
 15 16  1  0
 15 46  1  0
 16 17  2  0
 16 47  1  0
 17 18  1  0
 17 48  1  0
 18 19  2  0
 18 49  1  0
 19 20  1  0
 20 21  1  0
 20 50  1  0
 20 51  1  0
 21 22  1  0
 21 52  1  0
 21 53  1  0
 22 31  1  0
 22 23  2  0
 23 24  1  0
 23 54  1  0
 24 25  2  0
 24 55  1  0
 25 26  1  0
 25 56  1  0
 26 31  2  0
 26 27  1  0
 27 28  2  0
 27 57  1  0
 28 29  1  0
 28 58  1  0
 29 30  2  0
 29 59  1  0
 30 31  1  0
 30 60  1  0
 32 33  1  0
 34 35  1  0
 34 61  1  0
 35 62  1  0
M  CHG  1  32   1
M  END
>  <DOCK_score>  (1) 
-59.35017

>  <SMILES>  (1) 
Nc1ccc(-c2c[nH]c(NCCc3ccccc3CCc3cccc4ccccc34)[nH+]2)cc1

$$$$
