C[C@H](Nc1[nH]cc(-c2cccnc2)[nH+]1)c1cccnc1
     RDKit          3D

 36 38  0  0  1  0  0  0  0  0999 V2000
  130.4433  137.4816  160.9001 C   0  0  0  0  0  0  0  0  0  0  0  0
  130.0929  136.0122  160.6574 C   0  0  2  0  0  0  0  0  0  0  0  0
  130.5153  135.4013  161.4552 H   0  0  0  0  0  0  0  0  0  0  0  0
  130.6456  135.5845  159.3699 N   0  0  0  0  0  0  0  0  0  0  0  0
  130.4555  134.2849  158.9325 C   0  0  0  0  0  0  0  0  0  0  0  0
  129.7820  133.3125  159.6054 N   0  0  0  0  0  0  0  0  0  0  0  0
  129.3524  133.4045  160.4702 H   0  0  0  0  0  0  0  0  0  0  0  0
  129.8208  132.1773  158.8327 C   0  0  0  0  0  0  0  0  0  0  0  0
  130.5229  132.4862  157.7145 C   0  0  0  0  0  0  0  0  0  0  0  0
  130.8256  131.5654  156.5916 C   0  0  0  0  0  0  0  0  0  0  0  0
  130.9683  132.0553  155.2900 C   0  0  0  0  0  0  0  0  0  0  0  0
  131.2551  131.1558  154.2779 C   0  0  0  0  0  0  0  0  0  0  0  0
  131.3801  129.8123  154.5820 C   0  0  0  0  0  0  0  0  0  0  0  0
  131.2351  129.3787  155.8192 N   0  0  0  0  0  0  0  0  0  0  0  0
  130.9667  130.1974  156.8158 C   0  0  0  0  0  0  0  0  0  0  0  0
  130.8993  133.7865  157.8043 N   0  0  0  0  0  0  0  0  0  0  0  0
  131.4149  134.2701  157.1400 H   0  0  0  0  0  0  0  0  0  0  0  0
  128.5947  135.8494  160.6399 C   0  0  0  0  0  0  0  0  0  0  0  0
  127.8893  135.9702  159.4522 C   0  0  0  0  0  0  0  0  0  0  0  0
  126.5123  135.8123  159.4836 C   0  0  0  0  0  0  0  0  0  0  0  0
  125.8929  135.5411  160.6890 C   0  0  0  0  0  0  0  0  0  0  0  0
  126.5959  135.4331  161.7993 N   0  0  0  0  0  0  0  0  0  0  0  0
  127.9067  135.5775  161.8069 C   0  0  0  0  0  0  0  0  0  0  0  0
  130.0321  137.7998  161.8581 H   0  0  0  0  0  0  0  0  0  0  0  0
  131.5270  137.5993  160.9128 H   0  0  0  0  0  0  0  0  0  0  0  0
  130.0208  138.0925  160.1024 H   0  0  0  0  0  0  0  0  0  0  0  0
  131.1447  136.2119  158.8239 H   0  0  0  0  0  0  0  0  0  0  0  0
  129.3797  131.2209  159.0718 H   0  0  0  0  0  0  0  0  0  0  0  0
  130.8612  133.1093  155.0802 H   0  0  0  0  0  0  0  0  0  0  0  0
  131.3758  131.4988  153.2608 H   0  0  0  0  0  0  0  0  0  0  0  0
  131.6002  129.1072  153.7941 H   0  0  0  0  0  0  0  0  0  0  0  0
  130.8554  129.8048  157.8158 H   0  0  0  0  0  0  0  0  0  0  0  0
  128.3999  136.1867  158.5254 H   0  0  0  0  0  0  0  0  0  0  0  0
  125.9311  135.9000  158.5775 H   0  0  0  0  0  0  0  0  0  0  0  0
  124.8206  135.4162  160.7220 H   0  0  0  0  0  0  0  0  0  0  0  0
  128.4488  135.4819  162.7362 H   0  0  0  0  0  0  0  0  0  0  0  0
  1  2  1  0
  1 24  1  0
  1 25  1  0
  1 26  1  0
  2  3  1  1
  2  4  1  0
  2 18  1  0
  4 27  1  0
  5  4  1  0
  5 16  2  0
  5  6  1  0
  6  7  1  0
  6  8  1  0
  8  9  2  0
  8 28  1  0
  9 10  1  0
  9 16  1  0
 10 15  1  0
 10 11  2  0
 11 12  1  0
 11 29  1  0
 12 13  2  0
 12 30  1  0
 13 14  1  0
 13 31  1  0
 14 15  2  0
 15 32  1  0
 16 17  1  0
 18 23  1  0
 18 19  2  0
 19 20  1  0
 19 33  1  0
 20 21  2  0
 20 34  1  0
 21 22  1  0
 21 35  1  0
 22 23  2  0
 23 36  1  0
M  CHG  1  16   1
M  END
>  <DOCK_score>  (1) 
-48.503231

>  <SMILES>  (1) 
C[C@H](Nc1[nH]cc(-c2cccnc2)[nH+]1)c1cccnc1

$$$$
