Fc1ccc(-c2c[nH]c(N[C@@H](CC=Cc3ccc(Br)cc3)c3ccccc3)[nH+]2)cc1
     RDKit          3D

 52 55  0  0  1  0  0  0  0  0999 V2000
  131.7043  129.4751  151.5330 F   0  0  0  0  0  0  0  0  0  0  0  0
  131.3566  130.1140  152.6715 C   0  0  0  0  0  0  0  0  0  0  0  0
  130.6145  131.2822  152.6087 C   0  0  0  0  0  0  0  0  0  0  0  0
  130.2569  131.9379  153.7690 C   0  0  0  0  0  0  0  0  0  0  0  0
  130.6434  131.4233  155.0051 C   0  0  0  0  0  0  0  0  0  0  0  0
  130.2617  132.1249  156.2553 C   0  0  0  0  0  0  0  0  0  0  0  0
  129.5072  131.6131  157.2591 C   0  0  0  0  0  0  0  0  0  0  0  0
  129.3995  132.5932  158.2163 N   0  0  0  0  0  0  0  0  0  0  0  0
  128.9189  132.5257  159.0561 H   0  0  0  0  0  0  0  0  0  0  0  0
  130.0919  133.6757  157.7685 C   0  0  0  0  0  0  0  0  0  0  0  0
  130.2308  134.8783  158.4402 N   0  0  0  0  0  0  0  0  0  0  0  0
  129.1713  135.3416  159.3397 C   0  0  1  0  0  0  0  0  0  0  0  0
  129.0250  134.6110  160.1353 H   0  0  0  0  0  0  0  0  0  0  0  0
  129.5720  136.6863  159.9496 C   0  0  0  0  0  0  0  0  0  0  0  0
  130.8541  136.5242  160.7250 C   0  0  0  0  0  0  0  0  0  0  0  0
  131.9269  137.2254  160.3861 C   0  0  0  0  0  0  0  0  0  0  0  0
  133.1843  137.0664  161.1466 C   0  0  0  0  0  0  0  0  0  0  0  0
  133.3941  135.9259  161.9225 C   0  0  0  0  0  0  0  0  0  0  0  0
  134.5721  135.7807  162.6260 C   0  0  0  0  0  0  0  0  0  0  0  0
  135.5403  136.7685  162.5713 C   0  0  0  0  0  0  0  0  0  0  0  0
  137.1490  136.5652  163.5442 Br  0  0  0  0  0  0  0  0  0  0  0  0
  135.3354  137.9049  161.8076 C   0  0  0  0  0  0  0  0  0  0  0  0
  134.1638  138.0590  161.0958 C   0  0  0  0  0  0  0  0  0  0  0  0
  127.8893  135.5037  158.5644 C   0  0  0  0  0  0  0  0  0  0  0  0
  126.6728  135.3158  159.1933 C   0  0  0  0  0  0  0  0  0  0  0  0
  125.4967  135.4642  158.4821 C   0  0  0  0  0  0  0  0  0  0  0  0
  125.5374  135.7990  157.1414 C   0  0  0  0  0  0  0  0  0  0  0  0
  126.7540  135.9856  156.5122 C   0  0  0  0  0  0  0  0  0  0  0  0
  127.9299  135.8376  157.2236 C   0  0  0  0  0  0  0  0  0  0  0  0
  130.6010  133.3940  156.5940 N   0  0  0  0  0  0  0  0  0  0  0  0
  131.1363  133.9962  156.0540 H   0  0  0  0  0  0  0  0  0  0  0  0
  131.3945  130.2508  155.0632 C   0  0  0  0  0  0  0  0  0  0  0  0
  131.7431  129.5989  153.8981 C   0  0  0  0  0  0  0  0  0  0  0  0
  130.3157  131.6803  151.6503 H   0  0  0  0  0  0  0  0  0  0  0  0
  129.6780  132.8482  153.7191 H   0  0  0  0  0  0  0  0  0  0  0  0
  129.0736  130.6248  157.2984 H   0  0  0  0  0  0  0  0  0  0  0  0
  131.0297  135.4142  158.3152 H   0  0  0  0  0  0  0  0  0  0  0  0
  129.7184  137.4170  159.1540 H   0  0  0  0  0  0  0  0  0  0  0  0
  128.7838  137.0310  160.6189 H   0  0  0  0  0  0  0  0  0  0  0  0
  130.8988  135.8368  161.5567 H   0  0  0  0  0  0  0  0  0  0  0  0
  131.8821  137.9129  159.5543 H   0  0  0  0  0  0  0  0  0  0  0  0
  132.6375  135.1567  161.9695 H   0  0  0  0  0  0  0  0  0  0  0  0
  134.7371  134.8966  163.2240 H   0  0  0  0  0  0  0  0  0  0  0  0
  136.0942  138.6725  161.7695 H   0  0  0  0  0  0  0  0  0  0  0  0
  134.0050  138.9461  160.5006 H   0  0  0  0  0  0  0  0  0  0  0  0
  126.6410  135.0545  160.2407 H   0  0  0  0  0  0  0  0  0  0  0  0
  124.5461  135.3228  158.9748 H   0  0  0  0  0  0  0  0  0  0  0  0
  124.6185  135.9144  156.5857 H   0  0  0  0  0  0  0  0  0  0  0  0
  126.7857  136.2464  155.4647 H   0  0  0  0  0  0  0  0  0  0  0  0
  128.8805  135.9827  156.7319 H   0  0  0  0  0  0  0  0  0  0  0  0
  131.6997  129.8507  156.0189 H   0  0  0  0  0  0  0  0  0  0  0  0
  132.3213  128.6878  153.9423 H   0  0  0  0  0  0  0  0  0  0  0  0
  1  2  1  0
  2 33  2  0
  2  3  1  0
  3  4  2  0
  3 34  1  0
  4  5  1  0
  4 35  1  0
  5  6  1  0
  5 32  2  0
  6 30  1  0
  6  7  2  0
  7  8  1  0
  7 36  1  0
  8  9  1  0
  8 10  1  0
 10 11  1  0
 10 30  2  0
 11 12  1  0
 11 37  1  0
 12 13  1  1
 12 14  1  0
 12 24  1  0
 14 15  1  0
 14 38  1  0
 14 39  1  0
 15 16  2  0
 15 40  1  0
 16 17  1  0
 16 41  1  0
 17 23  1  0
 17 18  2  0
 18 19  1  0
 18 42  1  0
 19 20  2  0
 19 43  1  0
 20 21  1  0
 20 22  1  0
 22 23  2  0
 22 44  1  0
 23 45  1  0
 24 29  1  0
 24 25  2  0
 25 26  1  0
 25 46  1  0
 26 27  2  0
 26 47  1  0
 27 28  1  0
 27 48  1  0
 28 29  2  0
 28 49  1  0
 29 50  1  0
 30 31  1  0
 32 33  1  0
 32 51  1  0
 33 52  1  0
M  CHG  1  30   1
M  END
>  <DOCK_score>  (1) 
-66.204384

>  <SMILES>  (1) 
Fc1ccc(-c2c[nH]c(N[C@@H](CC=Cc3ccc(Br)cc3)c3ccccc3)[nH+]2)cc1

$$$$
