c1ccc(Nc2ccc(Nc3ccc(NC4=[NH+]CCN4)cc3)cc2)cc1
     RDKit          3D

 48 51  0  0  0  0  0  0  0  0999 V2000
  130.9511  135.5543  168.9210 C   0  0  0  0  0  0  0  0  0  0  0  0
  131.1561  136.3419  167.8029 C   0  0  0  0  0  0  0  0  0  0  0  0
  130.1033  137.0411  167.2464 C   0  0  0  0  0  0  0  0  0  0  0  0
  128.8369  136.9525  167.8110 C   0  0  0  0  0  0  0  0  0  0  0  0
  127.7698  137.6588  167.2510 N   0  0  0  0  0  0  0  0  0  0  0  0
  127.3872  137.4147  165.9267 C   0  0  0  0  0  0  0  0  0  0  0  0
  126.8232  138.4323  165.1680 C   0  0  0  0  0  0  0  0  0  0  0  0
  126.4460  138.1917  163.8620 C   0  0  0  0  0  0  0  0  0  0  0  0
  126.6302  136.9319  163.3066 C   0  0  0  0  0  0  0  0  0  0  0  0
  126.2474  136.6879  161.9827 N   0  0  0  0  0  0  0  0  0  0  0  0
  127.1996  136.2771  161.0434 C   0  0  0  0  0  0  0  0  0  0  0  0
  126.8223  135.4659  159.9808 C   0  0  0  0  0  0  0  0  0  0  0  0
  127.7620  135.0611  159.0540 C   0  0  0  0  0  0  0  0  0  0  0  0
  129.0841  135.4653  159.1835 C   0  0  0  0  0  0  0  0  0  0  0  0
  130.0389  135.0499  158.2453 N   0  0  0  0  0  0  0  0  0  0  0  0
  129.8946  133.8463  157.6086 C   0  0  0  0  0  0  0  0  0  0  0  0
  129.2966  132.8078  158.1696 N   0  0  0  0  0  0  0  0  0  0  0  0
  128.9124  132.7947  159.0603 H   0  0  0  0  0  0  0  0  0  0  0  0
  129.3032  131.6774  157.2280 C   0  0  0  0  0  0  0  0  0  0  0  0
  130.0338  132.2430  155.9934 C   0  0  0  0  0  0  0  0  0  0  0  0
  130.3469  133.6262  156.3846 N   0  0  0  0  0  0  0  0  0  0  0  0
  129.4616  136.2762  160.2457 C   0  0  0  0  0  0  0  0  0  0  0  0
  128.5224  136.6810  161.1730 C   0  0  0  0  0  0  0  0  0  0  0  0
  127.1895  135.9129  164.0671 C   0  0  0  0  0  0  0  0  0  0  0  0
  127.5712  136.1549  165.3716 C   0  0  0  0  0  0  0  0  0  0  0  0
  128.6357  136.1645  168.9375 C   0  0  0  0  0  0  0  0  0  0  0  0
  129.6921  135.4642  169.4859 C   0  0  0  0  0  0  0  0  0  0  0  0
  131.7764  135.0086  169.3541 H   0  0  0  0  0  0  0  0  0  0  0  0
  132.1409  136.4107  167.3646 H   0  0  0  0  0  0  0  0  0  0  0  0
  130.2641  137.6563  166.3734 H   0  0  0  0  0  0  0  0  0  0  0  0
  127.2939  138.3182  167.7797 H   0  0  0  0  0  0  0  0  0  0  0  0
  126.6795  139.4118  165.5999 H   0  0  0  0  0  0  0  0  0  0  0  0
  126.0077  138.9831  163.2719 H   0  0  0  0  0  0  0  0  0  0  0  0
  125.3218  136.8034  161.7164 H   0  0  0  0  0  0  0  0  0  0  0  0
  125.7939  135.1521  159.8797 H   0  0  0  0  0  0  0  0  0  0  0  0
  127.4687  134.4304  158.2279 H   0  0  0  0  0  0  0  0  0  0  0  0
  130.8020  135.6151  158.0471 H   0  0  0  0  0  0  0  0  0  0  0  0
  128.2861  131.3819  156.9703 H   0  0  0  0  0  0  0  0  0  0  0  0
  129.8538  130.8356  157.6478 H   0  0  0  0  0  0  0  0  0  0  0  0
  129.3807  132.2292  155.1209 H   0  0  0  0  0  0  0  0  0  0  0  0
  130.9483  131.6835  155.7957 H   0  0  0  0  0  0  0  0  0  0  0  0
  130.8117  134.2745  155.8327 H   0  0  0  0  0  0  0  0  0  0  0  0
  130.4900  136.5903  160.3462 H   0  0  0  0  0  0  0  0  0  0  0  0
  128.8159  137.3120  161.9988 H   0  0  0  0  0  0  0  0  0  0  0  0
  127.3291  134.9324  163.6367 H   0  0  0  0  0  0  0  0  0  0  0  0
  128.0094  135.3635  165.9618 H   0  0  0  0  0  0  0  0  0  0  0  0
  127.6536  136.0969  169.3816 H   0  0  0  0  0  0  0  0  0  0  0  0
  129.5356  134.8485  170.3593 H   0  0  0  0  0  0  0  0  0  0  0  0
  1 27  2  0
  1  2  1  0
  1 28  1  0
  2  3  2  0
  2 29  1  0
  3  4  1  0
  3 30  1  0
  4  5  1  0
  4 26  2  0
  5  6  1  0
  5 31  1  0
  6 25  1  0
  6  7  2  0
  7  8  1  0
  7 32  1  0
  8  9  2  0
  8 33  1  0
  9 10  1  0
  9 24  1  0
 10 11  1  0
 10 34  1  0
 11 23  1  0
 11 12  2  0
 12 13  1  0
 12 35  1  0
 13 14  2  0
 13 36  1  0
 14 15  1  0
 14 22  1  0
 15 16  1  0
 15 37  1  0
 16 21  2  0
 16 17  1  0
 17 18  1  0
 17 19  1  0
 19 20  1  0
 19 38  1  0
 19 39  1  0
 20 21  1  0
 20 40  1  0
 20 41  1  0
 21 42  1  0
 22 23  2  0
 22 43  1  0
 23 44  1  0
 24 25  2  0
 24 45  1  0
 25 46  1  0
 26 27  1  0
 26 47  1  0
 27 48  1  0
M  CHG  1  21   1
M  END
>  <DOCK_score>  (1) 
-45.817738

>  <SMILES>  (1) 
c1ccc(Nc2ccc(Nc3ccc(NC4=[NH+]CCN4)cc3)cc2)cc1

$$$$
