CCNc1cccnc1C[NH+]=C(NCc1ncccc1C)N[C@@H]1CCC(=O)NC1
     RDKit          3D

 59 61  0  0  1  0  0  0  0  0999 V2000
  130.3023  131.9015  153.6722 C   0  0  0  0  0  0  0  0  0  0  0  0
  130.6279  131.1504  154.9648 C   0  0  0  0  0  0  0  0  0  0  0  0
  130.6837  132.0988  156.0800 N   0  0  0  0  0  0  0  0  0  0  0  0
  130.9670  131.6440  157.3702 C   0  0  0  0  0  0  0  0  0  0  0  0
  131.2038  130.2919  157.6071 C   0  0  0  0  0  0  0  0  0  0  0  0
  131.4808  129.8897  158.9030 C   0  0  0  0  0  0  0  0  0  0  0  0
  131.5132  130.8353  159.9113 C   0  0  0  0  0  0  0  0  0  0  0  0
  131.2846  132.1081  159.6544 N   0  0  0  0  0  0  0  0  0  0  0  0
  131.0223  132.5343  158.4349 C   0  0  0  0  0  0  0  0  0  0  0  0
  130.7748  134.0013  158.1944 C   0  0  0  0  0  0  0  0  0  0  0  0
  130.8872  134.7295  159.4607 N   0  0  0  0  0  0  0  0  0  0  0  0
  131.7448  135.0862  159.7404 H   0  0  0  0  0  0  0  0  0  0  0  0
  129.8350  134.8980  160.2112 C   0  0  0  0  0  0  0  0  0  0  0  0
  129.9722  134.9917  161.5760 N   0  0  0  0  0  0  0  0  0  0  0  0
  131.3009  134.9023  162.1864 C   0  0  0  0  0  0  0  0  0  0  0  0
  132.1732  136.0107  161.6559 C   0  0  0  0  0  0  0  0  0  0  0  0
  132.9010  135.8067  160.5751 N   0  0  0  0  0  0  0  0  0  0  0  0
  133.6742  136.7488  160.0720 C   0  0  0  0  0  0  0  0  0  0  0  0
  133.7577  137.9909  160.6728 C   0  0  0  0  0  0  0  0  0  0  0  0
  133.0113  138.2406  161.8141 C   0  0  0  0  0  0  0  0  0  0  0  0
  132.2054  137.2271  162.3105 C   0  0  0  0  0  0  0  0  0  0  0  0
  131.3748  137.4499  163.5480 C   0  0  0  0  0  0  0  0  0  0  0  0
  128.5882  134.9820  159.6382 N   0  0  0  0  0  0  0  0  0  0  0  0
  127.4097  134.5231  160.3777 C   0  0  2  0  0  0  0  0  0  0  0  0
  127.7141  134.1503  161.3557 H   0  0  0  0  0  0  0  0  0  0  0  0
  126.7145  133.4033  159.5939 C   0  0  0  0  0  0  0  0  0  0  0  0
  125.5985  132.8228  160.4650 C   0  0  0  0  0  0  0  0  0  0  0  0
  124.7618  133.9322  161.0347 C   0  0  0  0  0  0  0  0  0  0  0  0
  123.6649  133.6569  161.4727 O   0  0  0  0  0  0  0  0  0  0  0  0
  125.1603  135.2038  161.0843 N   0  0  0  0  0  0  0  0  0  0  0  0
  126.4299  135.6839  160.5531 C   0  0  0  0  0  0  0  0  0  0  0  0
  129.3381  132.3994  153.7744 H   0  0  0  0  0  0  0  0  0  0  0  0
  131.0763  132.6444  153.4790 H   0  0  0  0  0  0  0  0  0  0  0  0
  130.2608  131.1959  152.8426 H   0  0  0  0  0  0  0  0  0  0  0  0
  131.5921  130.6525  154.8627 H   0  0  0  0  0  0  0  0  0  0  0  0
  129.8539  130.4076  155.1580 H   0  0  0  0  0  0  0  0  0  0  0  0
  130.5239  133.0425  155.9224 H   0  0  0  0  0  0  0  0  0  0  0  0
  131.1717  129.5748  156.8001 H   0  0  0  0  0  0  0  0  0  0  0  0
  131.6698  128.8494  159.1235 H   0  0  0  0  0  0  0  0  0  0  0  0
  131.7292  130.5269  160.9236 H   0  0  0  0  0  0  0  0  0  0  0  0
  131.5125  134.3834  157.4888 H   0  0  0  0  0  0  0  0  0  0  0  0
  129.7743  134.1384  157.7840 H   0  0  0  0  0  0  0  0  0  0  0  0
  129.1892  135.1171  162.1347 H   0  0  0  0  0  0  0  0  0  0  0  0
  131.2108  134.9972  163.2685 H   0  0  0  0  0  0  0  0  0  0  0  0
  131.7487  133.9389  161.9422 H   0  0  0  0  0  0  0  0  0  0  0  0
  134.2523  136.5464  159.1823 H   0  0  0  0  0  0  0  0  0  0  0  0
  134.3965  138.7569  160.2587 H   0  0  0  0  0  0  0  0  0  0  0  0
  133.0562  139.2017  162.3047 H   0  0  0  0  0  0  0  0  0  0  0  0
  131.9526  137.1696  164.4288 H   0  0  0  0  0  0  0  0  0  0  0  0
  131.0976  138.5020  163.6151 H   0  0  0  0  0  0  0  0  0  0  0  0
  130.4734  136.8393  163.4954 H   0  0  0  0  0  0  0  0  0  0  0  0
  128.4887  135.3453  158.7443 H   0  0  0  0  0  0  0  0  0  0  0  0
  126.2870  133.8082  158.6766 H   0  0  0  0  0  0  0  0  0  0  0  0
  127.4360  132.6234  159.3501 H   0  0  0  0  0  0  0  0  0  0  0  0
  126.0402  132.2478  161.2789 H   0  0  0  0  0  0  0  0  0  0  0  0
  124.9698  132.1688  159.8608 H   0  0  0  0  0  0  0  0  0  0  0  0
  124.5679  135.8499  161.4997 H   0  0  0  0  0  0  0  0  0  0  0  0
  126.8557  136.4137  161.2417 H   0  0  0  0  0  0  0  0  0  0  0  0
  126.2566  136.1582  159.5872 H   0  0  0  0  0  0  0  0  0  0  0  0
  1  2  1  0
  1 32  1  0
  1 33  1  0
  1 34  1  0
  2  3  1  0
  2 35  1  0
  2 36  1  0
  3  4  1  0
  3 37  1  0
  4  9  2  0
  4  5  1  0
  5  6  2  0
  5 38  1  0
  6  7  1  0
  6 39  1  0
  7  8  2  0
  7 40  1  0
  8  9  1  0
  9 10  1  0
 10 11  1  0
 10 41  1  0
 10 42  1  0
 11 12  1  0
 13 11  2  0
 13 14  1  0
 13 23  1  0
 14 15  1  0
 14 43  1  0
 15 16  1  0
 15 44  1  0
 15 45  1  0
 16 21  1  0
 16 17  2  0
 17 18  1  0
 18 19  2  0
 18 46  1  0
 19 20  1  0
 19 47  1  0
 20 21  2  0
 20 48  1  0
 21 22  1  0
 22 49  1  0
 22 50  1  0
 22 51  1  0
 23 24  1  0
 23 52  1  0
 24 25  1  1
 24 31  1  0
 24 26  1  0
 26 27  1  0
 26 53  1  0
 26 54  1  0
 27 28  1  0
 27 55  1  0
 27 56  1  0
 28 29  2  0
 28 30  1  0
 30 31  1  0
 30 57  1  0
 31 58  1  0
 31 59  1  0
M  CHG  1  11   1
M  END
>  <DOCK_score>  (1) 
-49.094189

>  <SMILES>  (1) 
CCNc1cccnc1C[NH+]=C(NCc1ncccc1C)N[C@@H]1CCC(=O)NC1

$$$$
