CN1CC([NH+]=C(NC2CC=CC2)N[C@H]2CCC(=O)NC2)C1
     RDKit          3D

 47 49  0  0  1  0  0  0  0  0999 V2000
  132.9765  138.9887  160.0916 C   0  0  0  0  0  0  0  0  0  0  0  0
  132.3239  137.9351  160.8806 N   0  0  0  0  0  0  0  0  0  0  0  0
  132.8313  136.5978  160.5017 C   0  0  0  0  0  0  0  0  0  0  0  0
  131.3650  136.1347  160.5732 C   0  0  0  0  0  0  0  0  0  0  0  0
  130.9760  135.2382  159.4818 N   0  0  0  0  0  0  0  0  0  0  0  0
  131.6232  134.9913  158.8028 H   0  0  0  0  0  0  0  0  0  0  0  0
  129.7615  134.7679  159.4263 C   0  0  0  0  0  0  0  0  0  0  0  0
  129.3963  133.9264  158.4023 N   0  0  0  0  0  0  0  0  0  0  0  0
  130.3931  133.0475  157.7855 C   0  0  0  0  0  0  0  0  0  0  0  0
  129.7273  132.0571  156.8021 C   0  0  0  0  0  0  0  0  0  0  0  0
  130.4955  130.7672  156.9784 C   0  0  0  0  0  0  0  0  0  0  0  0
  131.1910  130.7810  158.0827 C   0  0  0  0  0  0  0  0  0  0  0  0
  131.0024  132.0818  158.8282 C   0  0  0  0  0  0  0  0  0  0  0  0
  128.8459  135.1132  160.3919 N   0  0  0  0  0  0  0  0  0  0  0  0
  127.4809  134.5847  160.3296 C   0  0  1  0  0  0  0  0  0  0  0  0
  127.2019  134.4143  159.2897 H   0  0  0  0  0  0  0  0  0  0  0  0
  127.4045  133.2644  161.1057 C   0  0  0  0  0  0  0  0  0  0  0  0
  126.0242  132.6453  160.8725 C   0  0  0  0  0  0  0  0  0  0  0  0
  124.9565  133.6765  161.1005 C   0  0  0  0  0  0  0  0  0  0  0  0
  123.8189  133.2953  161.2782 O   0  0  0  0  0  0  0  0  0  0  0  0
  125.1924  134.9889  161.1183 N   0  0  0  0  0  0  0  0  0  0  0  0
  126.5143  135.5838  160.9664 C   0  0  0  0  0  0  0  0  0  0  0  0
  130.9879  137.6072  160.3295 C   0  0  0  0  0  0  0  0  0  0  0  0
  132.7765  138.8261  159.0326 H   0  0  0  0  0  0  0  0  0  0  0  0
  132.5853  139.9611  160.3903 H   0  0  0  0  0  0  0  0  0  0  0  0
  134.0519  138.9603  160.2669 H   0  0  0  0  0  0  0  0  0  0  0  0
  133.4731  136.1419  161.2555 H   0  0  0  0  0  0  0  0  0  0  0  0
  133.2569  136.5555  159.4991 H   0  0  0  0  0  0  0  0  0  0  0  0
  131.0698  135.7628  161.5543 H   0  0  0  0  0  0  0  0  0  0  0  0
  128.4788  133.9147  158.0879 H   0  0  0  0  0  0  0  0  0  0  0  0
  131.1703  133.6287  157.2893 H   0  0  0  0  0  0  0  0  0  0  0  0
  128.6784  131.9125  157.0609 H   0  0  0  0  0  0  0  0  0  0  0  0
  129.8203  132.4185  155.7781 H   0  0  0  0  0  0  0  0  0  0  0  0
  130.4722  129.9424  156.2814 H   0  0  0  0  0  0  0  0  0  0  0  0
  131.8186  129.9692  158.4198 H   0  0  0  0  0  0  0  0  0  0  0  0
  131.9620  132.4599  159.1808 H   0  0  0  0  0  0  0  0  0  0  0  0
  130.3179  131.9458  159.6655 H   0  0  0  0  0  0  0  0  0  0  0  0
  129.1035  135.7070  161.1143 H   0  0  0  0  0  0  0  0  0  0  0  0
  128.1772  132.5836  160.7487 H   0  0  0  0  0  0  0  0  0  0  0  0
  127.5460  133.4555  162.1695 H   0  0  0  0  0  0  0  0  0  0  0  0
  125.9603  132.2784  159.8481 H   0  0  0  0  0  0  0  0  0  0  0  0
  125.8786  131.8146  161.5630 H   0  0  0  0  0  0  0  0  0  0  0  0
  124.4368  135.5850  161.2399 H   0  0  0  0  0  0  0  0  0  0  0  0
  126.8923  135.8766  161.9460 H   0  0  0  0  0  0  0  0  0  0  0  0
  126.4408  136.4680  160.3331 H   0  0  0  0  0  0  0  0  0  0  0  0
  130.8726  137.8624  159.2762 H   0  0  0  0  0  0  0  0  0  0  0  0
  130.1597  137.9562  160.9462 H   0  0  0  0  0  0  0  0  0  0  0  0
  1  2  1  0
  1 24  1  0
  1 25  1  0
  1 26  1  0
  2 23  1  0
  2  3  1  0
  3  4  1  0
  3 27  1  0
  3 28  1  0
  4  5  1  0
  4 23  1  0
  4 29  1  0
  5  6  1  0
  7  5  2  0
  7  8  1  0
  7 14  1  0
  8  9  1  0
  8 30  1  0
  9 13  1  0
  9 10  1  0
  9 31  1  0
 10 11  1  0
 10 32  1  0
 10 33  1  0
 11 12  2  0
 11 34  1  0
 12 13  1  0
 12 35  1  0
 13 36  1  0
 13 37  1  0
 14 15  1  0
 14 38  1  0
 15 16  1  6
 15 22  1  0
 15 17  1  0
 17 18  1  0
 17 39  1  0
 17 40  1  0
 18 19  1  0
 18 41  1  0
 18 42  1  0
 19 20  2  0
 19 21  1  0
 21 22  1  0
 21 43  1  0
 22 44  1  0
 22 45  1  0
 23 46  1  0
 23 47  1  0
M  CHG  1   5   1
M  END
>  <DOCK_score>  (1) 
-40.244095

>  <SMILES>  (1) 
CN1CC([NH+]=C(NC2CC=CC2)N[C@H]2CCC(=O)NC2)C1

$$$$
