[NH3+][C@H](CCC#CCc1cn(-c2ccccc2)nc1-c1ccc(Cl)cc1)C(=O)Nc1cccc(O)c1
     RDKit          3D

 61 64  0  0  1  0  0  0  0  0999 V2000
  130.9845  134.0187  157.8249 N   0  0  0  0  0  0  0  0  0  0  0  0
  131.8908  134.4319  157.6637 H   0  0  0  0  0  0  0  0  0  0  0  0
  130.9634  133.0901  157.4307 H   0  0  0  0  0  0  0  0  0  0  0  0
  130.2738  134.5859  157.3876 H   0  0  0  0  0  0  0  0  0  0  0  0
  130.7308  133.9432  159.2698 C   0  0  2  0  0  0  0  0  0  0  0  0
  130.7536  134.9464  159.6956 H   0  0  0  0  0  0  0  0  0  0  0  0
  131.8086  133.0831  159.9327 C   0  0  0  0  0  0  0  0  0  0  0  0
  131.5441  133.0046  161.4376 C   0  0  0  0  0  0  0  0  0  0  0  0
  131.5751  134.3593  162.0126 C   0  0  0  0  0  0  0  0  0  0  0  0
  131.5996  135.4397  162.4712 C   0  0  0  0  0  0  0  0  0  0  0  0
  131.6305  136.7945  163.0462 C   0  0  0  0  0  0  0  0  0  0  0  0
  131.3702  136.7170  164.5285 C   0  0  0  0  0  0  0  0  0  0  0  0
  130.1615  136.7841  165.1278 C   0  0  0  0  0  0  0  0  0  0  0  0
  130.3544  136.6736  166.4682 N   0  0  0  0  0  0  0  0  0  0  0  0
  129.3536  136.6926  167.4485 C   0  0  0  0  0  0  0  0  0  0  0  0
  129.6906  136.5638  168.7894 C   0  0  0  0  0  0  0  0  0  0  0  0
  128.7023  136.5882  169.7538 C   0  0  0  0  0  0  0  0  0  0  0  0
  127.3771  136.7295  169.3845 C   0  0  0  0  0  0  0  0  0  0  0  0
  127.0378  136.8528  168.0495 C   0  0  0  0  0  0  0  0  0  0  0  0
  128.0221  136.8348  167.0809 C   0  0  0  0  0  0  0  0  0  0  0  0
  131.7299  136.5425  166.6986 N   0  0  0  0  0  0  0  0  0  0  0  0
  132.3449  136.5681  165.5349 C   0  0  0  0  0  0  0  0  0  0  0  0
  133.8091  136.4588  165.3203 C   0  0  0  0  0  0  0  0  0  0  0  0
  134.4959  135.3254  165.7508 C   0  0  0  0  0  0  0  0  0  0  0  0
  135.8568  135.2261  165.5444 C   0  0  0  0  0  0  0  0  0  0  0  0
  136.5415  136.2553  164.9211 C   0  0  0  0  0  0  0  0  0  0  0  0
  138.2545  136.1277  164.6708 Cl  0  0  0  0  0  0  0  0  0  0  0  0
  135.8644  137.3857  164.4964 C   0  0  0  0  0  0  0  0  0  0  0  0
  134.5027  137.4919  164.6930 C   0  0  0  0  0  0  0  0  0  0  0  0
  129.3772  133.3260  159.5105 C   0  0  0  0  0  0  0  0  0  0  0  0
  129.2721  132.1241  159.6348 O   0  0  0  0  0  0  0  0  0  0  0  0
  128.2832  134.1096  159.5874 N   0  0  0  0  0  0  0  0  0  0  0  0
  127.0265  133.5365  159.8108 C   0  0  0  0  0  0  0  0  0  0  0  0
  126.7572  132.2517  159.3560 C   0  0  0  0  0  0  0  0  0  0  0  0
  125.5169  131.6857  159.5773 C   0  0  0  0  0  0  0  0  0  0  0  0
  124.5424  132.3935  160.2553 C   0  0  0  0  0  0  0  0  0  0  0  0
  124.8039  133.6793  160.7068 C   0  0  0  0  0  0  0  0  0  0  0  0
  123.8430  134.3760  161.3688 O   0  0  0  0  0  0  0  0  0  0  0  0
  126.0477  134.2506  160.4871 C   0  0  0  0  0  0  0  0  0  0  0  0
  131.7858  132.0800  159.5069 H   0  0  0  0  0  0  0  0  0  0  0  0
  132.7876  133.5296  159.7585 H   0  0  0  0  0  0  0  0  0  0  0  0
  130.5650  132.5581  161.6117 H   0  0  0  0  0  0  0  0  0  0  0  0
  132.3121  132.3919  161.9098 H   0  0  0  0  0  0  0  0  0  0  0  0
  132.6095  137.2409  162.8721 H   0  0  0  0  0  0  0  0  0  0  0  0
  130.8626  137.4071  162.5739 H   0  0  0  0  0  0  0  0  0  0  0  0
  129.2104  136.9019  164.6299 H   0  0  0  0  0  0  0  0  0  0  0  0
  130.7250  136.4487  169.0782 H   0  0  0  0  0  0  0  0  0  0  0  0
  128.9642  136.4928  170.7973 H   0  0  0  0  0  0  0  0  0  0  0  0
  126.6058  136.7439  170.1402 H   0  0  0  0  0  0  0  0  0  0  0  0
  126.0020  136.9637  167.7643 H   0  0  0  0  0  0  0  0  0  0  0  0
  127.7564  136.9316  166.0385 H   0  0  0  0  0  0  0  0  0  0  0  0
  133.9635  134.5240  166.2416 H   0  0  0  0  0  0  0  0  0  0  0  0
  136.3893  134.3464  165.8740 H   0  0  0  0  0  0  0  0  0  0  0  0
  136.4029  138.1859  164.0104 H   0  0  0  0  0  0  0  0  0  0  0  0
  133.9754  138.3739  164.3610 H   0  0  0  0  0  0  0  0  0  0  0  0
  128.3673  135.0708  159.4881 H   0  0  0  0  0  0  0  0  0  0  0  0
  127.5183  131.6951  158.8295 H   0  0  0  0  0  0  0  0  0  0  0  0
  125.3094  130.6867  159.2233 H   0  0  0  0  0  0  0  0  0  0  0  0
  123.5749  131.9466  160.4307 H   0  0  0  0  0  0  0  0  0  0  0  0
  124.1180  135.2614  161.6437 H   0  0  0  0  0  0  0  0  0  0  0  0
  126.2544  135.2497  160.8413 H   0  0  0  0  0  0  0  0  0  0  0  0
  1  2  1  0
  1  3  1  0
  1  4  1  0
  1  5  1  0
  5  6  1  1
  5  7  1  0
  5 30  1  0
  7  8  1  0
  7 40  1  0
  7 41  1  0
  8  9  1  0
  8 42  1  0
  8 43  1  0
  9 10  3  0
 10 11  1  0
 11 12  1  0
 11 44  1  0
 11 45  1  0
 12 22  1  0
 12 13  2  0
 13 14  1  0
 13 46  1  0
 14 15  1  0
 14 21  1  0
 15 20  1  0
 15 16  2  0
 16 17  1  0
 16 47  1  0
 17 18  2  0
 17 48  1  0
 18 19  1  0
 18 49  1  0
 19 20  2  0
 19 50  1  0
 20 51  1  0
 21 22  2  0
 22 23  1  0
 23 29  1  0
 23 24  2  0
 24 25  1  0
 24 52  1  0
 25 26  2  0
 25 53  1  0
 26 27  1  0
 26 28  1  0
 28 29  2  0
 28 54  1  0
 29 55  1  0
 30 31  2  0
 30 32  1  0
 32 33  1  0
 32 56  1  0
 33 39  1  0
 33 34  2  0
 34 35  1  0
 34 57  1  0
 35 36  2  0
 35 58  1  0
 36 37  1  0
 36 59  1  0
 37 38  1  0
 37 39  2  0
 38 60  1  0
 39 61  1  0
M  CHG  1   1   1
M  END
>  <DOCK_score>  (1) 
-42.120579

>  <SMILES>  (1) 
[NH3+][C@H](CCC#CCc1cn(-c2ccccc2)nc1-c1ccc(Cl)cc1)C(=O)Nc1cccc(O)c1

$$$$
