CC=C[NH2+][C@@H](C(=O)Nc1cccc(O)c1)c1cccc(Oc2ccnn2C)c1
     RDKit          3D

 51 53  0  0  1  0  0  0  0  0999 V2000
  130.3534  131.3364  155.2327 C   0  0  0  0  0  0  0  0  0  0  0  0
  130.7459  131.4405  156.6841 C   0  0  0  0  0  0  0  0  0  0  0  0
  131.2001  132.5731  157.1602 C   0  0  0  0  0  0  0  0  0  0  0  0
  131.5643  132.6697  158.5064 N   0  0  0  0  0  0  0  0  0  0  0  0
  132.5392  132.9212  158.5739 H   0  0  0  0  0  0  0  0  0  0  0  0
  131.4141  131.7811  158.9601 H   0  0  0  0  0  0  0  0  0  0  0  0
  130.7465  133.6988  159.1623 C   0  0  1  0  0  0  0  0  0  0  0  0
  130.6229  134.5478  158.4898 H   0  0  0  0  0  0  0  0  0  0  0  0
  129.3948  133.1255  159.5013 C   0  0  0  0  0  0  0  0  0  0  0  0
  129.2817  131.9433  159.7474 O   0  0  0  0  0  0  0  0  0  0  0  0
  128.3112  133.9267  159.5312 N   0  0  0  0  0  0  0  0  0  0  0  0
  127.0562  133.3944  159.8462 C   0  0  0  0  0  0  0  0  0  0  0  0
  126.7611  132.0742  159.5292 C   0  0  0  0  0  0  0  0  0  0  0  0
  125.5222  131.5489  159.8402 C   0  0  0  0  0  0  0  0  0  0  0  0
  124.5755  132.3322  160.4729 C   0  0  0  0  0  0  0  0  0  0  0  0
  124.8626  133.6531  160.7867 C   0  0  0  0  0  0  0  0  0  0  0  0
  123.9286  134.4240  161.4033 O   0  0  0  0  0  0  0  0  0  0  0  0
  126.1048  134.1842  160.4758 C   0  0  0  0  0  0  0  0  0  0  0  0
  131.4304  134.1541  160.4257 C   0  0  0  0  0  0  0  0  0  0  0  0
  131.1689  133.5123  161.6224 C   0  0  0  0  0  0  0  0  0  0  0  0
  131.7942  133.9278  162.7835 C   0  0  0  0  0  0  0  0  0  0  0  0
  132.6824  134.9855  162.7507 C   0  0  0  0  0  0  0  0  0  0  0  0
  132.9468  135.6308  161.5513 C   0  0  0  0  0  0  0  0  0  0  0  0
  133.8202  136.6711  161.5162 O   0  0  0  0  0  0  0  0  0  0  0  0
  133.3299  137.9216  161.7117 C   0  0  0  0  0  0  0  0  0  0  0  0
  132.0302  138.2475  161.9434 C   0  0  0  0  0  0  0  0  0  0  0  0
  131.9561  139.6360  162.0877 C   0  0  0  0  0  0  0  0  0  0  0  0
  133.1604  140.1283  161.9490 N   0  0  0  0  0  0  0  0  0  0  0  0
  134.0459  139.0680  161.7169 N   0  0  0  0  0  0  0  0  0  0  0  0
  135.4921  139.1820  161.5122 C   0  0  0  0  0  0  0  0  0  0  0  0
  132.3219  135.2081  160.3863 C   0  0  0  0  0  0  0  0  0  0  0  0
  130.0017  130.3262  155.0230 H   0  0  0  0  0  0  0  0  0  0  0  0
  129.5574  132.0498  155.0196 H   0  0  0  0  0  0  0  0  0  0  0  0
  131.2172  131.5578  154.6060 H   0  0  0  0  0  0  0  0  0  0  0  0
  130.6526  130.5811  157.3316 H   0  0  0  0  0  0  0  0  0  0  0  0
  131.2935  133.4325  156.5125 H   0  0  0  0  0  0  0  0  0  0  0  0
  128.4016  134.8722  159.3344 H   0  0  0  0  0  0  0  0  0  0  0  0
  127.5008  131.4587  159.0392 H   0  0  0  0  0  0  0  0  0  0  0  0
  125.2945  130.5226  159.5927 H   0  0  0  0  0  0  0  0  0  0  0  0
  123.6094  131.9172  160.7195 H   0  0  0  0  0  0  0  0  0  0  0  0
  124.2201  135.3286  161.5809 H   0  0  0  0  0  0  0  0  0  0  0  0
  126.3318  135.2106  160.7236 H   0  0  0  0  0  0  0  0  0  0  0  0
  130.4747  132.6856  161.6504 H   0  0  0  0  0  0  0  0  0  0  0  0
  131.5880  133.4252  163.7168 H   0  0  0  0  0  0  0  0  0  0  0  0
  133.1705  135.3097  163.6579 H   0  0  0  0  0  0  0  0  0  0  0  0
  131.2026  137.5566  162.0053 H   0  0  0  0  0  0  0  0  0  0  0  0
  131.0586  140.2049  162.2811 H   0  0  0  0  0  0  0  0  0  0  0  0
  135.6948  139.3943  160.4624 H   0  0  0  0  0  0  0  0  0  0  0  0
  135.8836  139.9911  162.1288 H   0  0  0  0  0  0  0  0  0  0  0  0
  135.9737  138.2454  161.7931 H   0  0  0  0  0  0  0  0  0  0  0  0
  132.5291  135.7061  159.4506 H   0  0  0  0  0  0  0  0  0  0  0  0
  1  2  1  0
  1 32  1  0
  1 33  1  0
  1 34  1  0
  2  3  2  0
  2 35  1  0
  3  4  1  0
  3 36  1  0
  4  5  1  0
  4  6  1  0
  4  7  1  0
  7  8  1  6
  7  9  1  0
  7 19  1  0
  9 10  2  0
  9 11  1  0
 11 12  1  0
 11 37  1  0
 12 18  1  0
 12 13  2  0
 13 14  1  0
 13 38  1  0
 14 15  2  0
 14 39  1  0
 15 16  1  0
 15 40  1  0
 16 17  1  0
 16 18  2  0
 17 41  1  0
 18 42  1  0
 19 31  1  0
 19 20  2  0
 20 21  1  0
 20 43  1  0
 21 22  2  0
 21 44  1  0
 22 23  1  0
 22 45  1  0
 23 24  1  0
 23 31  2  0
 24 25  1  0
 25 29  1  0
 25 26  2  0
 26 27  1  0
 26 46  1  0
 27 28  2  0
 27 47  1  0
 28 29  1  0
 29 30  1  0
 30 48  1  0
 30 49  1  0
 30 50  1  0
 31 51  1  0
M  CHG  1   4   1
M  END
>  <DOCK_score>  (1) 
-41.427143

>  <SMILES>  (1) 
CC=C[NH2+][C@@H](C(=O)Nc1cccc(O)c1)c1cccc(Oc2ccnn2C)c1

$$$$
