Oc1ccc(Nc2[nH]cc(-c3cccnc3)[nH+]2)cc1
     RDKit          3D

 32 34  0  0  1  0  0  0  0  0999 V2000
  126.4901  137.0462  162.3948 O   0  0  0  0  0  0  0  0  0  0  0  0
  127.4068  136.6391  161.4764 C   0  0  0  0  0  0  0  0  0  0  0  0
  127.0913  135.6242  160.5850 C   0  0  0  0  0  0  0  0  0  0  0  0
  128.0198  135.2135  159.6488 C   0  0  0  0  0  0  0  0  0  0  0  0
  129.2736  135.8092  159.6073 C   0  0  0  0  0  0  0  0  0  0  0  0
  130.2174  135.3898  158.6622 N   0  0  0  0  0  0  0  0  0  0  0  0
  130.2127  134.0796  158.2130 C   0  0  0  0  0  0  0  0  0  0  0  0
  129.8025  132.9972  158.9294 N   0  0  0  0  0  0  0  0  0  0  0  0
  129.4643  133.0045  159.8385 H   0  0  0  0  0  0  0  0  0  0  0  0
  129.9558  131.8930  158.1273 C   0  0  0  0  0  0  0  0  0  0  0  0
  130.4548  132.3315  156.9449 C   0  0  0  0  0  0  0  0  0  0  0  0
  130.7821  131.4883  155.7691 C   0  0  0  0  0  0  0  0  0  0  0  0
  130.6806  132.0052  154.4741 C   0  0  0  0  0  0  0  0  0  0  0  0
  131.0027  131.1797  153.4108 C   0  0  0  0  0  0  0  0  0  0  0  0
  131.4004  129.8786  153.6607 C   0  0  0  0  0  0  0  0  0  0  0  0
  131.4815  129.4172  154.8936 N   0  0  0  0  0  0  0  0  0  0  0  0
  131.1901  130.1667  155.9371 C   0  0  0  0  0  0  0  0  0  0  0  0
  130.5971  133.6779  157.0260 N   0  0  0  0  0  0  0  0  0  0  0  0
  130.9318  134.2517  156.3190 H   0  0  0  0  0  0  0  0  0  0  0  0
  129.5905  136.8217  160.5036 C   0  0  0  0  0  0  0  0  0  0  0  0
  128.6588  137.2351  161.4353 C   0  0  0  0  0  0  0  0  0  0  0  0
  125.6481  136.5733  162.3464 H   0  0  0  0  0  0  0  0  0  0  0  0
  126.1178  135.1579  160.6203 H   0  0  0  0  0  0  0  0  0  0  0  0
  127.7727  134.4259  158.9525 H   0  0  0  0  0  0  0  0  0  0  0  0
  130.8747  136.0168  158.3220 H   0  0  0  0  0  0  0  0  0  0  0  0
  129.7232  130.8711  158.3881 H   0  0  0  0  0  0  0  0  0  0  0  0
  130.3631  133.0240  154.3077 H   0  0  0  0  0  0  0  0  0  0  0  0
  130.9397  131.5460  152.3969 H   0  0  0  0  0  0  0  0  0  0  0  0
  131.6487  129.2306  152.8332 H   0  0  0  0  0  0  0  0  0  0  0  0
  131.2686  129.7531  156.9317 H   0  0  0  0  0  0  0  0  0  0  0  0
  130.5651  137.2857  160.4717 H   0  0  0  0  0  0  0  0  0  0  0  0
  128.9049  138.0223  162.1323 H   0  0  0  0  0  0  0  0  0  0  0  0
  1  2  1  0
  1 22  1  0
  2 21  2  0
  2  3  1  0
  3  4  2  0
  3 23  1  0
  4  5  1  0
  4 24  1  0
  5  6  1  0
  5 20  2  0
  6 25  1  0
  7  6  1  0
  7 18  2  0
  7  8  1  0
  8  9  1  0
  8 10  1  0
 10 11  2  0
 10 26  1  0
 11 12  1  0
 11 18  1  0
 12 17  1  0
 12 13  2  0
 13 14  1  0
 13 27  1  0
 14 15  2  0
 14 28  1  0
 15 16  1  0
 15 29  1  0
 16 17  2  0
 17 30  1  0
 18 19  1  0
 20 21  1  0
 20 31  1  0
 21 32  1  0
M  CHG  1  18   1
M  END
>  <DOCK_score>  (1) 
-46.6063

>  <SMILES>  (1) 
Oc1ccc(Nc2[nH]cc(-c3cccnc3)[nH+]2)cc1

$$$$
