Nc1ccc(-c2c[nH]c(Nc3ccc(O)c(Cc4ccccc4)c3)[nH+]2)cc1
     RDKit          3D

 48 51  0  0  1  0  0  0  0  0999 V2000
  131.5082  129.3746  151.3031 N   0  0  0  0  0  0  0  0  0  0  0  0
  131.1862  130.0605  152.4766 C   0  0  0  0  0  0  0  0  0  0  0  0
  130.3433  131.1645  152.4261 C   0  0  0  0  0  0  0  0  0  0  0  0
  130.0238  131.8429  153.5833 C   0  0  0  0  0  0  0  0  0  0  0  0
  130.5468  131.4206  154.8045 C   0  0  0  0  0  0  0  0  0  0  0  0
  130.2048  132.1490  156.0509 C   0  0  0  0  0  0  0  0  0  0  0  0
  129.5765  131.6268  157.1335 C   0  0  0  0  0  0  0  0  0  0  0  0
  129.4607  132.6403  158.0545 N   0  0  0  0  0  0  0  0  0  0  0  0
  129.0539  132.5751  158.9327 H   0  0  0  0  0  0  0  0  0  0  0  0
  130.0222  133.7525  157.5065 C   0  0  0  0  0  0  0  0  0  0  0  0
  130.1100  134.9945  158.1134 N   0  0  0  0  0  0  0  0  0  0  0  0
  129.1328  135.3951  159.0325 C   0  0  0  0  0  0  0  0  0  0  0  0
  127.8052  135.4941  158.6364 C   0  0  0  0  0  0  0  0  0  0  0  0
  126.8423  135.8894  159.5434 C   0  0  0  0  0  0  0  0  0  0  0  0
  127.2004  136.1880  160.8501 C   0  0  0  0  0  0  0  0  0  0  0  0
  126.2513  136.5773  161.7428 O   0  0  0  0  0  0  0  0  0  0  0  0
  128.5257  136.0888  161.2468 C   0  0  0  0  0  0  0  0  0  0  0  0
  128.9134  136.4125  162.6666 C   0  0  0  0  0  0  0  0  0  0  0  0
  128.5405  137.8395  162.9761 C   0  0  0  0  0  0  0  0  0  0  0  0
  127.9135  138.1467  164.1692 C   0  0  0  0  0  0  0  0  0  0  0  0
  127.5718  139.4557  164.4534 C   0  0  0  0  0  0  0  0  0  0  0  0
  127.8558  140.4572  163.5440 C   0  0  0  0  0  0  0  0  0  0  0  0
  128.4832  140.1500  162.3512 C   0  0  0  0  0  0  0  0  0  0  0  0
  128.8257  138.8412  162.0673 C   0  0  0  0  0  0  0  0  0  0  0  0
  129.4912  135.6994  160.3391 C   0  0  0  0  0  0  0  0  0  0  0  0
  130.4612  133.4558  156.3074 N   0  0  0  0  0  0  0  0  0  0  0  0
  130.9007  134.0721  155.7010 H   0  0  0  0  0  0  0  0  0  0  0  0
  131.3962  130.3163  154.8522 C   0  0  0  0  0  0  0  0  0  0  0  0
  131.7088  129.6378  153.6930 C   0  0  0  0  0  0  0  0  0  0  0  0
  131.1436  129.6688  150.4538 H   0  0  0  0  0  0  0  0  0  0  0  0
  132.0965  128.6041  151.3374 H   0  0  0  0  0  0  0  0  0  0  0  0
  129.9385  131.4915  151.4797 H   0  0  0  0  0  0  0  0  0  0  0  0
  129.3685  132.7005  153.5436 H   0  0  0  0  0  0  0  0  0  0  0  0
  129.2328  130.6096  157.2494 H   0  0  0  0  0  0  0  0  0  0  0  0
  130.8485  135.5866  157.9017 H   0  0  0  0  0  0  0  0  0  0  0  0
  127.5263  135.2616  157.6193 H   0  0  0  0  0  0  0  0  0  0  0  0
  125.8100  135.9664  159.2357 H   0  0  0  0  0  0  0  0  0  0  0  0
  125.3578  136.6160  161.3752 H   0  0  0  0  0  0  0  0  0  0  0  0
  129.9889  136.2836  162.7878 H   0  0  0  0  0  0  0  0  0  0  0  0
  128.3881  135.7436  163.3482 H   0  0  0  0  0  0  0  0  0  0  0  0
  127.6866  137.3634  164.8774 H   0  0  0  0  0  0  0  0  0  0  0  0
  127.0818  139.6957  165.3855 H   0  0  0  0  0  0  0  0  0  0  0  0
  127.5889  141.4799  163.7661 H   0  0  0  0  0  0  0  0  0  0  0  0
  128.7060  140.9326  161.6411 H   0  0  0  0  0  0  0  0  0  0  0  0
  129.3158  138.6012  161.1354 H   0  0  0  0  0  0  0  0  0  0  0  0
  130.5239  135.6273  160.6467 H   0  0  0  0  0  0  0  0  0  0  0  0
  131.8061  129.9901  155.7966 H   0  0  0  0  0  0  0  0  0  0  0  0
  132.3634  128.7795  153.7301 H   0  0  0  0  0  0  0  0  0  0  0  0
  1  2  1  0
  1 30  1  0
  1 31  1  0
  2 29  2  0
  2  3  1  0
  3  4  2  0
  3 32  1  0
  4  5  1  0
  4 33  1  0
  5  6  1  0
  5 28  2  0
  6 26  1  0
  6  7  2  0
  7  8  1  0
  7 34  1  0
  8  9  1  0
  8 10  1  0
 10 11  1  0
 10 26  2  0
 11 12  1  0
 11 35  1  0
 12 25  1  0
 12 13  2  0
 13 14  1  0
 13 36  1  0
 14 15  2  0
 14 37  1  0
 15 16  1  0
 15 17  1  0
 16 38  1  0
 17 18  1  0
 17 25  2  0
 18 19  1  0
 18 39  1  0
 18 40  1  0
 19 24  1  0
 19 20  2  0
 20 21  1  0
 20 41  1  0
 21 22  2  0
 21 42  1  0
 22 23  1  0
 22 43  1  0
 23 24  2  0
 23 44  1  0
 24 45  1  0
 25 46  1  0
 26 27  1  0
 28 29  1  0
 28 47  1  0
 29 48  1  0
M  CHG  1  26   1
M  END
>  <DOCK_score>  (1) 
-57.426071

>  <SMILES>  (1) 
Nc1ccc(-c2c[nH]c(Nc3ccc(O)c(Cc4ccccc4)c3)[nH+]2)cc1

$$$$
