Cc1ccc([C@@H](CO)[NH2+][C@@H]2C[C@@H]2Nc2ccc(O)cc2C(F)(F)F)cc1
     RDKit          3D

 48 50  0  0  1  0  0  0  0  0999 V2000
  137.1096  137.9331  163.5980 C   0  0  0  0  0  0  0  0  0  0  0  0
  135.7637  137.6680  162.9743 C   0  0  0  0  0  0  0  0  0  0  0  0
  134.7673  137.0584  163.7137 C   0  0  0  0  0  0  0  0  0  0  0  0
  133.5326  136.8152  163.1417 C   0  0  0  0  0  0  0  0  0  0  0  0
  133.2943  137.1813  161.8301 C   0  0  0  0  0  0  0  0  0  0  0  0
  131.9485  136.9156  161.2063 C   0  0  1  0  0  0  0  0  0  0  0  0
  131.2988  136.4327  161.9360 H   0  0  0  0  0  0  0  0  0  0  0  0
  131.3219  138.2392  160.7625 C   0  0  0  0  0  0  0  0  0  0  0  0
  131.8905  138.6406  159.5146 O   0  0  0  0  0  0  0  0  0  0  0  0
  132.1139  136.0371  160.0407 N   0  0  0  0  0  0  0  0  0  0  0  0
  132.9409  136.3079  159.5300 H   0  0  0  0  0  0  0  0  0  0  0  0
  131.3066  136.1184  159.4409 H   0  0  0  0  0  0  0  0  0  0  0  0
  132.2506  134.6457  160.4918 C   0  0  2  0  0  0  0  0  0  0  0  0
  132.8561  134.4988  161.3862 H   0  0  0  0  0  0  0  0  0  0  0  0
  132.3002  133.5566  159.4183 C   0  0  0  0  0  0  0  0  0  0  0  0
  131.0520  133.7165  160.2897 C   0  0  2  0  0  0  0  0  0  0  0  0
  130.8689  132.9583  161.0511 H   0  0  0  0  0  0  0  0  0  0  0  0
  129.8558  134.2826  159.6611 N   0  0  0  0  0  0  0  0  0  0  0  0
  128.8588  134.8648  160.4520 C   0  0  0  0  0  0  0  0  0  0  0  0
  129.0003  134.9010  161.8330 C   0  0  0  0  0  0  0  0  0  0  0  0
  128.0189  135.4812  162.6122 C   0  0  0  0  0  0  0  0  0  0  0  0
  126.8862  136.0168  162.0168 C   0  0  0  0  0  0  0  0  0  0  0  0
  125.9174  136.5826  162.7854 O   0  0  0  0  0  0  0  0  0  0  0  0
  126.7414  135.9758  160.6381 C   0  0  0  0  0  0  0  0  0  0  0  0
  127.7250  135.4012  159.8568 C   0  0  0  0  0  0  0  0  0  0  0  0
  127.5673  135.3565  158.3587 C   0  0  0  0  0  0  0  0  0  0  0  0
  128.6827  134.7313  157.7909 F   0  0  0  0  0  0  0  0  0  0  0  0
  126.4129  134.6366  158.0326 F   0  0  0  0  0  0  0  0  0  0  0  0
  127.4600  136.6599  157.8618 F   0  0  0  0  0  0  0  0  0  0  0  0
  134.2924  137.7860  161.0891 C   0  0  0  0  0  0  0  0  0  0  0  0
  135.5252  138.0345  161.6630 C   0  0  0  0  0  0  0  0  0  0  0  0
  137.7625  137.0763  163.4315 H   0  0  0  0  0  0  0  0  0  0  0  0
  137.5518  138.8202  163.1444 H   0  0  0  0  0  0  0  0  0  0  0  0
  136.9884  138.0949  164.6691 H   0  0  0  0  0  0  0  0  0  0  0  0
  134.9536  136.7720  164.7382 H   0  0  0  0  0  0  0  0  0  0  0  0
  132.7543  136.3386  163.7191 H   0  0  0  0  0  0  0  0  0  0  0  0
  130.2457  138.1108  160.6472 H   0  0  0  0  0  0  0  0  0  0  0  0
  131.5182  139.0039  161.5140 H   0  0  0  0  0  0  0  0  0  0  0  0
  131.7541  138.0058  158.7980 H   0  0  0  0  0  0  0  0  0  0  0  0
  132.2311  133.8726  158.3773 H   0  0  0  0  0  0  0  0  0  0  0  0
  132.9385  132.6933  159.6063 H   0  0  0  0  0  0  0  0  0  0  0  0
  129.7549  134.2539  158.6968 H   0  0  0  0  0  0  0  0  0  0  0  0
  129.8797  134.4796  162.2973 H   0  0  0  0  0  0  0  0  0  0  0  0
  128.1308  135.5134  163.6860 H   0  0  0  0  0  0  0  0  0  0  0  0
  125.1674  136.9278  162.2817 H   0  0  0  0  0  0  0  0  0  0  0  0
  125.8596  136.3935  160.1753 H   0  0  0  0  0  0  0  0  0  0  0  0
  134.1076  138.0682  160.0630 H   0  0  0  0  0  0  0  0  0  0  0  0
  136.3035  138.5110  161.0853 H   0  0  0  0  0  0  0  0  0  0  0  0
  1  2  1  0
  1 32  1  0
  1 33  1  0
  1 34  1  0
  2 31  2  0
  2  3  1  0
  3  4  2  0
  3 35  1  0
  4  5  1  0
  4 36  1  0
  5  6  1  0
  5 30  2  0
  6  7  1  1
  6  8  1  0
  6 10  1  0
  8  9  1  0
  8 37  1  0
  8 38  1  0
  9 39  1  0
 10 11  1  0
 10 12  1  0
 10 13  1  0
 13 14  1  1
 13 16  1  0
 13 15  1  0
 15 16  1  0
 15 40  1  0
 15 41  1  0
 16 17  1  1
 16 18  1  0
 18 19  1  0
 18 42  1  0
 19 25  1  0
 19 20  2  0
 20 21  1  0
 20 43  1  0
 21 22  2  0
 21 44  1  0
 22 23  1  0
 22 24  1  0
 23 45  1  0
 24 25  2  0
 24 46  1  0
 25 26  1  0
 26 27  1  0
 26 28  1  0
 26 29  1  0
 30 31  1  0
 30 47  1  0
 31 48  1  0
M  CHG  1  10   1
M  END
>  <DOCK_score>  (1) 
-43.221062

>  <SMILES>  (1) 
Cc1ccc([C@@H](CO)[NH2+][C@@H]2C[C@@H]2Nc2ccc(O)cc2C(F)(F)F)cc1

$$$$
