CCc1ccc(-c2c[nH]c(N[C@H](c3ccc(CC)cc3)c3ccccc3Sc3ccncc3)[nH+]2)cc1
     RDKit          3D

 67 71  0  0  1  0  0  0  0  0999 V2000
  130.4499  128.6410  152.3527 C   0  0  0  0  0  0  0  0  0  0  0  0
  131.6144  129.5826  152.6654 C   0  0  0  0  0  0  0  0  0  0  0  0
  131.2731  130.4209  153.8703 C   0  0  0  0  0  0  0  0  0  0  0  0
  131.5993  129.9708  155.1370 C   0  0  0  0  0  0  0  0  0  0  0  0
  131.2945  130.7365  156.2439 C   0  0  0  0  0  0  0  0  0  0  0  0
  130.6467  131.9602  156.0845 C   0  0  0  0  0  0  0  0  0  0  0  0
  130.3113  132.7852  157.2709 C   0  0  0  0  0  0  0  0  0  0  0  0
  129.5174  132.4109  158.3047 C   0  0  0  0  0  0  0  0  0  0  0  0
  129.4766  133.4693  159.1793 N   0  0  0  0  0  0  0  0  0  0  0  0
  128.9882  133.5040  160.0167 H   0  0  0  0  0  0  0  0  0  0  0  0
  130.2473  134.4603  158.6540 C   0  0  0  0  0  0  0  0  0  0  0  0
  130.4697  135.6997  159.2293 N   0  0  0  0  0  0  0  0  0  0  0  0
  129.8493  136.0329  160.5139 C   0  0  2  0  0  0  0  0  0  0  0  0
  128.7648  135.9774  160.4190 H   0  0  0  0  0  0  0  0  0  0  0  0
  130.2473  137.4294  160.9169 C   0  0  0  0  0  0  0  0  0  0  0  0
  131.5815  137.7424  161.0992 C   0  0  0  0  0  0  0  0  0  0  0  0
  131.9469  139.0243  161.4651 C   0  0  0  0  0  0  0  0  0  0  0  0
  130.9777  139.9911  161.6570 C   0  0  0  0  0  0  0  0  0  0  0  0
  131.3758  141.3875  162.0604 C   0  0  0  0  0  0  0  0  0  0  0  0
  131.4136  141.4861  163.5868 C   0  0  0  0  0  0  0  0  0  0  0  0
  129.6432  139.6769  161.4794 C   0  0  0  0  0  0  0  0  0  0  0  0
  129.2781  138.3959  161.1099 C   0  0  0  0  0  0  0  0  0  0  0  0
  130.3123  135.0558  161.5638 C   0  0  0  0  0  0  0  0  0  0  0  0
  131.5631  134.4785  161.4672 C   0  0  0  0  0  0  0  0  0  0  0  0
  131.9909  133.5862  162.4331 C   0  0  0  0  0  0  0  0  0  0  0  0
  131.1640  133.2601  163.4929 C   0  0  0  0  0  0  0  0  0  0  0  0
  129.9102  133.8292  163.5929 C   0  0  0  0  0  0  0  0  0  0  0  0
  129.4790  134.7306  162.6269 C   0  0  0  0  0  0  0  0  0  0  0  0
  127.8798  135.4600  162.7508 S   0  0  0  0  0  0  0  0  0  0  0  0
  126.8591  134.3296  161.8646 C   0  0  0  0  0  0  0  0  0  0  0  0
  127.1716  132.9705  161.8146 C   0  0  0  0  0  0  0  0  0  0  0  0
  126.3446  132.1186  161.1138 C   0  0  0  0  0  0  0  0  0  0  0  0
  125.2760  132.5748  160.4885 N   0  0  0  0  0  0  0  0  0  0  0  0
  124.9487  133.8543  160.5078 C   0  0  0  0  0  0  0  0  0  0  0  0
  125.7203  134.7708  161.1898 C   0  0  0  0  0  0  0  0  0  0  0  0
  130.7492  134.0456  157.5164 N   0  0  0  0  0  0  0  0  0  0  0  0
  131.3375  134.5589  156.9408 H   0  0  0  0  0  0  0  0  0  0  0  0
  130.3154  132.4061  154.8063 C   0  0  0  0  0  0  0  0  0  0  0  0
  130.6301  131.6346  153.7061 C   0  0  0  0  0  0  0  0  0  0  0  0
  130.6966  128.0349  151.4809 H   0  0  0  0  0  0  0  0  0  0  0  0
  130.2695  127.9902  153.2082 H   0  0  0  0  0  0  0  0  0  0  0  0
  129.5540  129.2266  152.1463 H   0  0  0  0  0  0  0  0  0  0  0  0
  132.5101  128.9975  152.8714 H   0  0  0  0  0  0  0  0  0  0  0  0
  131.7946  130.2339  151.8094 H   0  0  0  0  0  0  0  0  0  0  0  0
  132.0971  129.0202  155.2596 H   0  0  0  0  0  0  0  0  0  0  0  0
  131.5538  130.3864  157.2321 H   0  0  0  0  0  0  0  0  0  0  0  0
  129.0136  131.4625  158.4183 H   0  0  0  0  0  0  0  0  0  0  0  0
  131.0362  136.3475  158.7817 H   0  0  0  0  0  0  0  0  0  0  0  0
  132.3383  136.9861  160.9528 H   0  0  0  0  0  0  0  0  0  0  0  0
  132.9894  139.2697  161.6042 H   0  0  0  0  0  0  0  0  0  0  0  0
  132.3627  141.6148  161.6571 H   0  0  0  0  0  0  0  0  0  0  0  0
  130.6500  142.0998  161.6681 H   0  0  0  0  0  0  0  0  0  0  0  0
  131.7015  142.4961  163.8786 H   0  0  0  0  0  0  0  0  0  0  0  0
  130.4267  141.2589  163.9901 H   0  0  0  0  0  0  0  0  0  0  0  0
  132.1393  140.7737  163.9790 H   0  0  0  0  0  0  0  0  0  0  0  0
  128.8860  140.4322  161.6298 H   0  0  0  0  0  0  0  0  0  0  0  0
  128.2355  138.1503  160.9714 H   0  0  0  0  0  0  0  0  0  0  0  0
  132.2095  134.7274  160.6385 H   0  0  0  0  0  0  0  0  0  0  0  0
  132.9714  133.1397  162.3576 H   0  0  0  0  0  0  0  0  0  0  0  0
  131.4996  132.5593  164.2431 H   0  0  0  0  0  0  0  0  0  0  0  0
  129.2650  133.5739  164.4205 H   0  0  0  0  0  0  0  0  0  0  0  0
  128.0469  132.5909  162.3207 H   0  0  0  0  0  0  0  0  0  0  0  0
  126.5768  131.0646  161.0724 H   0  0  0  0  0  0  0  0  0  0  0  0
  124.0655  134.1867  159.9825 H   0  0  0  0  0  0  0  0  0  0  0  0
  125.4472  135.8157  161.2017 H   0  0  0  0  0  0  0  0  0  0  0  0
  129.8130  133.3533  154.6770 H   0  0  0  0  0  0  0  0  0  0  0  0
  130.3743  131.9794  152.7151 H   0  0  0  0  0  0  0  0  0  0  0  0
  1  2  1  0
  1 40  1  0
  1 41  1  0
  1 42  1  0
  2  3  1  0
  2 43  1  0
  2 44  1  0
  3 39  2  0
  3  4  1  0
  4  5  2  0
  4 45  1  0
  5  6  1  0
  5 46  1  0
  6  7  1  0
  6 38  2  0
  7 36  1  0
  7  8  2  0
  8  9  1  0
  8 47  1  0
  9 10  1  0
  9 11  1  0
 11 12  1  0
 11 36  2  0
 12 13  1  0
 12 48  1  0
 13 14  1  6
 13 15  1  0
 13 23  1  0
 15 22  1  0
 15 16  2  0
 16 17  1  0
 16 49  1  0
 17 18  2  0
 17 50  1  0
 18 19  1  0
 18 21  1  0
 19 20  1  0
 19 51  1  0
 19 52  1  0
 20 53  1  0
 20 54  1  0
 20 55  1  0
 21 22  2  0
 21 56  1  0
 22 57  1  0
 23 28  1  0
 23 24  2  0
 24 25  1  0
 24 58  1  0
 25 26  2  0
 25 59  1  0
 26 27  1  0
 26 60  1  0
 27 28  2  0
 27 61  1  0
 28 29  1  0
 29 30  1  0
 30 35  1  0
 30 31  2  0
 31 32  1  0
 31 62  1  0
 32 33  2  0
 32 63  1  0
 33 34  1  0
 34 35  2  0
 34 64  1  0
 35 65  1  0
 36 37  1  0
 38 39  1  0
 38 66  1  0
 39 67  1  0
M  CHG  1  36   1
M  END
>  <DOCK_score>  (1) 
-59.301842

>  <SMILES>  (1) 
CCc1ccc(-c2c[nH]c(N[C@H](c3ccc(CC)cc3)c3ccccc3Sc3ccncc3)[nH+]2)cc1

$$$$
