Cc1c(Cl)cccc1N1CC[NH+]([C@H](C2=CNCCC2)c2ccccc2)CC1
     RDKit          3D

 56 59  0  0  1  0  0  0  0  0999 V2000
  133.9604  139.3512  163.0365 C   0  0  0  0  0  0  0  0  0  0  0  0
  134.3704  139.7014  161.6293 C   0  0  0  0  0  0  0  0  0  0  0  0
  135.2991  140.7012  161.4074 C   0  0  0  0  0  0  0  0  0  0  0  0
  135.9934  141.5536  162.7508 Cl  0  0  0  0  0  0  0  0  0  0  0  0
  135.6713  141.0267  160.1149 C   0  0  0  0  0  0  0  0  0  0  0  0
  135.1199  140.3501  159.0423 C   0  0  0  0  0  0  0  0  0  0  0  0
  134.1960  139.3466  159.2577 C   0  0  0  0  0  0  0  0  0  0  0  0
  133.8196  139.0167  160.5539 C   0  0  0  0  0  0  0  0  0  0  0  0
  132.8850  138.0025  160.7746 N   0  0  0  0  0  0  0  0  0  0  0  0
  133.3995  136.7038  160.3178 C   0  0  0  0  0  0  0  0  0  0  0  0
  132.3727  135.6131  160.6310 C   0  0  0  0  0  0  0  0  0  0  0  0
  131.1067  135.9233  159.9539 N   0  0  0  0  0  0  0  0  0  0  0  0
  131.2622  135.9765  158.9584 H   0  0  0  0  0  0  0  0  0  0  0  0
  130.1270  134.8668  160.2401 C   0  0  2  0  0  0  0  0  0  0  0  0
  129.9591  134.8086  161.3155 H   0  0  0  0  0  0  0  0  0  0  0  0
  130.6530  133.5455  159.7415 C   0  0  0  0  0  0  0  0  0  0  0  0
  130.9176  133.4184  158.4636 C   0  0  0  0  0  0  0  0  0  0  0  0
  131.3966  132.2291  157.9289 N   0  0  0  0  0  0  0  0  0  0  0  0
  131.8910  131.1881  158.8420 C   0  0  0  0  0  0  0  0  0  0  0  0
  130.8993  131.0835  160.0095 C   0  0  0  0  0  0  0  0  0  0  0  0
  130.8568  132.4343  160.7314 C   0  0  0  0  0  0  0  0  0  0  0  0
  128.8280  135.1848  159.5454 C   0  0  0  0  0  0  0  0  0  0  0  0
  127.6308  134.7595  160.0900 C   0  0  0  0  0  0  0  0  0  0  0  0
  126.4390  135.0547  159.4548 C   0  0  0  0  0  0  0  0  0  0  0  0
  126.4450  135.7676  158.2704 C   0  0  0  0  0  0  0  0  0  0  0  0
  127.6427  136.1889  157.7235 C   0  0  0  0  0  0  0  0  0  0  0  0
  128.8342  135.8971  158.3606 C   0  0  0  0  0  0  0  0  0  0  0  0
  130.5930  137.2112  160.4384 C   0  0  0  0  0  0  0  0  0  0  0  0
  131.6050  138.3152  160.1236 C   0  0  0  0  0  0  0  0  0  0  0  0
  134.6766  138.6466  163.4589 H   0  0  0  0  0  0  0  0  0  0  0  0
  133.9388  140.2558  163.6444 H   0  0  0  0  0  0  0  0  0  0  0  0
  132.9691  138.8980  163.0241 H   0  0  0  0  0  0  0  0  0  0  0  0
  136.3942  141.8106  159.9436 H   0  0  0  0  0  0  0  0  0  0  0  0
  135.4124  140.6065  158.0348 H   0  0  0  0  0  0  0  0  0  0  0  0
  133.7665  138.8184  158.4193 H   0  0  0  0  0  0  0  0  0  0  0  0
  134.3344  136.4816  160.8323 H   0  0  0  0  0  0  0  0  0  0  0  0
  133.5751  136.7399  159.2427 H   0  0  0  0  0  0  0  0  0  0  0  0
  132.7462  134.6511  160.2802 H   0  0  0  0  0  0  0  0  0  0  0  0
  132.2075  135.5681  161.7075 H   0  0  0  0  0  0  0  0  0  0  0  0
  130.7582  134.2620  157.8082 H   0  0  0  0  0  0  0  0  0  0  0  0
  131.4044  132.0877  156.9693 H   0  0  0  0  0  0  0  0  0  0  0  0
  131.9474  130.2338  158.3185 H   0  0  0  0  0  0  0  0  0  0  0  0
  132.8764  131.4636  159.2176 H   0  0  0  0  0  0  0  0  0  0  0  0
  129.9085  130.8375  159.6275 H   0  0  0  0  0  0  0  0  0  0  0  0
  131.2282  130.3075  160.7007 H   0  0  0  0  0  0  0  0  0  0  0  0
  131.7946  132.5928  161.2637 H   0  0  0  0  0  0  0  0  0  0  0  0
  130.0345  132.4333  161.4469 H   0  0  0  0  0  0  0  0  0  0  0  0
  127.6263  134.1992  161.0132 H   0  0  0  0  0  0  0  0  0  0  0  0
  125.5034  134.7253  159.8819 H   0  0  0  0  0  0  0  0  0  0  0  0
  125.5142  135.9953  157.7725 H   0  0  0  0  0  0  0  0  0  0  0  0
  127.6474  136.7457  156.7981 H   0  0  0  0  0  0  0  0  0  0  0  0
  129.7698  136.2260  157.9331 H   0  0  0  0  0  0  0  0  0  0  0  0
  130.4369  137.1580  161.5159 H   0  0  0  0  0  0  0  0  0  0  0  0
  129.6471  137.4339  159.9448 H   0  0  0  0  0  0  0  0  0  0  0  0
  131.2307  139.2687  160.4963 H   0  0  0  0  0  0  0  0  0  0  0  0
  131.7511  138.3779  159.0452 H   0  0  0  0  0  0  0  0  0  0  0  0
  1  2  1  0
  1 30  1  0
  1 31  1  0
  1 32  1  0
  2  8  2  0
  2  3  1  0
  3  4  1  0
  3  5  2  0
  5  6  1  0
  5 33  1  0
  6  7  2  0
  6 34  1  0
  7  8  1  0
  7 35  1  0
  8  9  1  0
  9 29  1  0
  9 10  1  0
 10 11  1  0
 10 36  1  0
 10 37  1  0
 11 12  1  0
 11 38  1  0
 11 39  1  0
 12 13  1  0
 12 14  1  0
 12 28  1  0
 14 15  1  1
 14 16  1  0
 14 22  1  0
 16 21  1  0
 16 17  2  0
 17 18  1  0
 17 40  1  0
 18 19  1  0
 18 41  1  0
 19 20  1  0
 19 42  1  0
 19 43  1  0
 20 21  1  0
 20 44  1  0
 20 45  1  0
 21 46  1  0
 21 47  1  0
 22 27  1  0
 22 23  2  0
 23 24  1  0
 23 48  1  0
 24 25  2  0
 24 49  1  0
 25 26  1  0
 25 50  1  0
 26 27  2  0
 26 51  1  0
 27 52  1  0
 28 29  1  0
 28 53  1  0
 28 54  1  0
 29 55  1  0
 29 56  1  0
M  CHG  1  12   1
M  END
>  <DOCK_score>  (1) 
-56.486492

>  <SMILES>  (1) 
Cc1c(Cl)cccc1N1CC[NH+]([C@H](C2=CNCCC2)c2ccccc2)CC1

$$$$
