O=C1CC[C@@H](C[NH2+]Cc2c[nH]nc2-c2ccc(Nc3ccccc3O)o2)CN1
     RDKit          3D

 52 55  0  0  1  0  0  0  0  0999 V2000
  137.2815  140.2517  160.1327 O   0  0  0  0  0  0  0  0  0  0  0  0
  136.2399  139.6593  160.3198 C   0  0  0  0  0  0  0  0  0  0  0  0
  135.9103  139.2260  161.7194 C   0  0  0  0  0  0  0  0  0  0  0  0
  134.4172  138.9064  161.8277 C   0  0  0  0  0  0  0  0  0  0  0  0
  134.0336  137.9844  160.6641 C   0  0  1  0  0  0  0  0  0  0  0  0
  134.7063  137.1272  160.6364 H   0  0  0  0  0  0  0  0  0  0  0  0
  132.5934  137.5011  160.8454 C   0  0  0  0  0  0  0  0  0  0  0  0
  132.3796  136.2880  160.0449 N   0  0  0  0  0  0  0  0  0  0  0  0
  133.0169  135.5675  160.3493 H   0  0  0  0  0  0  0  0  0  0  0  0
  132.5451  136.4940  159.0711 H   0  0  0  0  0  0  0  0  0  0  0  0
  130.9967  135.8239  160.2191 C   0  0  0  0  0  0  0  0  0  0  0  0
  130.7773  134.5794  159.3980 C   0  0  0  0  0  0  0  0  0  0  0  0
  131.6958  133.9680  158.6197 C   0  0  0  0  0  0  0  0  0  0  0  0
  131.1105  132.8936  158.0471 N   0  0  0  0  0  0  0  0  0  0  0  0
  131.5358  132.2730  157.4349 H   0  0  0  0  0  0  0  0  0  0  0  0
  129.7830  132.8313  158.4896 N   0  0  0  0  0  0  0  0  0  0  0  0
  129.5766  133.8441  159.3083 C   0  0  0  0  0  0  0  0  0  0  0  0
  128.3109  134.1569  160.0034 C   0  0  0  0  0  0  0  0  0  0  0  0
  127.1561  133.4456  159.9130 C   0  0  0  0  0  0  0  0  0  0  0  0
  126.2133  134.0917  160.7365 C   0  0  0  0  0  0  0  0  0  0  0  0
  126.8350  135.1673  161.2815 C   0  0  0  0  0  0  0  0  0  0  0  0
  126.2595  136.0802  162.1576 N   0  0  0  0  0  0  0  0  0  0  0  0
  127.0512  136.7289  163.1117 C   0  0  0  0  0  0  0  0  0  0  0  0
  128.1711  136.0964  163.6332 C   0  0  0  0  0  0  0  0  0  0  0  0
  128.9516  136.7395  164.5749 C   0  0  0  0  0  0  0  0  0  0  0  0
  128.6198  138.0129  164.9999 C   0  0  0  0  0  0  0  0  0  0  0  0
  127.5056  138.6496  164.4847 C   0  0  0  0  0  0  0  0  0  0  0  0
  126.7146  138.0100  163.5447 C   0  0  0  0  0  0  0  0  0  0  0  0
  125.6155  138.6328  163.0415 O   0  0  0  0  0  0  0  0  0  0  0  0
  128.1030  135.1982  160.8362 O   0  0  0  0  0  0  0  0  0  0  0  0
  134.1503  138.7705  159.3575 C   0  0  0  0  0  0  0  0  0  0  0  0
  135.4483  139.4278  159.2719 N   0  0  0  0  0  0  0  0  0  0  0  0
  136.4898  138.3374  161.9693 H   0  0  0  0  0  0  0  0  0  0  0  0
  136.1590  140.0279  162.4147 H   0  0  0  0  0  0  0  0  0  0  0  0
  133.8391  139.8288  161.7710 H   0  0  0  0  0  0  0  0  0  0  0  0
  134.2170  138.4050  162.7746 H   0  0  0  0  0  0  0  0  0  0  0  0
  131.9048  138.2794  160.5166 H   0  0  0  0  0  0  0  0  0  0  0  0
  132.4145  137.2784  161.8974 H   0  0  0  0  0  0  0  0  0  0  0  0
  130.3081  136.6022  159.8901 H   0  0  0  0  0  0  0  0  0  0  0  0
  130.8178  135.6013  161.2709 H   0  0  0  0  0  0  0  0  0  0  0  0
  132.7181  134.2851  158.4761 H   0  0  0  0  0  0  0  0  0  0  0  0
  126.9936  132.5541  159.3255 H   0  0  0  0  0  0  0  0  0  0  0  0
  125.1896  133.7895  160.9008 H   0  0  0  0  0  0  0  0  0  0  0  0
  125.3091  136.2674  162.1076 H   0  0  0  0  0  0  0  0  0  0  0  0
  128.4323  135.1017  163.3034 H   0  0  0  0  0  0  0  0  0  0  0  0
  129.8229  136.2466  164.9798 H   0  0  0  0  0  0  0  0  0  0  0  0
  129.2330  138.5118  165.7357 H   0  0  0  0  0  0  0  0  0  0  0  0
  127.2495  139.6441  164.8190 H   0  0  0  0  0  0  0  0  0  0  0  0
  125.1306  138.1087  162.3894 H   0  0  0  0  0  0  0  0  0  0  0  0
  134.0358  138.0883  158.5152 H   0  0  0  0  0  0  0  0  0  0  0  0
  133.3646  139.5249  159.3195 H   0  0  0  0  0  0  0  0  0  0  0  0
  135.7559  139.7146  158.3978 H   0  0  0  0  0  0  0  0  0  0  0  0
  1  2  2  0
  2 32  1  0
  2  3  1  0
  3  4  1  0
  3 33  1  0
  3 34  1  0
  4  5  1  0
  4 35  1  0
  4 36  1  0
  5  6  1  6
  5  7  1  0
  5 31  1  0
  7  8  1  0
  7 37  1  0
  7 38  1  0
  8  9  1  0
  8 10  1  0
  8 11  1  0
 11 12  1  0
 11 39  1  0
 11 40  1  0
 12 17  1  0
 12 13  2  0
 13 14  1  0
 13 41  1  0
 14 15  1  0
 14 16  1  0
 16 17  2  0
 17 18  1  0
 18 30  1  0
 18 19  2  0
 19 20  1  0
 19 42  1  0
 20 21  2  0
 20 43  1  0
 21 22  1  0
 21 30  1  0
 22 23  1  0
 22 44  1  0
 23 28  1  0
 23 24  2  0
 24 25  1  0
 24 45  1  0
 25 26  2  0
 25 46  1  0
 26 27  1  0
 26 47  1  0
 27 28  2  0
 27 48  1  0
 28 29  1  0
 29 49  1  0
 31 32  1  0
 31 50  1  0
 31 51  1  0
 32 52  1  0
M  CHG  1   8   1
M  END
>  <DOCK_score>  (1) 
-42.924931

>  <SMILES>  (1) 
O=C1CC[C@@H](C[NH2+]Cc2c[nH]nc2-c2ccc(Nc3ccccc3O)o2)CN1

$$$$
