C[C@H](NC(N[C@H]1CCC(=O)NC1)=[NH+]C1CC1)C1CCCC1
     RDKit          3D

 50 52  0  0  1  0  0  0  0  0999 V2000
  131.4726  132.8830  161.5065 C   0  0  0  0  0  0  0  0  0  0  0  0
  131.4881  134.2760  160.8738 C   0  0  2  0  0  0  0  0  0  0  0  0
  130.7748  134.9177  161.3908 H   0  0  0  0  0  0  0  0  0  0  0  0
  131.1184  134.1745  159.4600 N   0  0  0  0  0  0  0  0  0  0  0  0
  129.7990  134.2712  159.0860 C   0  0  0  0  0  0  0  0  0  0  0  0
  128.9280  135.0332  159.8281 N   0  0  0  0  0  0  0  0  0  0  0  0
  127.5099  134.6709  159.8928 C   0  0  1  0  0  0  0  0  0  0  0  0
  127.0825  134.6863  158.8903 H   0  0  0  0  0  0  0  0  0  0  0  0
  127.3644  133.2689  160.4969 C   0  0  0  0  0  0  0  0  0  0  0  0
  125.8984  132.8434  160.3849 C   0  0  0  0  0  0  0  0  0  0  0  0
  125.0076  133.9411  160.8918 C   0  0  0  0  0  0  0  0  0  0  0  0
  123.8622  133.6644  161.1788 O   0  0  0  0  0  0  0  0  0  0  0  0
  125.4088  135.2038  161.0435 N   0  0  0  0  0  0  0  0  0  0  0  0
  126.7660  135.6670  160.7831 C   0  0  0  0  0  0  0  0  0  0  0  0
  129.3737  133.6402  158.0276 N   0  0  0  0  0  0  0  0  0  0  0  0
  128.4427  133.7084  157.7638 H   0  0  0  0  0  0  0  0  0  0  0  0
  130.3016  132.8280  157.2366 C   0  0  0  0  0  0  0  0  0  0  0  0
  129.7029  131.7402  156.3428 C   0  0  0  0  0  0  0  0  0  0  0  0
  130.4533  131.3544  157.6191 C   0  0  0  0  0  0  0  0  0  0  0  0
  132.8916  134.8742  160.9923 C   0  0  0  0  0  0  0  0  0  0  0  0
  133.2666  135.0516  162.4781 C   0  0  0  0  0  0  0  0  0  0  0  0
  134.0670  136.3782  162.5112 C   0  0  0  0  0  0  0  0  0  0  0  0
  133.3137  137.2584  161.4831 C   0  0  0  0  0  0  0  0  0  0  0  0
  132.9218  136.2765  160.3597 C   0  0  0  0  0  0  0  0  0  0  0  0
  132.1860  132.2411  160.9894 H   0  0  0  0  0  0  0  0  0  0  0  0
  131.7478  132.9584  162.5584 H   0  0  0  0  0  0  0  0  0  0  0  0
  130.4730  132.4568  161.4220 H   0  0  0  0  0  0  0  0  0  0  0  0
  131.8044  134.0391  158.7876 H   0  0  0  0  0  0  0  0  0  0  0  0
  129.2523  135.8108  160.3088 H   0  0  0  0  0  0  0  0  0  0  0  0
  127.6618  133.2887  161.5453 H   0  0  0  0  0  0  0  0  0  0  0  0
  127.9933  132.5664  159.9499 H   0  0  0  0  0  0  0  0  0  0  0  0
  125.7365  131.9430  160.9775 H   0  0  0  0  0  0  0  0  0  0  0  0
  125.6601  132.6364  159.3417 H   0  0  0  0  0  0  0  0  0  0  0  0
  124.7565  135.8547  161.3465 H   0  0  0  0  0  0  0  0  0  0  0  0
  126.7268  136.6358  160.2852 H   0  0  0  0  0  0  0  0  0  0  0  0
  127.2994  135.7691  161.7283 H   0  0  0  0  0  0  0  0  0  0  0  0
  131.1883  133.3474  156.8728 H   0  0  0  0  0  0  0  0  0  0  0  0
  128.6187  131.6288  156.3431 H   0  0  0  0  0  0  0  0  0  0  0  0
  130.1956  131.5438  155.3905 H   0  0  0  0  0  0  0  0  0  0  0  0
  131.4394  130.9041  157.5065 H   0  0  0  0  0  0  0  0  0  0  0  0
  129.8626  130.9891  158.4592 H   0  0  0  0  0  0  0  0  0  0  0  0
  133.6161  134.2264  160.4991 H   0  0  0  0  0  0  0  0  0  0  0  0
  132.3689  135.1325  163.0912 H   0  0  0  0  0  0  0  0  0  0  0  0
  133.8874  134.2221  162.8166 H   0  0  0  0  0  0  0  0  0  0  0  0
  135.0980  136.2146  162.1976 H   0  0  0  0  0  0  0  0  0  0  0  0
  134.0332  136.8286  163.5033 H   0  0  0  0  0  0  0  0  0  0  0  0
  133.9692  138.0387  161.0962 H   0  0  0  0  0  0  0  0  0  0  0  0
  132.4236  137.6960  161.9351 H   0  0  0  0  0  0  0  0  0  0  0  0
  133.6617  136.3095  159.5600 H   0  0  0  0  0  0  0  0  0  0  0  0
  131.9371  136.5306  159.9676 H   0  0  0  0  0  0  0  0  0  0  0  0
  1  2  1  0
  1 25  1  0
  1 26  1  0
  1 27  1  0
  2  3  1  1
  2  4  1  0
  2 20  1  0
  4 28  1  0
  5  4  1  0
  5  6  1  0
  5 15  2  0
  6  7  1  0
  6 29  1  0
  7  8  1  6
  7 14  1  0
  7  9  1  0
  9 10  1  0
  9 30  1  0
  9 31  1  0
 10 11  1  0
 10 32  1  0
 10 33  1  0
 11 12  2  0
 11 13  1  0
 13 14  1  0
 13 34  1  0
 14 35  1  0
 14 36  1  0
 15 16  1  0
 15 17  1  0
 17 19  1  0
 17 18  1  0
 17 37  1  0
 18 19  1  0
 18 38  1  0
 18 39  1  0
 19 40  1  0
 19 41  1  0
 20 24  1  0
 20 21  1  0
 20 42  1  0
 21 22  1  0
 21 43  1  0
 21 44  1  0
 22 23  1  0
 22 45  1  0
 22 46  1  0
 23 24  1  0
 23 47  1  0
 23 48  1  0
 24 49  1  0
 24 50  1  0
M  CHG  1  15   1
M  END
>  <DOCK_score>  (1) 
-41.616894

>  <SMILES>  (1) 
C[C@H](NC(N[C@H]1CCC(=O)NC1)=[NH+]C1CC1)C1CCCC1

$$$$
