CCc1ccc(-c2c[nH]c(N[C@H](c3ccccc3O)c3cccc(CC)c3C)[nH+]2)cc1
     RDKit          3D

 61 64  0  0  1  0  0  0  0  0999 V2000
  130.4541  130.3694  150.5637 C   0  0  0  0  0  0  0  0  0  0  0  0
  131.3378  129.7431  151.6444 C   0  0  0  0  0  0  0  0  0  0  0  0
  131.0648  130.4132  152.9663 C   0  0  0  0  0  0  0  0  0  0  0  0
  130.6665  131.7372  152.9987 C   0  0  0  0  0  0  0  0  0  0  0  0
  130.4161  132.3560  154.2065 C   0  0  0  0  0  0  0  0  0  0  0  0
  130.5655  131.6441  155.3954 C   0  0  0  0  0  0  0  0  0  0  0  0
  130.2979  132.3038  156.6967 C   0  0  0  0  0  0  0  0  0  0  0  0
  129.8419  131.6968  157.8203 C   0  0  0  0  0  0  0  0  0  0  0  0
  129.7362  132.6697  158.7842 N   0  0  0  0  0  0  0  0  0  0  0  0
  129.4362  132.5431  159.6979 H   0  0  0  0  0  0  0  0  0  0  0  0
  130.1311  133.8440  158.2210 C   0  0  0  0  0  0  0  0  0  0  0  0
  130.1716  135.0714  158.8600 N   0  0  0  0  0  0  0  0  0  0  0  0
  129.7667  135.1802  160.2637 C   0  0  2  0  0  0  0  0  0  0  0  0
  130.1360  134.3161  160.8163 H   0  0  0  0  0  0  0  0  0  0  0  0
  128.2630  135.2270  160.3507 C   0  0  0  0  0  0  0  0  0  0  0  0
  127.5273  135.7747  159.3174 C   0  0  0  0  0  0  0  0  0  0  0  0
  126.1476  135.8131  159.3943 C   0  0  0  0  0  0  0  0  0  0  0  0
  125.5007  135.3142  160.5101 C   0  0  0  0  0  0  0  0  0  0  0  0
  126.2319  134.7704  161.5482 C   0  0  0  0  0  0  0  0  0  0  0  0
  127.6166  134.7254  161.4709 C   0  0  0  0  0  0  0  0  0  0  0  0
  128.3383  134.1905  162.4906 O   0  0  0  0  0  0  0  0  0  0  0  0
  130.3436  136.4397  160.8569 C   0  0  0  0  0  0  0  0  0  0  0  0
  129.5030  137.4106  161.3688 C   0  0  0  0  0  0  0  0  0  0  0  0
  130.0319  138.5657  161.9132 C   0  0  0  0  0  0  0  0  0  0  0  0
  131.4016  138.7504  161.9454 C   0  0  0  0  0  0  0  0  0  0  0  0
  132.2421  137.7798  161.4334 C   0  0  0  0  0  0  0  0  0  0  0  0
  133.7352  137.9812  161.4684 C   0  0  0  0  0  0  0  0  0  0  0  0
  134.1850  138.6842  160.1860 C   0  0  0  0  0  0  0  0  0  0  0  0
  131.7127  136.6268  160.8841 C   0  0  0  0  0  0  0  0  0  0  0  0
  132.6288  135.5715  160.3201 C   0  0  0  0  0  0  0  0  0  0  0  0
  130.4613  133.6223  156.9722 N   0  0  0  0  0  0  0  0  0  0  0  0
  130.7744  134.2932  156.3455 H   0  0  0  0  0  0  0  0  0  0  0  0
  130.9728  130.3117  155.3572 C   0  0  0  0  0  0  0  0  0  0  0  0
  131.2149  129.7016  154.1432 C   0  0  0  0  0  0  0  0  0  0  0  0
  130.6763  131.4336  150.4844 H   0  0  0  0  0  0  0  0  0  0  0  0
  130.6509  129.8849  149.6074 H   0  0  0  0  0  0  0  0  0  0  0  0
  129.4055  130.2361  150.8295 H   0  0  0  0  0  0  0  0  0  0  0  0
  132.3864  129.8765  151.3786 H   0  0  0  0  0  0  0  0  0  0  0  0
  131.1155  128.6789  151.7236 H   0  0  0  0  0  0  0  0  0  0  0  0
  130.5510  132.2879  152.0768 H   0  0  0  0  0  0  0  0  0  0  0  0
  130.1047  133.3899  154.2304 H   0  0  0  0  0  0  0  0  0  0  0  0
  129.6063  130.6490  157.9351 H   0  0  0  0  0  0  0  0  0  0  0  0
  130.4681  135.8594  158.3784 H   0  0  0  0  0  0  0  0  0  0  0  0
  128.0304  136.1689  158.4468 H   0  0  0  0  0  0  0  0  0  0  0  0
  125.5741  136.2379  158.5838 H   0  0  0  0  0  0  0  0  0  0  0  0
  124.4230  135.3494  160.5699 H   0  0  0  0  0  0  0  0  0  0  0  0
  125.7263  134.3802  162.4191 H   0  0  0  0  0  0  0  0  0  0  0  0
  127.8001  133.8679  163.2264 H   0  0  0  0  0  0  0  0  0  0  0  0
  128.4329  137.2665  161.3435 H   0  0  0  0  0  0  0  0  0  0  0  0
  129.3752  139.3241  162.3131 H   0  0  0  0  0  0  0  0  0  0  0  0
  131.8149  139.6530  162.3706 H   0  0  0  0  0  0  0  0  0  0  0  0
  133.9990  138.5939  162.3303 H   0  0  0  0  0  0  0  0  0  0  0  0
  134.2307  137.0134  161.5451 H   0  0  0  0  0  0  0  0  0  0  0  0
  133.6896  139.6521  160.1093 H   0  0  0  0  0  0  0  0  0  0  0  0
  135.2649  138.8299  160.2113 H   0  0  0  0  0  0  0  0  0  0  0  0
  133.9211  138.0716  159.3240 H   0  0  0  0  0  0  0  0  0  0  0  0
  132.9447  134.9001  161.1185 H   0  0  0  0  0  0  0  0  0  0  0  0
  132.1003  135.0027  159.5551 H   0  0  0  0  0  0  0  0  0  0  0  0
  133.5039  136.0482  159.8787 H   0  0  0  0  0  0  0  0  0  0  0  0
  131.0949  129.7567  156.2756 H   0  0  0  0  0  0  0  0  0  0  0  0
  131.5263  128.6678  154.1122 H   0  0  0  0  0  0  0  0  0  0  0  0
  1  2  1  0
  1 35  1  0
  1 36  1  0
  1 37  1  0
  2  3  1  0
  2 38  1  0
  2 39  1  0
  3 34  2  0
  3  4  1  0
  4  5  2  0
  4 40  1  0
  5  6  1  0
  5 41  1  0
  6  7  1  0
  6 33  2  0
  7 31  1  0
  7  8  2  0
  8  9  1  0
  8 42  1  0
  9 10  1  0
  9 11  1  0
 11 12  1  0
 11 31  2  0
 12 13  1  0
 12 43  1  0
 13 14  1  1
 13 15  1  0
 13 22  1  0
 15 20  1  0
 15 16  2  0
 16 17  1  0
 16 44  1  0
 17 18  2  0
 17 45  1  0
 18 19  1  0
 18 46  1  0
 19 20  2  0
 19 47  1  0
 20 21  1  0
 21 48  1  0
 22 29  1  0
 22 23  2  0
 23 24  1  0
 23 49  1  0
 24 25  2  0
 24 50  1  0
 25 26  1  0
 25 51  1  0
 26 27  1  0
 26 29  2  0
 27 28  1  0
 27 52  1  0
 27 53  1  0
 28 54  1  0
 28 55  1  0
 28 56  1  0
 29 30  1  0
 30 57  1  0
 30 58  1  0
 30 59  1  0
 31 32  1  0
 33 34  1  0
 33 60  1  0
 34 61  1  0
M  CHG  1  31   1
M  END
>  <DOCK_score>  (1) 
-61.913284

>  <SMILES>  (1) 
CCc1ccc(-c2c[nH]c(N[C@H](c3ccccc3O)c3cccc(CC)c3C)[nH+]2)cc1

$$$$
