C[NH2+][C@@H](C(=O)Nc1cccc(O)c1)c1cccc(Nc2cc(O)cc(F)c2)c1
     RDKit          3D

 49 51  0  0  1  0  0  0  0  0999 V2000
  130.7757  132.4655  156.9631 C   0  0  0  0  0  0  0  0  0  0  0  0
  131.4715  132.7015  158.2352 N   0  0  0  0  0  0  0  0  0  0  0  0
  132.3917  133.0724  158.0514 H   0  0  0  0  0  0  0  0  0  0  0  0
  131.5542  131.8318  158.7398 H   0  0  0  0  0  0  0  0  0  0  0  0
  130.7075  133.6641  159.0401 C   0  0  1  0  0  0  0  0  0  0  0  0
  130.6182  134.6037  158.4949 H   0  0  0  0  0  0  0  0  0  0  0  0
  129.3331  133.1100  159.3145 C   0  0  0  0  0  0  0  0  0  0  0  0
  129.1673  131.9112  159.3944 O   0  0  0  0  0  0  0  0  0  0  0  0
  128.2882  133.9468  159.4713 N   0  0  0  0  0  0  0  0  0  0  0  0
  127.0122  133.4325  159.7262 C   0  0  0  0  0  0  0  0  0  0  0  0
  126.6539  132.1844  159.2320 C   0  0  0  0  0  0  0  0  0  0  0  0
  125.3942  131.6768  159.4836 C   0  0  0  0  0  0  0  0  0  0  0  0
  124.4896  132.4052  160.2327 C   0  0  0  0  0  0  0  0  0  0  0  0
  124.8401  133.6548  160.7240 C   0  0  0  0  0  0  0  0  0  0  0  0
  123.9474  134.3727  161.4553 O   0  0  0  0  0  0  0  0  0  0  0  0
  126.1032  134.1679  160.4733 C   0  0  0  0  0  0  0  0  0  0  0  0
  131.4212  133.9063  160.3449 C   0  0  0  0  0  0  0  0  0  0  0  0
  131.1394  133.1151  161.4438 C   0  0  0  0  0  0  0  0  0  0  0  0
  131.7955  133.3307  162.6417 C   0  0  0  0  0  0  0  0  0  0  0  0
  132.7276  134.3445  162.7475 C   0  0  0  0  0  0  0  0  0  0  0  0
  133.0093  135.1445  161.6474 C   0  0  0  0  0  0  0  0  0  0  0  0
  133.9511  136.1712  161.7510 N   0  0  0  0  0  0  0  0  0  0  0  0
  133.5711  137.4944  161.5129 C   0  0  0  0  0  0  0  0  0  0  0  0
  132.2741  137.9058  161.7900 C   0  0  0  0  0  0  0  0  0  0  0  0
  131.8998  139.2188  161.5529 C   0  0  0  0  0  0  0  0  0  0  0  0
  130.6310  139.6232  161.8239 O   0  0  0  0  0  0  0  0  0  0  0  0
  132.8209  140.1207  161.0390 C   0  0  0  0  0  0  0  0  0  0  0  0
  134.1134  139.7102  160.7625 C   0  0  0  0  0  0  0  0  0  0  0  0
  135.0082  140.5900  160.2619 F   0  0  0  0  0  0  0  0  0  0  0  0
  134.4920  138.4013  161.0040 C   0  0  0  0  0  0  0  0  0  0  0  0
  132.3519  134.9216  160.4438 C   0  0  0  0  0  0  0  0  0  0  0  0
  131.3427  131.7514  156.3660 H   0  0  0  0  0  0  0  0  0  0  0  0
  129.7816  132.0648  157.1617 H   0  0  0  0  0  0  0  0  0  0  0  0
  130.6865  133.4051  156.4180 H   0  0  0  0  0  0  0  0  0  0  0  0
  128.4209  134.9056  159.4075 H   0  0  0  0  0  0  0  0  0  0  0  0
  127.3606  131.6111  158.6504 H   0  0  0  0  0  0  0  0  0  0  0  0
  125.1174  130.7066  159.0983 H   0  0  0  0  0  0  0  0  0  0  0  0
  123.5072  132.0035  160.4322 H   0  0  0  0  0  0  0  0  0  0  0  0
  124.2821  135.2296  161.7534 H   0  0  0  0  0  0  0  0  0  0  0  0
  126.3794  135.1382  160.8589 H   0  0  0  0  0  0  0  0  0  0  0  0
  130.4081  132.3242  161.3650 H   0  0  0  0  0  0  0  0  0  0  0  0
  131.5759  132.7086  163.4967 H   0  0  0  0  0  0  0  0  0  0  0  0
  133.2365  134.5154  163.6846 H   0  0  0  0  0  0  0  0  0  0  0  0
  134.8688  135.9654  161.9884 H   0  0  0  0  0  0  0  0  0  0  0  0
  131.5577  137.2031  162.1896 H   0  0  0  0  0  0  0  0  0  0  0  0
  130.0632  138.9256  162.1786 H   0  0  0  0  0  0  0  0  0  0  0  0
  132.5287  141.1439  160.8543 H   0  0  0  0  0  0  0  0  0  0  0  0
  135.5024  138.0838  160.7926 H   0  0  0  0  0  0  0  0  0  0  0  0
  132.5682  135.5419  159.5866 H   0  0  0  0  0  0  0  0  0  0  0  0
  1  2  1  0
  1 32  1  0
  1 33  1  0
  1 34  1  0
  2  3  1  0
  2  4  1  0
  2  5  1  0
  5  6  1  6
  5  7  1  0
  5 17  1  0
  7  8  2  0
  7  9  1  0
  9 10  1  0
  9 35  1  0
 10 16  1  0
 10 11  2  0
 11 12  1  0
 11 36  1  0
 12 13  2  0
 12 37  1  0
 13 14  1  0
 13 38  1  0
 14 15  1  0
 14 16  2  0
 15 39  1  0
 16 40  1  0
 17 31  1  0
 17 18  2  0
 18 19  1  0
 18 41  1  0
 19 20  2  0
 19 42  1  0
 20 21  1  0
 20 43  1  0
 21 22  1  0
 21 31  2  0
 22 23  1  0
 22 44  1  0
 23 30  1  0
 23 24  2  0
 24 25  1  0
 24 45  1  0
 25 26  1  0
 25 27  2  0
 26 46  1  0
 27 28  1  0
 27 47  1  0
 28 29  1  0
 28 30  2  0
 30 48  1  0
 31 49  1  0
M  CHG  1   2   1
M  END
>  <DOCK_score>  (1) 
-41.001045

>  <SMILES>  (1) 
C[NH2+][C@@H](C(=O)Nc1cccc(O)c1)c1cccc(Nc2cc(O)cc(F)c2)c1

$$$$
