Nc1ccc(-c2c[nH]c(Nc3ccc(N)c(C4CC4)c3)[nH+]2)cc1
     RDKit          3D

 43 46  0  0  1  0  0  0  0  0999 V2000
  131.2731  129.1417  151.4827 N   0  0  0  0  0  0  0  0  0  0  0  0
  131.0143  129.8629  152.6507 C   0  0  0  0  0  0  0  0  0  0  0  0
  130.1153  130.9234  152.6266 C   0  0  0  0  0  0  0  0  0  0  0  0
  129.8583  131.6367  153.7785 C   0  0  0  0  0  0  0  0  0  0  0  0
  130.5003  131.2935  154.9673 C   0  0  0  0  0  0  0  0  0  0  0  0
  130.2258  132.0596  156.2077 C   0  0  0  0  0  0  0  0  0  0  0  0
  129.7144  131.5575  157.3590 C   0  0  0  0  0  0  0  0  0  0  0  0
  129.6241  132.6044  158.2450 N   0  0  0  0  0  0  0  0  0  0  0  0
  129.2939  132.5593  159.1560 H   0  0  0  0  0  0  0  0  0  0  0  0
  130.0836  133.7159  157.6079 C   0  0  0  0  0  0  0  0  0  0  0  0
  130.1599  134.9859  158.1551 N   0  0  0  0  0  0  0  0  0  0  0  0
  129.2426  135.3819  159.1367 C   0  0  0  0  0  0  0  0  0  0  0  0
  127.8833  135.3967  158.8514 C   0  0  0  0  0  0  0  0  0  0  0  0
  126.9792  135.7859  159.8192 C   0  0  0  0  0  0  0  0  0  0  0  0
  127.4284  136.1587  161.0795 C   0  0  0  0  0  0  0  0  0  0  0  0
  126.5112  136.5483  162.0625 N   0  0  0  0  0  0  0  0  0  0  0  0
  128.7876  136.1489  161.3631 C   0  0  0  0  0  0  0  0  0  0  0  0
  129.2753  136.5578  162.7291 C   0  0  0  0  0  0  0  0  0  0  0  0
  130.6608  136.0718  163.1593 C   0  0  0  0  0  0  0  0  0  0  0  0
  129.4071  135.4619  163.7896 C   0  0  0  0  0  0  0  0  0  0  0  0
  129.6920  135.7590  160.3951 C   0  0  0  0  0  0  0  0  0  0  0  0
  130.4368  133.3871  156.3889 N   0  0  0  0  0  0  0  0  0  0  0  0
  130.7943  133.9956  155.7236 H   0  0  0  0  0  0  0  0  0  0  0  0
  131.4050  130.2331  154.9876 C   0  0  0  0  0  0  0  0  0  0  0  0
  131.6553  129.5196  153.8344 C   0  0  0  0  0  0  0  0  0  0  0  0
  130.8255  129.3816  150.6554 H   0  0  0  0  0  0  0  0  0  0  0  0
  131.8999  128.4025  151.4979 H   0  0  0  0  0  0  0  0  0  0  0  0
  129.6181  131.1889  151.7054 H   0  0  0  0  0  0  0  0  0  0  0  0
  129.1599  132.4602  153.7597 H   0  0  0  0  0  0  0  0  0  0  0  0
  129.4317  130.5317  157.5439 H   0  0  0  0  0  0  0  0  0  0  0  0
  130.8485  135.6012  157.8584 H   0  0  0  0  0  0  0  0  0  0  0  0
  127.5337  135.1031  157.8726 H   0  0  0  0  0  0  0  0  0  0  0  0
  125.9221  135.7974  159.5973 H   0  0  0  0  0  0  0  0  0  0  0  0
  126.8251  136.8115  162.9417 H   0  0  0  0  0  0  0  0  0  0  0  0
  125.5617  136.5551  161.8642 H   0  0  0  0  0  0  0  0  0  0  0  0
  128.9627  137.5472  163.0635 H   0  0  0  0  0  0  0  0  0  0  0  0
  131.2598  136.7412  163.7766 H   0  0  0  0  0  0  0  0  0  0  0  0
  131.2197  135.4566  162.4541 H   0  0  0  0  0  0  0  0  0  0  0  0
  129.1411  134.4457  163.4989 H   0  0  0  0  0  0  0  0  0  0  0  0
  129.1815  135.7299  164.8218 H   0  0  0  0  0  0  0  0  0  0  0  0
  130.7489  135.7478  160.6168 H   0  0  0  0  0  0  0  0  0  0  0  0
  131.9066  129.9681  155.9066 H   0  0  0  0  0  0  0  0  0  0  0  0
  132.3533  128.6956  153.8505 H   0  0  0  0  0  0  0  0  0  0  0  0
  1  2  1  0
  1 26  1  0
  1 27  1  0
  2 25  2  0
  2  3  1  0
  3  4  2  0
  3 28  1  0
  4  5  1  0
  4 29  1  0
  5  6  1  0
  5 24  2  0
  6 22  1  0
  6  7  2  0
  7  8  1  0
  7 30  1  0
  8  9  1  0
  8 10  1  0
 10 11  1  0
 10 22  2  0
 11 12  1  0
 11 31  1  0
 12 21  1  0
 12 13  2  0
 13 14  1  0
 13 32  1  0
 14 15  2  0
 14 33  1  0
 15 16  1  0
 15 17  1  0
 16 34  1  0
 16 35  1  0
 17 18  1  0
 17 21  2  0
 18 20  1  0
 18 19  1  0
 18 36  1  0
 19 20  1  0
 19 37  1  0
 19 38  1  0
 20 39  1  0
 20 40  1  0
 21 41  1  0
 22 23  1  0
 24 25  1  0
 24 42  1  0
 25 43  1  0
M  CHG  1  22   1
M  END
>  <DOCK_score>  (1) 
-53.36565

>  <SMILES>  (1) 
Nc1ccc(-c2c[nH]c(Nc3ccc(N)c(C4CC4)c3)[nH+]2)cc1

$$$$
