[NH3+][C@@H](C(=O)N(Cc1ccccn1)Cc1ccccn1)c1ccc(NC2CC(F)C2)cc1
     RDKit          3D

 58 61  0  0  1  0  0  0  0  0999 V2000
  132.9160  135.6974  159.6624 N   0  0  0  0  0  0  0  0  0  0  0  0
  133.9223  135.7599  159.6219 H   0  0  0  0  0  0  0  0  0  0  0  0
  132.6357  134.7314  159.5839 H   0  0  0  0  0  0  0  0  0  0  0  0
  132.5153  136.2267  158.9025 H   0  0  0  0  0  0  0  0  0  0  0  0
  132.4427  136.2425  160.9417 C   0  0  1  0  0  0  0  0  0  0  0  0
  132.8756  135.6708  161.7627 H   0  0  0  0  0  0  0  0  0  0  0  0
  132.8614  137.6854  161.0587 C   0  0  0  0  0  0  0  0  0  0  0  0
  132.9818  138.3646  160.0612 O   0  0  0  0  0  0  0  0  0  0  0  0
  133.1021  138.2210  162.2718 N   0  0  0  0  0  0  0  0  0  0  0  0
  133.5092  139.6237  162.3856 C   0  0  0  0  0  0  0  0  0  0  0  0
  132.2854  140.4922  162.5240 C   0  0  0  0  0  0  0  0  0  0  0  0
  131.6760  140.9992  161.3916 C   0  0  0  0  0  0  0  0  0  0  0  0
  130.5508  141.7971  161.5299 C   0  0  0  0  0  0  0  0  0  0  0  0
  130.0785  142.0564  162.8076 C   0  0  0  0  0  0  0  0  0  0  0  0
  130.7438  141.5195  163.8932 C   0  0  0  0  0  0  0  0  0  0  0  0
  131.8086  140.7601  163.7239 N   0  0  0  0  0  0  0  0  0  0  0  0
  132.9566  137.4004  163.4767 C   0  0  0  0  0  0  0  0  0  0  0  0
  134.2700  136.7314  163.7906 C   0  0  0  0  0  0  0  0  0  0  0  0
  134.7351  136.7166  165.0921 C   0  0  0  0  0  0  0  0  0  0  0  0
  135.9445  136.0986  165.3702 C   0  0  0  0  0  0  0  0  0  0  0  0
  136.6439  135.5161  164.3242 C   0  0  0  0  0  0  0  0  0  0  0  0
  136.1159  135.5704  163.0484 C   0  0  0  0  0  0  0  0  0  0  0  0
  134.9595  136.1624  162.8214 N   0  0  0  0  0  0  0  0  0  0  0  0
  130.9398  136.1490  161.0022 C   0  0  0  0  0  0  0  0  0  0  0  0
  130.1695  136.7993  160.0555 C   0  0  0  0  0  0  0  0  0  0  0  0
  128.7922  136.7111  160.1046 C   0  0  0  0  0  0  0  0  0  0  0  0
  128.1803  135.9776  161.1132 C   0  0  0  0  0  0  0  0  0  0  0  0
  126.7873  135.8915  161.1695 N   0  0  0  0  0  0  0  0  0  0  0  0
  126.0912  134.8108  160.4668 C   0  0  2  0  0  0  0  0  0  0  0  0
  124.6935  134.5083  161.0324 C   0  0  0  0  0  0  0  0  0  0  0  0
  125.0163  133.0197  160.8208 C   0  0  2  0  0  0  0  0  0  0  0  0
  124.5671  132.1959  161.8584 F   0  0  0  0  0  0  0  0  0  0  0  0
  126.5002  133.4055  160.9388 C   0  0  0  0  0  0  0  0  0  0  0  0
  128.9568  135.3305  162.0660 C   0  0  0  0  0  0  0  0  0  0  0  0
  130.3339  135.4180  162.0076 C   0  0  0  0  0  0  0  0  0  0  0  0
  134.0624  139.9150  161.4928 H   0  0  0  0  0  0  0  0  0  0  0  0
  134.1440  139.7478  163.2630 H   0  0  0  0  0  0  0  0  0  0  0  0
  132.0716  140.7768  160.4116 H   0  0  0  0  0  0  0  0  0  0  0  0
  130.0537  142.2067  160.6630 H   0  0  0  0  0  0  0  0  0  0  0  0
  129.2043  142.6739  162.9527 H   0  0  0  0  0  0  0  0  0  0  0  0
  130.3850  141.7204  164.8918 H   0  0  0  0  0  0  0  0  0  0  0  0
  132.6619  138.0334  164.3138 H   0  0  0  0  0  0  0  0  0  0  0  0
  132.1928  136.6410  163.3090 H   0  0  0  0  0  0  0  0  0  0  0  0
  134.1638  137.1809  165.8824 H   0  0  0  0  0  0  0  0  0  0  0  0
  136.3328  136.0718  166.3776 H   0  0  0  0  0  0  0  0  0  0  0  0
  137.5890  135.0256  164.5043 H   0  0  0  0  0  0  0  0  0  0  0  0
  136.6543  135.1187  162.2282 H   0  0  0  0  0  0  0  0  0  0  0  0
  130.6458  137.3732  159.2743 H   0  0  0  0  0  0  0  0  0  0  0  0
  128.1913  137.2155  159.3623 H   0  0  0  0  0  0  0  0  0  0  0  0
  126.2809  136.5473  161.6738 H   0  0  0  0  0  0  0  0  0  0  0  0
  126.1090  134.9300  159.3835 H   0  0  0  0  0  0  0  0  0  0  0  0
  124.5771  134.7852  162.0802 H   0  0  0  0  0  0  0  0  0  0  0  0
  123.8804  134.8723  160.4044 H   0  0  0  0  0  0  0  0  0  0  0  0
  124.7387  132.6488  159.8341 H   0  0  0  0  0  0  0  0  0  0  0  0
  127.1455  132.8792  160.2354 H   0  0  0  0  0  0  0  0  0  0  0  0
  126.8778  133.3808  161.9610 H   0  0  0  0  0  0  0  0  0  0  0  0
  128.4843  134.7597  162.8517 H   0  0  0  0  0  0  0  0  0  0  0  0
  130.9382  134.9149  162.7478 H   0  0  0  0  0  0  0  0  0  0  0  0
  1  2  1  0
  1  3  1  0
  1  4  1  0
  1  5  1  0
  5  6  1  1
  5  7  1  0
  5 24  1  0
  7  8  2  0
  7  9  1  0
  9 10  1  0
  9 17  1  0
 10 11  1  0
 10 36  1  0
 10 37  1  0
 11 16  1  0
 11 12  2  0
 12 13  1  0
 12 38  1  0
 13 14  2  0
 13 39  1  0
 14 15  1  0
 14 40  1  0
 15 16  2  0
 15 41  1  0
 17 18  1  0
 17 42  1  0
 17 43  1  0
 18 23  1  0
 18 19  2  0
 19 20  1  0
 19 44  1  0
 20 21  2  0
 20 45  1  0
 21 22  1  0
 21 46  1  0
 22 23  2  0
 22 47  1  0
 24 35  1  0
 24 25  2  0
 25 26  1  0
 25 48  1  0
 26 27  2  0
 26 49  1  0
 27 28  1  0
 27 34  1  0
 28 29  1  0
 28 50  1  0
 29 33  1  0
 29 30  1  0
 29 51  1  6
 30 31  1  0
 30 52  1  0
 30 53  1  0
 31 32  1  0
 31 33  1  0
 31 54  1  6
 33 55  1  0
 33 56  1  0
 34 35  2  0
 34 57  1  0
 35 58  1  0
M  CHG  1   1   1
M  END
>  <DOCK_score>  (1) 
-42.746429

>  <SMILES>  (1) 
[NH3+][C@@H](C(=O)N(Cc1ccccn1)Cc1ccccn1)c1ccc(NC2CC(F)C2)cc1

$$$$
