Brc1cc(CCNC2=C[C@@H]([NH2+]C(Cc3ccccc3)Cc3ccccc3)CCC2)on1
     RDKit          3D

 62 65  0  0  1  0  0  0  0  0999 V2000
  138.9405  136.0737  168.1734 Br  0  0  0  0  0  0  0  0  0  0  0  0
  138.4541  135.8475  166.3600 C   0  0  0  0  0  0  0  0  0  0  0  0
  137.4466  136.5507  165.6584 C   0  0  0  0  0  0  0  0  0  0  0  0
  137.4921  136.0285  164.4098 C   0  0  0  0  0  0  0  0  0  0  0  0
  136.6262  136.4147  163.2385 C   0  0  0  0  0  0  0  0  0  0  0  0
  135.3679  135.5443  163.2256 C   0  0  0  0  0  0  0  0  0  0  0  0
  134.5262  135.9198  162.0869 N   0  0  0  0  0  0  0  0  0  0  0  0
  133.3221  135.2629  161.8669 C   0  0  0  0  0  0  0  0  0  0  0  0
  132.6026  135.6282  160.8414 C   0  0  0  0  0  0  0  0  0  0  0  0
  131.2813  135.0132  160.4830 C   0  0  1  0  0  0  0  0  0  0  0  0
  130.4809  135.6902  160.7815 H   0  0  0  0  0  0  0  0  0  0  0  0
  131.2194  134.7961  159.0316 N   0  0  0  0  0  0  0  0  0  0  0  0
  131.6353  135.5827  158.5557 H   0  0  0  0  0  0  0  0  0  0  0  0
  131.7244  133.9550  158.7955 H   0  0  0  0  0  0  0  0  0  0  0  0
  129.8171  134.6582  158.6164 C   0  0  0  0  0  0  0  0  0  0  0  0
  129.1801  136.0447  158.5030 C   0  0  0  0  0  0  0  0  0  0  0  0
  127.6799  135.9148  158.5666 C   0  0  0  0  0  0  0  0  0  0  0  0
  126.9511  135.7452  157.4043 C   0  0  0  0  0  0  0  0  0  0  0  0
  125.5755  135.6222  157.4628 C   0  0  0  0  0  0  0  0  0  0  0  0
  124.9279  135.6771  158.6828 C   0  0  0  0  0  0  0  0  0  0  0  0
  125.6564  135.8521  159.8446 C   0  0  0  0  0  0  0  0  0  0  0  0
  127.0323  135.9712  159.7865 C   0  0  0  0  0  0  0  0  0  0  0  0
  129.7539  133.9555  157.2588 C   0  0  0  0  0  0  0  0  0  0  0  0
  130.3813  132.5899  157.3704 C   0  0  0  0  0  0  0  0  0  0  0  0
  130.9982  132.0208  156.2720 C   0  0  0  0  0  0  0  0  0  0  0  0
  131.5772  130.7698  156.3754 C   0  0  0  0  0  0  0  0  0  0  0  0
  131.5321  130.0844  157.5750 C   0  0  0  0  0  0  0  0  0  0  0  0
  130.9106  130.6513  158.6720 C   0  0  0  0  0  0  0  0  0  0  0  0
  130.3351  131.9039  158.5696 C   0  0  0  0  0  0  0  0  0  0  0  0
  131.1089  133.6747  161.2040 C   0  0  0  0  0  0  0  0  0  0  0  0
  131.4300  133.8781  162.6900 C   0  0  0  0  0  0  0  0  0  0  0  0
  132.9239  134.1799  162.8264 C   0  0  0  0  0  0  0  0  0  0  0  0
  138.4590  135.1000  164.4213 O   0  0  0  0  0  0  0  0  0  0  0  0
  138.9804  135.0136  165.5089 N   0  0  0  0  0  0  0  0  0  0  0  0
  136.7954  137.3275  166.0311 H   0  0  0  0  0  0  0  0  0  0  0  0
  136.3419  137.4632  163.3271 H   0  0  0  0  0  0  0  0  0  0  0  0
  137.1807  136.2655  162.3121 H   0  0  0  0  0  0  0  0  0  0  0  0
  135.6522  134.4958  163.1372 H   0  0  0  0  0  0  0  0  0  0  0  0
  134.8134  135.6937  164.1521 H   0  0  0  0  0  0  0  0  0  0  0  0
  134.8096  136.6269  161.4865 H   0  0  0  0  0  0  0  0  0  0  0  0
  132.9826  136.4181  160.2105 H   0  0  0  0  0  0  0  0  0  0  0  0
  129.2754  134.0688  159.3562 H   0  0  0  0  0  0  0  0  0  0  0  0
  129.5255  136.6716  159.3251 H   0  0  0  0  0  0  0  0  0  0  0  0
  129.4656  136.4993  157.5545 H   0  0  0  0  0  0  0  0  0  0  0  0
  127.4568  135.7056  156.4508 H   0  0  0  0  0  0  0  0  0  0  0  0
  125.0064  135.4858  156.5551 H   0  0  0  0  0  0  0  0  0  0  0  0
  123.8529  135.5838  158.7284 H   0  0  0  0  0  0  0  0  0  0  0  0
  125.1504  135.8954  160.7979 H   0  0  0  0  0  0  0  0  0  0  0  0
  127.6013  136.1079  160.6941 H   0  0  0  0  0  0  0  0  0  0  0  0
  128.7134  133.8532  156.9507 H   0  0  0  0  0  0  0  0  0  0  0  0
  130.2957  134.5449  156.5190 H   0  0  0  0  0  0  0  0  0  0  0  0
  131.0305  132.5548  155.3338 H   0  0  0  0  0  0  0  0  0  0  0  0
  132.0624  130.3269  155.5182 H   0  0  0  0  0  0  0  0  0  0  0  0
  131.9821  129.1059  157.6551 H   0  0  0  0  0  0  0  0  0  0  0  0
  130.8752  130.1156  159.6091 H   0  0  0  0  0  0  0  0  0  0  0  0
  129.8495  132.3467  159.4267 H   0  0  0  0  0  0  0  0  0  0  0  0
  131.7919  132.9391  160.7792 H   0  0  0  0  0  0  0  0  0  0  0  0
  130.0806  133.3298  161.0954 H   0  0  0  0  0  0  0  0  0  0  0  0
  131.1872  132.9717  163.2447 H   0  0  0  0  0  0  0  0  0  0  0  0
  130.8502  134.7153  163.0787 H   0  0  0  0  0  0  0  0  0  0  0  0
  133.4959  133.2775  162.6104 H   0  0  0  0  0  0  0  0  0  0  0  0
  133.1355  134.5040  163.8454 H   0  0  0  0  0  0  0  0  0  0  0  0
  1  2  1  0
  2 34  2  0
  2  3  1  0
  3  4  2  0
  3 35  1  0
  4  5  1  0
  4 33  1  0
  5  6  1  0
  5 36  1  0
  5 37  1  0
  6  7  1  0
  6 38  1  0
  6 39  1  0
  7  8  1  0
  7 40  1  0
  8 32  1  0
  8  9  2  0
  9 10  1  0
  9 41  1  0
 10 11  1  1
 10 12  1  0
 10 30  1  0
 12 13  1  0
 12 14  1  0
 12 15  1  0
 15 16  1  0
 15 23  1  0
 15 42  1  0
 16 17  1  0
 16 43  1  0
 16 44  1  0
 17 22  1  0
 17 18  2  0
 18 19  1  0
 18 45  1  0
 19 20  2  0
 19 46  1  0
 20 21  1  0
 20 47  1  0
 21 22  2  0
 21 48  1  0
 22 49  1  0
 23 24  1  0
 23 50  1  0
 23 51  1  0
 24 29  1  0
 24 25  2  0
 25 26  1  0
 25 52  1  0
 26 27  2  0
 26 53  1  0
 27 28  1  0
 27 54  1  0
 28 29  2  0
 28 55  1  0
 29 56  1  0
 30 31  1  0
 30 57  1  0
 30 58  1  0
 31 32  1  0
 31 59  1  0
 31 60  1  0
 32 61  1  0
 32 62  1  0
 33 34  1  0
M  CHG  1  12   1
M  END
>  <DOCK_score>  (1) 
-58.585884

>  <SMILES>  (1) 
Brc1cc(CCNC2=C[C@@H]([NH2+]C(Cc3ccccc3)Cc3ccccc3)CCC2)on1

$$$$
