O=C(C[NH+]1CCCCCC1)N[C@H]1[C@@H]2CC3C(CC=C[C@H]3CNC(=O)N3CC4CC=CCC4C3)C[C@@H]21
     RDKit          3D

 80 85  0  0  1  0  0  0  0  0999 V2000
  131.9677  134.8885  161.5997 O   0  0  0  0  0  0  0  0  0  0  0  0
  132.1200  135.3064  160.4715 C   0  0  0  0  0  0  0  0  0  0  0  0
  133.4015  136.0028  160.0924 C   0  0  0  0  0  0  0  0  0  0  0  0
  133.1029  137.3718  159.6513 N   0  0  0  0  0  0  0  0  0  0  0  0
  132.4878  137.3250  158.8528 H   0  0  0  0  0  0  0  0  0  0  0  0
  134.3655  138.0201  159.2372 C   0  0  0  0  0  0  0  0  0  0  0  0
  134.2563  139.5171  159.1424 C   0  0  0  0  0  0  0  0  0  0  0  0
  134.7325  140.1199  160.4820 C   0  0  0  0  0  0  0  0  0  0  0  0
  133.7152  140.0227  161.5211 C   0  0  0  0  0  0  0  0  0  0  0  0
  133.3328  138.5580  161.8266 C   0  0  0  0  0  0  0  0  0  0  0  0
  132.4027  138.0781  160.7456 C   0  0  0  0  0  0  0  0  0  0  0  0
  131.1430  135.1478  159.5565 N   0  0  0  0  0  0  0  0  0  0  0  0
  129.8972  134.4709  159.9250 C   0  0  1  0  0  0  0  0  0  0  0  0
  129.5967  134.5731  160.9677 H   0  0  0  0  0  0  0  0  0  0  0  0
  128.7955  134.4074  158.8790 C   0  0  2  0  0  0  0  0  0  0  0  0
  129.0361  134.8476  157.9112 H   0  0  0  0  0  0  0  0  0  0  0  0
  127.3394  134.5137  159.2709 C   0  0  0  0  0  0  0  0  0  0  0  0
  126.9699  133.5723  160.4272 C   0  0  2  0  0  0  0  0  0  0  0  0
  127.4061  132.1441  160.0756 C   0  0  2  0  0  0  0  0  0  0  0  0
  126.9471  131.1809  161.1805 C   0  0  0  0  0  0  0  0  0  0  0  0
  125.5320  131.4184  161.5889 C   0  0  0  0  0  0  0  0  0  0  0  0
  124.8775  132.4970  161.3146 C   0  0  0  0  0  0  0  0  0  0  0  0
  125.4382  133.6317  160.5246 C   0  0  1  0  0  0  0  0  0  0  0  0
  125.0189  133.6031  159.5189 H   0  0  0  0  0  0  0  0  0  0  0  0
  125.0346  134.9478  161.1921 C   0  0  0  0  0  0  0  0  0  0  0  0
  125.6190  135.0142  162.5339 N   0  0  0  0  0  0  0  0  0  0  0  0
  126.4657  136.0135  162.8515 C   0  0  0  0  0  0  0  0  0  0  0  0
  126.7447  136.8600  162.0244 O   0  0  0  0  0  0  0  0  0  0  0  0
  127.0075  136.0715  164.0841 N   0  0  0  0  0  0  0  0  0  0  0  0
  126.7528  135.1143  165.1898 C   0  0  0  0  0  0  0  0  0  0  0  0
  127.0586  135.9241  166.4524 C   0  0  1  0  0  0  0  0  0  0  0  0
  127.4663  135.1292  167.6730 C   0  0  0  0  0  0  0  0  0  0  0  0
  128.1040  136.0775  168.6620 C   0  0  0  0  0  0  0  0  0  0  0  0
  128.5559  137.2559  168.3600 C   0  0  0  0  0  0  0  0  0  0  0  0
  128.5293  137.8479  166.9694 C   0  0  0  0  0  0  0  0  0  0  0  0
  128.3284  136.7041  165.9906 C   0  0  2  0  0  0  0  0  0  0  0  0
  127.9522  137.1040  164.5663 C   0  0  0  0  0  0  0  0  0  0  0  0
  128.9402  132.0668  160.0829 C   0  0  0  0  0  0  0  0  0  0  0  0
  129.5716  133.1446  159.2160 C   0  0  2  0  0  0  0  0  0  0  0  0
  130.2868  132.7842  158.4767 H   0  0  0  0  0  0  0  0  0  0  0  0
  134.0660  136.0359  160.9557 H   0  0  0  0  0  0  0  0  0  0  0  0
  133.8855  135.4575  159.2822 H   0  0  0  0  0  0  0  0  0  0  0  0
  135.1423  137.7686  159.9592 H   0  0  0  0  0  0  0  0  0  0  0  0
  134.6568  137.6298  158.2620 H   0  0  0  0  0  0  0  0  0  0  0  0
  133.2196  139.7998  158.9600 H   0  0  0  0  0  0  0  0  0  0  0  0
  134.8852  139.8828  158.3307 H   0  0  0  0  0  0  0  0  0  0  0  0
  134.9826  141.1698  160.3287 H   0  0  0  0  0  0  0  0  0  0  0  0
  135.6262  139.5896  160.8112 H   0  0  0  0  0  0  0  0  0  0  0  0
  132.8246  140.5605  161.1957 H   0  0  0  0  0  0  0  0  0  0  0  0
  134.0938  140.4870  162.4317 H   0  0  0  0  0  0  0  0  0  0  0  0
  132.8322  138.5029  162.7933 H   0  0  0  0  0  0  0  0  0  0  0  0
  134.2301  137.9393  161.8410 H   0  0  0  0  0  0  0  0  0  0  0  0
  131.8768  138.9368  160.3287 H   0  0  0  0  0  0  0  0  0  0  0  0
  131.6707  137.4020  161.1873 H   0  0  0  0  0  0  0  0  0  0  0  0
  131.2648  135.4821  158.6541 H   0  0  0  0  0  0  0  0  0  0  0  0
  126.7229  134.2686  158.4062 H   0  0  0  0  0  0  0  0  0  0  0  0
  127.1294  135.5401  159.5714 H   0  0  0  0  0  0  0  0  0  0  0  0
  127.4286  133.9061  161.3578 H   0  0  0  0  0  0  0  0  0  0  0  0
  127.0096  131.8490  159.1041 H   0  0  0  0  0  0  0  0  0  0  0  0
  127.0432  130.1573  160.8189 H   0  0  0  0  0  0  0  0  0  0  0  0
  127.5906  131.3095  162.0507 H   0  0  0  0  0  0  0  0  0  0  0  0
  125.0267  130.6441  162.1472 H   0  0  0  0  0  0  0  0  0  0  0  0
  123.8638  132.5816  161.6777 H   0  0  0  0  0  0  0  0  0  0  0  0
  123.9483  134.9996  161.2660 H   0  0  0  0  0  0  0  0  0  0  0  0
  125.3985  135.7845  160.5956 H   0  0  0  0  0  0  0  0  0  0  0  0
  125.3964  134.3389  163.1937 H   0  0  0  0  0  0  0  0  0  0  0  0
  125.7120  134.7907  165.1842 H   0  0  0  0  0  0  0  0  0  0  0  0
  127.4220  134.2571  165.1161 H   0  0  0  0  0  0  0  0  0  0  0  0
  126.2430  136.6027  166.7022 H   0  0  0  0  0  0  0  0  0  0  0  0
  128.1854  134.3662  167.3751 H   0  0  0  0  0  0  0  0  0  0  0  0
  126.5912  134.6594  168.1220 H   0  0  0  0  0  0  0  0  0  0  0  0
  128.1898  135.7525  169.6884 H   0  0  0  0  0  0  0  0  0  0  0  0
  128.9785  137.8532  169.1546 H   0  0  0  0  0  0  0  0  0  0  0  0
  129.4743  138.3503  166.7627 H   0  0  0  0  0  0  0  0  0  0  0  0
  127.7057  138.5568  166.8845 H   0  0  0  0  0  0  0  0  0  0  0  0
  129.1998  136.0495  165.9856 H   0  0  0  0  0  0  0  0  0  0  0  0
  128.8407  137.1231  163.9351 H   0  0  0  0  0  0  0  0  0  0  0  0
  127.4711  138.0821  164.5652 H   0  0  0  0  0  0  0  0  0  0  0  0
  129.2473  131.0891  159.7117 H   0  0  0  0  0  0  0  0  0  0  0  0
  129.2946  132.1837  161.1071 H   0  0  0  0  0  0  0  0  0  0  0  0
  1  2  2  0
  2  3  1  0
  2 12  1  0
  3  4  1  0
  3 41  1  0
  3 42  1  0
  4  5  1  0
  4 11  1  0
  4  6  1  0
  6  7  1  0
  6 43  1  0
  6 44  1  0
  7  8  1  0
  7 45  1  0
  7 46  1  0
  8  9  1  0
  8 47  1  0
  8 48  1  0
  9 10  1  0
  9 49  1  0
  9 50  1  0
 10 11  1  0
 10 51  1  0
 10 52  1  0
 11 53  1  0
 11 54  1  0
 12 13  1  0
 12 55  1  0
 13 14  1  1
 13 39  1  0
 13 15  1  0
 15 16  1  6
 15 39  1  0
 15 17  1  0
 17 18  1  0
 17 56  1  0
 17 57  1  0
 18 23  1  0
 18 19  1  0
 18 58  1  1
 19 20  1  0
 19 38  1  0
 19 59  1  6
 20 21  1  0
 20 60  1  0
 20 61  1  0
 21 22  2  0
 21 62  1  0
 22 23  1  0
 22 63  1  0
 23 24  1  6
 23 25  1  0
 25 26  1  0
 25 64  1  0
 25 65  1  0
 26 27  1  0
 26 66  1  0
 27 28  2  0
 27 29  1  0
 29 37  1  0
 29 30  1  0
 30 31  1  0
 30 67  1  0
 30 68  1  0
 31 36  1  0
 31 32  1  0
 31 69  1  1
 32 33  1  0
 32 70  1  0
 32 71  1  0
 33 34  2  0
 33 72  1  0
 34 35  1  0
 34 73  1  0
 35 36  1  0
 35 74  1  0
 35 75  1  0
 36 37  1  0
 36 76  1  6
 37 77  1  0
 37 78  1  0
 38 39  1  0
 38 79  1  0
 38 80  1  0
 39 40  1  6
M  CHG  1   4   1
M  END
>  <DOCK_score>  (1) 
-48.51474

>  <SMILES>  (1) 
O=C(C[NH+]1CCCCCC1)N[C@H]1[C@@H]2CC3C(CC=C[C@H]3CNC(=O)N3CC4CC=CCC4C3)C[C@@H]21

$$$$
