Cc1ccc(-c2ccc(-c3n[nH]cc3C[NH2+]Cc3cnc[nH]3)cc2)cc1
     RDKit          3D

 48 51  0  0  0  0  0  0  0  0999 V2000
  131.6724  129.4011  153.1657 C   0  0  0  0  0  0  0  0  0  0  0  0
  131.1096  130.2900  154.2448 C   0  0  0  0  0  0  0  0  0  0  0  0
  130.0566  131.1398  153.9579 C   0  0  0  0  0  0  0  0  0  0  0  0
  129.5334  131.9519  154.9435 C   0  0  0  0  0  0  0  0  0  0  0  0
  130.0717  131.9184  156.2287 C   0  0  0  0  0  0  0  0  0  0  0  0
  129.5143  132.7891  157.2922 C   0  0  0  0  0  0  0  0  0  0  0  0
  129.5522  132.3753  158.6233 C   0  0  0  0  0  0  0  0  0  0  0  0
  129.0388  133.1861  159.6115 C   0  0  0  0  0  0  0  0  0  0  0  0
  128.4716  134.4159  159.2796 C   0  0  0  0  0  0  0  0  0  0  0  0
  127.9132  135.2862  160.3432 C   0  0  0  0  0  0  0  0  0  0  0  0
  126.6641  135.6920  160.4358 N   0  0  0  0  0  0  0  0  0  0  0  0
  126.5504  136.4936  161.5788 N   0  0  0  0  0  0  0  0  0  0  0  0
  125.7411  136.9271  161.8917 H   0  0  0  0  0  0  0  0  0  0  0  0
  127.7632  136.5583  162.1694 C   0  0  0  0  0  0  0  0  0  0  0  0
  128.6242  135.8197  161.4361 C   0  0  0  0  0  0  0  0  0  0  0  0
  130.0865  135.6077  161.7322 C   0  0  0  0  0  0  0  0  0  0  0  0
  130.8763  136.6589  161.0768 N   0  0  0  0  0  0  0  0  0  0  0  0
  130.7259  136.6203  160.0799 H   0  0  0  0  0  0  0  0  0  0  0  0
  130.5900  137.5613  161.4254 H   0  0  0  0  0  0  0  0  0  0  0  0
  132.3017  136.4521  161.3654 C   0  0  0  0  0  0  0  0  0  0  0  0
  133.1119  137.5304  160.6932 C   0  0  0  0  0  0  0  0  0  0  0  0
  133.4492  138.7249  161.2159 C   0  0  0  0  0  0  0  0  0  0  0  0
  134.1723  139.3886  160.3018 N   0  0  0  0  0  0  0  0  0  0  0  0
  134.2885  138.6543  159.2292 C   0  0  0  0  0  0  0  0  0  0  0  0
  133.6412  137.4865  159.4315 N   0  0  0  0  0  0  0  0  0  0  0  0
  133.5654  136.7536  158.8008 H   0  0  0  0  0  0  0  0  0  0  0  0
  128.4289  134.8274  157.9481 C   0  0  0  0  0  0  0  0  0  0  0  0
  128.9471  134.0190  156.9604 C   0  0  0  0  0  0  0  0  0  0  0  0
  131.1362  131.0640  156.5108 C   0  0  0  0  0  0  0  0  0  0  0  0
  131.6513  130.2563  155.5172 C   0  0  0  0  0  0  0  0  0  0  0  0
  132.4743  129.9246  152.6453 H   0  0  0  0  0  0  0  0  0  0  0  0
  132.0652  128.4889  153.6147 H   0  0  0  0  0  0  0  0  0  0  0  0
  130.8845  129.1470  152.4567 H   0  0  0  0  0  0  0  0  0  0  0  0
  129.6402  131.1647  152.9617 H   0  0  0  0  0  0  0  0  0  0  0  0
  128.7089  132.6122  154.7193 H   0  0  0  0  0  0  0  0  0  0  0  0
  129.9875  131.4207  158.8798 H   0  0  0  0  0  0  0  0  0  0  0  0
  129.0719  132.8673  160.6429 H   0  0  0  0  0  0  0  0  0  0  0  0
  128.0016  137.1009  163.0723 H   0  0  0  0  0  0  0  0  0  0  0  0
  130.2490  135.6494  162.8092 H   0  0  0  0  0  0  0  0  0  0  0  0
  130.3958  134.6328  161.3555 H   0  0  0  0  0  0  0  0  0  0  0  0
  132.4642  136.4937  162.4425 H   0  0  0  0  0  0  0  0  0  0  0  0
  132.6110  135.4771  160.9887 H   0  0  0  0  0  0  0  0  0  0  0  0
  133.1860  139.0841  162.1998 H   0  0  0  0  0  0  0  0  0  0  0  0
  134.8150  138.9343  158.3287 H   0  0  0  0  0  0  0  0  0  0  0  0
  127.9893  135.7798  157.6910 H   0  0  0  0  0  0  0  0  0  0  0  0
  128.9137  134.3376  155.9290 H   0  0  0  0  0  0  0  0  0  0  0  0
  131.5570  131.0336  157.5051 H   0  0  0  0  0  0  0  0  0  0  0  0
  132.4760  129.5939  155.7346 H   0  0  0  0  0  0  0  0  0  0  0  0
  1  2  1  0
  1 31  1  0
  1 32  1  0
  1 33  1  0
  2 30  2  0
  2  3  1  0
  3  4  2  0
  3 34  1  0
  4  5  1  0
  4 35  1  0
  5  6  1  0
  5 29  2  0
  6 28  1  0
  6  7  2  0
  7  8  1  0
  7 36  1  0
  8  9  2  0
  8 37  1  0
  9 10  1  0
  9 27  1  0
 10 15  1  0
 10 11  2  0
 11 12  1  0
 12 13  1  0
 12 14  1  0
 14 15  2  0
 14 38  1  0
 15 16  1  0
 16 17  1  0
 16 39  1  0
 16 40  1  0
 17 18  1  0
 17 19  1  0
 17 20  1  0
 20 21  1  0
 20 41  1  0
 20 42  1  0
 21 25  1  0
 21 22  2  0
 22 23  1  0
 22 43  1  0
 23 24  2  0
 24 25  1  0
 24 44  1  0
 25 26  1  0
 27 28  2  0
 27 45  1  0
 28 46  1  0
 29 30  1  0
 29 47  1  0
 30 48  1  0
M  CHG  1  17   1
M  END
>  <DOCK_score>  (1) 
-46.227356

>  <SMILES>  (1) 
Cc1ccc(-c2ccc(-c3n[nH]cc3C[NH2+]Cc3cnc[nH]3)cc2)cc1

$$$$
