CCc1ccc(-c2c[nH]c(N[C@@H](SCc3ccccc3CCl)c3ccccc3)[nH+]2)cc1
     RDKit          3D

 58 61  0  0  1  0  0  0  0  0999 V2000
  130.3468  128.3845  151.9504 C   0  0  0  0  0  0  0  0  0  0  0  0
  131.4386  129.4329  152.1723 C   0  0  0  0  0  0  0  0  0  0  0  0
  131.0943  130.2694  153.3777 C   0  0  0  0  0  0  0  0  0  0  0  0
  131.5322  129.8841  154.6315 C   0  0  0  0  0  0  0  0  0  0  0  0
  131.2240  130.6488  155.7382 C   0  0  0  0  0  0  0  0  0  0  0  0
  130.4609  131.8059  155.5919 C   0  0  0  0  0  0  0  0  0  0  0  0
  130.1222  132.6292  156.7783 C   0  0  0  0  0  0  0  0  0  0  0  0
  129.4264  132.2137  157.8657 C   0  0  0  0  0  0  0  0  0  0  0  0
  129.3423  133.2870  158.7190 N   0  0  0  0  0  0  0  0  0  0  0  0
  128.9023  133.3005  159.5834 H   0  0  0  0  0  0  0  0  0  0  0  0
  129.9896  134.3278  158.1276 C   0  0  0  0  0  0  0  0  0  0  0  0
  130.1330  135.5967  158.6623 N   0  0  0  0  0  0  0  0  0  0  0  0
  129.5606  135.9077  159.9745 C   0  0  1  0  0  0  0  0  0  0  0  0
  130.0007  135.2535  160.7272 H   0  0  0  0  0  0  0  0  0  0  0  0
  129.9147  137.6365  160.3943 S   0  0  0  0  0  0  0  0  0  0  0  0
  129.1398  137.8277  162.0233 C   0  0  0  0  0  0  0  0  0  0  0  0
  129.7391  139.0174  162.7281 C   0  0  0  0  0  0  0  0  0  0  0  0
  129.1730  140.2693  162.5744 C   0  0  0  0  0  0  0  0  0  0  0  0
  129.7226  141.3604  163.2207 C   0  0  0  0  0  0  0  0  0  0  0  0
  130.8386  141.2000  164.0208 C   0  0  0  0  0  0  0  0  0  0  0  0
  131.4037  139.9481  164.1757 C   0  0  0  0  0  0  0  0  0  0  0  0
  130.8513  138.8559  163.5326 C   0  0  0  0  0  0  0  0  0  0  0  0
  131.4647  137.4903  163.7051 C   0  0  0  0  0  0  0  0  0  0  0  0
  130.7003  136.6614  165.1120 Cl  0  0  0  0  0  0  0  0  0  0  0  0
  128.0691  135.6957  159.9348 C   0  0  0  0  0  0  0  0  0  0  0  0
  127.3953  135.3085  161.0781 C   0  0  0  0  0  0  0  0  0  0  0  0
  126.0266  135.1184  161.0428 C   0  0  0  0  0  0  0  0  0  0  0  0
  125.3329  135.3063  159.8620 C   0  0  0  0  0  0  0  0  0  0  0  0
  126.0075  135.6884  158.7174 C   0  0  0  0  0  0  0  0  0  0  0  0
  127.3755  135.8829  158.7538 C   0  0  0  0  0  0  0  0  0  0  0  0
  130.4586  133.9294  156.9704 N   0  0  0  0  0  0  0  0  0  0  0  0
  130.9640  134.4773  156.3496 H   0  0  0  0  0  0  0  0  0  0  0  0
  130.0179  132.1868  154.3266 C   0  0  0  0  0  0  0  0  0  0  0  0
  130.3365  131.4173  153.2262 C   0  0  0  0  0  0  0  0  0  0  0  0
  130.5959  127.7794  151.0786 H   0  0  0  0  0  0  0  0  0  0  0  0
  130.2753  127.7434  152.8291 H   0  0  0  0  0  0  0  0  0  0  0  0
  129.3918  128.8832  151.7858 H   0  0  0  0  0  0  0  0  0  0  0  0
  132.3936  128.9346  152.3366 H   0  0  0  0  0  0  0  0  0  0  0  0
  131.5100  130.0745  151.2933 H   0  0  0  0  0  0  0  0  0  0  0  0
  132.1198  128.9849  154.7443 H   0  0  0  0  0  0  0  0  0  0  0  0
  131.5704  130.3492  156.7164 H   0  0  0  0  0  0  0  0  0  0  0  0
  129.0167  131.2280  158.0293 H   0  0  0  0  0  0  0  0  0  0  0  0
  130.6124  136.2799  158.1681 H   0  0  0  0  0  0  0  0  0  0  0  0
  128.0677  137.9806  161.8999 H   0  0  0  0  0  0  0  0  0  0  0  0
  129.3130  136.9294  162.6157 H   0  0  0  0  0  0  0  0  0  0  0  0
  128.3014  140.3947  161.9490 H   0  0  0  0  0  0  0  0  0  0  0  0
  129.2808  142.3385  163.1000 H   0  0  0  0  0  0  0  0  0  0  0  0
  131.2674  142.0525  164.5265 H   0  0  0  0  0  0  0  0  0  0  0  0
  132.2755  139.8228  164.8009 H   0  0  0  0  0  0  0  0  0  0  0  0
  131.3000  136.9013  162.8029 H   0  0  0  0  0  0  0  0  0  0  0  0
  132.5355  137.5926  163.8816 H   0  0  0  0  0  0  0  0  0  0  0  0
  127.9379  135.1580  161.9997 H   0  0  0  0  0  0  0  0  0  0  0  0
  125.4996  134.8203  161.9370 H   0  0  0  0  0  0  0  0  0  0  0  0
  124.2639  135.1552  159.8338 H   0  0  0  0  0  0  0  0  0  0  0  0
  125.4655  135.8353  157.7949 H   0  0  0  0  0  0  0  0  0  0  0  0
  127.9026  136.1812  157.8596 H   0  0  0  0  0  0  0  0  0  0  0  0
  129.4260  133.0823  154.2074 H   0  0  0  0  0  0  0  0  0  0  0  0
  129.9934  131.7112  152.2453 H   0  0  0  0  0  0  0  0  0  0  0  0
  1  2  1  0
  1 35  1  0
  1 36  1  0
  1 37  1  0
  2  3  1  0
  2 38  1  0
  2 39  1  0
  3 34  2  0
  3  4  1  0
  4  5  2  0
  4 40  1  0
  5  6  1  0
  5 41  1  0
  6  7  1  0
  6 33  2  0
  7 31  1  0
  7  8  2  0
  8  9  1  0
  8 42  1  0
  9 10  1  0
  9 11  1  0
 11 12  1  0
 11 31  2  0
 12 13  1  0
 12 43  1  0
 13 14  1  1
 13 15  1  0
 13 25  1  0
 15 16  1  0
 16 17  1  0
 16 44  1  0
 16 45  1  0
 17 22  1  0
 17 18  2  0
 18 19  1  0
 18 46  1  0
 19 20  2  0
 19 47  1  0
 20 21  1  0
 20 48  1  0
 21 22  2  0
 21 49  1  0
 22 23  1  0
 23 24  1  0
 23 50  1  0
 23 51  1  0
 25 30  1  0
 25 26  2  0
 26 27  1  0
 26 52  1  0
 27 28  2  0
 27 53  1  0
 28 29  1  0
 28 54  1  0
 29 30  2  0
 29 55  1  0
 30 56  1  0
 31 32  1  0
 33 34  1  0
 33 57  1  0
 34 58  1  0
M  CHG  1  31   1
M  END
>  <DOCK_score>  (1) 
-60.88855

>  <SMILES>  (1) 
CCc1ccc(-c2c[nH]c(N[C@@H](SCc3ccccc3CCl)c3ccccc3)[nH+]2)cc1

$$$$
