C1=CC[C@H](NC(NC2CC=C(C3CC=CC3)C2)=[NH+]Cc2cnn(-c3ccccc3)c2)CC1
     RDKit          3D

 66 70  0  0  1  0  0  0  0  0999 V2000
  133.4757  139.4772  159.3798 C   0  0  0  0  0  0  0  0  0  0  0  0
  132.2980  139.5175  158.8440 C   0  0  0  0  0  0  0  0  0  0  0  0
  131.1030  138.7885  159.3845 C   0  0  0  0  0  0  0  0  0  0  0  0
  131.5484  137.6937  160.3564 C   0  0  2  0  0  0  0  0  0  0  0  0
  132.0377  136.8891  159.8076 H   0  0  0  0  0  0  0  0  0  0  0  0
  130.3837  137.1653  161.0705 N   0  0  0  0  0  0  0  0  0  0  0  0
  129.6858  136.0994  160.5537 C   0  0  0  0  0  0  0  0  0  0  0  0
  130.0809  135.5295  159.3667 N   0  0  0  0  0  0  0  0  0  0  0  0
  129.3372  134.3937  158.8161 C   0  0  2  0  0  0  0  0  0  0  0  0
  129.5117  133.1317  159.6977 C   0  0  0  0  0  0  0  0  0  0  0  0
  129.5825  131.9843  158.7170 C   0  0  0  0  0  0  0  0  0  0  0  0
  129.8256  132.4134  157.5085 C   0  0  0  0  0  0  0  0  0  0  0  0
  129.9571  131.5246  156.2986 C   0  0  0  0  0  0  0  0  0  0  0  0
  130.6889  130.2093  156.6529 C   0  0  0  0  0  0  0  0  0  0  0  0
  131.5446  129.9083  155.4444 C   0  0  0  0  0  0  0  0  0  0  0  0
  131.6715  130.9617  154.6843 C   0  0  0  0  0  0  0  0  0  0  0  0
  130.9218  132.1409  155.2592 C   0  0  0  0  0  0  0  0  0  0  0  0
  129.9575  133.9184  157.4817 C   0  0  0  0  0  0  0  0  0  0  0  0
  128.6494  135.6292  161.1893 N   0  0  0  0  0  0  0  0  0  0  0  0
  127.9222  135.2195  160.6950 H   0  0  0  0  0  0  0  0  0  0  0  0
  128.5828  135.7197  162.6500 C   0  0  0  0  0  0  0  0  0  0  0  0
  127.9205  137.0148  163.0434 C   0  0  0  0  0  0  0  0  0  0  0  0
  126.7560  137.5482  162.4799 C   0  0  0  0  0  0  0  0  0  0  0  0
  126.4916  138.6804  163.0808 N   0  0  0  0  0  0  0  0  0  0  0  0
  127.4805  138.9047  164.0474 N   0  0  0  0  0  0  0  0  0  0  0  0
  127.5584  140.0091  164.9071 C   0  0  0  0  0  0  0  0  0  0  0  0
  128.5945  140.1031  165.8266 C   0  0  0  0  0  0  0  0  0  0  0  0
  128.6709  141.1948  166.6693 C   0  0  0  0  0  0  0  0  0  0  0  0
  127.7118  142.1887  166.6045 C   0  0  0  0  0  0  0  0  0  0  0  0
  126.6758  142.0952  165.6934 C   0  0  0  0  0  0  0  0  0  0  0  0
  126.5966  141.0084  164.8446 C   0  0  0  0  0  0  0  0  0  0  0  0
  128.3436  137.8645  164.0077 C   0  0  0  0  0  0  0  0  0  0  0  0
  132.5337  138.3071  161.3596 C   0  0  0  0  0  0  0  0  0  0  0  0
  133.8127  138.6875  160.6108 C   0  0  0  0  0  0  0  0  0  0  0  0
  134.2646  140.0474  158.9122 H   0  0  0  0  0  0  0  0  0  0  0  0
  132.1676  140.1126  157.9522 H   0  0  0  0  0  0  0  0  0  0  0  0
  130.5517  138.3368  158.5597 H   0  0  0  0  0  0  0  0  0  0  0  0
  130.4554  139.4932  159.9062 H   0  0  0  0  0  0  0  0  0  0  0  0
  130.1046  137.5674  161.9081 H   0  0  0  0  0  0  0  0  0  0  0  0
  130.8522  135.8792  158.8938 H   0  0  0  0  0  0  0  0  0  0  0  0
  128.2832  134.6419  158.6912 H   0  0  0  0  0  0  0  0  0  0  0  0
  128.6556  133.0115  160.3616 H   0  0  0  0  0  0  0  0  0  0  0  0
  130.4335  133.1945  160.2758 H   0  0  0  0  0  0  0  0  0  0  0  0
  129.4491  130.9456  158.9812 H   0  0  0  0  0  0  0  0  0  0  0  0
  128.9815  131.3232  155.8559 H   0  0  0  0  0  0  0  0  0  0  0  0
  131.3136  130.3482  157.5353 H   0  0  0  0  0  0  0  0  0  0  0  0
  129.9697  129.4072  156.8182 H   0  0  0  0  0  0  0  0  0  0  0  0
  131.9925  128.9477  155.2369 H   0  0  0  0  0  0  0  0  0  0  0  0
  132.2384  130.9873  153.7653 H   0  0  0  0  0  0  0  0  0  0  0  0
  130.3608  132.6522  154.4768 H   0  0  0  0  0  0  0  0  0  0  0  0
  131.6115  132.8319  155.7441 H   0  0  0  0  0  0  0  0  0  0  0  0
  131.0072  134.2067  157.4270 H   0  0  0  0  0  0  0  0  0  0  0  0
  129.4061  134.3329  156.6378 H   0  0  0  0  0  0  0  0  0  0  0  0
  128.0037  134.8825  163.0398 H   0  0  0  0  0  0  0  0  0  0  0  0
  129.5912  135.6872  163.0624 H   0  0  0  0  0  0  0  0  0  0  0  0
  126.1756  137.1025  161.6858 H   0  0  0  0  0  0  0  0  0  0  0  0
  129.3418  139.3254  165.8802 H   0  0  0  0  0  0  0  0  0  0  0  0
  129.4788  141.2704  167.3820 H   0  0  0  0  0  0  0  0  0  0  0  0
  127.7716  143.0395  167.2671 H   0  0  0  0  0  0  0  0  0  0  0  0
  125.9277  142.8727  165.6455 H   0  0  0  0  0  0  0  0  0  0  0  0
  125.7870  140.9359  164.1336 H   0  0  0  0  0  0  0  0  0  0  0  0
  129.2156  137.7361  164.6320 H   0  0  0  0  0  0  0  0  0  0  0  0
  132.0929  139.1974  161.8081 H   0  0  0  0  0  0  0  0  0  0  0  0
  132.7667  137.5787  162.1362 H   0  0  0  0  0  0  0  0  0  0  0  0
  134.4479  139.2877  161.2623 H   0  0  0  0  0  0  0  0  0  0  0  0
  134.3452  137.7815  160.3217 H   0  0  0  0  0  0  0  0  0  0  0  0
  1 34  1  0
  1  2  2  0
  1 35  1  0
  2  3  1  0
  2 36  1  0
  3  4  1  0
  3 37  1  0
  3 38  1  0
  4  5  1  6
  4  6  1  0
  4 33  1  0
  6 39  1  0
  7  6  1  0
  7  8  1  0
  7 19  2  0
  8  9  1  0
  8 40  1  0
  9 18  1  0
  9 10  1  0
  9 41  1  6
 10 11  1  0
 10 42  1  0
 10 43  1  0
 11 12  2  0
 11 44  1  0
 12 13  1  0
 12 18  1  0
 13 17  1  0
 13 14  1  0
 13 45  1  0
 14 15  1  0
 14 46  1  0
 14 47  1  0
 15 16  2  0
 15 48  1  0
 16 17  1  0
 16 49  1  0
 17 50  1  0
 17 51  1  0
 18 52  1  0
 18 53  1  0
 19 20  1  0
 19 21  1  0
 21 22  1  0
 21 54  1  0
 21 55  1  0
 22 32  2  0
 22 23  1  0
 23 24  2  0
 23 56  1  0
 24 25  1  0
 25 26  1  0
 25 32  1  0
 26 31  1  0
 26 27  2  0
 27 28  1  0
 27 57  1  0
 28 29  2  0
 28 58  1  0
 29 30  1  0
 29 59  1  0
 30 31  2  0
 30 60  1  0
 31 61  1  0
 32 62  1  0
 33 34  1  0
 33 63  1  0
 33 64  1  0
 34 65  1  0
 34 66  1  0
M  CHG  1  19   1
M  END
>  <DOCK_score>  (1) 
-48.223476

>  <SMILES>  (1) 
C1=CC[C@H](NC(NC2CC=C(C3CC=CC3)C2)=[NH+]Cc2cnn(-c3ccccc3)c2)CC1

$$$$
