Nc1ccc(Nc2[nH]cc(-c3ccncc3)[nH+]2)c(-c2ccncc2)c1
     RDKit          3D

 42 45  0  0  1  0  0  0  0  0999 V2000
  126.7988  137.1959  162.9536 N   0  0  0  0  0  0  0  0  0  0  0  0
  127.4683  136.8569  161.7722 C   0  0  0  0  0  0  0  0  0  0  0  0
  126.7644  136.2971  160.7120 C   0  0  0  0  0  0  0  0  0  0  0  0
  127.4180  135.9603  159.5435 C   0  0  0  0  0  0  0  0  0  0  0  0
  128.7820  136.1845  159.4189 C   0  0  0  0  0  0  0  0  0  0  0  0
  129.4413  135.8485  158.2335 N   0  0  0  0  0  0  0  0  0  0  0  0
  129.4412  134.5368  157.7889 C   0  0  0  0  0  0  0  0  0  0  0  0
  128.8332  133.4888  158.4103 N   0  0  0  0  0  0  0  0  0  0  0  0
  128.3272  133.5264  159.2371 H   0  0  0  0  0  0  0  0  0  0  0  0
  129.0685  132.3702  157.6522 C   0  0  0  0  0  0  0  0  0  0  0  0
  129.8136  132.7642  156.5886 C   0  0  0  0  0  0  0  0  0  0  0  0
  130.3074  131.8907  155.4977 C   0  0  0  0  0  0  0  0  0  0  0  0
  129.9356  132.1208  154.1690 C   0  0  0  0  0  0  0  0  0  0  0  0
  130.4218  131.2865  153.1846 C   0  0  0  0  0  0  0  0  0  0  0  0
  131.2182  130.2776  153.4838 N   0  0  0  0  0  0  0  0  0  0  0  0
  131.5890  130.0230  154.7245 C   0  0  0  0  0  0  0  0  0  0  0  0
  131.1532  130.8105  155.7693 C   0  0  0  0  0  0  0  0  0  0  0  0
  130.0217  134.1005  156.6978 N   0  0  0  0  0  0  0  0  0  0  0  0
  130.5215  134.6453  156.0700 H   0  0  0  0  0  0  0  0  0  0  0  0
  129.4967  136.7429  160.4850 C   0  0  0  0  0  0  0  0  0  0  0  0
  130.9547  136.9797  160.3602 C   0  0  0  0  0  0  0  0  0  0  0  0
  131.8765  135.9953  160.7304 C   0  0  0  0  0  0  0  0  0  0  0  0
  133.2242  136.2570  160.5977 C   0  0  0  0  0  0  0  0  0  0  0  0
  133.6463  137.4182  160.1342 N   0  0  0  0  0  0  0  0  0  0  0  0
  132.8101  138.3712  159.7686 C   0  0  0  0  0  0  0  0  0  0  0  0
  131.4460  138.1930  159.8686 C   0  0  0  0  0  0  0  0  0  0  0  0
  128.8315  137.0807  161.6614 C   0  0  0  0  0  0  0  0  0  0  0  0
  127.2889  137.5868  163.6938 H   0  0  0  0  0  0  0  0  0  0  0  0
  125.8447  137.0397  163.0323 H   0  0  0  0  0  0  0  0  0  0  0  0
  125.7021  136.1254  160.8028 H   0  0  0  0  0  0  0  0  0  0  0  0
  126.8661  135.5257  158.7232 H   0  0  0  0  0  0  0  0  0  0  0  0
  129.8991  136.5339  157.7220 H   0  0  0  0  0  0  0  0  0  0  0  0
  128.7267  131.3674  157.8621 H   0  0  0  0  0  0  0  0  0  0  0  0
  129.2808  132.9419  153.9175 H   0  0  0  0  0  0  0  0  0  0  0  0
  130.1433  131.4582  152.1553 H   0  0  0  0  0  0  0  0  0  0  0  0
  132.2427  129.1867  154.9243 H   0  0  0  0  0  0  0  0  0  0  0  0
  131.4608  130.5965  156.7821 H   0  0  0  0  0  0  0  0  0  0  0  0
  131.5381  135.0445  161.1149 H   0  0  0  0  0  0  0  0  0  0  0  0
  133.9438  135.5031  160.8809 H   0  0  0  0  0  0  0  0  0  0  0  0
  133.1991  139.3050  159.3905 H   0  0  0  0  0  0  0  0  0  0  0  0
  130.7675  138.9789  159.5714 H   0  0  0  0  0  0  0  0  0  0  0  0
  129.3769  137.5163  162.4854 H   0  0  0  0  0  0  0  0  0  0  0  0
  1  2  1  0
  1 28  1  0
  1 29  1  0
  2 27  2  0
  2  3  1  0
  3  4  2  0
  3 30  1  0
  4  5  1  0
  4 31  1  0
  5  6  1  0
  5 20  2  0
  6 32  1  0
  7  6  1  0
  7 18  2  0
  7  8  1  0
  8  9  1  0
  8 10  1  0
 10 11  2  0
 10 33  1  0
 11 12  1  0
 11 18  1  0
 12 17  1  0
 12 13  2  0
 13 14  1  0
 13 34  1  0
 14 15  2  0
 14 35  1  0
 15 16  1  0
 16 17  2  0
 16 36  1  0
 17 37  1  0
 18 19  1  0
 20 21  1  0
 20 27  1  0
 21 26  1  0
 21 22  2  0
 22 23  1  0
 22 38  1  0
 23 24  2  0
 23 39  1  0
 24 25  1  0
 25 26  2  0
 25 40  1  0
 26 41  1  0
 27 42  1  0
M  CHG  1  18   1
M  END
>  <DOCK_score>  (1) 
-47.522186

>  <SMILES>  (1) 
Nc1ccc(Nc2[nH]cc(-c3ccncc3)[nH+]2)c(-c2ccncc2)c1

$$$$
