Cc1ccc(-c2c[nH]c(N[C@@H](c3ccccc3)c3ccnn3C)[nH+]2)cc1
     RDKit          3D

 48 51  0  0  1  0  0  0  0  0999 V2000
  131.1615  129.5035  151.9938 C   0  0  0  0  0  0  0  0  0  0  0  0
  130.9057  130.2354  153.2862 C   0  0  0  0  0  0  0  0  0  0  0  0
  130.0296  131.3050  153.3103 C   0  0  0  0  0  0  0  0  0  0  0  0
  129.7870  131.9755  154.4920 C   0  0  0  0  0  0  0  0  0  0  0  0
  130.4357  131.5797  155.6604 C   0  0  0  0  0  0  0  0  0  0  0  0
  130.1834  132.2998  156.9324 C   0  0  0  0  0  0  0  0  0  0  0  0
  129.6882  131.7569  158.0722 C   0  0  0  0  0  0  0  0  0  0  0  0
  129.6156  132.7697  158.9973 N   0  0  0  0  0  0  0  0  0  0  0  0
  129.2991  132.6917  159.9109 H   0  0  0  0  0  0  0  0  0  0  0  0
  130.0688  133.9029  158.3953 C   0  0  0  0  0  0  0  0  0  0  0  0
  130.1578  135.1508  158.9883 N   0  0  0  0  0  0  0  0  0  0  0  0
  129.7435  135.3307  160.3819 C   0  0  1  0  0  0  0  0  0  0  0  0
  130.0675  134.4728  160.9710 H   0  0  0  0  0  0  0  0  0  0  0  0
  130.3701  136.5849  160.9344 C   0  0  0  0  0  0  0  0  0  0  0  0
  129.7174  137.3102  161.9137 C   0  0  0  0  0  0  0  0  0  0  0  0
  130.2943  138.4584  162.4234 C   0  0  0  0  0  0  0  0  0  0  0  0
  131.5196  138.8859  161.9482 C   0  0  0  0  0  0  0  0  0  0  0  0
  132.1699  138.1638  160.9646 C   0  0  0  0  0  0  0  0  0  0  0  0
  131.5951  137.0133  160.4579 C   0  0  0  0  0  0  0  0  0  0  0  0
  128.2426  135.4478  160.4486 C   0  0  0  0  0  0  0  0  0  0  0  0
  127.4382  135.9543  159.4855 C   0  0  0  0  0  0  0  0  0  0  0  0
  126.1185  135.8776  159.9428 C   0  0  0  0  0  0  0  0  0  0  0  0
  126.1308  135.3512  161.1404 N   0  0  0  0  0  0  0  0  0  0  0  0
  127.4602  135.0713  161.4818 N   0  0  0  0  0  0  0  0  0  0  0  0
  127.9202  134.4757  162.7387 C   0  0  0  0  0  0  0  0  0  0  0  0
  130.4128  133.6170  157.1633 N   0  0  0  0  0  0  0  0  0  0  0  0
  130.7715  134.2468  156.5188 H   0  0  0  0  0  0  0  0  0  0  0  0
  131.3219  130.5043  155.6293 C   0  0  0  0  0  0  0  0  0  0  0  0
  131.5525  129.8378  154.4431 C   0  0  0  0  0  0  0  0  0  0  0  0
  130.4505  128.6832  151.8940 H   0  0  0  0  0  0  0  0  0  0  0  0
  131.0435  130.1911  151.1573 H   0  0  0  0  0  0  0  0  0  0  0  0
  132.1767  129.1051  151.9968 H   0  0  0  0  0  0  0  0  0  0  0  0
  129.5313  131.6138  152.4034 H   0  0  0  0  0  0  0  0  0  0  0  0
  129.0996  132.8081  154.5103 H   0  0  0  0  0  0  0  0  0  0  0  0
  129.4049  130.7258  158.2234 H   0  0  0  0  0  0  0  0  0  0  0  0
  130.4945  135.9060  158.4811 H   0  0  0  0  0  0  0  0  0  0  0  0
  128.7584  136.9780  162.2827 H   0  0  0  0  0  0  0  0  0  0  0  0
  129.7863  139.0225  163.1916 H   0  0  0  0  0  0  0  0  0  0  0  0
  131.9690  139.7849  162.3435 H   0  0  0  0  0  0  0  0  0  0  0  0
  133.1271  138.4981  160.5929 H   0  0  0  0  0  0  0  0  0  0  0  0
  132.1031  136.4489  159.6899 H   0  0  0  0  0  0  0  0  0  0  0  0
  127.7585  136.3465  158.5316 H   0  0  0  0  0  0  0  0  0  0  0  0
  125.2412  136.2008  159.4020 H   0  0  0  0  0  0  0  0  0  0  0  0
  128.1259  135.2653  163.4613 H   0  0  0  0  0  0  0  0  0  0  0  0
  127.1472  133.8154  163.1322 H   0  0  0  0  0  0  0  0  0  0  0  0
  128.8298  133.9028  162.5579 H   0  0  0  0  0  0  0  0  0  0  0  0
  131.8270  130.1933  156.5318 H   0  0  0  0  0  0  0  0  0  0  0  0
  132.2388  129.0042  154.4178 H   0  0  0  0  0  0  0  0  0  0  0  0
  1  2  1  0
  1 30  1  0
  1 31  1  0
  1 32  1  0
  2 29  2  0
  2  3  1  0
  3  4  2  0
  3 33  1  0
  4  5  1  0
  4 34  1  0
  5  6  1  0
  5 28  2  0
  6 26  1  0
  6  7  2  0
  7  8  1  0
  7 35  1  0
  8  9  1  0
  8 10  1  0
 10 11  1  0
 10 26  2  0
 11 12  1  0
 11 36  1  0
 12 13  1  1
 12 14  1  0
 12 20  1  0
 14 19  1  0
 14 15  2  0
 15 16  1  0
 15 37  1  0
 16 17  2  0
 16 38  1  0
 17 18  1  0
 17 39  1  0
 18 19  2  0
 18 40  1  0
 19 41  1  0
 20 24  1  0
 20 21  2  0
 21 22  1  0
 21 42  1  0
 22 23  2  0
 22 43  1  0
 23 24  1  0
 24 25  1  0
 25 44  1  0
 25 45  1  0
 25 46  1  0
 26 27  1  0
 28 29  1  0
 28 47  1  0
 29 48  1  0
M  CHG  1  26   1
M  END
>  <DOCK_score>  (1) 
-54.210648

>  <SMILES>  (1) 
Cc1ccc(-c2c[nH]c(N[C@@H](c3ccccc3)c3ccnn3C)[nH+]2)cc1

$$$$
