O=C1CC[C@H](NC(NC2CCC2)=[NH+]C2CC(F)C2)CN1
     RDKit          3D

 44 46  0  0  1  0  0  0  0  0999 V2000
  123.5041  133.8194  161.4154 O   0  0  0  0  0  0  0  0  0  0  0  0
  124.6778  134.0572  161.2236 C   0  0  0  0  0  0  0  0  0  0  0  0
  125.5420  132.9646  160.6626 C   0  0  0  0  0  0  0  0  0  0  0  0
  127.0177  133.2937  160.9008 C   0  0  0  0  0  0  0  0  0  0  0  0
  127.2718  134.7366  160.4479 C   0  0  2  0  0  0  0  0  0  0  0  0
  126.9101  134.8689  159.4283 H   0  0  0  0  0  0  0  0  0  0  0  0
  128.7075  135.0228  160.5012 N   0  0  0  0  0  0  0  0  0  0  0  0
  129.4974  134.7837  159.4016 C   0  0  0  0  0  0  0  0  0  0  0  0
  128.9399  134.2760  158.2520 N   0  0  0  0  0  0  0  0  0  0  0  0
  129.7815  134.0212  157.0803 C   0  0  0  0  0  0  0  0  0  0  0  0
  129.1874  132.9886  156.1079 C   0  0  0  0  0  0  0  0  0  0  0  0
  130.6141  132.4387  155.9441 C   0  0  0  0  0  0  0  0  0  0  0  0
  130.9103  133.0099  157.3408 C   0  0  0  0  0  0  0  0  0  0  0  0
  130.7748  135.0383  159.4489 N   0  0  0  0  0  0  0  0  0  0  0  0
  131.2484  135.2953  158.6424 H   0  0  0  0  0  0  0  0  0  0  0  0
  131.4954  134.9364  160.7204 C   0  0  2  0  0  0  0  0  0  0  0  0
  132.5739  136.0170  160.9055 C   0  0  0  0  0  0  0  0  0  0  0  0
  133.4562  134.9167  161.5229 C   0  0  1  0  0  0  0  0  0  0  0  0
  133.2906  134.7778  162.9052 F   0  0  0  0  0  0  0  0  0  0  0  0
  132.6381  133.9074  160.7001 C   0  0  0  0  0  0  0  0  0  0  0  0
  126.5247  135.6835  161.3879 C   0  0  0  0  0  0  0  0  0  0  0  0
  125.1320  135.2748  161.5225 N   0  0  0  0  0  0  0  0  0  0  0  0
  125.3597  132.8726  159.5919 H   0  0  0  0  0  0  0  0  0  0  0  0
  125.2975  132.0220  161.1525 H   0  0  0  0  0  0  0  0  0  0  0  0
  127.6433  132.6125  160.3240 H   0  0  0  0  0  0  0  0  0  0  0  0
  127.2490  133.1959  161.9615 H   0  0  0  0  0  0  0  0  0  0  0  0
  129.1017  135.3773  161.3135 H   0  0  0  0  0  0  0  0  0  0  0  0
  127.9891  134.0866  158.2168 H   0  0  0  0  0  0  0  0  0  0  0  0
  130.1190  134.9368  156.5944 H   0  0  0  0  0  0  0  0  0  0  0  0
  128.5008  132.2871  156.5818 H   0  0  0  0  0  0  0  0  0  0  0  0
  128.7819  133.4293  155.1971 H   0  0  0  0  0  0  0  0  0  0  0  0
  131.1789  132.9208  155.1463 H   0  0  0  0  0  0  0  0  0  0  0  0
  130.6600  131.3506  155.8986 H   0  0  0  0  0  0  0  0  0  0  0  0
  131.8958  133.4677  157.4252 H   0  0  0  0  0  0  0  0  0  0  0  0
  130.6946  132.3142  158.1517 H   0  0  0  0  0  0  0  0  0  0  0  0
  130.8296  134.8326  161.5771 H   0  0  0  0  0  0  0  0  0  0  0  0
  132.9617  136.4121  159.9667 H   0  0  0  0  0  0  0  0  0  0  0  0
  132.2920  136.7989  161.6107 H   0  0  0  0  0  0  0  0  0  0  0  0
  134.5029  134.9766  161.2249 H   0  0  0  0  0  0  0  0  0  0  0  0
  132.4080  132.9887  161.2397 H   0  0  0  0  0  0  0  0  0  0  0  0
  133.0436  133.7247  159.7049 H   0  0  0  0  0  0  0  0  0  0  0  0
  127.0010  135.6682  162.3681 H   0  0  0  0  0  0  0  0  0  0  0  0
  126.5658  136.6961  160.9865 H   0  0  0  0  0  0  0  0  0  0  0  0
  124.4958  135.9296  161.8501 H   0  0  0  0  0  0  0  0  0  0  0  0
  1  2  2  0
  2 22  1  0
  2  3  1  0
  3  4  1  0
  3 23  1  0
  3 24  1  0
  4  5  1  0
  4 25  1  0
  4 26  1  0
  5  6  1  6
  5  7  1  0
  5 21  1  0
  7 27  1  0
  8  7  1  0
  8  9  1  0
  8 14  2  0
  9 10  1  0
  9 28  1  0
 10 13  1  0
 10 11  1  0
 10 29  1  0
 11 12  1  0
 11 30  1  0
 11 31  1  0
 12 13  1  0
 12 32  1  0
 12 33  1  0
 13 34  1  0
 13 35  1  0
 14 15  1  0
 14 16  1  0
 16 20  1  0
 16 17  1  0
 16 36  1  1
 17 18  1  0
 17 37  1  0
 17 38  1  0
 18 19  1  0
 18 20  1  0
 18 39  1  1
 20 40  1  0
 20 41  1  0
 21 22  1  0
 21 42  1  0
 21 43  1  0
 22 44  1  0
M  CHG  1  14   1
M  END
>  <DOCK_score>  (1) 
-41.236504

>  <SMILES>  (1) 
O=C1CC[C@H](NC(NC2CCC2)=[NH+]C2CC(F)C2)CN1

$$$$
