Nc1ccc(-c2c[nH]c(N[C@@H](C=Cc3cccc4c3CCC4)c3ccccc3)[nH+]2)cc1
     RDKit          3D

 58 62  0  0  1  0  0  0  0  0999 V2000
  131.7474  129.4392  152.1532 N   0  0  0  0  0  0  0  0  0  0  0  0
  131.3620  130.1378  153.2999 C   0  0  0  0  0  0  0  0  0  0  0  0
  130.5768  131.2787  153.1860 C   0  0  0  0  0  0  0  0  0  0  0  0
  130.1949  131.9700  154.3164 C   0  0  0  0  0  0  0  0  0  0  0  0
  130.5975  131.5237  155.5741 C   0  0  0  0  0  0  0  0  0  0  0  0
  130.1881  132.2657  156.7918 C   0  0  0  0  0  0  0  0  0  0  0  0
  129.4510  131.7715  157.8171 C   0  0  0  0  0  0  0  0  0  0  0  0
  129.3065  132.7888  158.7306 N   0  0  0  0  0  0  0  0  0  0  0  0
  128.8274  132.7411  159.5726 H   0  0  0  0  0  0  0  0  0  0  0  0
  129.9602  133.8746  158.2354 C   0  0  0  0  0  0  0  0  0  0  0  0
  130.0547  135.1099  158.8532 N   0  0  0  0  0  0  0  0  0  0  0  0
  128.9778  135.5741  159.7313 C   0  0  1  0  0  0  0  0  0  0  0  0
  128.8564  134.8746  160.5584 H   0  0  0  0  0  0  0  0  0  0  0  0
  129.3236  136.9372  160.2728 C   0  0  0  0  0  0  0  0  0  0  0  0
  128.8806  137.3084  161.4660 C   0  0  0  0  0  0  0  0  0  0  0  0
  129.2198  138.6454  161.9972 C   0  0  0  0  0  0  0  0  0  0  0  0
  130.4189  139.2575  161.6335 C   0  0  0  0  0  0  0  0  0  0  0  0
  130.7297  140.5055  162.1322 C   0  0  0  0  0  0  0  0  0  0  0  0
  129.8549  141.1472  162.9891 C   0  0  0  0  0  0  0  0  0  0  0  0
  128.6627  140.5480  163.3569 C   0  0  0  0  0  0  0  0  0  0  0  0
  128.3391  139.2977  162.8639 C   0  0  0  0  0  0  0  0  0  0  0  0
  126.9951  138.8629  163.4073 C   0  0  0  0  0  0  0  0  0  0  0  0
  126.7341  139.7810  164.6203 C   0  0  0  0  0  0  0  0  0  0  0  0
  127.5555  141.0386  164.2655 C   0  0  0  0  0  0  0  0  0  0  0  0
  127.6920  135.6555  158.9495 C   0  0  0  0  0  0  0  0  0  0  0  0
  126.4822  135.4493  159.5857 C   0  0  0  0  0  0  0  0  0  0  0  0
  125.3025  135.5285  158.8695 C   0  0  0  0  0  0  0  0  0  0  0  0
  125.3331  135.8048  157.5155 C   0  0  0  0  0  0  0  0  0  0  0  0
  126.5433  136.0059  156.8783 C   0  0  0  0  0  0  0  0  0  0  0  0
  127.7228  135.9312  157.5953 C   0  0  0  0  0  0  0  0  0  0  0  0
  130.4809  133.5599  157.0743 N   0  0  0  0  0  0  0  0  0  0  0  0
  130.9953  134.1565  156.5084 H   0  0  0  0  0  0  0  0  0  0  0  0
  131.3902  130.3824  155.6856 C   0  0  0  0  0  0  0  0  0  0  0  0
  131.7643  129.6907  154.5529 C   0  0  0  0  0  0  0  0  0  0  0  0
  131.4672  129.7503  151.2785 H   0  0  0  0  0  0  0  0  0  0  0  0
  132.2960  128.6428  152.2321 H   0  0  0  0  0  0  0  0  0  0  0  0
  130.2653  131.6243  152.2113 H   0  0  0  0  0  0  0  0  0  0  0  0
  129.5843  132.8563  154.2274 H   0  0  0  0  0  0  0  0  0  0  0  0
  129.0535  130.7708  157.9000 H   0  0  0  0  0  0  0  0  0  0  0  0
  130.8339  135.6682  158.7046 H   0  0  0  0  0  0  0  0  0  0  0  0
  129.9322  137.6119  159.6890 H   0  0  0  0  0  0  0  0  0  0  0  0
  128.2720  136.6339  162.0499 H   0  0  0  0  0  0  0  0  0  0  0  0
  131.1021  138.7559  160.9641 H   0  0  0  0  0  0  0  0  0  0  0  0
  131.6576  140.9821  161.8526 H   0  0  0  0  0  0  0  0  0  0  0  0
  130.1039  142.1243  163.3758 H   0  0  0  0  0  0  0  0  0  0  0  0
  127.0343  137.8204  163.7234 H   0  0  0  0  0  0  0  0  0  0  0  0
  126.2186  139.0005  162.6548 H   0  0  0  0  0  0  0  0  0  0  0  0
  127.1025  139.3238  165.5387 H   0  0  0  0  0  0  0  0  0  0  0  0
  125.6746  140.0217  164.7072 H   0  0  0  0  0  0  0  0  0  0  0  0
  126.9309  141.7634  163.7434 H   0  0  0  0  0  0  0  0  0  0  0  0
  127.9758  141.4828  165.1678 H   0  0  0  0  0  0  0  0  0  0  0  0
  126.4585  135.2296  160.6429 H   0  0  0  0  0  0  0  0  0  0  0  0
  124.3570  135.3717  159.3674 H   0  0  0  0  0  0  0  0  0  0  0  0
  124.4116  135.8641  156.9554 H   0  0  0  0  0  0  0  0  0  0  0  0
  126.5672  136.2219  155.8203 H   0  0  0  0  0  0  0  0  0  0  0  0
  128.6682  136.0882  157.0975 H   0  0  0  0  0  0  0  0  0  0  0  0
  131.7069  130.0374  156.6589 H   0  0  0  0  0  0  0  0  0  0  0  0
  132.3748  128.8040  154.6392 H   0  0  0  0  0  0  0  0  0  0  0  0
  1  2  1  0
  1 35  1  0
  1 36  1  0
  2 34  2  0
  2  3  1  0
  3  4  2  0
  3 37  1  0
  4  5  1  0
  4 38  1  0
  5  6  1  0
  5 33  2  0
  6 31  1  0
  6  7  2  0
  7  8  1  0
  7 39  1  0
  8  9  1  0
  8 10  1  0
 10 11  1  0
 10 31  2  0
 11 12  1  0
 11 40  1  0
 12 13  1  1
 12 14  1  0
 12 25  1  0
 14 15  2  0
 14 41  1  0
 15 16  1  0
 15 42  1  0
 16 21  1  0
 16 17  2  0
 17 18  1  0
 17 43  1  0
 18 19  2  0
 18 44  1  0
 19 20  1  0
 19 45  1  0
 20 24  1  0
 20 21  2  0
 21 22  1  0
 22 23  1  0
 22 46  1  0
 22 47  1  0
 23 24  1  0
 23 48  1  0
 23 49  1  0
 24 50  1  0
 24 51  1  0
 25 30  1  0
 25 26  2  0
 26 27  1  0
 26 52  1  0
 27 28  2  0
 27 53  1  0
 28 29  1  0
 28 54  1  0
 29 30  2  0
 29 55  1  0
 30 56  1  0
 31 32  1  0
 33 34  1  0
 33 57  1  0
 34 58  1  0
M  CHG  1  31   1
M  END
>  <DOCK_score>  (1) 
-63.912842

>  <SMILES>  (1) 
Nc1ccc(-c2c[nH]c(N[C@@H](C=Cc3cccc4c3CCC4)c3ccccc3)[nH+]2)cc1

$$$$
