Cc1ccc(C[C@@H](C=CCc2ccccc2)Nc2[nH]cc(-c3ccc(N)cc3)[nH+]2)cc1
     RDKit          3D

 60 63  0  0  1  0  0  0  0  0999 V2000
  136.2336  137.3164  162.4008 C   0  0  0  0  0  0  0  0  0  0  0  0
  134.7650  137.2554  162.0679 C   0  0  0  0  0  0  0  0  0  0  0  0
  133.8428  136.9759  163.0589 C   0  0  0  0  0  0  0  0  0  0  0  0
  132.4957  136.9198  162.7536 C   0  0  0  0  0  0  0  0  0  0  0  0
  132.0709  137.1444  161.4575 C   0  0  0  0  0  0  0  0  0  0  0  0
  130.6023  137.0834  161.1245 C   0  0  0  0  0  0  0  0  0  0  0  0
  130.2270  135.6525  160.7343 C   0  0  1  0  0  0  0  0  0  0  0  0
  130.7457  134.9500  161.3866 H   0  0  0  0  0  0  0  0  0  0  0  0
  128.7385  135.4666  160.8783 C   0  0  0  0  0  0  0  0  0  0  0  0
  127.9460  135.7170  159.8658 C   0  0  0  0  0  0  0  0  0  0  0  0
  126.4574  135.5312  160.0100 C   0  0  0  0  0  0  0  0  0  0  0  0
  126.1618  134.0948  160.3569 C   0  0  0  0  0  0  0  0  0  0  0  0
  125.9470  133.1711  159.3513 C   0  0  0  0  0  0  0  0  0  0  0  0
  125.6763  131.8532  159.6696 C   0  0  0  0  0  0  0  0  0  0  0  0
  125.6191  131.4596  160.9934 C   0  0  0  0  0  0  0  0  0  0  0  0
  125.8344  132.3835  161.9990 C   0  0  0  0  0  0  0  0  0  0  0  0
  126.1060  133.7010  161.6808 C   0  0  0  0  0  0  0  0  0  0  0  0
  130.6175  135.4071  159.3438 N   0  0  0  0  0  0  0  0  0  0  0  0
  130.3770  134.1728  158.7647 C   0  0  0  0  0  0  0  0  0  0  0  0
  129.7827  133.1126  159.3766 N   0  0  0  0  0  0  0  0  0  0  0  0
  129.4543  133.0857  160.2888 H   0  0  0  0  0  0  0  0  0  0  0  0
  129.7340  132.0866  158.4628 C   0  0  0  0  0  0  0  0  0  0  0  0
  130.2995  132.5498  157.3209 C   0  0  0  0  0  0  0  0  0  0  0  0
  130.4683  131.7883  156.0589 C   0  0  0  0  0  0  0  0  0  0  0  0
  129.8698  132.2418  154.8845 C   0  0  0  0  0  0  0  0  0  0  0  0
  130.0325  131.5351  153.7116 C   0  0  0  0  0  0  0  0  0  0  0  0
  130.7830  130.3654  153.7022 C   0  0  0  0  0  0  0  0  0  0  0  0
  130.9412  129.6486  152.5138 N   0  0  0  0  0  0  0  0  0  0  0  0
  131.3763  129.9086  154.8731 C   0  0  0  0  0  0  0  0  0  0  0  0
  131.2211  130.6151  156.0472 C   0  0  0  0  0  0  0  0  0  0  0  0
  130.6792  133.8345  157.5349 N   0  0  0  0  0  0  0  0  0  0  0  0
  131.1081  134.4102  156.8826 H   0  0  0  0  0  0  0  0  0  0  0  0
  132.9936  137.4193  160.4655 C   0  0  0  0  0  0  0  0  0  0  0  0
  134.3403  137.4795  160.7717 C   0  0  0  0  0  0  0  0  0  0  0  0
  136.6750  136.3273  162.2792 H   0  0  0  0  0  0  0  0  0  0  0  0
  136.7289  138.0200  161.7318 H   0  0  0  0  0  0  0  0  0  0  0  0
  136.3590  137.6460  163.4322 H   0  0  0  0  0  0  0  0  0  0  0  0
  134.1746  136.8008  164.0717 H   0  0  0  0  0  0  0  0  0  0  0  0
  131.7752  136.7011  163.5278 H   0  0  0  0  0  0  0  0  0  0  0  0
  130.3903  137.7545  160.2923 H   0  0  0  0  0  0  0  0  0  0  0  0
  130.0198  137.3875  161.9941 H   0  0  0  0  0  0  0  0  0  0  0  0
  128.3251  135.1266  161.8165 H   0  0  0  0  0  0  0  0  0  0  0  0
  128.3595  136.0570  158.9278 H   0  0  0  0  0  0  0  0  0  0  0  0
  125.9667  135.7867  159.0710 H   0  0  0  0  0  0  0  0  0  0  0  0
  126.0854  136.1804  160.8026 H   0  0  0  0  0  0  0  0  0  0  0  0
  125.9862  133.4797  158.3170 H   0  0  0  0  0  0  0  0  0  0  0  0
  125.5081  131.1316  158.8838 H   0  0  0  0  0  0  0  0  0  0  0  0
  125.4076  130.4302  161.2419 H   0  0  0  0  0  0  0  0  0  0  0  0
  125.7909  132.0757  163.0333 H   0  0  0  0  0  0  0  0  0  0  0  0
  126.2743  134.4226  162.4664 H   0  0  0  0  0  0  0  0  0  0  0  0
  131.0445  136.1095  158.8288 H   0  0  0  0  0  0  0  0  0  0  0  0
  129.3238  131.1005  158.6237 H   0  0  0  0  0  0  0  0  0  0  0  0
  129.2825  133.1482  154.8925 H   0  0  0  0  0  0  0  0  0  0  0  0
  129.5727  131.8886  152.8005 H   0  0  0  0  0  0  0  0  0  0  0  0
  131.4655  128.8317  152.5067 H   0  0  0  0  0  0  0  0  0  0  0  0
  130.5278  129.9662  151.6966 H   0  0  0  0  0  0  0  0  0  0  0  0
  131.9591  128.9993  154.8636 H   0  0  0  0  0  0  0  0  0  0  0  0
  131.6825  130.2598  156.9567 H   0  0  0  0  0  0  0  0  0  0  0  0
  132.6621  137.5903  159.4519 H   0  0  0  0  0  0  0  0  0  0  0  0
  135.0608  137.6983  159.9976 H   0  0  0  0  0  0  0  0  0  0  0  0
  1  2  1  0
  1 35  1  0
  1 36  1  0
  1 37  1  0
  2 34  2  0
  2  3  1  0
  3  4  2  0
  3 38  1  0
  4  5  1  0
  4 39  1  0
  5  6  1  0
  5 33  2  0
  6  7  1  0
  6 40  1  0
  6 41  1  0
  7  8  1  1
  7  9  1  0
  7 18  1  0
  9 10  2  0
  9 42  1  0
 10 11  1  0
 10 43  1  0
 11 12  1  0
 11 44  1  0
 11 45  1  0
 12 17  1  0
 12 13  2  0
 13 14  1  0
 13 46  1  0
 14 15  2  0
 14 47  1  0
 15 16  1  0
 15 48  1  0
 16 17  2  0
 16 49  1  0
 17 50  1  0
 18 51  1  0
 19 18  1  0
 19 31  2  0
 19 20  1  0
 20 21  1  0
 20 22  1  0
 22 23  2  0
 22 52  1  0
 23 24  1  0
 23 31  1  0
 24 30  1  0
 24 25  2  0
 25 26  1  0
 25 53  1  0
 26 27  2  0
 26 54  1  0
 27 28  1  0
 27 29  1  0
 28 55  1  0
 28 56  1  0
 29 30  2  0
 29 57  1  0
 30 58  1  0
 31 32  1  0
 33 34  1  0
 33 59  1  0
 34 60  1  0
M  CHG  1  31   1
M  END
>  <DOCK_score>  (1) 
-62.679947

>  <SMILES>  (1) 
Cc1ccc(C[C@@H](C=CCc2ccccc2)Nc2[nH]cc(-c3ccc(N)cc3)[nH+]2)cc1

$$$$
