O=C(Cc1c(Cl)cccc1N1CC[NH+](C(c2ccccc2)c2ccccc2)CC1)NCc1ccc[nH]1
     RDKit          3D

 68 72  0  0  1  0  0  0  0  0999 V2000
  132.2528  141.1024  162.4007 O   0  0  0  0  0  0  0  0  0  0  0  0
  132.6844  140.3410  163.2404 C   0  0  0  0  0  0  0  0  0  0  0  0
  133.8450  139.4374  162.9127 C   0  0  0  0  0  0  0  0  0  0  0  0
  134.2799  139.6743  161.4894 C   0  0  0  0  0  0  0  0  0  0  0  0
  135.2460  140.6228  161.2097 C   0  0  0  0  0  0  0  0  0  0  0  0
  135.9585  141.5415  162.4989 Cl  0  0  0  0  0  0  0  0  0  0  0  0
  135.6451  140.8408  159.9026 C   0  0  0  0  0  0  0  0  0  0  0  0
  135.0795  140.1111  158.8732 C   0  0  0  0  0  0  0  0  0  0  0  0
  134.1144  139.1620  159.1462 C   0  0  0  0  0  0  0  0  0  0  0  0
  133.7150  138.9362  160.4577 C   0  0  0  0  0  0  0  0  0  0  0  0
  132.7432  137.9728  160.7373 N   0  0  0  0  0  0  0  0  0  0  0  0
  133.2154  136.6284  160.3771 C   0  0  0  0  0  0  0  0  0  0  0  0
  132.1480  135.5983  160.7532 C   0  0  0  0  0  0  0  0  0  0  0  0
  130.8997  135.9045  160.0420 N   0  0  0  0  0  0  0  0  0  0  0  0
  131.0659  135.8830  159.0470 H   0  0  0  0  0  0  0  0  0  0  0  0
  129.8809  134.9050  160.3894 C   0  0  0  0  0  0  0  0  0  0  0  0
  128.6000  135.2188  159.6599 C   0  0  0  0  0  0  0  0  0  0  0  0
  127.3838  134.8737  160.2191 C   0  0  0  0  0  0  0  0  0  0  0  0
  126.2088  135.1659  159.5521 C   0  0  0  0  0  0  0  0  0  0  0  0
  126.2504  135.7936  158.3213 C   0  0  0  0  0  0  0  0  0  0  0  0
  127.4668  136.1339  157.7597 C   0  0  0  0  0  0  0  0  0  0  0  0
  128.6416  135.8464  158.4290 C   0  0  0  0  0  0  0  0  0  0  0  0
  130.3642  133.5349  159.9891 C   0  0  0  0  0  0  0  0  0  0  0  0
  129.9613  132.4232  160.7053 C   0  0  0  0  0  0  0  0  0  0  0  0
  130.4007  131.1660  160.3349 C   0  0  0  0  0  0  0  0  0  0  0  0
  131.2514  131.0214  159.2550 C   0  0  0  0  0  0  0  0  0  0  0  0
  131.6585  132.1336  158.5421 C   0  0  0  0  0  0  0  0  0  0  0  0
  131.2148  133.3902  158.9091 C   0  0  0  0  0  0  0  0  0  0  0  0
  130.4276  137.2400  160.4306 C   0  0  0  0  0  0  0  0  0  0  0  0
  131.4808  138.2836  160.0518 C   0  0  0  0  0  0  0  0  0  0  0  0
  132.1260  140.3031  164.4663 N   0  0  0  0  0  0  0  0  0  0  0  0
  130.9977  141.1817  164.7848 C   0  0  0  0  0  0  0  0  0  0  0  0
  129.7057  140.4814  164.4508 C   0  0  0  0  0  0  0  0  0  0  0  0
  129.4490  139.7935  163.3198 C   0  0  0  0  0  0  0  0  0  0  0  0
  128.1313  139.3038  163.4140 C   0  0  0  0  0  0  0  0  0  0  0  0
  127.6330  139.7111  164.5990 C   0  0  0  0  0  0  0  0  0  0  0  0
  128.5929  140.4392  165.2373 N   0  0  0  0  0  0  0  0  0  0  0  0
  128.5001  140.8562  166.1082 H   0  0  0  0  0  0  0  0  0  0  0  0
  134.6743  139.6523  163.5867 H   0  0  0  0  0  0  0  0  0  0  0  0
  133.5406  138.3975  163.0312 H   0  0  0  0  0  0  0  0  0  0  0  0
  136.3998  141.5825  159.6863 H   0  0  0  0  0  0  0  0  0  0  0  0
  135.3926  140.2842  157.8541 H   0  0  0  0  0  0  0  0  0  0  0  0
  133.6732  138.5928  158.3414 H   0  0  0  0  0  0  0  0  0  0  0  0
  133.4017  136.5837  159.3040 H   0  0  0  0  0  0  0  0  0  0  0  0
  134.1372  136.4102  160.9161 H   0  0  0  0  0  0  0  0  0  0  0  0
  131.9717  135.6337  161.8282 H   0  0  0  0  0  0  0  0  0  0  0  0
  132.4903  134.6018  160.4738 H   0  0  0  0  0  0  0  0  0  0  0  0
  129.7015  134.9273  161.4643 H   0  0  0  0  0  0  0  0  0  0  0  0
  127.3515  134.3792  161.1787 H   0  0  0  0  0  0  0  0  0  0  0  0
  125.2583  134.8996  159.9908 H   0  0  0  0  0  0  0  0  0  0  0  0
  125.3324  136.0178  157.7981 H   0  0  0  0  0  0  0  0  0  0  0  0
  127.4992  136.6240  156.7978 H   0  0  0  0  0  0  0  0  0  0  0  0
  129.5921  136.1121  157.9902 H   0  0  0  0  0  0  0  0  0  0  0  0
  129.3002  132.5367  161.5518 H   0  0  0  0  0  0  0  0  0  0  0  0
  130.0829  130.2971  160.8923 H   0  0  0  0  0  0  0  0  0  0  0  0
  131.5982  130.0396  158.9685 H   0  0  0  0  0  0  0  0  0  0  0  0
  132.3233  132.0207  157.6985 H   0  0  0  0  0  0  0  0  0  0  0  0
  131.5332  134.2592  158.3523 H   0  0  0  0  0  0  0  0  0  0  0  0
  130.2602  137.2670  161.5074 H   0  0  0  0  0  0  0  0  0  0  0  0
  129.4946  137.4606  159.9122 H   0  0  0  0  0  0  0  0  0  0  0  0
  131.1372  139.2731  160.3537 H   0  0  0  0  0  0  0  0  0  0  0  0
  131.6386  138.2663  158.9734 H   0  0  0  0  0  0  0  0  0  0  0  0
  132.4711  139.6942  165.1379 H   0  0  0  0  0  0  0  0  0  0  0  0
  131.0752  142.0989  164.2008 H   0  0  0  0  0  0  0  0  0  0  0  0
  131.0150  141.4248  165.8472 H   0  0  0  0  0  0  0  0  0  0  0  0
  130.1284  139.6454  162.4934 H   0  0  0  0  0  0  0  0  0  0  0  0
  127.6149  138.7114  162.6730 H   0  0  0  0  0  0  0  0  0  0  0  0
  126.6430  139.5007  164.9755 H   0  0  0  0  0  0  0  0  0  0  0  0
  1  2  2  0
  2  3  1  0
  2 31  1  0
  3  4  1  0
  3 39  1  0
  3 40  1  0
  4 10  1  0
  4  5  2  0
  5  6  1  0
  5  7  1  0
  7  8  2  0
  7 41  1  0
  8  9  1  0
  8 42  1  0
  9 10  2  0
  9 43  1  0
 10 11  1  0
 11 30  1  0
 11 12  1  0
 12 13  1  0
 12 44  1  0
 12 45  1  0
 13 14  1  0
 13 46  1  0
 13 47  1  0
 14 15  1  0
 14 16  1  0
 14 29  1  0
 16 17  1  0
 16 23  1  0
 16 48  1  0
 17 22  1  0
 17 18  2  0
 18 19  1  0
 18 49  1  0
 19 20  2  0
 19 50  1  0
 20 21  1  0
 20 51  1  0
 21 22  2  0
 21 52  1  0
 22 53  1  0
 23 28  1  0
 23 24  2  0
 24 25  1  0
 24 54  1  0
 25 26  2  0
 25 55  1  0
 26 27  1  0
 26 56  1  0
 27 28  2  0
 27 57  1  0
 28 58  1  0
 29 30  1  0
 29 59  1  0
 29 60  1  0
 30 61  1  0
 30 62  1  0
 31 32  1  0
 31 63  1  0
 32 33  1  0
 32 64  1  0
 32 65  1  0
 33 37  1  0
 33 34  2  0
 34 35  1  0
 34 66  1  0
 35 36  2  0
 35 67  1  0
 36 37  1  0
 36 68  1  0
 37 38  1  0
M  CHG  1  14   1
M  END
>  <DOCK_score>  (1) 
-56.947216

>  <SMILES>  (1) 
O=C(Cc1c(Cl)cccc1N1CC[NH+](C(c2ccccc2)c2ccccc2)CC1)NCc1ccc[nH]1

$$$$
