C[C@H]1C(c2n[nH]cc2CNc2[nH]c3ccccc3[nH+]2)[C@@H]1C
     RDKit          3D

 41 44  0  0  1  0  0  0  0  0999 V2000
  128.3060  130.3981  159.2628 C   0  0  0  0  0  0  0  0  0  0  0  0
  127.7745  131.5413  160.1298 C   0  0  1  0  0  0  0  0  0  0  0  0
  128.4014  131.8197  160.9768 H   0  0  0  0  0  0  0  0  0  0  0  0
  126.9978  132.6575  159.4286 C   0  0  0  0  0  0  0  0  0  0  0  0
  127.1581  134.0578  159.9619 C   0  0  0  0  0  0  0  0  0  0  0  0
  126.1993  134.8147  160.4305 N   0  0  0  0  0  0  0  0  0  0  0  0
  126.7592  136.0371  160.8237 N   0  0  0  0  0  0  0  0  0  0  0  0
  126.2789  136.7878  161.2068 H   0  0  0  0  0  0  0  0  0  0  0  0
  128.0845  135.9861  160.5747 C   0  0  0  0  0  0  0  0  0  0  0  0
  128.3577  134.7728  160.0416 C   0  0  0  0  0  0  0  0  0  0  0  0
  129.7144  134.2790  159.6099 C   0  0  0  0  0  0  0  0  0  0  0  0
  129.9359  134.6263  158.2039 N   0  0  0  0  0  0  0  0  0  0  0  0
  130.1584  133.6349  157.2779 C   0  0  0  0  0  0  0  0  0  0  0  0
  129.9926  133.7680  155.9637 N   0  0  0  0  0  0  0  0  0  0  0  0
  129.6975  134.5719  155.5079 H   0  0  0  0  0  0  0  0  0  0  0  0
  130.3120  132.5784  155.3636 C   0  0  0  0  0  0  0  0  0  0  0  0
  130.3274  132.1396  154.0428 C   0  0  0  0  0  0  0  0  0  0  0  0
  130.7007  130.8445  153.7557 C   0  0  0  0  0  0  0  0  0  0  0  0
  131.0615  129.9743  154.7739 C   0  0  0  0  0  0  0  0  0  0  0  0
  131.0516  130.3925  156.0869 C   0  0  0  0  0  0  0  0  0  0  0  0
  130.6771  131.6973  156.3945 C   0  0  0  0  0  0  0  0  0  0  0  0
  130.5657  132.4005  157.5652 N   0  0  0  0  0  0  0  0  0  0  0  0
  130.7523  132.0573  158.4529 H   0  0  0  0  0  0  0  0  0  0  0  0
  126.2586  131.6469  160.3079 C   0  0  2  0  0  0  0  0  0  0  0  0
  125.6399  130.9021  159.8073 H   0  0  0  0  0  0  0  0  0  0  0  0
  125.7386  132.1353  161.6613 C   0  0  0  0  0  0  0  0  0  0  0  0
  128.9894  130.7978  158.5136 H   0  0  0  0  0  0  0  0  0  0  0  0
  128.8345  129.6810  159.8910 H   0  0  0  0  0  0  0  0  0  0  0  0
  127.4728  129.9011  158.7662 H   0  0  0  0  0  0  0  0  0  0  0  0
  126.8659  132.5777  158.3495 H   0  0  0  0  0  0  0  0  0  0  0  0
  128.7991  136.7727  160.7667 H   0  0  0  0  0  0  0  0  0  0  0  0
  130.4836  134.7461  160.2250 H   0  0  0  0  0  0  0  0  0  0  0  0
  129.7618  133.1965  159.7286 H   0  0  0  0  0  0  0  0  0  0  0  0
  129.9257  135.5557  157.9266 H   0  0  0  0  0  0  0  0  0  0  0  0
  130.0480  132.8122  153.2453 H   0  0  0  0  0  0  0  0  0  0  0  0
  130.7130  130.5048  152.7307 H   0  0  0  0  0  0  0  0  0  0  0  0
  131.3526  128.9618  154.5360 H   0  0  0  0  0  0  0  0  0  0  0  0
  131.3339  129.7100  156.8749 H   0  0  0  0  0  0  0  0  0  0  0  0
  125.0338  132.9523  161.5065 H   0  0  0  0  0  0  0  0  0  0  0  0
  125.2371  131.3153  162.1753 H   0  0  0  0  0  0  0  0  0  0  0  0
  126.5745  132.4865  162.2664 H   0  0  0  0  0  0  0  0  0  0  0  0
  1  2  1  0
  1 27  1  0
  1 28  1  0
  1 29  1  0
  2  3  1  1
  2 24  1  0
  2  4  1  0
  4  5  1  0
  4 24  1  0
  4 30  1  0
  5 10  1  0
  5  6  2  0
  6  7  1  0
  7  8  1  0
  7  9  1  0
  9 10  2  0
  9 31  1  0
 10 11  1  0
 11 12  1  0
 11 32  1  0
 11 33  1  0
 12 13  1  0
 12 34  1  0
 13 22  1  0
 13 14  2  0
 14 15  1  0
 14 16  1  0
 16 21  2  0
 16 17  1  0
 17 18  2  0
 17 35  1  0
 18 19  1  0
 18 36  1  0
 19 20  2  0
 19 37  1  0
 20 21  1  0
 20 38  1  0
 21 22  1  0
 22 23  1  0
 24 25  1  6
 24 26  1  0
 26 39  1  0
 26 40  1  0
 26 41  1  0
M  CHG  1  14   1
M  END
>  <DOCK_score>  (1) 
-45.767452

>  <SMILES>  (1) 
C[C@H]1C(c2n[nH]cc2CNc2[nH]c3ccccc3[nH+]2)[C@@H]1C

$$$$
