CC=C[C@](C)(O)Cc1c(C)cccc1N1CC[NH+](C(c2ccccc2)c2ccccc2)CC1
     RDKit          3D

 70 73  0  0  1  0  0  0  0  0999 V2000
  137.9761  136.7930  165.2014 C   0  0  0  0  0  0  0  0  0  0  0  0
  136.7428  136.3770  164.4419 C   0  0  0  0  0  0  0  0  0  0  0  0
  135.5560  136.7014  164.8919 C   0  0  0  0  0  0  0  0  0  0  0  0
  134.3225  136.2854  164.1324 C   0  0  2  0  0  0  0  0  0  0  0  0
  133.4483  135.4018  165.0245 C   0  0  0  0  0  0  0  0  0  0  0  0
  134.7053  135.5540  162.9661 O   0  0  0  0  0  0  0  0  0  0  0  0
  133.5347  137.5300  163.7184 C   0  0  0  0  0  0  0  0  0  0  0  0
  134.1645  138.1380  162.4917 C   0  0  0  0  0  0  0  0  0  0  0  0
  135.1585  139.0881  162.6237 C   0  0  0  0  0  0  0  0  0  0  0  0
  135.6131  139.5163  163.9952 C   0  0  0  0  0  0  0  0  0  0  0  0
  135.7330  139.6505  161.4991 C   0  0  0  0  0  0  0  0  0  0  0  0
  135.3186  139.2605  160.2382 C   0  0  0  0  0  0  0  0  0  0  0  0
  134.3296  138.3071  160.0992 C   0  0  0  0  0  0  0  0  0  0  0  0
  133.7502  137.7398  161.2273 C   0  0  0  0  0  0  0  0  0  0  0  0
  132.7491  136.7755  161.0902 N   0  0  0  0  0  0  0  0  0  0  0  0
  131.5608  137.3393  160.4343 C   0  0  0  0  0  0  0  0  0  0  0  0
  130.4688  136.2701  160.3573 C   0  0  0  0  0  0  0  0  0  0  0  0
  130.9667  135.1153  159.5982 N   0  0  0  0  0  0  0  0  0  0  0  0
  131.2276  135.4108  158.6695 H   0  0  0  0  0  0  0  0  0  0  0  0
  129.9119  134.0967  159.5090 C   0  0  0  0  0  0  0  0  0  0  0  0
  128.7103  134.6778  158.8092 C   0  0  0  0  0  0  0  0  0  0  0  0
  127.4431  134.2174  159.1145 C   0  0  0  0  0  0  0  0  0  0  0  0
  126.3405  134.7539  158.4762 C   0  0  0  0  0  0  0  0  0  0  0  0
  126.5056  135.7431  157.5256 C   0  0  0  0  0  0  0  0  0  0  0  0
  127.7737  136.2000  157.2161 C   0  0  0  0  0  0  0  0  0  0  0  0
  128.8757  135.6672  157.8582 C   0  0  0  0  0  0  0  0  0  0  0  0
  130.4223  132.9118  158.7302 C   0  0  0  0  0  0  0  0  0  0  0  0
  130.2571  132.8631  157.3586 C   0  0  0  0  0  0  0  0  0  0  0  0
  130.7298  131.7785  156.6436 C   0  0  0  0  0  0  0  0  0  0  0  0
  131.3582  130.7378  157.3016 C   0  0  0  0  0  0  0  0  0  0  0  0
  131.5187  130.7842  158.6738 C   0  0  0  0  0  0  0  0  0  0  0  0
  131.0509  131.8712  159.3881 C   0  0  0  0  0  0  0  0  0  0  0  0
  132.1384  134.5482  160.2786 C   0  0  0  0  0  0  0  0  0  0  0  0
  133.2442  135.6031  160.3551 C   0  0  0  0  0  0  0  0  0  0  0  0
  138.8628  136.4357  164.6778 H   0  0  0  0  0  0  0  0  0  0  0  0
  138.0096  137.8801  165.2725 H   0  0  0  0  0  0  0  0  0  0  0  0
  137.9479  136.3640  166.2029 H   0  0  0  0  0  0  0  0  0  0  0  0
  136.8373  135.8114  163.5268 H   0  0  0  0  0  0  0  0  0  0  0  0
  135.4615  137.2670  165.8072 H   0  0  0  0  0  0  0  0  0  0  0  0
  132.5697  135.0782  164.4662 H   0  0  0  0  0  0  0  0  0  0  0  0
  134.0187  134.5289  165.3421 H   0  0  0  0  0  0  0  0  0  0  0  0
  133.1335  135.9686  165.9007 H   0  0  0  0  0  0  0  0  0  0  0  0
  135.3220  136.0266  162.3902 H   0  0  0  0  0  0  0  0  0  0  0  0
  133.5482  138.2556  164.5314 H   0  0  0  0  0  0  0  0  0  0  0  0
  132.5045  137.2509  163.4975 H   0  0  0  0  0  0  0  0  0  0  0  0
  134.9931  140.3430  164.3418 H   0  0  0  0  0  0  0  0  0  0  0  0
  135.5212  138.6784  164.6864 H   0  0  0  0  0  0  0  0  0  0  0  0
  136.6538  139.8369  163.9493 H   0  0  0  0  0  0  0  0  0  0  0  0
  136.5068  140.3964  161.6053 H   0  0  0  0  0  0  0  0  0  0  0  0
  135.7695  139.7019  159.3617 H   0  0  0  0  0  0  0  0  0  0  0  0
  134.0070  138.0024  159.1146 H   0  0  0  0  0  0  0  0  0  0  0  0
  131.8217  137.6660  159.4276 H   0  0  0  0  0  0  0  0  0  0  0  0
  131.1969  138.1901  161.0103 H   0  0  0  0  0  0  0  0  0  0  0  0
  129.5916  136.6820  159.8583 H   0  0  0  0  0  0  0  0  0  0  0  0
  130.1986  135.9535  161.3646 H   0  0  0  0  0  0  0  0  0  0  0  0
  129.6292  133.7778  160.5121 H   0  0  0  0  0  0  0  0  0  0  0  0
  127.3141  133.4413  159.8544 H   0  0  0  0  0  0  0  0  0  0  0  0
  125.3501  134.3969  158.7172 H   0  0  0  0  0  0  0  0  0  0  0  0
  125.6450  136.1593  157.0231 H   0  0  0  0  0  0  0  0  0  0  0  0
  127.9030  136.9727  156.4728 H   0  0  0  0  0  0  0  0  0  0  0  0
  129.8663  136.0237  157.6165 H   0  0  0  0  0  0  0  0  0  0  0  0
  129.7622  133.6741  156.8451 H   0  0  0  0  0  0  0  0  0  0  0  0
  130.6040  131.7421  155.5716 H   0  0  0  0  0  0  0  0  0  0  0  0
  131.7235  129.8884  156.7435 H   0  0  0  0  0  0  0  0  0  0  0  0
  132.0095  129.9709  159.1879 H   0  0  0  0  0  0  0  0  0  0  0  0
  131.1759  131.9072  160.4603 H   0  0  0  0  0  0  0  0  0  0  0  0
  131.8596  134.2404  161.2864 H   0  0  0  0  0  0  0  0  0  0  0  0
  132.4989  133.6836  159.7214 H   0  0  0  0  0  0  0  0  0  0  0  0
  134.1084  135.1872  160.8732 H   0  0  0  0  0  0  0  0  0  0  0  0
  133.5328  135.9011  159.3471 H   0  0  0  0  0  0  0  0  0  0  0  0
  1  2  1  0
  1 35  1  0
  1 36  1  0
  1 37  1  0
  2  3  2  0
  2 38  1  0
  3 39  1  0
  4  3  1  0
  4  5  1  0
  4  6  1  6
  4  7  1  0
  5 40  1  0
  5 41  1  0
  5 42  1  0
  6 43  1  0
  7  8  1  0
  7 44  1  0
  7 45  1  0
  8 14  2  0
  8  9  1  0
  9 10  1  0
  9 11  2  0
 10 46  1  0
 10 47  1  0
 10 48  1  0
 11 12  1  0
 11 49  1  0
 12 13  2  0
 12 50  1  0
 13 14  1  0
 13 51  1  0
 14 15  1  0
 15 34  1  0
 15 16  1  0
 16 17  1  0
 16 52  1  0
 16 53  1  0
 17 18  1  0
 17 54  1  0
 17 55  1  0
 18 19  1  0
 18 20  1  0
 18 33  1  0
 20 21  1  0
 20 27  1  0
 20 56  1  0
 21 26  1  0
 21 22  2  0
 22 23  1  0
 22 57  1  0
 23 24  2  0
 23 58  1  0
 24 25  1  0
 24 59  1  0
 25 26  2  0
 25 60  1  0
 26 61  1  0
 27 32  1  0
 27 28  2  0
 28 29  1  0
 28 62  1  0
 29 30  2  0
 29 63  1  0
 30 31  1  0
 30 64  1  0
 31 32  2  0
 31 65  1  0
 32 66  1  0
 33 34  1  0
 33 67  1  0
 33 68  1  0
 34 69  1  0
 34 70  1  0
M  CHG  1  18   1
M  END
>  <DOCK_score>  (1) 
-58.78104

>  <SMILES>  (1) 
CC=C[C@](C)(O)Cc1c(C)cccc1N1CC[NH+](C(c2ccccc2)c2ccccc2)CC1

$$$$
