c1ccc2c(c1)CC[C@H](NC(N[C@@H]1CCOC1)=[NH+]C1CC13CC3)C2
     RDKit          3D

 52 56  0  0  1  0  0  0  0  0999 V2000
  136.0532  141.1663  161.7442 C   0  0  0  0  0  0  0  0  0  0  0  0
  135.9086  141.1871  160.3693 C   0  0  0  0  0  0  0  0  0  0  0  0
  135.0662  140.2837  159.7554 C   0  0  0  0  0  0  0  0  0  0  0  0
  134.3618  139.3520  160.5072 C   0  0  0  0  0  0  0  0  0  0  0  0
  134.5023  139.3341  161.8766 C   0  0  0  0  0  0  0  0  0  0  0  0
  135.3522  140.2440  162.4927 C   0  0  0  0  0  0  0  0  0  0  0  0
  133.7640  138.3581  162.7547 C   0  0  0  0  0  0  0  0  0  0  0  0
  133.2397  137.1840  161.9303 C   0  0  0  0  0  0  0  0  0  0  0  0
  132.4687  137.7422  160.7283 C   0  0  2  0  0  0  0  0  0  0  0  0
  131.7521  138.4904  161.0671 H   0  0  0  0  0  0  0  0  0  0  0  0
  131.7623  136.6545  160.0471 N   0  0  0  0  0  0  0  0  0  0  0  0
  130.8233  135.9136  160.7251 C   0  0  0  0  0  0  0  0  0  0  0  0
  130.0973  136.4883  161.7415 N   0  0  0  0  0  0  0  0  0  0  0  0
  129.0967  135.6990  162.4640 C   0  0  2  0  0  0  0  0  0  0  0  0
  129.5638  134.8388  162.9434 H   0  0  0  0  0  0  0  0  0  0  0  0
  127.9736  135.2415  161.5066 C   0  0  0  0  0  0  0  0  0  0  0  0
  126.6985  135.8943  162.0848 C   0  0  0  0  0  0  0  0  0  0  0  0
  127.1744  137.0331  162.8348 O   0  0  0  0  0  0  0  0  0  0  0  0
  128.3673  136.5740  163.5073 C   0  0  0  0  0  0  0  0  0  0  0  0
  130.6212  134.6666  160.4043 N   0  0  0  0  0  0  0  0  0  0  0  0
  129.9588  134.1440  160.8828 H   0  0  0  0  0  0  0  0  0  0  0  0
  131.3948  134.0542  159.3214 C   0  0  2  0  0  0  0  0  0  0  0  0
  130.6464  133.6887  158.0379 C   0  0  0  0  0  0  0  0  0  0  0  0
  131.1112  132.5872  158.9927 C   0  0  0  0  0  0  0  0  0  0  0  0
  130.5367  131.3475  159.6809 C   0  0  0  0  0  0  0  0  0  0  0  0
  131.8671  131.2585  158.9305 C   0  0  0  0  0  0  0  0  0  0  0  0
  133.4703  138.3864  159.7711 C   0  0  0  0  0  0  0  0  0  0  0  0
  136.7130  141.8696  162.2303 H   0  0  0  0  0  0  0  0  0  0  0  0
  136.4532  141.9084  159.7780 H   0  0  0  0  0  0  0  0  0  0  0  0
  134.9538  140.3006  158.6815 H   0  0  0  0  0  0  0  0  0  0  0  0
  135.4652  140.2287  163.5666 H   0  0  0  0  0  0  0  0  0  0  0  0
  132.9252  138.8661  163.2306 H   0  0  0  0  0  0  0  0  0  0  0  0
  134.4399  137.9838  163.5236 H   0  0  0  0  0  0  0  0  0  0  0  0
  134.0758  136.5783  161.5809 H   0  0  0  0  0  0  0  0  0  0  0  0
  132.5748  136.5740  162.5419 H   0  0  0  0  0  0  0  0  0  0  0  0
  131.9571  136.4570  159.1176 H   0  0  0  0  0  0  0  0  0  0  0  0
  130.2477  137.4164  161.9802 H   0  0  0  0  0  0  0  0  0  0  0  0
  128.1628  135.6027  160.4957 H   0  0  0  0  0  0  0  0  0  0  0  0
  127.8839  134.1552  161.5145 H   0  0  0  0  0  0  0  0  0  0  0  0
  126.0398  136.2189  161.2794 H   0  0  0  0  0  0  0  0  0  0  0  0
  126.1798  135.1967  162.7424 H   0  0  0  0  0  0  0  0  0  0  0  0
  128.1047  135.9807  164.3831 H   0  0  0  0  0  0  0  0  0  0  0  0
  128.9906  137.4208  163.7946 H   0  0  0  0  0  0  0  0  0  0  0  0
  132.4231  134.4025  159.2230 H   0  0  0  0  0  0  0  0  0  0  0  0
  129.5786  133.9036  157.9994 H   0  0  0  0  0  0  0  0  0  0  0  0
  131.1823  133.7963  157.0948 H   0  0  0  0  0  0  0  0  0  0  0  0
  130.5699  131.3155  160.7699 H   0  0  0  0  0  0  0  0  0  0  0  0
  129.6679  130.8748  159.2229 H   0  0  0  0  0  0  0  0  0  0  0  0
  131.8735  130.7271  157.9788 H   0  0  0  0  0  0  0  0  0  0  0  0
  132.7758  131.1680  159.5256 H   0  0  0  0  0  0  0  0  0  0  0  0
  132.9288  138.9207  158.9905 H   0  0  0  0  0  0  0  0  0  0  0  0
  134.0825  137.6079  159.3155 H   0  0  0  0  0  0  0  0  0  0  0  0
  1  6  2  0
  1  2  1  0
  1 28  1  0
  2  3  2  0
  2 29  1  0
  3  4  1  0
  3 30  1  0
  4 27  1  0
  4  5  2  0
  5  6  1  0
  5  7  1  0
  6 31  1  0
  7  8  1  0
  7 32  1  0
  7 33  1  0
  8  9  1  0
  8 34  1  0
  8 35  1  0
  9 10  1  1
  9 11  1  0
  9 27  1  0
 11 36  1  0
 12 11  1  0
 12 13  1  0
 12 20  2  0
 13 14  1  0
 13 37  1  0
 14 15  1  1
 14 19  1  0
 14 16  1  0
 16 17  1  0
 16 38  1  0
 16 39  1  0
 17 18  1  0
 17 40  1  0
 17 41  1  0
 18 19  1  0
 19 42  1  0
 19 43  1  0
 20 21  1  0
 20 22  1  0
 22 24  1  0
 22 23  1  0
 22 44  1  6
 23 24  1  0
 23 45  1  0
 23 46  1  0
 24 26  1  0
 24 25  1  0
 25 26  1  0
 25 47  1  0
 25 48  1  0
 26 49  1  0
 26 50  1  0
 27 51  1  0
 27 52  1  0
M  CHG  1  20   1
M  END
>  <DOCK_score>  (1) 
-44.716

>  <SMILES>  (1) 
c1ccc2c(c1)CC[C@H](NC(N[C@@H]1CCOC1)=[NH+]C1CC13CC3)C2

$$$$
