Cc1cccc(-c2ccc(C[NH2+]Cc3c[nH]nc3-c3ccccc3)cc2)c1
     RDKit          3D

 51 54  0  0  0  0  0  0  0  0999 V2000
  130.2251  126.9174  151.3176 C   0  0  0  0  0  0  0  0  0  0  0  0
  130.3364  128.4192  151.3760 C   0  0  0  0  0  0  0  0  0  0  0  0
  130.3402  129.1575  150.2058 C   0  0  0  0  0  0  0  0  0  0  0  0
  130.4419  130.5358  150.2523 C   0  0  0  0  0  0  0  0  0  0  0  0
  130.5396  131.1828  151.4677 C   0  0  0  0  0  0  0  0  0  0  0  0
  130.5358  130.4445  152.6492 C   0  0  0  0  0  0  0  0  0  0  0  0
  130.6409  131.1344  153.9587 C   0  0  0  0  0  0  0  0  0  0  0  0
  131.2398  130.4926  155.0410 C   0  0  0  0  0  0  0  0  0  0  0  0
  131.3404  131.1414  156.2550 C   0  0  0  0  0  0  0  0  0  0  0  0
  130.8373  132.4214  156.4019 C   0  0  0  0  0  0  0  0  0  0  0  0
  130.9440  133.1220  157.7319 C   0  0  0  0  0  0  0  0  0  0  0  0
  129.6613  133.7621  158.0526 N   0  0  0  0  0  0  0  0  0  0  0  0
  129.4323  134.4344  157.3358 H   0  0  0  0  0  0  0  0  0  0  0  0
  128.9377  133.0606  158.0993 H   0  0  0  0  0  0  0  0  0  0  0  0
  129.7655  134.4452  159.3489 C   0  0  0  0  0  0  0  0  0  0  0  0
  128.4497  135.1019  159.6780 C   0  0  0  0  0  0  0  0  0  0  0  0
  127.2265  134.5454  159.5407 C   0  0  0  0  0  0  0  0  0  0  0  0
  126.3091  135.4509  159.9430 N   0  0  0  0  0  0  0  0  0  0  0  0
  125.3479  135.3206  159.9547 H   0  0  0  0  0  0  0  0  0  0  0  0
  126.9859  136.6127  160.3353 N   0  0  0  0  0  0  0  0  0  0  0  0
  128.2763  136.4075  160.1774 C   0  0  0  0  0  0  0  0  0  0  0  0
  129.3579  137.3802  160.4726 C   0  0  0  0  0  0  0  0  0  0  0  0
  129.5146  137.8811  161.7631 C   0  0  0  0  0  0  0  0  0  0  0  0
  130.5253  138.7814  162.0333 C   0  0  0  0  0  0  0  0  0  0  0  0
  131.3749  139.1948  161.0230 C   0  0  0  0  0  0  0  0  0  0  0  0
  131.2202  138.7049  159.7388 C   0  0  0  0  0  0  0  0  0  0  0  0
  130.2165  137.7999  159.4588 C   0  0  0  0  0  0  0  0  0  0  0  0
  130.2366  133.0609  155.3324 C   0  0  0  0  0  0  0  0  0  0  0  0
  130.1361  132.4239  154.1122 C   0  0  0  0  0  0  0  0  0  0  0  0
  130.4334  129.0556  152.5965 C   0  0  0  0  0  0  0  0  0  0  0  0
  129.1741  126.6295  151.3461 H   0  0  0  0  0  0  0  0  0  0  0  0
  130.6759  126.5554  150.3935 H   0  0  0  0  0  0  0  0  0  0  0  0
  130.7446  126.4811  152.1705 H   0  0  0  0  0  0  0  0  0  0  0  0
  130.2640  128.6555  149.2526 H   0  0  0  0  0  0  0  0  0  0  0  0
  130.4404  131.1075  149.3360 H   0  0  0  0  0  0  0  0  0  0  0  0
  130.6184  132.2593  151.5028 H   0  0  0  0  0  0  0  0  0  0  0  0
  131.6287  129.4914  154.9287 H   0  0  0  0  0  0  0  0  0  0  0  0
  131.8085  130.6467  157.0934 H   0  0  0  0  0  0  0  0  0  0  0  0
  131.1913  132.3959  158.5063 H   0  0  0  0  0  0  0  0  0  0  0  0
  131.7258  133.8799  157.6815 H   0  0  0  0  0  0  0  0  0  0  0  0
  130.0128  133.7190  160.1234 H   0  0  0  0  0  0  0  0  0  0  0  0
  130.5473  135.2030  159.2986 H   0  0  0  0  0  0  0  0  0  0  0  0
  127.0191  133.5504  159.1754 H   0  0  0  0  0  0  0  0  0  0  0  0
  128.8492  137.5621  162.5517 H   0  0  0  0  0  0  0  0  0  0  0  0
  130.6507  139.1667  163.0344 H   0  0  0  0  0  0  0  0  0  0  0  0
  132.1623  139.9019  161.2381 H   0  0  0  0  0  0  0  0  0  0  0  0
  131.8862  139.0311  158.9536 H   0  0  0  0  0  0  0  0  0  0  0  0
  130.0970  137.4175  158.4557 H   0  0  0  0  0  0  0  0  0  0  0  0
  129.8454  134.0603  155.4526 H   0  0  0  0  0  0  0  0  0  0  0  0
  129.6673  132.9242  153.2778 H   0  0  0  0  0  0  0  0  0  0  0  0
  130.4304  128.4783  153.5095 H   0  0  0  0  0  0  0  0  0  0  0  0
  1  2  1  0
  1 31  1  0
  1 32  1  0
  1 33  1  0
  2 30  2  0
  2  3  1  0
  3  4  2  0
  3 34  1  0
  4  5  1  0
  4 35  1  0
  5  6  2  0
  5 36  1  0
  6  7  1  0
  6 30  1  0
  7 29  1  0
  7  8  2  0
  8  9  1  0
  8 37  1  0
  9 10  2  0
  9 38  1  0
 10 11  1  0
 10 28  1  0
 11 12  1  0
 11 39  1  0
 11 40  1  0
 12 13  1  0
 12 14  1  0
 12 15  1  0
 15 16  1  0
 15 41  1  0
 15 42  1  0
 16 21  1  0
 16 17  2  0
 17 18  1  0
 17 43  1  0
 18 19  1  0
 18 20  1  0
 20 21  2  0
 21 22  1  0
 22 27  1  0
 22 23  2  0
 23 24  1  0
 23 44  1  0
 24 25  2  0
 24 45  1  0
 25 26  1  0
 25 46  1  0
 26 27  2  0
 26 47  1  0
 27 48  1  0
 28 29  2  0
 28 49  1  0
 29 50  1  0
 30 51  1  0
M  CHG  1  12   1
M  END
>  <DOCK_score>  (1) 
-50.576988

>  <SMILES>  (1) 
Cc1cccc(-c2ccc(C[NH2+]Cc3c[nH]nc3-c3ccccc3)cc2)c1

$$$$
