C[C@@H]1CC1[NH+]=C(NC1CCc2ccccc2C1)N[C@H]1CCC(=O)NC1
     RDKit          3D

 54 57  0  0  1  0  0  0  0  0999 V2000
  130.9723  130.9745  156.5639 C   0  0  0  0  0  0  0  0  0  0  0  0
  129.8527  131.9911  156.7966 C   0  0  2  0  0  0  0  0  0  0  0  0
  128.8793  131.5692  157.0465 H   0  0  0  0  0  0  0  0  0  0  0  0
  129.8745  133.2704  155.9578 C   0  0  0  0  0  0  0  0  0  0  0  0
  130.2325  133.3241  157.4443 C   0  0  1  0  0  0  0  0  0  0  0  0
  129.2594  133.9362  158.3526 N   0  0  0  0  0  0  0  0  0  0  0  0
  128.3103  133.7885  158.2178 H   0  0  0  0  0  0  0  0  0  0  0  0
  129.6693  134.6793  159.3420 C   0  0  0  0  0  0  0  0  0  0  0  0
  130.8383  135.3936  159.2269 N   0  0  0  0  0  0  0  0  0  0  0  0
  131.2988  136.2288  160.3388 C   0  0  1  0  0  0  0  0  0  0  0  0
  132.8290  136.3234  160.3145 C   0  0  0  0  0  0  0  0  0  0  0  0
  133.2913  136.9910  161.6080 C   0  0  0  0  0  0  0  0  0  0  0  0
  132.5413  138.2768  161.8380 C   0  0  0  0  0  0  0  0  0  0  0  0
  133.0786  139.1867  162.7397 C   0  0  0  0  0  0  0  0  0  0  0  0
  132.4361  140.3794  162.9989 C   0  0  0  0  0  0  0  0  0  0  0  0
  131.2462  140.6716  162.3582 C   0  0  0  0  0  0  0  0  0  0  0  0
  130.7113  139.7698  161.4621 C   0  0  0  0  0  0  0  0  0  0  0  0
  131.3561  138.5674  161.2007 C   0  0  0  0  0  0  0  0  0  0  0  0
  130.7267  137.6379  160.1963 C   0  0  0  0  0  0  0  0  0  0  0  0
  128.9324  134.7487  160.5006 N   0  0  0  0  0  0  0  0  0  0  0  0
  127.4772  134.5865  160.4541 C   0  0  1  0  0  0  0  0  0  0  0  0
  127.0999  134.9436  159.4959 H   0  0  0  0  0  0  0  0  0  0  0  0
  127.1188  133.1056  160.6284 C   0  0  0  0  0  0  0  0  0  0  0  0
  125.6152  132.9409  160.3940 C   0  0  0  0  0  0  0  0  0  0  0  0
  124.8585  133.9630  161.1928 C   0  0  0  0  0  0  0  0  0  0  0  0
  123.6750  133.7801  161.3847 O   0  0  0  0  0  0  0  0  0  0  0  0
  125.4184  135.0604  161.7030 N   0  0  0  0  0  0  0  0  0  0  0  0
  126.8355  135.3826  161.5910 C   0  0  0  0  0  0  0  0  0  0  0  0
  131.4284  130.7114  157.5182 H   0  0  0  0  0  0  0  0  0  0  0  0
  130.5592  130.0789  156.0994 H   0  0  0  0  0  0  0  0  0  0  0  0
  131.7269  131.4087  155.9081 H   0  0  0  0  0  0  0  0  0  0  0  0
  128.9153  133.6904  155.6555 H   0  0  0  0  0  0  0  0  0  0  0  0
  130.6865  133.3878  155.2401 H   0  0  0  0  0  0  0  0  0  0  0  0
  131.2796  133.4768  157.7050 H   0  0  0  0  0  0  0  0  0  0  0  0
  131.3582  135.3446  158.4094 H   0  0  0  0  0  0  0  0  0  0  0  0
  130.9730  135.7943  161.2839 H   0  0  0  0  0  0  0  0  0  0  0  0
  133.1461  136.9204  159.4595 H   0  0  0  0  0  0  0  0  0  0  0  0
  133.2574  135.3235  160.2439 H   0  0  0  0  0  0  0  0  0  0  0  0
  134.3582  137.2043  161.5409 H   0  0  0  0  0  0  0  0  0  0  0  0
  133.1118  136.3155  162.4445 H   0  0  0  0  0  0  0  0  0  0  0  0
  134.0072  138.9586  163.2416 H   0  0  0  0  0  0  0  0  0  0  0  0
  132.8611  141.0828  163.6997 H   0  0  0  0  0  0  0  0  0  0  0  0
  130.7375  141.6031  162.5584 H   0  0  0  0  0  0  0  0  0  0  0  0
  129.7814  139.9983  160.9627 H   0  0  0  0  0  0  0  0  0  0  0  0
  130.9227  138.0050  159.1889 H   0  0  0  0  0  0  0  0  0  0  0  0
  129.6503  137.6074  160.3646 H   0  0  0  0  0  0  0  0  0  0  0  0
  129.3761  134.9052  161.3490 H   0  0  0  0  0  0  0  0  0  0  0  0
  127.6709  132.5067  159.9040 H   0  0  0  0  0  0  0  0  0  0  0  0
  127.3700  132.7838  161.6390 H   0  0  0  0  0  0  0  0  0  0  0  0
  125.3970  133.0755  159.3345 H   0  0  0  0  0  0  0  0  0  0  0  0
  125.3082  131.9413  160.7014 H   0  0  0  0  0  0  0  0  0  0  0  0
  124.8468  135.6834  162.1785 H   0  0  0  0  0  0  0  0  0  0  0  0
  127.3356  135.1389  162.5284 H   0  0  0  0  0  0  0  0  0  0  0  0
  126.9481  136.4485  161.3927 H   0  0  0  0  0  0  0  0  0  0  0  0
  1  2  1  0
  1 29  1  0
  1 30  1  0
  1 31  1  0
  2  3  1  1
  2  5  1  0
  2  4  1  0
  4  5  1  0
  4 32  1  0
  4 33  1  0
  5  6  1  0
  5 34  1  6
  6  7  1  0
  8  6  2  0
  8  9  1  0
  8 20  1  0
  9 10  1  0
  9 35  1  0
 10 19  1  0
 10 11  1  0
 10 36  1  1
 11 12  1  0
 11 37  1  0
 11 38  1  0
 12 13  1  0
 12 39  1  0
 12 40  1  0
 13 18  2  0
 13 14  1  0
 14 15  2  0
 14 41  1  0
 15 16  1  0
 15 42  1  0
 16 17  2  0
 16 43  1  0
 17 18  1  0
 17 44  1  0
 18 19  1  0
 19 45  1  0
 19 46  1  0
 20 21  1  0
 20 47  1  0
 21 22  1  6
 21 28  1  0
 21 23  1  0
 23 24  1  0
 23 48  1  0
 23 49  1  0
 24 25  1  0
 24 50  1  0
 24 51  1  0
 25 26  2  0
 25 27  1  0
 27 28  1  0
 27 52  1  0
 28 53  1  0
 28 54  1  0
M  CHG  1   6   1
M  END
>  <DOCK_score>  (1) 
-44.157589

>  <SMILES>  (1) 
C[C@@H]1CC1[NH+]=C(NC1CCc2ccccc2C1)N[C@H]1CCC(=O)NC1

$$$$
