CCOC(=O)/C=C/[C@H](Nc1[nH]cc(-c2ccc(N)cc2)[nH+]1)c1ccc(Br)cc1
     RDKit          3D

 50 52  0  0  1  0  0  0  0  0999 V2000
  130.5749  140.8887  162.7980 C   0  0  0  0  0  0  0  0  0  0  0  0
  130.0587  140.7502  161.3645 C   0  0  0  0  0  0  0  0  0  0  0  0
  130.1217  139.3571  160.9598 O   0  0  0  0  0  0  0  0  0  0  0  0
  129.0353  138.5983  161.2066 C   0  0  0  0  0  0  0  0  0  0  0  0
  128.0620  139.0877  161.7453 O   0  0  0  0  0  0  0  0  0  0  0  0
  129.0280  137.1794  160.8244 C   0  0  0  0  0  0  0  0  0  0  0  0
  130.0937  136.6435  160.2346 C   0  0  0  0  0  0  0  0  0  0  0  0
  130.0862  135.1884  159.8426 C   0  0  2  0  0  0  0  0  0  0  0  0
  130.8932  134.6688  160.3591 H   0  0  0  0  0  0  0  0  0  0  0  0
  130.2780  135.0717  158.3949 N   0  0  0  0  0  0  0  0  0  0  0  0
  130.3068  133.8223  157.7989 C   0  0  0  0  0  0  0  0  0  0  0  0
  130.1634  132.6330  158.4442 N   0  0  0  0  0  0  0  0  0  0  0  0
  130.0244  132.5088  159.3962 H   0  0  0  0  0  0  0  0  0  0  0  0
  130.2523  131.6399  157.4977 C   0  0  0  0  0  0  0  0  0  0  0  0
  130.4472  132.2514  156.3034 C   0  0  0  0  0  0  0  0  0  0  0  0
  130.6008  131.5759  154.9915 C   0  0  0  0  0  0  0  0  0  0  0  0
  130.1780  132.2116  153.8251 C   0  0  0  0  0  0  0  0  0  0  0  0
  130.3270  131.5842  152.6063 C   0  0  0  0  0  0  0  0  0  0  0  0
  130.8877  130.3142  152.5413 C   0  0  0  0  0  0  0  0  0  0  0  0
  131.0328  129.6778  151.3061 N   0  0  0  0  0  0  0  0  0  0  0  0
  131.3048  129.6760  153.7034 C   0  0  0  0  0  0  0  0  0  0  0  0
  131.1631  130.3020  154.9239 C   0  0  0  0  0  0  0  0  0  0  0  0
  130.4710  133.5904  156.5193 N   0  0  0  0  0  0  0  0  0  0  0  0
  130.5922  134.2682  155.8360 H   0  0  0  0  0  0  0  0  0  0  0  0
  128.7656  134.5719  160.2256 C   0  0  0  0  0  0  0  0  0  0  0  0
  128.6084  133.9931  161.4712 C   0  0  0  0  0  0  0  0  0  0  0  0
  127.3958  133.4317  161.8245 C   0  0  0  0  0  0  0  0  0  0  0  0
  126.3426  133.4399  160.9279 C   0  0  0  0  0  0  0  0  0  0  0  0
  124.6853  132.6662  161.4085 Br  0  0  0  0  0  0  0  0  0  0  0  0
  126.5019  134.0146  159.6798 C   0  0  0  0  0  0  0  0  0  0  0  0
  127.7132  134.5804  159.3291 C   0  0  0  0  0  0  0  0  0  0  0  0
  129.9577  140.2879  163.4661 H   0  0  0  0  0  0  0  0  0  0  0  0
  131.6072  140.5423  162.8475 H   0  0  0  0  0  0  0  0  0  0  0  0
  130.5275  141.9344  163.1018 H   0  0  0  0  0  0  0  0  0  0  0  0
  130.6759  141.3510  160.6964 H   0  0  0  0  0  0  0  0  0  0  0  0
  129.0263  141.0964  161.3149 H   0  0  0  0  0  0  0  0  0  0  0  0
  128.1575  136.5715  161.0222 H   0  0  0  0  0  0  0  0  0  0  0  0
  130.9643  137.2515  160.0367 H   0  0  0  0  0  0  0  0  0  0  0  0
  130.3849  135.8697  157.8538 H   0  0  0  0  0  0  0  0  0  0  0  0
  130.1806  130.5764  157.6720 H   0  0  0  0  0  0  0  0  0  0  0  0
  129.7377  133.1965  153.8758 H   0  0  0  0  0  0  0  0  0  0  0  0
  130.0033  132.0780  151.7021 H   0  0  0  0  0  0  0  0  0  0  0  0
  131.4245  128.7921  151.2597 H   0  0  0  0  0  0  0  0  0  0  0  0
  130.7422  130.1228  150.4944 H   0  0  0  0  0  0  0  0  0  0  0  0
  131.7400  128.6890  153.6507 H   0  0  0  0  0  0  0  0  0  0  0  0
  131.4875  129.8060  155.8266 H   0  0  0  0  0  0  0  0  0  0  0  0
  129.4321  133.9831  162.1696 H   0  0  0  0  0  0  0  0  0  0  0  0
  127.2721  132.9828  162.7990 H   0  0  0  0  0  0  0  0  0  0  0  0
  125.6799  134.0209  158.9792 H   0  0  0  0  0  0  0  0  0  0  0  0
  127.8374  135.0294  158.3548 H   0  0  0  0  0  0  0  0  0  0  0  0
  1  2  1  0
  1 32  1  0
  1 33  1  0
  1 34  1  0
  2  3  1  0
  2 35  1  0
  2 36  1  0
  3  4  1  0
  4  5  2  0
  4  6  1  0
  6  7  2  0
  6 37  1  0
  7  8  1  0
  7 38  1  0
  8  9  1  1
  8 10  1  0
  8 25  1  0
 10 39  1  0
 11 10  1  0
 11 23  2  0
 11 12  1  0
 12 13  1  0
 12 14  1  0
 14 15  2  0
 14 40  1  0
 15 16  1  0
 15 23  1  0
 16 22  1  0
 16 17  2  0
 17 18  1  0
 17 41  1  0
 18 19  2  0
 18 42  1  0
 19 20  1  0
 19 21  1  0
 20 43  1  0
 20 44  1  0
 21 22  2  0
 21 45  1  0
 22 46  1  0
 23 24  1  0
 25 31  1  0
 25 26  2  0
 26 27  1  0
 26 47  1  0
 27 28  2  0
 27 48  1  0
 28 29  1  0
 28 30  1  0
 30 31  2  0
 30 49  1  0
 31 50  1  0
M  CHG  1  23   1
M  END
>  <DOCK_score>  (1) 
-56.689461

>  <SMILES>  (1) 
CCOC(=O)/C=C/[C@H](Nc1[nH]cc(-c2ccc(N)cc2)[nH+]1)c1ccc(Br)cc1

$$$$
