CCc1ccc(-c2c[nH]c(N[C@@H](CC3=C[C@H]4C[C@@H]3[C@@H](O)[C@H]4O)c3ccccc3F)[nH+]2)cc1
     RDKit          3D

 61 65  0  0  1  0  0  0  0  0999 V2000
  132.1316  129.7640  152.5159 C   0  0  0  0  0  0  0  0  0  0  0  0
  130.7224  129.7275  153.1107 C   0  0  0  0  0  0  0  0  0  0  0  0
  130.6930  130.5352  154.3826 C   0  0  0  0  0  0  0  0  0  0  0  0
  130.3889  131.8838  154.3355 C   0  0  0  0  0  0  0  0  0  0  0  0
  130.3552  132.6272  155.4977 C   0  0  0  0  0  0  0  0  0  0  0  0
  130.6338  132.0179  156.7200 C   0  0  0  0  0  0  0  0  0  0  0  0
  130.5989  132.8115  157.9726 C   0  0  0  0  0  0  0  0  0  0  0  0
  130.2754  132.3450  159.2041 C   0  0  0  0  0  0  0  0  0  0  0  0
  130.3737  133.4062  160.0709 N   0  0  0  0  0  0  0  0  0  0  0  0
  130.2050  133.3856  161.0259 H   0  0  0  0  0  0  0  0  0  0  0  0
  130.7457  134.4933  159.3414 C   0  0  0  0  0  0  0  0  0  0  0  0
  130.9486  135.7684  159.8406 N   0  0  0  0  0  0  0  0  0  0  0  0
  130.7627  136.0339  161.2693 C   0  0  1  0  0  0  0  0  0  0  0  0
  131.4478  135.4130  161.8465 H   0  0  0  0  0  0  0  0  0  0  0  0
  131.0478  137.5097  161.5552 C   0  0  0  0  0  0  0  0  0  0  0  0
  132.5365  137.7260  161.6420 C   0  0  0  0  0  0  0  0  0  0  0  0
  133.1413  138.6383  162.3762 C   0  0  0  0  0  0  0  0  0  0  0  0
  134.6545  138.5053  162.1653 C   0  0  1  0  0  0  0  0  0  0  0  0
  135.2902  138.9398  162.9367 H   0  0  0  0  0  0  0  0  0  0  0  0
  134.7601  136.9501  161.9577 C   0  0  0  0  0  0  0  0  0  0  0  0
  133.6053  136.9176  160.8961 C   0  0  2  0  0  0  0  0  0  0  0  0
  133.3030  135.9351  160.5336 H   0  0  0  0  0  0  0  0  0  0  0  0
  134.1700  137.9191  159.8388 C   0  0  1  0  0  0  0  0  0  0  0  0
  134.8828  137.4211  159.1817 H   0  0  0  0  0  0  0  0  0  0  0  0
  133.1078  138.5013  159.0807 O   0  0  0  0  0  0  0  0  0  0  0  0
  134.8789  139.0010  160.7012 C   0  0  1  0  0  0  0  0  0  0  0  0
  135.9430  139.0371  160.4677 H   0  0  0  0  0  0  0  0  0  0  0  0
  134.2769  140.2823  160.5068 O   0  0  0  0  0  0  0  0  0  0  0  0
  129.3430  135.7117  161.6593 C   0  0  0  0  0  0  0  0  0  0  0  0
  128.2924  136.3775  161.0566 C   0  0  0  0  0  0  0  0  0  0  0  0
  126.9902  136.0819  161.4139 C   0  0  0  0  0  0  0  0  0  0  0  0
  126.7371  135.1204  162.3746 C   0  0  0  0  0  0  0  0  0  0  0  0
  127.7859  134.4538  162.9790 C   0  0  0  0  0  0  0  0  0  0  0  0
  129.0906  134.7448  162.6175 C   0  0  0  0  0  0  0  0  0  0  0  0
  130.1165  134.0895  163.2033 F   0  0  0  0  0  0  0  0  0  0  0  0
  130.8793  134.1339  158.0880 N   0  0  0  0  0  0  0  0  0  0  0  0
  131.1370  134.7200  157.3593 H   0  0  0  0  0  0  0  0  0  0  0  0
  130.9448  130.6599  156.7607 C   0  0  0  0  0  0  0  0  0  0  0  0
  130.9754  129.9264  155.5921 C   0  0  0  0  0  0  0  0  0  0  0  0
  132.8386  129.3424  153.2304 H   0  0  0  0  0  0  0  0  0  0  0  0
  132.1528  129.1798  151.5959 H   0  0  0  0  0  0  0  0  0  0  0  0
  132.4073  130.7957  152.2975 H   0  0  0  0  0  0  0  0  0  0  0  0
  130.4467  128.6958  153.3289 H   0  0  0  0  0  0  0  0  0  0  0  0
  130.0154  130.1491  152.3961 H   0  0  0  0  0  0  0  0  0  0  0  0
  130.1728  132.3549  153.3880 H   0  0  0  0  0  0  0  0  0  0  0  0
  130.1134  133.6792  155.4604 H   0  0  0  0  0  0  0  0  0  0  0  0
  129.9966  131.3324  159.4559 H   0  0  0  0  0  0  0  0  0  0  0  0
  131.2142  136.4861  159.2446 H   0  0  0  0  0  0  0  0  0  0  0  0
  130.6379  138.1212  160.7515 H   0  0  0  0  0  0  0  0  0  0  0  0
  130.5837  137.7929  162.5000 H   0  0  0  0  0  0  0  0  0  0  0  0
  132.6538  139.3577  163.0177 H   0  0  0  0  0  0  0  0  0  0  0  0
  135.7211  136.6489  161.5406 H   0  0  0  0  0  0  0  0  0  0  0  0
  134.5114  136.3907  162.8595 H   0  0  0  0  0  0  0  0  0  0  0  0
  132.5741  137.8588  158.5936 H   0  0  0  0  0  0  0  0  0  0  0  0
  134.3865  140.6369  159.6138 H   0  0  0  0  0  0  0  0  0  0  0  0
  128.4890  137.1292  160.3065 H   0  0  0  0  0  0  0  0  0  0  0  0
  126.1700  136.6026  160.9424 H   0  0  0  0  0  0  0  0  0  0  0  0
  125.7194  134.8905  162.6533 H   0  0  0  0  0  0  0  0  0  0  0  0
  127.5879  133.7032  163.7297 H   0  0  0  0  0  0  0  0  0  0  0  0
  131.1612  130.1824  157.7050 H   0  0  0  0  0  0  0  0  0  0  0  0
  131.2163  128.8740  155.6225 H   0  0  0  0  0  0  0  0  0  0  0  0
  1  2  1  0
  1 40  1  0
  1 41  1  0
  1 42  1  0
  2  3  1  0
  2 43  1  0
  2 44  1  0
  3 39  2  0
  3  4  1  0
  4  5  2  0
  4 45  1  0
  5  6  1  0
  5 46  1  0
  6  7  1  0
  6 38  2  0
  7 36  1  0
  7  8  2  0
  8  9  1  0
  8 47  1  0
  9 10  1  0
  9 11  1  0
 11 12  1  0
 11 36  2  0
 12 13  1  0
 12 48  1  0
 13 14  1  1
 13 15  1  0
 13 29  1  0
 15 16  1  0
 15 49  1  0
 15 50  1  0
 16 21  1  0
 16 17  2  0
 17 18  1  0
 17 51  1  0
 18 19  1  1
 18 26  1  0
 18 20  1  0
 20 21  1  0
 20 52  1  0
 20 53  1  0
 21 22  1  6
 21 23  1  0
 23 24  1  6
 23 25  1  0
 23 26  1  0
 25 54  1  0
 26 27  1  6
 26 28  1  0
 28 55  1  0
 29 34  1  0
 29 30  2  0
 30 31  1  0
 30 56  1  0
 31 32  2  0
 31 57  1  0
 32 33  1  0
 32 58  1  0
 33 34  2  0
 33 59  1  0
 34 35  1  0
 36 37  1  0
 38 39  1  0
 38 60  1  0
 39 61  1  0
M  CHG  1  36   1
M  END
>  <DOCK_score>  (1) 
-59.712238

>  <SMILES>  (1) 
CCc1ccc(-c2c[nH]c(N[C@@H](CC3=C[C@H]4C[C@@H]3[C@@H](O)[C@H]4O)c3ccccc3F)[nH+]2)cc1

$$$$
