Cn1nccc1[C@@H](CN1CC=CC1)Nc1[nH]cc(-c2ccc(N)cc2)[nH+]1
     RDKit          3D

 50 53  0  0  1  0  0  0  0  0999 V2000
  130.0597  136.0251  163.2860 C   0  0  0  0  0  0  0  0  0  0  0  0
  130.2686  136.9315  162.1543 N   0  0  0  0  0  0  0  0  0  0  0  0
  130.6569  138.2750  162.2352 N   0  0  0  0  0  0  0  0  0  0  0  0
  130.7338  138.7522  161.0194 C   0  0  0  0  0  0  0  0  0  0  0  0
  130.4025  137.7281  160.1263 C   0  0  0  0  0  0  0  0  0  0  0  0
  130.1238  136.6189  160.8496 C   0  0  0  0  0  0  0  0  0  0  0  0
  129.7181  135.2767  160.2973 C   0  0  1  0  0  0  0  0  0  0  0  0
  130.0574  134.4892  160.9703 H   0  0  0  0  0  0  0  0  0  0  0  0
  128.1945  135.2170  160.1698 C   0  0  0  0  0  0  0  0  0  0  0  0
  127.7634  133.8144  160.1017 N   0  0  0  0  0  0  0  0  0  0  0  0
  127.5771  133.2495  161.4594 C   0  0  0  0  0  0  0  0  0  0  0  0
  126.4087  132.2984  161.3405 C   0  0  0  0  0  0  0  0  0  0  0  0
  125.7477  132.5551  160.2393 C   0  0  0  0  0  0  0  0  0  0  0  0
  126.4080  133.7033  159.5120 C   0  0  0  0  0  0  0  0  0  0  0  0
  130.3262  135.0873  158.9781 N   0  0  0  0  0  0  0  0  0  0  0  0
  130.0952  133.9200  158.2706 C   0  0  0  0  0  0  0  0  0  0  0  0
  129.3268  132.8781  158.6896 N   0  0  0  0  0  0  0  0  0  0  0  0
  128.8464  132.8200  159.5302 H   0  0  0  0  0  0  0  0  0  0  0  0
  129.3576  131.9227  157.7014 C   0  0  0  0  0  0  0  0  0  0  0  0
  130.1385  132.4113  156.7063 C   0  0  0  0  0  0  0  0  0  0  0  0
  130.4557  131.7262  155.4294 C   0  0  0  0  0  0  0  0  0  0  0  0
  130.0968  132.3107  154.2157 C   0  0  0  0  0  0  0  0  0  0  0  0
  130.3979  131.6750  153.0297 C   0  0  0  0  0  0  0  0  0  0  0  0
  131.0480  130.4467  153.0440 C   0  0  0  0  0  0  0  0  0  0  0  0
  131.3462  129.8015  151.8414 N   0  0  0  0  0  0  0  0  0  0  0  0
  131.4019  129.8593  154.2530 C   0  0  0  0  0  0  0  0  0  0  0  0
  131.1080  130.4943  155.4412 C   0  0  0  0  0  0  0  0  0  0  0  0
  130.5813  133.6359  157.0867 N   0  0  0  0  0  0  0  0  0  0  0  0
  131.1615  134.2114  156.5642 H   0  0  0  0  0  0  0  0  0  0  0  0
  130.9956  135.5197  163.5244 H   0  0  0  0  0  0  0  0  0  0  0  0
  129.7245  136.5961  164.1518 H   0  0  0  0  0  0  0  0  0  0  0  0
  129.3036  135.2850  163.0241 H   0  0  0  0  0  0  0  0  0  0  0  0
  131.0067  139.7623  160.7516 H   0  0  0  0  0  0  0  0  0  0  0  0
  130.3744  137.8082  159.0496 H   0  0  0  0  0  0  0  0  0  0  0  0
  127.7384  135.6958  161.0363 H   0  0  0  0  0  0  0  0  0  0  0  0
  127.8852  135.7367  159.2629 H   0  0  0  0  0  0  0  0  0  0  0  0
  128.4723  132.7108  161.7703 H   0  0  0  0  0  0  0  0  0  0  0  0
  127.3471  134.0431  162.1703 H   0  0  0  0  0  0  0  0  0  0  0  0
  126.1578  131.5265  162.0530 H   0  0  0  0  0  0  0  0  0  0  0  0
  124.8672  132.0277  159.9034 H   0  0  0  0  0  0  0  0  0  0  0  0
  125.8489  134.6247  159.6743 H   0  0  0  0  0  0  0  0  0  0  0  0
  126.4768  133.4870  158.4457 H   0  0  0  0  0  0  0  0  0  0  0  0
  130.8909  135.7796  158.6004 H   0  0  0  0  0  0  0  0  0  0  0  0
  128.8526  130.9682  157.7133 H   0  0  0  0  0  0  0  0  0  0  0  0
  129.5871  133.2628  154.2043 H   0  0  0  0  0  0  0  0  0  0  0  0
  130.1240  132.1296  152.0891 H   0  0  0  0  0  0  0  0  0  0  0  0
  131.8001  128.9440  151.8507 H   0  0  0  0  0  0  0  0  0  0  0  0
  131.0995  130.2104  150.9974 H   0  0  0  0  0  0  0  0  0  0  0  0
  131.9072  128.9049  154.2619 H   0  0  0  0  0  0  0  0  0  0  0  0
  131.3833  130.0377  156.3805 H   0  0  0  0  0  0  0  0  0  0  0  0
  1  2  1  0
  1 30  1  0
  1 31  1  0
  1 32  1  0
  2  6  1  0
  2  3  1  0
  3  4  2  0
  4  5  1  0
  4 33  1  0
  5  6  2  0
  5 34  1  0
  6  7  1  0
  7  8  1  1
  7  9  1  0
  7 15  1  0
  9 10  1  0
  9 35  1  0
  9 36  1  0
 10 14  1  0
 10 11  1  0
 11 12  1  0
 11 37  1  0
 11 38  1  0
 12 13  2  0
 12 39  1  0
 13 14  1  0
 13 40  1  0
 14 41  1  0
 14 42  1  0
 15 43  1  0
 16 15  1  0
 16 28  2  0
 16 17  1  0
 17 18  1  0
 17 19  1  0
 19 20  2  0
 19 44  1  0
 20 21  1  0
 20 28  1  0
 21 27  1  0
 21 22  2  0
 22 23  1  0
 22 45  1  0
 23 24  2  0
 23 46  1  0
 24 25  1  0
 24 26  1  0
 25 47  1  0
 25 48  1  0
 26 27  2  0
 26 49  1  0
 27 50  1  0
 28 29  1  0
M  CHG  1  28   1
M  END
>  <DOCK_score>  (1) 
-56.215874

>  <SMILES>  (1) 
Cn1nccc1[C@@H](CN1CC=CC1)Nc1[nH]cc(-c2ccc(N)cc2)[nH+]1

$$$$
