Oc1ccc2c(c1)C(N[C@@H]1C[C@H]3C[C@@H]1C[C@H]3[NH2+][C@H](CC1CCC1)c1ccccc1)c1cc(O)ccc1-2
     RDKit          3D

 73 79  0  0  1  0  0  0  0  0999 V2000
  133.5328  135.7216  167.2981 O   0  0  0  0  0  0  0  0  0  0  0  0
  132.3842  135.9204  166.5995 C   0  0  0  0  0  0  0  0  0  0  0  0
  131.7266  137.1404  166.6772 C   0  0  0  0  0  0  0  0  0  0  0  0
  130.5616  137.3465  165.9698 C   0  0  0  0  0  0  0  0  0  0  0  0
  130.0389  136.3266  165.1718 C   0  0  0  0  0  0  0  0  0  0  0  0
  130.7041  135.1053  165.0986 C   0  0  0  0  0  0  0  0  0  0  0  0
  131.8684  134.9032  165.8072 C   0  0  0  0  0  0  0  0  0  0  0  0
  129.9148  134.2122  164.1731 C   0  0  0  0  0  0  0  0  0  0  0  0
  130.7380  133.8255  163.0194 N   0  0  0  0  0  0  0  0  0  0  0  0
  131.5493  134.9562  162.5491 C   0  0  2  0  0  0  0  0  0  0  0  0
  131.9403  135.5222  163.3945 H   0  0  0  0  0  0  0  0  0  0  0  0
  130.7131  135.8730  161.6273 C   0  0  0  0  0  0  0  0  0  0  0  0
  131.4789  135.8370  160.2361 C   0  0  1  0  0  0  0  0  0  0  0  0
  131.2644  136.6490  159.5414 H   0  0  0  0  0  0  0  0  0  0  0  0
  132.9626  135.6978  160.7282 C   0  0  0  0  0  0  0  0  0  0  0  0
  132.7166  134.4498  161.6476 C   0  0  2  0  0  0  0  0  0  0  0  0
  133.5883  134.0584  162.1720 H   0  0  0  0  0  0  0  0  0  0  0  0
  132.0355  133.4771  160.6370 C   0  0  0  0  0  0  0  0  0  0  0  0
  131.2159  134.3959  159.7022 C   0  0  1  0  0  0  0  0  0  0  0  0
  131.5647  134.3000  158.6740 H   0  0  0  0  0  0  0  0  0  0  0  0
  129.7861  134.0704  159.7893 N   0  0  0  0  0  0  0  0  0  0  0  0
  129.2407  134.8784  159.5290 H   0  0  0  0  0  0  0  0  0  0  0  0
  129.5592  133.8021  160.7352 H   0  0  0  0  0  0  0  0  0  0  0  0
  129.4803  132.9592  158.8784 C   0  0  2  0  0  0  0  0  0  0  0  0
  130.2872  132.2273  158.9146 H   0  0  0  0  0  0  0  0  0  0  0  0
  129.3399  133.4933  157.4515 C   0  0  0  0  0  0  0  0  0  0  0  0
  129.5203  132.3448  156.4569 C   0  0  0  0  0  0  0  0  0  0  0  0
  130.9122  131.6936  156.5136 C   0  0  0  0  0  0  0  0  0  0  0  0
  130.8538  131.6199  154.9788 C   0  0  0  0  0  0  0  0  0  0  0  0
  129.8826  132.8107  155.0370 C   0  0  0  0  0  0  0  0  0  0  0  0
  128.1896  132.3051  159.2993 C   0  0  0  0  0  0  0  0  0  0  0  0
  127.9855  130.9595  159.0570 C   0  0  0  0  0  0  0  0  0  0  0  0
  126.8031  130.3587  159.4467 C   0  0  0  0  0  0  0  0  0  0  0  0
  125.8215  131.1052  160.0713 C   0  0  0  0  0  0  0  0  0  0  0  0
  126.0235  132.4520  160.3089 C   0  0  0  0  0  0  0  0  0  0  0  0
  127.2075  133.0519  159.9227 C   0  0  0  0  0  0  0  0  0  0  0  0
  128.7304  135.0280  163.7160 C   0  0  0  0  0  0  0  0  0  0  0  0
  127.6791  134.7392  162.8734 C   0  0  0  0  0  0  0  0  0  0  0  0
  126.7061  135.6979  162.6235 C   0  0  0  0  0  0  0  0  0  0  0  0
  125.6688  135.4133  161.7929 O   0  0  0  0  0  0  0  0  0  0  0  0
  126.7930  136.9471  163.2228 C   0  0  0  0  0  0  0  0  0  0  0  0
  127.8434  137.2401  164.0657 C   0  0  0  0  0  0  0  0  0  0  0  0
  128.8241  136.2791  164.3208 C   0  0  0  0  0  0  0  0  0  0  0  0
  133.8129  136.4859  167.8201 H   0  0  0  0  0  0  0  0  0  0  0  0
  132.1288  137.9305  167.2940 H   0  0  0  0  0  0  0  0  0  0  0  0
  130.0527  138.2968  166.0332 H   0  0  0  0  0  0  0  0  0  0  0  0
  132.3799  133.9540  165.7462 H   0  0  0  0  0  0  0  0  0  0  0  0
  129.5764  133.3239  164.7066 H   0  0  0  0  0  0  0  0  0  0  0  0
  131.3189  133.0305  163.2399 H   0  0  0  0  0  0  0  0  0  0  0  0
  129.7000  135.4847  161.5232 H   0  0  0  0  0  0  0  0  0  0  0  0
  130.6929  136.8898  162.0196 H   0  0  0  0  0  0  0  0  0  0  0  0
  133.2876  136.5680  161.2986 H   0  0  0  0  0  0  0  0  0  0  0  0
  133.6457  135.4736  159.9088 H   0  0  0  0  0  0  0  0  0  0  0  0
  131.3775  132.7840  161.1612 H   0  0  0  0  0  0  0  0  0  0  0  0
  132.7886  132.9313  160.0685 H   0  0  0  0  0  0  0  0  0  0  0  0
  130.1007  134.2528  157.2714 H   0  0  0  0  0  0  0  0  0  0  0  0
  128.3506  133.9326  157.3239 H   0  0  0  0  0  0  0  0  0  0  0  0
  128.6999  131.6277  156.4851 H   0  0  0  0  0  0  0  0  0  0  0  0
  131.6902  132.3581  156.8895 H   0  0  0  0  0  0  0  0  0  0  0  0
  130.9181  130.7170  156.9978 H   0  0  0  0  0  0  0  0  0  0  0  0
  130.3989  130.7034  154.6026 H   0  0  0  0  0  0  0  0  0  0  0  0
  131.8018  131.8528  154.4939 H   0  0  0  0  0  0  0  0  0  0  0  0
  129.0572  132.7361  154.3290 H   0  0  0  0  0  0  0  0  0  0  0  0
  130.3791  133.7807  155.0090 H   0  0  0  0  0  0  0  0  0  0  0  0
  128.7509  130.3771  158.5659 H   0  0  0  0  0  0  0  0  0  0  0  0
  126.6451  129.3067  159.2607 H   0  0  0  0  0  0  0  0  0  0  0  0
  124.8966  130.6364  160.3732 H   0  0  0  0  0  0  0  0  0  0  0  0
  125.2565  133.0353  160.7965 H   0  0  0  0  0  0  0  0  0  0  0  0
  127.3654  134.1041  160.1083 H   0  0  0  0  0  0  0  0  0  0  0  0
  127.6116  133.7672  162.4077 H   0  0  0  0  0  0  0  0  0  0  0  0
  125.0433  136.1422  161.6809 H   0  0  0  0  0  0  0  0  0  0  0  0
  126.0357  137.6920  163.0272 H   0  0  0  0  0  0  0  0  0  0  0  0
  127.9073  138.2130  164.5304 H   0  0  0  0  0  0  0  0  0  0  0  0
  1  2  1  0
  1 44  1  0
  2  7  1  0
  2  3  2  0
  3  4  1  0
  3 45  1  0
  4  5  2  0
  4 46  1  0
  5 43  1  0
  5  6  1  0
  6  7  2  0
  6  8  1  0
  7 47  1  0
  8  9  1  0
  8 37  1  0
  8 48  1  0
  9 10  1  0
  9 49  1  0
 10 11  1  1
 10 16  1  0
 10 12  1  0
 12 13  1  0
 12 50  1  0
 12 51  1  0
 13 14  1  6
 13 19  1  0
 13 15  1  0
 15 16  1  0
 15 52  1  0
 15 53  1  0
 16 17  1  1
 16 18  1  0
 18 19  1  0
 18 54  1  0
 18 55  1  0
 19 20  1  6
 19 21  1  0
 21 22  1  0
 21 23  1  0
 21 24  1  0
 24 25  1  6
 24 26  1  0
 24 31  1  0
 26 27  1  0
 26 56  1  0
 26 57  1  0
 27 30  1  0
 27 28  1  0
 27 58  1  0
 28 29  1  0
 28 59  1  0
 28 60  1  0
 29 30  1  0
 29 61  1  0
 29 62  1  0
 30 63  1  0
 30 64  1  0
 31 36  1  0
 31 32  2  0
 32 33  1  0
 32 65  1  0
 33 34  2  0
 33 66  1  0
 34 35  1  0
 34 67  1  0
 35 36  2  0
 35 68  1  0
 36 69  1  0
 37 43  2  0
 37 38  1  0
 38 39  2  0
 38 70  1  0
 39 40  1  0
 39 41  1  0
 40 71  1  0
 41 42  2  0
 41 72  1  0
 42 43  1  0
 42 73  1  0
M  CHG  1  21   1
M  END
>  <DOCK_score>  (1) 
-47.66399

>  <SMILES>  (1) 
Oc1ccc2c(c1)C(N[C@@H]1C[C@H]3C[C@@H]1C[C@H]3[NH2+][C@H](CC1CCC1)c1ccccc1)c1cc(O)ccc1-2

$$$$
