Cc1ccc2c(c1)CC([NH+]=C(N[C@H]1CCC(=O)NC1)N[C@H]1COc3ccccc3C1)CO2
     RDKit          3D

 63 67  0  0  1  0  0  0  0  0999 V2000
  136.1914  141.1450  159.9251 C   0  0  0  0  0  0  0  0  0  0  0  0
  134.9030  140.6667  160.5434 C   0  0  0  0  0  0  0  0  0  0  0  0
  134.2847  141.4208  161.5238 C   0  0  0  0  0  0  0  0  0  0  0  0
  133.1056  140.9814  162.0899 C   0  0  0  0  0  0  0  0  0  0  0  0
  132.5356  139.7808  161.6775 C   0  0  0  0  0  0  0  0  0  0  0  0
  133.1553  139.0298  160.6945 C   0  0  0  0  0  0  0  0  0  0  0  0
  134.3395  139.4751  160.1309 C   0  0  0  0  0  0  0  0  0  0  0  0
  132.5689  137.7261  160.2153 C   0  0  0  0  0  0  0  0  0  0  0  0
  131.5510  137.2122  161.2364 C   0  0  2  0  0  0  0  0  0  0  0  0
  130.7763  136.1145  160.6520 N   0  0  0  0  0  0  0  0  0  0  0  0
  130.9542  135.8254  159.7434 H   0  0  0  0  0  0  0  0  0  0  0  0
  129.8480  135.5266  161.3532 C   0  0  0  0  0  0  0  0  0  0  0  0
  129.5959  135.9365  162.6411 N   0  0  0  0  0  0  0  0  0  0  0  0
  128.2475  135.8098  163.1994 C   0  0  1  0  0  0  0  0  0  0  0  0
  127.9443  134.7628  163.1955 H   0  0  0  0  0  0  0  0  0  0  0  0
  128.2335  136.3442  164.6367 C   0  0  0  0  0  0  0  0  0  0  0  0
  126.8684  136.0338  165.2558 C   0  0  0  0  0  0  0  0  0  0  0  0
  125.7741  136.4603  164.3199 C   0  0  0  0  0  0  0  0  0  0  0  0
  124.6546  136.5913  164.7678 O   0  0  0  0  0  0  0  0  0  0  0  0
  125.9675  136.7032  163.0231 N   0  0  0  0  0  0  0  0  0  0  0  0
  127.2649  136.6320  162.3629 C   0  0  0  0  0  0  0  0  0  0  0  0
  129.1210  134.4966  160.8047 N   0  0  0  0  0  0  0  0  0  0  0  0
  129.7287  133.6286  159.7931 C   0  0  1  0  0  0  0  0  0  0  0  0
  130.8031  133.5613  159.9643 H   0  0  0  0  0  0  0  0  0  0  0  0
  129.1042  132.2295  159.8696 C   0  0  0  0  0  0  0  0  0  0  0  0
  129.7859  131.3805  158.9453 O   0  0  0  0  0  0  0  0  0  0  0  0
  129.9578  131.8324  157.6757 C   0  0  0  0  0  0  0  0  0  0  0  0
  130.2807  130.9136  156.6818 C   0  0  0  0  0  0  0  0  0  0  0  0
  130.4678  131.3345  155.3814 C   0  0  0  0  0  0  0  0  0  0  0  0
  130.3347  132.6737  155.0631 C   0  0  0  0  0  0  0  0  0  0  0  0
  130.0126  133.5882  156.0466 C   0  0  0  0  0  0  0  0  0  0  0  0
  129.8217  133.1711  157.3535 C   0  0  0  0  0  0  0  0  0  0  0  0
  129.4623  134.1979  158.3973 C   0  0  0  0  0  0  0  0  0  0  0  0
  130.6124  138.3681  161.6058 C   0  0  0  0  0  0  0  0  0  0  0  0
  131.3787  139.3775  162.2642 O   0  0  0  0  0  0  0  0  0  0  0  0
  135.9695  141.7621  159.0545 H   0  0  0  0  0  0  0  0  0  0  0  0
  136.7484  141.7328  160.6547 H   0  0  0  0  0  0  0  0  0  0  0  0
  136.7883  140.2859  159.6188 H   0  0  0  0  0  0  0  0  0  0  0  0
  134.7240  142.3533  161.8459 H   0  0  0  0  0  0  0  0  0  0  0  0
  132.6232  141.5715  162.8550 H   0  0  0  0  0  0  0  0  0  0  0  0
  134.8242  138.8883  159.3647 H   0  0  0  0  0  0  0  0  0  0  0  0
  133.3658  136.9919  160.0964 H   0  0  0  0  0  0  0  0  0  0  0  0
  132.0739  137.8824  159.2567 H   0  0  0  0  0  0  0  0  0  0  0  0
  132.0703  136.8613  162.1282 H   0  0  0  0  0  0  0  0  0  0  0  0
  130.3109  136.3096  163.1801 H   0  0  0  0  0  0  0  0  0  0  0  0
  128.3965  137.4219  164.6292 H   0  0  0  0  0  0  0  0  0  0  0  0
  129.0183  135.8584  165.2165 H   0  0  0  0  0  0  0  0  0  0  0  0
  126.7898  134.9624  165.4405 H   0  0  0  0  0  0  0  0  0  0  0  0
  126.7681  136.5709  166.1990 H   0  0  0  0  0  0  0  0  0  0  0  0
  125.1963  136.9426  162.4855 H   0  0  0  0  0  0  0  0  0  0  0  0
  127.1464  136.1652  161.3850 H   0  0  0  0  0  0  0  0  0  0  0  0
  127.6602  137.6398  162.2355 H   0  0  0  0  0  0  0  0  0  0  0  0
  128.2056  134.3447  161.0876 H   0  0  0  0  0  0  0  0  0  0  0  0
  129.2122  131.8340  160.8797 H   0  0  0  0  0  0  0  0  0  0  0  0
  128.0477  132.2842  159.6073 H   0  0  0  0  0  0  0  0  0  0  0  0
  130.3852  129.8675  156.9293 H   0  0  0  0  0  0  0  0  0  0  0  0
  130.7178  130.6185  154.6124 H   0  0  0  0  0  0  0  0  0  0  0  0
  130.4829  133.0044  154.0457 H   0  0  0  0  0  0  0  0  0  0  0  0
  129.9095  134.6335  155.7955 H   0  0  0  0  0  0  0  0  0  0  0  0
  128.4069  134.4545  158.3056 H   0  0  0  0  0  0  0  0  0  0  0  0
  130.0668  135.0927  158.2491 H   0  0  0  0  0  0  0  0  0  0  0  0
  130.1636  138.7798  160.7019 H   0  0  0  0  0  0  0  0  0  0  0  0
  129.8298  138.0066  162.2730 H   0  0  0  0  0  0  0  0  0  0  0  0
  1  2  1  0
  1 36  1  0
  1 37  1  0
  1 38  1  0
  2  7  2  0
  2  3  1  0
  3  4  2  0
  3 39  1  0
  4  5  1  0
  4 40  1  0
  5 35  1  0
  5  6  2  0
  6  7  1  0
  6  8  1  0
  7 41  1  0
  8  9  1  0
  8 42  1  0
  8 43  1  0
  9 10  1  0
  9 34  1  0
  9 44  1  1
 10 11  1  0
 12 10  2  0
 12 13  1  0
 12 22  1  0
 13 14  1  0
 13 45  1  0
 14 15  1  1
 14 21  1  0
 14 16  1  0
 16 17  1  0
 16 46  1  0
 16 47  1  0
 17 18  1  0
 17 48  1  0
 17 49  1  0
 18 19  2  0
 18 20  1  0
 20 21  1  0
 20 50  1  0
 21 51  1  0
 21 52  1  0
 22 23  1  0
 22 53  1  0
 23 24  1  1
 23 33  1  0
 23 25  1  0
 25 26  1  0
 25 54  1  0
 25 55  1  0
 26 27  1  0
 27 32  2  0
 27 28  1  0
 28 29  2  0
 28 56  1  0
 29 30  1  0
 29 57  1  0
 30 31  2  0
 30 58  1  0
 31 32  1  0
 31 59  1  0
 32 33  1  0
 33 60  1  0
 33 61  1  0
 34 35  1  0
 34 62  1  0
 34 63  1  0
M  CHG  1  10   1
M  END
>  <DOCK_score>  (1) 
-45.383762

>  <SMILES>  (1) 
Cc1ccc2c(c1)CC([NH+]=C(N[C@H]1CCC(=O)NC1)N[C@H]1COc3ccccc3C1)CO2

$$$$
