C[C@@H](c1ccccc1)C1(O)C=C([NH2+]C(Cc2ccccc2)Cc2cccnc2)CCC1
     RDKit          3D

 64 67  0  0  1  0  0  0  0  0999 V2000
  132.4231  137.4774  163.7670 C   0  0  0  0  0  0  0  0  0  0  0  0
  132.0916  137.2648  162.2886 C   0  0  1  0  0  0  0  0  0  0  0  0
  131.0363  137.4781  162.1185 H   0  0  0  0  0  0  0  0  0  0  0  0
  132.9330  138.1898  161.4471 C   0  0  0  0  0  0  0  0  0  0  0  0
  132.4524  138.6509  160.2358 C   0  0  0  0  0  0  0  0  0  0  0  0
  133.2225  139.5023  159.4657 C   0  0  0  0  0  0  0  0  0  0  0  0
  134.4763  139.8861  159.9032 C   0  0  0  0  0  0  0  0  0  0  0  0
  134.9590  139.4206  161.1121 C   0  0  0  0  0  0  0  0  0  0  0  0
  134.1874  138.5723  161.8839 C   0  0  0  0  0  0  0  0  0  0  0  0
  132.3873  135.8140  161.9030 C   0  0  2  0  0  0  0  0  0  0  0  0
  133.7698  135.5374  162.1353 O   0  0  0  0  0  0  0  0  0  0  0  0
  132.0772  135.6129  160.4486 C   0  0  0  0  0  0  0  0  0  0  0  0
  131.4643  134.5759  159.9745 C   0  0  0  0  0  0  0  0  0  0  0  0
  131.2498  134.5155  158.5943 N   0  0  0  0  0  0  0  0  0  0  0  0
  131.6307  135.3418  158.1582 H   0  0  0  0  0  0  0  0  0  0  0  0
  131.7049  133.6969  158.2188 H   0  0  0  0  0  0  0  0  0  0  0  0
  129.8076  134.4407  158.3258 C   0  0  2  0  0  0  0  0  0  0  0  0
  129.5789  133.8844  156.9189 C   0  0  0  0  0  0  0  0  0  0  0  0
  130.1806  132.5063  156.8197 C   0  0  0  0  0  0  0  0  0  0  0  0
  130.6593  132.0468  155.6070 C   0  0  0  0  0  0  0  0  0  0  0  0
  131.2157  130.7845  155.5171 C   0  0  0  0  0  0  0  0  0  0  0  0
  131.2837  129.9777  156.6374 C   0  0  0  0  0  0  0  0  0  0  0  0
  130.8001  130.4352  157.8490 C   0  0  0  0  0  0  0  0  0  0  0  0
  130.2486  131.6994  157.9401 C   0  0  0  0  0  0  0  0  0  0  0  0
  129.1968  135.8398  158.4265 C   0  0  0  0  0  0  0  0  0  0  0  0
  127.7171  135.7628  158.1511 C   0  0  0  0  0  0  0  0  0  0  0  0
  126.8200  135.5525  159.1875 C   0  0  0  0  0  0  0  0  0  0  0  0
  125.4678  135.4935  158.8877 C   0  0  0  0  0  0  0  0  0  0  0  0
  125.0623  135.6344  157.5737 C   0  0  0  0  0  0  0  0  0  0  0  0
  125.9443  135.8283  156.6129 N   0  0  0  0  0  0  0  0  0  0  0  0
  127.2378  135.8953  156.8619 C   0  0  0  0  0  0  0  0  0  0  0  0
  130.9693  133.4350  160.8141 C   0  0  0  0  0  0  0  0  0  0  0  0
  131.6452  133.4586  162.1868 C   0  0  0  0  0  0  0  0  0  0  0  0
  131.5318  134.8775  162.7588 C   0  0  0  0  0  0  0  0  0  0  0  0
  131.8147  136.8084  164.3756 H   0  0  0  0  0  0  0  0  0  0  0  0
  133.4785  137.2641  163.9371 H   0  0  0  0  0  0  0  0  0  0  0  0
  132.2125  138.5111  164.0417 H   0  0  0  0  0  0  0  0  0  0  0  0
  131.4741  138.3484  159.8924 H   0  0  0  0  0  0  0  0  0  0  0  0
  132.8455  139.8656  158.5210 H   0  0  0  0  0  0  0  0  0  0  0  0
  135.0792  140.5492  159.3003 H   0  0  0  0  0  0  0  0  0  0  0  0
  135.9388  139.7201  161.4537 H   0  0  0  0  0  0  0  0  0  0  0  0
  134.5644  138.2088  162.8284 H   0  0  0  0  0  0  0  0  0  0  0  0
  134.0599  135.7149  163.0405 H   0  0  0  0  0  0  0  0  0  0  0  0
  132.3803  136.3830  159.7549 H   0  0  0  0  0  0  0  0  0  0  0  0
  129.3355  133.7845  159.0571 H   0  0  0  0  0  0  0  0  0  0  0  0
  128.5088  133.8288  156.7196 H   0  0  0  0  0  0  0  0  0  0  0  0
  130.0511  134.5405  156.1877 H   0  0  0  0  0  0  0  0  0  0  0  0
  130.6022  132.6754  154.7307 H   0  0  0  0  0  0  0  0  0  0  0  0
  131.5931  130.4270  154.5704 H   0  0  0  0  0  0  0  0  0  0  0  0
  131.7142  128.9898  156.5662 H   0  0  0  0  0  0  0  0  0  0  0  0
  130.8528  129.8047  158.7243 H   0  0  0  0  0  0  0  0  0  0  0  0
  129.8705  132.0568  158.8866 H   0  0  0  0  0  0  0  0  0  0  0  0
  129.3597  136.2360  159.4287 H   0  0  0  0  0  0  0  0  0  0  0  0
  129.6689  136.4959  157.6953 H   0  0  0  0  0  0  0  0  0  0  0  0
  127.1663  135.4413  160.2043 H   0  0  0  0  0  0  0  0  0  0  0  0
  124.7406  135.3345  159.6703 H   0  0  0  0  0  0  0  0  0  0  0  0
  124.0111  135.5855  157.3314 H   0  0  0  0  0  0  0  0  0  0  0  0
  127.9302  136.0552  156.0487 H   0  0  0  0  0  0  0  0  0  0  0  0
  131.1980  132.4933  160.3150 H   0  0  0  0  0  0  0  0  0  0  0  0
  129.8904  133.5238  160.9409 H   0  0  0  0  0  0  0  0  0  0  0  0
  132.6960  133.1884  162.0826 H   0  0  0  0  0  0  0  0  0  0  0  0
  131.1468  132.7542  162.8527 H   0  0  0  0  0  0  0  0  0  0  0  0
  131.8936  134.8878  163.7870 H   0  0  0  0  0  0  0  0  0  0  0  0
  130.4925  135.2044  162.7329 H   0  0  0  0  0  0  0  0  0  0  0  0
  1  2  1  0
  1 35  1  0
  1 36  1  0
  1 37  1  0
  2  3  1  1
  2  4  1  0
  2 10  1  0
  4  9  1  0
  4  5  2  0
  5  6  1  0
  5 38  1  0
  6  7  2  0
  6 39  1  0
  7  8  1  0
  7 40  1  0
  8  9  2  0
  8 41  1  0
  9 42  1  0
 10 34  1  0
 10 11  1  6
 10 12  1  0
 11 43  1  0
 12 13  2  0
 12 44  1  0
 13 14  1  0
 13 32  1  0
 14 15  1  0
 14 16  1  0
 14 17  1  0
 17 18  1  0
 17 25  1  0
 17 45  1  1
 18 19  1  0
 18 46  1  0
 18 47  1  0
 19 24  1  0
 19 20  2  0
 20 21  1  0
 20 48  1  0
 21 22  2  0
 21 49  1  0
 22 23  1  0
 22 50  1  0
 23 24  2  0
 23 51  1  0
 24 52  1  0
 25 26  1  0
 25 53  1  0
 25 54  1  0
 26 31  1  0
 26 27  2  0
 27 28  1  0
 27 55  1  0
 28 29  2  0
 28 56  1  0
 29 30  1  0
 29 57  1  0
 30 31  2  0
 31 58  1  0
 32 33  1  0
 32 59  1  0
 32 60  1  0
 33 34  1  0
 33 61  1  0
 33 62  1  0
 34 63  1  0
 34 64  1  0
M  CHG  1  14   1
M  END
>  <DOCK_score>  (1) 
-60.630989

>  <SMILES>  (1) 
C[C@@H](c1ccccc1)C1(O)C=C([NH2+]C(Cc2ccccc2)Cc2cccnc2)CCC1

$$$$
