Cn1nccc1[C@@H](Nc1[nH]cc(-c2ccc(N)cc2)[nH+]1)C1Cc2ccccc2C1
     RDKit          3D

 54 58  0  0  1  0  0  0  0  0999 V2000
  127.9020  136.0173  157.2840 C   0  0  0  0  0  0  0  0  0  0  0  0
  127.3946  135.5702  158.5835 N   0  0  0  0  0  0  0  0  0  0  0  0
  126.0527  135.3290  158.9057 N   0  0  0  0  0  0  0  0  0  0  0  0
  125.9943  134.9502  160.1567 C   0  0  0  0  0  0  0  0  0  0  0  0
  127.2957  134.9329  160.6691 C   0  0  0  0  0  0  0  0  0  0  0  0
  128.1374  135.3152  159.6809 C   0  0  0  0  0  0  0  0  0  0  0  0
  129.6354  135.4399  159.7885 C   0  0  1  0  0  0  0  0  0  0  0  0
  130.0087  134.7187  160.5155 H   0  0  0  0  0  0  0  0  0  0  0  0
  130.2425  135.1750  158.4818 N   0  0  0  0  0  0  0  0  0  0  0  0
  130.0523  133.9499  157.8656 C   0  0  0  0  0  0  0  0  0  0  0  0
  129.3215  132.9165  158.3653 N   0  0  0  0  0  0  0  0  0  0  0  0
  128.8444  132.9055  159.2099 H   0  0  0  0  0  0  0  0  0  0  0  0
  129.3845  131.8907  157.4520 C   0  0  0  0  0  0  0  0  0  0  0  0
  130.1512  132.3274  156.4226 C   0  0  0  0  0  0  0  0  0  0  0  0
  130.4975  131.5562  155.2036 C   0  0  0  0  0  0  0  0  0  0  0  0
  130.1226  132.0305  153.9474 C   0  0  0  0  0  0  0  0  0  0  0  0
  130.4501  131.3146  152.8154 C   0  0  0  0  0  0  0  0  0  0  0  0
  131.1433  130.1151  152.9268 C   0  0  0  0  0  0  0  0  0  0  0  0
  131.4689  129.3886  151.7788 N   0  0  0  0  0  0  0  0  0  0  0  0
  131.5135  129.6375  154.1784 C   0  0  0  0  0  0  0  0  0  0  0  0
  131.1931  130.3531  155.3128 C   0  0  0  0  0  0  0  0  0  0  0  0
  130.5417  133.5962  156.7023 N   0  0  0  0  0  0  0  0  0  0  0  0
  131.0967  134.1521  156.1331 H   0  0  0  0  0  0  0  0  0  0  0  0
  129.9979  136.8556  160.2416 C   0  0  0  0  0  0  0  0  0  0  0  0
  131.5097  136.9687  160.5311 C   0  0  0  0  0  0  0  0  0  0  0  0
  131.6185  137.9204  161.7032 C   0  0  0  0  0  0  0  0  0  0  0  0
  132.7059  138.6297  162.1853 C   0  0  0  0  0  0  0  0  0  0  0  0
  132.5673  139.4505  163.2872 C   0  0  0  0  0  0  0  0  0  0  0  0
  131.3392  139.5649  163.9120 C   0  0  0  0  0  0  0  0  0  0  0  0
  130.2538  138.8581  163.4329 C   0  0  0  0  0  0  0  0  0  0  0  0
  130.3908  138.0347  162.3278 C   0  0  0  0  0  0  0  0  0  0  0  0
  129.3729  137.1680  161.6179 C   0  0  0  0  0  0  0  0  0  0  0  0
  128.1301  135.1495  156.6650 H   0  0  0  0  0  0  0  0  0  0  0  0
  127.1465  136.6278  156.7895 H   0  0  0  0  0  0  0  0  0  0  0  0
  128.8068  136.6069  157.4307 H   0  0  0  0  0  0  0  0  0  0  0  0
  125.0965  134.6942  160.6996 H   0  0  0  0  0  0  0  0  0  0  0  0
  127.5787  134.6622  161.6755 H   0  0  0  0  0  0  0  0  0  0  0  0
  130.7778  135.8579  158.0482 H   0  0  0  0  0  0  0  0  0  0  0  0
  128.9136  130.9227  157.5382 H   0  0  0  0  0  0  0  0  0  0  0  0
  129.5796  132.9601  153.8607 H   0  0  0  0  0  0  0  0  0  0  0  0
  130.1638  131.6838  151.8417 H   0  0  0  0  0  0  0  0  0  0  0  0
  131.9529  128.5515  151.8557 H   0  0  0  0  0  0  0  0  0  0  0  0
  131.2110  129.7211  150.9049 H   0  0  0  0  0  0  0  0  0  0  0  0
  132.0521  128.7053  154.2626 H   0  0  0  0  0  0  0  0  0  0  0  0
  131.4813  129.9819  156.2852 H   0  0  0  0  0  0  0  0  0  0  0  0
  129.6865  137.5901  159.4989 H   0  0  0  0  0  0  0  0  0  0  0  0
  131.9180  135.9935  160.7965 H   0  0  0  0  0  0  0  0  0  0  0  0
  132.0314  137.3748  159.6644 H   0  0  0  0  0  0  0  0  0  0  0  0
  133.6656  138.5409  161.6977 H   0  0  0  0  0  0  0  0  0  0  0  0
  133.4170  140.0029  163.6602 H   0  0  0  0  0  0  0  0  0  0  0  0
  131.2290  140.2060  164.7739 H   0  0  0  0  0  0  0  0  0  0  0  0
  129.2947  138.9483  163.9212 H   0  0  0  0  0  0  0  0  0  0  0  0
  128.4357  137.7103  161.4933 H   0  0  0  0  0  0  0  0  0  0  0  0
  129.2063  136.2465  162.1756 H   0  0  0  0  0  0  0  0  0  0  0  0
  1  2  1  0
  1 33  1  0
  1 34  1  0
  1 35  1  0
  2  6  1  0
  2  3  1  0
  3  4  2  0
  4  5  1  0
  4 36  1  0
  5  6  2  0
  5 37  1  0
  6  7  1  0
  7  8  1  1
  7  9  1  0
  7 24  1  0
  9 38  1  0
 10  9  1  0
 10 22  2  0
 10 11  1  0
 11 12  1  0
 11 13  1  0
 13 14  2  0
 13 39  1  0
 14 15  1  0
 14 22  1  0
 15 21  1  0
 15 16  2  0
 16 17  1  0
 16 40  1  0
 17 18  2  0
 17 41  1  0
 18 19  1  0
 18 20  1  0
 19 42  1  0
 19 43  1  0
 20 21  2  0
 20 44  1  0
 21 45  1  0
 22 23  1  0
 24 32  1  0
 24 25  1  0
 24 46  1  0
 25 26  1  0
 25 47  1  0
 25 48  1  0
 26 31  2  0
 26 27  1  0
 27 28  2  0
 27 49  1  0
 28 29  1  0
 28 50  1  0
 29 30  2  0
 29 51  1  0
 30 31  1  0
 30 52  1  0
 31 32  1  0
 32 53  1  0
 32 54  1  0
M  CHG  1  22   1
M  END
>  <DOCK_score>  (1) 
-58.550041

>  <SMILES>  (1) 
Cn1nccc1[C@@H](Nc1[nH]cc(-c2ccc(N)cc2)[nH+]1)C1Cc2ccccc2C1

$$$$
