C[C@@H](CCc1ccccc1)NC(=O)c1[nH]c2ccccc2c1C[NH2+][C@H]1C[C@H](Cc2ccccc2)C1
     RDKit          3D

 71 75  0  0  1  0  0  0  0  0999 V2000
  128.4281  136.4006  160.5670 C   0  0  0  0  0  0  0  0  0  0  0  0
  129.7280  135.6269  160.7961 C   0  0  1  0  0  0  0  0  0  0  0  0
  129.8030  135.3456  161.8464 H   0  0  0  0  0  0  0  0  0  0  0  0
  129.7310  134.3663  159.9288 C   0  0  0  0  0  0  0  0  0  0  0  0
  131.1671  133.8663  159.7609 C   0  0  0  0  0  0  0  0  0  0  0  0
  131.1699  132.6248  158.9067 C   0  0  0  0  0  0  0  0  0  0  0  0
  131.0566  131.3797  159.4966 C   0  0  0  0  0  0  0  0  0  0  0  0
  131.0543  130.2411  158.7126 C   0  0  0  0  0  0  0  0  0  0  0  0
  131.1762  130.3469  157.3396 C   0  0  0  0  0  0  0  0  0  0  0  0
  131.2948  131.5918  156.7504 C   0  0  0  0  0  0  0  0  0  0  0  0
  131.2918  132.7306  157.5337 C   0  0  0  0  0  0  0  0  0  0  0  0
  130.8691  136.4713  160.4340 N   0  0  0  0  0  0  0  0  0  0  0  0
  131.4418  137.2641  161.3613 C   0  0  0  0  0  0  0  0  0  0  0  0
  131.0112  137.2787  162.4989 O   0  0  0  0  0  0  0  0  0  0  0  0
  132.5873  138.1117  160.9979 C   0  0  0  0  0  0  0  0  0  0  0  0
  133.1626  138.1862  159.7442 N   0  0  0  0  0  0  0  0  0  0  0  0
  132.8774  137.6893  158.9615 H   0  0  0  0  0  0  0  0  0  0  0  0
  134.2095  139.0763  159.7895 C   0  0  0  0  0  0  0  0  0  0  0  0
  135.1215  139.5238  158.8374 C   0  0  0  0  0  0  0  0  0  0  0  0
  136.0831  140.4437  159.1902 C   0  0  0  0  0  0  0  0  0  0  0  0
  136.1532  140.9324  160.4889 C   0  0  0  0  0  0  0  0  0  0  0  0
  135.2707  140.5090  161.4393 C   0  0  0  0  0  0  0  0  0  0  0  0
  134.2831  139.5730  161.1056 C   0  0  0  0  0  0  0  0  0  0  0  0
  133.2461  138.9493  161.8409 C   0  0  0  0  0  0  0  0  0  0  0  0
  132.9336  139.1699  163.2984 C   0  0  0  0  0  0  0  0  0  0  0  0
  133.6988  138.2165  164.1130 N   0  0  0  0  0  0  0  0  0  0  0  0
  134.6857  138.3560  163.9557 H   0  0  0  0  0  0  0  0  0  0  0  0
  133.4469  137.2746  163.8539 H   0  0  0  0  0  0  0  0  0  0  0  0
  133.3944  138.4316  165.5340 C   0  0  1  0  0  0  0  0  0  0  0  0
  132.3396  138.6392  165.7140 H   0  0  0  0  0  0  0  0  0  0  0  0
  133.9759  137.3497  166.4592 C   0  0  0  0  0  0  0  0  0  0  0  0
  135.2429  138.2169  166.5468 C   0  0  2  0  0  0  0  0  0  0  0  0
  135.9760  137.9984  165.7704 H   0  0  0  0  0  0  0  0  0  0  0  0
  135.8569  138.2651  167.9473 C   0  0  0  0  0  0  0  0  0  0  0  0
  137.1968  138.9523  167.8849 C   0  0  0  0  0  0  0  0  0  0  0  0
  138.3434  138.2122  167.6651 C   0  0  0  0  0  0  0  0  0  0  0  0
  139.5720  138.8430  167.6041 C   0  0  0  0  0  0  0  0  0  0  0  0
  139.6546  140.2128  167.7710 C   0  0  0  0  0  0  0  0  0  0  0  0
  138.5085  140.9521  167.9959 C   0  0  0  0  0  0  0  0  0  0  0  0
  137.2795  140.3218  168.0531 C   0  0  0  0  0  0  0  0  0  0  0  0
  134.3443  139.4231  166.2263 C   0  0  0  0  0  0  0  0  0  0  0  0
  127.5791  135.7723  160.8362 H   0  0  0  0  0  0  0  0  0  0  0  0
  128.4261  137.2986  161.1847 H   0  0  0  0  0  0  0  0  0  0  0  0
  128.3531  136.6820  159.5166 H   0  0  0  0  0  0  0  0  0  0  0  0
  129.1308  133.5935  160.4092 H   0  0  0  0  0  0  0  0  0  0  0  0
  129.3099  134.5975  158.9504 H   0  0  0  0  0  0  0  0  0  0  0  0
  131.7671  134.6391  159.2806 H   0  0  0  0  0  0  0  0  0  0  0  0
  131.5882  133.6351  160.7393 H   0  0  0  0  0  0  0  0  0  0  0  0
  130.9659  131.2967  160.5695 H   0  0  0  0  0  0  0  0  0  0  0  0
  130.9620  129.2686  159.1731 H   0  0  0  0  0  0  0  0  0  0  0  0
  131.1788  129.4572  156.7276 H   0  0  0  0  0  0  0  0  0  0  0  0
  131.3904  131.6745  155.6777 H   0  0  0  0  0  0  0  0  0  0  0  0
  131.3850  133.7031  157.0733 H   0  0  0  0  0  0  0  0  0  0  0  0
  131.2125  136.4598  159.5270 H   0  0  0  0  0  0  0  0  0  0  0  0
  135.0749  139.1502  157.8252 H   0  0  0  0  0  0  0  0  0  0  0  0
  136.7896  140.7891  158.4500 H   0  0  0  0  0  0  0  0  0  0  0  0
  136.9136  141.6541  160.7486 H   0  0  0  0  0  0  0  0  0  0  0  0
  135.3329  140.8945  162.4462 H   0  0  0  0  0  0  0  0  0  0  0  0
  131.8676  139.0192  163.4684 H   0  0  0  0  0  0  0  0  0  0  0  0
  133.2058  140.1875  163.5785 H   0  0  0  0  0  0  0  0  0  0  0  0
  134.1358  136.3917  165.9643 H   0  0  0  0  0  0  0  0  0  0  0  0
  133.4464  137.2531  167.4071 H   0  0  0  0  0  0  0  0  0  0  0  0
  135.1959  138.8176  168.6151 H   0  0  0  0  0  0  0  0  0  0  0  0
  135.9864  137.2499  168.3224 H   0  0  0  0  0  0  0  0  0  0  0  0
  138.2793  137.1416  167.5382 H   0  0  0  0  0  0  0  0  0  0  0  0
  140.4675  138.2654  167.4287 H   0  0  0  0  0  0  0  0  0  0  0  0
  140.6148  140.7053  167.7258 H   0  0  0  0  0  0  0  0  0  0  0  0
  138.5732  142.0222  168.1266 H   0  0  0  0  0  0  0  0  0  0  0  0
  136.3841  140.8995  168.2289 H   0  0  0  0  0  0  0  0  0  0  0  0
  133.9148  139.8945  167.1102 H   0  0  0  0  0  0  0  0  0  0  0  0
  134.8016  140.1390  165.5434 H   0  0  0  0  0  0  0  0  0  0  0  0
  1  2  1  0
  1 42  1  0
  1 43  1  0
  1 44  1  0
  2  3  1  1
  2  4  1  0
  2 12  1  0
  4  5  1  0
  4 45  1  0
  4 46  1  0
  5  6  1  0
  5 47  1  0
  5 48  1  0
  6 11  1  0
  6  7  2  0
  7  8  1  0
  7 49  1  0
  8  9  2  0
  8 50  1  0
  9 10  1  0
  9 51  1  0
 10 11  2  0
 10 52  1  0
 11 53  1  0
 12 13  1  0
 12 54  1  0
 13 14  2  0
 13 15  1  0
 15 24  2  0
 15 16  1  0
 16 17  1  0
 16 18  1  0
 18 23  2  0
 18 19  1  0
 19 20  2  0
 19 55  1  0
 20 21  1  0
 20 56  1  0
 21 22  2  0
 21 57  1  0
 22 23  1  0
 22 58  1  0
 23 24  1  0
 24 25  1  0
 25 26  1  0
 25 59  1  0
 25 60  1  0
 26 27  1  0
 26 28  1  0
 26 29  1  0
 29 30  1  6
 29 41  1  0
 29 31  1  0
 31 32  1  0
 31 61  1  0
 31 62  1  0
 32 33  1  6
 32 34  1  0
 32 41  1  0
 34 35  1  0
 34 63  1  0
 34 64  1  0
 35 40  1  0
 35 36  2  0
 36 37  1  0
 36 65  1  0
 37 38  2  0
 37 66  1  0
 38 39  1  0
 38 67  1  0
 39 40  2  0
 39 68  1  0
 40 69  1  0
 41 70  1  0
 41 71  1  0
M  CHG  1  26   1
M  END
>  <DOCK_score>  (1) 
-57.716476

>  <SMILES>  (1) 
C[C@@H](CCc1ccccc1)NC(=O)c1[nH]c2ccccc2c1C[NH2+][C@H]1C[C@H](Cc2ccccc2)C1

$$$$
