Clc1ccccc1C[C@H](Nc1[nH]cc(-c2ccc(C3=CCCCC3)cc2)[nH+]1)c1ccccc1
     RDKit          3D

 62 66  0  0  1  0  0  0  0  0999 V2000
  131.6011  139.6011  160.0974 Cl  0  0  0  0  0  0  0  0  0  0  0  0
  132.9113  138.6638  160.7442 C   0  0  0  0  0  0  0  0  0  0  0  0
  134.2155  138.9596  160.3887 C   0  0  0  0  0  0  0  0  0  0  0  0
  135.2577  138.2132  160.9032 C   0  0  0  0  0  0  0  0  0  0  0  0
  134.9982  137.1702  161.7737 C   0  0  0  0  0  0  0  0  0  0  0  0
  133.6961  136.8775  162.1332 C   0  0  0  0  0  0  0  0  0  0  0  0
  132.6520  137.6206  161.6148 C   0  0  0  0  0  0  0  0  0  0  0  0
  131.2318  137.2980  162.0028 C   0  0  0  0  0  0  0  0  0  0  0  0
  130.9019  135.8640  161.5838 C   0  0  2  0  0  0  0  0  0  0  0  0
  131.5810  135.1738  162.0843 H   0  0  0  0  0  0  0  0  0  0  0  0
  131.0536  135.7321  160.1328 N   0  0  0  0  0  0  0  0  0  0  0  0
  130.8071  134.5161  159.5187 C   0  0  0  0  0  0  0  0  0  0  0  0
  130.4141  133.3754  160.1486 N   0  0  0  0  0  0  0  0  0  0  0  0
  130.2588  133.2689  161.1001 H   0  0  0  0  0  0  0  0  0  0  0  0
  130.2789  132.4026  159.1885 C   0  0  0  0  0  0  0  0  0  0  0  0
  130.5929  132.9764  157.9998 C   0  0  0  0  0  0  0  0  0  0  0  0
  130.5879  132.3047  156.6784 C   0  0  0  0  0  0  0  0  0  0  0  0
  129.7536  132.7715  155.6622 C   0  0  0  0  0  0  0  0  0  0  0  0
  129.7520  132.1512  154.4332 C   0  0  0  0  0  0  0  0  0  0  0  0
  130.5775  131.0482  154.2069 C   0  0  0  0  0  0  0  0  0  0  0  0
  130.5726  130.3789  152.8902 C   0  0  0  0  0  0  0  0  0  0  0  0
  130.3111  131.1046  151.8296 C   0  0  0  0  0  0  0  0  0  0  0  0
  130.2636  130.5573  150.4329 C   0  0  0  0  0  0  0  0  0  0  0  0
  130.9603  129.1961  150.3766 C   0  0  0  0  0  0  0  0  0  0  0  0
  130.4084  128.3199  151.5080 C   0  0  0  0  0  0  0  0  0  0  0  0
  130.8732  128.9086  152.8439 C   0  0  0  0  0  0  0  0  0  0  0  0
  131.4087  130.5777  155.2266 C   0  0  0  0  0  0  0  0  0  0  0  0
  131.4131  131.2024  156.4534 C   0  0  0  0  0  0  0  0  0  0  0  0
  130.9082  134.2753  158.2344 N   0  0  0  0  0  0  0  0  0  0  0  0
  131.1688  134.9216  157.5597 H   0  0  0  0  0  0  0  0  0  0  0  0
  129.4818  135.5413  161.9718 C   0  0  0  0  0  0  0  0  0  0  0  0
  129.2113  134.9970  163.2134 C   0  0  0  0  0  0  0  0  0  0  0  0
  127.9087  134.7014  163.5694 C   0  0  0  0  0  0  0  0  0  0  0  0
  126.8766  134.9503  162.6840 C   0  0  0  0  0  0  0  0  0  0  0  0
  127.1472  135.4952  161.4426 C   0  0  0  0  0  0  0  0  0  0  0  0
  128.4497  135.7915  161.0870 C   0  0  0  0  0  0  0  0  0  0  0  0
  134.4185  139.7743  159.7094 H   0  0  0  0  0  0  0  0  0  0  0  0
  136.2757  138.4441  160.6258 H   0  0  0  0  0  0  0  0  0  0  0  0
  135.8134  136.5870  162.1760 H   0  0  0  0  0  0  0  0  0  0  0  0
  133.4940  136.0658  162.8164 H   0  0  0  0  0  0  0  0  0  0  0  0
  130.5528  137.9882  161.5024 H   0  0  0  0  0  0  0  0  0  0  0  0
  131.1191  137.3961  163.0825 H   0  0  0  0  0  0  0  0  0  0  0  0
  131.3268  136.4968  159.6022 H   0  0  0  0  0  0  0  0  0  0  0  0
  129.9798  131.3773  159.3490 H   0  0  0  0  0  0  0  0  0  0  0  0
  129.1117  133.6220  155.8385 H   0  0  0  0  0  0  0  0  0  0  0  0
  129.1093  132.5153  153.6452 H   0  0  0  0  0  0  0  0  0  0  0  0
  130.1190  132.1582  151.9696 H   0  0  0  0  0  0  0  0  0  0  0  0
  129.2243  130.4443  150.1243 H   0  0  0  0  0  0  0  0  0  0  0  0
  130.7661  131.2487  149.7565 H   0  0  0  0  0  0  0  0  0  0  0  0
  130.7606  128.7221  149.4156 H   0  0  0  0  0  0  0  0  0  0  0  0
  132.0347  129.3292  150.5032 H   0  0  0  0  0  0  0  0  0  0  0  0
  129.3193  128.3109  151.4662 H   0  0  0  0  0  0  0  0  0  0  0  0
  130.7875  127.3035  151.4021 H   0  0  0  0  0  0  0  0  0  0  0  0
  131.9465  128.7554  152.9564 H   0  0  0  0  0  0  0  0  0  0  0  0
  130.3512  128.4071  153.6588 H   0  0  0  0  0  0  0  0  0  0  0  0
  132.0474  129.7243  155.0527 H   0  0  0  0  0  0  0  0  0  0  0  0
  132.0560  130.8394  157.2417 H   0  0  0  0  0  0  0  0  0  0  0  0
  130.0170  134.8067  163.9069 H   0  0  0  0  0  0  0  0  0  0  0  0
  127.6972  134.2758  164.5392 H   0  0  0  0  0  0  0  0  0  0  0  0
  125.8590  134.7188  162.9619 H   0  0  0  0  0  0  0  0  0  0  0  0
  126.3411  135.6889  160.7506 H   0  0  0  0  0  0  0  0  0  0  0  0
  128.6612  136.2168  160.1170 H   0  0  0  0  0  0  0  0  0  0  0  0
  1  2  1  0
  2  7  2  0
  2  3  1  0
  3  4  2  0
  3 37  1  0
  4  5  1  0
  4 38  1  0
  5  6  2  0
  5 39  1  0
  6  7  1  0
  6 40  1  0
  7  8  1  0
  8  9  1  0
  8 41  1  0
  8 42  1  0
  9 10  1  1
  9 11  1  0
  9 31  1  0
 11 43  1  0
 12 11  1  0
 12 29  2  0
 12 13  1  0
 13 14  1  0
 13 15  1  0
 15 16  2  0
 15 44  1  0
 16 17  1  0
 16 29  1  0
 17 28  1  0
 17 18  2  0
 18 19  1  0
 18 45  1  0
 19 20  2  0
 19 46  1  0
 20 21  1  0
 20 27  1  0
 21 26  1  0
 21 22  2  0
 22 23  1  0
 22 47  1  0
 23 24  1  0
 23 48  1  0
 23 49  1  0
 24 25  1  0
 24 50  1  0
 24 51  1  0
 25 26  1  0
 25 52  1  0
 25 53  1  0
 26 54  1  0
 26 55  1  0
 27 28  2  0
 27 56  1  0
 28 57  1  0
 29 30  1  0
 31 36  1  0
 31 32  2  0
 32 33  1  0
 32 58  1  0
 33 34  2  0
 33 59  1  0
 34 35  1  0
 34 60  1  0
 35 36  2  0
 35 61  1  0
 36 62  1  0
M  CHG  1  29   1
M  END
>  <DOCK_score>  (1) 
-58.712646

>  <SMILES>  (1) 
Clc1ccccc1C[C@H](Nc1[nH]cc(-c2ccc(C3=CCCCC3)cc2)[nH+]1)c1ccccc1

$$$$
