Cc1cccc(N2CC[NH+](C(c3ccccc3)c3ccccc3)CC2)c1CC1C[C@@H]2CCC1C2
     RDKit          3D

 73 78  0  0  1  0  0  0  0  0999 V2000
  136.0543  141.1177  162.8563 C   0  0  0  0  0  0  0  0  0  0  0  0
  135.3976  140.5258  161.6357 C   0  0  0  0  0  0  0  0  0  0  0  0
  135.6786  141.0395  160.3828 C   0  0  0  0  0  0  0  0  0  0  0  0
  135.0778  140.5002  159.2604 C   0  0  0  0  0  0  0  0  0  0  0  0
  134.1951  139.4453  159.3871 C   0  0  0  0  0  0  0  0  0  0  0  0
  133.9112  138.9266  160.6439 C   0  0  0  0  0  0  0  0  0  0  0  0
  133.0188  137.8602  160.7757 N   0  0  0  0  0  0  0  0  0  0  0  0
  133.5330  136.6573  160.1057 C   0  0  0  0  0  0  0  0  0  0  0  0
  132.5569  135.4991  160.3238 C   0  0  0  0  0  0  0  0  0  0  0  0
  131.2408  135.8587  159.7798 N   0  0  0  0  0  0  0  0  0  0  0  0
  131.3274  136.0575  158.7944 H   0  0  0  0  0  0  0  0  0  0  0  0
  130.3089  134.7397  159.9733 C   0  0  0  0  0  0  0  0  0  0  0  0
  128.9585  135.1083  159.4152 C   0  0  0  0  0  0  0  0  0  0  0  0
  127.8117  134.5696  159.9681 C   0  0  0  0  0  0  0  0  0  0  0  0
  126.5727  134.9115  159.4592 C   0  0  0  0  0  0  0  0  0  0  0  0
  126.4806  135.7838  158.3917 C   0  0  0  0  0  0  0  0  0  0  0  0
  127.6281  136.3186  157.8346 C   0  0  0  0  0  0  0  0  0  0  0  0
  128.8669  135.9807  158.3468 C   0  0  0  0  0  0  0  0  0  0  0  0
  130.8323  133.5208  159.2581 C   0  0  0  0  0  0  0  0  0  0  0  0
  130.4735  133.2831  157.9445 C   0  0  0  0  0  0  0  0  0  0  0  0
  130.9575  132.1675  157.2868 C   0  0  0  0  0  0  0  0  0  0  0  0
  131.7917  131.2842  157.9462 C   0  0  0  0  0  0  0  0  0  0  0  0
  132.1463  131.5193  159.2614 C   0  0  0  0  0  0  0  0  0  0  0  0
  131.6666  132.6375  159.9174 C   0  0  0  0  0  0  0  0  0  0  0  0
  130.7295  137.0470  160.4756 C   0  0  0  0  0  0  0  0  0  0  0  0
  131.6903  138.2181  160.2587 C   0  0  0  0  0  0  0  0  0  0  0  0
  134.5163  139.4714  161.7695 C   0  0  0  0  0  0  0  0  0  0  0  0
  134.2065  138.9160  163.1358 C   0  0  0  0  0  0  0  0  0  0  0  0
  135.4952  138.4044  163.7827 C   0  0  1  0  0  0  0  0  0  0  0  0
  135.1930  137.7766  165.1626 C   0  0  0  0  0  0  0  0  0  0  0  0
  135.6430  136.2898  165.0261 C   0  0  2  0  0  0  0  0  0  0  0  0
  135.2289  135.5975  165.7590 H   0  0  0  0  0  0  0  0  0  0  0  0
  137.1993  136.3579  164.9561 C   0  0  0  0  0  0  0  0  0  0  0  0
  137.5014  136.9859  163.5763 C   0  0  0  0  0  0  0  0  0  0  0  0
  136.0992  137.2381  162.9426 C   0  0  1  0  0  0  0  0  0  0  0  0
  135.2966  136.0190  163.5194 C   0  0  0  0  0  0  0  0  0  0  0  0
  137.0191  140.6373  163.0187 H   0  0  0  0  0  0  0  0  0  0  0  0
  136.2014  142.1873  162.7070 H   0  0  0  0  0  0  0  0  0  0  0  0
  135.4170  140.9563  163.7258 H   0  0  0  0  0  0  0  0  0  0  0  0
  136.3688  141.8640  160.2807 H   0  0  0  0  0  0  0  0  0  0  0  0
  135.2991  140.9039  158.2834 H   0  0  0  0  0  0  0  0  0  0  0  0
  133.7267  139.0239  158.5098 H   0  0  0  0  0  0  0  0  0  0  0  0
  133.6346  136.8511  159.0379 H   0  0  0  0  0  0  0  0  0  0  0  0
  134.5057  136.3966  160.5226 H   0  0  0  0  0  0  0  0  0  0  0  0
  132.4660  135.2967  161.3910 H   0  0  0  0  0  0  0  0  0  0  0  0
  132.9293  134.6096  159.8157 H   0  0  0  0  0  0  0  0  0  0  0  0
  130.2158  134.5243  161.0377 H   0  0  0  0  0  0  0  0  0  0  0  0
  127.8835  133.8847  160.7999 H   0  0  0  0  0  0  0  0  0  0  0  0
  125.6765  134.4936  159.8936 H   0  0  0  0  0  0  0  0  0  0  0  0
  125.5132  136.0475  157.9905 H   0  0  0  0  0  0  0  0  0  0  0  0
  127.5565  136.9998  156.9996 H   0  0  0  0  0  0  0  0  0  0  0  0
  129.7630  136.3981  157.9120 H   0  0  0  0  0  0  0  0  0  0  0  0
  129.8181  133.9707  157.4307 H   0  0  0  0  0  0  0  0  0  0  0  0
  130.6802  131.9837  156.2593 H   0  0  0  0  0  0  0  0  0  0  0  0
  132.1663  130.4105  157.4338 H   0  0  0  0  0  0  0  0  0  0  0  0
  132.7978  130.8290  159.7766 H   0  0  0  0  0  0  0  0  0  0  0  0
  131.9433  132.8209  160.9450 H   0  0  0  0  0  0  0  0  0  0  0  0
  130.6479  136.8367  161.5420 H   0  0  0  0  0  0  0  0  0  0  0  0
  129.7471  137.3051  160.0800 H   0  0  0  0  0  0  0  0  0  0  0  0
  131.3188  139.0961  160.7873 H   0  0  0  0  0  0  0  0  0  0  0  0
  131.7616  138.4376  159.1935 H   0  0  0  0  0  0  0  0  0  0  0  0
  133.7744  139.7003  163.7574 H   0  0  0  0  0  0  0  0  0  0  0  0
  133.4964  138.0944  163.0415 H   0  0  0  0  0  0  0  0  0  0  0  0
  136.2165  139.2154  163.8840 H   0  0  0  0  0  0  0  0  0  0  0  0
  135.7674  138.2773  165.9419 H   0  0  0  0  0  0  0  0  0  0  0  0
  134.1268  137.8341  165.3810 H   0  0  0  0  0  0  0  0  0  0  0  0
  137.5883  136.9899  165.7546 H   0  0  0  0  0  0  0  0  0  0  0  0
  137.6268  135.3573  165.0220 H   0  0  0  0  0  0  0  0  0  0  0  0
  138.0389  137.9264  163.6963 H   0  0  0  0  0  0  0  0  0  0  0  0
  138.0791  136.2946  162.9625 H   0  0  0  0  0  0  0  0  0  0  0  0
  136.0824  137.3714  161.8608 H   0  0  0  0  0  0  0  0  0  0  0  0
  135.6960  135.0658  163.1731 H   0  0  0  0  0  0  0  0  0  0  0  0
  134.2276  136.1041  163.3242 H   0  0  0  0  0  0  0  0  0  0  0  0
  1  2  1  0
  1 37  1  0
  1 38  1  0
  1 39  1  0
  2 27  2  0
  2  3  1  0
  3  4  2  0
  3 40  1  0
  4  5  1  0
  4 41  1  0
  5  6  2  0
  5 42  1  0
  6  7  1  0
  6 27  1  0
  7 26  1  0
  7  8  1  0
  8  9  1  0
  8 43  1  0
  8 44  1  0
  9 10  1  0
  9 45  1  0
  9 46  1  0
 10 11  1  0
 10 12  1  0
 10 25  1  0
 12 13  1  0
 12 19  1  0
 12 47  1  0
 13 18  1  0
 13 14  2  0
 14 15  1  0
 14 48  1  0
 15 16  2  0
 15 49  1  0
 16 17  1  0
 16 50  1  0
 17 18  2  0
 17 51  1  0
 18 52  1  0
 19 24  1  0
 19 20  2  0
 20 21  1  0
 20 53  1  0
 21 22  2  0
 21 54  1  0
 22 23  1  0
 22 55  1  0
 23 24  2  0
 23 56  1  0
 24 57  1  0
 25 26  1  0
 25 58  1  0
 25 59  1  0
 26 60  1  0
 26 61  1  0
 27 28  1  0
 28 29  1  0
 28 62  1  0
 28 63  1  0
 29 35  1  0
 29 30  1  0
 29 64  1  1
 30 31  1  0
 30 65  1  0
 30 66  1  0
 31 32  1  1
 31 36  1  0
 31 33  1  0
 33 34  1  0
 33 67  1  0
 33 68  1  0
 34 35  1  0
 34 69  1  0
 34 70  1  0
 35 36  1  0
 35 71  1  6
 36 72  1  0
 36 73  1  0
M  CHG  1  10   1
M  END
>  <DOCK_score>  (1) 
-60.625603

>  <SMILES>  (1) 
Cc1cccc(N2CC[NH+](C(c3ccccc3)c3ccccc3)CC2)c1CC1C[C@@H]2CCC1C2

$$$$
