CC1=CCC(Nc2ccc(F)c(O[C@@H](c3ccc(C)cc3)C(C)NC3=[NH+]CCN3)c2)CC1
     RDKit          3D

 66 69  0  0  1  0  0  0  0  0999 V2000
  137.2291  140.9673  161.3741 C   0  0  0  0  0  0  0  0  0  0  0  0
  136.0117  140.2213  160.8918 C   0  0  0  0  0  0  0  0  0  0  0  0
  135.1760  139.7855  161.7790 C   0  0  0  0  0  0  0  0  0  0  0  0
  133.9250  139.0235  161.4531 C   0  0  0  0  0  0  0  0  0  0  0  0
  133.5714  139.1960  159.9742 C   0  0  2  0  0  0  0  0  0  0  0  0
  132.5154  138.2495  159.6066 N   0  0  0  0  0  0  0  0  0  0  0  0
  131.2777  138.2969  160.2549 C   0  0  0  0  0  0  0  0  0  0  0  0
  130.7947  139.5040  160.7437 C   0  0  0  0  0  0  0  0  0  0  0  0
  129.5692  139.5522  161.3803 C   0  0  0  0  0  0  0  0  0  0  0  0
  128.8253  138.3970  161.5417 C   0  0  0  0  0  0  0  0  0  0  0  0
  127.6296  138.4463  162.1687 F   0  0  0  0  0  0  0  0  0  0  0  0
  129.3067  137.1864  161.0592 C   0  0  0  0  0  0  0  0  0  0  0  0
  128.5754  136.0515  161.2185 O   0  0  0  0  0  0  0  0  0  0  0  0
  127.6499  135.7250  160.1798 C   0  0  1  0  0  0  0  0  0  0  0  0
  127.2927  136.6414  159.7101 H   0  0  0  0  0  0  0  0  0  0  0  0
  128.3347  134.8656  159.1486 C   0  0  0  0  0  0  0  0  0  0  0  0
  128.8724  133.6453  159.5125 C   0  0  0  0  0  0  0  0  0  0  0  0
  129.4964  132.8549  158.5656 C   0  0  0  0  0  0  0  0  0  0  0  0
  129.5919  133.2895  157.2568 C   0  0  0  0  0  0  0  0  0  0  0  0
  130.2776  132.4306  156.2258 C   0  0  0  0  0  0  0  0  0  0  0  0
  129.0589  134.5123  156.8939 C   0  0  0  0  0  0  0  0  0  0  0  0
  128.4302  135.3003  157.8398 C   0  0  0  0  0  0  0  0  0  0  0  0
  126.4647  134.9614  160.7743 C   0  0  2  0  0  0  0  0  0  0  0  0
  125.4738  134.6119  159.6623 C   0  0  0  0  0  0  0  0  0  0  0  0
  125.7990  135.7966  161.7769 N   0  0  0  0  0  0  0  0  0  0  0  0
  126.1956  135.7423  163.0849 C   0  0  0  0  0  0  0  0  0  0  0  0
  125.6358  136.4765  164.0324 N   0  0  0  0  0  0  0  0  0  0  0  0
  124.9111  137.1074  163.8996 H   0  0  0  0  0  0  0  0  0  0  0  0
  126.2839  136.1824  165.3202 C   0  0  0  0  0  0  0  0  0  0  0  0
  127.3515  135.1318  164.9529 C   0  0  0  0  0  0  0  0  0  0  0  0
  127.1735  134.9555  163.5031 N   0  0  0  0  0  0  0  0  0  0  0  0
  130.5330  137.1365  160.4159 C   0  0  0  0  0  0  0  0  0  0  0  0
  134.8276  138.9167  159.1393 C   0  0  0  0  0  0  0  0  0  0  0  0
  135.8470  140.0245  159.4133 C   0  0  0  0  0  0  0  0  0  0  0  0
  137.0039  142.0323  161.4305 H   0  0  0  0  0  0  0  0  0  0  0  0
  137.5109  140.6028  162.3620 H   0  0  0  0  0  0  0  0  0  0  0  0
  138.0530  140.8064  160.6789 H   0  0  0  0  0  0  0  0  0  0  0  0
  135.3905  139.9858  162.8184 H   0  0  0  0  0  0  0  0  0  0  0  0
  133.1035  139.3937  162.0664 H   0  0  0  0  0  0  0  0  0  0  0  0
  134.0864  137.9666  161.6650 H   0  0  0  0  0  0  0  0  0  0  0  0
  133.2297  140.2149  159.7924 H   0  0  0  0  0  0  0  0  0  0  0  0
  132.6750  137.5899  158.9136 H   0  0  0  0  0  0  0  0  0  0  0  0
  131.3755  140.4064  160.6224 H   0  0  0  0  0  0  0  0  0  0  0  0
  129.1935  140.4923  161.7563 H   0  0  0  0  0  0  0  0  0  0  0  0
  128.8017  133.3078  160.5360 H   0  0  0  0  0  0  0  0  0  0  0  0
  129.9133  131.8998  158.8491 H   0  0  0  0  0  0  0  0  0  0  0  0
  131.3386  132.6784  156.1939 H   0  0  0  0  0  0  0  0  0  0  0  0
  130.1577  131.3799  156.4900 H   0  0  0  0  0  0  0  0  0  0  0  0
  129.8326  132.6122  155.2475 H   0  0  0  0  0  0  0  0  0  0  0  0
  129.1336  134.8519  155.8715 H   0  0  0  0  0  0  0  0  0  0  0  0
  128.0140  136.2557  157.5564 H   0  0  0  0  0  0  0  0  0  0  0  0
  126.8218  134.0449  161.2440 H   0  0  0  0  0  0  0  0  0  0  0  0
  125.9691  133.9904  158.9163 H   0  0  0  0  0  0  0  0  0  0  0  0
  124.6295  134.0678  160.0858 H   0  0  0  0  0  0  0  0  0  0  0  0
  125.1166  135.5283  159.1925 H   0  0  0  0  0  0  0  0  0  0  0  0
  125.0768  136.3882  161.5133 H   0  0  0  0  0  0  0  0  0  0  0  0
  125.5666  135.7692  166.0294 H   0  0  0  0  0  0  0  0  0  0  0  0
  126.7517  137.0800  165.7245 H   0  0  0  0  0  0  0  0  0  0  0  0
  127.1658  134.1955  165.4792 H   0  0  0  0  0  0  0  0  0  0  0  0
  128.3517  135.5037  165.1745 H   0  0  0  0  0  0  0  0  0  0  0  0
  127.6916  134.3570  162.9423 H   0  0  0  0  0  0  0  0  0  0  0  0
  130.9086  136.1964  160.0397 H   0  0  0  0  0  0  0  0  0  0  0  0
  134.5697  138.9098  158.0803 H   0  0  0  0  0  0  0  0  0  0  0  0
  135.2493  137.9524  159.4231 H   0  0  0  0  0  0  0  0  0  0  0  0
  135.5006  140.9540  158.9615 H   0  0  0  0  0  0  0  0  0  0  0  0
  136.8062  139.7462  158.9767 H   0  0  0  0  0  0  0  0  0  0  0  0
  1  2  1  0
  1 35  1  0
  1 36  1  0
  1 37  1  0
  2 34  1  0
  2  3  2  0
  3  4  1  0
  3 38  1  0
  4  5  1  0
  4 39  1  0
  4 40  1  0
  5  6  1  0
  5 33  1  0
  5 41  1  1
  6  7  1  0
  6 42  1  0
  7 32  1  0
  7  8  2  0
  8  9  1  0
  8 43  1  0
  9 10  2  0
  9 44  1  0
 10 11  1  0
 10 12  1  0
 12 13  1  0
 12 32  2  0
 13 14  1  0
 14 15  1  6
 14 16  1  0
 14 23  1  0
 16 22  1  0
 16 17  2  0
 17 18  1  0
 17 45  1  0
 18 19  2  0
 18 46  1  0
 19 20  1  0
 19 21  1  0
 20 47  1  0
 20 48  1  0
 20 49  1  0
 21 22  2  0
 21 50  1  0
 22 51  1  0
 23 24  1  0
 23 25  1  0
 23 52  1  1
 24 53  1  0
 24 54  1  0
 24 55  1  0
 25 26  1  0
 25 56  1  0
 26 31  2  0
 26 27  1  0
 27 28  1  0
 27 29  1  0
 29 30  1  0
 29 57  1  0
 29 58  1  0
 30 31  1  0
 30 59  1  0
 30 60  1  0
 31 61  1  0
 32 62  1  0
 33 34  1  0
 33 63  1  0
 33 64  1  0
 34 65  1  0
 34 66  1  0
M  CHG  1  31   1
M  END
>  <DOCK_score>  (1) 
-47.747681

>  <SMILES>  (1) 
CC1=CCC(Nc2ccc(F)c(O[C@@H](c3ccc(C)cc3)C(C)NC3=[NH+]CCN3)c2)CC1

$$$$
