CCc1ccc(-c2c[nH]c(NC(c3ccc(F)cc3)c3ccc(F)cc3)[nH+]2)cc1
     RDKit          3D

 51 54  0  0  1  0  0  0  0  0999 V2000
  130.0959  128.4091  151.6928 C   0  0  0  0  0  0  0  0  0  0  0  0
  131.1866  129.4663  151.8759 C   0  0  0  0  0  0  0  0  0  0  0  0
  130.9471  130.2178  153.1600 C   0  0  0  0  0  0  0  0  0  0  0  0
  131.5099  129.7654  154.3391 C   0  0  0  0  0  0  0  0  0  0  0  0
  131.2976  130.4527  155.5168 C   0  0  0  0  0  0  0  0  0  0  0  0
  130.5057  131.5997  155.5181 C   0  0  0  0  0  0  0  0  0  0  0  0
  130.2699  132.3403  156.7815 C   0  0  0  0  0  0  0  0  0  0  0  0
  129.6785  131.8468  157.8975 C   0  0  0  0  0  0  0  0  0  0  0  0
  129.6660  132.8611  158.8238 N   0  0  0  0  0  0  0  0  0  0  0  0
  129.3090  132.8123  159.7244 H   0  0  0  0  0  0  0  0  0  0  0  0
  130.2431  133.9484  158.2433 C   0  0  0  0  0  0  0  0  0  0  0  0
  130.4203  135.1836  158.8427 N   0  0  0  0  0  0  0  0  0  0  0  0
  129.9687  135.4014  160.2192 C   0  0  0  0  0  0  0  0  0  0  0  0
  130.2767  136.8179  160.6307 C   0  0  0  0  0  0  0  0  0  0  0  0
  130.5334  137.1117  161.9570 C   0  0  0  0  0  0  0  0  0  0  0  0
  130.8216  138.4093  162.3348 C   0  0  0  0  0  0  0  0  0  0  0  0
  130.8417  139.4177  161.3861 C   0  0  0  0  0  0  0  0  0  0  0  0
  131.1169  140.6879  161.7552 F   0  0  0  0  0  0  0  0  0  0  0  0
  130.5788  139.1234  160.0589 C   0  0  0  0  0  0  0  0  0  0  0  0
  130.2969  137.8238  159.6826 C   0  0  0  0  0  0  0  0  0  0  0  0
  128.4826  135.1656  160.3036 C   0  0  0  0  0  0  0  0  0  0  0  0
  127.9234  134.6956  161.4773 C   0  0  0  0  0  0  0  0  0  0  0  0
  126.5600  134.4843  161.5576 C   0  0  0  0  0  0  0  0  0  0  0  0
  125.7556  134.7324  160.4581 C   0  0  0  0  0  0  0  0  0  0  0  0
  124.4236  134.5201  160.5334 F   0  0  0  0  0  0  0  0  0  0  0  0
  126.3176  135.1978  159.2814 C   0  0  0  0  0  0  0  0  0  0  0  0
  127.6804  135.4141  159.2054 C   0  0  0  0  0  0  0  0  0  0  0  0
  130.6027  133.6333  157.0230 N   0  0  0  0  0  0  0  0  0  0  0  0
  131.0370  134.2294  156.3930 H   0  0  0  0  0  0  0  0  0  0  0  0
  129.9364  132.0485  154.3276 C   0  0  0  0  0  0  0  0  0  0  0  0
  130.1595  131.3558  153.1551 C   0  0  0  0  0  0  0  0  0  0  0  0
  130.2694  127.8651  150.7643 H   0  0  0  0  0  0  0  0  0  0  0  0
  130.1199  127.7132  152.5314 H   0  0  0  0  0  0  0  0  0  0  0  0
  129.1214  128.8956  151.6522 H   0  0  0  0  0  0  0  0  0  0  0  0
  132.1612  128.9797  151.9165 H   0  0  0  0  0  0  0  0  0  0  0  0
  131.1627  130.1621  151.0373 H   0  0  0  0  0  0  0  0  0  0  0  0
  132.1203  128.8745  154.3376 H   0  0  0  0  0  0  0  0  0  0  0  0
  131.7415  130.1008  156.4363 H   0  0  0  0  0  0  0  0  0  0  0  0
  129.2933  130.8470  158.0329 H   0  0  0  0  0  0  0  0  0  0  0  0
  130.8435  135.9049  158.3511 H   0  0  0  0  0  0  0  0  0  0  0  0
  130.4847  134.7094  160.8847 H   0  0  0  0  0  0  0  0  0  0  0  0
  130.5127  136.3258  162.6977 H   0  0  0  0  0  0  0  0  0  0  0  0
  131.0261  138.6379  163.3703 H   0  0  0  0  0  0  0  0  0  0  0  0
  130.5939  139.9091  159.3181 H   0  0  0  0  0  0  0  0  0  0  0  0
  130.0919  137.5940  158.6474 H   0  0  0  0  0  0  0  0  0  0  0  0
  128.5517  134.4974  162.3330 H   0  0  0  0  0  0  0  0  0  0  0  0
  126.1227  134.1211  162.4758 H   0  0  0  0  0  0  0  0  0  0  0  0
  125.6912  135.3913  158.4232 H   0  0  0  0  0  0  0  0  0  0  0  0
  128.1190  135.7772  158.2876 H   0  0  0  0  0  0  0  0  0  0  0  0
  129.3216  132.9364  154.3229 H   0  0  0  0  0  0  0  0  0  0  0  0
  129.7189  131.7026  152.2321 H   0  0  0  0  0  0  0  0  0  0  0  0
  1  2  1  0
  1 32  1  0
  1 33  1  0
  1 34  1  0
  2  3  1  0
  2 35  1  0
  2 36  1  0
  3 31  2  0
  3  4  1  0
  4  5  2  0
  4 37  1  0
  5  6  1  0
  5 38  1  0
  6  7  1  0
  6 30  2  0
  7 28  1  0
  7  8  2  0
  8  9  1  0
  8 39  1  0
  9 10  1  0
  9 11  1  0
 11 12  1  0
 11 28  2  0
 12 13  1  0
 12 40  1  0
 13 14  1  0
 13 21  1  0
 13 41  1  0
 14 20  1  0
 14 15  2  0
 15 16  1  0
 15 42  1  0
 16 17  2  0
 16 43  1  0
 17 18  1  0
 17 19  1  0
 19 20  2  0
 19 44  1  0
 20 45  1  0
 21 27  1  0
 21 22  2  0
 22 23  1  0
 22 46  1  0
 23 24  2  0
 23 47  1  0
 24 25  1  0
 24 26  1  0
 26 27  2  0
 26 48  1  0
 27 49  1  0
 28 29  1  0
 30 31  1  0
 30 50  1  0
 31 51  1  0
M  CHG  1  28   1
M  END
>  <DOCK_score>  (1) 
-60.019279

>  <SMILES>  (1) 
CCc1ccc(-c2c[nH]c(NC(c3ccc(F)cc3)c3ccc(F)cc3)[nH+]2)cc1

$$$$
