CCc1ccc(C=CC[C@H](Nc2[nH]cc(-c3ccc(CC)cc3)[nH+]2)c2ccccc2)cc1
     RDKit          3D

 64 67  0  0  1  0  0  0  0  0999 V2000
  138.0271  139.9960  160.5736 C   0  0  0  0  0  0  0  0  0  0  0  0
  137.2097  139.8748  161.8610 C   0  0  0  0  0  0  0  0  0  0  0  0
  135.7703  139.5908  161.5167 C   0  0  0  0  0  0  0  0  0  0  0  0
  135.3365  138.2835  161.3914 C   0  0  0  0  0  0  0  0  0  0  0  0
  134.0195  138.0176  161.0772 C   0  0  0  0  0  0  0  0  0  0  0  0
  133.1246  139.0710  160.8862 C   0  0  0  0  0  0  0  0  0  0  0  0
  131.7123  138.7934  160.5495 C   0  0  0  0  0  0  0  0  0  0  0  0
  131.1908  137.6026  160.8087 C   0  0  0  0  0  0  0  0  0  0  0  0
  129.7510  137.3197  160.4653 C   0  0  0  0  0  0  0  0  0  0  0  0
  129.5864  135.8333  160.1423 C   0  0  2  0  0  0  0  0  0  0  0  0
  130.1879  135.2424  160.8332 H   0  0  0  0  0  0  0  0  0  0  0  0
  130.0299  135.5798  158.7692 N   0  0  0  0  0  0  0  0  0  0  0  0
  129.9743  134.2981  158.2493 C   0  0  0  0  0  0  0  0  0  0  0  0
  129.5347  133.1927  158.9105 N   0  0  0  0  0  0  0  0  0  0  0  0
  129.2070  133.1615  159.8229 H   0  0  0  0  0  0  0  0  0  0  0  0
  129.6404  132.1295  158.0471 C   0  0  0  0  0  0  0  0  0  0  0  0
  130.1411  132.6151  156.8841 C   0  0  0  0  0  0  0  0  0  0  0  0
  130.4258  131.8275  155.6599 C   0  0  0  0  0  0  0  0  0  0  0  0
  129.7817  132.1374  154.4633 C   0  0  0  0  0  0  0  0  0  0  0  0
  130.0508  131.4014  153.3272 C   0  0  0  0  0  0  0  0  0  0  0  0
  130.9577  130.3573  153.3750 C   0  0  0  0  0  0  0  0  0  0  0  0
  131.2470  129.5571  152.1312 C   0  0  0  0  0  0  0  0  0  0  0  0
  130.2740  128.3798  152.0445 C   0  0  0  0  0  0  0  0  0  0  0  0
  131.5954  130.0422  154.5608 C   0  0  0  0  0  0  0  0  0  0  0  0
  131.3387  130.7752  155.7016 C   0  0  0  0  0  0  0  0  0  0  0  0
  130.3408  133.9479  157.0405 N   0  0  0  0  0  0  0  0  0  0  0  0
  130.6958  134.5466  156.3648 H   0  0  0  0  0  0  0  0  0  0  0  0
  128.1366  135.4465  160.2813 C   0  0  0  0  0  0  0  0  0  0  0  0
  127.6555  134.9931  161.4955 C   0  0  0  0  0  0  0  0  0  0  0  0
  126.3246  134.6426  161.6241 C   0  0  0  0  0  0  0  0  0  0  0  0
  125.4768  134.7366  160.5363 C   0  0  0  0  0  0  0  0  0  0  0  0
  125.9589  135.1848  159.3208 C   0  0  0  0  0  0  0  0  0  0  0  0
  127.2889  135.5396  159.1934 C   0  0  0  0  0  0  0  0  0  0  0  0
  133.5698  140.3878  161.0087 C   0  0  0  0  0  0  0  0  0  0  0  0
  134.8880  140.6401  161.3289 C   0  0  0  0  0  0  0  0  0  0  0  0
  137.6313  140.8110  159.9677 H   0  0  0  0  0  0  0  0  0  0  0  0
  139.0685  140.2008  160.8223 H   0  0  0  0  0  0  0  0  0  0  0  0
  137.9639  139.0630  160.0136 H   0  0  0  0  0  0  0  0  0  0  0  0
  137.2729  140.8072  162.4212 H   0  0  0  0  0  0  0  0  0  0  0  0
  137.6057  139.0593  162.4673 H   0  0  0  0  0  0  0  0  0  0  0  0
  136.0301  137.4691  161.5395 H   0  0  0  0  0  0  0  0  0  0  0  0
  133.6821  136.9963  160.9790 H   0  0  0  0  0  0  0  0  0  0  0  0
  131.1054  139.5608  160.0920 H   0  0  0  0  0  0  0  0  0  0  0  0
  131.7977  136.8353  161.2661 H   0  0  0  0  0  0  0  0  0  0  0  0
  129.4605  137.9140  159.5991 H   0  0  0  0  0  0  0  0  0  0  0  0
  129.1174  137.5794  161.3134 H   0  0  0  0  0  0  0  0  0  0  0  0
  130.3626  136.3102  158.2244 H   0  0  0  0  0  0  0  0  0  0  0  0
  129.3754  131.1033  158.2548 H   0  0  0  0  0  0  0  0  0  0  0  0
  129.0732  132.9516  154.4252 H   0  0  0  0  0  0  0  0  0  0  0  0
  129.5524  131.6406  152.3995 H   0  0  0  0  0  0  0  0  0  0  0  0
  132.2693  129.1823  152.1700 H   0  0  0  0  0  0  0  0  0  0  0  0
  131.1264  130.1933  151.2537 H   0  0  0  0  0  0  0  0  0  0  0  0
  130.4833  127.8010  151.1449 H   0  0  0  0  0  0  0  0  0  0  0  0
  130.3944  127.7440  152.9217 H   0  0  0  0  0  0  0  0  0  0  0  0
  129.2515  128.7551  152.0054 H   0  0  0  0  0  0  0  0  0  0  0  0
  132.2989  129.2234  154.5933 H   0  0  0  0  0  0  0  0  0  0  0  0
  131.8409  130.5310  156.6262 H   0  0  0  0  0  0  0  0  0  0  0  0
  128.3187  134.9162  162.3442 H   0  0  0  0  0  0  0  0  0  0  0  0
  125.9477  134.2926  162.5738 H   0  0  0  0  0  0  0  0  0  0  0  0
  124.4375  134.4601  160.6361 H   0  0  0  0  0  0  0  0  0  0  0  0
  125.2967  135.2582  158.4710 H   0  0  0  0  0  0  0  0  0  0  0  0
  127.6657  135.8899  158.2436 H   0  0  0  0  0  0  0  0  0  0  0  0
  132.8830  141.2075  160.8577 H   0  0  0  0  0  0  0  0  0  0  0  0
  135.2328  141.6587  161.4284 H   0  0  0  0  0  0  0  0  0  0  0  0
  1  2  1  0
  1 36  1  0
  1 37  1  0
  1 38  1  0
  2  3  1  0
  2 39  1  0
  2 40  1  0
  3 35  2  0
  3  4  1  0
  4  5  2  0
  4 41  1  0
  5  6  1  0
  5 42  1  0
  6  7  1  0
  6 34  2  0
  7  8  2  0
  7 43  1  0
  8  9  1  0
  8 44  1  0
  9 10  1  0
  9 45  1  0
  9 46  1  0
 10 11  1  1
 10 12  1  0
 10 28  1  0
 12 47  1  0
 13 12  1  0
 13 26  2  0
 13 14  1  0
 14 15  1  0
 14 16  1  0
 16 17  2  0
 16 48  1  0
 17 18  1  0
 17 26  1  0
 18 25  1  0
 18 19  2  0
 19 20  1  0
 19 49  1  0
 20 21  2  0
 20 50  1  0
 21 22  1  0
 21 24  1  0
 22 23  1  0
 22 51  1  0
 22 52  1  0
 23 53  1  0
 23 54  1  0
 23 55  1  0
 24 25  2  0
 24 56  1  0
 25 57  1  0
 26 27  1  0
 28 33  1  0
 28 29  2  0
 29 30  1  0
 29 58  1  0
 30 31  2  0
 30 59  1  0
 31 32  1  0
 31 60  1  0
 32 33  2  0
 32 61  1  0
 33 62  1  0
 34 35  1  0
 34 63  1  0
 35 64  1  0
M  CHG  1  26   1
M  END
>  <DOCK_score>  (1) 
-62.562267

>  <SMILES>  (1) 
CCc1ccc(C=CC[C@H](Nc2[nH]cc(-c3ccc(CC)cc3)[nH+]2)c2ccccc2)cc1

$$$$
