Cn1nccc1C(Nc1[nH]cc(-c2ccc(-c3ccccc3)cc2)[nH+]1)[C@@H](c1ccccc1)c1ccnn1C
     RDKit          3D

 68 73  0  0  1  0  0  0  0  0999 V2000
  133.3809  135.9450  163.8857 C   0  0  0  0  0  0  0  0  0  0  0  0
  133.1809  137.1685  163.1053 N   0  0  0  0  0  0  0  0  0  0  0  0
  133.9461  138.3385  163.1963 N   0  0  0  0  0  0  0  0  0  0  0  0
  133.4624  139.2101  162.3490 C   0  0  0  0  0  0  0  0  0  0  0  0
  132.3785  138.6226  161.6884 C   0  0  0  0  0  0  0  0  0  0  0  0
  132.2287  137.3668  162.1697 C   0  0  0  0  0  0  0  0  0  0  0  0
  131.1821  136.3704  161.7423 C   0  0  2  0  0  0  0  0  0  0  0  0
  131.3302  136.0896  160.3121 N   0  0  0  0  0  0  0  0  0  0  0  0
  130.9741  134.8499  159.8096 C   0  0  0  0  0  0  0  0  0  0  0  0
  130.4773  133.8126  160.5373 N   0  0  0  0  0  0  0  0  0  0  0  0
  130.3102  133.8092  161.4928 H   0  0  0  0  0  0  0  0  0  0  0  0
  130.2511  132.7733  159.6684 C   0  0  0  0  0  0  0  0  0  0  0  0
  130.6240  133.2021  158.4364 C   0  0  0  0  0  0  0  0  0  0  0  0
  130.5600  132.4146  157.1820 C   0  0  0  0  0  0  0  0  0  0  0  0
  130.3586  133.0610  155.9622 C   0  0  0  0  0  0  0  0  0  0  0  0
  130.2997  132.3293  154.7968 C   0  0  0  0  0  0  0  0  0  0  0  0
  130.4411  130.9424  154.8361 C   0  0  0  0  0  0  0  0  0  0  0  0
  130.3776  130.1547  153.5811 C   0  0  0  0  0  0  0  0  0  0  0  0
  131.0921  128.9636  153.4659 C   0  0  0  0  0  0  0  0  0  0  0  0
  131.0295  128.2350  152.2955 C   0  0  0  0  0  0  0  0  0  0  0  0
  130.2593  128.6846  151.2381 C   0  0  0  0  0  0  0  0  0  0  0  0
  129.5521  129.8687  151.3450 C   0  0  0  0  0  0  0  0  0  0  0  0
  129.6034  130.6032  152.5123 C   0  0  0  0  0  0  0  0  0  0  0  0
  130.6367  130.2956  156.0561 C   0  0  0  0  0  0  0  0  0  0  0  0
  130.7014  131.0274  157.2211 C   0  0  0  0  0  0  0  0  0  0  0  0
  131.0604  134.4815  158.5548 N   0  0  0  0  0  0  0  0  0  0  0  0
  131.3849  135.0348  157.8272 H   0  0  0  0  0  0  0  0  0  0  0  0
  129.7901  136.9476  162.0072 C   0  0  1  0  0  0  0  0  0  0  0  0
  129.7810  138.0069  161.7501 H   0  0  0  0  0  0  0  0  0  0  0  0
  128.7752  136.2177  161.1658 C   0  0  0  0  0  0  0  0  0  0  0  0
  128.4665  136.6792  159.8999 C   0  0  0  0  0  0  0  0  0  0  0  0
  127.5387  136.0073  159.1263 C   0  0  0  0  0  0  0  0  0  0  0  0
  126.9129  134.8788  159.6221 C   0  0  0  0  0  0  0  0  0  0  0  0
  127.2176  134.4203  160.8901 C   0  0  0  0  0  0  0  0  0  0  0  0
  128.1486  135.0897  161.6620 C   0  0  0  0  0  0  0  0  0  0  0  0
  129.4466  136.7817  163.4652 C   0  0  0  0  0  0  0  0  0  0  0  0
  129.8793  135.7910  164.2791 C   0  0  0  0  0  0  0  0  0  0  0  0
  129.3315  136.0061  165.5478 C   0  0  0  0  0  0  0  0  0  0  0  0
  128.5963  137.0872  165.4975 N   0  0  0  0  0  0  0  0  0  0  0  0
  128.6571  137.5977  164.1945 N   0  0  0  0  0  0  0  0  0  0  0  0
  127.9806  138.8029  163.7085 C   0  0  0  0  0  0  0  0  0  0  0  0
  133.9759  135.2383  163.3071 H   0  0  0  0  0  0  0  0  0  0  0  0
  133.9024  136.1860  164.8119 H   0  0  0  0  0  0  0  0  0  0  0  0
  132.4135  135.5003  164.1185 H   0  0  0  0  0  0  0  0  0  0  0  0
  133.8353  140.2108  162.1877 H   0  0  0  0  0  0  0  0  0  0  0  0
  131.7686  139.0889  160.9289 H   0  0  0  0  0  0  0  0  0  0  0  0
  131.3064  135.4473  162.3085 H   0  0  0  0  0  0  0  0  0  0  0  0
  131.6777  136.7726  159.7173 H   0  0  0  0  0  0  0  0  0  0  0  0
  129.8546  131.8002  159.9183 H   0  0  0  0  0  0  0  0  0  0  0  0
  130.2487  134.1349  155.9318 H   0  0  0  0  0  0  0  0  0  0  0  0
  130.1441  132.8297  153.8524 H   0  0  0  0  0  0  0  0  0  0  0  0
  131.6933  128.6112  154.2910 H   0  0  0  0  0  0  0  0  0  0  0  0
  131.5827  127.3119  152.2050 H   0  0  0  0  0  0  0  0  0  0  0  0
  130.2132  128.1111  150.3241 H   0  0  0  0  0  0  0  0  0  0  0  0
  128.9559  130.2172  150.5147 H   0  0  0  0  0  0  0  0  0  0  0  0
  129.0476  131.5254  152.5960 H   0  0  0  0  0  0  0  0  0  0  0  0
  130.7419  129.2212  156.0869 H   0  0  0  0  0  0  0  0  0  0  0  0
  130.8573  130.5269  158.1653 H   0  0  0  0  0  0  0  0  0  0  0  0
  128.9527  137.5630  159.5139 H   0  0  0  0  0  0  0  0  0  0  0  0
  127.3009  136.3653  158.1355 H   0  0  0  0  0  0  0  0  0  0  0  0
  126.1860  134.3553  159.0188 H   0  0  0  0  0  0  0  0  0  0  0  0
  126.7286  133.5387  161.2774 H   0  0  0  0  0  0  0  0  0  0  0  0
  128.3867  134.7315  162.6526 H   0  0  0  0  0  0  0  0  0  0  0  0
  130.5321  134.9777  163.9984 H   0  0  0  0  0  0  0  0  0  0  0  0
  129.4878  135.3867  166.4185 H   0  0  0  0  0  0  0  0  0  0  0  0
  126.9930  138.5380  163.3311 H   0  0  0  0  0  0  0  0  0  0  0  0
  127.8779  139.5165  164.5259 H   0  0  0  0  0  0  0  0  0  0  0  0
  128.5678  139.2508  162.9068 H   0  0  0  0  0  0  0  0  0  0  0  0
  1  2  1  0
  1 42  1  0
  1 43  1  0
  1 44  1  0
  2  6  1  0
  2  3  1  0
  3  4  2  0
  4  5  1  0
  4 45  1  0
  5  6  2  0
  5 46  1  0
  6  7  1  0
  7  8  1  0
  7 28  1  0
  7 47  1  1
  8 48  1  0
  9  8  1  0
  9 26  2  0
  9 10  1  0
 10 11  1  0
 10 12  1  0
 12 13  2  0
 12 49  1  0
 13 14  1  0
 13 26  1  0
 14 25  1  0
 14 15  2  0
 15 16  1  0
 15 50  1  0
 16 17  2  0
 16 51  1  0
 17 18  1  0
 17 24  1  0
 18 23  1  0
 18 19  2  0
 19 20  1  0
 19 52  1  0
 20 21  2  0
 20 53  1  0
 21 22  1  0
 21 54  1  0
 22 23  2  0
 22 55  1  0
 23 56  1  0
 24 25  2  0
 24 57  1  0
 25 58  1  0
 26 27  1  0
 28 29  1  6
 28 30  1  0
 28 36  1  0
 30 35  1  0
 30 31  2  0
 31 32  1  0
 31 59  1  0
 32 33  2  0
 32 60  1  0
 33 34  1  0
 33 61  1  0
 34 35  2  0
 34 62  1  0
 35 63  1  0
 36 40  1  0
 36 37  2  0
 37 38  1  0
 37 64  1  0
 38 39  2  0
 38 65  1  0
 39 40  1  0
 40 41  1  0
 41 66  1  0
 41 67  1  0
 41 68  1  0
M  CHG  1  26   1
M  END
>  <DOCK_score>  (1) 
-58.143085

>  <SMILES>  (1) 
Cn1nccc1C(Nc1[nH]cc(-c2ccc(-c3ccccc3)cc2)[nH+]1)[C@@H](c1ccccc1)c1ccnn1C

$$$$
