C=C(Cc1ccccc1)[C@@](O)(c1ccccc1)C(Nc1[nH]cc(-c2ccc(N)cc2)[nH+]1)c1ccccc1
     RDKit          3D

 68 72  0  0  1  0  0  0  0  0999 V2000
  129.8790  136.5770  163.0891 C   0  0  0  0  0  0  0  0  0  0  0  0
  129.4713  137.2931  162.0706 C   0  0  0  0  0  0  0  0  0  0  0  0
  128.4532  138.3849  162.2765 C   0  0  0  0  0  0  0  0  0  0  0  0
  129.1604  139.6804  162.5812 C   0  0  0  0  0  0  0  0  0  0  0  0
  129.4429  140.0222  163.8904 C   0  0  0  0  0  0  0  0  0  0  0  0
  130.0960  141.2082  164.1696 C   0  0  0  0  0  0  0  0  0  0  0  0
  130.4570  142.0572  163.1402 C   0  0  0  0  0  0  0  0  0  0  0  0
  130.1697  141.7178  161.8313 C   0  0  0  0  0  0  0  0  0  0  0  0
  129.5214  140.5294  161.5518 C   0  0  0  0  0  0  0  0  0  0  0  0
  130.0205  137.0249  160.6931 C   0  0  1  0  0  0  0  0  0  0  0  0
  129.4266  137.9289  159.7594 O   0  0  0  0  0  0  0  0  0  0  0  0
  131.5147  137.2209  160.7011 C   0  0  0  0  0  0  0  0  0  0  0  0
  132.3497  136.1575  160.9890 C   0  0  0  0  0  0  0  0  0  0  0  0
  133.7204  136.3363  160.9925 C   0  0  0  0  0  0  0  0  0  0  0  0
  134.2558  137.5805  160.7162 C   0  0  0  0  0  0  0  0  0  0  0  0
  133.4206  138.6451  160.4336 C   0  0  0  0  0  0  0  0  0  0  0  0
  132.0500  138.4654  160.4263 C   0  0  0  0  0  0  0  0  0  0  0  0
  129.6970  135.5860  160.2863 C   0  0  2  0  0  0  0  0  0  0  0  0
  130.2309  135.3253  158.9472 N   0  0  0  0  0  0  0  0  0  0  0  0
  130.0599  134.0815  158.3638 C   0  0  0  0  0  0  0  0  0  0  0  0
  129.4226  133.0211  158.9305 N   0  0  0  0  0  0  0  0  0  0  0  0
  129.0101  133.0008  159.8082 H   0  0  0  0  0  0  0  0  0  0  0  0
  129.4685  131.9852  158.0278 C   0  0  0  0  0  0  0  0  0  0  0  0
  130.1397  132.4401  156.9410 C   0  0  0  0  0  0  0  0  0  0  0  0
  130.4381  131.6652  155.7118 C   0  0  0  0  0  0  0  0  0  0  0  0
  129.9543  132.0989  154.4785 C   0  0  0  0  0  0  0  0  0  0  0  0
  130.2376  131.3802  153.3363 C   0  0  0  0  0  0  0  0  0  0  0  0
  130.9951  130.2180  153.4154 C   0  0  0  0  0  0  0  0  0  0  0  0
  131.2755  129.4875  152.2583 N   0  0  0  0  0  0  0  0  0  0  0  0
  131.4739  129.7802  154.6450 C   0  0  0  0  0  0  0  0  0  0  0  0
  131.1978  130.4989  155.7890 C   0  0  0  0  0  0  0  0  0  0  0  0
  130.4899  133.7294  157.1767 N   0  0  0  0  0  0  0  0  0  0  0  0
  130.9807  134.2997  156.5644 H   0  0  0  0  0  0  0  0  0  0  0  0
  128.2028  135.3899  160.2783 C   0  0  0  0  0  0  0  0  0  0  0  0
  127.5551  134.9664  161.4237 C   0  0  0  0  0  0  0  0  0  0  0  0
  126.1846  134.7862  161.4162 C   0  0  0  0  0  0  0  0  0  0  0  0
  125.4618  135.0296  160.2634 C   0  0  0  0  0  0  0  0  0  0  0  0
  126.1101  135.4481  159.1165 C   0  0  0  0  0  0  0  0  0  0  0  0
  127.4800  135.6334  159.1255 C   0  0  0  0  0  0  0  0  0  0  0  0
  129.4853  136.7693  164.0764 H   0  0  0  0  0  0  0  0  0  0  0  0
  130.6085  135.7946  162.9416 H   0  0  0  0  0  0  0  0  0  0  0  0
  127.8566  138.5007  161.3716 H   0  0  0  0  0  0  0  0  0  0  0  0
  127.8017  138.1219  163.1099 H   0  0  0  0  0  0  0  0  0  0  0  0
  129.1569  139.3609  164.6950 H   0  0  0  0  0  0  0  0  0  0  0  0
  130.3201  141.4735  165.1922 H   0  0  0  0  0  0  0  0  0  0  0  0
  130.9633  142.9858  163.3585 H   0  0  0  0  0  0  0  0  0  0  0  0
  130.4515  142.3813  161.0271 H   0  0  0  0  0  0  0  0  0  0  0  0
  129.2967  140.2643  160.5292 H   0  0  0  0  0  0  0  0  0  0  0  0
  129.7343  137.8136  158.8499 H   0  0  0  0  0  0  0  0  0  0  0  0
  131.9312  135.1864  161.2082 H   0  0  0  0  0  0  0  0  0  0  0  0
  134.3730  135.5047  161.2137 H   0  0  0  0  0  0  0  0  0  0  0  0
  135.3267  137.7208  160.7217 H   0  0  0  0  0  0  0  0  0  0  0  0
  133.8390  139.6173  160.2181 H   0  0  0  0  0  0  0  0  0  0  0  0
  131.3976  139.2972  160.2054 H   0  0  0  0  0  0  0  0  0  0  0  0
  130.1501  134.8964  160.9986 H   0  0  0  0  0  0  0  0  0  0  0  0
  130.7043  136.0242  158.4693 H   0  0  0  0  0  0  0  0  0  0  0  0
  129.0538  130.9969  158.1608 H   0  0  0  0  0  0  0  0  0  0  0  0
  129.3614  132.9996  154.4171 H   0  0  0  0  0  0  0  0  0  0  0  0
  129.8667  131.7183  152.3801 H   0  0  0  0  0  0  0  0  0  0  0  0
  131.8042  128.6761  152.3128 H   0  0  0  0  0  0  0  0  0  0  0  0
  130.9415  129.7919  151.3999 H   0  0  0  0  0  0  0  0  0  0  0  0
  132.0626  128.8766  154.7044 H   0  0  0  0  0  0  0  0  0  0  0  0
  131.5703  130.1588  156.7439 H   0  0  0  0  0  0  0  0  0  0  0  0
  128.1200  134.7758  162.3244 H   0  0  0  0  0  0  0  0  0  0  0  0
  125.6786  134.4549  162.3110 H   0  0  0  0  0  0  0  0  0  0  0  0
  124.3910  134.8885  160.2575 H   0  0  0  0  0  0  0  0  0  0  0  0
  125.5459  135.6340  158.2144 H   0  0  0  0  0  0  0  0  0  0  0  0
  127.9860  135.9640  158.2304 H   0  0  0  0  0  0  0  0  0  0  0  0
  1  2  2  0
  1 40  1  0
  1 41  1  0
  2  3  1  0
  3  4  1  0
  3 42  1  0
  3 43  1  0
  4  9  1  0
  4  5  2  0
  5  6  1  0
  5 44  1  0
  6  7  2  0
  6 45  1  0
  7  8  1  0
  7 46  1  0
  8  9  2  0
  8 47  1  0
  9 48  1  0
 10  2  1  0
 10 11  1  6
 10 12  1  0
 10 18  1  0
 11 49  1  0
 12 17  1  0
 12 13  2  0
 13 14  1  0
 13 50  1  0
 14 15  2  0
 14 51  1  0
 15 16  1  0
 15 52  1  0
 16 17  2  0
 16 53  1  0
 17 54  1  0
 18 19  1  0
 18 34  1  0
 18 55  1  1
 19 56  1  0
 20 19  1  0
 20 32  2  0
 20 21  1  0
 21 22  1  0
 21 23  1  0
 23 24  2  0
 23 57  1  0
 24 25  1  0
 24 32  1  0
 25 31  1  0
 25 26  2  0
 26 27  1  0
 26 58  1  0
 27 28  2  0
 27 59  1  0
 28 29  1  0
 28 30  1  0
 29 60  1  0
 29 61  1  0
 30 31  2  0
 30 62  1  0
 31 63  1  0
 32 33  1  0
 34 39  1  0
 34 35  2  0
 35 36  1  0
 35 64  1  0
 36 37  2  0
 36 65  1  0
 37 38  1  0
 37 66  1  0
 38 39  2  0
 38 67  1  0
 39 68  1  0
M  CHG  1  32   1
M  END
>  <DOCK_score>  (1) 
-69.059349

>  <SMILES>  (1) 
C=C(Cc1ccccc1)[C@@](O)(c1ccccc1)C(Nc1[nH]cc(-c2ccc(N)cc2)[nH+]1)c1ccccc1

$$$$
