Fc1ccc2[nH]c(CNc3n[nH]cc3C[NH2+]Cc3ccc4cnccc4c3)cc2c1
     RDKit          3D

 52 56  0  0  0  0  0  0  0  0999 V2000
  132.0670  129.5685  156.4490 F   0  0  0  0  0  0  0  0  0  0  0  0
  131.4939  130.5124  157.2273 C   0  0  0  0  0  0  0  0  0  0  0  0
  131.3387  130.2844  158.5901 C   0  0  0  0  0  0  0  0  0  0  0  0
  130.7560  131.2345  159.3990 C   0  0  0  0  0  0  0  0  0  0  0  0
  130.3180  132.4368  158.8536 C   0  0  0  0  0  0  0  0  0  0  0  0
  129.7135  133.5542  159.3876 N   0  0  0  0  0  0  0  0  0  0  0  0
  129.4805  133.6689  160.3222 H   0  0  0  0  0  0  0  0  0  0  0  0
  129.4856  134.4753  158.4020 C   0  0  0  0  0  0  0  0  0  0  0  0
  128.8403  135.8213  158.6082 C   0  0  0  0  0  0  0  0  0  0  0  0
  129.4141  136.4614  159.7946 N   0  0  0  0  0  0  0  0  0  0  0  0
  128.5900  136.8020  160.8738 C   0  0  0  0  0  0  0  0  0  0  0  0
  127.2951  136.6031  160.9476 N   0  0  0  0  0  0  0  0  0  0  0  0
  126.8498  137.0811  162.1867 N   0  0  0  0  0  0  0  0  0  0  0  0
  125.9354  137.0609  162.5100 H   0  0  0  0  0  0  0  0  0  0  0  0
  127.9142  137.5801  162.8497 C   0  0  0  0  0  0  0  0  0  0  0  0
  129.0036  137.4218  162.0640 C   0  0  0  0  0  0  0  0  0  0  0  0
  130.4114  137.8376  162.4050 C   0  0  0  0  0  0  0  0  0  0  0  0
  131.0983  136.7303  163.0833 N   0  0  0  0  0  0  0  0  0  0  0  0
  130.6025  136.4952  163.9300 H   0  0  0  0  0  0  0  0  0  0  0  0
  131.1232  135.9264  162.4741 H   0  0  0  0  0  0  0  0  0  0  0  0
  132.4706  137.1356  163.4159 C   0  0  0  0  0  0  0  0  0  0  0  0
  133.2112  137.4868  162.1513 C   0  0  0  0  0  0  0  0  0  0  0  0
  133.1105  136.6489  161.0421 C   0  0  0  0  0  0  0  0  0  0  0  0
  133.7610  136.9380  159.8812 C   0  0  0  0  0  0  0  0  0  0  0  0
  134.5555  138.0926  159.8028 C   0  0  0  0  0  0  0  0  0  0  0  0
  135.2542  138.4394  158.6350 C   0  0  0  0  0  0  0  0  0  0  0  0
  135.9852  139.5291  158.6095 N   0  0  0  0  0  0  0  0  0  0  0  0
  136.1022  140.3395  159.6525 C   0  0  0  0  0  0  0  0  0  0  0  0
  135.4648  140.0925  160.8303 C   0  0  0  0  0  0  0  0  0  0  0  0
  134.6619  138.9419  160.9348 C   0  0  0  0  0  0  0  0  0  0  0  0
  133.9729  138.6154  162.1117 C   0  0  0  0  0  0  0  0  0  0  0  0
  129.9221  134.0023  157.2239 C   0  0  0  0  0  0  0  0  0  0  0  0
  130.4747  132.6692  157.4755 C   0  0  0  0  0  0  0  0  0  0  0  0
  131.0666  131.6964  156.6668 C   0  0  0  0  0  0  0  0  0  0  0  0
  131.6779  129.3527  159.0183 H   0  0  0  0  0  0  0  0  0  0  0  0
  130.6403  131.0467  160.4561 H   0  0  0  0  0  0  0  0  0  0  0  0
  129.0198  136.4481  157.7347 H   0  0  0  0  0  0  0  0  0  0  0  0
  127.7671  135.6922  158.7483 H   0  0  0  0  0  0  0  0  0  0  0  0
  130.3649  136.6491  159.8323 H   0  0  0  0  0  0  0  0  0  0  0  0
  127.8986  138.0267  163.8329 H   0  0  0  0  0  0  0  0  0  0  0  0
  130.9469  138.0914  161.4901 H   0  0  0  0  0  0  0  0  0  0  0  0
  130.3845  138.7061  163.0631 H   0  0  0  0  0  0  0  0  0  0  0  0
  132.4434  138.0041  164.0742 H   0  0  0  0  0  0  0  0  0  0  0  0
  132.9803  136.3140  163.9192 H   0  0  0  0  0  0  0  0  0  0  0  0
  132.5030  135.7580  161.1028 H   0  0  0  0  0  0  0  0  0  0  0  0
  133.6697  136.2817  159.0285 H   0  0  0  0  0  0  0  0  0  0  0  0
  135.1897  137.8106  157.7592 H   0  0  0  0  0  0  0  0  0  0  0  0
  136.7202  141.2209  159.5653 H   0  0  0  0  0  0  0  0  0  0  0  0
  135.5740  140.7660  161.6675 H   0  0  0  0  0  0  0  0  0  0  0  0
  134.0458  139.2534  162.9800 H   0  0  0  0  0  0  0  0  0  0  0  0
  129.8747  134.5087  156.2711 H   0  0  0  0  0  0  0  0  0  0  0  0
  131.1890  131.8712  155.6081 H   0  0  0  0  0  0  0  0  0  0  0  0
  1  2  1  0
  2 34  2  0
  2  3  1  0
  3  4  2  0
  3 35  1  0
  4  5  1  0
  4 36  1  0
  5 33  2  0
  5  6  1  0
  6  7  1  0
  6  8  1  0
  8  9  1  0
  8 32  2  0
  9 10  1  0
  9 37  1  0
  9 38  1  0
 10 11  1  0
 10 39  1  0
 11 16  1  0
 11 12  2  0
 12 13  1  0
 13 14  1  0
 13 15  1  0
 15 16  2  0
 15 40  1  0
 16 17  1  0
 17 18  1  0
 17 41  1  0
 17 42  1  0
 18 19  1  0
 18 20  1  0
 18 21  1  0
 21 22  1  0
 21 43  1  0
 21 44  1  0
 22 31  1  0
 22 23  2  0
 23 24  1  0
 23 45  1  0
 24 25  2  0
 24 46  1  0
 25 30  1  0
 25 26  1  0
 26 27  2  0
 26 47  1  0
 27 28  1  0
 28 29  2  0
 28 48  1  0
 29 30  1  0
 29 49  1  0
 30 31  2  0
 31 50  1  0
 32 33  1  0
 32 51  1  0
 33 34  1  0
 34 52  1  0
M  CHG  1  18   1
M  END
>  <DOCK_score>  (1) 
-47.598309

>  <SMILES>  (1) 
Fc1ccc2[nH]c(CNc3n[nH]cc3C[NH2+]Cc3ccc4cnccc4c3)cc2c1

$$$$
