CNc1ccc(Sc2ccccc2)c(Nc2[nH]cc(-c3ccncc3)[nH+]2)c1
     RDKit          3D

 47 50  0  0  1  0  0  0  0  0999 V2000
  126.3063  131.7707  161.6699 C   0  0  0  0  0  0  0  0  0  0  0  0
  127.4525  132.6252  161.3499 N   0  0  0  0  0  0  0  0  0  0  0  0
  128.4429  132.1682  160.4732 C   0  0  0  0  0  0  0  0  0  0  0  0
  128.3386  130.9044  159.9067 C   0  0  0  0  0  0  0  0  0  0  0  0
  129.3146  130.4499  159.0402 C   0  0  0  0  0  0  0  0  0  0  0  0
  130.4044  131.2531  158.7381 C   0  0  0  0  0  0  0  0  0  0  0  0
  131.6519  130.6699  157.6388 S   0  0  0  0  0  0  0  0  0  0  0  0
  131.0732  131.2048  156.0630 C   0  0  0  0  0  0  0  0  0  0  0  0
  130.3083  132.3605  155.9574 C   0  0  0  0  0  0  0  0  0  0  0  0
  129.8604  132.7791  154.7201 C   0  0  0  0  0  0  0  0  0  0  0  0
  130.1638  132.0455  153.5883 C   0  0  0  0  0  0  0  0  0  0  0  0
  130.9203  130.8913  153.6899 C   0  0  0  0  0  0  0  0  0  0  0  0
  131.3758  130.4693  154.9231 C   0  0  0  0  0  0  0  0  0  0  0  0
  130.5090  132.5253  159.3009 C   0  0  0  0  0  0  0  0  0  0  0  0
  131.6051  133.3402  158.9937 N   0  0  0  0  0  0  0  0  0  0  0  0
  132.0680  134.2574  159.9224 C   0  0  0  0  0  0  0  0  0  0  0  0
  131.9987  134.1200  161.2754 N   0  0  0  0  0  0  0  0  0  0  0  0
  131.6197  133.3686  161.7576 H   0  0  0  0  0  0  0  0  0  0  0  0
  132.5637  135.2399  161.8306 C   0  0  0  0  0  0  0  0  0  0  0  0
  132.9626  136.0312  160.8027 C   0  0  0  0  0  0  0  0  0  0  0  0
  133.6282  137.3499  160.9244 C   0  0  0  0  0  0  0  0  0  0  0  0
  133.4579  138.3337  159.9448 C   0  0  0  0  0  0  0  0  0  0  0  0
  134.0909  139.5489  160.1004 C   0  0  0  0  0  0  0  0  0  0  0  0
  134.8568  139.7846  161.1489 N   0  0  0  0  0  0  0  0  0  0  0  0
  135.0483  138.8821  162.0926 C   0  0  0  0  0  0  0  0  0  0  0  0
  134.4484  137.6426  162.0187 C   0  0  0  0  0  0  0  0  0  0  0  0
  132.6497  135.3984  159.6439 N   0  0  0  0  0  0  0  0  0  0  0  0
  132.8259  135.7373  158.7524 H   0  0  0  0  0  0  0  0  0  0  0  0
  129.5285  132.9787  160.1700 C   0  0  0  0  0  0  0  0  0  0  0  0
  126.6587  130.8471  162.1292 H   0  0  0  0  0  0  0  0  0  0  0  0
  125.6464  132.2924  162.3631 H   0  0  0  0  0  0  0  0  0  0  0  0
  125.7610  131.5368  160.7556 H   0  0  0  0  0  0  0  0  0  0  0  0
  127.5248  133.5079  161.7458 H   0  0  0  0  0  0  0  0  0  0  0  0
  127.4931  130.2757  160.1437 H   0  0  0  0  0  0  0  0  0  0  0  0
  129.2309  129.4668  158.6012 H   0  0  0  0  0  0  0  0  0  0  0  0
  130.0674  132.9322  156.8413 H   0  0  0  0  0  0  0  0  0  0  0  0
  129.2690  133.6790  154.6367 H   0  0  0  0  0  0  0  0  0  0  0  0
  129.8091  132.3719  152.6219 H   0  0  0  0  0  0  0  0  0  0  0  0
  131.1552  130.3204  152.8039 H   0  0  0  0  0  0  0  0  0  0  0  0
  131.9663  129.5683  155.0021 H   0  0  0  0  0  0  0  0  0  0  0  0
  132.0406  133.2623  158.1305 H   0  0  0  0  0  0  0  0  0  0  0  0
  132.6701  135.4517  162.8842 H   0  0  0  0  0  0  0  0  0  0  0  0
  132.8364  138.1460  159.0817 H   0  0  0  0  0  0  0  0  0  0  0  0
  133.9620  140.3165  159.3516 H   0  0  0  0  0  0  0  0  0  0  0  0
  135.6837  139.1172  162.9337 H   0  0  0  0  0  0  0  0  0  0  0  0
  134.6092  136.9088  162.7948 H   0  0  0  0  0  0  0  0  0  0  0  0
  129.6093  133.9613  160.6110 H   0  0  0  0  0  0  0  0  0  0  0  0
  1  2  1  0
  1 30  1  0
  1 31  1  0
  1 32  1  0
  2  3  1  0
  2 33  1  0
  3 29  2  0
  3  4  1  0
  4  5  2  0
  4 34  1  0
  5  6  1  0
  5 35  1  0
  6  7  1  0
  6 14  2  0
  7  8  1  0
  8 13  1  0
  8  9  2  0
  9 10  1  0
  9 36  1  0
 10 11  2  0
 10 37  1  0
 11 12  1  0
 11 38  1  0
 12 13  2  0
 12 39  1  0
 13 40  1  0
 14 15  1  0
 14 29  1  0
 15 41  1  0
 16 15  1  0
 16 27  2  0
 16 17  1  0
 17 18  1  0
 17 19  1  0
 19 20  2  0
 19 42  1  0
 20 21  1  0
 20 27  1  0
 21 26  1  0
 21 22  2  0
 22 23  1  0
 22 43  1  0
 23 24  2  0
 23 44  1  0
 24 25  1  0
 25 26  2  0
 25 45  1  0
 26 46  1  0
 27 28  1  0
 29 47  1  0
M  CHG  1  27   1
M  END
>  <DOCK_score>  (1) 
-58.632504

>  <SMILES>  (1) 
CNc1ccc(Sc2ccccc2)c(Nc2[nH]cc(-c3ccncc3)[nH+]2)c1

$$$$
