CC(C)NC(N[C@H]1CCC(=O)NC1)=[NH+]CC=CCl
     RDKit          3D

 40 40  0  0  1  0  0  0  0  0999 V2000
  132.8603  133.4248  160.6082 C   0  0  0  0  0  0  0  0  0  0  0  0
  131.6828  134.3779  160.3934 C   0  0  0  0  0  0  0  0  0  0  0  0
  132.1794  135.8238  160.4555 C   0  0  0  0  0  0  0  0  0  0  0  0
  131.0818  134.1238  159.0818 N   0  0  0  0  0  0  0  0  0  0  0  0
  129.7401  134.3503  158.8849 C   0  0  0  0  0  0  0  0  0  0  0  0
  128.9625  134.8154  159.9189 N   0  0  0  0  0  0  0  0  0  0  0  0
  127.5426  134.4608  159.9845 C   0  0  1  0  0  0  0  0  0  0  0  0
  127.1522  134.3172  158.9770 H   0  0  0  0  0  0  0  0  0  0  0  0
  127.3719  133.1681  160.7915 C   0  0  0  0  0  0  0  0  0  0  0  0
  125.9106  132.7238  160.6901 C   0  0  0  0  0  0  0  0  0  0  0  0
  125.0026  133.8824  160.9872 C   0  0  0  0  0  0  0  0  0  0  0  0
  123.8465  133.6480  161.2692 O   0  0  0  0  0  0  0  0  0  0  0  0
  125.3994  135.1552  160.9577 N   0  0  0  0  0  0  0  0  0  0  0  0
  126.7662  135.5789  160.6811 C   0  0  0  0  0  0  0  0  0  0  0  0
  129.2054  134.1243  157.7178 N   0  0  0  0  0  0  0  0  0  0  0  0
  128.4426  134.6467  157.4244 H   0  0  0  0  0  0  0  0  0  0  0  0
  129.7564  133.0810  156.8495 C   0  0  0  0  0  0  0  0  0  0  0  0
  129.6763  131.7495  157.5508 C   0  0  0  0  0  0  0  0  0  0  0  0
  130.7708  131.0682  157.7918 C   0  0  0  0  0  0  0  0  0  0  0  0
  130.6785  129.5345  158.5996 Cl  0  0  0  0  0  0  0  0  0  0  0  0
  133.2522  133.5530  161.6172 H   0  0  0  0  0  0  0  0  0  0  0  0
  132.5238  132.3963  160.4771 H   0  0  0  0  0  0  0  0  0  0  0  0
  133.6437  133.6459  159.8833 H   0  0  0  0  0  0  0  0  0  0  0  0
  130.9375  134.2159  161.1722 H   0  0  0  0  0  0  0  0  0  0  0  0
  131.3406  136.5028  160.3024 H   0  0  0  0  0  0  0  0  0  0  0  0
  132.6264  136.0128  161.4314 H   0  0  0  0  0  0  0  0  0  0  0  0
  132.9246  135.9857  159.6768 H   0  0  0  0  0  0  0  0  0  0  0  0
  131.6305  133.7957  158.3523 H   0  0  0  0  0  0  0  0  0  0  0  0
  129.3540  135.3784  160.6050 H   0  0  0  0  0  0  0  0  0  0  0  0
  127.6285  133.3504  161.8351 H   0  0  0  0  0  0  0  0  0  0  0  0
  128.0204  132.3923  160.3843 H   0  0  0  0  0  0  0  0  0  0  0  0
  125.7126  132.3577  159.6828 H   0  0  0  0  0  0  0  0  0  0  0  0
  125.7246  131.9246  161.4075 H   0  0  0  0  0  0  0  0  0  0  0  0
  124.7367  135.8421  161.1313 H   0  0  0  0  0  0  0  0  0  0  0  0
  127.2617  135.8318  161.6184 H   0  0  0  0  0  0  0  0  0  0  0  0
  126.7442  136.4579  160.0367 H   0  0  0  0  0  0  0  0  0  0  0  0
  129.1830  133.0388  155.9234 H   0  0  0  0  0  0  0  0  0  0  0  0
  130.7976  133.3097  156.6221 H   0  0  0  0  0  0  0  0  0  0  0  0
  128.7175  131.3564  157.8551 H   0  0  0  0  0  0  0  0  0  0  0  0
  131.7296  131.4615  157.4875 H   0  0  0  0  0  0  0  0  0  0  0  0
  1  2  1  0
  1 21  1  0
  1 22  1  0
  1 23  1  0
  2  3  1  0
  2  4  1  0
  2 24  1  0
  3 25  1  0
  3 26  1  0
  3 27  1  0
  4 28  1  0
  5  4  1  0
  5  6  1  0
  5 15  2  0
  6  7  1  0
  6 29  1  0
  7  8  1  6
  7 14  1  0
  7  9  1  0
  9 10  1  0
  9 30  1  0
  9 31  1  0
 10 11  1  0
 10 32  1  0
 10 33  1  0
 11 12  2  0
 11 13  1  0
 13 14  1  0
 13 34  1  0
 14 35  1  0
 14 36  1  0
 15 16  1  0
 15 17  1  0
 17 18  1  0
 17 37  1  0
 17 38  1  0
 18 19  2  0
 18 39  1  0
 19 20  1  0
 19 40  1  0
M  CHG  1  15   1
M  END
>  <DOCK_score>  (1) 
-41.861259

>  <SMILES>  (1) 
CC(C)NC(N[C@H]1CCC(=O)NC1)=[NH+]CC=CCl

$$$$
