Nc1ccc(-c2c[nH]c(NCCC[C@H]3CC=C(c4n[nH]cc4N)CC3)[nH+]2)cc1
     RDKit          3D

 56 59  0  0  1  0  0  0  0  0999 V2000
  131.4836  130.0129  152.2693 N   0  0  0  0  0  0  0  0  0  0  0  0
  131.2428  130.6488  153.4897 C   0  0  0  0  0  0  0  0  0  0  0  0
  130.9046  131.9967  153.5148 C   0  0  0  0  0  0  0  0  0  0  0  0
  130.6618  132.6253  154.7178 C   0  0  0  0  0  0  0  0  0  0  0  0
  130.7668  131.9106  155.9101 C   0  0  0  0  0  0  0  0  0  0  0  0
  130.5126  132.5864  157.2061 C   0  0  0  0  0  0  0  0  0  0  0  0
  130.0168  132.0041  158.3257 C   0  0  0  0  0  0  0  0  0  0  0  0
  129.9457  132.9847  159.2869 N   0  0  0  0  0  0  0  0  0  0  0  0
  129.6313  132.8746  160.1979 H   0  0  0  0  0  0  0  0  0  0  0  0
  130.3920  134.1393  158.7220 C   0  0  0  0  0  0  0  0  0  0  0  0
  130.4760  135.3672  159.3561 N   0  0  0  0  0  0  0  0  0  0  0  0
  130.0639  135.4986  160.7557 C   0  0  0  0  0  0  0  0  0  0  0  0
  131.2633  135.2331  161.6677 C   0  0  0  0  0  0  0  0  0  0  0  0
  132.3688  136.2463  161.3643 C   0  0  0  0  0  0  0  0  0  0  0  0
  133.5682  135.9808  162.2765 C   0  0  1  0  0  0  0  0  0  0  0  0
  133.2643  136.0779  163.3188 H   0  0  0  0  0  0  0  0  0  0  0  0
  134.1020  134.5690  162.0260 C   0  0  0  0  0  0  0  0  0  0  0  0
  135.4221  134.3855  162.7162 C   0  0  0  0  0  0  0  0  0  0  0  0
  136.1653  135.3765  163.1463 C   0  0  0  0  0  0  0  0  0  0  0  0
  137.4489  135.0500  163.8014 C   0  0  0  0  0  0  0  0  0  0  0  0
  138.4552  134.3991  163.2521 N   0  0  0  0  0  0  0  0  0  0  0  0
  139.4809  134.2968  164.2002 N   0  0  0  0  0  0  0  0  0  0  0  0
  140.3395  133.8659  164.0657 H   0  0  0  0  0  0  0  0  0  0  0  0
  139.0638  134.9068  165.3424 C   0  0  0  0  0  0  0  0  0  0  0  0
  137.8151  135.3859  165.1246 C   0  0  0  0  0  0  0  0  0  0  0  0
  137.0243  136.0887  166.0500 N   0  0  0  0  0  0  0  0  0  0  0  0
  135.7886  136.8233  163.0126 C   0  0  0  0  0  0  0  0  0  0  0  0
  134.6846  136.9853  161.9653 C   0  0  0  0  0  0  0  0  0  0  0  0
  130.7298  133.8974  157.4788 N   0  0  0  0  0  0  0  0  0  0  0  0
  131.0792  134.5514  156.8535 H   0  0  0  0  0  0  0  0  0  0  0  0
  131.1115  130.5602  155.8827 C   0  0  0  0  0  0  0  0  0  0  0  0
  131.3477  129.9342  154.6770 C   0  0  0  0  0  0  0  0  0  0  0  0
  131.7236  129.0732  152.2512 H   0  0  0  0  0  0  0  0  0  0  0  0
  131.4105  130.5109  151.4401 H   0  0  0  0  0  0  0  0  0  0  0  0
  130.8277  132.5510  152.5911 H   0  0  0  0  0  0  0  0  0  0  0  0
  130.3950  133.6716  154.7366 H   0  0  0  0  0  0  0  0  0  0  0  0
  129.7343  130.9682  158.4412 H   0  0  0  0  0  0  0  0  0  0  0  0
  130.8079  136.1405  158.8736 H   0  0  0  0  0  0  0  0  0  0  0  0
  129.6902  136.5075  160.9312 H   0  0  0  0  0  0  0  0  0  0  0  0
  129.2762  134.7767  160.9719 H   0  0  0  0  0  0  0  0  0  0  0  0
  130.9565  135.3307  162.7091 H   0  0  0  0  0  0  0  0  0  0  0  0
  131.6369  134.2243  161.4922 H   0  0  0  0  0  0  0  0  0  0  0  0
  132.6755  136.1487  160.3231 H   0  0  0  0  0  0  0  0  0  0  0  0
  131.9952  137.2551  161.5400 H   0  0  0  0  0  0  0  0  0  0  0  0
  133.3889  133.8396  162.4101 H   0  0  0  0  0  0  0  0  0  0  0  0
  134.2303  134.4160  160.9544 H   0  0  0  0  0  0  0  0  0  0  0  0
  135.7807  133.3781  162.8679 H   0  0  0  0  0  0  0  0  0  0  0  0
  139.6287  134.9969  166.2583 H   0  0  0  0  0  0  0  0  0  0  0  0
  136.0924  136.2713  165.8519 H   0  0  0  0  0  0  0  0  0  0  0  0
  137.4104  136.3912  166.8868 H   0  0  0  0  0  0  0  0  0  0  0  0
  135.4324  137.1942  163.9737 H   0  0  0  0  0  0  0  0  0  0  0  0
  136.6626  137.3974  162.7052 H   0  0  0  0  0  0  0  0  0  0  0  0
  135.0889  136.7876  160.9725 H   0  0  0  0  0  0  0  0  0  0  0  0
  134.2869  137.9993  162.0065 H   0  0  0  0  0  0  0  0  0  0  0  0
  131.1937  130.0047  156.8053 H   0  0  0  0  0  0  0  0  0  0  0  0
  131.6147  128.8880  154.6555 H   0  0  0  0  0  0  0  0  0  0  0  0
  1  2  1  0
  1 33  1  0
  1 34  1  0
  2 32  2  0
  2  3  1  0
  3  4  2  0
  3 35  1  0
  4  5  1  0
  4 36  1  0
  5  6  1  0
  5 31  2  0
  6 29  1  0
  6  7  2  0
  7  8  1  0
  7 37  1  0
  8  9  1  0
  8 10  1  0
 10 11  1  0
 10 29  2  0
 11 12  1  0
 11 38  1  0
 12 13  1  0
 12 39  1  0
 12 40  1  0
 13 14  1  0
 13 41  1  0
 13 42  1  0
 14 15  1  0
 14 43  1  0
 14 44  1  0
 15 16  1  1
 15 28  1  0
 15 17  1  0
 17 18  1  0
 17 45  1  0
 17 46  1  0
 18 19  2  0
 18 47  1  0
 19 20  1  0
 19 27  1  0
 20 25  1  0
 20 21  2  0
 21 22  1  0
 22 23  1  0
 22 24  1  0
 24 25  2  0
 24 48  1  0
 25 26  1  0
 26 49  1  0
 26 50  1  0
 27 28  1  0
 27 51  1  0
 27 52  1  0
 28 53  1  0
 28 54  1  0
 29 30  1  0
 31 32  1  0
 31 55  1  0
 32 56  1  0
M  CHG  1  29   1
M  END
>  <DOCK_score>  (1) 
-56.847771

>  <SMILES>  (1) 
Nc1ccc(-c2c[nH]c(NCCC[C@H]3CC=C(c4n[nH]cc4N)CC3)[nH+]2)cc1

$$$$
