Clc1ccc2c(c1)OC[C@@H](Nc1ccc(-c3n[nH]cc3C[NH2+]CC3C=CCC3)o1)C2
     RDKit          3D

 56 60  0  0  1  0  0  0  0  0999 V2000
  129.2381  141.2597  167.5985 Cl  0  0  0  0  0  0  0  0  0  0  0  0
  128.5694  140.3883  166.2541 C   0  0  0  0  0  0  0  0  0  0  0  0
  128.3731  141.0282  165.0426 C   0  0  0  0  0  0  0  0  0  0  0  0
  127.8397  140.3342  163.9745 C   0  0  0  0  0  0  0  0  0  0  0  0
  127.4985  138.9985  164.1085 C   0  0  0  0  0  0  0  0  0  0  0  0
  127.6968  138.3547  165.3174 C   0  0  0  0  0  0  0  0  0  0  0  0
  128.2332  139.0562  166.3922 C   0  0  0  0  0  0  0  0  0  0  0  0
  127.3824  137.0444  165.4907 O   0  0  0  0  0  0  0  0  0  0  0  0
  126.5078  136.4360  164.5395 C   0  0  0  0  0  0  0  0  0  0  0  0
  127.0186  136.7655  163.1310 C   0  0  1  0  0  0  0  0  0  0  0  0
  128.0594  136.4558  163.0357 H   0  0  0  0  0  0  0  0  0  0  0  0
  126.2022  136.0686  162.1340 N   0  0  0  0  0  0  0  0  0  0  0  0
  126.7932  135.1603  161.2635 C   0  0  0  0  0  0  0  0  0  0  0  0
  126.1894  134.0728  160.7228 C   0  0  0  0  0  0  0  0  0  0  0  0
  127.1435  133.4374  159.9037 C   0  0  0  0  0  0  0  0  0  0  0  0
  128.2869  134.1666  159.9929 C   0  0  0  0  0  0  0  0  0  0  0  0
  129.5586  133.8700  159.3018 C   0  0  0  0  0  0  0  0  0  0  0  0
  129.7819  132.8571  158.4874 N   0  0  0  0  0  0  0  0  0  0  0  0
  131.1091  132.9381  158.0470 N   0  0  0  0  0  0  0  0  0  0  0  0
  131.5449  132.3215  157.4380 H   0  0  0  0  0  0  0  0  0  0  0  0
  131.6770  134.0232  158.6163 C   0  0  0  0  0  0  0  0  0  0  0  0
  130.7481  134.6235  159.3910 C   0  0  0  0  0  0  0  0  0  0  0  0
  130.9473  135.8740  160.2079 C   0  0  0  0  0  0  0  0  0  0  0  0
  132.3234  136.3582  160.0347 N   0  0  0  0  0  0  0  0  0  0  0  0
  132.9708  135.6485  160.3430 H   0  0  0  0  0  0  0  0  0  0  0  0
  132.4875  136.5632  159.0606 H   0  0  0  0  0  0  0  0  0  0  0  0
  132.5174  137.5773  160.8311 C   0  0  0  0  0  0  0  0  0  0  0  0
  133.9506  138.0814  160.6507 C   0  0  2  0  0  0  0  0  0  0  0  0
  134.1400  139.3973  161.3688 C   0  0  0  0  0  0  0  0  0  0  0  0
  134.7856  140.2514  160.6223 C   0  0  0  0  0  0  0  0  0  0  0  0
  135.1344  139.6478  159.2817 C   0  0  0  0  0  0  0  0  0  0  0  0
  134.2254  138.4024  159.1632 C   0  0  0  0  0  0  0  0  0  0  0  0
  128.0612  135.2086  160.8205 O   0  0  0  0  0  0  0  0  0  0  0  0
  126.9100  138.2779  162.9219 C   0  0  0  0  0  0  0  0  0  0  0  0
  128.6375  142.0695  164.9323 H   0  0  0  0  0  0  0  0  0  0  0  0
  127.6874  140.8356  163.0302 H   0  0  0  0  0  0  0  0  0  0  0  0
  128.3864  138.5577  167.3380 H   0  0  0  0  0  0  0  0  0  0  0  0
  126.5022  135.3557  164.6845 H   0  0  0  0  0  0  0  0  0  0  0  0
  125.4988  136.8286  164.6651 H   0  0  0  0  0  0  0  0  0  0  0  0
  125.2490  136.2411  162.0813 H   0  0  0  0  0  0  0  0  0  0  0  0
  125.1701  133.7555  160.8873 H   0  0  0  0  0  0  0  0  0  0  0  0
  126.9957  132.5409  159.3199 H   0  0  0  0  0  0  0  0  0  0  0  0
  132.6947  134.3553  158.4735 H   0  0  0  0  0  0  0  0  0  0  0  0
  130.2477  136.6407  159.8750 H   0  0  0  0  0  0  0  0  0  0  0  0
  130.7697  135.6526  161.2604 H   0  0  0  0  0  0  0  0  0  0  0  0
  131.8179  138.3440  160.4982 H   0  0  0  0  0  0  0  0  0  0  0  0
  132.3400  137.3557  161.8835 H   0  0  0  0  0  0  0  0  0  0  0  0
  134.6618  137.3411  161.0170 H   0  0  0  0  0  0  0  0  0  0  0  0
  133.7874  139.6040  162.3684 H   0  0  0  0  0  0  0  0  0  0  0  0
  135.0378  141.2575  160.9233 H   0  0  0  0  0  0  0  0  0  0  0  0
  136.1841  139.3551  159.2586 H   0  0  0  0  0  0  0  0  0  0  0  0
  134.9182  140.3534  158.4797 H   0  0  0  0  0  0  0  0  0  0  0  0
  134.7496  137.5803  158.6758 H   0  0  0  0  0  0  0  0  0  0  0  0
  133.3010  138.6407  158.6370 H   0  0  0  0  0  0  0  0  0  0  0  0
  125.8612  138.5541  162.8135 H   0  0  0  0  0  0  0  0  0  0  0  0
  127.4543  138.5591  162.0203 H   0  0  0  0  0  0  0  0  0  0  0  0
  1  2  1  0
  2  7  2  0
  2  3  1  0
  3  4  2  0
  3 35  1  0
  4  5  1  0
  4 36  1  0
  5 34  1  0
  5  6  2  0
  6  7  1  0
  6  8  1  0
  7 37  1  0
  8  9  1  0
  9 10  1  0
  9 38  1  0
  9 39  1  0
 10 11  1  1
 10 12  1  0
 10 34  1  0
 12 13  1  0
 12 40  1  0
 13 33  1  0
 13 14  2  0
 14 15  1  0
 14 41  1  0
 15 16  2  0
 15 42  1  0
 16 17  1  0
 16 33  1  0
 17 22  1  0
 17 18  2  0
 18 19  1  0
 19 20  1  0
 19 21  1  0
 21 22  2  0
 21 43  1  0
 22 23  1  0
 23 24  1  0
 23 44  1  0
 23 45  1  0
 24 25  1  0
 24 26  1  0
 24 27  1  0
 27 28  1  0
 27 46  1  0
 27 47  1  0
 28 32  1  0
 28 29  1  0
 28 48  1  1
 29 30  2  0
 29 49  1  0
 30 31  1  0
 30 50  1  0
 31 32  1  0
 31 51  1  0
 31 52  1  0
 32 53  1  0
 32 54  1  0
 34 55  1  0
 34 56  1  0
M  CHG  1  24   1
M  END
>  <DOCK_score>  (1) 
-47.903519

>  <SMILES>  (1) 
Clc1ccc2c(c1)OC[C@@H](Nc1ccc(-c3n[nH]cc3C[NH2+]CC3C=CCC3)o1)C2

$$$$
