Cn1nccc1C([C@@H](Nc1[nH]cc(-c2ccc(N)cc2)[nH+]1)C1=CCCC1)C(F)(F)F
     RDKit          3D

 54 57  0  0  1  0  0  0  0  0999 V2000
  128.3827  135.8923  157.7473 C   0  0  0  0  0  0  0  0  0  0  0  0
  127.8899  134.9190  158.7251 N   0  0  0  0  0  0  0  0  0  0  0  0
  126.9781  133.8860  158.4720 N   0  0  0  0  0  0  0  0  0  0  0  0
  126.7798  133.2333  159.5885 C   0  0  0  0  0  0  0  0  0  0  0  0
  127.5614  133.8256  160.5857 C   0  0  0  0  0  0  0  0  0  0  0  0
  128.2363  134.8574  160.0279 C   0  0  0  0  0  0  0  0  0  0  0  0
  129.1975  135.7771  160.7361 C   0  0  2  0  0  0  0  0  0  0  0  0
  130.6131  135.2039  160.6440 C   0  0  1  0  0  0  0  0  0  0  0  0
  130.6382  134.2206  161.1135 H   0  0  0  0  0  0  0  0  0  0  0  0
  131.0004  135.0830  159.2363 N   0  0  0  0  0  0  0  0  0  0  0  0
  130.7320  133.9155  158.5424 C   0  0  0  0  0  0  0  0  0  0  0  0
  130.1117  132.8162  159.0506 N   0  0  0  0  0  0  0  0  0  0  0  0
  129.7813  132.7102  159.9564 H   0  0  0  0  0  0  0  0  0  0  0  0
  130.0401  131.8835  158.0430 C   0  0  0  0  0  0  0  0  0  0  0  0
  130.6183  132.4400  156.9502 C   0  0  0  0  0  0  0  0  0  0  0  0
  130.7696  131.7993  155.6208 C   0  0  0  0  0  0  0  0  0  0  0  0
  130.7743  132.5801  154.4660 C   0  0  0  0  0  0  0  0  0  0  0  0
  130.9210  131.9827  153.2317 C   0  0  0  0  0  0  0  0  0  0  0  0
  131.0524  130.6023  153.1380 C   0  0  0  0  0  0  0  0  0  0  0  0
  131.1956  129.9989  151.8861 N   0  0  0  0  0  0  0  0  0  0  0  0
  131.0422  129.8213  154.2876 C   0  0  0  0  0  0  0  0  0  0  0  0
  130.9017  130.4148  155.5242 C   0  0  0  0  0  0  0  0  0  0  0  0
  131.0285  133.6888  157.2857 N   0  0  0  0  0  0  0  0  0  0  0  0
  131.4723  134.3137  156.6913 H   0  0  0  0  0  0  0  0  0  0  0  0
  131.5743  136.1235  161.3522 C   0  0  0  0  0  0  0  0  0  0  0  0
  131.7761  137.3718  161.0285 C   0  0  0  0  0  0  0  0  0  0  0  0
  132.7989  138.0112  161.9387 C   0  0  0  0  0  0  0  0  0  0  0  0
  132.9011  137.0557  163.1503 C   0  0  0  0  0  0  0  0  0  0  0  0
  132.4357  135.7197  162.5261 C   0  0  0  0  0  0  0  0  0  0  0  0
  128.7931  135.9033  162.2062 C   0  0  0  0  0  0  0  0  0  0  0  0
  128.8254  134.6413  162.8089 F   0  0  0  0  0  0  0  0  0  0  0  0
  129.6852  136.7571  162.8637 F   0  0  0  0  0  0  0  0  0  0  0  0
  127.4985  136.4272  162.2904 F   0  0  0  0  0  0  0  0  0  0  0  0
  129.2813  135.5033  157.2685 H   0  0  0  0  0  0  0  0  0  0  0  0
  127.6164  136.0690  156.9926 H   0  0  0  0  0  0  0  0  0  0  0  0
  128.6171  136.8289  158.2533 H   0  0  0  0  0  0  0  0  0  0  0  0
  126.1249  132.3842  159.7178 H   0  0  0  0  0  0  0  0  0  0  0  0
  127.6165  133.5147  161.6186 H   0  0  0  0  0  0  0  0  0  0  0  0
  129.1723  136.7603  160.2665 H   0  0  0  0  0  0  0  0  0  0  0  0
  131.4413  135.8224  158.7894 H   0  0  0  0  0  0  0  0  0  0  0  0
  129.6064  130.8966  158.1094 H   0  0  0  0  0  0  0  0  0  0  0  0
  130.6674  133.6523  154.5382 H   0  0  0  0  0  0  0  0  0  0  0  0
  130.9288  132.5877  152.3372 H   0  0  0  0  0  0  0  0  0  0  0  0
  131.2876  129.0356  151.8197 H   0  0  0  0  0  0  0  0  0  0  0  0
  131.2027  130.5432  151.0833 H   0  0  0  0  0  0  0  0  0  0  0  0
  131.1443  128.7489  154.2122 H   0  0  0  0  0  0  0  0  0  0  0  0
  130.8941  129.8077  156.4173 H   0  0  0  0  0  0  0  0  0  0  0  0
  131.2763  137.8813  160.2182 H   0  0  0  0  0  0  0  0  0  0  0  0
  132.4617  138.9968  162.2598 H   0  0  0  0  0  0  0  0  0  0  0  0
  133.7606  138.0847  161.4310 H   0  0  0  0  0  0  0  0  0  0  0  0
  132.2316  137.3673  163.9519 H   0  0  0  0  0  0  0  0  0  0  0  0
  133.9287  136.9841  163.5066 H   0  0  0  0  0  0  0  0  0  0  0  0
  131.8516  135.1471  163.2466 H   0  0  0  0  0  0  0  0  0  0  0  0
  133.2940  135.1403  162.1857 H   0  0  0  0  0  0  0  0  0  0  0  0
  1  2  1  0
  1 34  1  0
  1 35  1  0
  1 36  1  0
  2  6  1  0
  2  3  1  0
  3  4  2  0
  4  5  1  0
  4 37  1  0
  5  6  2  0
  5 38  1  0
  6  7  1  0
  7  8  1  0
  7 30  1  0
  7 39  1  6
  8  9  1  1
  8 10  1  0
  8 25  1  0
 10 40  1  0
 11 10  1  0
 11 23  2  0
 11 12  1  0
 12 13  1  0
 12 14  1  0
 14 15  2  0
 14 41  1  0
 15 16  1  0
 15 23  1  0
 16 22  1  0
 16 17  2  0
 17 18  1  0
 17 42  1  0
 18 19  2  0
 18 43  1  0
 19 20  1  0
 19 21  1  0
 20 44  1  0
 20 45  1  0
 21 22  2  0
 21 46  1  0
 22 47  1  0
 23 24  1  0
 25 29  1  0
 25 26  2  0
 26 27  1  0
 26 48  1  0
 27 28  1  0
 27 49  1  0
 27 50  1  0
 28 29  1  0
 28 51  1  0
 28 52  1  0
 29 53  1  0
 29 54  1  0
 30 31  1  0
 30 32  1  0
 30 33  1  0
M  CHG  1  23   1
M  END
>  <DOCK_score>  (1) 
-57.032433

>  <SMILES>  (1) 
Cn1nccc1C([C@@H](Nc1[nH]cc(-c2ccc(N)cc2)[nH+]1)C1=CCCC1)C(F)(F)F

$$$$
