C=CCC[C@H](Nc1[nH]cc(-c2ccc(CC)cc2)[nH+]1)c1ccccc1
     RDKit          3D

 51 53  0  0  1  0  0  0  0  0999 V2000
  132.0551  134.7480  161.6096 C   0  0  0  0  0  0  0  0  0  0  0  0
  131.7129  135.9111  161.1139 C   0  0  0  0  0  0  0  0  0  0  0  0
  130.4799  136.6134  161.6216 C   0  0  0  0  0  0  0  0  0  0  0  0
  129.4998  136.8229  160.4655 C   0  0  0  0  0  0  0  0  0  0  0  0
  129.1080  135.4660  159.8770 C   0  0  2  0  0  0  0  0  0  0  0  0
  128.9722  134.7457  160.6837 H   0  0  0  0  0  0  0  0  0  0  0  0
  130.1669  134.9993  158.9786 N   0  0  0  0  0  0  0  0  0  0  0  0
  130.0352  133.7862  158.3248 C   0  0  0  0  0  0  0  0  0  0  0  0
  129.3588  132.7023  158.7938 N   0  0  0  0  0  0  0  0  0  0  0  0
  128.8865  132.6413  159.6388 H   0  0  0  0  0  0  0  0  0  0  0  0
  129.4680  131.7109  157.8492 C   0  0  0  0  0  0  0  0  0  0  0  0
  130.2073  132.2168  156.8312 C   0  0  0  0  0  0  0  0  0  0  0  0
  130.5849  131.5022  155.5875 C   0  0  0  0  0  0  0  0  0  0  0  0
  130.1870  131.9987  154.3473 C   0  0  0  0  0  0  0  0  0  0  0  0
  130.5416  131.3299  153.1933 C   0  0  0  0  0  0  0  0  0  0  0  0
  131.2900  130.1682  153.2662 C   0  0  0  0  0  0  0  0  0  0  0  0
  131.6736  129.4422  152.0025 C   0  0  0  0  0  0  0  0  0  0  0  0
  130.5870  128.4250  151.6489 C   0  0  0  0  0  0  0  0  0  0  0  0
  131.6826  129.6683  154.4942 C   0  0  0  0  0  0  0  0  0  0  0  0
  131.3391  130.3321  155.6544 C   0  0  0  0  0  0  0  0  0  0  0  0
  130.5453  133.4903  157.1543 N   0  0  0  0  0  0  0  0  0  0  0  0
  131.0775  134.0875  156.6054 H   0  0  0  0  0  0  0  0  0  0  0  0
  127.8206  135.6057  159.1062 C   0  0  0  0  0  0  0  0  0  0  0  0
  126.6092  135.4130  159.7436 C   0  0  0  0  0  0  0  0  0  0  0  0
  125.4280  135.5454  159.0376 C   0  0  0  0  0  0  0  0  0  0  0  0
  125.4587  135.8613  157.6922 C   0  0  0  0  0  0  0  0  0  0  0  0
  126.6704  136.0488  157.0536 C   0  0  0  0  0  0  0  0  0  0  0  0
  127.8513  135.9207  157.7605 C   0  0  0  0  0  0  0  0  0  0  0  0
  132.9387  134.2447  161.2458 H   0  0  0  0  0  0  0  0  0  0  0  0
  131.4537  134.2921  162.3824 H   0  0  0  0  0  0  0  0  0  0  0  0
  132.3143  136.3669  160.3411 H   0  0  0  0  0  0  0  0  0  0  0  0
  130.7591  137.5800  162.0410 H   0  0  0  0  0  0  0  0  0  0  0  0
  130.0072  136.0054  162.3930 H   0  0  0  0  0  0  0  0  0  0  0  0
  129.9725  137.4308  159.6941 H   0  0  0  0  0  0  0  0  0  0  0  0
  128.6081  137.3308  160.8327 H   0  0  0  0  0  0  0  0  0  0  0  0
  130.9604  135.5403  158.8419 H   0  0  0  0  0  0  0  0  0  0  0  0
  129.0457  130.7184  157.9065 H   0  0  0  0  0  0  0  0  0  0  0  0
  129.6023  132.9048  154.2895 H   0  0  0  0  0  0  0  0  0  0  0  0
  130.2339  131.7136  152.2318 H   0  0  0  0  0  0  0  0  0  0  0  0
  132.6207  128.9252  152.1537 H   0  0  0  0  0  0  0  0  0  0  0  0
  131.7776  130.1602  151.1883 H   0  0  0  0  0  0  0  0  0  0  0  0
  129.6398  128.9424  151.4974 H   0  0  0  0  0  0  0  0  0  0  0  0
  130.8645  127.8998  150.7350 H   0  0  0  0  0  0  0  0  0  0  0  0
  130.4828  127.7074  152.4628 H   0  0  0  0  0  0  0  0  0  0  0  0
  132.2628  128.7588  154.5452 H   0  0  0  0  0  0  0  0  0  0  0  0
  131.6503  129.9431  156.6127 H   0  0  0  0  0  0  0  0  0  0  0  0
  126.5854  135.1625  160.7939 H   0  0  0  0  0  0  0  0  0  0  0  0
  124.4815  135.3992  159.5365 H   0  0  0  0  0  0  0  0  0  0  0  0
  124.5360  135.9621  157.1399 H   0  0  0  0  0  0  0  0  0  0  0  0
  126.6943  136.2956  156.0025 H   0  0  0  0  0  0  0  0  0  0  0  0
  128.7978  136.0672  157.2617 H   0  0  0  0  0  0  0  0  0  0  0  0
  1  2  2  0
  1 29  1  0
  1 30  1  0
  2  3  1  0
  2 31  1  0
  3  4  1  0
  3 32  1  0
  3 33  1  0
  4  5  1  0
  4 34  1  0
  4 35  1  0
  5  6  1  1
  5  7  1  0
  5 23  1  0
  7 36  1  0
  8  7  1  0
  8 21  2  0
  8  9  1  0
  9 10  1  0
  9 11  1  0
 11 12  2  0
 11 37  1  0
 12 13  1  0
 12 21  1  0
 13 20  1  0
 13 14  2  0
 14 15  1  0
 14 38  1  0
 15 16  2  0
 15 39  1  0
 16 17  1  0
 16 19  1  0
 17 18  1  0
 17 40  1  0
 17 41  1  0
 18 42  1  0
 18 43  1  0
 18 44  1  0
 19 20  2  0
 19 45  1  0
 20 46  1  0
 21 22  1  0
 23 28  1  0
 23 24  2  0
 24 25  1  0
 24 47  1  0
 25 26  2  0
 25 48  1  0
 26 27  1  0
 26 49  1  0
 27 28  2  0
 27 50  1  0
 28 51  1  0
M  CHG  1  21   1
M  END
>  <DOCK_score>  (1) 
-61.092617

>  <SMILES>  (1) 
C=CCC[C@H](Nc1[nH]cc(-c2ccc(CC)cc2)[nH+]1)c1ccccc1

$$$$
