Cc1ccc(C[N@H+](C)C2c3cc(O)ccc3-c3ccc(O)cc32)[nH]1
     RDKit          3D

 45 48  0  0  1  0  0  0  0  0999 V2000
  133.6726  136.4620  161.0367 C   0  0  0  0  0  0  0  0  0  0  0  0
  132.1823  136.6847  161.0110 C   0  0  0  0  0  0  0  0  0  0  0  0
  131.4266  137.0974  162.0487 C   0  0  0  0  0  0  0  0  0  0  0  0
  130.0954  137.1799  161.5946 C   0  0  0  0  0  0  0  0  0  0  0  0
  130.0871  136.8063  160.2989 C   0  0  0  0  0  0  0  0  0  0  0  0
  128.8746  136.7400  159.4063 C   0  0  0  0  0  0  0  0  0  0  0  0
  128.8960  135.4848  158.6437 N   0  0  2  0  0  0  0  0  0  0  0  0
  129.7315  135.4482  158.0792 H   0  0  0  0  0  0  0  0  0  0  0  0
  127.7141  135.4204  157.7736 C   0  0  0  0  0  0  0  0  0  0  0  0
  128.8826  134.3470  159.5728 C   0  0  0  0  0  0  0  0  0  0  0  0
  127.4683  134.0405  160.0009 C   0  0  0  0  0  0  0  0  0  0  0  0
  126.5219  134.7880  160.6676 C   0  0  0  0  0  0  0  0  0  0  0  0
  125.2725  134.2456  160.9373 C   0  0  0  0  0  0  0  0  0  0  0  0
  124.3390  134.9825  161.5945 O   0  0  0  0  0  0  0  0  0  0  0  0
  124.9773  132.9499  160.5349 C   0  0  0  0  0  0  0  0  0  0  0  0
  125.9211  132.1990  159.8681 C   0  0  0  0  0  0  0  0  0  0  0  0
  127.1793  132.7404  159.5942 C   0  0  0  0  0  0  0  0  0  0  0  0
  128.3602  132.1645  158.9046 C   0  0  0  0  0  0  0  0  0  0  0  0
  128.5639  130.9101  158.3249 C   0  0  0  0  0  0  0  0  0  0  0  0
  129.7728  130.6112  157.7345 C   0  0  0  0  0  0  0  0  0  0  0  0
  130.7922  131.5537  157.7141 C   0  0  0  0  0  0  0  0  0  0  0  0
  131.9829  131.2545  157.1317 O   0  0  0  0  0  0  0  0  0  0  0  0
  130.5946  132.8018  158.2894 C   0  0  0  0  0  0  0  0  0  0  0  0
  129.3871  133.1047  158.8803 C   0  0  0  0  0  0  0  0  0  0  0  0
  131.3656  136.5043  159.9342 N   0  0  0  0  0  0  0  0  0  0  0  0
  131.6476  136.2095  159.0540 H   0  0  0  0  0  0  0  0  0  0  0  0
  134.1828  137.3860  160.7646 H   0  0  0  0  0  0  0  0  0  0  0  0
  133.9775  136.1599  162.0386 H   0  0  0  0  0  0  0  0  0  0  0  0
  133.9353  135.6790  160.3254 H   0  0  0  0  0  0  0  0  0  0  0  0
  131.7779  137.3263  163.0441 H   0  0  0  0  0  0  0  0  0  0  0  0
  129.2388  137.4841  162.1777 H   0  0  0  0  0  0  0  0  0  0  0  0
  128.8846  137.5842  158.7170 H   0  0  0  0  0  0  0  0  0  0  0  0
  127.9721  136.7795  160.0161 H   0  0  0  0  0  0  0  0  0  0  0  0
  126.8146  135.5700  158.3708 H   0  0  0  0  0  0  0  0  0  0  0  0
  127.7793  136.1991  157.0138 H   0  0  0  0  0  0  0  0  0  0  0  0
  127.6713  134.4442  157.2906 H   0  0  0  0  0  0  0  0  0  0  0  0
  129.4990  134.5675  160.4444 H   0  0  0  0  0  0  0  0  0  0  0  0
  126.7521  135.7957  160.9809 H   0  0  0  0  0  0  0  0  0  0  0  0
  124.6364  135.8712  161.8333 H   0  0  0  0  0  0  0  0  0  0  0  0
  124.0049  132.5293  160.7449 H   0  0  0  0  0  0  0  0  0  0  0  0
  125.6876  131.1917  159.5563 H   0  0  0  0  0  0  0  0  0  0  0  0
  127.7736  130.1742  158.3391 H   0  0  0  0  0  0  0  0  0  0  0  0
  129.9278  129.6407  157.2866 H   0  0  0  0  0  0  0  0  0  0  0  0
  132.6294  131.9727  157.1669 H   0  0  0  0  0  0  0  0  0  0  0  0
  131.3870  133.5353  158.2735 H   0  0  0  0  0  0  0  0  0  0  0  0
  1  2  1  0
  1 27  1  0
  1 28  1  0
  1 29  1  0
  2 25  1  0
  2  3  2  0
  3  4  1  0
  3 30  1  0
  4  5  2  0
  4 31  1  0
  5  6  1  0
  5 25  1  0
  6  7  1  0
  6 32  1  0
  6 33  1  0
  7  8  1  6
  7  9  1  0
  7 10  1  0
  9 34  1  0
  9 35  1  0
  9 36  1  0
 10 24  1  0
 10 11  1  0
 10 37  1  0
 11 17  1  0
 11 12  2  0
 12 13  1  0
 12 38  1  0
 13 14  1  0
 13 15  2  0
 14 39  1  0
 15 16  1  0
 15 40  1  0
 16 17  2  0
 16 41  1  0
 17 18  1  0
 18 24  2  0
 18 19  1  0
 19 20  2  0
 19 42  1  0
 20 21  1  0
 20 43  1  0
 21 22  1  0
 21 23  2  0
 22 44  1  0
 23 24  1  0
 23 45  1  0
 25 26  1  0
M  CHG  1   7   1
M  END
>  <DOCK_score>  (1) 
-42.902863

>  <SMILES>  (1) 
Cc1ccc(C[N@H+](C)C2c3cc(O)ccc3-c3ccc(O)cc32)[nH]1

$$$$
