O=[N+]([O-])c1ccc(-c2c[nH]c(N[C@H](c3ccccc3)c3ccc(C4=CCCC4)cc3)[nH+]2)cc1
     RDKit          3D

 58 62  0  0  1  0  0  0  0  0999 V2000
  132.0204  129.1819  151.4015 O   0  0  0  0  0  0  0  0  0  0  0  0
  131.2550  130.1248  151.4930 N   0  0  0  0  0  0  0  0  0  0  0  0
  130.7346  130.5862  150.4931 O   0  0  0  0  0  0  0  0  0  0  0  0
  130.9572  130.7105  152.8197 C   0  0  0  0  0  0  0  0  0  0  0  0
  130.0872  131.7812  152.9207 C   0  0  0  0  0  0  0  0  0  0  0  0
  129.8059  132.3311  154.1548 C   0  0  0  0  0  0  0  0  0  0  0  0
  130.4000  131.8053  155.3007 C   0  0  0  0  0  0  0  0  0  0  0  0
  130.1021  132.3924  156.6300 C   0  0  0  0  0  0  0  0  0  0  0  0
  129.5430  131.7441  157.6817 C   0  0  0  0  0  0  0  0  0  0  0  0
  129.4466  132.6546  158.7057 N   0  0  0  0  0  0  0  0  0  0  0  0
  129.0862  132.4877  159.5907 H   0  0  0  0  0  0  0  0  0  0  0  0
  129.9500  133.8338  158.2495 C   0  0  0  0  0  0  0  0  0  0  0  0
  130.0348  135.0092  158.9758 N   0  0  0  0  0  0  0  0  0  0  0  0
  129.0509  135.2960  160.0227 C   0  0  2  0  0  0  0  0  0  0  0  0
  129.0892  134.5143  160.7813 H   0  0  0  0  0  0  0  0  0  0  0  0
  127.6717  135.3409  159.4169 C   0  0  0  0  0  0  0  0  0  0  0  0
  126.5732  134.9737  160.1714 C   0  0  0  0  0  0  0  0  0  0  0  0
  125.3076  135.0191  159.6171 C   0  0  0  0  0  0  0  0  0  0  0  0
  125.1415  135.4228  158.3055 C   0  0  0  0  0  0  0  0  0  0  0  0
  126.2406  135.7849  157.5494 C   0  0  0  0  0  0  0  0  0  0  0  0
  127.5058  135.7437  158.1050 C   0  0  0  0  0  0  0  0  0  0  0  0
  129.3648  136.6267  160.6563 C   0  0  0  0  0  0  0  0  0  0  0  0
  129.3751  137.7731  159.8817 C   0  0  0  0  0  0  0  0  0  0  0  0
  129.6618  138.9945  160.4559 C   0  0  0  0  0  0  0  0  0  0  0  0
  129.9421  139.0720  161.8206 C   0  0  0  0  0  0  0  0  0  0  0  0
  130.2561  140.3764  162.4410 C   0  0  0  0  0  0  0  0  0  0  0  0
  131.2680  141.1503  162.0889 C   0  0  0  0  0  0  0  0  0  0  0  0
  131.2979  142.4090  162.9246 C   0  0  0  0  0  0  0  0  0  0  0  0
  130.3921  142.0991  164.1384 C   0  0  0  0  0  0  0  0  0  0  0  0
  129.4598  141.0083  163.5589 C   0  0  0  0  0  0  0  0  0  0  0  0
  129.9305  137.9120  162.5961 C   0  0  0  0  0  0  0  0  0  0  0  0
  129.6418  136.6968  162.0099 C   0  0  0  0  0  0  0  0  0  0  0  0
  130.3362  133.6745  157.0072 N   0  0  0  0  0  0  0  0  0  0  0  0
  130.7287  134.3627  156.4475 H   0  0  0  0  0  0  0  0  0  0  0  0
  131.2795  130.7295  155.1925 C   0  0  0  0  0  0  0  0  0  0  0  0
  131.5497  130.1845  153.9536 C   0  0  0  0  0  0  0  0  0  0  0  0
  129.6273  132.1877  152.0320 H   0  0  0  0  0  0  0  0  0  0  0  0
  129.1265  133.1670  154.2325 H   0  0  0  0  0  0  0  0  0  0  0  0
  129.2327  130.7100  157.7088 H   0  0  0  0  0  0  0  0  0  0  0  0
  130.7457  135.6430  158.7917 H   0  0  0  0  0  0  0  0  0  0  0  0
  126.7033  134.6547  161.1949 H   0  0  0  0  0  0  0  0  0  0  0  0
  124.4488  134.7364  160.2080 H   0  0  0  0  0  0  0  0  0  0  0  0
  124.1531  135.4556  157.8716 H   0  0  0  0  0  0  0  0  0  0  0  0
  126.1108  136.1003  156.5246 H   0  0  0  0  0  0  0  0  0  0  0  0
  128.3643  136.0267  157.5142 H   0  0  0  0  0  0  0  0  0  0  0  0
  129.1580  137.7118  158.8257 H   0  0  0  0  0  0  0  0  0  0  0  0
  129.6696  139.8887  159.8502 H   0  0  0  0  0  0  0  0  0  0  0  0
  131.9775  140.9150  161.3095 H   0  0  0  0  0  0  0  0  0  0  0  0
  132.3150  142.6211  163.2545 H   0  0  0  0  0  0  0  0  0  0  0  0
  130.8987  143.2502  162.3581 H   0  0  0  0  0  0  0  0  0  0  0  0
  130.9768  141.7150  164.9741 H   0  0  0  0  0  0  0  0  0  0  0  0
  129.8223  142.9797  164.4353 H   0  0  0  0  0  0  0  0  0  0  0  0
  128.5457  141.4552  163.1681 H   0  0  0  0  0  0  0  0  0  0  0  0
  129.2242  140.2673  164.3228 H   0  0  0  0  0  0  0  0  0  0  0  0
  130.1470  137.9653  163.6528 H   0  0  0  0  0  0  0  0  0  0  0  0
  129.6319  135.7984  162.6091 H   0  0  0  0  0  0  0  0  0  0  0  0
  131.7459  130.3209  156.0768 H   0  0  0  0  0  0  0  0  0  0  0  0
  132.2280  129.3485  153.8689 H   0  0  0  0  0  0  0  0  0  0  0  0
  1  2  2  0
  2  3  1  0
  2  4  1  0
  4 36  2  0
  4  5  1  0
  5  6  2  0
  5 37  1  0
  6  7  1  0
  6 38  1  0
  7  8  1  0
  7 35  2  0
  8 33  1  0
  8  9  2  0
  9 10  1  0
  9 39  1  0
 10 11  1  0
 10 12  1  0
 12 13  1  0
 12 33  2  0
 13 14  1  0
 13 40  1  0
 14 15  1  1
 14 16  1  0
 14 22  1  0
 16 21  1  0
 16 17  2  0
 17 18  1  0
 17 41  1  0
 18 19  2  0
 18 42  1  0
 19 20  1  0
 19 43  1  0
 20 21  2  0
 20 44  1  0
 21 45  1  0
 22 32  1  0
 22 23  2  0
 23 24  1  0
 23 46  1  0
 24 25  2  0
 24 47  1  0
 25 26  1  0
 25 31  1  0
 26 30  1  0
 26 27  2  0
 27 28  1  0
 27 48  1  0
 28 29  1  0
 28 49  1  0
 28 50  1  0
 29 30  1  0
 29 51  1  0
 29 52  1  0
 30 53  1  0
 30 54  1  0
 31 32  2  0
 31 55  1  0
 32 56  1  0
 33 34  1  0
 35 36  1  0
 35 57  1  0
 36 58  1  0
M  CHG  3   2   1   3  -1  33   1
M  END
>  <DOCK_score>  (1) 
-55.937683

>  <SMILES>  (1) 
O=[N+]([O-])c1ccc(-c2c[nH]c(N[C@H](c3ccccc3)c3ccc(C4=CCCC4)cc3)[nH+]2)cc1

$$$$
