CCn1ncnc1CSc1c(Br)ccc2c1CC[C@H]2[NH2+]C1CCC=CCC1
     RDKit          3D

 55 58  0  0  1  0  0  0  0  0999 V2000
  127.7975  142.7220  165.7578 C   0  0  0  0  0  0  0  0  0  0  0  0
  127.9871  141.2254  165.5028 C   0  0  0  0  0  0  0  0  0  0  0  0
  127.0946  140.7971  164.4228 N   0  0  0  0  0  0  0  0  0  0  0  0
  125.7400  141.1339  164.2669 N   0  0  0  0  0  0  0  0  0  0  0  0
  125.3257  140.5382  163.1796 C   0  0  0  0  0  0  0  0  0  0  0  0
  126.3390  139.8567  162.6467 N   0  0  0  0  0  0  0  0  0  0  0  0
  127.4103  140.0066  163.3825 C   0  0  0  0  0  0  0  0  0  0  0  0
  128.7610  139.3943  163.1141 C   0  0  0  0  0  0  0  0  0  0  0  0
  129.1808  139.6001  161.3615 S   0  0  0  0  0  0  0  0  0  0  0  0
  130.4171  138.3714  161.1031 C   0  0  0  0  0  0  0  0  0  0  0  0
  131.7571  138.6827  161.2990 C   0  0  0  0  0  0  0  0  0  0  0  0
  132.2562  140.4240  161.8421 Br  0  0  0  0  0  0  0  0  0  0  0  0
  132.7236  137.7173  161.0955 C   0  0  0  0  0  0  0  0  0  0  0  0
  132.3573  136.4454  160.6977 C   0  0  0  0  0  0  0  0  0  0  0  0
  131.0229  136.1296  160.5011 C   0  0  0  0  0  0  0  0  0  0  0  0
  130.0508  137.0900  160.7031 C   0  0  0  0  0  0  0  0  0  0  0  0
  128.6840  136.5023  160.4249 C   0  0  0  0  0  0  0  0  0  0  0  0
  128.9537  135.2149  159.6146 C   0  0  0  0  0  0  0  0  0  0  0  0
  130.3762  134.8294  160.0732 C   0  0  1  0  0  0  0  0  0  0  0  0
  130.3282  134.1365  160.9132 H   0  0  0  0  0  0  0  0  0  0  0  0
  131.1253  134.2295  158.9609 N   0  0  0  0  0  0  0  0  0  0  0  0
  131.1333  134.8666  158.1785 H   0  0  0  0  0  0  0  0  0  0  0  0
  132.0729  134.0453  159.2542 H   0  0  0  0  0  0  0  0  0  0  0  0
  130.4829  132.9705  158.5606 C   0  0  0  0  0  0  0  0  0  0  0  0
  130.8227  131.9043  159.5870 C   0  0  0  0  0  0  0  0  0  0  0  0
  130.0279  130.6232  159.3215 C   0  0  0  0  0  0  0  0  0  0  0  0
  130.7826  129.7879  158.3095 C   0  0  0  0  0  0  0  0  0  0  0  0
  130.8374  130.1546  157.0685 C   0  0  0  0  0  0  0  0  0  0  0  0
  130.1478  131.4233  156.6144 C   0  0  0  0  0  0  0  0  0  0  0  0
  130.9301  132.6237  157.1516 C   0  0  0  0  0  0  0  0  0  0  0  0
  126.7633  142.9137  166.0435 H   0  0  0  0  0  0  0  0  0  0  0  0
  128.4616  143.0407  166.5613 H   0  0  0  0  0  0  0  0  0  0  0  0
  128.0327  143.2779  164.8501 H   0  0  0  0  0  0  0  0  0  0  0  0
  127.7518  140.6696  166.4105 H   0  0  0  0  0  0  0  0  0  0  0  0
  129.0213  141.0336  165.2171 H   0  0  0  0  0  0  0  0  0  0  0  0
  124.3246  140.5905  162.7780 H   0  0  0  0  0  0  0  0  0  0  0  0
  128.7337  138.3324  163.3590 H   0  0  0  0  0  0  0  0  0  0  0  0
  129.5129  139.8895  163.7285 H   0  0  0  0  0  0  0  0  0  0  0  0
  133.7659  137.9564  161.2469 H   0  0  0  0  0  0  0  0  0  0  0  0
  133.1158  135.6933  160.5388 H   0  0  0  0  0  0  0  0  0  0  0  0
  128.1790  136.2602  161.3600 H   0  0  0  0  0  0  0  0  0  0  0  0
  128.0838  137.2002  159.8413 H   0  0  0  0  0  0  0  0  0  0  0  0
  128.9338  135.4198  158.5443 H   0  0  0  0  0  0  0  0  0  0  0  0
  128.2383  134.4346  159.8743 H   0  0  0  0  0  0  0  0  0  0  0  0
  129.4028  133.1169  158.5574 H   0  0  0  0  0  0  0  0  0  0  0  0
  131.8887  131.6827  159.5348 H   0  0  0  0  0  0  0  0  0  0  0  0
  130.5824  132.2756  160.5832 H   0  0  0  0  0  0  0  0  0  0  0  0
  129.0449  130.8778  158.9255 H   0  0  0  0  0  0  0  0  0  0  0  0
  129.9145  130.0609  160.2484 H   0  0  0  0  0  0  0  0  0  0  0  0
  131.2778  128.8811  158.6241 H   0  0  0  0  0  0  0  0  0  0  0  0
  131.3784  129.5519  156.3539 H   0  0  0  0  0  0  0  0  0  0  0  0
  129.1300  131.4459  157.0038 H   0  0  0  0  0  0  0  0  0  0  0  0
  130.1237  131.4599  155.5253 H   0  0  0  0  0  0  0  0  0  0  0  0
  130.7626  133.4817  156.5004 H   0  0  0  0  0  0  0  0  0  0  0  0
  131.9933  132.3831  157.1615 H   0  0  0  0  0  0  0  0  0  0  0  0
  1  2  1  0
  1 31  1  0
  1 32  1  0
  1 33  1  0
  2  3  1  0
  2 34  1  0
  2 35  1  0
  3  7  1  0
  3  4  1  0
  4  5  2  0
  5  6  1  0
  5 36  1  0
  6  7  2  0
  7  8  1  0
  8  9  1  0
  8 37  1  0
  8 38  1  0
  9 10  1  0
 10 16  1  0
 10 11  2  0
 11 12  1  0
 11 13  1  0
 13 14  2  0
 13 39  1  0
 14 15  1  0
 14 40  1  0
 15 19  1  0
 15 16  2  0
 16 17  1  0
 17 18  1  0
 17 41  1  0
 17 42  1  0
 18 19  1  0
 18 43  1  0
 18 44  1  0
 19 20  1  1
 19 21  1  0
 21 22  1  0
 21 23  1  0
 21 24  1  0
 24 30  1  0
 24 25  1  0
 24 45  1  0
 25 26  1  0
 25 46  1  0
 25 47  1  0
 26 27  1  0
 26 48  1  0
 26 49  1  0
 27 28  2  0
 27 50  1  0
 28 29  1  0
 28 51  1  0
 29 30  1  0
 29 52  1  0
 29 53  1  0
 30 54  1  0
 30 55  1  0
M  CHG  1  21   1
M  END
>  <DOCK_score>  (1) 
-44.752403

>  <SMILES>  (1) 
CCn1ncnc1CSc1c(Br)ccc2c1CC[C@H]2[NH2+]C1CCC=CCC1

$$$$
