Fc1ccc([C@H](Nc2[nH]cc(-c3ccc(Br)cc3)[nH+]2)c2cccc(F)c2)cc1
     RDKit          3D

 45 48  0  0  1  0  0  0  0  0999 V2000
  131.1140  141.1181  161.6005 F   0  0  0  0  0  0  0  0  0  0  0  0
  130.7840  139.8495  161.2738 C   0  0  0  0  0  0  0  0  0  0  0  0
  130.6507  138.8913  162.2645 C   0  0  0  0  0  0  0  0  0  0  0  0
  130.3134  137.5937  161.9292 C   0  0  0  0  0  0  0  0  0  0  0  0
  130.1087  137.2523  160.6052 C   0  0  0  0  0  0  0  0  0  0  0  0
  129.7406  135.8372  160.2409 C   0  0  2  0  0  0  0  0  0  0  0  0
  130.1724  135.1505  160.9688 H   0  0  0  0  0  0  0  0  0  0  0  0
  130.2603  135.5253  158.9072 N   0  0  0  0  0  0  0  0  0  0  0  0
  130.0448  134.2740  158.3555 C   0  0  0  0  0  0  0  0  0  0  0  0
  129.3637  133.2541  158.9455 N   0  0  0  0  0  0  0  0  0  0  0  0
  128.9459  133.2728  159.8206 H   0  0  0  0  0  0  0  0  0  0  0  0
  129.3777  132.1931  158.0729 C   0  0  0  0  0  0  0  0  0  0  0  0
  130.0663  132.5947  156.9759 C   0  0  0  0  0  0  0  0  0  0  0  0
  130.3383  131.7773  155.7684 C   0  0  0  0  0  0  0  0  0  0  0  0
  129.8728  132.1941  154.5224 C   0  0  0  0  0  0  0  0  0  0  0  0
  130.1335  131.4329  153.4014 C   0  0  0  0  0  0  0  0  0  0  0  0
  130.8458  130.2516  153.5141 C   0  0  0  0  0  0  0  0  0  0  0  0
  131.1919  129.2095  151.9746 Br  0  0  0  0  0  0  0  0  0  0  0  0
  131.3058  129.8304  154.7500 C   0  0  0  0  0  0  0  0  0  0  0  0
  131.0555  130.5871  155.8765 C   0  0  0  0  0  0  0  0  0  0  0  0
  130.4582  133.8780  157.1764 N   0  0  0  0  0  0  0  0  0  0  0  0
  130.9656  134.4158  156.5484 H   0  0  0  0  0  0  0  0  0  0  0  0
  128.2406  135.6921  160.2419 C   0  0  0  0  0  0  0  0  0  0  0  0
  127.5224  135.9316  159.0850 C   0  0  0  0  0  0  0  0  0  0  0  0
  126.1463  135.7995  159.0846 C   0  0  0  0  0  0  0  0  0  0  0  0
  125.4871  135.4277  160.2412 C   0  0  0  0  0  0  0  0  0  0  0  0
  126.2052  135.1876  161.4000 C   0  0  0  0  0  0  0  0  0  0  0  0
  125.5617  134.8239  162.5309 F   0  0  0  0  0  0  0  0  0  0  0  0
  127.5836  135.3204  161.3992 C   0  0  0  0  0  0  0  0  0  0  0  0
  130.2469  138.2068  159.6148 C   0  0  0  0  0  0  0  0  0  0  0  0
  130.5790  139.5063  159.9482 C   0  0  0  0  0  0  0  0  0  0  0  0
  130.8106  139.1578  163.2987 H   0  0  0  0  0  0  0  0  0  0  0  0
  130.2095  136.8462  162.7016 H   0  0  0  0  0  0  0  0  0  0  0  0
  130.7555  136.1955  158.4107 H   0  0  0  0  0  0  0  0  0  0  0  0
  128.9262  131.2246  158.2303 H   0  0  0  0  0  0  0  0  0  0  0  0
  129.3129  133.1132  154.4341 H   0  0  0  0  0  0  0  0  0  0  0  0
  129.7768  131.7570  152.4348 H   0  0  0  0  0  0  0  0  0  0  0  0
  131.8614  128.9080  154.8327 H   0  0  0  0  0  0  0  0  0  0  0  0
  131.4148  130.2577  156.8402 H   0  0  0  0  0  0  0  0  0  0  0  0
  128.0362  136.2264  158.1820 H   0  0  0  0  0  0  0  0  0  0  0  0
  125.5863  135.9871  158.1805 H   0  0  0  0  0  0  0  0  0  0  0  0
  124.4118  135.3248  160.2407 H   0  0  0  0  0  0  0  0  0  0  0  0
  128.1448  135.1338  162.3029 H   0  0  0  0  0  0  0  0  0  0  0  0
  130.0914  137.9379  158.5804 H   0  0  0  0  0  0  0  0  0  0  0  0
  130.6829  140.2527  159.1747 H   0  0  0  0  0  0  0  0  0  0  0  0
  1  2  1  0
  2 31  2  0
  2  3  1  0
  3  4  2  0
  3 32  1  0
  4  5  1  0
  4 33  1  0
  5  6  1  0
  5 30  2  0
  6  7  1  1
  6  8  1  0
  6 23  1  0
  8 34  1  0
  9  8  1  0
  9 21  2  0
  9 10  1  0
 10 11  1  0
 10 12  1  0
 12 13  2  0
 12 35  1  0
 13 14  1  0
 13 21  1  0
 14 20  1  0
 14 15  2  0
 15 16  1  0
 15 36  1  0
 16 17  2  0
 16 37  1  0
 17 18  1  0
 17 19  1  0
 19 20  2  0
 19 38  1  0
 20 39  1  0
 21 22  1  0
 23 29  1  0
 23 24  2  0
 24 25  1  0
 24 40  1  0
 25 26  2  0
 25 41  1  0
 26 27  1  0
 26 42  1  0
 27 28  1  0
 27 29  2  0
 29 43  1  0
 30 31  1  0
 30 44  1  0
 31 45  1  0
M  CHG  1  21   1
M  END
>  <DOCK_score>  (1) 
-58.397839

>  <SMILES>  (1) 
Fc1ccc([C@H](Nc2[nH]cc(-c3ccc(Br)cc3)[nH+]2)c2cccc(F)c2)cc1

$$$$
