C[C@@H](Nc1[nH]cc(-c2ccc(C3=CCC=CC3)cc2)[nH+]1)c1ccc(N(C)C)nc1
     RDKit          3D

 57 60  0  0  1  0  0  0  0  0999 V2000
  130.5810  137.0977  161.5422 C   0  0  0  0  0  0  0  0  0  0  0  0
  131.4778  135.8839  161.2909 C   0  0  1  0  0  0  0  0  0  0  0  0
  131.0326  135.0018  161.7511 H   0  0  0  0  0  0  0  0  0  0  0  0
  131.6127  135.6667  159.8484 N   0  0  0  0  0  0  0  0  0  0  0  0
  131.1961  134.4722  159.2863 C   0  0  0  0  0  0  0  0  0  0  0  0
  130.6423  133.4287  159.9623 N   0  0  0  0  0  0  0  0  0  0  0  0
  130.4710  133.3883  160.9162 H   0  0  0  0  0  0  0  0  0  0  0  0
  130.3715  132.4432  159.0448 C   0  0  0  0  0  0  0  0  0  0  0  0
  130.7675  132.9124  157.8348 C   0  0  0  0  0  0  0  0  0  0  0  0
  130.6696  132.1898  156.5443 C   0  0  0  0  0  0  0  0  0  0  0  0
  129.9135  132.7254  155.5010 C   0  0  0  0  0  0  0  0  0  0  0  0
  129.8262  132.0573  154.3003 C   0  0  0  0  0  0  0  0  0  0  0  0
  130.4856  130.8383  154.1304 C   0  0  0  0  0  0  0  0  0  0  0  0
  130.3880  130.1182  152.8444 C   0  0  0  0  0  0  0  0  0  0  0  0
  130.4680  128.8047  152.8483 C   0  0  0  0  0  0  0  0  0  0  0  0
  130.3757  127.9858  151.5959 C   0  0  0  0  0  0  0  0  0  0  0  0
  130.6673  128.8172  150.3834 C   0  0  0  0  0  0  0  0  0  0  0  0
  130.5935  130.1133  150.3790 C   0  0  0  0  0  0  0  0  0  0  0  0
  130.2082  130.9131  151.5863 C   0  0  0  0  0  0  0  0  0  0  0  0
  131.2379  130.2999  155.1772 C   0  0  0  0  0  0  0  0  0  0  0  0
  131.3287  130.9717  156.3754 C   0  0  0  0  0  0  0  0  0  0  0  0
  131.2649  134.1621  158.0148 N   0  0  0  0  0  0  0  0  0  0  0  0
  131.6171  134.7336  157.3147 H   0  0  0  0  0  0  0  0  0  0  0  0
  132.8378  136.1312  161.8911 C   0  0  0  0  0  0  0  0  0  0  0  0
  133.1035  135.7612  163.2030 C   0  0  0  0  0  0  0  0  0  0  0  0
  134.3643  136.0063  163.7156 C   0  0  0  0  0  0  0  0  0  0  0  0
  135.3186  136.6121  162.9042 C   0  0  0  0  0  0  0  0  0  0  0  0
  136.5899  136.8643  163.4064 N   0  0  0  0  0  0  0  0  0  0  0  0
  137.1579  135.9898  164.4354 C   0  0  0  0  0  0  0  0  0  0  0  0
  137.3618  138.0049  162.9069 C   0  0  0  0  0  0  0  0  0  0  0  0
  135.0248  136.9551  161.6596 N   0  0  0  0  0  0  0  0  0  0  0  0
  133.8320  136.7283  161.1426 C   0  0  0  0  0  0  0  0  0  0  0  0
  131.0262  137.9799  161.0820 H   0  0  0  0  0  0  0  0  0  0  0  0
  129.5974  136.9188  161.1082 H   0  0  0  0  0  0  0  0  0  0  0  0
  130.4806  137.2594  162.6154 H   0  0  0  0  0  0  0  0  0  0  0  0
  131.9941  136.3599  159.2872 H   0  0  0  0  0  0  0  0  0  0  0  0
  129.9283  131.4795  159.2477 H   0  0  0  0  0  0  0  0  0  0  0  0
  129.4000  133.6660  155.6341 H   0  0  0  0  0  0  0  0  0  0  0  0
  129.2445  132.4740  153.4915 H   0  0  0  0  0  0  0  0  0  0  0  0
  130.6020  128.2961  153.7916 H   0  0  0  0  0  0  0  0  0  0  0  0
  129.3717  127.5699  151.5106 H   0  0  0  0  0  0  0  0  0  0  0  0
  131.0966  127.1703  151.6519 H   0  0  0  0  0  0  0  0  0  0  0  0
  130.9527  128.3148  149.4711 H   0  0  0  0  0  0  0  0  0  0  0  0
  130.8199  130.6390  149.4631 H   0  0  0  0  0  0  0  0  0  0  0  0
  129.1634  131.2120  151.4982 H   0  0  0  0  0  0  0  0  0  0  0  0
  130.8316  131.8066  151.6354 H   0  0  0  0  0  0  0  0  0  0  0  0
  131.7479  129.3568  155.0468 H   0  0  0  0  0  0  0  0  0  0  0  0
  131.9107  130.5561  157.1847 H   0  0  0  0  0  0  0  0  0  0  0  0
  132.3424  135.2927  163.8096 H   0  0  0  0  0  0  0  0  0  0  0  0
  134.6051  135.7311  164.7319 H   0  0  0  0  0  0  0  0  0  0  0  0
  136.8914  136.3688  165.4220 H   0  0  0  0  0  0  0  0  0  0  0  0
  138.2430  135.9682  164.3353 H   0  0  0  0  0  0  0  0  0  0  0  0
  136.7617  134.9815  164.3143 H   0  0  0  0  0  0  0  0  0  0  0  0
  137.9605  137.6919  162.0517 H   0  0  0  0  0  0  0  0  0  0  0  0
  136.6805  138.7993  162.6022 H   0  0  0  0  0  0  0  0  0  0  0  0
  138.0187  138.3723  163.6953 H   0  0  0  0  0  0  0  0  0  0  0  0
  133.6296  137.0177  160.1219 H   0  0  0  0  0  0  0  0  0  0  0  0
  1  2  1  0
  1 33  1  0
  1 34  1  0
  1 35  1  0
  2  3  1  1
  2  4  1  0
  2 24  1  0
  4 36  1  0
  5  4  1  0
  5 22  2  0
  5  6  1  0
  6  7  1  0
  6  8  1  0
  8  9  2  0
  8 37  1  0
  9 10  1  0
  9 22  1  0
 10 21  1  0
 10 11  2  0
 11 12  1  0
 11 38  1  0
 12 13  2  0
 12 39  1  0
 13 14  1  0
 13 20  1  0
 14 19  1  0
 14 15  2  0
 15 16  1  0
 15 40  1  0
 16 17  1  0
 16 41  1  0
 16 42  1  0
 17 18  2  0
 17 43  1  0
 18 19  1  0
 18 44  1  0
 19 45  1  0
 19 46  1  0
 20 21  2  0
 20 47  1  0
 21 48  1  0
 22 23  1  0
 24 32  1  0
 24 25  2  0
 25 26  1  0
 25 49  1  0
 26 27  2  0
 26 50  1  0
 27 28  1  0
 27 31  1  0
 28 29  1  0
 28 30  1  0
 29 51  1  0
 29 52  1  0
 29 53  1  0
 30 54  1  0
 30 55  1  0
 30 56  1  0
 31 32  2  0
 32 57  1  0
M  CHG  1  22   1
M  END
>  <DOCK_score>  (1) 
-57.630451

>  <SMILES>  (1) 
C[C@@H](Nc1[nH]cc(-c2ccc(C3=CCC=CC3)cc2)[nH+]1)c1ccc(N(C)C)nc1

$$$$
