Brc1ccccc1[C@H](c1ccccc1)[NH+]1CCN(c2cccc3cc[nH]c23)CC1
     RDKit          3D

 54 58  0  0  1  0  0  0  0  0999 V2000
  129.9788  130.0624  159.1730 Br  0  0  0  0  0  0  0  0  0  0  0  0
  130.2758  131.0380  157.5807 C   0  0  0  0  0  0  0  0  0  0  0  0
  130.6231  130.3746  156.4173 C   0  0  0  0  0  0  0  0  0  0  0  0
  130.8397  131.0880  155.2537 C   0  0  0  0  0  0  0  0  0  0  0  0
  130.7096  132.4645  155.2521 C   0  0  0  0  0  0  0  0  0  0  0  0
  130.3570  133.1271  156.4128 C   0  0  0  0  0  0  0  0  0  0  0  0
  130.1454  132.4149  157.5784 C   0  0  0  0  0  0  0  0  0  0  0  0
  129.7665  133.1380  158.8451 C   0  0  2  0  0  0  0  0  0  0  0  0
  129.6378  132.4157  159.6512 H   0  0  0  0  0  0  0  0  0  0  0  0
  128.4760  133.8860  158.6299 C   0  0  0  0  0  0  0  0  0  0  0  0
  127.2673  133.2674  158.8891 C   0  0  0  0  0  0  0  0  0  0  0  0
  126.0836  133.9549  158.6960 C   0  0  0  0  0  0  0  0  0  0  0  0
  126.1084  135.2577  158.2345 C   0  0  0  0  0  0  0  0  0  0  0  0
  127.3171  135.8745  157.9706 C   0  0  0  0  0  0  0  0  0  0  0  0
  128.5009  135.1886  158.1679 C   0  0  0  0  0  0  0  0  0  0  0  0
  130.8287  134.0874  159.2035 N   0  0  0  0  0  0  0  0  0  0  0  0
  130.9478  134.7559  158.4571 H   0  0  0  0  0  0  0  0  0  0  0  0
  132.0866  133.3583  159.4126 C   0  0  0  0  0  0  0  0  0  0  0  0
  133.1977  134.3489  159.7672 C   0  0  0  0  0  0  0  0  0  0  0  0
  132.8270  135.0802  160.9869 N   0  0  0  0  0  0  0  0  0  0  0  0
  133.8442  135.9583  161.3735 C   0  0  0  0  0  0  0  0  0  0  0  0
  134.4474  135.8222  162.6118 C   0  0  0  0  0  0  0  0  0  0  0  0
  135.4625  136.6842  163.0009 C   0  0  0  0  0  0  0  0  0  0  0  0
  135.8752  137.6908  162.1741 C   0  0  0  0  0  0  0  0  0  0  0  0
  135.2770  137.8525  160.9212 C   0  0  0  0  0  0  0  0  0  0  0  0
  135.4690  138.7951  159.8166 C   0  0  0  0  0  0  0  0  0  0  0  0
  134.5953  138.4568  158.8549 C   0  0  0  0  0  0  0  0  0  0  0  0
  133.8600  137.3750  159.2533 N   0  0  0  0  0  0  0  0  0  0  0  0
  133.1656  136.9484  158.7271 H   0  0  0  0  0  0  0  0  0  0  0  0
  134.2533  136.9808  160.5143 C   0  0  0  0  0  0  0  0  0  0  0  0
  131.5564  135.7951  160.8011 C   0  0  0  0  0  0  0  0  0  0  0  0
  130.4588  134.7925  160.4378 C   0  0  0  0  0  0  0  0  0  0  0  0
  130.7248  129.2994  156.4185 H   0  0  0  0  0  0  0  0  0  0  0  0
  131.1108  130.5702  154.3455 H   0  0  0  0  0  0  0  0  0  0  0  0
  130.8793  133.0216  154.3425 H   0  0  0  0  0  0  0  0  0  0  0  0
  130.2509  134.2019  156.4098 H   0  0  0  0  0  0  0  0  0  0  0  0
  127.2478  132.2483  159.2460 H   0  0  0  0  0  0  0  0  0  0  0  0
  125.1394  133.4730  158.9025 H   0  0  0  0  0  0  0  0  0  0  0  0
  125.1835  135.7936  158.0803 H   0  0  0  0  0  0  0  0  0  0  0  0
  127.3365  136.8924  157.6100 H   0  0  0  0  0  0  0  0  0  0  0  0
  129.4451  135.6704  157.9615 H   0  0  0  0  0  0  0  0  0  0  0  0
  131.9619  132.6450  160.2273 H   0  0  0  0  0  0  0  0  0  0  0  0
  132.3532  132.8248  158.5003 H   0  0  0  0  0  0  0  0  0  0  0  0
  133.3317  135.0542  158.9469 H   0  0  0  0  0  0  0  0  0  0  0  0
  134.1280  133.8067  159.9367 H   0  0  0  0  0  0  0  0  0  0  0  0
  134.1286  135.0349  163.2789 H   0  0  0  0  0  0  0  0  0  0  0  0
  135.9269  136.5620  163.9684 H   0  0  0  0  0  0  0  0  0  0  0  0
  136.6626  138.3600  162.4880 H   0  0  0  0  0  0  0  0  0  0  0  0
  136.1784  139.6087  159.7825 H   0  0  0  0  0  0  0  0  0  0  0  0
  134.4886  138.9643  157.9074 H   0  0  0  0  0  0  0  0  0  0  0  0
  131.6634  136.5243  159.9979 H   0  0  0  0  0  0  0  0  0  0  0  0
  131.2891  136.3080  161.7250 H   0  0  0  0  0  0  0  0  0  0  0  0
  129.5186  135.3225  160.2855 H   0  0  0  0  0  0  0  0  0  0  0  0
  130.3426  134.0718  161.2471 H   0  0  0  0  0  0  0  0  0  0  0  0
  1  2  1  0
  2  7  2  0
  2  3  1  0
  3  4  2  0
  3 33  1  0
  4  5  1  0
  4 34  1  0
  5  6  2  0
  5 35  1  0
  6  7  1  0
  6 36  1  0
  7  8  1  0
  8  9  1  1
  8 10  1  0
  8 16  1  0
 10 15  1  0
 10 11  2  0
 11 12  1  0
 11 37  1  0
 12 13  2  0
 12 38  1  0
 13 14  1  0
 13 39  1  0
 14 15  2  0
 14 40  1  0
 15 41  1  0
 16 17  1  0
 16 32  1  0
 16 18  1  0
 18 19  1  0
 18 42  1  0
 18 43  1  0
 19 20  1  0
 19 44  1  0
 19 45  1  0
 20 21  1  0
 20 31  1  0
 21 30  1  0
 21 22  2  0
 22 23  1  0
 22 46  1  0
 23 24  2  0
 23 47  1  0
 24 25  1  0
 24 48  1  0
 25 30  2  0
 25 26  1  0
 26 27  2  0
 26 49  1  0
 27 28  1  0
 27 50  1  0
 28 29  1  0
 28 30  1  0
 31 32  1  0
 31 51  1  0
 31 52  1  0
 32 53  1  0
 32 54  1  0
M  CHG  1  16   1
M  END
>  <DOCK_score>  (1) 
-63.383057

>  <SMILES>  (1) 
Brc1ccccc1[C@H](c1ccccc1)[NH+]1CCN(c2cccc3cc[nH]c23)CC1

$$$$
