O=C(c1c[nH]nc1[C@H]1CCC[NH2+]C1)N(Cc1ccn(C2CC2)n1)C1CC=CC1
     RDKit          3D

 57 61  0  0  1  0  0  0  0  0999 V2000
  130.7975  136.0599  162.5186 O   0  0  0  0  0  0  0  0  0  0  0  0
  129.9827  136.9073  162.2075 C   0  0  0  0  0  0  0  0  0  0  0  0
  128.6272  136.5076  161.7877 C   0  0  0  0  0  0  0  0  0  0  0  0
  127.4416  136.8637  162.3988 C   0  0  0  0  0  0  0  0  0  0  0  0
  126.4442  136.2943  161.7033 N   0  0  0  0  0  0  0  0  0  0  0  0
  125.4979  136.3728  161.9020 H   0  0  0  0  0  0  0  0  0  0  0  0
  127.0002  135.5634  160.6475 N   0  0  0  0  0  0  0  0  0  0  0  0
  128.2985  135.6833  160.6883 C   0  0  0  0  0  0  0  0  0  0  0  0
  129.2764  135.0531  159.7304 C   0  0  1  0  0  0  0  0  0  0  0  0
  130.2922  135.3297  160.0128 H   0  0  0  0  0  0  0  0  0  0  0  0
  129.1293  133.5295  159.7781 C   0  0  0  0  0  0  0  0  0  0  0  0
  130.0711  132.9031  158.7458 C   0  0  0  0  0  0  0  0  0  0  0  0
  129.7538  133.4732  157.3617 C   0  0  0  0  0  0  0  0  0  0  0  0
  129.9383  134.9293  157.3743 N   0  0  0  0  0  0  0  0  0  0  0  0
  130.8806  135.1455  157.6630 H   0  0  0  0  0  0  0  0  0  0  0  0
  129.7791  135.2955  156.4477 H   0  0  0  0  0  0  0  0  0  0  0  0
  128.9892  135.5445  158.3100 C   0  0  0  0  0  0  0  0  0  0  0  0
  130.3188  138.2119  162.2465 N   0  0  0  0  0  0  0  0  0  0  0  0
  131.6657  138.6093  162.6637 C   0  0  0  0  0  0  0  0  0  0  0  0
  132.5669  138.6727  161.4574 C   0  0  0  0  0  0  0  0  0  0  0  0
  132.6403  137.7183  160.4374 C   0  0  0  0  0  0  0  0  0  0  0  0
  133.5678  138.1340  159.5442 C   0  0  0  0  0  0  0  0  0  0  0  0
  134.0574  139.3141  159.9787 N   0  0  0  0  0  0  0  0  0  0  0  0
  135.0830  140.1199  159.3117 C   0  0  0  0  0  0  0  0  0  0  0  0
  136.5446  139.7215  159.5263 C   0  0  0  0  0  0  0  0  0  0  0  0
  135.9891  140.9812  160.1936 C   0  0  0  0  0  0  0  0  0  0  0  0
  133.4159  139.6297  161.1834 N   0  0  0  0  0  0  0  0  0  0  0  0
  129.3369  139.2327  161.8718 C   0  0  0  0  0  0  0  0  0  0  0  0
  129.9156  140.1958  160.8093 C   0  0  0  0  0  0  0  0  0  0  0  0
  129.3608  141.5526  161.1792 C   0  0  0  0  0  0  0  0  0  0  0  0
  128.8971  141.5544  162.3993 C   0  0  0  0  0  0  0  0  0  0  0  0
  129.0654  140.1999  163.0473 C   0  0  0  0  0  0  0  0  0  0  0  0
  127.3358  137.4878  163.2738 H   0  0  0  0  0  0  0  0  0  0  0  0
  129.3884  133.1693  160.7737 H   0  0  0  0  0  0  0  0  0  0  0  0
  128.1002  133.2553  159.5464 H   0  0  0  0  0  0  0  0  0  0  0  0
  131.1037  133.1349  159.0070 H   0  0  0  0  0  0  0  0  0  0  0  0
  129.9324  131.8219  158.7353 H   0  0  0  0  0  0  0  0  0  0  0  0
  130.4224  133.0291  156.6242 H   0  0  0  0  0  0  0  0  0  0  0  0
  128.7211  133.2409  157.1016 H   0  0  0  0  0  0  0  0  0  0  0  0
  127.9729  135.2683  158.0290 H   0  0  0  0  0  0  0  0  0  0  0  0
  129.0935  136.6288  158.2731 H   0  0  0  0  0  0  0  0  0  0  0  0
  132.0571  137.8787  163.3715 H   0  0  0  0  0  0  0  0  0  0  0  0
  131.6247  139.5896  163.1385 H   0  0  0  0  0  0  0  0  0  0  0  0
  132.0622  136.8082  160.3762 H   0  0  0  0  0  0  0  0  0  0  0  0
  133.8616  137.6156  158.6434 H   0  0  0  0  0  0  0  0  0  0  0  0
  134.8074  140.5164  158.3344 H   0  0  0  0  0  0  0  0  0  0  0  0
  136.7431  138.8600  160.1639 H   0  0  0  0  0  0  0  0  0  0  0  0
  137.2308  139.8559  158.6901 H   0  0  0  0  0  0  0  0  0  0  0  0
  136.3098  141.9444  159.7965 H   0  0  0  0  0  0  0  0  0  0  0  0
  135.8221  140.9485  161.2702 H   0  0  0  0  0  0  0  0  0  0  0  0
  128.4126  138.7735  161.5215 H   0  0  0  0  0  0  0  0  0  0  0  0
  131.0045  140.2048  160.8579 H   0  0  0  0  0  0  0  0  0  0  0  0
  129.5814  139.9071  159.8129 H   0  0  0  0  0  0  0  0  0  0  0  0
  129.3496  142.4081  160.5202 H   0  0  0  0  0  0  0  0  0  0  0  0
  128.4511  142.4114  162.8822 H   0  0  0  0  0  0  0  0  0  0  0  0
  128.1537  139.9136  163.5716 H   0  0  0  0  0  0  0  0  0  0  0  0
  129.9119  140.2099  163.7339 H   0  0  0  0  0  0  0  0  0  0  0  0
  1  2  2  0
  2  3  1  0
  2 18  1  0
  3  8  1  0
  3  4  2  0
  4  5  1  0
  4 33  1  0
  5  6  1  0
  5  7  1  0
  7  8  2  0
  8  9  1  0
  9 10  1  1
  9 17  1  0
  9 11  1  0
 11 12  1  0
 11 34  1  0
 11 35  1  0
 12 13  1  0
 12 36  1  0
 12 37  1  0
 13 14  1  0
 13 38  1  0
 13 39  1  0
 14 15  1  0
 14 16  1  0
 14 17  1  0
 17 40  1  0
 17 41  1  0
 18 19  1  0
 18 28  1  0
 19 20  1  0
 19 42  1  0
 19 43  1  0
 20 27  2  0
 20 21  1  0
 21 22  2  0
 21 44  1  0
 22 23  1  0
 22 45  1  0
 23 24  1  0
 23 27  1  0
 24 26  1  0
 24 25  1  0
 24 46  1  0
 25 26  1  0
 25 47  1  0
 25 48  1  0
 26 49  1  0
 26 50  1  0
 28 32  1  0
 28 29  1  0
 28 51  1  0
 29 30  1  0
 29 52  1  0
 29 53  1  0
 30 31  2  0
 30 54  1  0
 31 32  1  0
 31 55  1  0
 32 56  1  0
 32 57  1  0
M  CHG  1  14   1
M  END
>  <DOCK_score>  (1) 
-41.912369

>  <SMILES>  (1) 
O=C(c1c[nH]nc1[C@H]1CCC[NH2+]C1)N(Cc1ccn(C2CC2)n1)C1CC=CC1

$$$$
