CCc1ccc(-c2c[nH]c(N[C@@H](Cc3ccncc3)c3ccc(O)cc3)[nH+]2)cc1
     RDKit          3D

 54 57  0  0  1  0  0  0  0  0999 V2000
  130.2191  130.5296  150.9416 C   0  0  0  0  0  0  0  0  0  0  0  0
  130.9708  129.7496  152.0210 C   0  0  0  0  0  0  0  0  0  0  0  0
  130.7985  130.4378  153.3506 C   0  0  0  0  0  0  0  0  0  0  0  0
  130.0460  131.5950  153.4348 C   0  0  0  0  0  0  0  0  0  0  0  0
  129.8801  132.2265  154.6507 C   0  0  0  0  0  0  0  0  0  0  0  0
  130.4820  131.7021  155.7932 C   0  0  0  0  0  0  0  0  0  0  0  0
  130.3119  132.3794  157.1019 C   0  0  0  0  0  0  0  0  0  0  0  0
  129.7608  131.8367  158.2157 C   0  0  0  0  0  0  0  0  0  0  0  0
  129.8013  132.8025  159.1917 N   0  0  0  0  0  0  0  0  0  0  0  0
  129.4791  132.7130  160.1022 H   0  0  0  0  0  0  0  0  0  0  0  0
  130.3766  133.9082  158.6453 C   0  0  0  0  0  0  0  0  0  0  0  0
  130.6034  135.1064  159.3004 N   0  0  0  0  0  0  0  0  0  0  0  0
  130.2125  135.2592  160.7041 C   0  0  1  0  0  0  0  0  0  0  0  0
  130.7408  134.5234  161.3104 H   0  0  0  0  0  0  0  0  0  0  0  0
  130.5715  136.6673  161.1830 C   0  0  0  0  0  0  0  0  0  0  0  0
  132.0397  136.7250  161.5176 C   0  0  0  0  0  0  0  0  0  0  0  0
  132.9741  137.0718  160.5537 C   0  0  0  0  0  0  0  0  0  0  0  0
  134.3116  137.1184  160.8984 C   0  0  0  0  0  0  0  0  0  0  0  0
  134.7029  136.8285  162.1240 N   0  0  0  0  0  0  0  0  0  0  0  0
  133.8428  136.4903  163.0647 C   0  0  0  0  0  0  0  0  0  0  0  0
  132.4889  136.4271  162.7951 C   0  0  0  0  0  0  0  0  0  0  0  0
  128.7266  135.0467  160.8377 C   0  0  0  0  0  0  0  0  0  0  0  0
  127.8862  135.3680  159.7878 C   0  0  0  0  0  0  0  0  0  0  0  0
  126.5243  135.1688  159.9057 C   0  0  0  0  0  0  0  0  0  0  0  0
  125.9987  134.6566  161.0831 C   0  0  0  0  0  0  0  0  0  0  0  0
  124.6588  134.4646  161.2033 O   0  0  0  0  0  0  0  0  0  0  0  0
  126.8435  134.3403  162.1371 C   0  0  0  0  0  0  0  0  0  0  0  0
  128.2053  134.5361  162.0121 C   0  0  0  0  0  0  0  0  0  0  0  0
  130.6856  133.6496  157.3980 N   0  0  0  0  0  0  0  0  0  0  0  0
  131.1113  134.2683  156.7841 H   0  0  0  0  0  0  0  0  0  0  0  0
  131.2440  130.5386  155.7015 C   0  0  0  0  0  0  0  0  0  0  0  0
  131.3984  129.9125  154.4815 C   0  0  0  0  0  0  0  0  0  0  0  0
  130.6180  131.5421  150.8809 H   0  0  0  0  0  0  0  0  0  0  0  0
  130.3437  130.0316  149.9800 H   0  0  0  0  0  0  0  0  0  0  0  0
  129.1597  130.5711  151.1946 H   0  0  0  0  0  0  0  0  0  0  0  0
  130.5722  128.7364  152.0821 H   0  0  0  0  0  0  0  0  0  0  0  0
  132.0305  129.7075  151.7683 H   0  0  0  0  0  0  0  0  0  0  0  0
  129.5841  132.0030  152.5480 H   0  0  0  0  0  0  0  0  0  0  0  0
  129.2884  133.1277  154.7160 H   0  0  0  0  0  0  0  0  0  0  0  0
  129.3653  130.8367  158.3160 H   0  0  0  0  0  0  0  0  0  0  0  0
  131.0213  135.8448  158.8302 H   0  0  0  0  0  0  0  0  0  0  0  0
  130.3498  137.3867  160.3948 H   0  0  0  0  0  0  0  0  0  0  0  0
  129.9867  136.9092  162.0705 H   0  0  0  0  0  0  0  0  0  0  0  0
  132.6605  137.3058  159.5471 H   0  0  0  0  0  0  0  0  0  0  0  0
  135.0455  137.3908  160.1543 H   0  0  0  0  0  0  0  0  0  0  0  0
  134.2007  136.2597  164.0572 H   0  0  0  0  0  0  0  0  0  0  0  0
  131.7894  136.1489  163.5695 H   0  0  0  0  0  0  0  0  0  0  0  0
  128.2954  135.7710  158.8730 H   0  0  0  0  0  0  0  0  0  0  0  0
  125.8688  135.4158  159.0837 H   0  0  0  0  0  0  0  0  0  0  0  0
  124.1537  134.7135  160.4173 H   0  0  0  0  0  0  0  0  0  0  0  0
  126.4367  133.9417  163.0547 H   0  0  0  0  0  0  0  0  0  0  0  0
  128.8634  134.2896  162.8323 H   0  0  0  0  0  0  0  0  0  0  0  0
  131.7129  130.1281  156.5836 H   0  0  0  0  0  0  0  0  0  0  0  0
  131.9889  129.0110  154.4093 H   0  0  0  0  0  0  0  0  0  0  0  0
  1  2  1  0
  1 33  1  0
  1 34  1  0
  1 35  1  0
  2  3  1  0
  2 36  1  0
  2 37  1  0
  3 32  2  0
  3  4  1  0
  4  5  2  0
  4 38  1  0
  5  6  1  0
  5 39  1  0
  6  7  1  0
  6 31  2  0
  7 29  1  0
  7  8  2  0
  8  9  1  0
  8 40  1  0
  9 10  1  0
  9 11  1  0
 11 12  1  0
 11 29  2  0
 12 13  1  0
 12 41  1  0
 13 14  1  1
 13 15  1  0
 13 22  1  0
 15 16  1  0
 15 42  1  0
 15 43  1  0
 16 21  1  0
 16 17  2  0
 17 18  1  0
 17 44  1  0
 18 19  2  0
 18 45  1  0
 19 20  1  0
 20 21  2  0
 20 46  1  0
 21 47  1  0
 22 28  1  0
 22 23  2  0
 23 24  1  0
 23 48  1  0
 24 25  2  0
 24 49  1  0
 25 26  1  0
 25 27  1  0
 26 50  1  0
 27 28  2  0
 27 51  1  0
 28 52  1  0
 29 30  1  0
 31 32  1  0
 31 53  1  0
 32 54  1  0
M  CHG  1  29   1
M  END
>  <DOCK_score>  (1) 
-59.495659

>  <SMILES>  (1) 
CCc1ccc(-c2c[nH]c(N[C@@H](Cc3ccncc3)c3ccc(O)cc3)[nH+]2)cc1

$$$$
