CCc1ccc(-c2c[nH]c(N[C@H](c3ccc(N)cc3)C3CCC3)[nH+]2)cc1
     RDKit          3D

 53 56  0  0  1  0  0  0  0  0999 V2000
  129.4904  130.1382  151.0995 C   0  0  0  0  0  0  0  0  0  0  0  0
  130.7195  129.7393  151.9181 C   0  0  0  0  0  0  0  0  0  0  0  0
  130.6776  130.4305  153.2566 C   0  0  0  0  0  0  0  0  0  0  0  0
  130.0666  131.6653  153.3756 C   0  0  0  0  0  0  0  0  0  0  0  0
  130.0211  132.3006  154.5999 C   0  0  0  0  0  0  0  0  0  0  0  0
  130.6015  131.7000  155.7157 C   0  0  0  0  0  0  0  0  0  0  0  0
  130.5601  132.3802  157.0332 C   0  0  0  0  0  0  0  0  0  0  0  0
  129.9927  131.8940  158.1649 C   0  0  0  0  0  0  0  0  0  0  0  0
  130.1817  132.8394  159.1435 N   0  0  0  0  0  0  0  0  0  0  0  0
  129.8861  132.7789  160.0654 H   0  0  0  0  0  0  0  0  0  0  0  0
  130.8597  133.8766  158.5807 C   0  0  0  0  0  0  0  0  0  0  0  0
  131.2478  135.0346  159.2325 N   0  0  0  0  0  0  0  0  0  0  0  0
  130.9304  135.2183  160.6509 C   0  0  2  0  0  0  0  0  0  0  0  0
  131.3926  134.4209  161.2328 H   0  0  0  0  0  0  0  0  0  0  0  0
  129.4359  135.1771  160.8405 C   0  0  0  0  0  0  0  0  0  0  0  0
  128.6328  136.0996  160.1953 C   0  0  0  0  0  0  0  0  0  0  0  0
  127.2626  136.0612  160.3625 C   0  0  0  0  0  0  0  0  0  0  0  0
  126.6920  135.1013  161.1889 C   0  0  0  0  0  0  0  0  0  0  0  0
  125.3068  135.0628  161.3645 N   0  0  0  0  0  0  0  0  0  0  0  0
  127.5020  134.1797  161.8400 C   0  0  0  0  0  0  0  0  0  0  0  0
  128.8712  134.2202  161.6639 C   0  0  0  0  0  0  0  0  0  0  0  0
  131.4671  136.5710  161.1226 C   0  0  0  0  0  0  0  0  0  0  0  0
  132.7680  136.4679  161.9363 C   0  0  0  0  0  0  0  0  0  0  0  0
  132.1905  137.5615  162.8502 C   0  0  0  0  0  0  0  0  0  0  0  0
  130.7969  137.0855  162.4075 C   0  0  0  0  0  0  0  0  0  0  0  0
  131.0884  133.5963  157.3209 N   0  0  0  0  0  0  0  0  0  0  0  0
  131.5587  134.1678  156.6940 H   0  0  0  0  0  0  0  0  0  0  0  0
  131.2204  130.4576  155.5891 C   0  0  0  0  0  0  0  0  0  0  0  0
  131.2555  129.8292  154.3608 C   0  0  0  0  0  0  0  0  0  0  0  0
  129.4878  131.2179  150.9510 H   0  0  0  0  0  0  0  0  0  0  0  0
  129.5207  129.6382  150.1313 H   0  0  0  0  0  0  0  0  0  0  0  0
  128.5869  129.8426  151.6328 H   0  0  0  0  0  0  0  0  0  0  0  0
  130.7223  128.6590  152.0668 H   0  0  0  0  0  0  0  0  0  0  0  0
  131.6231  130.0344  151.3850 H   0  0  0  0  0  0  0  0  0  0  0  0
  129.6211  132.1317  152.5094 H   0  0  0  0  0  0  0  0  0  0  0  0
  129.5397  133.2629  154.6925 H   0  0  0  0  0  0  0  0  0  0  0  0
  129.4884  130.9454  158.2755 H   0  0  0  0  0  0  0  0  0  0  0  0
  131.7298  135.7243  158.7502 H   0  0  0  0  0  0  0  0  0  0  0  0
  129.0777  136.8486  159.5567 H   0  0  0  0  0  0  0  0  0  0  0  0
  126.6355  136.7792  159.8548 H   0  0  0  0  0  0  0  0  0  0  0  0
  124.9095  134.3920  161.9413 H   0  0  0  0  0  0  0  0  0  0  0  0
  124.7422  135.7070  160.9090 H   0  0  0  0  0  0  0  0  0  0  0  0
  127.0615  133.4324  162.4834 H   0  0  0  0  0  0  0  0  0  0  0  0
  129.5015  133.5038  162.1695 H   0  0  0  0  0  0  0  0  0  0  0  0
  131.5075  137.3121  160.3244 H   0  0  0  0  0  0  0  0  0  0  0  0
  132.8969  135.5065  162.4336 H   0  0  0  0  0  0  0  0  0  0  0  0
  133.6540  136.7825  161.3850 H   0  0  0  0  0  0  0  0  0  0  0  0
  132.4299  138.5738  162.5247 H   0  0  0  0  0  0  0  0  0  0  0  0
  132.3920  137.3974  163.9088 H   0  0  0  0  0  0  0  0  0  0  0  0
  130.0917  137.8988  162.2365 H   0  0  0  0  0  0  0  0  0  0  0  0
  130.3868  136.2931  163.0336 H   0  0  0  0  0  0  0  0  0  0  0  0
  131.6720  129.9878  156.4501 H   0  0  0  0  0  0  0  0  0  0  0  0
  131.7351  128.8667  154.2615 H   0  0  0  0  0  0  0  0  0  0  0  0
  1  2  1  0
  1 30  1  0
  1 31  1  0
  1 32  1  0
  2  3  1  0
  2 33  1  0
  2 34  1  0
  3 29  2  0
  3  4  1  0
  4  5  2  0
  4 35  1  0
  5  6  1  0
  5 36  1  0
  6  7  1  0
  6 28  2  0
  7 26  1  0
  7  8  2  0
  8  9  1  0
  8 37  1  0
  9 10  1  0
  9 11  1  0
 11 12  1  0
 11 26  2  0
 12 13  1  0
 12 38  1  0
 13 14  1  1
 13 15  1  0
 13 22  1  0
 15 21  1  0
 15 16  2  0
 16 17  1  0
 16 39  1  0
 17 18  2  0
 17 40  1  0
 18 19  1  0
 18 20  1  0
 19 41  1  0
 19 42  1  0
 20 21  2  0
 20 43  1  0
 21 44  1  0
 22 25  1  0
 22 23  1  0
 22 45  1  0
 23 24  1  0
 23 46  1  0
 23 47  1  0
 24 25  1  0
 24 48  1  0
 24 49  1  0
 25 50  1  0
 25 51  1  0
 26 27  1  0
 28 29  1  0
 28 52  1  0
 29 53  1  0
M  CHG  1  26   1
M  END
>  <DOCK_score>  (1) 
-55.101204

>  <SMILES>  (1) 
CCc1ccc(-c2c[nH]c(N[C@H](c3ccc(N)cc3)C3CCC3)[nH+]2)cc1

$$$$
