Nc1ccc(NC[C@@H](CO)Nc2[nH]cc(-c3ccc(N)cc3)[nH+]2)cc1
     RDKit          3D

 48 50  0  0  1  0  0  0  0  0999 V2000
  136.4699  135.9967  163.2730 N   0  0  0  0  0  0  0  0  0  0  0  0
  135.3004  136.2703  162.5535 C   0  0  0  0  0  0  0  0  0  0  0  0
  134.1309  135.5787  162.8403 C   0  0  0  0  0  0  0  0  0  0  0  0
  132.9776  135.8480  162.1301 C   0  0  0  0  0  0  0  0  0  0  0  0
  132.9873  136.8106  161.1295 C   0  0  0  0  0  0  0  0  0  0  0  0
  131.8181  137.0832  160.4091 N   0  0  0  0  0  0  0  0  0  0  0  0
  130.5138  136.7088  160.9610 C   0  0  0  0  0  0  0  0  0  0  0  0
  130.1564  135.2916  160.5089 C   0  0  1  0  0  0  0  0  0  0  0  0
  130.6811  134.5680  161.1329 H   0  0  0  0  0  0  0  0  0  0  0  0
  128.6470  135.0793  160.6410 C   0  0  0  0  0  0  0  0  0  0  0  0
  128.3643  133.6791  160.6775 O   0  0  0  0  0  0  0  0  0  0  0  0
  130.5547  135.1101  159.1108 N   0  0  0  0  0  0  0  0  0  0  0  0
  130.3307  133.8988  158.4789 C   0  0  0  0  0  0  0  0  0  0  0  0
  129.7467  132.8067  159.0428 N   0  0  0  0  0  0  0  0  0  0  0  0
  129.4187  132.7361  159.9530 H   0  0  0  0  0  0  0  0  0  0  0  0
  129.7077  131.8219  158.0843 C   0  0  0  0  0  0  0  0  0  0  0  0
  130.2686  132.3410  156.9642 C   0  0  0  0  0  0  0  0  0  0  0  0
  130.4439  131.6383  155.6695 C   0  0  0  0  0  0  0  0  0  0  0  0
  129.8410  132.1385  154.5165 C   0  0  0  0  0  0  0  0  0  0  0  0
  130.0098  131.4867  153.3131 C   0  0  0  0  0  0  0  0  0  0  0  0
  130.7704  130.3257  153.2512 C   0  0  0  0  0  0  0  0  0  0  0  0
  130.9350  129.6638  152.0322 N   0  0  0  0  0  0  0  0  0  0  0  0
  131.3683  129.8217  154.4008 C   0  0  0  0  0  0  0  0  0  0  0  0
  131.2071  130.4735  155.6053 C   0  0  0  0  0  0  0  0  0  0  0  0
  130.6412  133.6165  157.2370 N   0  0  0  0  0  0  0  0  0  0  0  0
  131.0690  134.2232  156.6126 H   0  0  0  0  0  0  0  0  0  0  0  0
  134.1580  137.4989  160.8393 C   0  0  0  0  0  0  0  0  0  0  0  0
  135.3101  137.2330  161.5528 C   0  0  0  0  0  0  0  0  0  0  0  0
  136.4631  135.3241  163.9717 H   0  0  0  0  0  0  0  0  0  0  0  0
  137.2867  136.4799  163.0726 H   0  0  0  0  0  0  0  0  0  0  0  0
  134.1234  134.8300  163.6187 H   0  0  0  0  0  0  0  0  0  0  0  0
  132.0683  135.3096  162.3528 H   0  0  0  0  0  0  0  0  0  0  0  0
  131.8718  137.5200  159.5447 H   0  0  0  0  0  0  0  0  0  0  0  0
  129.7551  137.4058  160.6051 H   0  0  0  0  0  0  0  0  0  0  0  0
  130.5565  136.7431  162.0496 H   0  0  0  0  0  0  0  0  0  0  0  0
  128.2937  135.5454  161.5607 H   0  0  0  0  0  0  0  0  0  0  0  0
  128.1407  135.5300  159.7874 H   0  0  0  0  0  0  0  0  0  0  0  0
  127.4239  133.4698  160.7605 H   0  0  0  0  0  0  0  0  0  0  0  0
  130.9753  135.8385  158.6277 H   0  0  0  0  0  0  0  0  0  0  0  0
  129.3066  130.8260  158.2009 H   0  0  0  0  0  0  0  0  0  0  0  0
  129.2456  133.0384  154.5648 H   0  0  0  0  0  0  0  0  0  0  0  0
  129.5465  131.8764  152.4188 H   0  0  0  0  0  0  0  0  0  0  0  0
  131.4666  128.8529  151.9885 H   0  0  0  0  0  0  0  0  0  0  0  0
  130.5185  130.0141  151.2298 H   0  0  0  0  0  0  0  0  0  0  0  0
  131.9592  128.9191  154.3506 H   0  0  0  0  0  0  0  0  0  0  0  0
  131.6719  130.0820  156.4980 H   0  0  0  0  0  0  0  0  0  0  0  0
  134.1666  138.2443  160.0580 H   0  0  0  0  0  0  0  0  0  0  0  0
  136.2196  137.7708  161.3297 H   0  0  0  0  0  0  0  0  0  0  0  0
  1  2  1  0
  1 29  1  0
  1 30  1  0
  2 28  2  0
  2  3  1  0
  3  4  2  0
  3 31  1  0
  4  5  1  0
  4 32  1  0
  5  6  1  0
  5 27  2  0
  6  7  1  0
  6 33  1  0
  7  8  1  0
  7 34  1  0
  7 35  1  0
  8  9  1  1
  8 10  1  0
  8 12  1  0
 10 11  1  0
 10 36  1  0
 10 37  1  0
 11 38  1  0
 12 39  1  0
 13 12  1  0
 13 25  2  0
 13 14  1  0
 14 15  1  0
 14 16  1  0
 16 17  2  0
 16 40  1  0
 17 18  1  0
 17 25  1  0
 18 24  1  0
 18 19  2  0
 19 20  1  0
 19 41  1  0
 20 21  2  0
 20 42  1  0
 21 22  1  0
 21 23  1  0
 22 43  1  0
 22 44  1  0
 23 24  2  0
 23 45  1  0
 24 46  1  0
 25 26  1  0
 27 28  1  0
 27 47  1  0
 28 48  1  0
M  CHG  1  25   1
M  END
>  <DOCK_score>  (1) 
-58.452877

>  <SMILES>  (1) 
Nc1ccc(NC[C@@H](CO)Nc2[nH]cc(-c3ccc(N)cc3)[nH+]2)cc1

$$$$
