C/C=C/CNc1ccc(-c2n[nH]cc2C[NH2+]CC2=CCCC2)o1
     RDKit          3D

 48 50  0  0  0  0  0  0  0  0999 V2000
  126.4287  136.0221  166.5298 C   0  0  0  0  0  0  0  0  0  0  0  0
  126.3002  136.6744  165.1774 C   0  0  0  0  0  0  0  0  0  0  0  0
  127.1937  136.4384  164.2488 C   0  0  0  0  0  0  0  0  0  0  0  0
  127.0651  137.0908  162.8965 C   0  0  0  0  0  0  0  0  0  0  0  0
  126.2762  136.2297  162.0119 N   0  0  0  0  0  0  0  0  0  0  0  0
  126.9092  135.2699  161.2306 C   0  0  0  0  0  0  0  0  0  0  0  0
  126.3184  134.1791  160.6823 C   0  0  0  0  0  0  0  0  0  0  0  0
  127.3177  133.4823  159.9746 C   0  0  0  0  0  0  0  0  0  0  0  0
  128.4710  134.1852  160.1274 C   0  0  0  0  0  0  0  0  0  0  0  0
  129.7852  133.8267  159.5555 C   0  0  0  0  0  0  0  0  0  0  0  0
  130.0456  132.7710  158.8098 N   0  0  0  0  0  0  0  0  0  0  0  0
  131.4055  132.7995  158.4757 N   0  0  0  0  0  0  0  0  0  0  0  0
  131.8720  132.1443  157.9334 H   0  0  0  0  0  0  0  0  0  0  0  0
  131.9540  133.9003  159.0341 C   0  0  0  0  0  0  0  0  0  0  0  0
  130.9848  134.5526  159.7112 C   0  0  0  0  0  0  0  0  0  0  0  0
  131.1534  135.8323  160.4893 C   0  0  0  0  0  0  0  0  0  0  0  0
  130.9133  136.9793  159.6034 N   0  0  0  0  0  0  0  0  0  0  0  0
  129.9749  136.9300  159.2362 H   0  0  0  0  0  0  0  0  0  0  0  0
  131.5743  136.9596  158.8412 H   0  0  0  0  0  0  0  0  0  0  0  0
  131.0777  138.2265  160.3619 C   0  0  0  0  0  0  0  0  0  0  0  0
  132.4795  138.2999  160.9103 C   0  0  0  0  0  0  0  0  0  0  0  0
  133.5242  137.7634  160.3406 C   0  0  0  0  0  0  0  0  0  0  0  0
  134.7759  138.0209  161.1468 C   0  0  0  0  0  0  0  0  0  0  0  0
  134.3953  139.1721  162.1066 C   0  0  0  0  0  0  0  0  0  0  0  0
  132.8604  139.0048  162.1914 C   0  0  0  0  0  0  0  0  0  0  0  0
  128.2107  135.2638  160.8960 O   0  0  0  0  0  0  0  0  0  0  0  0
  127.3711  136.3206  166.9892 H   0  0  0  0  0  0  0  0  0  0  0  0
  125.5999  136.3354  167.1646 H   0  0  0  0  0  0  0  0  0  0  0  0
  126.4082  134.9385  166.4140 H   0  0  0  0  0  0  0  0  0  0  0  0
  125.4715  137.3363  164.9738 H   0  0  0  0  0  0  0  0  0  0  0  0
  128.0223  135.7765  164.4525 H   0  0  0  0  0  0  0  0  0  0  0  0
  128.0567  137.2396  162.4691 H   0  0  0  0  0  0  0  0  0  0  0  0
  126.5673  138.0546  163.0039 H   0  0  0  0  0  0  0  0  0  0  0  0
  125.3123  136.3293  161.9714 H   0  0  0  0  0  0  0  0  0  0  0  0
  125.2794  133.8979  160.7712 H   0  0  0  0  0  0  0  0  0  0  0  0
  127.1916  132.5659  159.4172 H   0  0  0  0  0  0  0  0  0  0  0  0
  132.9873  134.2040  158.9550 H   0  0  0  0  0  0  0  0  0  0  0  0
  132.1673  135.8853  160.8860 H   0  0  0  0  0  0  0  0  0  0  0  0
  130.4396  135.8535  161.3127 H   0  0  0  0  0  0  0  0  0  0  0  0
  130.3639  138.2478  161.1853 H   0  0  0  0  0  0  0  0  0  0  0  0
  130.8997  139.0777  159.7045 H   0  0  0  0  0  0  0  0  0  0  0  0
  133.4974  137.2085  159.4143 H   0  0  0  0  0  0  0  0  0  0  0  0
  135.5927  138.3263  160.4928 H   0  0  0  0  0  0  0  0  0  0  0  0
  135.0532  137.1312  161.7120 H   0  0  0  0  0  0  0  0  0  0  0  0
  134.8582  139.0359  163.0839 H   0  0  0  0  0  0  0  0  0  0  0  0
  134.6606  140.1399  161.6814 H   0  0  0  0  0  0  0  0  0  0  0  0
  132.5918  138.3954  163.0543 H   0  0  0  0  0  0  0  0  0  0  0  0
  132.3747  139.9790  162.2475 H   0  0  0  0  0  0  0  0  0  0  0  0
  1  2  1  0
  1 27  1  0
  1 28  1  0
  1 29  1  0
  2  3  2  0
  2 30  1  0
  3  4  1  0
  3 31  1  0
  4  5  1  0
  4 32  1  0
  4 33  1  0
  5  6  1  0
  5 34  1  0
  6 26  1  0
  6  7  2  0
  7  8  1  0
  7 35  1  0
  8  9  2  0
  8 36  1  0
  9 10  1  0
  9 26  1  0
 10 15  1  0
 10 11  2  0
 11 12  1  0
 12 13  1  0
 12 14  1  0
 14 15  2  0
 14 37  1  0
 15 16  1  0
 16 17  1  0
 16 38  1  0
 16 39  1  0
 17 18  1  0
 17 19  1  0
 17 20  1  0
 20 21  1  0
 20 40  1  0
 20 41  1  0
 21 25  1  0
 21 22  2  0
 22 23  1  0
 22 42  1  0
 23 24  1  0
 23 43  1  0
 23 44  1  0
 24 25  1  0
 24 45  1  0
 24 46  1  0
 25 47  1  0
 25 48  1  0
M  CHG  1  17   1
M  END
>  <DOCK_score>  (1) 
-41.334511

>  <SMILES>  (1) 
C/C=C/CNc1ccc(-c2n[nH]cc2C[NH2+]CC2=CCCC2)o1

$$$$
