Cc1[nH]c(N[C@@H](C)c2ccccc2Nc2ccc(CCc3ccc(N)cc3)cc2)[nH+]c1C
     RDKit          3D

 64 67  0  0  1  0  0  0  0  0999 V2000
  129.6928  137.8163  163.0314 C   0  0  0  0  0  0  0  0  0  0  0  0
  130.1289  137.3193  161.6770 C   0  0  0  0  0  0  0  0  0  0  0  0
  129.7122  136.1770  161.0663 N   0  0  0  0  0  0  0  0  0  0  0  0
  129.0794  135.5370  161.4280 H   0  0  0  0  0  0  0  0  0  0  0  0
  130.3221  136.0900  159.8876 C   0  0  0  0  0  0  0  0  0  0  0  0
  130.1603  135.0693  158.9701 N   0  0  0  0  0  0  0  0  0  0  0  0
  129.2521  133.9579  159.2634 C   0  0  1  0  0  0  0  0  0  0  0  0
  129.3483  133.6770  160.3121 H   0  0  0  0  0  0  0  0  0  0  0  0
  127.8114  134.3886  158.9808 C   0  0  0  0  0  0  0  0  0  0  0  0
  129.6037  132.7788  158.3933 C   0  0  0  0  0  0  0  0  0  0  0  0
  129.5544  132.8954  157.0179 C   0  0  0  0  0  0  0  0  0  0  0  0
  129.8760  131.8138  156.2187 C   0  0  0  0  0  0  0  0  0  0  0  0
  130.2484  130.6120  156.7933 C   0  0  0  0  0  0  0  0  0  0  0  0
  130.3054  130.4901  158.1675 C   0  0  0  0  0  0  0  0  0  0  0  0
  129.9773  131.5733  158.9735 C   0  0  0  0  0  0  0  0  0  0  0  0
  130.0287  131.4520  160.3644 N   0  0  0  0  0  0  0  0  0  0  0  0
  130.8815  132.2732  161.1063 C   0  0  0  0  0  0  0  0  0  0  0  0
  130.5455  132.6333  162.4053 C   0  0  0  0  0  0  0  0  0  0  0  0
  131.3905  133.4455  163.1355 C   0  0  0  0  0  0  0  0  0  0  0  0
  132.5704  133.8999  162.5753 C   0  0  0  0  0  0  0  0  0  0  0  0
  133.4900  134.7861  163.3753 C   0  0  0  0  0  0  0  0  0  0  0  0
  134.9349  134.5592  162.9262 C   0  0  0  0  0  0  0  0  0  0  0  0
  135.8546  135.4453  163.7262 C   0  0  0  0  0  0  0  0  0  0  0  0
  136.3949  134.9860  164.9134 C   0  0  0  0  0  0  0  0  0  0  0  0
  137.2377  135.7958  165.6492 C   0  0  0  0  0  0  0  0  0  0  0  0
  137.5426  137.0728  165.1955 C   0  0  0  0  0  0  0  0  0  0  0  0
  138.3942  137.8945  165.9374 N   0  0  0  0  0  0  0  0  0  0  0  0
  136.9939  137.5328  164.0051 C   0  0  0  0  0  0  0  0  0  0  0  0
  136.1561  136.7160  163.2715 C   0  0  0  0  0  0  0  0  0  0  0  0
  132.9055  133.5477  161.2806 C   0  0  0  0  0  0  0  0  0  0  0  0
  132.0674  132.7318  160.5465 C   0  0  0  0  0  0  0  0  0  0  0  0
  131.1176  137.1456  159.7410 N   0  0  0  0  0  0  0  0  0  0  0  0
  131.6823  137.3302  158.9743 H   0  0  0  0  0  0  0  0  0  0  0  0
  131.0003  137.9236  160.8513 C   0  0  0  0  0  0  0  0  0  0  0  0
  131.7207  139.2216  161.1104 C   0  0  0  0  0  0  0  0  0  0  0  0
  130.3608  137.4202  163.7962 H   0  0  0  0  0  0  0  0  0  0  0  0
  129.7277  138.9055  163.0473 H   0  0  0  0  0  0  0  0  0  0  0  0
  128.6744  137.4824  163.2302 H   0  0  0  0  0  0  0  0  0  0  0  0
  130.6484  135.0887  158.1320 H   0  0  0  0  0  0  0  0  0  0  0  0
  127.7152  134.6695  157.9321 H   0  0  0  0  0  0  0  0  0  0  0  0
  127.1356  133.5617  159.1990 H   0  0  0  0  0  0  0  0  0  0  0  0
  127.5570  135.2415  159.6101 H   0  0  0  0  0  0  0  0  0  0  0  0
  129.2640  133.8324  156.5660 H   0  0  0  0  0  0  0  0  0  0  0  0
  129.8360  131.9075  155.1436 H   0  0  0  0  0  0  0  0  0  0  0  0
  130.4987  129.7690  156.1662 H   0  0  0  0  0  0  0  0  0  0  0  0
  130.6005  129.5527  158.6154 H   0  0  0  0  0  0  0  0  0  0  0  0
  129.4723  130.7976  160.8151 H   0  0  0  0  0  0  0  0  0  0  0  0
  129.6241  132.2787  162.8433 H   0  0  0  0  0  0  0  0  0  0  0  0
  131.1299  133.7258  164.1453 H   0  0  0  0  0  0  0  0  0  0  0  0
  133.3966  134.5452  164.4341 H   0  0  0  0  0  0  0  0  0  0  0  0
  133.2193  135.8298  163.2148 H   0  0  0  0  0  0  0  0  0  0  0  0
  135.0284  134.8002  161.8673 H   0  0  0  0  0  0  0  0  0  0  0  0
  135.2056  133.5155  163.0866 H   0  0  0  0  0  0  0  0  0  0  0  0
  136.1573  133.9933  165.2659 H   0  0  0  0  0  0  0  0  0  0  0  0
  137.6591  135.4366  166.5765 H   0  0  0  0  0  0  0  0  0  0  0  0
  138.7735  137.5735  166.7704 H   0  0  0  0  0  0  0  0  0  0  0  0
  138.6096  138.7846  165.6175 H   0  0  0  0  0  0  0  0  0  0  0  0
  137.2254  138.5269  163.6517 H   0  0  0  0  0  0  0  0  0  0  0  0
  135.7324  137.0717  162.3439 H   0  0  0  0  0  0  0  0  0  0  0  0
  133.8257  133.9076  160.8447 H   0  0  0  0  0  0  0  0  0  0  0  0
  132.3316  132.4540  159.5367 H   0  0  0  0  0  0  0  0  0  0  0  0
  132.6675  139.0182  161.6107 H   0  0  0  0  0  0  0  0  0  0  0  0
  131.9113  139.7268  160.1635 H   0  0  0  0  0  0  0  0  0  0  0  0
  131.1042  139.8589  161.7444 H   0  0  0  0  0  0  0  0  0  0  0  0
  1  2  1  0
  1 36  1  0
  1 37  1  0
  1 38  1  0
  2 34  2  0
  2  3  1  0
  3  4  1  0
  3  5  1  0
  5  6  1  0
  5 32  2  0
  6  7  1  0
  6 39  1  0
  7  8  1  1
  7  9  1  0
  7 10  1  0
  9 40  1  0
  9 41  1  0
  9 42  1  0
 10 15  1  0
 10 11  2  0
 11 12  1  0
 11 43  1  0
 12 13  2  0
 12 44  1  0
 13 14  1  0
 13 45  1  0
 14 15  2  0
 14 46  1  0
 15 16  1  0
 16 17  1  0
 16 47  1  0
 17 31  1  0
 17 18  2  0
 18 19  1  0
 18 48  1  0
 19 20  2  0
 19 49  1  0
 20 21  1  0
 20 30  1  0
 21 22  1  0
 21 50  1  0
 21 51  1  0
 22 23  1  0
 22 52  1  0
 22 53  1  0
 23 29  1  0
 23 24  2  0
 24 25  1  0
 24 54  1  0
 25 26  2  0
 25 55  1  0
 26 27  1  0
 26 28  1  0
 27 56  1  0
 27 57  1  0
 28 29  2  0
 28 58  1  0
 29 59  1  0
 30 31  2  0
 30 60  1  0
 31 61  1  0
 32 33  1  0
 32 34  1  0
 34 35  1  0
 35 62  1  0
 35 63  1  0
 35 64  1  0
M  CHG  1  32   1
M  END
>  <DOCK_score>  (1) 
-57.774887

>  <SMILES>  (1) 
Cc1[nH]c(N[C@@H](C)c2ccccc2Nc2ccc(CCc3ccc(N)cc3)cc2)[nH+]c1C

$$$$
