BrC1(Br)C[C@@H]1C[NH2+]Cc1c[nH]nc1-c1ccc(NC2CC23CCCCC3)o1
     RDKit          3D

 54 58  0  0  1  0  0  0  0  0999 V2000
  135.2917  140.6155  160.6301 Br  0  0  0  0  0  0  0  0  0  0  0  0
  133.5295  139.7445  160.5978 C   0  0  0  0  0  0  0  0  0  0  0  0
  132.3061  140.2510  162.0511 Br  0  0  0  0  0  0  0  0  0  0  0  0
  132.9148  139.4444  159.2292 C   0  0  0  0  0  0  0  0  0  0  0  0
  133.4630  138.3034  160.0884 C   0  0  2  0  0  0  0  0  0  0  0  0
  134.3963  137.8381  159.7713 H   0  0  0  0  0  0  0  0  0  0  0  0
  132.4495  137.3667  160.7490 C   0  0  0  0  0  0  0  0  0  0  0  0
  132.1841  136.2274  159.8603 N   0  0  0  0  0  0  0  0  0  0  0  0
  131.8109  136.5633  158.9851 H   0  0  0  0  0  0  0  0  0  0  0  0
  133.0434  135.7267  159.6895 H   0  0  0  0  0  0  0  0  0  0  0  0
  131.2111  135.3280  160.4946 C   0  0  0  0  0  0  0  0  0  0  0  0
  130.9388  134.1592  159.5829 C   0  0  0  0  0  0  0  0  0  0  0  0
  131.8647  133.4441  158.9088 C   0  0  0  0  0  0  0  0  0  0  0  0
  131.2232  132.4835  158.2087 N   0  0  0  0  0  0  0  0  0  0  0  0
  131.6414  131.8219  157.6358 H   0  0  0  0  0  0  0  0  0  0  0  0
  129.8491  132.6118  158.4483 N   0  0  0  0  0  0  0  0  0  0  0  0
  129.6708  133.6217  159.2771 C   0  0  0  0  0  0  0  0  0  0  0  0
  128.3735  134.1047  159.7935 C   0  0  0  0  0  0  0  0  0  0  0  0
  127.1546  133.5798  159.5005 C   0  0  0  0  0  0  0  0  0  0  0  0
  126.2019  134.3426  160.2041 C   0  0  0  0  0  0  0  0  0  0  0  0
  126.8842  135.2931  160.8902 C   0  0  0  0  0  0  0  0  0  0  0  0
  126.3219  136.2594  161.7161 N   0  0  0  0  0  0  0  0  0  0  0  0
  127.1815  137.2292  162.3994 C   0  0  1  0  0  0  0  0  0  0  0  0
  126.6171  137.9213  163.6422 C   0  0  0  0  0  0  0  0  0  0  0  0
  127.7038  136.8552  163.7863 C   0  0  0  0  0  0  0  0  0  0  0  0
  129.1130  137.3202  164.1650 C   0  0  0  0  0  0  0  0  0  0  0  0
  130.1152  136.2264  163.7834 C   0  0  0  0  0  0  0  0  0  0  0  0
  129.7253  134.9164  164.4694 C   0  0  0  0  0  0  0  0  0  0  0  0
  128.3551  134.4566  163.9688 C   0  0  0  0  0  0  0  0  0  0  0  0
  127.2963  135.4935  164.3566 C   0  0  0  0  0  0  0  0  0  0  0  0
  128.1960  135.1395  160.6417 O   0  0  0  0  0  0  0  0  0  0  0  0
  131.8321  139.5279  159.1346 H   0  0  0  0  0  0  0  0  0  0  0  0
  133.4873  139.7304  158.3468 H   0  0  0  0  0  0  0  0  0  0  0  0
  132.8527  137.0038  161.6943 H   0  0  0  0  0  0  0  0  0  0  0  0
  131.5213  137.9075  160.9334 H   0  0  0  0  0  0  0  0  0  0  0  0
  131.6142  134.9651  161.4400 H   0  0  0  0  0  0  0  0  0  0  0  0
  130.2829  135.8689  160.6790 H   0  0  0  0  0  0  0  0  0  0  0  0
  132.9318  133.6094  158.9283 H   0  0  0  0  0  0  0  0  0  0  0  0
  126.9549  132.7389  158.8528 H   0  0  0  0  0  0  0  0  0  0  0  0
  125.1315  134.1983  160.1981 H   0  0  0  0  0  0  0  0  0  0  0  0
  125.3604  136.2916  161.8401 H   0  0  0  0  0  0  0  0  0  0  0  0
  127.8392  137.8113  161.7540 H   0  0  0  0  0  0  0  0  0  0  0  0
  126.9040  138.9586  163.8146 H   0  0  0  0  0  0  0  0  0  0  0  0
  125.6062  137.6555  163.9510 H   0  0  0  0  0  0  0  0  0  0  0  0
  129.3516  138.2378  163.6272 H   0  0  0  0  0  0  0  0  0  0  0  0
  129.1615  137.5013  165.2387 H   0  0  0  0  0  0  0  0  0  0  0  0
  131.1145  136.5212  164.1041 H   0  0  0  0  0  0  0  0  0  0  0  0
  130.1070  136.0869  162.7023 H   0  0  0  0  0  0  0  0  0  0  0  0
  129.6840  135.0703  165.5478 H   0  0  0  0  0  0  0  0  0  0  0  0
  130.4690  134.1528  164.2418 H   0  0  0  0  0  0  0  0  0  0  0  0
  128.1063  133.4966  164.4211 H   0  0  0  0  0  0  0  0  0  0  0  0
  128.3809  134.3517  162.8842 H   0  0  0  0  0  0  0  0  0  0  0  0
  127.2289  135.5579  165.4427 H   0  0  0  0  0  0  0  0  0  0  0  0
  126.3292  135.2009  163.9475 H   0  0  0  0  0  0  0  0  0  0  0  0
  1  2  1  0
  2  5  1  0
  2  3  1  0
  2  4  1  0
  4  5  1  0
  4 32  1  0
  4 33  1  0
  5  6  1  6
  5  7  1  0
  7  8  1  0
  7 34  1  0
  7 35  1  0
  8  9  1  0
  8 10  1  0
  8 11  1  0
 11 12  1  0
 11 36  1  0
 11 37  1  0
 12 17  1  0
 12 13  2  0
 13 14  1  0
 13 38  1  0
 14 15  1  0
 14 16  1  0
 16 17  2  0
 17 18  1  0
 18 31  1  0
 18 19  2  0
 19 20  1  0
 19 39  1  0
 20 21  2  0
 20 40  1  0
 21 22  1  0
 21 31  1  0
 22 23  1  0
 22 41  1  0
 23 25  1  0
 23 24  1  0
 23 42  1  6
 24 25  1  0
 24 43  1  0
 24 44  1  0
 25 30  1  0
 25 26  1  0
 26 27  1  0
 26 45  1  0
 26 46  1  0
 27 28  1  0
 27 47  1  0
 27 48  1  0
 28 29  1  0
 28 49  1  0
 28 50  1  0
 29 30  1  0
 29 51  1  0
 29 52  1  0
 30 53  1  0
 30 54  1  0
M  CHG  1   8   1
M  END
>  <DOCK_score>  (1) 
-47.388378

>  <SMILES>  (1) 
BrC1(Br)C[C@@H]1C[NH2+]Cc1c[nH]nc1-c1ccc(NC2CC23CCCCC3)o1

$$$$
