CC(C)CNc1cccc(Oc2cccc([C@@H]([NH3+])C(=O)Nc3cccc(O)c3)c2)c1
     RDKit          3D

 58 60  0  0  1  0  0  0  0  0999 V2000
  128.8792  142.3410  163.8164 C   0  0  0  0  0  0  0  0  0  0  0  0
  129.2241  140.8516  163.7547 C   0  0  0  0  0  0  0  0  0  0  0  0
  128.1224  140.1037  163.0011 C   0  0  0  0  0  0  0  0  0  0  0  0
  130.5565  140.6664  163.0261 C   0  0  0  0  0  0  0  0  0  0  0  0
  130.8868  139.2403  162.9671 N   0  0  0  0  0  0  0  0  0  0  0  0
  132.0651  138.8215  162.3452 C   0  0  0  0  0  0  0  0  0  0  0  0
  132.9249  139.7566  161.7816 C   0  0  0  0  0  0  0  0  0  0  0  0
  134.0898  139.3424  161.1659 C   0  0  0  0  0  0  0  0  0  0  0  0
  134.4068  137.9981  161.1142 C   0  0  0  0  0  0  0  0  0  0  0  0
  133.5493  137.0589  161.6702 C   0  0  0  0  0  0  0  0  0  0  0  0
  133.8594  135.7372  161.6131 O   0  0  0  0  0  0  0  0  0  0  0  0
  132.8780  134.8664  161.2592 C   0  0  0  0  0  0  0  0  0  0  0  0
  132.7044  133.6880  161.9715 C   0  0  0  0  0  0  0  0  0  0  0  0
  131.7064  132.8044  161.6094 C   0  0  0  0  0  0  0  0  0  0  0  0
  130.8774  133.0956  160.5415 C   0  0  0  0  0  0  0  0  0  0  0  0
  131.0517  134.2663  159.8270 C   0  0  0  0  0  0  0  0  0  0  0  0
  130.1498  134.5777  158.6606 C   0  0  1  0  0  0  0  0  0  0  0  0
  130.0437  135.6580  158.5617 H   0  0  0  0  0  0  0  0  0  0  0  0
  130.7338  134.0283  157.4296 N   0  0  0  0  0  0  0  0  0  0  0  0
  130.1299  134.2369  156.6487 H   0  0  0  0  0  0  0  0  0  0  0  0
  131.6405  134.4426  157.2735 H   0  0  0  0  0  0  0  0  0  0  0  0
  130.8321  133.0283  157.5211 H   0  0  0  0  0  0  0  0  0  0  0  0
  128.7955  133.9590  158.8936 C   0  0  0  0  0  0  0  0  0  0  0  0
  128.3597  133.1410  158.1112 O   0  0  0  0  0  0  0  0  0  0  0  0
  128.0686  134.3147  159.9713 N   0  0  0  0  0  0  0  0  0  0  0  0
  126.8112  133.7403  160.1877 C   0  0  0  0  0  0  0  0  0  0  0  0
  126.5508  132.4493  159.7455 C   0  0  0  0  0  0  0  0  0  0  0  0
  125.3096  131.8824  159.9592 C   0  0  0  0  0  0  0  0  0  0  0  0
  124.3259  132.5946  160.6189 C   0  0  0  0  0  0  0  0  0  0  0  0
  124.5785  133.8866  161.0577 C   0  0  0  0  0  0  0  0  0  0  0  0
  123.6084  134.5881  161.7009 O   0  0  0  0  0  0  0  0  0  0  0  0
  125.8228  134.4592  160.8447 C   0  0  0  0  0  0  0  0  0  0  0  0
  132.0484  135.1535  160.1849 C   0  0  0  0  0  0  0  0  0  0  0  0
  132.3789  137.4707  162.2888 C   0  0  0  0  0  0  0  0  0  0  0  0
  128.7980  142.7373  162.8042 H   0  0  0  0  0  0  0  0  0  0  0  0
  127.9300  142.4729  164.3355 H   0  0  0  0  0  0  0  0  0  0  0  0
  129.6640  142.8738  164.3533 H   0  0  0  0  0  0  0  0  0  0  0  0
  129.3052  140.4553  164.7668 H   0  0  0  0  0  0  0  0  0  0  0  0
  127.1730  140.2358  163.5201 H   0  0  0  0  0  0  0  0  0  0  0  0
  128.0413  140.5002  161.9890 H   0  0  0  0  0  0  0  0  0  0  0  0
  128.3682  139.0428  162.9572 H   0  0  0  0  0  0  0  0  0  0  0  0
  131.3414  141.1992  163.5630 H   0  0  0  0  0  0  0  0  0  0  0  0
  130.4754  141.0626  162.0140 H   0  0  0  0  0  0  0  0  0  0  0  0
  130.2870  138.5869  163.3600 H   0  0  0  0  0  0  0  0  0  0  0  0
  132.6819  140.8080  161.8250 H   0  0  0  0  0  0  0  0  0  0  0  0
  134.7567  140.0705  160.7286 H   0  0  0  0  0  0  0  0  0  0  0  0
  135.3210  137.6775  160.6365 H   0  0  0  0  0  0  0  0  0  0  0  0
  133.3486  133.4624  162.8083 H   0  0  0  0  0  0  0  0  0  0  0  0
  131.5705  131.8875  162.1636 H   0  0  0  0  0  0  0  0  0  0  0  0
  130.0948  132.4054  160.2628 H   0  0  0  0  0  0  0  0  0  0  0  0
  128.4171  134.9689  160.5970 H   0  0  0  0  0  0  0  0  0  0  0  0
  127.3194  131.8887  159.2340 H   0  0  0  0  0  0  0  0  0  0  0  0
  125.1089  130.8787  159.6144 H   0  0  0  0  0  0  0  0  0  0  0  0
  123.3580  132.1468  160.7892 H   0  0  0  0  0  0  0  0  0  0  0  0
  123.8777  135.4775  161.9680 H   0  0  0  0  0  0  0  0  0  0  0  0
  126.0225  135.4632  161.1892 H   0  0  0  0  0  0  0  0  0  0  0  0
  132.1812  136.0700  159.6293 H   0  0  0  0  0  0  0  0  0  0  0  0
  131.7123  136.7418  162.7255 H   0  0  0  0  0  0  0  0  0  0  0  0
  1  2  1  0
  1 35  1  0
  1 36  1  0
  1 37  1  0
  2  3  1  0
  2  4  1  0
  2 38  1  0
  3 39  1  0
  3 40  1  0
  3 41  1  0
  4  5  1  0
  4 42  1  0
  4 43  1  0
  5  6  1  0
  5 44  1  0
  6 34  2  0
  6  7  1  0
  7  8  2  0
  7 45  1  0
  8  9  1  0
  8 46  1  0
  9 10  2  0
  9 47  1  0
 10 11  1  0
 10 34  1  0
 11 12  1  0
 12 33  1  0
 12 13  2  0
 13 14  1  0
 13 48  1  0
 14 15  2  0
 14 49  1  0
 15 16  1  0
 15 50  1  0
 16 17  1  0
 16 33  2  0
 17 18  1  6
 17 19  1  0
 17 23  1  0
 19 20  1  0
 19 21  1  0
 19 22  1  0
 23 24  2  0
 23 25  1  0
 25 26  1  0
 25 51  1  0
 26 32  1  0
 26 27  2  0
 27 28  1  0
 27 52  1  0
 28 29  2  0
 28 53  1  0
 29 30  1  0
 29 54  1  0
 30 31  1  0
 30 32  2  0
 31 55  1  0
 32 56  1  0
 33 57  1  0
 34 58  1  0
M  CHG  1  19   1
M  END
>  <DOCK_score>  (1) 
-46.414242

>  <SMILES>  (1) 
CC(C)CNc1cccc(Oc2cccc([C@@H]([NH3+])C(=O)Nc3cccc(O)c3)c2)c1

$$$$
