Cc1nn(C)cc1Nc1ncnc2c1ncn2C[C@H]1CCC[NH2+]1
     RDKit          3D

 44 47  0  0  1  0  0  0  0  0999 V2000
  127.2790  139.8515  164.9965 C   0  0  0  0  0  0  0  0  0  0  0  0
  126.9248  138.3993  165.1874 C   0  0  0  0  0  0  0  0  0  0  0  0
  126.2971  137.8930  166.2179 N   0  0  0  0  0  0  0  0  0  0  0  0
  126.1608  136.5135  166.0177 N   0  0  0  0  0  0  0  0  0  0  0  0
  125.5158  135.5688  166.9330 C   0  0  0  0  0  0  0  0  0  0  0  0
  126.7269  136.2076  164.8208 C   0  0  0  0  0  0  0  0  0  0  0  0
  127.2122  137.3595  164.2911 C   0  0  0  0  0  0  0  0  0  0  0  0
  127.8797  137.4884  163.0587 N   0  0  0  0  0  0  0  0  0  0  0  0
  127.5877  136.6223  162.0199 C   0  0  0  0  0  0  0  0  0  0  0  0
  126.6755  135.6664  162.1672 N   0  0  0  0  0  0  0  0  0  0  0  0
  126.3855  134.8399  161.1793 C   0  0  0  0  0  0  0  0  0  0  0  0
  126.9830  134.9019  160.0077 N   0  0  0  0  0  0  0  0  0  0  0  0
  127.9131  135.8206  159.7691 C   0  0  0  0  0  0  0  0  0  0  0  0
  128.2527  136.7288  160.7863 C   0  0  0  0  0  0  0  0  0  0  0  0
  129.2112  137.5459  160.2882 N   0  0  0  0  0  0  0  0  0  0  0  0
  129.4753  137.2056  159.0600 C   0  0  0  0  0  0  0  0  0  0  0  0
  128.7001  136.1461  158.6935 N   0  0  0  0  0  0  0  0  0  0  0  0
  128.7066  135.4770  157.3902 C   0  0  0  0  0  0  0  0  0  0  0  0
  129.7271  134.3372  157.4072 C   0  0  1  0  0  0  0  0  0  0  0  0
  130.6260  134.6416  157.9433 H   0  0  0  0  0  0  0  0  0  0  0  0
  129.1119  133.0721  158.0557 C   0  0  0  0  0  0  0  0  0  0  0  0
  129.9785  131.9469  157.4315 C   0  0  0  0  0  0  0  0  0  0  0  0
  130.2431  132.4645  156.0019 C   0  0  0  0  0  0  0  0  0  0  0  0
  130.0647  133.9278  156.0272 N   0  0  0  0  0  0  0  0  0  0  0  0
  129.3166  134.1897  155.4028 H   0  0  0  0  0  0  0  0  0  0  0  0
  130.9210  134.3774  155.7396 H   0  0  0  0  0  0  0  0  0  0  0  0
  126.4648  140.3592  164.4794 H   0  0  0  0  0  0  0  0  0  0  0  0
  127.4384  140.3176  165.9690 H   0  0  0  0  0  0  0  0  0  0  0  0
  128.1902  139.9283  164.4032 H   0  0  0  0  0  0  0  0  0  0  0  0
  124.4563  135.4922  166.6888 H   0  0  0  0  0  0  0  0  0  0  0  0
  125.9835  134.5894  166.8332 H   0  0  0  0  0  0  0  0  0  0  0  0
  125.6279  135.9222  167.9580 H   0  0  0  0  0  0  0  0  0  0  0  0
  126.7827  135.2263  164.3733 H   0  0  0  0  0  0  0  0  0  0  0  0
  128.5473  138.1818  162.9388 H   0  0  0  0  0  0  0  0  0  0  0  0
  125.6343  134.0808  161.3401 H   0  0  0  0  0  0  0  0  0  0  0  0
  130.2018  137.6910  158.4251 H   0  0  0  0  0  0  0  0  0  0  0  0
  127.7151  135.0739  157.1837 H   0  0  0  0  0  0  0  0  0  0  0  0
  128.9760  136.1942  156.6149 H   0  0  0  0  0  0  0  0  0  0  0  0
  129.2239  133.0952  159.1398 H   0  0  0  0  0  0  0  0  0  0  0  0
  128.0647  132.9595  157.7753 H   0  0  0  0  0  0  0  0  0  0  0  0
  129.4283  131.0063  157.4051 H   0  0  0  0  0  0  0  0  0  0  0  0
  130.9142  131.8291  157.9780 H   0  0  0  0  0  0  0  0  0  0  0  0
  129.5322  132.0162  155.3078 H   0  0  0  0  0  0  0  0  0  0  0  0
  131.2612  132.2202  155.6989 H   0  0  0  0  0  0  0  0  0  0  0  0
  1  2  1  0
  1 27  1  0
  1 28  1  0
  1 29  1  0
  2  7  1  0
  2  3  2  0
  3  4  1  0
  4  5  1  0
  4  6  1  0
  5 30  1  0
  5 31  1  0
  5 32  1  0
  6  7  2  0
  6 33  1  0
  7  8  1  0
  8  9  1  0
  8 34  1  0
  9 14  1  0
  9 10  2  0
 10 11  1  0
 11 12  2  0
 11 35  1  0
 12 13  1  0
 13 17  1  0
 13 14  2  0
 14 15  1  0
 15 16  2  0
 16 17  1  0
 16 36  1  0
 17 18  1  0
 18 19  1  0
 18 37  1  0
 18 38  1  0
 19 20  1  1
 19 24  1  0
 19 21  1  0
 21 22  1  0
 21 39  1  0
 21 40  1  0
 22 23  1  0
 22 41  1  0
 22 42  1  0
 23 24  1  0
 23 43  1  0
 23 44  1  0
 24 25  1  0
 24 26  1  0
M  CHG  1  24   1
M  END
>  <DOCK_score>  (1) 
-43.521484

>  <SMILES>  (1) 
Cc1nn(C)cc1Nc1ncnc2c1ncn2C[C@H]1CCC[NH2+]1

$$$$
