O=C1CC[C@H](NC(NC2CC=CC2)=[NH+]CC2(O)CC2)CN1
     RDKit          3D

 46 48  0  0  1  0  0  0  0  0999 V2000
  124.5045  133.1998  162.9571 O   0  0  0  0  0  0  0  0  0  0  0  0
  125.4641  133.8050  162.5284 C   0  0  0  0  0  0  0  0  0  0  0  0
  126.6293  133.0129  162.0084 C   0  0  0  0  0  0  0  0  0  0  0  0
  127.8714  133.9042  161.9301 C   0  0  0  0  0  0  0  0  0  0  0  0
  127.4899  135.2055  161.2144 C   0  0  2  0  0  0  0  0  0  0  0  0
  127.0068  134.9728  160.2653 H   0  0  0  0  0  0  0  0  0  0  0  0
  128.6940  136.0035  160.9702 N   0  0  0  0  0  0  0  0  0  0  0  0
  129.4016  135.8407  159.8028 C   0  0  0  0  0  0  0  0  0  0  0  0
  128.9792  134.9288  158.8644 N   0  0  0  0  0  0  0  0  0  0  0  0
  129.9554  134.2651  157.9968 C   0  0  0  0  0  0  0  0  0  0  0  0
  129.2877  133.1464  157.1638 C   0  0  0  0  0  0  0  0  0  0  0  0
  130.3201  132.0439  157.1050 C   0  0  0  0  0  0  0  0  0  0  0  0
  131.2425  132.2145  158.0125 C   0  0  0  0  0  0  0  0  0  0  0  0
  130.9794  133.4585  158.8287 C   0  0  0  0  0  0  0  0  0  0  0  0
  130.4728  136.5507  159.5856 N   0  0  0  0  0  0  0  0  0  0  0  0
  130.9721  136.4358  158.7621 H   0  0  0  0  0  0  0  0  0  0  0  0
  130.9228  137.5222  160.5856 C   0  0  0  0  0  0  0  0  0  0  0  0
  132.1927  138.2154  160.0878 C   0  0  0  0  0  0  0  0  0  0  0  0
  133.3412  137.3760  159.9538 O   0  0  0  0  0  0  0  0  0  0  0  0
  132.4233  139.6641  160.5226 C   0  0  0  0  0  0  0  0  0  0  0  0
  132.0271  139.3524  159.0774 C   0  0  0  0  0  0  0  0  0  0  0  0
  126.5264  135.9902  162.1055 C   0  0  0  0  0  0  0  0  0  0  0  0
  125.4284  135.1379  162.5443 N   0  0  0  0  0  0  0  0  0  0  0  0
  126.3936  132.6323  161.0146 H   0  0  0  0  0  0  0  0  0  0  0  0
  126.8254  132.1766  162.6793 H   0  0  0  0  0  0  0  0  0  0  0  0
  128.6548  133.3934  161.3703 H   0  0  0  0  0  0  0  0  0  0  0  0
  128.2256  134.1289  162.9361 H   0  0  0  0  0  0  0  0  0  0  0  0
  128.9920  136.6467  161.6323 H   0  0  0  0  0  0  0  0  0  0  0  0
  128.0354  134.7222  158.7795 H   0  0  0  0  0  0  0  0  0  0  0  0
  130.4570  134.9868  157.3520 H   0  0  0  0  0  0  0  0  0  0  0  0
  128.3828  132.7932  157.6586 H   0  0  0  0  0  0  0  0  0  0  0  0
  129.0573  133.5059  156.1609 H   0  0  0  0  0  0  0  0  0  0  0  0
  130.2977  131.2231  156.4034 H   0  0  0  0  0  0  0  0  0  0  0  0
  132.0834  131.5531  158.1608 H   0  0  0  0  0  0  0  0  0  0  0  0
  131.8987  134.0299  158.9572 H   0  0  0  0  0  0  0  0  0  0  0  0
  130.5576  133.1960  159.7990 H   0  0  0  0  0  0  0  0  0  0  0  0
  130.1423  138.2657  160.7468 H   0  0  0  0  0  0  0  0  0  0  0  0
  131.1337  137.0075  161.5231 H   0  0  0  0  0  0  0  0  0  0  0  0
  133.3928  136.9122  159.1067 H   0  0  0  0  0  0  0  0  0  0  0  0
  131.6706  140.1232  161.1634 H   0  0  0  0  0  0  0  0  0  0  0  0
  133.4513  139.9769  160.7063 H   0  0  0  0  0  0  0  0  0  0  0  0
  132.7943  139.4602  158.3108 H   0  0  0  0  0  0  0  0  0  0  0  0
  131.0134  139.6061  158.7670 H   0  0  0  0  0  0  0  0  0  0  0  0
  127.0642  136.3624  162.9774 H   0  0  0  0  0  0  0  0  0  0  0  0
  126.1251  136.8352  161.5459 H   0  0  0  0  0  0  0  0  0  0  0  0
  124.6211  135.5672  162.8682 H   0  0  0  0  0  0  0  0  0  0  0  0
  1  2  2  0
  2 23  1  0
  2  3  1  0
  3  4  1  0
  3 24  1  0
  3 25  1  0
  4  5  1  0
  4 26  1  0
  4 27  1  0
  5  6  1  6
  5  7  1  0
  5 22  1  0
  7 28  1  0
  8  7  1  0
  8  9  1  0
  8 15  2  0
  9 10  1  0
  9 29  1  0
 10 14  1  0
 10 11  1  0
 10 30  1  0
 11 12  1  0
 11 31  1  0
 11 32  1  0
 12 13  2  0
 12 33  1  0
 13 14  1  0
 13 34  1  0
 14 35  1  0
 14 36  1  0
 15 16  1  0
 15 17  1  0
 17 18  1  0
 17 37  1  0
 17 38  1  0
 18 21  1  0
 18 19  1  0
 18 20  1  0
 19 39  1  0
 20 21  1  0
 20 40  1  0
 20 41  1  0
 21 42  1  0
 21 43  1  0
 22 23  1  0
 22 44  1  0
 22 45  1  0
 23 46  1  0
M  CHG  1  15   1
M  END
>  <DOCK_score>  (1) 
-41.52

>  <SMILES>  (1) 
O=C1CC[C@H](NC(NC2CC=CC2)=[NH+]CC2(O)CC2)CN1

$$$$
