CCc1n[nH]c(Sc2cccc(N3CC[NH+](C(c4ccccc4)c4ccccc4)CC3)c2C)n1
     RDKit          3D

 66 70  0  0  1  0  0  0  0  0999 V2000
  136.3210  135.7854  167.4417 C   0  0  0  0  0  0  0  0  0  0  0  0
  137.5036  136.6777  167.0592 C   0  0  0  0  0  0  0  0  0  0  0  0
  137.1936  137.3983  165.7724 C   0  0  0  0  0  0  0  0  0  0  0  0
  137.4600  136.9547  164.5731 N   0  0  0  0  0  0  0  0  0  0  0  0
  137.0123  137.9288  163.6662 N   0  0  0  0  0  0  0  0  0  0  0  0
  137.0695  137.8924  162.6985 H   0  0  0  0  0  0  0  0  0  0  0  0
  136.4809  138.9238  164.4093 C   0  0  0  0  0  0  0  0  0  0  0  0
  135.7584  140.4075  163.7922 S   0  0  0  0  0  0  0  0  0  0  0  0
  135.1407  139.8274  162.2473 C   0  0  0  0  0  0  0  0  0  0  0  0
  135.5868  140.3985  161.0608 C   0  0  0  0  0  0  0  0  0  0  0  0
  135.1074  139.9405  159.8492 C   0  0  0  0  0  0  0  0  0  0  0  0
  134.1748  138.9214  159.8122 C   0  0  0  0  0  0  0  0  0  0  0  0
  133.7204  138.3499  160.9947 C   0  0  0  0  0  0  0  0  0  0  0  0
  132.7782  137.3196  160.9563 N   0  0  0  0  0  0  0  0  0  0  0  0
  133.3232  136.1322  160.2832 C   0  0  0  0  0  0  0  0  0  0  0  0
  132.2839  135.0095  160.3150 C   0  0  0  0  0  0  0  0  0  0  0  0
  131.0586  135.4571  159.6397 N   0  0  0  0  0  0  0  0  0  0  0  0
  131.2720  135.7040  158.6850 H   0  0  0  0  0  0  0  0  0  0  0  0
  130.0677  134.3727  159.6545 C   0  0  0  0  0  0  0  0  0  0  0  0
  128.8103  134.8317  158.9618 C   0  0  0  0  0  0  0  0  0  0  0  0
  127.5849  134.3167  159.3412 C   0  0  0  0  0  0  0  0  0  0  0  0
  126.4312  134.7412  158.7090 C   0  0  0  0  0  0  0  0  0  0  0  0
  126.5041  135.6728  157.6904 C   0  0  0  0  0  0  0  0  0  0  0  0
  127.7300  136.1839  157.3074 C   0  0  0  0  0  0  0  0  0  0  0  0
  128.8833  135.7632  157.9431 C   0  0  0  0  0  0  0  0  0  0  0  0
  130.6268  133.1714  158.9366 C   0  0  0  0  0  0  0  0  0  0  0  0
  130.4217  133.0209  157.5779 C   0  0  0  0  0  0  0  0  0  0  0  0
  130.9387  131.9214  156.9185 C   0  0  0  0  0  0  0  0  0  0  0  0
  131.6519  130.9672  157.6199 C   0  0  0  0  0  0  0  0  0  0  0  0
  131.8525  131.1151  158.9796 C   0  0  0  0  0  0  0  0  0  0  0  0
  131.3399  132.2172  159.6379 C   0  0  0  0  0  0  0  0  0  0  0  0
  130.5126  136.6284  160.3378 C   0  0  0  0  0  0  0  0  0  0  0  0
  131.5373  137.7646  160.3063 C   0  0  0  0  0  0  0  0  0  0  0  0
  134.2042  138.8038  162.2137 C   0  0  0  0  0  0  0  0  0  0  0  0
  133.7141  138.1861  163.4980 C   0  0  0  0  0  0  0  0  0  0  0  0
  136.5987  138.5875  165.6765 N   0  0  0  0  0  0  0  0  0  0  0  0
  136.1448  135.0567  166.6505 H   0  0  0  0  0  0  0  0  0  0  0  0
  136.5451  135.2644  168.3723 H   0  0  0  0  0  0  0  0  0  0  0  0
  135.4304  136.3998  167.5746 H   0  0  0  0  0  0  0  0  0  0  0  0
  138.3941  136.0634  166.9263 H   0  0  0  0  0  0  0  0  0  0  0  0
  137.6797  137.4065  167.8503 H   0  0  0  0  0  0  0  0  0  0  0  0
  136.3119  141.1984  161.0864 H   0  0  0  0  0  0  0  0  0  0  0  0
  135.4588  140.3827  158.9287 H   0  0  0  0  0  0  0  0  0  0  0  0
  133.7989  138.5683  158.8634 H   0  0  0  0  0  0  0  0  0  0  0  0
  133.5615  136.3780  159.2484 H   0  0  0  0  0  0  0  0  0  0  0  0
  134.2272  135.8056  160.7973 H   0  0  0  0  0  0  0  0  0  0  0  0
  132.0558  134.7545  161.3499 H   0  0  0  0  0  0  0  0  0  0  0  0
  132.6808  134.1324  159.8037 H   0  0  0  0  0  0  0  0  0  0  0  0
  129.8374  134.1051  160.6857 H   0  0  0  0  0  0  0  0  0  0  0  0
  127.5284  133.5856  160.1340 H   0  0  0  0  0  0  0  0  0  0  0  0
  125.4734  134.3417  159.0079 H   0  0  0  0  0  0  0  0  0  0  0  0
  125.6032  136.0013  157.1934 H   0  0  0  0  0  0  0  0  0  0  0  0
  127.7871  136.9114  156.5114 H   0  0  0  0  0  0  0  0  0  0  0  0
  129.8411  136.1621  157.6437 H   0  0  0  0  0  0  0  0  0  0  0  0
  129.8607  133.7641  157.0309 H   0  0  0  0  0  0  0  0  0  0  0  0
  130.7817  131.8056  155.8563 H   0  0  0  0  0  0  0  0  0  0  0  0
  132.0521  130.1060  157.1055 H   0  0  0  0  0  0  0  0  0  0  0  0
  132.4094  130.3695  159.5276 H   0  0  0  0  0  0  0  0  0  0  0  0
  131.4963  132.3327  160.7003 H   0  0  0  0  0  0  0  0  0  0  0  0
  130.2938  136.3651  161.3727 H   0  0  0  0  0  0  0  0  0  0  0  0
  129.5965  136.9516  159.8436 H   0  0  0  0  0  0  0  0  0  0  0  0
  131.1384  138.6289  160.8373 H   0  0  0  0  0  0  0  0  0  0  0  0
  131.7462  138.0373  159.2719 H   0  0  0  0  0  0  0  0  0  0  0  0
  132.8376  138.7295  163.8512 H   0  0  0  0  0  0  0  0  0  0  0  0
  133.4485  137.1438  163.3217 H   0  0  0  0  0  0  0  0  0  0  0  0
  134.5014  138.2384  164.2499 H   0  0  0  0  0  0  0  0  0  0  0  0
  1  2  1  0
  1 37  1  0
  1 38  1  0
  1 39  1  0
  2  3  1  0
  2 40  1  0
  2 41  1  0
  3 36  1  0
  3  4  2  0
  4  5  1  0
  5  6  1  0
  5  7  1  0
  7  8  1  0
  7 36  2  0
  8  9  1  0
  9 34  1  0
  9 10  2  0
 10 11  1  0
 10 42  1  0
 11 12  2  0
 11 43  1  0
 12 13  1  0
 12 44  1  0
 13 14  1  0
 13 34  2  0
 14 33  1  0
 14 15  1  0
 15 16  1  0
 15 45  1  0
 15 46  1  0
 16 17  1  0
 16 47  1  0
 16 48  1  0
 17 18  1  0
 17 19  1  0
 17 32  1  0
 19 20  1  0
 19 26  1  0
 19 49  1  0
 20 25  1  0
 20 21  2  0
 21 22  1  0
 21 50  1  0
 22 23  2  0
 22 51  1  0
 23 24  1  0
 23 52  1  0
 24 25  2  0
 24 53  1  0
 25 54  1  0
 26 31  1  0
 26 27  2  0
 27 28  1  0
 27 55  1  0
 28 29  2  0
 28 56  1  0
 29 30  1  0
 29 57  1  0
 30 31  2  0
 30 58  1  0
 31 59  1  0
 32 33  1  0
 32 60  1  0
 32 61  1  0
 33 62  1  0
 33 63  1  0
 34 35  1  0
 35 64  1  0
 35 65  1  0
 35 66  1  0
M  CHG  1  17   1
M  END
>  <DOCK_score>  (1) 
-58.797173

>  <SMILES>  (1) 
CCc1n[nH]c(Sc2cccc(N3CC[NH+](C(c4ccccc4)c4ccccc4)CC3)c2C)n1

$$$$
