Oc1ccc(-c2c[nH]c(N[C@H](c3ccccc3)c3ccc(C4CC=CC4)cc3)[nH+]2)cc1
     RDKit          3D

 57 61  0  0  1  0  0  0  0  0999 V2000
  131.6974  129.3346  151.6494 O   0  0  0  0  0  0  0  0  0  0  0  0
  131.3602  130.0110  152.7789 C   0  0  0  0  0  0  0  0  0  0  0  0
  130.6237  131.1842  152.6899 C   0  0  0  0  0  0  0  0  0  0  0  0
  130.2753  131.8701  153.8349 C   0  0  0  0  0  0  0  0  0  0  0  0
  130.6683  131.3867  155.0817 C   0  0  0  0  0  0  0  0  0  0  0  0
  130.2958  132.1223  156.3151 C   0  0  0  0  0  0  0  0  0  0  0  0
  129.5560  131.6355  157.3418 C   0  0  0  0  0  0  0  0  0  0  0  0
  129.4525  132.6428  158.2713 N   0  0  0  0  0  0  0  0  0  0  0  0
  128.9812  132.5973  159.1180 H   0  0  0  0  0  0  0  0  0  0  0  0
  130.1329  133.7159  157.7843 C   0  0  0  0  0  0  0  0  0  0  0  0
  130.2719  134.9383  158.4190 N   0  0  0  0  0  0  0  0  0  0  0  0
  129.2199  135.4214  159.3169 C   0  0  2  0  0  0  0  0  0  0  0  0
  129.0873  134.7135  160.1351 H   0  0  0  0  0  0  0  0  0  0  0  0
  127.9281  135.5531  158.5521 C   0  0  0  0  0  0  0  0  0  0  0  0
  126.7202  135.3737  159.1996 C   0  0  0  0  0  0  0  0  0  0  0  0
  125.5351  135.4988  158.4990 C   0  0  0  0  0  0  0  0  0  0  0  0
  125.5583  135.7944  157.1488 C   0  0  0  0  0  0  0  0  0  0  0  0
  126.7665  135.9688  156.5001 C   0  0  0  0  0  0  0  0  0  0  0  0
  127.9514  135.8479  157.2017 C   0  0  0  0  0  0  0  0  0  0  0  0
  129.6131  136.7652  159.8741 C   0  0  0  0  0  0  0  0  0  0  0  0
  129.8375  137.8288  159.0200 C   0  0  0  0  0  0  0  0  0  0  0  0
  130.1938  139.0626  159.5315 C   0  0  0  0  0  0  0  0  0  0  0  0
  130.3347  139.2306  160.8964 C   0  0  0  0  0  0  0  0  0  0  0  0
  130.7269  140.5747  161.4536 C   0  0  0  0  0  0  0  0  0  0  0  0
  131.9411  140.4490  162.4030 C   0  0  0  0  0  0  0  0  0  0  0  0
  131.6661  141.4406  163.5103 C   0  0  0  0  0  0  0  0  0  0  0  0
  130.4125  141.8046  163.5153 C   0  0  0  0  0  0  0  0  0  0  0  0
  129.6418  141.1160  162.4131 C   0  0  0  0  0  0  0  0  0  0  0  0
  130.1154  138.1656  161.7501 C   0  0  0  0  0  0  0  0  0  0  0  0
  129.7548  136.9330  161.2389 C   0  0  0  0  0  0  0  0  0  0  0  0
  130.6403  133.3990  156.6179 N   0  0  0  0  0  0  0  0  0  0  0  0
  131.1749  133.9848  156.0594 H   0  0  0  0  0  0  0  0  0  0  0  0
  131.4123  130.2113  155.1675 C   0  0  0  0  0  0  0  0  0  0  0  0
  131.7574  129.5300  154.0189 C   0  0  0  0  0  0  0  0  0  0  0  0
  131.3771  129.7452  150.8346 H   0  0  0  0  0  0  0  0  0  0  0  0
  130.3192  131.5580  151.7235 H   0  0  0  0  0  0  0  0  0  0  0  0
  129.6985  132.7805  153.7652 H   0  0  0  0  0  0  0  0  0  0  0  0
  129.1295  130.6460  157.4149 H   0  0  0  0  0  0  0  0  0  0  0  0
  131.0659  135.4751  158.2691 H   0  0  0  0  0  0  0  0  0  0  0  0
  126.7021  135.1390  160.2537 H   0  0  0  0  0  0  0  0  0  0  0  0
  124.5911  135.3630  159.0058 H   0  0  0  0  0  0  0  0  0  0  0  0
  124.6326  135.8896  156.6008 H   0  0  0  0  0  0  0  0  0  0  0  0
  126.7847  136.1997  155.4453 H   0  0  0  0  0  0  0  0  0  0  0  0
  128.8954  135.9840  156.6948 H   0  0  0  0  0  0  0  0  0  0  0  0
  129.7311  137.6965  157.9536 H   0  0  0  0  0  0  0  0  0  0  0  0
  130.3648  139.8947  158.8645 H   0  0  0  0  0  0  0  0  0  0  0  0
  130.9293  141.2845  160.6515 H   0  0  0  0  0  0  0  0  0  0  0  0
  132.0049  139.4382  162.8060 H   0  0  0  0  0  0  0  0  0  0  0  0
  132.8610  140.7088  161.8795 H   0  0  0  0  0  0  0  0  0  0  0  0
  132.4097  141.8014  164.2056 H   0  0  0  0  0  0  0  0  0  0  0  0
  129.9828  142.5059  164.2152 H   0  0  0  0  0  0  0  0  0  0  0  0
  128.9995  141.8290  161.8962 H   0  0  0  0  0  0  0  0  0  0  0  0
  129.0489  140.2956  162.8173 H   0  0  0  0  0  0  0  0  0  0  0  0
  130.2255  138.2969  162.8164 H   0  0  0  0  0  0  0  0  0  0  0  0
  129.5835  136.1010  161.9059 H   0  0  0  0  0  0  0  0  0  0  0  0
  131.7185  129.8344  156.1322 H   0  0  0  0  0  0  0  0  0  0  0  0
  132.3340  128.6189  154.0846 H   0  0  0  0  0  0  0  0  0  0  0  0
  1  2  1  0
  1 35  1  0
  2 34  2  0
  2  3  1  0
  3  4  2  0
  3 36  1  0
  4  5  1  0
  4 37  1  0
  5  6  1  0
  5 33  2  0
  6 31  1  0
  6  7  2  0
  7  8  1  0
  7 38  1  0
  8  9  1  0
  8 10  1  0
 10 11  1  0
 10 31  2  0
 11 12  1  0
 11 39  1  0
 12 13  1  1
 12 14  1  0
 12 20  1  0
 14 19  1  0
 14 15  2  0
 15 16  1  0
 15 40  1  0
 16 17  2  0
 16 41  1  0
 17 18  1  0
 17 42  1  0
 18 19  2  0
 18 43  1  0
 19 44  1  0
 20 30  1  0
 20 21  2  0
 21 22  1  0
 21 45  1  0
 22 23  2  0
 22 46  1  0
 23 24  1  0
 23 29  1  0
 24 28  1  0
 24 25  1  0
 24 47  1  0
 25 26  1  0
 25 48  1  0
 25 49  1  0
 26 27  2  0
 26 50  1  0
 27 28  1  0
 27 51  1  0
 28 52  1  0
 28 53  1  0
 29 30  2  0
 29 54  1  0
 30 55  1  0
 31 32  1  0
 33 34  1  0
 33 56  1  0
 34 57  1  0
M  CHG  1  31   1
M  END
>  <DOCK_score>  (1) 
-64.402626

>  <SMILES>  (1) 
Oc1ccc(-c2c[nH]c(N[C@H](c3ccccc3)c3ccc(C4CC=CC4)cc3)[nH+]2)cc1

$$$$
