CCc1cccc([C@@H](Nc2[nH]cc(-c3ccc(F)cc3)[nH+]2)C(Cc2ccccc2)Cc2ccccc2)c1
     RDKit          3D

 70 74  0  0  1  0  0  0  0  0999 V2000
  125.6235  133.6389  158.8110 C   0  0  0  0  0  0  0  0  0  0  0  0
  125.7087  134.9003  159.6728 C   0  0  0  0  0  0  0  0  0  0  0  0
  126.8578  134.7718  160.6393 C   0  0  0  0  0  0  0  0  0  0  0  0
  126.6524  134.2127  161.8872 C   0  0  0  0  0  0  0  0  0  0  0  0
  127.7061  134.0954  162.7736 C   0  0  0  0  0  0  0  0  0  0  0  0
  128.9656  134.5370  162.4128 C   0  0  0  0  0  0  0  0  0  0  0  0
  129.1709  135.0959  161.1655 C   0  0  0  0  0  0  0  0  0  0  0  0
  130.5437  135.5774  160.7724 C   0  0  1  0  0  0  0  0  0  0  0  0
  131.2985  134.9775  161.2805 H   0  0  0  0  0  0  0  0  0  0  0  0
  130.7105  135.4465  159.3227 N   0  0  0  0  0  0  0  0  0  0  0  0
  130.6083  134.2027  158.7238 C   0  0  0  0  0  0  0  0  0  0  0  0
  130.3574  133.0307  159.3682 N   0  0  0  0  0  0  0  0  0  0  0  0
  130.2194  132.9174  160.3217 H   0  0  0  0  0  0  0  0  0  0  0  0
  130.3364  132.0373  158.4191 C   0  0  0  0  0  0  0  0  0  0  0  0
  130.5694  132.6313  157.2227 C   0  0  0  0  0  0  0  0  0  0  0  0
  130.6330  131.9491  155.9069 C   0  0  0  0  0  0  0  0  0  0  0  0
  130.2545  132.6266  154.7492 C   0  0  0  0  0  0  0  0  0  0  0  0
  130.3197  131.9896  153.5271 C   0  0  0  0  0  0  0  0  0  0  0  0
  130.7503  130.6750  153.4507 C   0  0  0  0  0  0  0  0  0  0  0  0
  130.8074  130.0534  152.2526 F   0  0  0  0  0  0  0  0  0  0  0  0
  131.1229  129.9960  154.5993 C   0  0  0  0  0  0  0  0  0  0  0  0
  131.0658  130.6267  155.8253 C   0  0  0  0  0  0  0  0  0  0  0  0
  130.7375  133.9595  157.4422 N   0  0  0  0  0  0  0  0  0  0  0  0
  130.9200  134.6238  156.7593 H   0  0  0  0  0  0  0  0  0  0  0  0
  130.7037  137.0451  161.1736 C   0  0  0  0  0  0  0  0  0  0  0  0
  132.0973  137.5341  160.7744 C   0  0  0  0  0  0  0  0  0  0  0  0
  133.1029  137.0766  161.7994 C   0  0  0  0  0  0  0  0  0  0  0  0
  133.3927  137.8770  162.8884 C   0  0  0  0  0  0  0  0  0  0  0  0
  134.3115  137.4552  163.8313 C   0  0  0  0  0  0  0  0  0  0  0  0
  134.9481  136.2376  163.6794 C   0  0  0  0  0  0  0  0  0  0  0  0
  134.6622  135.4394  162.5876 C   0  0  0  0  0  0  0  0  0  0  0  0
  133.7396  135.8590  161.6476 C   0  0  0  0  0  0  0  0  0  0  0  0
  129.6441  137.8874  160.4600 C   0  0  0  0  0  0  0  0  0  0  0  0
  129.4661  139.1940  161.1893 C   0  0  0  0  0  0  0  0  0  0  0  0
  128.5289  139.2996  162.1999 C   0  0  0  0  0  0  0  0  0  0  0  0
  128.3692  140.4969  162.8721 C   0  0  0  0  0  0  0  0  0  0  0  0
  129.1393  141.5915  162.5267 C   0  0  0  0  0  0  0  0  0  0  0  0
  130.0729  141.4875  161.5125 C   0  0  0  0  0  0  0  0  0  0  0  0
  130.2363  140.2888  160.8438 C   0  0  0  0  0  0  0  0  0  0  0  0
  128.1157  135.2180  160.2805 C   0  0  0  0  0  0  0  0  0  0  0  0
  125.4643  132.7715  159.4515 H   0  0  0  0  0  0  0  0  0  0  0  0
  124.7924  133.7320  158.1119 H   0  0  0  0  0  0  0  0  0  0  0  0
  126.5533  133.5148  158.2558 H   0  0  0  0  0  0  0  0  0  0  0  0
  124.7791  135.0245  160.2280 H   0  0  0  0  0  0  0  0  0  0  0  0
  125.8679  135.7677  159.0322 H   0  0  0  0  0  0  0  0  0  0  0  0
  125.6687  133.8678  162.1695 H   0  0  0  0  0  0  0  0  0  0  0  0
  127.5457  133.6591  163.7484 H   0  0  0  0  0  0  0  0  0  0  0  0
  129.7890  134.4456  163.1057 H   0  0  0  0  0  0  0  0  0  0  0  0
  130.8927  136.2315  158.7827 H   0  0  0  0  0  0  0  0  0  0  0  0
  130.1632  130.9854  158.5923 H   0  0  0  0  0  0  0  0  0  0  0  0
  129.9146  133.6500  154.8082 H   0  0  0  0  0  0  0  0  0  0  0  0
  130.0306  132.5153  152.6290 H   0  0  0  0  0  0  0  0  0  0  0  0
  131.4583  128.9714  154.5353 H   0  0  0  0  0  0  0  0  0  0  0  0
  131.3565  130.0967  156.7203 H   0  0  0  0  0  0  0  0  0  0  0  0
  130.5794  137.1427  162.2521 H   0  0  0  0  0  0  0  0  0  0  0  0
  132.3606  137.1244  159.7991 H   0  0  0  0  0  0  0  0  0  0  0  0
  132.0999  138.6229  160.7237 H   0  0  0  0  0  0  0  0  0  0  0  0
  132.8986  138.8303  163.0048 H   0  0  0  0  0  0  0  0  0  0  0  0
  134.5352  138.0789  164.6840 H   0  0  0  0  0  0  0  0  0  0  0  0
  135.6693  135.9101  164.4137 H   0  0  0  0  0  0  0  0  0  0  0  0
  135.1599  134.4883  162.4688 H   0  0  0  0  0  0  0  0  0  0  0  0
  133.5164  135.2356  160.7943 H   0  0  0  0  0  0  0  0  0  0  0  0
  129.9641  138.0830  159.4366 H   0  0  0  0  0  0  0  0  0  0  0  0
  128.6978  137.3464  160.4477 H   0  0  0  0  0  0  0  0  0  0  0  0
  127.9241  138.4455  162.4669 H   0  0  0  0  0  0  0  0  0  0  0  0
  127.6394  140.5782  163.6642 H   0  0  0  0  0  0  0  0  0  0  0  0
  129.0112  142.5283  163.0488 H   0  0  0  0  0  0  0  0  0  0  0  0
  130.6743  142.3429  161.2423 H   0  0  0  0  0  0  0  0  0  0  0  0
  130.9655  140.2076  160.0512 H   0  0  0  0  0  0  0  0  0  0  0  0
  128.2753  135.6588  159.3076 H   0  0  0  0  0  0  0  0  0  0  0  0
  1  2  1  0
  1 41  1  0
  1 42  1  0
  1 43  1  0
  2  3  1  0
  2 44  1  0
  2 45  1  0
  3 40  2  0
  3  4  1  0
  4  5  2  0
  4 46  1  0
  5  6  1  0
  5 47  1  0
  6  7  2  0
  6 48  1  0
  7  8  1  0
  7 40  1  0
  8  9  1  1
  8 10  1  0
  8 25  1  0
 10 49  1  0
 11 10  1  0
 11 23  2  0
 11 12  1  0
 12 13  1  0
 12 14  1  0
 14 15  2  0
 14 50  1  0
 15 16  1  0
 15 23  1  0
 16 22  1  0
 16 17  2  0
 17 18  1  0
 17 51  1  0
 18 19  2  0
 18 52  1  0
 19 20  1  0
 19 21  1  0
 21 22  2  0
 21 53  1  0
 22 54  1  0
 23 24  1  0
 25 26  1  0
 25 33  1  0
 25 55  1  0
 26 27  1  0
 26 56  1  0
 26 57  1  0
 27 32  1  0
 27 28  2  0
 28 29  1  0
 28 58  1  0
 29 30  2  0
 29 59  1  0
 30 31  1  0
 30 60  1  0
 31 32  2  0
 31 61  1  0
 32 62  1  0
 33 34  1  0
 33 63  1  0
 33 64  1  0
 34 39  1  0
 34 35  2  0
 35 36  1  0
 35 65  1  0
 36 37  2  0
 36 66  1  0
 37 38  1  0
 37 67  1  0
 38 39  2  0
 38 68  1  0
 39 69  1  0
 40 70  1  0
M  CHG  1  23   1
M  END
>  <DOCK_score>  (1) 
-62.775063

>  <SMILES>  (1) 
CCc1cccc([C@@H](Nc2[nH]cc(-c3ccc(F)cc3)[nH+]2)C(Cc2ccccc2)Cc2ccccc2)c1

$$$$
