Cc1cccc(N2CC[NH+](C(c3ccccc3)c3ccccc3)CC2)c1CC#N
     RDKit          3D

 57 60  0  0  0  0  0  0  0  0999 V2000
  135.4422  140.7677  163.3556 C   0  0  0  0  0  0  0  0  0  0  0  0
  134.9566  140.1778  162.0566 C   0  0  0  0  0  0  0  0  0  0  0  0
  135.4357  140.6658  160.8543 C   0  0  0  0  0  0  0  0  0  0  0  0
  134.9931  140.1272  159.6604 C   0  0  0  0  0  0  0  0  0  0  0  0
  134.0702  139.0996  159.6645 C   0  0  0  0  0  0  0  0  0  0  0  0
  133.5903  138.6042  160.8700 C   0  0  0  0  0  0  0  0  0  0  0  0
  132.6605  137.5618  160.8780 N   0  0  0  0  0  0  0  0  0  0  0  0
  133.2362  136.3381  160.3022 C   0  0  0  0  0  0  0  0  0  0  0  0
  132.2086  135.2072  160.3839 C   0  0  0  0  0  0  0  0  0  0  0  0
  130.9970  135.5922  159.6481 N   0  0  0  0  0  0  0  0  0  0  0  0
  131.2332  135.7763  158.6845 H   0  0  0  0  0  0  0  0  0  0  0  0
  130.0177  134.4991  159.7116 C   0  0  0  0  0  0  0  0  0  0  0  0
  128.7746  134.8938  158.9568 C   0  0  0  0  0  0  0  0  0  0  0  0
  127.5449  134.3907  159.3387 C   0  0  0  0  0  0  0  0  0  0  0  0
  126.4040  134.7567  158.6492 C   0  0  0  0  0  0  0  0  0  0  0  0
  126.4941  135.6174  157.5714 C   0  0  0  0  0  0  0  0  0  0  0  0
  127.7244  136.1163  157.1862 C   0  0  0  0  0  0  0  0  0  0  0  0
  128.8647  135.7546  157.8789 C   0  0  0  0  0  0  0  0  0  0  0  0
  130.6087  133.2587  159.0924 C   0  0  0  0  0  0  0  0  0  0  0  0
  130.4417  133.0133  157.7424 C   0  0  0  0  0  0  0  0  0  0  0  0
  130.9880  131.8780  157.1735 C   0  0  0  0  0  0  0  0  0  0  0  0
  131.6924  130.9828  157.9567 C   0  0  0  0  0  0  0  0  0  0  0  0
  131.8549  131.2257  159.3078 C   0  0  0  0  0  0  0  0  0  0  0  0
  131.3132  132.3636  159.8757 C   0  0  0  0  0  0  0  0  0  0  0  0
  130.4200  136.8016  160.2500 C   0  0  0  0  0  0  0  0  0  0  0  0
  131.4328  137.9457  160.1672 C   0  0  0  0  0  0  0  0  0  0  0  0
  134.0335  139.1509  162.0678 C   0  0  0  0  0  0  0  0  0  0  0  0
  133.5120  138.6198  163.3782 C   0  0  0  0  0  0  0  0  0  0  0  0
  132.3102  139.3741  163.7700 C   0  0  0  0  0  0  0  0  0  0  0  0
  131.3827  139.9562  164.0724 N   0  0  0  0  0  0  0  0  0  0  0  0
  136.3234  140.2232  163.6947 H   0  0  0  0  0  0  0  0  0  0  0  0
  135.6985  141.8163  163.2049 H   0  0  0  0  0  0  0  0  0  0  0  0
  134.6557  140.6902  164.1062 H   0  0  0  0  0  0  0  0  0  0  0  0
  136.1574  141.4693  160.8483 H   0  0  0  0  0  0  0  0  0  0  0  0
  135.3693  140.5106  158.7234 H   0  0  0  0  0  0  0  0  0  0  0  0
  133.7248  138.6794  158.7315 H   0  0  0  0  0  0  0  0  0  0  0  0
  133.4993  136.5159  159.2595 H   0  0  0  0  0  0  0  0  0  0  0  0
  134.1296  136.0589  160.8607 H   0  0  0  0  0  0  0  0  0  0  0  0
  131.9558  135.0207  161.4277 H   0  0  0  0  0  0  0  0  0  0  0  0
  132.6283  134.3024  159.9444 H   0  0  0  0  0  0  0  0  0  0  0  0
  129.7629  134.2995  160.7524 H   0  0  0  0  0  0  0  0  0  0  0  0
  127.4752  133.7147  160.1782 H   0  0  0  0  0  0  0  0  0  0  0  0
  125.4429  134.3665  158.9500 H   0  0  0  0  0  0  0  0  0  0  0  0
  125.6033  135.8998  157.0300 H   0  0  0  0  0  0  0  0  0  0  0  0
  127.7948  136.7885  156.3438 H   0  0  0  0  0  0  0  0  0  0  0  0
  129.8259  136.1440  157.5777 H   0  0  0  0  0  0  0  0  0  0  0  0
  129.8876  133.7103  157.1312 H   0  0  0  0  0  0  0  0  0  0  0  0
  130.8606  131.6881  156.1179 H   0  0  0  0  0  0  0  0  0  0  0  0
  132.1154  130.0936  157.5131 H   0  0  0  0  0  0  0  0  0  0  0  0
  132.4050  130.5262  159.9198 H   0  0  0  0  0  0  0  0  0  0  0  0
  131.4399  132.5531  160.9314 H   0  0  0  0  0  0  0  0  0  0  0  0
  130.1764  136.6067  161.2944 H   0  0  0  0  0  0  0  0  0  0  0  0
  129.5139  137.0787  159.7112 H   0  0  0  0  0  0  0  0  0  0  0  0
  131.0106  138.8392  160.6270 H   0  0  0  0  0  0  0  0  0  0  0  0
  131.6663  138.1498  159.1222 H   0  0  0  0  0  0  0  0  0  0  0  0
  133.2592  137.5653  163.2681 H   0  0  0  0  0  0  0  0  0  0  0  0
  134.2776  138.7317  164.1460 H   0  0  0  0  0  0  0  0  0  0  0  0
  1  2  1  0
  1 31  1  0
  1 32  1  0
  1 33  1  0
  2 27  2  0
  2  3  1  0
  3  4  2  0
  3 34  1  0
  4  5  1  0
  4 35  1  0
  5  6  2  0
  5 36  1  0
  6  7  1  0
  6 27  1  0
  7 26  1  0
  7  8  1  0
  8  9  1  0
  8 37  1  0
  8 38  1  0
  9 10  1  0
  9 39  1  0
  9 40  1  0
 10 11  1  0
 10 12  1  0
 10 25  1  0
 12 13  1  0
 12 19  1  0
 12 41  1  0
 13 18  1  0
 13 14  2  0
 14 15  1  0
 14 42  1  0
 15 16  2  0
 15 43  1  0
 16 17  1  0
 16 44  1  0
 17 18  2  0
 17 45  1  0
 18 46  1  0
 19 24  1  0
 19 20  2  0
 20 21  1  0
 20 47  1  0
 21 22  2  0
 21 48  1  0
 22 23  1  0
 22 49  1  0
 23 24  2  0
 23 50  1  0
 24 51  1  0
 25 26  1  0
 25 52  1  0
 25 53  1  0
 26 54  1  0
 26 55  1  0
 27 28  1  0
 28 29  1  0
 28 56  1  0
 28 57  1  0
 29 30  3  0
M  CHG  1  10   1
M  END
>  <DOCK_score>  (1) 
-56.526253

>  <SMILES>  (1) 
Cc1cccc(N2CC[NH+](C(c3ccccc3)c3ccccc3)CC2)c1CC#N

$$$$
