Nc1ccc(-c2c[nH]c(N[C@@H](CCc3cccc4ccccc34)C3CCC(=O)C3)[nH+]2)cc1
     RDKit          3D

 61 65  0  0  1  0  0  0  0  0999 V2000
  130.3506  130.3072  152.7320 N   0  0  0  0  0  0  0  0  0  0  0  0
  130.5704  130.8922  153.9814 C   0  0  0  0  0  0  0  0  0  0  0  0
  130.1405  132.1914  154.2244 C   0  0  0  0  0  0  0  0  0  0  0  0
  130.3563  132.7708  155.4570 C   0  0  0  0  0  0  0  0  0  0  0  0
  131.0061  132.0526  156.4596 C   0  0  0  0  0  0  0  0  0  0  0  0
  131.2393  132.6737  157.7865 C   0  0  0  0  0  0  0  0  0  0  0  0
  131.3023  132.0206  158.9732 C   0  0  0  0  0  0  0  0  0  0  0  0
  131.5328  132.9710  159.9394 N   0  0  0  0  0  0  0  0  0  0  0  0
  131.6277  132.8112  160.8915 H   0  0  0  0  0  0  0  0  0  0  0  0
  131.6039  134.1771  159.3134 C   0  0  0  0  0  0  0  0  0  0  0  0
  131.8253  135.3952  159.9328 N   0  0  0  0  0  0  0  0  0  0  0  0
  132.0064  135.4563  161.3852 C   0  0  1  0  0  0  0  0  0  0  0  0
  132.6133  134.6118  161.7115 H   0  0  0  0  0  0  0  0  0  0  0  0
  132.7095  136.7634  161.7570 C   0  0  0  0  0  0  0  0  0  0  0  0
  134.2125  136.6225  161.5089 C   0  0  0  0  0  0  0  0  0  0  0  0
  134.9051  137.9099  161.8750 C   0  0  0  0  0  0  0  0  0  0  0  0
  135.3649  138.1030  163.1417 C   0  0  0  0  0  0  0  0  0  0  0  0
  136.0080  139.2865  163.4986 C   0  0  0  0  0  0  0  0  0  0  0  0
  136.1951  140.2839  162.5912 C   0  0  0  0  0  0  0  0  0  0  0  0
  135.7340  140.1208  161.2741 C   0  0  0  0  0  0  0  0  0  0  0  0
  135.9091  141.1277  160.3093 C   0  0  0  0  0  0  0  0  0  0  0  0
  135.4497  140.9340  159.0430 C   0  0  0  0  0  0  0  0  0  0  0  0
  134.8065  139.7503  158.6860 C   0  0  0  0  0  0  0  0  0  0  0  0
  134.6191  138.7534  159.5933 C   0  0  0  0  0  0  0  0  0  0  0  0
  135.0798  138.9168  160.9109 C   0  0  0  0  0  0  0  0  0  0  0  0
  130.6405  135.3984  162.0723 C   0  0  2  0  0  0  0  0  0  0  0  0
  130.0269  136.8158  162.1992 C   0  0  0  0  0  0  0  0  0  0  0  0
  129.0664  136.6907  163.4028 C   0  0  0  0  0  0  0  0  0  0  0  0
  129.5505  135.5211  164.2343 C   0  0  0  0  0  0  0  0  0  0  0  0
  129.0469  135.1092  165.2516 O   0  0  0  0  0  0  0  0  0  0  0  0
  130.7862  134.9621  163.5514 C   0  0  0  0  0  0  0  0  0  0  0  0
  131.4224  133.9959  158.0278 N   0  0  0  0  0  0  0  0  0  0  0  0
  131.4215  134.6957  157.3561 H   0  0  0  0  0  0  0  0  0  0  0  0
  131.4414  130.7516  156.2116 C   0  0  0  0  0  0  0  0  0  0  0  0
  131.2181  130.1740  154.9796 C   0  0  0  0  0  0  0  0  0  0  0  0
  129.8985  130.8077  152.0349 H   0  0  0  0  0  0  0  0  0  0  0  0
  130.6503  129.4006  152.5615 H   0  0  0  0  0  0  0  0  0  0  0  0
  129.6375  132.7476  153.4474 H   0  0  0  0  0  0  0  0  0  0  0  0
  130.0218  133.7802  155.6457 H   0  0  0  0  0  0  0  0  0  0  0  0
  131.1919  130.9577  159.1293 H   0  0  0  0  0  0  0  0  0  0  0  0
  131.8608  136.2083  159.4050 H   0  0  0  0  0  0  0  0  0  0  0  0
  132.5340  136.9834  162.8101 H   0  0  0  0  0  0  0  0  0  0  0  0
  132.3147  137.5749  161.1457 H   0  0  0  0  0  0  0  0  0  0  0  0
  134.3879  136.4024  160.4558 H   0  0  0  0  0  0  0  0  0  0  0  0
  134.6073  135.8110  162.1203 H   0  0  0  0  0  0  0  0  0  0  0  0
  135.2296  137.3274  163.8809 H   0  0  0  0  0  0  0  0  0  0  0  0
  136.3637  139.4143  164.5103 H   0  0  0  0  0  0  0  0  0  0  0  0
  136.6992  141.1939  162.8812 H   0  0  0  0  0  0  0  0  0  0  0  0
  136.4057  142.0502  160.5714 H   0  0  0  0  0  0  0  0  0  0  0  0
  135.5853  141.7095  158.3036 H   0  0  0  0  0  0  0  0  0  0  0  0
  134.4511  139.6222  157.6742 H   0  0  0  0  0  0  0  0  0  0  0  0
  134.1192  137.8413  159.3022 H   0  0  0  0  0  0  0  0  0  0  0  0
  129.9665  134.7308  161.5356 H   0  0  0  0  0  0  0  0  0  0  0  0
  130.8034  137.5525  162.4059 H   0  0  0  0  0  0  0  0  0  0  0  0
  129.4797  137.0788  161.2939 H   0  0  0  0  0  0  0  0  0  0  0  0
  128.0530  136.5016  163.0484 H   0  0  0  0  0  0  0  0  0  0  0  0
  129.0885  137.6045  163.9967 H   0  0  0  0  0  0  0  0  0  0  0  0
  130.8041  133.8750  163.6276 H   0  0  0  0  0  0  0  0  0  0  0  0
  131.6887  135.3902  163.9875 H   0  0  0  0  0  0  0  0  0  0  0  0
  131.9490  130.1949  156.9855 H   0  0  0  0  0  0  0  0  0  0  0  0
  131.5506  129.1643  154.7887 H   0  0  0  0  0  0  0  0  0  0  0  0
  1  2  1  0
  1 36  1  0
  1 37  1  0
  2 35  2  0
  2  3  1  0
  3  4  2  0
  3 38  1  0
  4  5  1  0
  4 39  1  0
  5  6  1  0
  5 34  2  0
  6 32  1  0
  6  7  2  0
  7  8  1  0
  7 40  1  0
  8  9  1  0
  8 10  1  0
 10 11  1  0
 10 32  2  0
 11 12  1  0
 11 41  1  0
 12 13  1  1
 12 14  1  0
 12 26  1  0
 14 15  1  0
 14 42  1  0
 14 43  1  0
 15 16  1  0
 15 44  1  0
 15 45  1  0
 16 25  1  0
 16 17  2  0
 17 18  1  0
 17 46  1  0
 18 19  2  0
 18 47  1  0
 19 20  1  0
 19 48  1  0
 20 25  2  0
 20 21  1  0
 21 22  2  0
 21 49  1  0
 22 23  1  0
 22 50  1  0
 23 24  2  0
 23 51  1  0
 24 25  1  0
 24 52  1  0
 26 31  1  0
 26 27  1  0
 26 53  1  6
 27 28  1  0
 27 54  1  0
 27 55  1  0
 28 29  1  0
 28 56  1  0
 28 57  1  0
 29 30  2  0
 29 31  1  0
 31 58  1  0
 31 59  1  0
 32 33  1  0
 34 35  1  0
 34 60  1  0
 35 61  1  0
M  CHG  1  32   1
M  END
>  <DOCK_score>  (1) 
-61.989334

>  <SMILES>  (1) 
Nc1ccc(-c2c[nH]c(N[C@@H](CCc3cccc4ccccc34)C3CCC(=O)C3)[nH+]2)cc1

$$$$
