C[C@](CNc1ccc2ccccc2c1)([NH2+]Cc1cccc2c1NC(=O)CO2)c1ccccc1
     RDKit          3D

 61 65  0  0  1  0  0  0  0  0999 V2000
  129.2754  137.0455  159.2340 C   0  0  0  0  0  0  0  0  0  0  0  0
  129.7726  135.7969  159.9652 C   0  0  2  0  0  0  0  0  0  0  0  0
  130.8557  136.1923  160.9708 C   0  0  0  0  0  0  0  0  0  0  0  0
  131.9735  136.8212  160.2628 N   0  0  0  0  0  0  0  0  0  0  0  0
  133.0878  137.2688  160.9749 C   0  0  0  0  0  0  0  0  0  0  0  0
  133.9451  138.2141  160.3983 C   0  0  0  0  0  0  0  0  0  0  0  0
  135.0337  138.6716  161.0712 C   0  0  0  0  0  0  0  0  0  0  0  0
  135.3168  138.1855  162.3598 C   0  0  0  0  0  0  0  0  0  0  0  0
  136.4386  138.6364  163.0761 C   0  0  0  0  0  0  0  0  0  0  0  0
  136.6852  138.1456  164.3214 C   0  0  0  0  0  0  0  0  0  0  0  0
  135.8409  137.1999  164.9004 C   0  0  0  0  0  0  0  0  0  0  0  0
  134.7451  136.7402  164.2372 C   0  0  0  0  0  0  0  0  0  0  0  0
  134.4578  137.2240  162.9488 C   0  0  0  0  0  0  0  0  0  0  0  0
  133.3360  136.7716  162.2354 C   0  0  0  0  0  0  0  0  0  0  0  0
  130.3310  134.8492  158.9916 N   0  0  0  0  0  0  0  0  0  0  0  0
  130.8564  135.3543  158.2937 H   0  0  0  0  0  0  0  0  0  0  0  0
  130.9399  134.1992  159.4660 H   0  0  0  0  0  0  0  0  0  0  0  0
  129.2380  134.1122  158.3433 C   0  0  0  0  0  0  0  0  0  0  0  0
  129.8109  133.1398  157.3445 C   0  0  0  0  0  0  0  0  0  0  0  0
  130.0086  133.5294  156.0320 C   0  0  0  0  0  0  0  0  0  0  0  0
  130.5377  132.6406  155.1151 C   0  0  0  0  0  0  0  0  0  0  0  0
  130.8642  131.3526  155.5009 C   0  0  0  0  0  0  0  0  0  0  0  0
  130.6647  130.9542  156.8107 C   0  0  0  0  0  0  0  0  0  0  0  0
  130.1354  131.8522  157.7368 C   0  0  0  0  0  0  0  0  0  0  0  0
  129.9378  131.4348  159.0606 N   0  0  0  0  0  0  0  0  0  0  0  0
  130.5414  130.3043  159.4877 C   0  0  0  0  0  0  0  0  0  0  0  0
  130.3598  129.9072  160.6193 O   0  0  0  0  0  0  0  0  0  0  0  0
  131.4414  129.5378  158.5522 C   0  0  0  0  0  0  0  0  0  0  0  0
  130.9806  129.6924  157.2074 O   0  0  0  0  0  0  0  0  0  0  0  0
  128.6229  135.1501  160.6935 C   0  0  0  0  0  0  0  0  0  0  0  0
  127.3599  135.7079  160.6254 C   0  0  0  0  0  0  0  0  0  0  0  0
  126.3042  135.1117  161.2896 C   0  0  0  0  0  0  0  0  0  0  0  0
  126.5136  133.9637  162.0305 C   0  0  0  0  0  0  0  0  0  0  0  0
  127.7777  133.4088  162.1031 C   0  0  0  0  0  0  0  0  0  0  0  0
  128.8323  134.0020  161.4345 C   0  0  0  0  0  0  0  0  0  0  0  0
  128.8611  137.7488  159.9562 H   0  0  0  0  0  0  0  0  0  0  0  0
  130.1069  137.5134  158.7070 H   0  0  0  0  0  0  0  0  0  0  0  0
  128.5038  136.7639  158.5175 H   0  0  0  0  0  0  0  0  0  0  0  0
  130.4415  136.8957  161.6932 H   0  0  0  0  0  0  0  0  0  0  0  0
  131.2099  135.3029  161.4918 H   0  0  0  0  0  0  0  0  0  0  0  0
  131.9394  136.9266  159.2990 H   0  0  0  0  0  0  0  0  0  0  0  0
  133.7355  138.5884  159.4072 H   0  0  0  0  0  0  0  0  0  0  0  0
  135.6828  139.4042  160.6149 H   0  0  0  0  0  0  0  0  0  0  0  0
  137.1017  139.3691  162.6407 H   0  0  0  0  0  0  0  0  0  0  0  0
  137.5480  138.4945  164.8694 H   0  0  0  0  0  0  0  0  0  0  0  0
  136.0593  136.8267  165.8900 H   0  0  0  0  0  0  0  0  0  0  0  0
  134.0991  136.0077  164.6985 H   0  0  0  0  0  0  0  0  0  0  0  0
  132.6730  136.0390  162.6715 H   0  0  0  0  0  0  0  0  0  0  0  0
  128.6705  133.5666  159.0972 H   0  0  0  0  0  0  0  0  0  0  0  0
  128.5804  134.8142  157.8309 H   0  0  0  0  0  0  0  0  0  0  0  0
  129.7522  134.5323  155.7237 H   0  0  0  0  0  0  0  0  0  0  0  0
  130.6931  132.9516  154.0925 H   0  0  0  0  0  0  0  0  0  0  0  0
  131.2743  130.6598  154.7810 H   0  0  0  0  0  0  0  0  0  0  0  0
  129.3764  131.9500  159.6608 H   0  0  0  0  0  0  0  0  0  0  0  0
  132.4589  129.9202  158.6331 H   0  0  0  0  0  0  0  0  0  0  0  0
  131.4289  128.4815  158.8207 H   0  0  0  0  0  0  0  0  0  0  0  0
  127.1971  136.6072  160.0501 H   0  0  0  0  0  0  0  0  0  0  0  0
  125.3168  135.5455  161.2333 H   0  0  0  0  0  0  0  0  0  0  0  0
  125.6898  133.5004  162.5531 H   0  0  0  0  0  0  0  0  0  0  0  0
  127.9414  132.5121  162.6822 H   0  0  0  0  0  0  0  0  0  0  0  0
  129.8199  133.5687  161.4915 H   0  0  0  0  0  0  0  0  0  0  0  0
  1 36  1  0
  1 37  1  0
  1 38  1  0
  2  1  1  6
  2  3  1  0
  2 15  1  0
  2 30  1  0
  3  4  1  0
  3 39  1  0
  3 40  1  0
  4  5  1  0
  4 41  1  0
  5 14  1  0
  5  6  2  0
  6  7  1  0
  6 42  1  0
  7  8  2  0
  7 43  1  0
  8 13  1  0
  8  9  1  0
  9 10  2  0
  9 44  1  0
 10 11  1  0
 10 45  1  0
 11 12  2  0
 11 46  1  0
 12 13  1  0
 12 47  1  0
 13 14  2  0
 14 48  1  0
 15 16  1  0
 15 17  1  0
 15 18  1  0
 18 19  1  0
 18 49  1  0
 18 50  1  0
 19 24  1  0
 19 20  2  0
 20 21  1  0
 20 51  1  0
 21 22  2  0
 21 52  1  0
 22 23  1  0
 22 53  1  0
 23 29  1  0
 23 24  2  0
 24 25  1  0
 25 26  1  0
 25 54  1  0
 26 27  2  0
 26 28  1  0
 28 29  1  0
 28 55  1  0
 28 56  1  0
 30 35  1  0
 30 31  2  0
 31 32  1  0
 31 57  1  0
 32 33  2  0
 32 58  1  0
 33 34  1  0
 33 59  1  0
 34 35  2  0
 34 60  1  0
 35 61  1  0
M  CHG  1  15   1
M  END
>  <DOCK_score>  (1) 
-56.763741

>  <SMILES>  (1) 
C[C@](CNc1ccc2ccccc2c1)([NH2+]Cc1cccc2c1NC(=O)CO2)c1ccccc1

$$$$
