Cc1[nH]c(CNc2ccc(NC[C@@H]3CC3(F)F)cc2C(N)=O)[nH+]c1C
     RDKit          3D

 47 49  0  0  1  0  0  0  0  0999 V2000
  131.1865  131.3274  154.7490 C   0  0  0  0  0  0  0  0  0  0  0  0
  130.4513  132.1060  155.8093 C   0  0  0  0  0  0  0  0  0  0  0  0
  130.0623  133.3955  155.7287 N   0  0  0  0  0  0  0  0  0  0  0  0
  130.2046  133.9861  154.9726 H   0  0  0  0  0  0  0  0  0  0  0  0
  129.4534  133.7159  156.8592 C   0  0  0  0  0  0  0  0  0  0  0  0
  128.8633  135.0635  157.1861 C   0  0  0  0  0  0  0  0  0  0  0  0
  128.2777  135.0275  158.5284 N   0  0  0  0  0  0  0  0  0  0  0  0
  129.0538  135.3583  159.6350 C   0  0  0  0  0  0  0  0  0  0  0  0
  130.4399  135.3230  159.5496 C   0  0  0  0  0  0  0  0  0  0  0  0
  131.2101  135.6511  160.6458 C   0  0  0  0  0  0  0  0  0  0  0  0
  130.6066  136.0192  161.8445 C   0  0  0  0  0  0  0  0  0  0  0  0
  131.3977  136.3504  162.9514 N   0  0  0  0  0  0  0  0  0  0  0  0
  130.8305  137.1405  164.0470 C   0  0  0  0  0  0  0  0  0  0  0  0
  130.3610  138.4940  163.5099 C   0  0  2  0  0  0  0  0  0  0  0  0
  129.5967  138.4524  162.7338 H   0  0  0  0  0  0  0  0  0  0  0  0
  131.3967  139.6169  163.4218 C   0  0  0  0  0  0  0  0  0  0  0  0
  130.3054  139.6640  164.4942 C   0  0  0  0  0  0  0  0  0  0  0  0
  129.2776  140.5986  164.3292 F   0  0  0  0  0  0  0  0  0  0  0  0
  130.6871  139.4141  165.8168 F   0  0  0  0  0  0  0  0  0  0  0  0
  129.2274  136.0593  161.9458 C   0  0  0  0  0  0  0  0  0  0  0  0
  128.4390  135.7340  160.8385 C   0  0  0  0  0  0  0  0  0  0  0  0
  126.9685  135.7806  160.9365 C   0  0  0  0  0  0  0  0  0  0  0  0
  126.3815  136.1422  162.0946 N   0  0  0  0  0  0  0  0  0  0  0  0
  126.2856  135.4931  159.9725 O   0  0  0  0  0  0  0  0  0  0  0  0
  129.4472  132.6588  157.6554 N   0  0  0  0  0  0  0  0  0  0  0  0
  129.0635  132.6198  158.5454 H   0  0  0  0  0  0  0  0  0  0  0  0
  130.0662  131.6447  157.0158 C   0  0  0  0  0  0  0  0  0  0  0  0
  130.2855  130.2531  157.5511 C   0  0  0  0  0  0  0  0  0  0  0  0
  130.4666  130.8392  154.0920 H   0  0  0  0  0  0  0  0  0  0  0  0
  131.8087  132.0061  154.1656 H   0  0  0  0  0  0  0  0  0  0  0  0
  131.8158  130.5737  155.2222 H   0  0  0  0  0  0  0  0  0  0  0  0
  129.6462  135.8210  157.1513 H   0  0  0  0  0  0  0  0  0  0  0  0
  128.0893  135.3072  156.4584 H   0  0  0  0  0  0  0  0  0  0  0  0
  127.3491  134.7731  158.6459 H   0  0  0  0  0  0  0  0  0  0  0  0
  130.9155  135.0383  158.6227 H   0  0  0  0  0  0  0  0  0  0  0  0
  132.2873  135.6218  160.5735 H   0  0  0  0  0  0  0  0  0  0  0  0
  132.3212  136.0568  162.9926 H   0  0  0  0  0  0  0  0  0  0  0  0
  129.9835  136.6075  164.4788 H   0  0  0  0  0  0  0  0  0  0  0  0
  131.5900  137.2972  164.8129 H   0  0  0  0  0  0  0  0  0  0  0  0
  132.4124  139.3913  163.7466 H   0  0  0  0  0  0  0  0  0  0  0  0
  131.3134  140.3141  162.5881 H   0  0  0  0  0  0  0  0  0  0  0  0
  128.7611  136.3455  162.8769 H   0  0  0  0  0  0  0  0  0  0  0  0
  126.9264  136.3716  162.8636 H   0  0  0  0  0  0  0  0  0  0  0  0
  125.4141  136.1728  162.1590 H   0  0  0  0  0  0  0  0  0  0  0  0
  131.2376  130.2133  158.0803 H   0  0  0  0  0  0  0  0  0  0  0  0
  129.4779  129.9960  158.2364 H   0  0  0  0  0  0  0  0  0  0  0  0
  130.2997  129.5436  156.7238 H   0  0  0  0  0  0  0  0  0  0  0  0
  1  2  1  0
  1 29  1  0
  1 30  1  0
  1 31  1  0
  2 27  2  0
  2  3  1  0
  3  4  1  0
  3  5  1  0
  5  6  1  0
  5 25  2  0
  6  7  1  0
  6 32  1  0
  6 33  1  0
  7  8  1  0
  7 34  1  0
  8 21  1  0
  8  9  2  0
  9 10  1  0
  9 35  1  0
 10 11  2  0
 10 36  1  0
 11 12  1  0
 11 20  1  0
 12 13  1  0
 12 37  1  0
 13 14  1  0
 13 38  1  0
 13 39  1  0
 14 15  1  6
 14 17  1  0
 14 16  1  0
 16 17  1  0
 16 40  1  0
 16 41  1  0
 17 18  1  0
 17 19  1  0
 20 21  2  0
 20 42  1  0
 21 22  1  0
 22 23  1  0
 22 24  2  0
 23 43  1  0
 23 44  1  0
 25 26  1  0
 25 27  1  0
 27 28  1  0
 28 45  1  0
 28 46  1  0
 28 47  1  0
M  CHG  1  25   1
M  END
>  <DOCK_score>  (1) 
-41.069115

>  <SMILES>  (1) 
Cc1[nH]c(CNc2ccc(NC[C@@H]3CC3(F)F)cc2C(N)=O)[nH+]c1C

$$$$
