Nc1cncc(NCCC=CCCN2CC[NH+](Cc3cccc4ccccc34)CC2)c1
     RDKit          3D

 65 68  0  0  1  0  0  0  0  0999 V2000
  124.1822  134.7935  161.4353 N   0  0  0  0  0  0  0  0  0  0  0  0
  125.3573  134.0784  161.6789 C   0  0  0  0  0  0  0  0  0  0  0  0
  125.5796  132.8557  161.0569 C   0  0  0  0  0  0  0  0  0  0  0  0
  126.6854  132.1747  161.2818 N   0  0  0  0  0  0  0  0  0  0  0  0
  127.6235  132.6195  162.0941 C   0  0  0  0  0  0  0  0  0  0  0  0
  127.4742  133.8306  162.7586 C   0  0  0  0  0  0  0  0  0  0  0  0
  128.4709  134.2921  163.6218 N   0  0  0  0  0  0  0  0  0  0  0  0
  128.3033  135.5705  164.3174 C   0  0  0  0  0  0  0  0  0  0  0  0
  129.5287  135.8391  165.1933 C   0  0  0  0  0  0  0  0  0  0  0  0
  130.7615  135.8957  164.3284 C   0  0  0  0  0  0  0  0  0  0  0  0
  131.1502  137.0369  163.8160 C   0  0  0  0  0  0  0  0  0  0  0  0
  132.3831  137.0935  162.9512 C   0  0  0  0  0  0  0  0  0  0  0  0
  132.0069  137.6065  161.5597 C   0  0  0  0  0  0  0  0  0  0  0  0
  131.0240  136.6991  160.9526 N   0  0  0  0  0  0  0  0  0  0  0  0
  131.6698  135.4706  160.4688 C   0  0  0  0  0  0  0  0  0  0  0  0
  130.6064  134.5292  159.8992 C   0  0  0  0  0  0  0  0  0  0  0  0
  129.8998  135.1974  158.7984 N   0  0  0  0  0  0  0  0  0  0  0  0
  130.5606  135.4492  158.0788 H   0  0  0  0  0  0  0  0  0  0  0  0
  128.8913  134.2868  158.2400 C   0  0  0  0  0  0  0  0  0  0  0  0
  129.5585  133.3103  157.3061 C   0  0  0  0  0  0  0  0  0  0  0  0
  129.6846  133.6057  155.9833 C   0  0  0  0  0  0  0  0  0  0  0  0
  130.3026  132.7174  155.1055 C   0  0  0  0  0  0  0  0  0  0  0  0
  130.7898  131.5242  155.5436 C   0  0  0  0  0  0  0  0  0  0  0  0
  130.6734  131.1822  156.9013 C   0  0  0  0  0  0  0  0  0  0  0  0
  131.1648  129.9596  157.3906 C   0  0  0  0  0  0  0  0  0  0  0  0
  131.0348  129.6623  158.7122 C   0  0  0  0  0  0  0  0  0  0  0  0
  130.4201  130.5526  159.5911 C   0  0  0  0  0  0  0  0  0  0  0  0
  129.9329  131.7455  159.1534 C   0  0  0  0  0  0  0  0  0  0  0  0
  130.0488  132.0878  157.7952 C   0  0  0  0  0  0  0  0  0  0  0  0
  129.2396  136.4091  159.3020 C   0  0  0  0  0  0  0  0  0  0  0  0
  130.2917  137.3661  159.8668 C   0  0  0  0  0  0  0  0  0  0  0  0
  126.3208  134.5803  162.5483 C   0  0  0  0  0  0  0  0  0  0  0  0
  124.0336  135.6462  161.8733 H   0  0  0  0  0  0  0  0  0  0  0  0
  123.5148  134.4374  160.8280 H   0  0  0  0  0  0  0  0  0  0  0  0
  124.8369  132.4583  160.3809 H   0  0  0  0  0  0  0  0  0  0  0  0
  128.5173  132.0333  162.2482 H   0  0  0  0  0  0  0  0  0  0  0  0
  129.2741  133.7661  163.7606 H   0  0  0  0  0  0  0  0  0  0  0  0
  127.4116  135.5296  164.9429 H   0  0  0  0  0  0  0  0  0  0  0  0
  128.1973  136.3712  163.5855 H   0  0  0  0  0  0  0  0  0  0  0  0
  129.6347  135.0384  165.9252 H   0  0  0  0  0  0  0  0  0  0  0  0
  129.4039  136.7903  165.7108 H   0  0  0  0  0  0  0  0  0  0  0  0
  131.3246  134.9954  164.1313 H   0  0  0  0  0  0  0  0  0  0  0  0
  130.5872  137.9372  164.0134 H   0  0  0  0  0  0  0  0  0  0  0  0
  132.8136  136.0959  162.8664 H   0  0  0  0  0  0  0  0  0  0  0  0
  133.1124  137.7669  163.4018 H   0  0  0  0  0  0  0  0  0  0  0  0
  131.5763  138.6043  161.6445 H   0  0  0  0  0  0  0  0  0  0  0  0
  132.8985  137.6475  160.9342 H   0  0  0  0  0  0  0  0  0  0  0  0
  132.3893  135.7207  159.6893 H   0  0  0  0  0  0  0  0  0  0  0  0
  132.1843  134.9805  161.2955 H   0  0  0  0  0  0  0  0  0  0  0  0
  129.8947  134.2685  160.6826 H   0  0  0  0  0  0  0  0  0  0  0  0
  131.0849  133.6234  159.5270 H   0  0  0  0  0  0  0  0  0  0  0  0
  128.4060  133.7417  159.0497 H   0  0  0  0  0  0  0  0  0  0  0  0
  128.1458  134.8626  157.6917 H   0  0  0  0  0  0  0  0  0  0  0  0
  129.3029  134.5441  155.6092 H   0  0  0  0  0  0  0  0  0  0  0  0
  130.3931  132.9778  154.0612 H   0  0  0  0  0  0  0  0  0  0  0  0
  131.2636  130.8442  154.8512 H   0  0  0  0  0  0  0  0  0  0  0  0
  131.6427  129.2598  156.7212 H   0  0  0  0  0  0  0  0  0  0  0  0
  131.4131  128.7222  159.0856 H   0  0  0  0  0  0  0  0  0  0  0  0
  130.3295  130.2918  160.6352 H   0  0  0  0  0  0  0  0  0  0  0  0
  129.4597  132.4256  159.8461 H   0  0  0  0  0  0  0  0  0  0  0  0
  128.5349  136.1387  160.0884 H   0  0  0  0  0  0  0  0  0  0  0  0
  128.7049  136.8969  158.4870 H   0  0  0  0  0  0  0  0  0  0  0  0
  129.8007  138.2589  160.2541 H   0  0  0  0  0  0  0  0  0  0  0  0
  130.9886  137.6478  159.0774 H   0  0  0  0  0  0  0  0  0  0  0  0
  126.1771  135.5274  163.0472 H   0  0  0  0  0  0  0  0  0  0  0  0
  1  2  1  0
  1 33  1  0
  1 34  1  0
  2 32  2  0
  2  3  1  0
  3  4  2  0
  3 35  1  0
  4  5  1  0
  5  6  2  0
  5 36  1  0
  6  7  1  0
  6 32  1  0
  7  8  1  0
  7 37  1  0
  8  9  1  0
  8 38  1  0
  8 39  1  0
  9 10  1  0
  9 40  1  0
  9 41  1  0
 10 11  2  0
 10 42  1  0
 11 12  1  0
 11 43  1  0
 12 13  1  0
 12 44  1  0
 12 45  1  0
 13 14  1  0
 13 46  1  0
 13 47  1  0
 14 31  1  0
 14 15  1  0
 15 16  1  0
 15 48  1  0
 15 49  1  0
 16 17  1  0
 16 50  1  0
 16 51  1  0
 17 18  1  0
 17 19  1  0
 17 30  1  0
 19 20  1  0
 19 52  1  0
 19 53  1  0
 20 29  1  0
 20 21  2  0
 21 22  1  0
 21 54  1  0
 22 23  2  0
 22 55  1  0
 23 24  1  0
 23 56  1  0
 24 29  2  0
 24 25  1  0
 25 26  2  0
 25 57  1  0
 26 27  1  0
 26 58  1  0
 27 28  2  0
 27 59  1  0
 28 29  1  0
 28 60  1  0
 30 31  1  0
 30 61  1  0
 30 62  1  0
 31 63  1  0
 31 64  1  0
 32 65  1  0
M  CHG  1  17   1
M  END
>  <DOCK_score>  (1) 
-47.272945

>  <SMILES>  (1) 
Nc1cncc(NCCC=CCCN2CC[NH+](Cc3cccc4ccccc34)CC2)c1

$$$$
