Nc1ccc(-c2c[nH]c(N[C@@H](C=Cc3ccccc3)c3ccc(Br)cc3)[nH+]2)cc1
     RDKit          3D

 51 54  0  0  1  0  0  0  0  0999 V2000
  130.6903  130.0502  152.1721 N   0  0  0  0  0  0  0  0  0  0  0  0
  130.6651  130.6824  153.4176 C   0  0  0  0  0  0  0  0  0  0  0  0
  130.2960  132.0190  153.5100 C   0  0  0  0  0  0  0  0  0  0  0  0
  130.2704  132.6449  154.7384 C   0  0  0  0  0  0  0  0  0  0  0  0
  130.6151  131.9360  155.8881 C   0  0  0  0  0  0  0  0  0  0  0  0
  130.5883  132.6072  157.2108 C   0  0  0  0  0  0  0  0  0  0  0  0
  130.3268  132.0136  158.4015 C   0  0  0  0  0  0  0  0  0  0  0  0
  130.4059  132.9944  159.3618 N   0  0  0  0  0  0  0  0  0  0  0  0
  130.2682  132.8779  160.3148 H   0  0  0  0  0  0  0  0  0  0  0  0
  130.7137  134.1585  158.7281 C   0  0  0  0  0  0  0  0  0  0  0  0
  130.8844  135.3888  159.3397 N   0  0  0  0  0  0  0  0  0  0  0  0
  130.7339  135.5121  160.7917 C   0  0  1  0  0  0  0  0  0  0  0  0
  131.4597  134.8682  161.2882 H   0  0  0  0  0  0  0  0  0  0  0  0
  130.9689  136.9433  161.2013 C   0  0  0  0  0  0  0  0  0  0  0  0
  129.9541  137.7950  161.2467 C   0  0  0  0  0  0  0  0  0  0  0  0
  130.1847  139.1987  161.6486 C   0  0  0  0  0  0  0  0  0  0  0  0
  131.4663  139.7461  161.5780 C   0  0  0  0  0  0  0  0  0  0  0  0
  131.6740  141.0583  161.9499 C   0  0  0  0  0  0  0  0  0  0  0  0
  130.6168  141.8281  162.4017 C   0  0  0  0  0  0  0  0  0  0  0  0
  129.3447  141.2897  162.4789 C   0  0  0  0  0  0  0  0  0  0  0  0
  129.1229  139.9801  162.1054 C   0  0  0  0  0  0  0  0  0  0  0  0
  129.3404  135.0982  161.1892 C   0  0  0  0  0  0  0  0  0  0  0  0
  129.1155  134.5317  162.4300 C   0  0  0  0  0  0  0  0  0  0  0  0
  127.8368  134.1564  162.7970 C   0  0  0  0  0  0  0  0  0  0  0  0
  126.7839  134.3380  161.9184 C   0  0  0  0  0  0  0  0  0  0  0  0
  125.0357  133.8173  162.4168 Br  0  0  0  0  0  0  0  0  0  0  0  0
  127.0105  134.8999  160.6749 C   0  0  0  0  0  0  0  0  0  0  0  0
  128.2886  135.2798  160.3109 C   0  0  0  0  0  0  0  0  0  0  0  0
  130.8162  133.9243  157.4424 N   0  0  0  0  0  0  0  0  0  0  0  0
  131.0242  134.5866  156.7650 H   0  0  0  0  0  0  0  0  0  0  0  0
  130.9907  130.5969  155.7924 C   0  0  0  0  0  0  0  0  0  0  0  0
  131.0089  129.9733  154.5627 C   0  0  0  0  0  0  0  0  0  0  0  0
  130.4506  130.5441  151.3726 H   0  0  0  0  0  0  0  0  0  0  0  0
  130.9481  129.1173  152.1068 H   0  0  0  0  0  0  0  0  0  0  0  0
  130.0293  132.5679  152.6190 H   0  0  0  0  0  0  0  0  0  0  0  0
  129.9831  133.6836  154.8098 H   0  0  0  0  0  0  0  0  0  0  0  0
  130.0995  130.9705  158.5643 H   0  0  0  0  0  0  0  0  0  0  0  0
  131.1038  136.1690  158.8068 H   0  0  0  0  0  0  0  0  0  0  0  0
  131.9642  137.2749  161.4581 H   0  0  0  0  0  0  0  0  0  0  0  0
  128.9589  137.4633  160.9899 H   0  0  0  0  0  0  0  0  0  0  0  0
  132.2931  139.1450  161.2298 H   0  0  0  0  0  0  0  0  0  0  0  0
  132.6647  141.4845  161.8924 H   0  0  0  0  0  0  0  0  0  0  0  0
  130.7854  142.8535  162.6955 H   0  0  0  0  0  0  0  0  0  0  0  0
  128.5237  141.8956  162.8327 H   0  0  0  0  0  0  0  0  0  0  0  0
  128.1295  139.5607  162.1668 H   0  0  0  0  0  0  0  0  0  0  0  0
  129.9382  134.3863  163.1144 H   0  0  0  0  0  0  0  0  0  0  0  0
  127.6605  133.7179  163.7681 H   0  0  0  0  0  0  0  0  0  0  0  0
  126.1887  135.0415  159.9885 H   0  0  0  0  0  0  0  0  0  0  0  0
  128.4654  135.7190  159.3402 H   0  0  0  0  0  0  0  0  0  0  0  0
  131.2624  130.0470  156.6813 H   0  0  0  0  0  0  0  0  0  0  0  0
  131.2954  128.9346  154.4885 H   0  0  0  0  0  0  0  0  0  0  0  0
  1  2  1  0
  1 33  1  0
  1 34  1  0
  2 32  2  0
  2  3  1  0
  3  4  2  0
  3 35  1  0
  4  5  1  0
  4 36  1  0
  5  6  1  0
  5 31  2  0
  6 29  1  0
  6  7  2  0
  7  8  1  0
  7 37  1  0
  8  9  1  0
  8 10  1  0
 10 11  1  0
 10 29  2  0
 11 12  1  0
 11 38  1  0
 12 13  1  1
 12 14  1  0
 12 22  1  0
 14 15  2  0
 14 39  1  0
 15 16  1  0
 15 40  1  0
 16 21  1  0
 16 17  2  0
 17 18  1  0
 17 41  1  0
 18 19  2  0
 18 42  1  0
 19 20  1  0
 19 43  1  0
 20 21  2  0
 20 44  1  0
 21 45  1  0
 22 28  1  0
 22 23  2  0
 23 24  1  0
 23 46  1  0
 24 25  2  0
 24 47  1  0
 25 26  1  0
 25 27  1  0
 27 28  2  0
 27 48  1  0
 28 49  1  0
 29 30  1  0
 31 32  1  0
 31 50  1  0
 32 51  1  0
M  CHG  1  29   1
M  END
>  <DOCK_score>  (1) 
-56.844078

>  <SMILES>  (1) 
Nc1ccc(-c2c[nH]c(N[C@@H](C=Cc3ccccc3)c3ccc(Br)cc3)[nH+]2)cc1

$$$$
