O=C1CC[C@H](NC(NC2CCCCC2)=[NH+][C@H]2COc3ccccc3C2)CN1
     RDKit          3D

 58 61  0  0  1  0  0  0  0  0999 V2000
  123.7525  133.7395  161.6700 O   0  0  0  0  0  0  0  0  0  0  0  0
  124.9064  134.0193  161.4228 C   0  0  0  0  0  0  0  0  0  0  0  0
  125.8483  132.9040  161.0699 C   0  0  0  0  0  0  0  0  0  0  0  0
  127.2960  133.3765  161.2240 C   0  0  0  0  0  0  0  0  0  0  0  0
  127.4464  134.7210  160.5020 C   0  0  2  0  0  0  0  0  0  0  0  0
  127.0782  134.6305  159.4800 H   0  0  0  0  0  0  0  0  0  0  0  0
  128.8577  135.1135  160.4830 N   0  0  0  0  0  0  0  0  0  0  0  0
  129.6650  134.7261  159.4397 C   0  0  0  0  0  0  0  0  0  0  0  0
  129.1477  133.9702  158.4144 N   0  0  0  0  0  0  0  0  0  0  0  0
  130.0073  133.0287  157.6925 C   0  0  0  0  0  0  0  0  0  0  0  0
  129.1909  132.3207  156.6093 C   0  0  0  0  0  0  0  0  0  0  0  0
  130.0885  131.3375  155.8553 C   0  0  0  0  0  0  0  0  0  0  0  0
  130.6449  130.3012  156.8339 C   0  0  0  0  0  0  0  0  0  0  0  0
  131.4612  131.0094  157.9171 C   0  0  0  0  0  0  0  0  0  0  0  0
  130.5636  131.9926  158.6710 C   0  0  0  0  0  0  0  0  0  0  0  0
  130.9206  135.0753  159.4228 N   0  0  0  0  0  0  0  0  0  0  0  0
  131.3762  135.2068  158.5765 H   0  0  0  0  0  0  0  0  0  0  0  0
  131.6441  135.2691  160.6820 C   0  0  1  0  0  0  0  0  0  0  0  0
  131.2280  134.6164  161.4494 H   0  0  0  0  0  0  0  0  0  0  0  0
  133.1302  134.9469  160.4793 C   0  0  0  0  0  0  0  0  0  0  0  0
  133.7884  135.0444  161.7431 O   0  0  0  0  0  0  0  0  0  0  0  0
  133.5688  136.1581  162.4892 C   0  0  0  0  0  0  0  0  0  0  0  0
  134.4494  136.4458  163.5275 C   0  0  0  0  0  0  0  0  0  0  0  0
  134.2571  137.5652  164.3109 C   0  0  0  0  0  0  0  0  0  0  0  0
  133.1854  138.4042  164.0652 C   0  0  0  0  0  0  0  0  0  0  0  0
  132.3098  138.1219  163.0352 C   0  0  0  0  0  0  0  0  0  0  0  0
  132.4989  137.0007  162.2443 C   0  0  0  0  0  0  0  0  0  0  0  0
  131.5249  136.7291  161.1260 C   0  0  0  0  0  0  0  0  0  0  0  0
  126.6310  135.7741  161.2532 C   0  0  0  0  0  0  0  0  0  0  0  0
  125.2712  135.3006  161.4794 N   0  0  0  0  0  0  0  0  0  0  0  0
  125.6754  132.5969  160.0385 H   0  0  0  0  0  0  0  0  0  0  0  0
  125.6713  132.0572  161.7330 H   0  0  0  0  0  0  0  0  0  0  0  0
  127.9703  132.6441  160.7801 H   0  0  0  0  0  0  0  0  0  0  0  0
  127.5320  133.4993  162.2810 H   0  0  0  0  0  0  0  0  0  0  0  0
  129.2226  135.6469  161.2063 H   0  0  0  0  0  0  0  0  0  0  0  0
  128.2137  134.0604  158.1689 H   0  0  0  0  0  0  0  0  0  0  0  0
  130.8319  133.5710  157.2297 H   0  0  0  0  0  0  0  0  0  0  0  0
  128.3663  131.7784  157.0720 H   0  0  0  0  0  0  0  0  0  0  0  0
  128.7946  133.0589  155.9121 H   0  0  0  0  0  0  0  0  0  0  0  0
  130.9131  131.8796  155.3926 H   0  0  0  0  0  0  0  0  0  0  0  0
  129.5071  130.8329  155.0836 H   0  0  0  0  0  0  0  0  0  0  0  0
  131.2843  129.6008  156.2968 H   0  0  0  0  0  0  0  0  0  0  0  0
  129.8203  129.7591  157.2966 H   0  0  0  0  0  0  0  0  0  0  0  0
  132.2858  131.5516  157.4543 H   0  0  0  0  0  0  0  0  0  0  0  0
  131.8576  130.2712  158.6143 H   0  0  0  0  0  0  0  0  0  0  0  0
  131.1452  132.4971  159.4427 H   0  0  0  0  0  0  0  0  0  0  0  0
  129.7389  131.4504  159.1338 H   0  0  0  0  0  0  0  0  0  0  0  0
  133.5685  135.6603  159.7812 H   0  0  0  0  0  0  0  0  0  0  0  0
  133.2365  133.9357  160.0870 H   0  0  0  0  0  0  0  0  0  0  0  0
  135.2858  135.7907  163.7211 H   0  0  0  0  0  0  0  0  0  0  0  0
  134.9403  137.7837  165.1181 H   0  0  0  0  0  0  0  0  0  0  0  0
  133.0336  139.2801  164.6784 H   0  0  0  0  0  0  0  0  0  0  0  0
  131.4736  138.7786  162.8455 H   0  0  0  0  0  0  0  0  0  0  0  0
  131.7481  137.3838  160.2836 H   0  0  0  0  0  0  0  0  0  0  0  0
  130.5102  136.9203  161.4751 H   0  0  0  0  0  0  0  0  0  0  0  0
  127.1052  135.9798  162.2128 H   0  0  0  0  0  0  0  0  0  0  0  0
  126.6000  136.6920  160.6661 H   0  0  0  0  0  0  0  0  0  0  0  0
  124.5887  135.9590  161.6838 H   0  0  0  0  0  0  0  0  0  0  0  0
  1  2  2  0
  2 30  1  0
  2  3  1  0
  3  4  1  0
  3 31  1  0
  3 32  1  0
  4  5  1  0
  4 33  1  0
  4 34  1  0
  5  6  1  6
  5  7  1  0
  5 29  1  0
  7 35  1  0
  8  7  1  0
  8  9  1  0
  8 16  2  0
  9 10  1  0
  9 36  1  0
 10 15  1  0
 10 11  1  0
 10 37  1  0
 11 12  1  0
 11 38  1  0
 11 39  1  0
 12 13  1  0
 12 40  1  0
 12 41  1  0
 13 14  1  0
 13 42  1  0
 13 43  1  0
 14 15  1  0
 14 44  1  0
 14 45  1  0
 15 46  1  0
 15 47  1  0
 16 17  1  0
 16 18  1  0
 18 19  1  1
 18 28  1  0
 18 20  1  0
 20 21  1  0
 20 48  1  0
 20 49  1  0
 21 22  1  0
 22 27  2  0
 22 23  1  0
 23 24  2  0
 23 50  1  0
 24 25  1  0
 24 51  1  0
 25 26  2  0
 25 52  1  0
 26 27  1  0
 26 53  1  0
 27 28  1  0
 28 54  1  0
 28 55  1  0
 29 30  1  0
 29 56  1  0
 29 57  1  0
 30 58  1  0
M  CHG  1  16   1
M  END
>  <DOCK_score>  (1) 
-45.391354

>  <SMILES>  (1) 
O=C1CC[C@H](NC(NC2CCCCC2)=[NH+][C@H]2COc3ccccc3C2)CN1

$$$$
