CC1=CCC=C([C@@H](Nc2[nH]cc(-c3ccc(N)cc3)[nH+]2)c2ccc(C)cc2)C1
     RDKit          3D

 55 58  0  0  1  0  0  0  0  0999 V2000
  130.3286  132.2729  153.9953 C   0  0  0  0  0  0  0  0  0  0  0  0
  130.5510  131.5894  155.3199 C   0  0  0  0  0  0  0  0  0  0  0  0
  131.1332  130.4291  155.3301 C   0  0  0  0  0  0  0  0  0  0  0  0
  131.4073  129.6682  156.5923 C   0  0  0  0  0  0  0  0  0  0  0  0
  131.3752  130.5721  157.7878 C   0  0  0  0  0  0  0  0  0  0  0  0
  130.7934  131.7326  157.7774 C   0  0  0  0  0  0  0  0  0  0  0  0
  130.8198  132.5636  159.0344 C   0  0  1  0  0  0  0  0  0  0  0  0
  131.3604  132.0264  159.8138 H   0  0  0  0  0  0  0  0  0  0  0  0
  131.4911  133.8373  158.7637 N   0  0  0  0  0  0  0  0  0  0  0  0
  132.1852  134.4821  159.7733 C   0  0  0  0  0  0  0  0  0  0  0  0
  132.3224  134.0354  161.0512 N   0  0  0  0  0  0  0  0  0  0  0  0
  131.9543  133.2155  161.4160 H   0  0  0  0  0  0  0  0  0  0  0  0
  133.0786  134.9613  161.7301 C   0  0  0  0  0  0  0  0  0  0  0  0
  133.3808  135.9454  160.8475 C   0  0  0  0  0  0  0  0  0  0  0  0
  134.1846  137.1589  161.1345 C   0  0  0  0  0  0  0  0  0  0  0  0
  133.9404  138.3394  160.4345 C   0  0  0  0  0  0  0  0  0  0  0  0
  134.6848  139.4678  160.7071 C   0  0  0  0  0  0  0  0  0  0  0  0
  135.6856  139.4253  161.6707 C   0  0  0  0  0  0  0  0  0  0  0  0
  136.4420  140.5682  161.9413 N   0  0  0  0  0  0  0  0  0  0  0  0
  135.9344  138.2478  162.3656 C   0  0  0  0  0  0  0  0  0  0  0  0
  135.1887  137.1187  162.1005 C   0  0  0  0  0  0  0  0  0  0  0  0
  132.8234  135.6210  159.6541 N   0  0  0  0  0  0  0  0  0  0  0  0
  132.8853  136.1485  158.8425 H   0  0  0  0  0  0  0  0  0  0  0  0
  129.4085  132.8269  159.4922 C   0  0  0  0  0  0  0  0  0  0  0  0
  128.4123  131.9061  159.2263 C   0  0  0  0  0  0  0  0  0  0  0  0
  127.1188  132.1452  159.6509 C   0  0  0  0  0  0  0  0  0  0  0  0
  126.8189  133.3103  160.3316 C   0  0  0  0  0  0  0  0  0  0  0  0
  125.4075  133.5738  160.7892 C   0  0  0  0  0  0  0  0  0  0  0  0
  127.8140  134.2335  160.5930 C   0  0  0  0  0  0  0  0  0  0  0  0
  129.1088  133.9919  160.1734 C   0  0  0  0  0  0  0  0  0  0  0  0
  130.0959  132.2816  156.5693 C   0  0  0  0  0  0  0  0  0  0  0  0
  130.7172  131.6456  153.1930 H   0  0  0  0  0  0  0  0  0  0  0  0
  129.2614  132.4354  153.8449 H   0  0  0  0  0  0  0  0  0  0  0  0
  130.8466  133.2320  153.9897 H   0  0  0  0  0  0  0  0  0  0  0  0
  131.4334  129.9933  154.3885 H   0  0  0  0  0  0  0  0  0  0  0  0
  130.6525  128.8907  156.7119 H   0  0  0  0  0  0  0  0  0  0  0  0
  132.3903  129.2026  156.5225 H   0  0  0  0  0  0  0  0  0  0  0  0
  131.8573  130.2439  158.6967 H   0  0  0  0  0  0  0  0  0  0  0  0
  131.4493  134.2288  157.8772 H   0  0  0  0  0  0  0  0  0  0  0  0
  133.3752  134.9140  162.7675 H   0  0  0  0  0  0  0  0  0  0  0  0
  133.1661  138.3715  159.6825 H   0  0  0  0  0  0  0  0  0  0  0  0
  134.4928  140.3840  160.1684 H   0  0  0  0  0  0  0  0  0  0  0  0
  137.1405  140.5394  162.6138 H   0  0  0  0  0  0  0  0  0  0  0  0
  136.2688  141.3904  161.4566 H   0  0  0  0  0  0  0  0  0  0  0  0
  136.7129  138.2171  163.1137 H   0  0  0  0  0  0  0  0  0  0  0  0
  135.3823  136.2040  162.6411 H   0  0  0  0  0  0  0  0  0  0  0  0
  128.6456  130.9980  158.6902 H   0  0  0  0  0  0  0  0  0  0  0  0
  126.3414  131.4236  159.4470 H   0  0  0  0  0  0  0  0  0  0  0  0
  124.8657  134.1069  160.0078 H   0  0  0  0  0  0  0  0  0  0  0  0
  124.9094  132.6264  160.9949 H   0  0  0  0  0  0  0  0  0  0  0  0
  125.4263  134.1788  161.6957 H   0  0  0  0  0  0  0  0  0  0  0  0
  127.5799  135.1440  161.1249 H   0  0  0  0  0  0  0  0  0  0  0  0
  129.8861  134.7133  160.3774 H   0  0  0  0  0  0  0  0  0  0  0  0
  130.3110  133.3470  156.4862 H   0  0  0  0  0  0  0  0  0  0  0  0
  129.0208  132.1430  156.6832 H   0  0  0  0  0  0  0  0  0  0  0  0
  1  2  1  0
  1 32  1  0
  1 33  1  0
  1 34  1  0
  2 31  1  0
  2  3  2  0
  3  4  1  0
  3 35  1  0
  4  5  1  0
  4 36  1  0
  4 37  1  0
  5  6  2  0
  5 38  1  0
  6  7  1  0
  6 31  1  0
  7  8  1  1
  7  9  1  0
  7 24  1  0
  9 39  1  0
 10  9  1  0
 10 22  2  0
 10 11  1  0
 11 12  1  0
 11 13  1  0
 13 14  2  0
 13 40  1  0
 14 15  1  0
 14 22  1  0
 15 21  1  0
 15 16  2  0
 16 17  1  0
 16 41  1  0
 17 18  2  0
 17 42  1  0
 18 19  1  0
 18 20  1  0
 19 43  1  0
 19 44  1  0
 20 21  2  0
 20 45  1  0
 21 46  1  0
 22 23  1  0
 24 30  1  0
 24 25  2  0
 25 26  1  0
 25 47  1  0
 26 27  2  0
 26 48  1  0
 27 28  1  0
 27 29  1  0
 28 49  1  0
 28 50  1  0
 28 51  1  0
 29 30  2  0
 29 52  1  0
 30 53  1  0
 31 54  1  0
 31 55  1  0
M  CHG  1  22   1
M  END
>  <DOCK_score>  (1) 
-56.087746

>  <SMILES>  (1) 
CC1=CCC=C([C@@H](Nc2[nH]cc(-c3ccc(N)cc3)[nH+]2)c2ccc(C)cc2)C1

$$$$
