Cc1ccc(-c2ccc(CNc3[nH]cc(-c4ccc(Br)cc4)[nH+]3)cc2F)cc1
     RDKit          3D

 48 51  0  0  1  0  0  0  0  0999 V2000
  139.1258  136.5180  165.8245 C   0  0  0  0  0  0  0  0  0  0  0  0
  137.8566  136.3232  165.0357 C   0  0  0  0  0  0  0  0  0  0  0  0
  137.0321  137.4037  164.7790 C   0  0  0  0  0  0  0  0  0  0  0  0
  135.8686  137.2311  164.0570 C   0  0  0  0  0  0  0  0  0  0  0  0
  135.5253  135.9653  163.5860 C   0  0  0  0  0  0  0  0  0  0  0  0
  134.2755  135.7735  162.8097 C   0  0  0  0  0  0  0  0  0  0  0  0
  133.2887  134.9073  163.2757 C   0  0  0  0  0  0  0  0  0  0  0  0
  132.1283  134.7321  162.5497 C   0  0  0  0  0  0  0  0  0  0  0  0
  131.9423  135.4143  161.3604 C   0  0  0  0  0  0  0  0  0  0  0  0
  130.6727  135.2175  160.5728 C   0  0  0  0  0  0  0  0  0  0  0  0
  130.9992  135.0458  159.1550 N   0  0  0  0  0  0  0  0  0  0  0  0
  130.6422  133.8802  158.4988 C   0  0  0  0  0  0  0  0  0  0  0  0
  129.9862  132.8259  159.0558 N   0  0  0  0  0  0  0  0  0  0  0  0
  129.6866  132.7568  159.9758 H   0  0  0  0  0  0  0  0  0  0  0  0
  129.8316  131.8754  158.0761 C   0  0  0  0  0  0  0  0  0  0  0  0
  130.3921  132.3779  156.9482 C   0  0  0  0  0  0  0  0  0  0  0  0
  130.4610  131.6998  155.6308 C   0  0  0  0  0  0  0  0  0  0  0  0
  129.8601  132.2785  154.5142 C   0  0  0  0  0  0  0  0  0  0  0  0
  129.9309  131.6457  153.2899 C   0  0  0  0  0  0  0  0  0  0  0  0
  130.5881  130.4342  153.1714 C   0  0  0  0  0  0  0  0  0  0  0  0
  130.6755  129.5686  151.4923 Br  0  0  0  0  0  0  0  0  0  0  0  0
  131.1826  129.8521  154.2785 C   0  0  0  0  0  0  0  0  0  0  0  0
  131.1218  130.4790  155.5063 C   0  0  0  0  0  0  0  0  0  0  0  0
  130.8781  133.6111  157.2379 N   0  0  0  0  0  0  0  0  0  0  0  0
  131.3315  134.1981  156.6128 H   0  0  0  0  0  0  0  0  0  0  0  0
  132.9192  136.2716  160.8887 C   0  0  0  0  0  0  0  0  0  0  0  0
  134.0839  136.4595  161.6099 C   0  0  0  0  0  0  0  0  0  0  0  0
  135.0361  137.3011  161.1514 F   0  0  0  0  0  0  0  0  0  0  0  0
  136.3572  134.8795  163.8517 C   0  0  0  0  0  0  0  0  0  0  0  0
  137.5208  135.0645  164.5705 C   0  0  0  0  0  0  0  0  0  0  0  0
  138.9187  136.3804  166.8858 H   0  0  0  0  0  0  0  0  0  0  0  0
  139.8696  135.7894  165.5020 H   0  0  0  0  0  0  0  0  0  0  0  0
  139.5071  137.5252  165.6564 H   0  0  0  0  0  0  0  0  0  0  0  0
  137.2991  138.3842  165.1446 H   0  0  0  0  0  0  0  0  0  0  0  0
  135.2255  138.0755  163.8572 H   0  0  0  0  0  0  0  0  0  0  0  0
  133.4318  134.3734  164.2036 H   0  0  0  0  0  0  0  0  0  0  0  0
  131.3634  134.0605  162.9104 H   0  0  0  0  0  0  0  0  0  0  0  0
  130.0306  136.0898  160.6948 H   0  0  0  0  0  0  0  0  0  0  0  0
  130.1536  134.3306  160.9362 H   0  0  0  0  0  0  0  0  0  0  0  0
  131.4654  135.7487  158.6761 H   0  0  0  0  0  0  0  0  0  0  0  0
  129.3552  130.9121  158.1836 H   0  0  0  0  0  0  0  0  0  0  0  0
  129.3430  133.2223  154.6063 H   0  0  0  0  0  0  0  0  0  0  0  0
  129.4688  132.0951  152.4233 H   0  0  0  0  0  0  0  0  0  0  0  0
  131.6943  128.9061  154.1810 H   0  0  0  0  0  0  0  0  0  0  0  0
  131.5857  130.0246  156.3693 H   0  0  0  0  0  0  0  0  0  0  0  0
  132.7705  136.7982  159.9576 H   0  0  0  0  0  0  0  0  0  0  0  0
  136.0938  133.8955  163.4928 H   0  0  0  0  0  0  0  0  0  0  0  0
  138.1681  134.2243  164.7738 H   0  0  0  0  0  0  0  0  0  0  0  0
  1  2  1  0
  1 31  1  0
  1 32  1  0
  1 33  1  0
  2 30  2  0
  2  3  1  0
  3  4  2  0
  3 34  1  0
  4  5  1  0
  4 35  1  0
  5  6  1  0
  5 29  2  0
  6 27  1  0
  6  7  2  0
  7  8  1  0
  7 36  1  0
  8  9  2  0
  8 37  1  0
  9 10  1  0
  9 26  1  0
 10 11  1  0
 10 38  1  0
 10 39  1  0
 11 40  1  0
 12 11  1  0
 12 24  2  0
 12 13  1  0
 13 14  1  0
 13 15  1  0
 15 16  2  0
 15 41  1  0
 16 17  1  0
 16 24  1  0
 17 23  1  0
 17 18  2  0
 18 19  1  0
 18 42  1  0
 19 20  2  0
 19 43  1  0
 20 21  1  0
 20 22  1  0
 22 23  2  0
 22 44  1  0
 23 45  1  0
 24 25  1  0
 26 27  2  0
 26 46  1  0
 27 28  1  0
 29 30  1  0
 29 47  1  0
 30 48  1  0
M  CHG  1  24   1
M  END
>  <DOCK_score>  (1) 
-59.448418

>  <SMILES>  (1) 
Cc1ccc(-c2ccc(CNc3[nH]cc(-c4ccc(Br)cc4)[nH+]3)cc2F)cc1

$$$$
