Nc1ccc(-c2c[nH]c(N[C@H](C=CCc3ccccc3)Cc3ccc(Cl)cc3)[nH+]2)cc1
     RDKit          3D

 57 60  0  0  1  0  0  0  0  0999 V2000
  130.9417  129.7835  152.4411 N   0  0  0  0  0  0  0  0  0  0  0  0
  130.7834  130.4625  153.6517 C   0  0  0  0  0  0  0  0  0  0  0  0
  130.0326  131.6311  153.6987 C   0  0  0  0  0  0  0  0  0  0  0  0
  129.8751  132.3031  154.8924 C   0  0  0  0  0  0  0  0  0  0  0  0
  130.4695  131.8094  156.0527 C   0  0  0  0  0  0  0  0  0  0  0  0
  130.3014  132.5305  157.3382 C   0  0  0  0  0  0  0  0  0  0  0  0
  129.7321  132.0329  158.4637 C   0  0  0  0  0  0  0  0  0  0  0  0
  129.7831  133.0288  159.4101 N   0  0  0  0  0  0  0  0  0  0  0  0
  129.4530  132.9738  160.3205 H   0  0  0  0  0  0  0  0  0  0  0  0
  130.3825  134.1058  158.8337 C   0  0  0  0  0  0  0  0  0  0  0  0
  130.6267  135.3199  159.4526 N   0  0  0  0  0  0  0  0  0  0  0  0
  130.2286  135.5241  160.8476 C   0  0  2  0  0  0  0  0  0  0  0  0
  130.7388  134.7984  161.4810 H   0  0  0  0  0  0  0  0  0  0  0  0
  128.7380  135.3432  160.9763 C   0  0  0  0  0  0  0  0  0  0  0  0
  127.9538  135.6302  159.9670 C   0  0  0  0  0  0  0  0  0  0  0  0
  126.4632  135.4493  160.0959 C   0  0  0  0  0  0  0  0  0  0  0  0
  126.1566  134.0046  160.3957 C   0  0  0  0  0  0  0  0  0  0  0  0
  125.9427  133.1142  159.3604 C   0  0  0  0  0  0  0  0  0  0  0  0
  125.6620  131.7888  159.6355 C   0  0  0  0  0  0  0  0  0  0  0  0
  125.5937  131.3543  160.9461 C   0  0  0  0  0  0  0  0  0  0  0  0
  125.8080  132.2449  161.9814 C   0  0  0  0  0  0  0  0  0  0  0  0
  126.0896  133.5701  161.7063 C   0  0  0  0  0  0  0  0  0  0  0  0
  130.6101  136.9399  161.2848 C   0  0  0  0  0  0  0  0  0  0  0  0
  132.0767  136.9812  161.6288 C   0  0  0  0  0  0  0  0  0  0  0  0
  132.4904  136.7250  162.9227 C   0  0  0  0  0  0  0  0  0  0  0  0
  133.8358  136.7572  163.2376 C   0  0  0  0  0  0  0  0  0  0  0  0
  134.7677  137.0573  162.2601 C   0  0  0  0  0  0  0  0  0  0  0  0
  136.4572  137.1055  162.6565 Cl  0  0  0  0  0  0  0  0  0  0  0  0
  134.3527  137.3192  160.9666 C   0  0  0  0  0  0  0  0  0  0  0  0
  133.0074  137.2810  160.6516 C   0  0  0  0  0  0  0  0  0  0  0  0
  130.6856  133.8062  157.5941 N   0  0  0  0  0  0  0  0  0  0  0  0
  131.1179  134.4009  156.9614 H   0  0  0  0  0  0  0  0  0  0  0  0
  131.2268  130.6401  156.0021 C   0  0  0  0  0  0  0  0  0  0  0  0
  131.3766  129.9681  154.8073 C   0  0  0  0  0  0  0  0  0  0  0  0
  130.5277  130.1276  151.6342 H   0  0  0  0  0  0  0  0  0  0  0  0
  131.4654  128.9678  152.4075 H   0  0  0  0  0  0  0  0  0  0  0  0
  129.5726  132.0134  152.7995 H   0  0  0  0  0  0  0  0  0  0  0  0
  129.2913  133.2110  154.9285 H   0  0  0  0  0  0  0  0  0  0  0  0
  129.3176  131.0439  158.5920 H   0  0  0  0  0  0  0  0  0  0  0  0
  131.0613  136.0354  158.9625 H   0  0  0  0  0  0  0  0  0  0  0  0
  128.3163  134.9768  161.9006 H   0  0  0  0  0  0  0  0  0  0  0  0
  128.3754  135.9966  159.0427 H   0  0  0  0  0  0  0  0  0  0  0  0
  125.9802  135.7370  159.1621 H   0  0  0  0  0  0  0  0  0  0  0  0
  126.0899  136.0757  160.9060 H   0  0  0  0  0  0  0  0  0  0  0  0
  125.9906  133.4546  158.3365 H   0  0  0  0  0  0  0  0  0  0  0  0
  125.4946  131.0931  158.8265 H   0  0  0  0  0  0  0  0  0  0  0  0
  125.3742  130.3191  161.1610 H   0  0  0  0  0  0  0  0  0  0  0  0
  125.7558  131.9053  163.0053 H   0  0  0  0  0  0  0  0  0  0  0  0
  126.2571  134.2657  162.5152 H   0  0  0  0  0  0  0  0  0  0  0  0
  130.4076  137.6379  160.4725 H   0  0  0  0  0  0  0  0  0  0  0  0
  130.0237  137.2203  162.1597 H   0  0  0  0  0  0  0  0  0  0  0  0
  131.7624  136.4950  163.6868 H   0  0  0  0  0  0  0  0  0  0  0  0
  134.1593  136.5526  164.2476 H   0  0  0  0  0  0  0  0  0  0  0  0
  135.0797  137.5538  160.2030 H   0  0  0  0  0  0  0  0  0  0  0  0
  132.6833  137.4859  159.6420 H   0  0  0  0  0  0  0  0  0  0  0  0
  131.6919  130.2583  156.8989 H   0  0  0  0  0  0  0  0  0  0  0  0
  131.9595  129.0598  154.7684 H   0  0  0  0  0  0  0  0  0  0  0  0
  1  2  1  0
  1 35  1  0
  1 36  1  0
  2 34  2  0
  2  3  1  0
  3  4  2  0
  3 37  1  0
  4  5  1  0
  4 38  1  0
  5  6  1  0
  5 33  2  0
  6 31  1  0
  6  7  2  0
  7  8  1  0
  7 39  1  0
  8  9  1  0
  8 10  1  0
 10 11  1  0
 10 31  2  0
 11 12  1  0
 11 40  1  0
 12 13  1  1
 12 14  1  0
 12 23  1  0
 14 15  2  0
 14 41  1  0
 15 16  1  0
 15 42  1  0
 16 17  1  0
 16 43  1  0
 16 44  1  0
 17 22  1  0
 17 18  2  0
 18 19  1  0
 18 45  1  0
 19 20  2  0
 19 46  1  0
 20 21  1  0
 20 47  1  0
 21 22  2  0
 21 48  1  0
 22 49  1  0
 23 24  1  0
 23 50  1  0
 23 51  1  0
 24 30  1  0
 24 25  2  0
 25 26  1  0
 25 52  1  0
 26 27  2  0
 26 53  1  0
 27 28  1  0
 27 29  1  0
 29 30  2  0
 29 54  1  0
 30 55  1  0
 31 32  1  0
 33 34  1  0
 33 56  1  0
 34 57  1  0
M  CHG  1  31   1
M  END
>  <DOCK_score>  (1) 
-63.366261

>  <SMILES>  (1) 
Nc1ccc(-c2c[nH]c(N[C@H](C=CCc3ccccc3)Cc3ccc(Cl)cc3)[nH+]2)cc1

$$$$
