CCc1ccc(-c2c[nH]c(NC(c3cccc4cc[nH]c34)[C@@H](F)Br)[nH+]2)cc1
     RDKit          3D

 48 51  0  0  1  0  0  0  0  0999 V2000
  130.0676  128.8393  151.5330 C   0  0  0  0  0  0  0  0  0  0  0  0
  131.3036  129.6693  151.8854 C   0  0  0  0  0  0  0  0  0  0  0  0
  131.0728  130.3842  153.1919 C   0  0  0  0  0  0  0  0  0  0  0  0
  131.4259  129.7762  154.3825 C   0  0  0  0  0  0  0  0  0  0  0  0
  131.2211  130.4286  155.5812 C   0  0  0  0  0  0  0  0  0  0  0  0
  130.6476  131.6989  155.5910 C   0  0  0  0  0  0  0  0  0  0  0  0
  130.4206  132.4034  156.8765 C   0  0  0  0  0  0  0  0  0  0  0  0
  129.6426  131.9685  157.8985 C   0  0  0  0  0  0  0  0  0  0  0  0
  129.7162  132.9185  158.8878 N   0  0  0  0  0  0  0  0  0  0  0  0
  129.2677  132.8889  159.7474 H   0  0  0  0  0  0  0  0  0  0  0  0
  130.5312  133.9113  158.4377 C   0  0  0  0  0  0  0  0  0  0  0  0
  130.8623  135.0608  159.1344 N   0  0  0  0  0  0  0  0  0  0  0  0
  130.3204  135.2854  160.4769 C   0  0  1  0  0  0  0  0  0  0  0  0
  131.4539  135.4048  161.4627 C   0  0  0  0  0  0  0  0  0  0  0  0
  131.5512  134.5202  162.5147 C   0  0  0  0  0  0  0  0  0  0  0  0
  132.5930  134.6165  163.4266 C   0  0  0  0  0  0  0  0  0  0  0  0
  133.5356  135.5982  163.3024 C   0  0  0  0  0  0  0  0  0  0  0  0
  133.4535  136.5084  162.2473 C   0  0  0  0  0  0  0  0  0  0  0  0
  134.2657  137.6511  161.8227 C   0  0  0  0  0  0  0  0  0  0  0  0
  133.6901  138.1533  160.7189 C   0  0  0  0  0  0  0  0  0  0  0  0
  132.5755  137.4259  160.4018 N   0  0  0  0  0  0  0  0  0  0  0  0
  131.9939  137.5986  159.6449 H   0  0  0  0  0  0  0  0  0  0  0  0
  132.4022  136.4117  161.3170 C   0  0  0  0  0  0  0  0  0  0  0  0
  129.4987  136.5761  160.4859 C   0  0  1  0  0  0  0  0  0  0  0  0
  129.3960  136.9343  161.5103 H   0  0  0  0  0  0  0  0  0  0  0  0
  130.1471  137.5470  159.7152 F   0  0  0  0  0  0  0  0  0  0  0  0
  127.7171  136.2239  159.7331 Br  0  0  0  0  0  0  0  0  0  0  0  0
  130.9501  133.5999  157.2355 N   0  0  0  0  0  0  0  0  0  0  0  0
  131.5440  134.1387  156.6897 H   0  0  0  0  0  0  0  0  0  0  0  0
  130.2886  132.3050  154.3884 C   0  0  0  0  0  0  0  0  0  0  0  0
  130.5025  131.6452  153.1953 C   0  0  0  0  0  0  0  0  0  0  0  0
  129.2032  129.4965  151.4393 H   0  0  0  0  0  0  0  0  0  0  0  0
  130.2347  128.3218  150.5884 H   0  0  0  0  0  0  0  0  0  0  0  0
  129.8843  128.1081  152.3204 H   0  0  0  0  0  0  0  0  0  0  0  0
  132.1681  129.0120  151.9792 H   0  0  0  0  0  0  0  0  0  0  0  0
  131.4869  130.4005  151.0982 H   0  0  0  0  0  0  0  0  0  0  0  0
  131.8668  128.7904  154.3738 H   0  0  0  0  0  0  0  0  0  0  0  0
  131.5015  129.9544  156.5101 H   0  0  0  0  0  0  0  0  0  0  0  0
  129.0756  131.0498  157.9295 H   0  0  0  0  0  0  0  0  0  0  0  0
  131.4531  135.7176  158.7337 H   0  0  0  0  0  0  0  0  0  0  0  0
  129.6826  134.4468  160.7563 H   0  0  0  0  0  0  0  0  0  0  0  0
  130.8114  133.7415  162.6284 H   0  0  0  0  0  0  0  0  0  0  0  0
  132.6571  133.9123  164.2430 H   0  0  0  0  0  0  0  0  0  0  0  0
  134.3414  135.6693  164.0180 H   0  0  0  0  0  0  0  0  0  0  0  0
  135.1587  138.0193  162.3058 H   0  0  0  0  0  0  0  0  0  0  0  0
  134.0530  139.0055  160.1634 H   0  0  0  0  0  0  0  0  0  0  0  0
  129.8436  133.2891  154.3902 H   0  0  0  0  0  0  0  0  0  0  0  0
  130.2248  132.1138  152.2629 H   0  0  0  0  0  0  0  0  0  0  0  0
  1  2  1  0
  1 32  1  0
  1 33  1  0
  1 34  1  0
  2  3  1  0
  2 35  1  0
  2 36  1  0
  3 31  2  0
  3  4  1  0
  4  5  2  0
  4 37  1  0
  5  6  1  0
  5 38  1  0
  6  7  1  0
  6 30  2  0
  7 28  1  0
  7  8  2  0
  8  9  1  0
  8 39  1  0
  9 10  1  0
  9 11  1  0
 11 12  1  0
 11 28  2  0
 12 13  1  0
 12 40  1  0
 13 14  1  0
 13 24  1  0
 13 41  1  1
 14 23  1  0
 14 15  2  0
 15 16  1  0
 15 42  1  0
 16 17  2  0
 16 43  1  0
 17 18  1  0
 17 44  1  0
 18 23  2  0
 18 19  1  0
 19 20  2  0
 19 45  1  0
 20 21  1  0
 20 46  1  0
 21 22  1  0
 21 23  1  0
 24 25  1  1
 24 26  1  0
 24 27  1  0
 28 29  1  0
 30 31  1  0
 30 47  1  0
 31 48  1  0
M  CHG  1  28   1
M  END
>  <DOCK_score>  (1) 
-60.059349

>  <SMILES>  (1) 
CCc1ccc(-c2c[nH]c(NC(c3cccc4cc[nH]c34)[C@@H](F)Br)[nH+]2)cc1

$$$$
