C=C/C=C/C=C(C[C@H](Nc1[nH]cc(-c2ccc(CC)cc2)[nH+]1)C(F)F)C(F)F
     RDKit          3D

 52 53  0  0  1  0  0  0  0  0999 V2000
  136.0281  139.9352  158.8767 C   0  0  0  0  0  0  0  0  0  0  0  0
  135.4066  138.9898  159.5813 C   0  0  0  0  0  0  0  0  0  0  0  0
  133.9454  138.8936  159.5490 C   0  0  0  0  0  0  0  0  0  0  0  0
  133.3164  137.9368  160.2621 C   0  0  0  0  0  0  0  0  0  0  0  0
  131.8551  137.8407  160.2298 C   0  0  0  0  0  0  0  0  0  0  0  0
  131.2337  136.8952  160.9343 C   0  0  0  0  0  0  0  0  0  0  0  0
  129.7427  136.7177  160.8065 C   0  0  0  0  0  0  0  0  0  0  0  0
  129.4384  135.3044  160.3057 C   0  0  2  0  0  0  0  0  0  0  0  0
  129.8318  134.5753  161.0143 H   0  0  0  0  0  0  0  0  0  0  0  0
  130.0680  135.1033  158.9983 N   0  0  0  0  0  0  0  0  0  0  0  0
  129.9305  133.8919  158.3426 C   0  0  0  0  0  0  0  0  0  0  0  0
  129.2437  132.8127  158.8071 N   0  0  0  0  0  0  0  0  0  0  0  0
  128.7664  132.7544  159.6495 H   0  0  0  0  0  0  0  0  0  0  0  0
  129.3506  131.8211  157.8624 C   0  0  0  0  0  0  0  0  0  0  0  0
  130.0991  132.3223  156.8488 C   0  0  0  0  0  0  0  0  0  0  0  0
  130.4783  131.6057  155.6067 C   0  0  0  0  0  0  0  0  0  0  0  0
  130.0910  132.1055  154.3646 C   0  0  0  0  0  0  0  0  0  0  0  0
  130.4471  131.4347  153.2123 C   0  0  0  0  0  0  0  0  0  0  0  0
  131.1870  130.2683  153.2884 C   0  0  0  0  0  0  0  0  0  0  0  0
  131.5727  129.5399  152.0268 C   0  0  0  0  0  0  0  0  0  0  0  0
  130.4814  128.5303  151.6665 C   0  0  0  0  0  0  0  0  0  0  0  0
  131.5695  129.7646  154.5187 C   0  0  0  0  0  0  0  0  0  0  0  0
  131.2239  130.4301  155.6773 C   0  0  0  0  0  0  0  0  0  0  0  0
  130.4445  133.5933  157.1744 N   0  0  0  0  0  0  0  0  0  0  0  0
  130.9839  134.1870  156.6290 H   0  0  0  0  0  0  0  0  0  0  0  0
  127.9247  135.1240  160.1760 C   0  0  0  0  0  0  0  0  0  0  0  0
  127.4862  135.7069  158.9821 F   0  0  0  0  0  0  0  0  0  0  0  0
  127.6166  133.7593  160.1693 F   0  0  0  0  0  0  0  0  0  0  0  0
  132.0220  136.0038  161.8590 C   0  0  0  0  0  0  0  0  0  0  0  0
  132.6587  136.7850  162.8293 F   0  0  0  0  0  0  0  0  0  0  0  0
  131.1574  135.0982  162.4831 F   0  0  0  0  0  0  0  0  0  0  0  0
  135.4542  140.6305  158.2818 H   0  0  0  0  0  0  0  0  0  0  0  0
  137.1055  140.0061  158.9005 H   0  0  0  0  0  0  0  0  0  0  0  0
  135.9805  138.2946  160.1761 H   0  0  0  0  0  0  0  0  0  0  0  0
  133.3716  139.5889  158.9540 H   0  0  0  0  0  0  0  0  0  0  0  0
  133.8903  137.2416  160.8569 H   0  0  0  0  0  0  0  0  0  0  0  0
  131.2814  138.5358  159.6349 H   0  0  0  0  0  0  0  0  0  0  0  0
  129.3494  137.4467  160.0979 H   0  0  0  0  0  0  0  0  0  0  0  0
  129.2742  136.8672  161.7792 H   0  0  0  0  0  0  0  0  0  0  0  0
  130.5814  135.8191  158.5919 H   0  0  0  0  0  0  0  0  0  0  0  0
  128.9207  130.8318  157.9165 H   0  0  0  0  0  0  0  0  0  0  0  0
  129.5130  133.0157  154.3041 H   0  0  0  0  0  0  0  0  0  0  0  0
  130.1471  131.8208  152.2493 H   0  0  0  0  0  0  0  0  0  0  0  0
  132.5155  129.0163  152.1830 H   0  0  0  0  0  0  0  0  0  0  0  0
  131.6863  130.2577  151.2136 H   0  0  0  0  0  0  0  0  0  0  0  0
  130.3677  127.8131  152.4794 H   0  0  0  0  0  0  0  0  0  0  0  0
  129.5386  129.0545  151.5099 H   0  0  0  0  0  0  0  0  0  0  0  0
  130.7604  128.0038  150.7537 H   0  0  0  0  0  0  0  0  0  0  0  0
  132.1431  128.8512  154.5724 H   0  0  0  0  0  0  0  0  0  0  0  0
  131.5270  130.0386  156.6370 H   0  0  0  0  0  0  0  0  0  0  0  0
  127.4280  135.6045  161.0188 H   0  0  0  0  0  0  0  0  0  0  0  0
  132.7698  135.4560  161.2856 H   0  0  0  0  0  0  0  0  0  0  0  0
  1  2  2  0
  1 32  1  0
  1 33  1  0
  2  3  1  0
  2 34  1  0
  3  4  2  0
  3 35  1  0
  4  5  1  0
  4 36  1  0
  5  6  2  0
  5 37  1  0
  6  7  1  0
  6 29  1  0
  7  8  1  0
  7 38  1  0
  7 39  1  0
  8  9  1  1
  8 10  1  0
  8 26  1  0
 10 40  1  0
 11 10  1  0
 11 24  2  0
 11 12  1  0
 12 13  1  0
 12 14  1  0
 14 15  2  0
 14 41  1  0
 15 16  1  0
 15 24  1  0
 16 23  1  0
 16 17  2  0
 17 18  1  0
 17 42  1  0
 18 19  2  0
 18 43  1  0
 19 20  1  0
 19 22  1  0
 20 21  1  0
 20 44  1  0
 20 45  1  0
 21 46  1  0
 21 47  1  0
 21 48  1  0
 22 23  2  0
 22 49  1  0
 23 50  1  0
 24 25  1  0
 26 27  1  0
 26 28  1  0
 26 51  1  0
 29 30  1  0
 29 31  1  0
 29 52  1  0
M  CHG  1  24   1
M  END
>  <DOCK_score>  (1) 
-57.002213

>  <SMILES>  (1) 
C=C/C=C/C=C(C[C@H](Nc1[nH]cc(-c2ccc(CC)cc2)[nH+]1)C(F)F)C(F)F

$$$$
