[NH3+][C@@H](C(=O)Nc1cccc(O)c1)c1cccc(Oc2ccc3c(c2)CCCC3)c1
     RDKit          3D

 54 57  0  0  1  0  0  0  0  0999 V2000
  130.6357  134.2117  157.4496 N   0  0  0  0  0  0  0  0  0  0  0  0
  130.0251  134.4310  156.6770 H   0  0  0  0  0  0  0  0  0  0  0  0
  131.5418  134.6261  157.2905 H   0  0  0  0  0  0  0  0  0  0  0  0
  130.7329  133.2103  157.5277 H   0  0  0  0  0  0  0  0  0  0  0  0
  130.0641  134.7466  158.6926 C   0  0  1  0  0  0  0  0  0  0  0  0
  129.9591  135.8282  158.6082 H   0  0  0  0  0  0  0  0  0  0  0  0
  128.7109  134.1276  158.9305 C   0  0  0  0  0  0  0  0  0  0  0  0
  128.2664  133.3202  158.1420 O   0  0  0  0  0  0  0  0  0  0  0  0
  127.9946  134.4711  160.0191 N   0  0  0  0  0  0  0  0  0  0  0  0
  126.7382  133.8963  160.2399 C   0  0  0  0  0  0  0  0  0  0  0  0
  126.4713  132.6113  159.7840 C   0  0  0  0  0  0  0  0  0  0  0  0
  125.2310  132.0440  160.0021 C   0  0  0  0  0  0  0  0  0  0  0  0
  124.2548  132.7498  160.6797 C   0  0  0  0  0  0  0  0  0  0  0  0
  124.5138  134.0358  161.1322 C   0  0  0  0  0  0  0  0  0  0  0  0
  123.5510  134.7309  161.7930 O   0  0  0  0  0  0  0  0  0  0  0  0
  125.7573  134.6088  160.9149 C   0  0  0  0  0  0  0  0  0  0  0  0
  130.9762  134.4190  159.8468 C   0  0  0  0  0  0  0  0  0  0  0  0
  130.8062  133.2393  160.5483 C   0  0  0  0  0  0  0  0  0  0  0  0
  131.6442  132.9336  161.6046 C   0  0  0  0  0  0  0  0  0  0  0  0
  132.6472  133.8111  161.9685 C   0  0  0  0  0  0  0  0  0  0  0  0
  132.8167  134.9976  161.2697 C   0  0  0  0  0  0  0  0  0  0  0  0
  133.8023  135.8626  161.6259 O   0  0  0  0  0  0  0  0  0  0  0  0
  133.9674  136.1324  162.9474 C   0  0  0  0  0  0  0  0  0  0  0  0
  132.8659  136.4017  163.7474 C   0  0  0  0  0  0  0  0  0  0  0  0
  133.0443  136.6722  165.0870 C   0  0  0  0  0  0  0  0  0  0  0  0
  134.3180  136.6882  165.6424 C   0  0  0  0  0  0  0  0  0  0  0  0
  135.4126  136.4207  164.8508 C   0  0  0  0  0  0  0  0  0  0  0  0
  135.2361  136.1458  163.5017 C   0  0  0  0  0  0  0  0  0  0  0  0
  136.8188  136.4038  165.3909 C   0  0  0  0  0  0  0  0  0  0  0  0
  136.8884  137.1319  166.7315 C   0  0  0  0  0  0  0  0  0  0  0  0
  135.7966  136.5659  167.6471 C   0  0  0  0  0  0  0  0  0  0  0  0
  134.4382  137.0108  167.1090 C   0  0  0  0  0  0  0  0  0  0  0  0
  131.9775  135.2997  160.2065 C   0  0  0  0  0  0  0  0  0  0  0  0
  128.3501  135.1169  160.6497 H   0  0  0  0  0  0  0  0  0  0  0  0
  127.2340  132.0559  159.2585 H   0  0  0  0  0  0  0  0  0  0  0  0
  125.0252  131.0451  159.6466 H   0  0  0  0  0  0  0  0  0  0  0  0
  123.2876  132.3017  160.8531 H   0  0  0  0  0  0  0  0  0  0  0  0
  123.8245  135.6165  162.0688 H   0  0  0  0  0  0  0  0  0  0  0  0
  125.9620  135.6079  161.2700 H   0  0  0  0  0  0  0  0  0  0  0  0
  130.0198  132.5541  160.2683 H   0  0  0  0  0  0  0  0  0  0  0  0
  131.5117  132.0100  162.1484 H   0  0  0  0  0  0  0  0  0  0  0  0
  133.2989  133.5738  162.7966 H   0  0  0  0  0  0  0  0  0  0  0  0
  131.8727  136.3952  163.3230 H   0  0  0  0  0  0  0  0  0  0  0  0
  132.1864  136.8777  165.7101 H   0  0  0  0  0  0  0  0  0  0  0  0
  136.0949  135.9411  162.8796 H   0  0  0  0  0  0  0  0  0  0  0  0
  137.1395  135.3707  165.5259 H   0  0  0  0  0  0  0  0  0  0  0  0
  137.4829  136.8955  164.6800 H   0  0  0  0  0  0  0  0  0  0  0  0
  136.7231  138.1984  166.5791 H   0  0  0  0  0  0  0  0  0  0  0  0
  137.8666  136.9734  167.1856 H   0  0  0  0  0  0  0  0  0  0  0  0
  135.9329  136.9460  168.6595 H   0  0  0  0  0  0  0  0  0  0  0  0
  135.8503  135.4771  167.6531 H   0  0  0  0  0  0  0  0  0  0  0  0
  134.3303  138.0862  167.2506 H   0  0  0  0  0  0  0  0  0  0  0  0
  133.6487  136.4958  167.6564 H   0  0  0  0  0  0  0  0  0  0  0  0
  132.1070  136.2228  159.6611 H   0  0  0  0  0  0  0  0  0  0  0  0
  1  2  1  0
  1  3  1  0
  1  4  1  0
  1  5  1  0
  5  6  1  6
  5  7  1  0
  5 17  1  0
  7  8  2  0
  7  9  1  0
  9 10  1  0
  9 34  1  0
 10 16  1  0
 10 11  2  0
 11 12  1  0
 11 35  1  0
 12 13  2  0
 12 36  1  0
 13 14  1  0
 13 37  1  0
 14 15  1  0
 14 16  2  0
 15 38  1  0
 16 39  1  0
 17 33  1  0
 17 18  2  0
 18 19  1  0
 18 40  1  0
 19 20  2  0
 19 41  1  0
 20 21  1  0
 20 42  1  0
 21 22  1  0
 21 33  2  0
 22 23  1  0
 23 28  1  0
 23 24  2  0
 24 25  1  0
 24 43  1  0
 25 26  2  0
 25 44  1  0
 26 32  1  0
 26 27  1  0
 27 28  2  0
 27 29  1  0
 28 45  1  0
 29 30  1  0
 29 46  1  0
 29 47  1  0
 30 31  1  0
 30 48  1  0
 30 49  1  0
 31 32  1  0
 31 50  1  0
 31 51  1  0
 32 52  1  0
 32 53  1  0
 33 54  1  0
M  CHG  1   1   1
M  END
>  <DOCK_score>  (1) 
-43.95256

>  <SMILES>  (1) 
[NH3+][C@@H](C(=O)Nc1cccc(O)c1)c1cccc(Oc2ccc3c(c2)CCCC3)c1

$$$$
