Nc1ccc(-c2ccc(Sc3ccc(O)cc3Nc3[nH]cc(-c4ccccc4)[nH+]3)cc2)cc1
     RDKit          3D

 56 60  0  0  1  0  0  0  0  0999 V2000
  131.6570  137.0906  170.8303 N   0  0  0  0  0  0  0  0  0  0  0  0
  131.6032  137.0213  169.4369 C   0  0  0  0  0  0  0  0  0  0  0  0
  130.7727  137.8835  168.7306 C   0  0  0  0  0  0  0  0  0  0  0  0
  130.7177  137.8166  167.3546 C   0  0  0  0  0  0  0  0  0  0  0  0
  131.4964  136.8834  166.6715 C   0  0  0  0  0  0  0  0  0  0  0  0
  131.4386  136.8089  165.1913 C   0  0  0  0  0  0  0  0  0  0  0  0
  131.6604  135.5938  164.5443 C   0  0  0  0  0  0  0  0  0  0  0  0
  131.6059  135.5268  163.1687 C   0  0  0  0  0  0  0  0  0  0  0  0
  131.3298  136.6699  162.4261 C   0  0  0  0  0  0  0  0  0  0  0  0
  131.2606  136.5815  160.6677 S   0  0  0  0  0  0  0  0  0  0  0  0
  129.5666  136.2105  160.3557 C   0  0  0  0  0  0  0  0  0  0  0  0
  128.5859  136.6541  161.2307 C   0  0  0  0  0  0  0  0  0  0  0  0
  127.2577  136.3577  160.9892 C   0  0  0  0  0  0  0  0  0  0  0  0
  126.9004  135.6217  159.8689 C   0  0  0  0  0  0  0  0  0  0  0  0
  125.5925  135.3325  159.6351 O   0  0  0  0  0  0  0  0  0  0  0  0
  127.8753  135.1801  158.9872 C   0  0  0  0  0  0  0  0  0  0  0  0
  129.2092  135.4747  159.2256 C   0  0  0  0  0  0  0  0  0  0  0  0
  130.1956  135.0297  158.3374 N   0  0  0  0  0  0  0  0  0  0  0  0
  130.0058  133.8597  157.6212 C   0  0  0  0  0  0  0  0  0  0  0  0
  129.2787  132.7858  158.0351 N   0  0  0  0  0  0  0  0  0  0  0  0
  128.8043  132.7032  158.8771 H   0  0  0  0  0  0  0  0  0  0  0  0
  129.3401  131.8413  157.0400 C   0  0  0  0  0  0  0  0  0  0  0  0
  130.0981  132.3662  156.0453 C   0  0  0  0  0  0  0  0  0  0  0  0
  130.4343  131.7034  154.7616 C   0  0  0  0  0  0  0  0  0  0  0  0
  130.0494  132.2822  153.5535 C   0  0  0  0  0  0  0  0  0  0  0  0
  130.3700  131.6640  152.3621 C   0  0  0  0  0  0  0  0  0  0  0  0
  131.0618  130.4660  152.3656 C   0  0  0  0  0  0  0  0  0  0  0  0
  131.4414  129.8842  153.5617 C   0  0  0  0  0  0  0  0  0  0  0  0
  131.1313  130.4965  154.7591 C   0  0  0  0  0  0  0  0  0  0  0  0
  130.4962  133.6035  156.4329 N   0  0  0  0  0  0  0  0  0  0  0  0
  131.0517  134.2045  155.9121 H   0  0  0  0  0  0  0  0  0  0  0  0
  131.1138  137.8839  163.0695 C   0  0  0  0  0  0  0  0  0  0  0  0
  131.1619  137.9540  164.4452 C   0  0  0  0  0  0  0  0  0  0  0  0
  132.3251  136.0162  167.3823 C   0  0  0  0  0  0  0  0  0  0  0  0
  132.3809  136.0903  168.7578 C   0  0  0  0  0  0  0  0  0  0  0  0
  131.1149  137.7401  171.3049 H   0  0  0  0  0  0  0  0  0  0  0  0
  132.2362  136.4892  171.3239 H   0  0  0  0  0  0  0  0  0  0  0  0
  130.1696  138.6062  169.2601 H   0  0  0  0  0  0  0  0  0  0  0  0
  130.0717  138.4862  166.8064 H   0  0  0  0  0  0  0  0  0  0  0  0
  131.8753  134.7061  165.1205 H   0  0  0  0  0  0  0  0  0  0  0  0
  131.7774  134.5857  162.6672 H   0  0  0  0  0  0  0  0  0  0  0  0
  128.8607  137.2273  162.1038 H   0  0  0  0  0  0  0  0  0  0  0  0
  126.4960  136.7002  161.6741 H   0  0  0  0  0  0  0  0  0  0  0  0
  124.9870  135.6814  160.3034 H   0  0  0  0  0  0  0  0  0  0  0  0
  127.5959  134.6075  158.1151 H   0  0  0  0  0  0  0  0  0  0  0  0
  131.0121  135.5410  158.2234 H   0  0  0  0  0  0  0  0  0  0  0  0
  128.8713  130.8684  157.0467 H   0  0  0  0  0  0  0  0  0  0  0  0
  129.5053  133.2151  153.5498 H   0  0  0  0  0  0  0  0  0  0  0  0
  130.0762  132.1140  151.4253 H   0  0  0  0  0  0  0  0  0  0  0  0
  131.3066  129.9830  151.4312 H   0  0  0  0  0  0  0  0  0  0  0  0
  131.9818  128.9491  153.5586 H   0  0  0  0  0  0  0  0  0  0  0  0
  131.4284  130.0413  155.6924 H   0  0  0  0  0  0  0  0  0  0  0  0
  130.9039  138.7715  162.4909 H   0  0  0  0  0  0  0  0  0  0  0  0
  130.9894  138.8959  164.9446 H   0  0  0  0  0  0  0  0  0  0  0  0
  132.9258  135.2896  166.8554 H   0  0  0  0  0  0  0  0  0  0  0  0
  133.0258  135.4216  169.3085 H   0  0  0  0  0  0  0  0  0  0  0  0
  1  2  1  0
  1 36  1  0
  1 37  1  0
  2 35  2  0
  2  3  1  0
  3  4  2  0
  3 38  1  0
  4  5  1  0
  4 39  1  0
  5  6  1  0
  5 34  2  0
  6 33  1  0
  6  7  2  0
  7  8  1  0
  7 40  1  0
  8  9  2  0
  8 41  1  0
  9 10  1  0
  9 32  1  0
 10 11  1  0
 11 17  1  0
 11 12  2  0
 12 13  1  0
 12 42  1  0
 13 14  2  0
 13 43  1  0
 14 15  1  0
 14 16  1  0
 15 44  1  0
 16 17  2  0
 16 45  1  0
 17 18  1  0
 18 46  1  0
 19 18  1  0
 19 30  2  0
 19 20  1  0
 20 21  1  0
 20 22  1  0
 22 23  2  0
 22 47  1  0
 23 24  1  0
 23 30  1  0
 24 29  1  0
 24 25  2  0
 25 26  1  0
 25 48  1  0
 26 27  2  0
 26 49  1  0
 27 28  1  0
 27 50  1  0
 28 29  2  0
 28 51  1  0
 29 52  1  0
 30 31  1  0
 32 33  2  0
 32 53  1  0
 33 54  1  0
 34 35  1  0
 34 55  1  0
 35 56  1  0
M  CHG  1  30   1
M  END
>  <DOCK_score>  (1) 
-56.040855

>  <SMILES>  (1) 
Nc1ccc(-c2ccc(Sc3ccc(O)cc3Nc3[nH]cc(-c4ccccc4)[nH+]3)cc2)cc1

$$$$
