ClC[C@@H](Cc1ccc(Cl)cc1)Nc1[nH]cc(-c2ccc(-c3ccccc3)cc2)[nH+]1
     RDKit          3D

 51 54  0  0  1  0  0  0  0  0999 V2000
  134.3189  135.7688  162.8227 Cl  0  0  0  0  0  0  0  0  0  0  0  0
  133.5033  136.2572  161.2907 C   0  0  0  0  0  0  0  0  0  0  0  0
  132.0771  135.7034  161.2732 C   0  0  1  0  0  0  0  0  0  0  0  0
  132.0744  134.6938  161.6837 H   0  0  0  0  0  0  0  0  0  0  0  0
  131.1715  136.6005  162.1194 C   0  0  0  0  0  0  0  0  0  0  0  0
  129.7667  136.0550  162.1023 C   0  0  0  0  0  0  0  0  0  0  0  0
  128.8769  136.4676  161.1280 C   0  0  0  0  0  0  0  0  0  0  0  0
  127.5885  135.9679  161.1121 C   0  0  0  0  0  0  0  0  0  0  0  0
  127.1875  135.0586  162.0746 C   0  0  0  0  0  0  0  0  0  0  0  0
  125.5668  134.4366  162.0600 Cl  0  0  0  0  0  0  0  0  0  0  0  0
  128.0803  134.6410  163.0455 C   0  0  0  0  0  0  0  0  0  0  0  0
  129.3685  135.1417  163.0606 C   0  0  0  0  0  0  0  0  0  0  0  0
  131.5826  135.6715  159.8946 N   0  0  0  0  0  0  0  0  0  0  0  0
  131.2026  134.4693  159.3233 C   0  0  0  0  0  0  0  0  0  0  0  0
  130.6849  133.4026  159.9916 N   0  0  0  0  0  0  0  0  0  0  0  0
  130.5178  133.3484  160.9456 H   0  0  0  0  0  0  0  0  0  0  0  0
  130.4431  132.4169  159.0662 C   0  0  0  0  0  0  0  0  0  0  0  0
  130.8198  132.9091  157.8594 C   0  0  0  0  0  0  0  0  0  0  0  0
  130.7413  132.1947  156.5627 C   0  0  0  0  0  0  0  0  0  0  0  0
  129.9653  132.7137  155.5263 C   0  0  0  0  0  0  0  0  0  0  0  0
  129.8960  132.0523  154.3201 C   0  0  0  0  0  0  0  0  0  0  0  0
  130.5933  130.8590  154.1383 C   0  0  0  0  0  0  0  0  0  0  0  0
  130.5139  130.1431  152.8418 C   0  0  0  0  0  0  0  0  0  0  0  0
  130.6400  128.7556  152.7993 C   0  0  0  0  0  0  0  0  0  0  0  0
  130.5607  128.0949  151.5903 C   0  0  0  0  0  0  0  0  0  0  0  0
  130.3665  128.8079  150.4210 C   0  0  0  0  0  0  0  0  0  0  0  0
  130.2454  130.1854  150.4565 C   0  0  0  0  0  0  0  0  0  0  0  0
  130.3183  130.8564  151.6603 C   0  0  0  0  0  0  0  0  0  0  0  0
  131.3656  130.3369  155.1763 C   0  0  0  0  0  0  0  0  0  0  0  0
  131.4389  131.0006  156.3809 C   0  0  0  0  0  0  0  0  0  0  0  0
  131.2768  134.1726  158.0488 N   0  0  0  0  0  0  0  0  0  0  0  0
  131.6076  134.7614  157.3526 H   0  0  0  0  0  0  0  0  0  0  0  0
  134.0581  135.8593  160.4410 H   0  0  0  0  0  0  0  0  0  0  0  0
  133.4716  137.3449  161.2267 H   0  0  0  0  0  0  0  0  0  0  0  0
  131.1741  137.6102  161.7089 H   0  0  0  0  0  0  0  0  0  0  0  0
  131.5394  136.6243  163.1451 H   0  0  0  0  0  0  0  0  0  0  0  0
  129.1887  137.1808  160.3793 H   0  0  0  0  0  0  0  0  0  0  0  0
  126.8934  136.2906  160.3511 H   0  0  0  0  0  0  0  0  0  0  0  0
  127.7693  133.9274  163.7943 H   0  0  0  0  0  0  0  0  0  0  0  0
  130.0640  134.8196  163.8215 H   0  0  0  0  0  0  0  0  0  0  0  0
  131.5212  136.4928  159.3822 H   0  0  0  0  0  0  0  0  0  0  0  0
  130.0316  131.4377  159.2619 H   0  0  0  0  0  0  0  0  0  0  0  0
  129.4218  133.6361  155.6683 H   0  0  0  0  0  0  0  0  0  0  0  0
  129.2980  132.4561  153.5164 H   0  0  0  0  0  0  0  0  0  0  0  0
  130.7959  128.1984  153.7113 H   0  0  0  0  0  0  0  0  0  0  0  0
  130.6541  127.0196  151.5567 H   0  0  0  0  0  0  0  0  0  0  0  0
  130.3096  128.2870  149.4765 H   0  0  0  0  0  0  0  0  0  0  0  0
  130.0940  130.7370  149.5405 H   0  0  0  0  0  0  0  0  0  0  0  0
  130.2245  131.9319  151.6867 H   0  0  0  0  0  0  0  0  0  0  0  0
  131.9057  129.4123  155.0354 H   0  0  0  0  0  0  0  0  0  0  0  0
  132.0368  130.5966  157.1844 H   0  0  0  0  0  0  0  0  0  0  0  0
  1  2  1  0
  2  3  1  0
  2 33  1  0
  2 34  1  0
  3  4  1  1
  3  5  1  0
  3 13  1  0
  5  6  1  0
  5 35  1  0
  5 36  1  0
  6 12  1  0
  6  7  2  0
  7  8  1  0
  7 37  1  0
  8  9  2  0
  8 38  1  0
  9 10  1  0
  9 11  1  0
 11 12  2  0
 11 39  1  0
 12 40  1  0
 13 41  1  0
 14 13  1  0
 14 31  2  0
 14 15  1  0
 15 16  1  0
 15 17  1  0
 17 18  2  0
 17 42  1  0
 18 19  1  0
 18 31  1  0
 19 30  1  0
 19 20  2  0
 20 21  1  0
 20 43  1  0
 21 22  2  0
 21 44  1  0
 22 23  1  0
 22 29  1  0
 23 28  1  0
 23 24  2  0
 24 25  1  0
 24 45  1  0
 25 26  2  0
 25 46  1  0
 26 27  1  0
 26 47  1  0
 27 28  2  0
 27 48  1  0
 28 49  1  0
 29 30  2  0
 29 50  1  0
 30 51  1  0
 31 32  1  0
M  CHG  1  31   1
M  END
>  <DOCK_score>  (1) 
-60.006779

>  <SMILES>  (1) 
ClC[C@@H](Cc1ccc(Cl)cc1)Nc1[nH]cc(-c2ccc(-c3ccccc3)cc2)[nH+]1

$$$$
