Cc1ccc(C[C@H](Nc2[nH]c(C)c(-c3ccccc3)[nH+]2)c2cccnc2)cc1
     RDKit          3D

 53 56  0  0  1  0  0  0  0  0999 V2000
  133.9783  140.3522  162.4181 C   0  0  0  0  0  0  0  0  0  0  0  0
  132.7887  139.6773  161.7855 C   0  0  0  0  0  0  0  0  0  0  0  0
  131.6546  139.4293  162.5360 C   0  0  0  0  0  0  0  0  0  0  0  0
  130.5634  138.8100  161.9557 C   0  0  0  0  0  0  0  0  0  0  0  0
  130.6063  138.4388  160.6248 C   0  0  0  0  0  0  0  0  0  0  0  0
  129.4168  137.7634  159.9922 C   0  0  0  0  0  0  0  0  0  0  0  0
  129.5419  136.2479  160.1601 C   0  0  2  0  0  0  0  0  0  0  0  0
  129.9274  136.0232  161.1546 H   0  0  0  0  0  0  0  0  0  0  0  0
  130.4606  135.7187  159.1490 N   0  0  0  0  0  0  0  0  0  0  0  0
  130.2945  134.4307  158.6693 C   0  0  0  0  0  0  0  0  0  0  0  0
  129.7673  133.3872  159.3659 N   0  0  0  0  0  0  0  0  0  0  0  0
  129.4430  133.4117  160.2797 H   0  0  0  0  0  0  0  0  0  0  0  0
  129.7844  132.2913  158.5378 C   0  0  0  0  0  0  0  0  0  0  0  0
  129.3038  130.9033  158.8754 C   0  0  0  0  0  0  0  0  0  0  0  0
  130.3166  132.6973  157.3584 C   0  0  0  0  0  0  0  0  0  0  0  0
  130.5324  131.8499  156.1604 C   0  0  0  0  0  0  0  0  0  0  0  0
  129.9046  132.1669  154.9570 C   0  0  0  0  0  0  0  0  0  0  0  0
  130.1144  131.3787  153.8437 C   0  0  0  0  0  0  0  0  0  0  0  0
  130.9358  130.2685  153.9239 C   0  0  0  0  0  0  0  0  0  0  0  0
  131.5566  129.9457  155.1173 C   0  0  0  0  0  0  0  0  0  0  0  0
  131.3594  130.7304  156.2351 C   0  0  0  0  0  0  0  0  0  0  0  0
  130.6170  134.0158  157.4686 N   0  0  0  0  0  0  0  0  0  0  0  0
  131.0115  134.5629  156.7714 H   0  0  0  0  0  0  0  0  0  0  0  0
  128.1870  135.6103  159.9906 C   0  0  0  0  0  0  0  0  0  0  0  0
  127.4873  135.7536  158.8020 C   0  0  0  0  0  0  0  0  0  0  0  0
  126.2464  135.1458  158.6894 C   0  0  0  0  0  0  0  0  0  0  0  0
  125.7468  134.4311  159.7619 C   0  0  0  0  0  0  0  0  0  0  0  0
  126.4380  134.3198  160.8792 N   0  0  0  0  0  0  0  0  0  0  0  0
  127.6237  134.8802  161.0198 C   0  0  0  0  0  0  0  0  0  0  0  0
  131.7423  138.6822  159.8757 C   0  0  0  0  0  0  0  0  0  0  0  0
  132.8314  139.3065  160.4544 C   0  0  0  0  0  0  0  0  0  0  0  0
  134.6430  139.5977  162.8387 H   0  0  0  0  0  0  0  0  0  0  0  0
  134.5135  140.9279  161.6630 H   0  0  0  0  0  0  0  0  0  0  0  0
  133.6385  141.0195  163.2104 H   0  0  0  0  0  0  0  0  0  0  0  0
  131.6212  139.7189  163.5759 H   0  0  0  0  0  0  0  0  0  0  0  0
  129.6775  138.6160  162.5421 H   0  0  0  0  0  0  0  0  0  0  0  0
  129.3812  138.0098  158.9309 H   0  0  0  0  0  0  0  0  0  0  0  0
  128.5032  138.1086  160.4762 H   0  0  0  0  0  0  0  0  0  0  0  0
  131.1851  136.2707  158.8157 H   0  0  0  0  0  0  0  0  0  0  0  0
  130.1268  130.3264  159.2970 H   0  0  0  0  0  0  0  0  0  0  0  0
  128.4941  130.9661  159.6024 H   0  0  0  0  0  0  0  0  0  0  0  0
  128.9427  130.4139  157.9709 H   0  0  0  0  0  0  0  0  0  0  0  0
  129.2592  133.0304  154.8946 H   0  0  0  0  0  0  0  0  0  0  0  0
  129.6325  131.6263  152.9095 H   0  0  0  0  0  0  0  0  0  0  0  0
  131.0933  129.6517  153.0516 H   0  0  0  0  0  0  0  0  0  0  0  0
  132.1971  129.0779  155.1740 H   0  0  0  0  0  0  0  0  0  0  0  0
  131.8451  130.4778  157.1661 H   0  0  0  0  0  0  0  0  0  0  0  0
  127.9009  136.3221  157.9821 H   0  0  0  0  0  0  0  0  0  0  0  0
  125.6753  135.2335  157.7770 H   0  0  0  0  0  0  0  0  0  0  0  0
  124.7791  133.9580  159.6837 H   0  0  0  0  0  0  0  0  0  0  0  0
  128.1605  134.7673  161.9501 H   0  0  0  0  0  0  0  0  0  0  0  0
  131.7775  138.3881  158.8370 H   0  0  0  0  0  0  0  0  0  0  0  0
  133.7173  139.5004  159.8680 H   0  0  0  0  0  0  0  0  0  0  0  0
  1  2  1  0
  1 32  1  0
  1 33  1  0
  1 34  1  0
  2 31  2  0
  2  3  1  0
  3  4  2  0
  3 35  1  0
  4  5  1  0
  4 36  1  0
  5  6  1  0
  5 30  2  0
  6  7  1  0
  6 37  1  0
  6 38  1  0
  7  8  1  1
  7  9  1  0
  7 24  1  0
  9 39  1  0
 10  9  1  0
 10 22  2  0
 10 11  1  0
 11 12  1  0
 11 13  1  0
 13 14  1  0
 13 15  2  0
 14 40  1  0
 14 41  1  0
 14 42  1  0
 15 16  1  0
 15 22  1  0
 16 21  1  0
 16 17  2  0
 17 18  1  0
 17 43  1  0
 18 19  2  0
 18 44  1  0
 19 20  1  0
 19 45  1  0
 20 21  2  0
 20 46  1  0
 21 47  1  0
 22 23  1  0
 24 29  1  0
 24 25  2  0
 25 26  1  0
 25 48  1  0
 26 27  2  0
 26 49  1  0
 27 28  1  0
 27 50  1  0
 28 29  2  0
 29 51  1  0
 30 31  1  0
 30 52  1  0
 31 53  1  0
M  CHG  1  22   1
M  END
>  <DOCK_score>  (1) 
-56.650253

>  <SMILES>  (1) 
Cc1ccc(C[C@H](Nc2[nH]c(C)c(-c3ccccc3)[nH+]2)c2cccnc2)cc1

$$$$
