Cc1nn(-c2ccccc2)cc1-c1c[nH]c(NC(c2ccccc2)c2ccccc2)[nH+]1
     RDKit          3D

 55 59  0  0  1  0  0  0  0  0999 V2000
  130.6266  130.4531  159.3202 C   0  0  0  0  0  0  0  0  0  0  0  0
  130.5873  131.0207  157.9247 C   0  0  0  0  0  0  0  0  0  0  0  0
  130.7640  130.3468  156.8188 N   0  0  0  0  0  0  0  0  0  0  0  0
  130.6523  131.2287  155.7368 N   0  0  0  0  0  0  0  0  0  0  0  0
  130.7786  130.8905  154.3827 C   0  0  0  0  0  0  0  0  0  0  0  0
  130.6438  131.8683  153.4061 C   0  0  0  0  0  0  0  0  0  0  0  0
  130.7680  131.5318  152.0722 C   0  0  0  0  0  0  0  0  0  0  0  0
  131.0267  130.2228  151.7091 C   0  0  0  0  0  0  0  0  0  0  0  0
  131.1619  129.2469  152.6794 C   0  0  0  0  0  0  0  0  0  0  0  0
  131.0384  129.5771  154.0148 C   0  0  0  0  0  0  0  0  0  0  0  0
  130.4061  132.4700  156.2296 C   0  0  0  0  0  0  0  0  0  0  0  0
  130.3546  132.3684  157.5885 C   0  0  0  0  0  0  0  0  0  0  0  0
  130.1045  133.4796  158.5422 C   0  0  0  0  0  0  0  0  0  0  0  0
  129.0793  133.5558  159.4246 C   0  0  0  0  0  0  0  0  0  0  0  0
  129.2292  134.7416  160.1076 N   0  0  0  0  0  0  0  0  0  0  0  0
  128.6502  135.0794  160.8086 H   0  0  0  0  0  0  0  0  0  0  0  0
  130.3387  135.3537  159.6120 C   0  0  0  0  0  0  0  0  0  0  0  0
  130.8387  136.5765  160.0261 N   0  0  0  0  0  0  0  0  0  0  0  0
  130.6415  137.0182  161.4090 C   0  0  0  0  0  0  0  0  0  0  0  0
  131.7937  136.5443  162.2569 C   0  0  0  0  0  0  0  0  0  0  0  0
  131.5990  136.2730  163.5982 C   0  0  0  0  0  0  0  0  0  0  0  0
  132.6548  135.8337  164.3748 C   0  0  0  0  0  0  0  0  0  0  0  0
  133.9077  135.6758  163.8125 C   0  0  0  0  0  0  0  0  0  0  0  0
  134.1035  135.9521  162.4723 C   0  0  0  0  0  0  0  0  0  0  0  0
  133.0466  136.3865  161.6945 C   0  0  0  0  0  0  0  0  0  0  0  0
  130.5728  138.5231  161.4507 C   0  0  0  0  0  0  0  0  0  0  0  0
  131.7267  139.2630  161.6286 C   0  0  0  0  0  0  0  0  0  0  0  0
  131.6643  140.6436  161.6620 C   0  0  0  0  0  0  0  0  0  0  0  0
  130.4465  141.2838  161.5279 C   0  0  0  0  0  0  0  0  0  0  0  0
  129.2920  140.5437  161.3553 C   0  0  0  0  0  0  0  0  0  0  0  0
  129.3550  139.1633  161.3165 C   0  0  0  0  0  0  0  0  0  0  0  0
  130.8559  134.5935  158.6774 N   0  0  0  0  0  0  0  0  0  0  0  0
  131.6529  134.7988  158.1639 H   0  0  0  0  0  0  0  0  0  0  0  0
  131.6457  130.5025  159.7039 H   0  0  0  0  0  0  0  0  0  0  0  0
  129.9666  131.0316  159.9665 H   0  0  0  0  0  0  0  0  0  0  0  0
  130.2960  129.4146  159.2995 H   0  0  0  0  0  0  0  0  0  0  0  0
  130.4420  132.8908  153.6890 H   0  0  0  0  0  0  0  0  0  0  0  0
  130.6673  132.2926  151.3123 H   0  0  0  0  0  0  0  0  0  0  0  0
  131.1229  129.9620  150.6655 H   0  0  0  0  0  0  0  0  0  0  0  0
  131.3640  128.2254  152.3928 H   0  0  0  0  0  0  0  0  0  0  0  0
  131.1434  128.8143  154.7722 H   0  0  0  0  0  0  0  0  0  0  0  0
  130.2726  133.3719  155.6508 H   0  0  0  0  0  0  0  0  0  0  0  0
  128.2961  132.8259  159.5661 H   0  0  0  0  0  0  0  0  0  0  0  0
  131.3198  137.1408  159.4006 H   0  0  0  0  0  0  0  0  0  0  0  0
  129.7110  136.6012  161.7944 H   0  0  0  0  0  0  0  0  0  0  0  0
  130.6212  136.4007  164.0386 H   0  0  0  0  0  0  0  0  0  0  0  0
  132.5019  135.6182  165.4220 H   0  0  0  0  0  0  0  0  0  0  0  0
  134.7336  135.3368  164.4203 H   0  0  0  0  0  0  0  0  0  0  0  0
  135.0825  135.8291  162.0330 H   0  0  0  0  0  0  0  0  0  0  0  0
  133.1997  136.6027  160.6474 H   0  0  0  0  0  0  0  0  0  0  0  0
  132.6776  138.7626  161.7378 H   0  0  0  0  0  0  0  0  0  0  0  0
  132.5665  141.2218  161.7974 H   0  0  0  0  0  0  0  0  0  0  0  0
  130.3972  142.3623  161.5585 H   0  0  0  0  0  0  0  0  0  0  0  0
  128.3404  141.0439  161.2507 H   0  0  0  0  0  0  0  0  0  0  0  0
  128.4528  138.5851  161.1819 H   0  0  0  0  0  0  0  0  0  0  0  0
  1  2  1  0
  1 34  1  0
  1 35  1  0
  1 36  1  0
  2 12  1  0
  2  3  2  0
  3  4  1  0
  4  5  1  0
  4 11  1  0
  5 10  1  0
  5  6  2  0
  6  7  1  0
  6 37  1  0
  7  8  2  0
  7 38  1  0
  8  9  1  0
  8 39  1  0
  9 10  2  0
  9 40  1  0
 10 41  1  0
 11 12  2  0
 11 42  1  0
 12 13  1  0
 13 32  1  0
 13 14  2  0
 14 15  1  0
 14 43  1  0
 15 16  1  0
 15 17  1  0
 17 18  1  0
 17 32  2  0
 18 19  1  0
 18 44  1  0
 19 20  1  0
 19 26  1  0
 19 45  1  0
 20 25  1  0
 20 21  2  0
 21 22  1  0
 21 46  1  0
 22 23  2  0
 22 47  1  0
 23 24  1  0
 23 48  1  0
 24 25  2  0
 24 49  1  0
 25 50  1  0
 26 31  1  0
 26 27  2  0
 27 28  1  0
 27 51  1  0
 28 29  2  0
 28 52  1  0
 29 30  1  0
 29 53  1  0
 30 31  2  0
 30 54  1  0
 31 55  1  0
 32 33  1  0
M  CHG  1  32   1
M  END
>  <DOCK_score>  (1) 
-56.330505

>  <SMILES>  (1) 
Cc1nn(-c2ccccc2)cc1-c1c[nH]c(NC(c2ccccc2)c2ccccc2)[nH+]1

$$$$
