CCc1ccc(-c2c[nH]c(N[C@H](c3ccc(Br)cc3)C(F)F)[nH+]2)cc1
     RDKit          3D

 44 46  0  0  1  0  0  0  0  0999 V2000
  130.3064  128.4690  151.9474 C   0  0  0  0  0  0  0  0  0  0  0  0
  131.3862  129.5205  152.2102 C   0  0  0  0  0  0  0  0  0  0  0  0
  131.0386  130.2976  153.4537 C   0  0  0  0  0  0  0  0  0  0  0  0
  131.4889  129.8622  154.6866 C   0  0  0  0  0  0  0  0  0  0  0  0
  131.1778  130.5726  155.8281 C   0  0  0  0  0  0  0  0  0  0  0  0
  130.3992  131.7251  155.7382 C   0  0  0  0  0  0  0  0  0  0  0  0
  130.0572  132.4899  156.9622 C   0  0  0  0  0  0  0  0  0  0  0  0
  129.3734  132.0172  158.0336 C   0  0  0  0  0  0  0  0  0  0  0  0
  129.2808  133.0499  158.9347 N   0  0  0  0  0  0  0  0  0  0  0  0
  128.8459  133.0190  159.8012 H   0  0  0  0  0  0  0  0  0  0  0  0
  129.9113  134.1245  158.3871 C   0  0  0  0  0  0  0  0  0  0  0  0
  130.0418  135.3699  158.9773 N   0  0  0  0  0  0  0  0  0  0  0  0
  129.4734  135.6144  160.3053 C   0  0  2  0  0  0  0  0  0  0  0  0
  128.3966  135.4485  160.2757 H   0  0  0  0  0  0  0  0  0  0  0  0
  129.7515  137.0372  160.7166 C   0  0  0  0  0  0  0  0  0  0  0  0
  128.8674  137.7022  161.5453 C   0  0  0  0  0  0  0  0  0  0  0  0
  129.1244  139.0057  161.9266 C   0  0  0  0  0  0  0  0  0  0  0  0
  130.2613  139.6482  161.4704 C   0  0  0  0  0  0  0  0  0  0  0  0
  130.6096  141.4341  161.9854 Br  0  0  0  0  0  0  0  0  0  0  0  0
  131.1431  138.9841  160.6369 C   0  0  0  0  0  0  0  0  0  0  0  0
  130.8878  137.6788  160.2604 C   0  0  0  0  0  0  0  0  0  0  0  0
  130.1092  134.6578  161.3161 C   0  0  0  0  0  0  0  0  0  0  0  0
  129.9348  135.1625  162.6092 F   0  0  0  0  0  0  0  0  0  0  0  0
  129.4984  133.4030  161.2188 F   0  0  0  0  0  0  0  0  0  0  0  0
  130.3783  133.7845  157.2105 N   0  0  0  0  0  0  0  0  0  0  0  0
  130.8729  134.3661  156.6122 H   0  0  0  0  0  0  0  0  0  0  0  0
  129.9437  132.1565  154.4937 C   0  0  0  0  0  0  0  0  0  0  0  0
  130.2654  131.4412  153.3581 C   0  0  0  0  0  0  0  0  0  0  0  0
  130.5579  127.9070  151.0480 H   0  0  0  0  0  0  0  0  0  0  0  0
  130.2484  127.7883  152.7968 H   0  0  0  0  0  0  0  0  0  0  0  0
  129.3442  128.9622  151.8107 H   0  0  0  0  0  0  0  0  0  0  0  0
  132.3484  129.0278  152.3467 H   0  0  0  0  0  0  0  0  0  0  0  0
  131.4441  130.2018  151.3605 H   0  0  0  0  0  0  0  0  0  0  0  0
  132.0885  128.9666  154.7557 H   0  0  0  0  0  0  0  0  0  0  0  0
  131.5339  130.2339  156.7900 H   0  0  0  0  0  0  0  0  0  0  0  0
  128.9772  131.0199  158.1550 H   0  0  0  0  0  0  0  0  0  0  0  0
  130.5095  136.0807  158.5117 H   0  0  0  0  0  0  0  0  0  0  0  0
  127.9775  137.2021  161.8981 H   0  0  0  0  0  0  0  0  0  0  0  0
  128.4359  139.5239  162.5777 H   0  0  0  0  0  0  0  0  0  0  0  0
  132.0307  139.4853  160.2802 H   0  0  0  0  0  0  0  0  0  0  0  0
  131.5765  137.1601  159.6098 H   0  0  0  0  0  0  0  0  0  0  0  0
  131.1742  134.5610  161.1046 H   0  0  0  0  0  0  0  0  0  0  0  0
  129.3398  133.0487  154.4180 H   0  0  0  0  0  0  0  0  0  0  0  0
  129.9126  131.7744  152.3932 H   0  0  0  0  0  0  0  0  0  0  0  0
  1  2  1  0
  1 29  1  0
  1 30  1  0
  1 31  1  0
  2  3  1  0
  2 32  1  0
  2 33  1  0
  3 28  2  0
  3  4  1  0
  4  5  2  0
  4 34  1  0
  5  6  1  0
  5 35  1  0
  6  7  1  0
  6 27  2  0
  7 25  1  0
  7  8  2  0
  8  9  1  0
  8 36  1  0
  9 10  1  0
  9 11  1  0
 11 12  1  0
 11 25  2  0
 12 13  1  0
 12 37  1  0
 13 14  1  6
 13 15  1  0
 13 22  1  0
 15 21  1  0
 15 16  2  0
 16 17  1  0
 16 38  1  0
 17 18  2  0
 17 39  1  0
 18 19  1  0
 18 20  1  0
 20 21  2  0
 20 40  1  0
 21 41  1  0
 22 23  1  0
 22 24  1  0
 22 42  1  0
 25 26  1  0
 27 28  1  0
 27 43  1  0
 28 44  1  0
M  CHG  1  25   1
M  END
>  <DOCK_score>  (1) 
-56.000408

>  <SMILES>  (1) 
CCc1ccc(-c2c[nH]c(N[C@H](c3ccc(Br)cc3)C(F)F)[nH+]2)cc1

$$$$
