Nc1ccc(-c2c[nH]c(NC(CC[C@H]3CC=CCC3)C3=COCCC3)[nH+]2)cc1
     RDKit          3D

 59 62  0  0  1  0  0  0  0  0999 V2000
  130.9694  129.2892  151.4260 N   0  0  0  0  0  0  0  0  0  0  0  0
  130.8360  129.9469  152.6513 C   0  0  0  0  0  0  0  0  0  0  0  0
  130.1171  131.1346  152.7259 C   0  0  0  0  0  0  0  0  0  0  0  0
  129.9842  131.7862  153.9340 C   0  0  0  0  0  0  0  0  0  0  0  0
  130.5709  131.2528  155.0806 C   0  0  0  0  0  0  0  0  0  0  0  0
  130.4296  131.9522  156.3813 C   0  0  0  0  0  0  0  0  0  0  0  0
  129.8570  131.4461  157.5013 C   0  0  0  0  0  0  0  0  0  0  0  0
  129.9428  132.4200  158.4679 N   0  0  0  0  0  0  0  0  0  0  0  0
  129.6220  132.3535  159.3809 H   0  0  0  0  0  0  0  0  0  0  0  0
  130.5583  133.4958  157.9062 C   0  0  0  0  0  0  0  0  0  0  0  0
  130.8355  134.6915  158.5465 N   0  0  0  0  0  0  0  0  0  0  0  0
  130.4583  134.8754  159.9502 C   0  0  2  0  0  0  0  0  0  0  0  0
  129.4911  136.0550  160.0682 C   0  0  0  0  0  0  0  0  0  0  0  0
  128.2385  135.7725  159.2363 C   0  0  0  0  0  0  0  0  0  0  0  0
  127.5592  134.5023  159.7524 C   0  0  1  0  0  0  0  0  0  0  0  0
  128.2439  133.6581  159.6709 H   0  0  0  0  0  0  0  0  0  0  0  0
  127.1518  134.6948  161.2148 C   0  0  0  0  0  0  0  0  0  0  0  0
  126.2576  133.5726  161.6542 C   0  0  0  0  0  0  0  0  0  0  0  0
  125.6392  132.7771  160.8414 C   0  0  0  0  0  0  0  0  0  0  0  0
  125.7381  132.8598  159.3463 C   0  0  0  0  0  0  0  0  0  0  0  0
  126.2954  134.2227  158.9294 C   0  0  0  0  0  0  0  0  0  0  0  0
  131.6922  135.1536  160.7695 C   0  0  0  0  0  0  0  0  0  0  0  0
  132.4148  136.2036  160.4812 C   0  0  0  0  0  0  0  0  0  0  0  0
  133.5388  136.5390  161.1522 O   0  0  0  0  0  0  0  0  0  0  0  0
  133.7615  135.9250  162.4247 C   0  0  0  0  0  0  0  0  0  0  0  0
  133.5146  134.4168  162.2805 C   0  0  0  0  0  0  0  0  0  0  0  0
  132.0488  134.2086  161.8846 C   0  0  0  0  0  0  0  0  0  0  0  0
  130.8504  133.2113  156.6604 N   0  0  0  0  0  0  0  0  0  0  0  0
  131.2961  133.8063  156.0373 H   0  0  0  0  0  0  0  0  0  0  0  0
  131.2952  130.0644  155.0021 C   0  0  0  0  0  0  0  0  0  0  0  0
  131.4218  129.4141  153.7928 C   0  0  0  0  0  0  0  0  0  0  0  0
  130.5609  129.6610  150.6286 H   0  0  0  0  0  0  0  0  0  0  0  0
  131.4709  128.4606  151.3728 H   0  0  0  0  0  0  0  0  0  0  0  0
  129.6628  131.5474  151.8373 H   0  0  0  0  0  0  0  0  0  0  0  0
  129.4263  132.7091  153.9916 H   0  0  0  0  0  0  0  0  0  0  0  0
  129.4205  130.4646  157.6137 H   0  0  0  0  0  0  0  0  0  0  0  0
  131.2793  135.4076  158.0659 H   0  0  0  0  0  0  0  0  0  0  0  0
  129.9746  133.9706  160.3179 H   0  0  0  0  0  0  0  0  0  0  0  0
  129.9750  136.9598  159.7005 H   0  0  0  0  0  0  0  0  0  0  0  0
  129.2105  136.1917  161.1125 H   0  0  0  0  0  0  0  0  0  0  0  0
  128.5190  135.6358  158.1920 H   0  0  0  0  0  0  0  0  0  0  0  0
  127.5494  136.6129  159.3204 H   0  0  0  0  0  0  0  0  0  0  0  0
  128.0448  134.7109  161.8396 H   0  0  0  0  0  0  0  0  0  0  0  0
  126.6199  135.6403  161.3202 H   0  0  0  0  0  0  0  0  0  0  0  0
  126.1211  133.4193  162.7145 H   0  0  0  0  0  0  0  0  0  0  0  0
  125.0095  132.0091  161.2656 H   0  0  0  0  0  0  0  0  0  0  0  0
  126.3996  132.0728  158.9839 H   0  0  0  0  0  0  0  0  0  0  0  0
  124.7480  132.7258  158.9107 H   0  0  0  0  0  0  0  0  0  0  0  0
  126.5449  134.2074  157.8685 H   0  0  0  0  0  0  0  0  0  0  0  0
  125.5517  134.9963  159.1198 H   0  0  0  0  0  0  0  0  0  0  0  0
  132.0950  136.8380  159.6677 H   0  0  0  0  0  0  0  0  0  0  0  0
  133.0726  136.3416  163.1596 H   0  0  0  0  0  0  0  0  0  0  0  0
  134.7890  136.1003  162.7434 H   0  0  0  0  0  0  0  0  0  0  0  0
  133.7135  133.9191  163.2297 H   0  0  0  0  0  0  0  0  0  0  0  0
  134.1659  134.0096  161.5073 H   0  0  0  0  0  0  0  0  0  0  0  0
  131.4087  134.4037  162.7449 H   0  0  0  0  0  0  0  0  0  0  0  0
  131.9051  133.1812  161.5501 H   0  0  0  0  0  0  0  0  0  0  0  0
  131.7539  129.6516  155.8884 H   0  0  0  0  0  0  0  0  0  0  0  0
  131.9804  128.4917  153.7321 H   0  0  0  0  0  0  0  0  0  0  0  0
  1  2  1  0
  1 32  1  0
  1 33  1  0
  2 31  2  0
  2  3  1  0
  3  4  2  0
  3 34  1  0
  4  5  1  0
  4 35  1  0
  5  6  1  0
  5 30  2  0
  6 28  1  0
  6  7  2  0
  7  8  1  0
  7 36  1  0
  8  9  1  0
  8 10  1  0
 10 11  1  0
 10 28  2  0
 11 12  1  0
 11 37  1  0
 12 13  1  0
 12 22  1  0
 12 38  1  1
 13 14  1  0
 13 39  1  0
 13 40  1  0
 14 15  1  0
 14 41  1  0
 14 42  1  0
 15 16  1  1
 15 21  1  0
 15 17  1  0
 17 18  1  0
 17 43  1  0
 17 44  1  0
 18 19  2  0
 18 45  1  0
 19 20  1  0
 19 46  1  0
 20 21  1  0
 20 47  1  0
 20 48  1  0
 21 49  1  0
 21 50  1  0
 22 27  1  0
 22 23  2  0
 23 24  1  0
 23 51  1  0
 24 25  1  0
 25 26  1  0
 25 52  1  0
 25 53  1  0
 26 27  1  0
 26 54  1  0
 26 55  1  0
 27 56  1  0
 27 57  1  0
 28 29  1  0
 30 31  1  0
 30 58  1  0
 31 59  1  0
M  CHG  1  28   1
M  END
>  <DOCK_score>  (1) 
-59.176991

>  <SMILES>  (1) 
Nc1ccc(-c2c[nH]c(NC(CC[C@H]3CC=CCC3)C3=COCCC3)[nH+]2)cc1

$$$$
