C[C@](C[NH2+]C1=CCCCC1)(NCc1cccc2c1NC(=O)CO2)c1ccccc1
     RDKit          3D

 59 62  0  0  1  0  0  0  0  0999 V2000
  129.0253  136.9797  158.9917 C   0  0  0  0  0  0  0  0  0  0  0  0
  129.5723  135.7814  159.7700 C   0  0  2  0  0  0  0  0  0  0  0  0
  130.6421  136.2581  160.7543 C   0  0  0  0  0  0  0  0  0  0  0  0
  131.9111  136.4550  160.0408 N   0  0  0  0  0  0  0  0  0  0  0  0
  132.2016  135.5831  159.6244 H   0  0  0  0  0  0  0  0  0  0  0  0
  131.7865  137.1479  159.3181 H   0  0  0  0  0  0  0  0  0  0  0  0
  132.8887  136.8905  160.9403 C   0  0  0  0  0  0  0  0  0  0  0  0
  133.8315  137.6542  160.4892 C   0  0  0  0  0  0  0  0  0  0  0  0
  134.9503  138.1951  161.3304 C   0  0  0  0  0  0  0  0  0  0  0  0
  134.6012  138.0737  162.8153 C   0  0  0  0  0  0  0  0  0  0  0  0
  134.1194  136.6425  163.0850 C   0  0  0  0  0  0  0  0  0  0  0  0
  132.7833  136.4385  162.3673 C   0  0  0  0  0  0  0  0  0  0  0  0
  130.1638  134.8174  158.8325 N   0  0  0  0  0  0  0  0  0  0  0  0
  129.1254  133.9942  158.1987 C   0  0  0  0  0  0  0  0  0  0  0  0
  129.7687  133.0196  157.2461 C   0  0  0  0  0  0  0  0  0  0  0  0
  129.9641  133.3701  155.9223 C   0  0  0  0  0  0  0  0  0  0  0  0
  130.5577  132.4794  155.0476 C   0  0  0  0  0  0  0  0  0  0  0  0
  130.9518  131.2281  155.4873 C   0  0  0  0  0  0  0  0  0  0  0  0
  130.7552  130.8687  156.8087 C   0  0  0  0  0  0  0  0  0  0  0  0
  130.1606  131.7688  157.6922 C   0  0  0  0  0  0  0  0  0  0  0  0
  129.9666  131.3911  159.0285 N   0  0  0  0  0  0  0  0  0  0  0  0
  130.6277  130.3146  159.5070 C   0  0  0  0  0  0  0  0  0  0  0  0
  130.4515  129.9508  160.6507 O   0  0  0  0  0  0  0  0  0  0  0  0
  131.5847  129.5668  158.6140 C   0  0  0  0  0  0  0  0  0  0  0  0
  131.1368  129.6432  157.2583 O   0  0  0  0  0  0  0  0  0  0  0  0
  128.4504  135.1206  160.5286 C   0  0  0  0  0  0  0  0  0  0  0  0
  127.1666  135.6263  160.4436 C   0  0  0  0  0  0  0  0  0  0  0  0
  126.1367  135.0172  161.1358 C   0  0  0  0  0  0  0  0  0  0  0  0
  126.3922  133.9086  161.9210 C   0  0  0  0  0  0  0  0  0  0  0  0
  127.6769  133.4059  162.0101 C   0  0  0  0  0  0  0  0  0  0  0  0
  128.7060  134.0119  161.3139 C   0  0  0  0  0  0  0  0  0  0  0  0
  128.2631  136.6400  158.2903 H   0  0  0  0  0  0  0  0  0  0  0  0
  128.5863  137.6950  159.6872 H   0  0  0  0  0  0  0  0  0  0  0  0
  129.8368  137.4576  158.4429 H   0  0  0  0  0  0  0  0  0  0  0  0
  130.3283  137.1999  161.2043 H   0  0  0  0  0  0  0  0  0  0  0  0
  130.7768  135.5095  161.5351 H   0  0  0  0  0  0  0  0  0  0  0  0
  133.8096  137.9217  159.4431 H   0  0  0  0  0  0  0  0  0  0  0  0
  135.1170  139.2436  161.0830 H   0  0  0  0  0  0  0  0  0  0  0  0
  135.8588  137.6288  161.1252 H   0  0  0  0  0  0  0  0  0  0  0  0
  133.8094  138.7800  163.0645 H   0  0  0  0  0  0  0  0  0  0  0  0
  135.4832  138.2835  163.4205 H   0  0  0  0  0  0  0  0  0  0  0  0
  133.9857  136.4968  164.1568 H   0  0  0  0  0  0  0  0  0  0  0  0
  134.8524  135.9313  162.7041 H   0  0  0  0  0  0  0  0  0  0  0  0
  132.0097  137.0161  162.8731 H   0  0  0  0  0  0  0  0  0  0  0  0
  132.5197  135.3812  162.3929 H   0  0  0  0  0  0  0  0  0  0  0  0
  130.7269  135.2864  158.1389 H   0  0  0  0  0  0  0  0  0  0  0  0
  128.5783  133.4456  158.9655 H   0  0  0  0  0  0  0  0  0  0  0  0
  128.4365  134.6370  157.6506 H   0  0  0  0  0  0  0  0  0  0  0  0
  129.6553  134.3439  155.5720 H   0  0  0  0  0  0  0  0  0  0  0  0
  130.7110  132.7598  154.0159 H   0  0  0  0  0  0  0  0  0  0  0  0
  131.4123  130.5334  154.8004 H   0  0  0  0  0  0  0  0  0  0  0  0
  129.3672  131.8953  159.6007 H   0  0  0  0  0  0  0  0  0  0  0  0
  132.5772  130.0103  158.6938 H   0  0  0  0  0  0  0  0  0  0  0  0
  131.6288  128.5225  158.9232 H   0  0  0  0  0  0  0  0  0  0  0  0
  126.9678  136.4951  159.8337 H   0  0  0  0  0  0  0  0  0  0  0  0
  125.1330  135.4101  161.0665 H   0  0  0  0  0  0  0  0  0  0  0  0
  125.5882  133.4354  162.4653 H   0  0  0  0  0  0  0  0  0  0  0  0
  127.8766  132.5400  162.6238 H   0  0  0  0  0  0  0  0  0  0  0  0
  129.7097  133.6195  161.3837 H   0  0  0  0  0  0  0  0  0  0  0  0
  1 32  1  0
  1 33  1  0
  1 34  1  0
  2  1  1  0
  2  3  1  0
  2 13  1  6
  2 26  1  0
  3  4  1  0
  3 35  1  0
  3 36  1  0
  4  5  1  0
  4  6  1  0
  4  7  1  0
  7 12  1  0
  7  8  2  0
  8  9  1  0
  8 37  1  0
  9 10  1  0
  9 38  1  0
  9 39  1  0
 10 11  1  0
 10 40  1  0
 10 41  1  0
 11 12  1  0
 11 42  1  0
 11 43  1  0
 12 44  1  0
 12 45  1  0
 13 14  1  0
 13 46  1  0
 14 15  1  0
 14 47  1  0
 14 48  1  0
 15 20  1  0
 15 16  2  0
 16 17  1  0
 16 49  1  0
 17 18  2  0
 17 50  1  0
 18 19  1  0
 18 51  1  0
 19 25  1  0
 19 20  2  0
 20 21  1  0
 21 22  1  0
 21 52  1  0
 22 23  2  0
 22 24  1  0
 24 25  1  0
 24 53  1  0
 24 54  1  0
 26 31  1  0
 26 27  2  0
 27 28  1  0
 27 55  1  0
 28 29  2  0
 28 56  1  0
 29 30  1  0
 29 57  1  0
 30 31  2  0
 30 58  1  0
 31 59  1  0
M  CHG  1   4   1
M  END
>  <DOCK_score>  (1) 
-57.804325

>  <SMILES>  (1) 
C[C@](C[NH2+]C1=CCCCC1)(NCc1cccc2c1NC(=O)CO2)c1ccccc1

$$$$
