C1=CC(NC(NC2CC=CC2)=[NH+][C@H]2CCC=C2c2cncs2)CC1
     RDKit          3D

 49 52  0  0  1  0  0  0  0  0999 V2000
  130.6356  130.5366  155.8907 C   0  0  0  0  0  0  0  0  0  0  0  0
  130.6289  131.8363  155.7440 C   0  0  0  0  0  0  0  0  0  0  0  0
  130.8939  132.5299  157.0600 C   0  0  1  0  0  0  0  0  0  0  0  0
  129.6450  133.0475  157.6246 N   0  0  0  0  0  0  0  0  0  0  0  0
  129.6589  133.7171  158.8253 C   0  0  0  0  0  0  0  0  0  0  0  0
  128.5618  133.6681  159.6524 N   0  0  0  0  0  0  0  0  0  0  0  0
  127.3780  132.9025  159.2544 C   0  0  0  0  0  0  0  0  0  0  0  0
  126.3541  132.8223  160.4103 C   0  0  0  0  0  0  0  0  0  0  0  0
  125.7742  131.4303  160.3140 C   0  0  0  0  0  0  0  0  0  0  0  0
  126.5220  130.6599  159.5718 C   0  0  0  0  0  0  0  0  0  0  0  0
  127.7254  131.4096  159.0495 C   0  0  0  0  0  0  0  0  0  0  0  0
  130.7121  134.3985  159.1794 N   0  0  0  0  0  0  0  0  0  0  0  0
  131.2778  134.8033  158.5033 H   0  0  0  0  0  0  0  0  0  0  0  0
  131.0384  134.5578  160.5987 C   0  0  1  0  0  0  0  0  0  0  0  0
  130.6920  133.6940  161.1661 H   0  0  0  0  0  0  0  0  0  0  0  0
  132.5615  134.7466  160.7827 C   0  0  0  0  0  0  0  0  0  0  0  0
  132.6869  136.2873  160.7910 C   0  0  0  0  0  0  0  0  0  0  0  0
  131.3342  136.7832  161.2468 C   0  0  0  0  0  0  0  0  0  0  0  0
  130.4205  135.8255  161.1412 C   0  0  0  0  0  0  0  0  0  0  0  0
  129.0015  135.9760  161.5020 C   0  0  0  0  0  0  0  0  0  0  0  0
  128.1318  136.8630  160.9654 C   0  0  0  0  0  0  0  0  0  0  0  0
  126.9166  136.7913  161.4595 N   0  0  0  0  0  0  0  0  0  0  0  0
  126.7028  135.9132  162.3822 C   0  0  0  0  0  0  0  0  0  0  0  0
  128.1334  135.0385  162.7155 S   0  0  0  0  0  0  0  0  0  0  0  0
  131.4840  131.4314  157.9744 C   0  0  0  0  0  0  0  0  0  0  0  0
  130.9069  130.1514  157.3264 C   0  0  0  0  0  0  0  0  0  0  0  0
  130.4697  129.8313  155.0899 H   0  0  0  0  0  0  0  0  0  0  0  0
  130.4565  132.3470  154.8081 H   0  0  0  0  0  0  0  0  0  0  0  0
  131.6125  133.3383  156.9252 H   0  0  0  0  0  0  0  0  0  0  0  0
  128.8083  132.9176  157.1513 H   0  0  0  0  0  0  0  0  0  0  0  0
  128.5715  134.1406  160.4995 H   0  0  0  0  0  0  0  0  0  0  0  0
  126.9245  133.3251  158.3578 H   0  0  0  0  0  0  0  0  0  0  0  0
  126.8530  132.9602  161.3697 H   0  0  0  0  0  0  0  0  0  0  0  0
  125.5719  133.5697  160.2773 H   0  0  0  0  0  0  0  0  0  0  0  0
  124.8606  131.1145  160.7956 H   0  0  0  0  0  0  0  0  0  0  0  0
  126.3084  129.6229  159.3587 H   0  0  0  0  0  0  0  0  0  0  0  0
  127.8756  131.1965  157.9911 H   0  0  0  0  0  0  0  0  0  0  0  0
  128.6163  131.1454  159.6195 H   0  0  0  0  0  0  0  0  0  0  0  0
  132.8959  134.3227  161.7294 H   0  0  0  0  0  0  0  0  0  0  0  0
  133.1122  134.3142  159.9474 H   0  0  0  0  0  0  0  0  0  0  0  0
  133.4615  136.6010  161.4908 H   0  0  0  0  0  0  0  0  0  0  0  0
  132.9081  136.6554  159.7891 H   0  0  0  0  0  0  0  0  0  0  0  0
  131.1371  137.7811  161.6098 H   0  0  0  0  0  0  0  0  0  0  0  0
  128.4116  137.5666  160.1955 H   0  0  0  0  0  0  0  0  0  0  0  0
  125.7545  135.7540  162.8739 H   0  0  0  0  0  0  0  0  0  0  0  0
  132.5732  131.4330  157.9350 H   0  0  0  0  0  0  0  0  0  0  0  0
  131.1315  131.5446  158.9996 H   0  0  0  0  0  0  0  0  0  0  0  0
  131.6353  129.3418  157.3712 H   0  0  0  0  0  0  0  0  0  0  0  0
  129.9816  129.8588  157.8224 H   0  0  0  0  0  0  0  0  0  0  0  0
  1 26  1  0
  1  2  2  0
  1 27  1  0
  2  3  1  0
  2 28  1  0
  3  4  1  0
  3 25  1  0
  3 29  1  6
  4 30  1  0
  5  4  1  0
  5  6  1  0
  5 12  2  0
  6  7  1  0
  6 31  1  0
  7 11  1  0
  7  8  1  0
  7 32  1  0
  8  9  1  0
  8 33  1  0
  8 34  1  0
  9 10  2  0
  9 35  1  0
 10 11  1  0
 10 36  1  0
 11 37  1  0
 11 38  1  0
 12 13  1  0
 12 14  1  0
 14 15  1  1
 14 19  1  0
 14 16  1  0
 16 17  1  0
 16 39  1  0
 16 40  1  0
 17 18  1  0
 17 41  1  0
 17 42  1  0
 18 19  2  0
 18 43  1  0
 19 20  1  0
 20 24  1  0
 20 21  2  0
 21 22  1  0
 21 44  1  0
 22 23  2  0
 23 24  1  0
 23 45  1  0
 25 26  1  0
 25 46  1  0
 25 47  1  0
 26 48  1  0
 26 49  1  0
M  CHG  1  12   1
M  END
>  <DOCK_score>  (1) 
-44.218906

>  <SMILES>  (1) 
C1=CC(NC(NC2CC=CC2)=[NH+][C@H]2CCC=C2c2cncs2)CC1

$$$$
