Fc1ccc([C@@H](Nc2[nH]cc(-c3ccncc3)[nH+]2)c2cccc(F)c2)cc1
     RDKit          3D

 44 47  0  0  1  0  0  0  0  0999 V2000
  124.0120  135.7838  156.5726 F   0  0  0  0  0  0  0  0  0  0  0  0
  125.1800  135.7362  157.2498 C   0  0  0  0  0  0  0  0  0  0  0  0
  125.1857  135.4331  158.6007 C   0  0  0  0  0  0  0  0  0  0  0  0
  126.3811  135.3851  159.2926 C   0  0  0  0  0  0  0  0  0  0  0  0
  127.5709  135.6392  158.6363 C   0  0  0  0  0  0  0  0  0  0  0  0
  128.8737  135.5862  159.3917 C   0  0  1  0  0  0  0  0  0  0  0  0
  128.7938  134.8634  160.2038 H   0  0  0  0  0  0  0  0  0  0  0  0
  129.9492  135.1822  158.4826 N   0  0  0  0  0  0  0  0  0  0  0  0
  129.8870  133.9593  157.8369 C   0  0  0  0  0  0  0  0  0  0  0  0
  129.2772  132.8402  158.3155 N   0  0  0  0  0  0  0  0  0  0  0  0
  128.8126  132.7572  159.1629 H   0  0  0  0  0  0  0  0  0  0  0  0
  129.4412  131.8512  157.3786 C   0  0  0  0  0  0  0  0  0  0  0  0
  130.1464  132.3925  156.3536 C   0  0  0  0  0  0  0  0  0  0  0  0
  130.5607  131.6930  155.1143 C   0  0  0  0  0  0  0  0  0  0  0  0
  130.1332  132.1399  153.8598 C   0  0  0  0  0  0  0  0  0  0  0  0
  130.5465  131.4626  152.7319 C   0  0  0  0  0  0  0  0  0  0  0  0
  131.3251  130.4019  152.8259 N   0  0  0  0  0  0  0  0  0  0  0  0
  131.7466  129.9438  153.9904 C   0  0  0  0  0  0  0  0  0  0  0  0
  131.3850  130.5643  155.1677 C   0  0  0  0  0  0  0  0  0  0  0  0
  130.4005  133.6897  156.6619 N   0  0  0  0  0  0  0  0  0  0  0  0
  130.8865  134.3161  156.1030 H   0  0  0  0  0  0  0  0  0  0  0  0
  129.1810  136.9478  159.9596 C   0  0  0  0  0  0  0  0  0  0  0  0
  128.7296  137.2882  161.2215 C   0  0  0  0  0  0  0  0  0  0  0  0
  129.0062  138.5387  161.7415 C   0  0  0  0  0  0  0  0  0  0  0  0
  129.7434  139.4466  161.0047 C   0  0  0  0  0  0  0  0  0  0  0  0
  130.2003  139.1050  159.7433 C   0  0  0  0  0  0  0  0  0  0  0  0
  130.9205  139.9917  159.0222 F   0  0  0  0  0  0  0  0  0  0  0  0
  129.9182  137.8537  159.2212 C   0  0  0  0  0  0  0  0  0  0  0  0
  127.5659  135.9476  157.2885 C   0  0  0  0  0  0  0  0  0  0  0  0
  126.3723  135.9911  156.5935 C   0  0  0  0  0  0  0  0  0  0  0  0
  124.2563  135.2344  159.1137 H   0  0  0  0  0  0  0  0  0  0  0  0
  126.3857  135.1486  160.3464 H   0  0  0  0  0  0  0  0  0  0  0  0
  130.7049  135.7716  158.3330 H   0  0  0  0  0  0  0  0  0  0  0  0
  129.0787  130.8360  157.4447 H   0  0  0  0  0  0  0  0  0  0  0  0
  129.4921  133.0051  153.7755 H   0  0  0  0  0  0  0  0  0  0  0  0
  130.2245  131.8024  151.7586 H   0  0  0  0  0  0  0  0  0  0  0  0
  132.3829  129.0717  154.0213 H   0  0  0  0  0  0  0  0  0  0  0  0
  131.7336  130.1847  156.1167 H   0  0  0  0  0  0  0  0  0  0  0  0
  128.1573  136.5780  161.7997 H   0  0  0  0  0  0  0  0  0  0  0  0
  128.6499  138.8049  162.7257 H   0  0  0  0  0  0  0  0  0  0  0  0
  129.9632  140.4220  161.4130 H   0  0  0  0  0  0  0  0  0  0  0  0
  130.2744  137.5860  158.2375 H   0  0  0  0  0  0  0  0  0  0  0  0
  128.4957  136.1507  156.7780 H   0  0  0  0  0  0  0  0  0  0  0  0
  126.3690  136.2279  155.5398 H   0  0  0  0  0  0  0  0  0  0  0  0
  1  2  1  0
  2 30  2  0
  2  3  1  0
  3  4  2  0
  3 31  1  0
  4  5  1  0
  4 32  1  0
  5  6  1  0
  5 29  2  0
  6  7  1  1
  6  8  1  0
  6 22  1  0
  8 33  1  0
  9  8  1  0
  9 20  2  0
  9 10  1  0
 10 11  1  0
 10 12  1  0
 12 13  2  0
 12 34  1  0
 13 14  1  0
 13 20  1  0
 14 19  1  0
 14 15  2  0
 15 16  1  0
 15 35  1  0
 16 17  2  0
 16 36  1  0
 17 18  1  0
 18 19  2  0
 18 37  1  0
 19 38  1  0
 20 21  1  0
 22 28  1  0
 22 23  2  0
 23 24  1  0
 23 39  1  0
 24 25  2  0
 24 40  1  0
 25 26  1  0
 25 41  1  0
 26 27  1  0
 26 28  2  0
 28 42  1  0
 29 30  1  0
 29 43  1  0
 30 44  1  0
M  CHG  1  20   1
M  END
>  <DOCK_score>  (1) 
-56.137775

>  <SMILES>  (1) 
Fc1ccc([C@@H](Nc2[nH]cc(-c3ccncc3)[nH+]2)c2cccc(F)c2)cc1

$$$$
