Cc1ccc([C@H](c2ccccc2)[NH+]2CCN(c3ccccc3Nc3cccc(C)c3O)CC2)cc1
     RDKit          3D

 69 73  0  0  1  0  0  0  0  0999 V2000
  131.3560  129.9160  154.6805 C   0  0  0  0  0  0  0  0  0  0  0  0
  130.9171  130.8243  155.8000 C   0  0  0  0  0  0  0  0  0  0  0  0
  130.6316  130.2976  157.0459 C   0  0  0  0  0  0  0  0  0  0  0  0
  130.2299  131.1308  158.0731 C   0  0  0  0  0  0  0  0  0  0  0  0
  130.1134  132.4908  157.8544 C   0  0  0  0  0  0  0  0  0  0  0  0
  129.6751  133.3992  158.9741 C   0  0  2  0  0  0  0  0  0  0  0  0
  129.4969  132.8084  159.8726 H   0  0  0  0  0  0  0  0  0  0  0  0
  128.4050  134.1073  158.5785 C   0  0  0  0  0  0  0  0  0  0  0  0
  127.1783  133.5374  158.8636 C   0  0  0  0  0  0  0  0  0  0  0  0
  126.0132  134.1889  158.5046 C   0  0  0  0  0  0  0  0  0  0  0  0
  126.0749  135.4063  157.8524 C   0  0  0  0  0  0  0  0  0  0  0  0
  127.3016  135.9738  157.5627 C   0  0  0  0  0  0  0  0  0  0  0  0
  128.4667  135.3243  157.9255 C   0  0  0  0  0  0  0  0  0  0  0  0
  130.7259  134.3906  159.2403 N   0  0  0  0  0  0  0  0  0  0  0  0
  130.8906  134.9373  158.4083 H   0  0  0  0  0  0  0  0  0  0  0  0
  131.9640  133.7001  159.6246 C   0  0  0  0  0  0  0  0  0  0  0  0
  133.0642  134.7317  159.8837 C   0  0  0  0  0  0  0  0  0  0  0  0
  132.6366  135.6407  160.9565 N   0  0  0  0  0  0  0  0  0  0  0  0
  133.6415  136.5671  161.2593 C   0  0  0  0  0  0  0  0  0  0  0  0
  134.1042  137.4354  160.2821 C   0  0  0  0  0  0  0  0  0  0  0  0
  135.0966  138.3498  160.5834 C   0  0  0  0  0  0  0  0  0  0  0  0
  135.6304  138.4021  161.8579 C   0  0  0  0  0  0  0  0  0  0  0  0
  135.1758  137.5397  162.8381 C   0  0  0  0  0  0  0  0  0  0  0  0
  134.1763  136.6234  162.5464 C   0  0  0  0  0  0  0  0  0  0  0  0
  133.7093  135.7540  163.5394 N   0  0  0  0  0  0  0  0  0  0  0  0
  134.5653  135.3403  164.5662 C   0  0  0  0  0  0  0  0  0  0  0  0
  135.7324  134.6529  164.2645 C   0  0  0  0  0  0  0  0  0  0  0  0
  136.5760  134.2453  165.2805 C   0  0  0  0  0  0  0  0  0  0  0  0
  136.2604  134.5209  166.5982 C   0  0  0  0  0  0  0  0  0  0  0  0
  135.0993  135.2059  166.9065 C   0  0  0  0  0  0  0  0  0  0  0  0
  134.7600  135.5042  168.3441 C   0  0  0  0  0  0  0  0  0  0  0  0
  134.2510  135.6226  165.8940 C   0  0  0  0  0  0  0  0  0  0  0  0
  133.1116  136.3013  166.1955 O   0  0  0  0  0  0  0  0  0  0  0  0
  131.3845  136.3209  160.5962 C   0  0  0  0  0  0  0  0  0  0  0  0
  130.2982  135.2763  160.3311 C   0  0  0  0  0  0  0  0  0  0  0  0
  130.3934  133.0168  156.6071 C   0  0  0  0  0  0  0  0  0  0  0  0
  130.8006  132.1842  155.5814 C   0  0  0  0  0  0  0  0  0  0  0  0
  130.4813  129.5677  154.1311 H   0  0  0  0  0  0  0  0  0  0  0  0
  132.0147  130.4629  154.0059 H   0  0  0  0  0  0  0  0  0  0  0  0
  131.8893  129.0603  155.0947 H   0  0  0  0  0  0  0  0  0  0  0  0
  130.7227  129.2350  157.2167 H   0  0  0  0  0  0  0  0  0  0  0  0
  130.0068  130.7193  159.0463 H   0  0  0  0  0  0  0  0  0  0  0  0
  127.1302  132.5844  159.3698 H   0  0  0  0  0  0  0  0  0  0  0  0
  125.0549  133.7458  158.7312 H   0  0  0  0  0  0  0  0  0  0  0  0
  125.1647  135.9141  157.5696 H   0  0  0  0  0  0  0  0  0  0  0  0
  127.3498  136.9248  157.0532 H   0  0  0  0  0  0  0  0  0  0  0  0
  129.4251  135.7676  157.6991 H   0  0  0  0  0  0  0  0  0  0  0  0
  131.7899  133.1194  160.5305 H   0  0  0  0  0  0  0  0  0  0  0  0
  132.2733  133.0334  158.8197 H   0  0  0  0  0  0  0  0  0  0  0  0
  133.2482  135.3034  158.9742 H   0  0  0  0  0  0  0  0  0  0  0  0
  133.9790  134.2202  160.1836 H   0  0  0  0  0  0  0  0  0  0  0  0
  133.6894  137.3975  159.2858 H   0  0  0  0  0  0  0  0  0  0  0  0
  135.4556  139.0255  159.8212 H   0  0  0  0  0  0  0  0  0  0  0  0
  136.4052  139.1185  162.0881 H   0  0  0  0  0  0  0  0  0  0  0  0
  135.5955  137.5829  163.8323 H   0  0  0  0  0  0  0  0  0  0  0  0
  132.7924  135.4384  163.5157 H   0  0  0  0  0  0  0  0  0  0  0  0
  135.9816  134.4366  163.2362 H   0  0  0  0  0  0  0  0  0  0  0  0
  137.4842  133.7106  165.0446 H   0  0  0  0  0  0  0  0  0  0  0  0
  136.9227  134.2004  167.3889 H   0  0  0  0  0  0  0  0  0  0  0  0
  135.1865  136.4669  168.6260 H   0  0  0  0  0  0  0  0  0  0  0  0
  133.6769  135.5382  168.4622 H   0  0  0  0  0  0  0  0  0  0  0  0
  135.1710  134.7234  168.9840 H   0  0  0  0  0  0  0  0  0  0  0  0
  132.5836  136.5461  165.4234 H   0  0  0  0  0  0  0  0  0  0  0  0
  131.5408  136.9188  159.6982 H   0  0  0  0  0  0  0  0  0  0  0  0
  131.0737  136.9689  161.4155 H   0  0  0  0  0  0  0  0  0  0  0  0
  129.3723  135.7782  160.0499 H   0  0  0  0  0  0  0  0  0  0  0  0
  130.1324  134.6875  161.2334 H   0  0  0  0  0  0  0  0  0  0  0  0
  130.2981  134.0787  156.4350 H   0  0  0  0  0  0  0  0  0  0  0  0
  131.0239  132.5958  154.6082 H   0  0  0  0  0  0  0  0  0  0  0  0
  1  2  1  0
  1 38  1  0
  1 39  1  0
  1 40  1  0
  2 37  2  0
  2  3  1  0
  3  4  2  0
  3 41  1  0
  4  5  1  0
  4 42  1  0
  5  6  1  0
  5 36  2  0
  6  7  1  1
  6  8  1  0
  6 14  1  0
  8 13  1  0
  8  9  2  0
  9 10  1  0
  9 43  1  0
 10 11  2  0
 10 44  1  0
 11 12  1  0
 11 45  1  0
 12 13  2  0
 12 46  1  0
 13 47  1  0
 14 15  1  0
 14 35  1  0
 14 16  1  0
 16 17  1  0
 16 48  1  0
 16 49  1  0
 17 18  1  0
 17 50  1  0
 17 51  1  0
 18 19  1  0
 18 34  1  0
 19 24  1  0
 19 20  2  0
 20 21  1  0
 20 52  1  0
 21 22  2  0
 21 53  1  0
 22 23  1  0
 22 54  1  0
 23 24  2  0
 23 55  1  0
 24 25  1  0
 25 26  1  0
 25 56  1  0
 26 32  1  0
 26 27  2  0
 27 28  1  0
 27 57  1  0
 28 29  2  0
 28 58  1  0
 29 30  1  0
 29 59  1  0
 30 31  1  0
 30 32  2  0
 31 60  1  0
 31 61  1  0
 31 62  1  0
 32 33  1  0
 33 63  1  0
 34 35  1  0
 34 64  1  0
 34 65  1  0
 35 66  1  0
 35 67  1  0
 36 37  1  0
 36 68  1  0
 37 69  1  0
M  CHG  1  14   1
M  END
>  <DOCK_score>  (1) 
-59.808647

>  <SMILES>  (1) 
Cc1ccc([C@H](c2ccccc2)[NH+]2CCN(c3ccccc3Nc3cccc(C)c3O)CC2)cc1

$$$$
