CCc1ccc(-c2c[nH]c(N[C@@H](C)Cc3ccc(C4=CCCCC4)cc3)[nH+]2)cc1
     RDKit          3D

 61 64  0  0  1  0  0  0  0  0999 V2000
  130.4256  128.6467  151.7906 C   0  0  0  0  0  0  0  0  0  0  0  0
  131.4846  129.6913  152.1483 C   0  0  0  0  0  0  0  0  0  0  0  0
  131.0738  130.4132  153.4058 C   0  0  0  0  0  0  0  0  0  0  0  0
  131.4690  129.9278  154.6388 C   0  0  0  0  0  0  0  0  0  0  0  0
  131.1006  130.5877  155.7936 C   0  0  0  0  0  0  0  0  0  0  0  0
  130.3192  131.7392  155.7159 C   0  0  0  0  0  0  0  0  0  0  0  0
  129.9154  132.4498  156.9538 C   0  0  0  0  0  0  0  0  0  0  0  0
  129.1858  131.9288  157.9712 C   0  0  0  0  0  0  0  0  0  0  0  0
  129.0437  132.9222  158.9093 N   0  0  0  0  0  0  0  0  0  0  0  0
  128.5691  132.8526  159.7524 H   0  0  0  0  0  0  0  0  0  0  0  0
  129.6912  134.0222  158.4373 C   0  0  0  0  0  0  0  0  0  0  0  0
  129.7854  135.2422  159.0847 N   0  0  0  0  0  0  0  0  0  0  0  0
  129.1543  135.4274  160.3938 C   0  0  1  0  0  0  0  0  0  0  0  0
  128.1847  134.9296  160.4033 H   0  0  0  0  0  0  0  0  0  0  0  0
  130.0475  134.8253  161.4803 C   0  0  0  0  0  0  0  0  0  0  0  0
  128.9632  136.9218  160.6609 C   0  0  0  0  0  0  0  0  0  0  0  0
  130.3038  137.6100  160.6478 C   0  0  0  0  0  0  0  0  0  0  0  0
  130.8042  138.1208  159.4633 C   0  0  0  0  0  0  0  0  0  0  0  0
  132.0288  138.7562  159.4455 C   0  0  0  0  0  0  0  0  0  0  0  0
  132.7676  138.8737  160.6233 C   0  0  0  0  0  0  0  0  0  0  0  0
  134.0829  139.5479  160.6102 C   0  0  0  0  0  0  0  0  0  0  0  0
  135.0219  139.0537  159.8403 C   0  0  0  0  0  0  0  0  0  0  0  0
  136.4045  139.6281  159.7339 C   0  0  0  0  0  0  0  0  0  0  0  0
  136.4255  141.0555  160.2848 C   0  0  0  0  0  0  0  0  0  0  0  0
  135.7547  141.0547  161.6639 C   0  0  0  0  0  0  0  0  0  0  0  0
  134.2632  140.7616  161.4745 C   0  0  0  0  0  0  0  0  0  0  0  0
  132.2597  138.3517  161.8134 C   0  0  0  0  0  0  0  0  0  0  0  0
  131.0314  137.7231  161.8190 C   0  0  0  0  0  0  0  0  0  0  0  0
  130.2158  133.7342  157.2711 N   0  0  0  0  0  0  0  0  0  0  0  0
  130.7339  134.3430  156.7217 H   0  0  0  0  0  0  0  0  0  0  0  0
  129.9190  132.2208  154.4707 C   0  0  0  0  0  0  0  0  0  0  0  0
  130.2981  131.5559  153.3223 C   0  0  0  0  0  0  0  0  0  0  0  0
  130.7226  128.1248  150.8810 H   0  0  0  0  0  0  0  0  0  0  0  0
  130.3326  127.9302  152.6068 H   0  0  0  0  0  0  0  0  0  0  0  0
  129.4673  129.1406  151.6298 H   0  0  0  0  0  0  0  0  0  0  0  0
  132.4426  129.1981  152.3086 H   0  0  0  0  0  0  0  0  0  0  0  0
  131.5773  130.4084  151.3316 H   0  0  0  0  0  0  0  0  0  0  0  0
  132.0705  129.0327  154.6981 H   0  0  0  0  0  0  0  0  0  0  0  0
  131.4137  130.2103  156.7559 H   0  0  0  0  0  0  0  0  0  0  0  0
  128.7916  130.9251  158.0321 H   0  0  0  0  0  0  0  0  0  0  0  0
  130.2694  135.9744  158.6716 H   0  0  0  0  0  0  0  0  0  0  0  0
  131.0172  135.3230  161.4707 H   0  0  0  0  0  0  0  0  0  0  0  0
  129.5779  134.9631  162.4543 H   0  0  0  0  0  0  0  0  0  0  0  0
  130.1837  133.7607  161.2899 H   0  0  0  0  0  0  0  0  0  0  0  0
  128.3270  137.3508  159.8868 H   0  0  0  0  0  0  0  0  0  0  0  0
  128.4936  137.0596  161.6349 H   0  0  0  0  0  0  0  0  0  0  0  0
  130.2332  138.0255  158.5517 H   0  0  0  0  0  0  0  0  0  0  0  0
  132.4164  139.1582  158.5211 H   0  0  0  0  0  0  0  0  0  0  0  0
  134.7868  138.1820  159.2474 H   0  0  0  0  0  0  0  0  0  0  0  0
  137.0974  139.0103  160.3047 H   0  0  0  0  0  0  0  0  0  0  0  0
  136.7113  139.6401  158.6880 H   0  0  0  0  0  0  0  0  0  0  0  0
  137.4566  141.3965  160.3792 H   0  0  0  0  0  0  0  0  0  0  0  0
  135.8817  141.7166  159.6101 H   0  0  0  0  0  0  0  0  0  0  0  0
  136.2060  140.2854  162.2903 H   0  0  0  0  0  0  0  0  0  0  0  0
  135.8814  142.0301  162.1335 H   0  0  0  0  0  0  0  0  0  0  0  0
  133.7807  141.6169  161.0015 H   0  0  0  0  0  0  0  0  0  0  0  0
  133.8054  140.5835  162.4476 H   0  0  0  0  0  0  0  0  0  0  0  0
  132.8266  138.4397  162.7285 H   0  0  0  0  0  0  0  0  0  0  0  0
  130.6374  137.3182  162.7394 H   0  0  0  0  0  0  0  0  0  0  0  0
  129.3133  133.1126  154.4047 H   0  0  0  0  0  0  0  0  0  0  0  0
  129.9883  131.9281  152.3569 H   0  0  0  0  0  0  0  0  0  0  0  0
  1  2  1  0
  1 33  1  0
  1 34  1  0
  1 35  1  0
  2  3  1  0
  2 36  1  0
  2 37  1  0
  3 32  2  0
  3  4  1  0
  4  5  2  0
  4 38  1  0
  5  6  1  0
  5 39  1  0
  6  7  1  0
  6 31  2  0
  7 29  1  0
  7  8  2  0
  8  9  1  0
  8 40  1  0
  9 10  1  0
  9 11  1  0
 11 12  1  0
 11 29  2  0
 12 13  1  0
 12 41  1  0
 13 14  1  6
 13 15  1  0
 13 16  1  0
 15 42  1  0
 15 43  1  0
 15 44  1  0
 16 17  1  0
 16 45  1  0
 16 46  1  0
 17 28  1  0
 17 18  2  0
 18 19  1  0
 18 47  1  0
 19 20  2  0
 19 48  1  0
 20 21  1  0
 20 27  1  0
 21 26  1  0
 21 22  2  0
 22 23  1  0
 22 49  1  0
 23 24  1  0
 23 50  1  0
 23 51  1  0
 24 25  1  0
 24 52  1  0
 24 53  1  0
 25 26  1  0
 25 54  1  0
 25 55  1  0
 26 56  1  0
 26 57  1  0
 27 28  2  0
 27 58  1  0
 28 59  1  0
 29 30  1  0
 31 32  1  0
 31 60  1  0
 32 61  1  0
M  CHG  1  29   1
M  END
>  <DOCK_score>  (1) 
-59.548058

>  <SMILES>  (1) 
CCc1ccc(-c2c[nH]c(N[C@@H](C)Cc3ccc(C4=CCCCC4)cc3)[nH+]2)cc1

$$$$
