Cc1n[nH]cc1C[C@H](Nc1[nH]cc(-c2ccc(N)cc2)[nH+]1)c1ccccc1F
     RDKit          3D

 50 53  0  0  1  0  0  0  0  0999 V2000
  130.2330  138.2736  163.1035 C   0  0  0  0  0  0  0  0  0  0  0  0
  130.8611  138.5312  161.7581 C   0  0  0  0  0  0  0  0  0  0  0  0
  131.9871  139.1627  161.5454 N   0  0  0  0  0  0  0  0  0  0  0  0
  132.2164  139.1953  160.1639 N   0  0  0  0  0  0  0  0  0  0  0  0
  132.9762  139.6046  159.7209 H   0  0  0  0  0  0  0  0  0  0  0  0
  131.1934  138.5570  159.5579 C   0  0  0  0  0  0  0  0  0  0  0  0
  130.3430  138.1332  160.5215 C   0  0  0  0  0  0  0  0  0  0  0  0
  129.0611  137.3725  160.3005 C   0  0  0  0  0  0  0  0  0  0  0  0
  129.3489  135.8700  160.3241 C   0  0  2  0  0  0  0  0  0  0  0  0
  129.7719  135.5963  161.2907 H   0  0  0  0  0  0  0  0  0  0  0  0
  130.3026  135.5388  159.2624 N   0  0  0  0  0  0  0  0  0  0  0  0
  130.2668  134.2908  158.6643 C   0  0  0  0  0  0  0  0  0  0  0  0
  129.8613  133.1371  159.2612 N   0  0  0  0  0  0  0  0  0  0  0  0
  129.5486  133.0419  160.1745 H   0  0  0  0  0  0  0  0  0  0  0  0
  129.9772  132.1316  158.3309 C   0  0  0  0  0  0  0  0  0  0  0  0
  130.4497  132.7001  157.1943 C   0  0  0  0  0  0  0  0  0  0  0  0
  130.7323  131.9971  155.9188 C   0  0  0  0  0  0  0  0  0  0  0  0
  130.6000  132.6714  154.7060 C   0  0  0  0  0  0  0  0  0  0  0  0
  130.8687  132.0177  153.5220 C   0  0  0  0  0  0  0  0  0  0  0  0
  131.2602  130.6842  153.5365 C   0  0  0  0  0  0  0  0  0  0  0  0
  131.5265  130.0219  152.3358 N   0  0  0  0  0  0  0  0  0  0  0  0
  131.3873  130.0083  154.7443 C   0  0  0  0  0  0  0  0  0  0  0  0
  131.1251  130.6597  155.9311 C   0  0  0  0  0  0  0  0  0  0  0  0
  130.6127  134.0265  157.4279 N   0  0  0  0  0  0  0  0  0  0  0  0
  130.9356  134.6754  156.7834 H   0  0  0  0  0  0  0  0  0  0  0  0
  128.0670  135.1093  160.1032 C   0  0  0  0  0  0  0  0  0  0  0  0
  127.3461  135.2929  158.9381 C   0  0  0  0  0  0  0  0  0  0  0  0
  126.1705  134.5950  158.7350 C   0  0  0  0  0  0  0  0  0  0  0  0
  125.7140  133.7126  159.6967 C   0  0  0  0  0  0  0  0  0  0  0  0
  126.4329  133.5275  160.8621 C   0  0  0  0  0  0  0  0  0  0  0  0
  127.6109  134.2261  161.0667 C   0  0  0  0  0  0  0  0  0  0  0  0
  128.3145  134.0463  162.2060 F   0  0  0  0  0  0  0  0  0  0  0  0
  130.5957  137.3244  163.4980 H   0  0  0  0  0  0  0  0  0  0  0  0
  130.4999  139.0778  163.7892 H   0  0  0  0  0  0  0  0  0  0  0  0
  129.1490  138.2320  162.9965 H   0  0  0  0  0  0  0  0  0  0  0  0
  131.0745  138.4109  158.4945 H   0  0  0  0  0  0  0  0  0  0  0  0
  128.6381  137.6463  159.3338 H   0  0  0  0  0  0  0  0  0  0  0  0
  128.3516  137.6189  161.0904 H   0  0  0  0  0  0  0  0  0  0  0  0
  130.9590  136.1940  158.9785 H   0  0  0  0  0  0  0  0  0  0  0  0
  129.7378  131.0887  158.4774 H   0  0  0  0  0  0  0  0  0  0  0  0
  130.2910  133.7063  154.6939 H   0  0  0  0  0  0  0  0  0  0  0  0
  130.7701  132.5409  152.5823 H   0  0  0  0  0  0  0  0  0  0  0  0
  131.8004  129.0919  152.3449 H   0  0  0  0  0  0  0  0  0  0  0  0
  131.4383  130.4936  151.4922 H   0  0  0  0  0  0  0  0  0  0  0  0
  131.6913  128.9720  154.7532 H   0  0  0  0  0  0  0  0  0  0  0  0
  131.2244  130.1342  156.8694 H   0  0  0  0  0  0  0  0  0  0  0  0
  127.6994  135.9852  158.1882 H   0  0  0  0  0  0  0  0  0  0  0  0
  125.6079  134.7390  157.8243 H   0  0  0  0  0  0  0  0  0  0  0  0
  124.7953  133.1679  159.5370 H   0  0  0  0  0  0  0  0  0  0  0  0
  126.0764  132.8380  161.6131 H   0  0  0  0  0  0  0  0  0  0  0  0
  1  2  1  0
  1 33  1  0
  1 34  1  0
  1 35  1  0
  2  7  1  0
  2  3  2  0
  3  4  1  0
  4  5  1  0
  4  6  1  0
  6  7  2  0
  6 36  1  0
  7  8  1  0
  8  9  1  0
  8 37  1  0
  8 38  1  0
  9 10  1  1
  9 11  1  0
  9 26  1  0
 11 39  1  0
 12 11  1  0
 12 24  2  0
 12 13  1  0
 13 14  1  0
 13 15  1  0
 15 16  2  0
 15 40  1  0
 16 17  1  0
 16 24  1  0
 17 23  1  0
 17 18  2  0
 18 19  1  0
 18 41  1  0
 19 20  2  0
 19 42  1  0
 20 21  1  0
 20 22  1  0
 21 43  1  0
 21 44  1  0
 22 23  2  0
 22 45  1  0
 23 46  1  0
 24 25  1  0
 26 31  1  0
 26 27  2  0
 27 28  1  0
 27 47  1  0
 28 29  2  0
 28 48  1  0
 29 30  1  0
 29 49  1  0
 30 31  2  0
 30 50  1  0
 31 32  1  0
M  CHG  1  24   1
M  END
>  <DOCK_score>  (1) 
-57.536911

>  <SMILES>  (1) 
Cc1n[nH]cc1C[C@H](Nc1[nH]cc(-c2ccc(N)cc2)[nH+]1)c1ccccc1F

$$$$
