Cn1nccc1[C@H](CSCc1cc(F)ccc1F)Nc1[nH]cc(-c2ccc(N)cc2)[nH+]1
     RDKit          3D

 54 57  0  0  1  0  0  0  0  0999 V2000
  127.4374  134.8307  162.3406 C   0  0  0  0  0  0  0  0  0  0  0  0
  127.0498  135.1812  160.9719 N   0  0  0  0  0  0  0  0  0  0  0  0
  125.7476  135.1703  160.4557 N   0  0  0  0  0  0  0  0  0  0  0  0
  125.8023  135.5371  159.2009 C   0  0  0  0  0  0  0  0  0  0  0  0
  127.1385  135.7976  158.8797 C   0  0  0  0  0  0  0  0  0  0  0  0
  127.8839  135.5742  159.9866 C   0  0  0  0  0  0  0  0  0  0  0  0
  129.3788  135.7299  160.0974 C   0  0  2  0  0  0  0  0  0  0  0  0
  129.7641  135.0242  160.8332 H   0  0  0  0  0  0  0  0  0  0  0  0
  129.7116  137.1573  160.5366 C   0  0  0  0  0  0  0  0  0  0  0  0
  131.5110  137.3448  160.6700 S   0  0  0  0  0  0  0  0  0  0  0  0
  131.7414  139.1420  160.5835 C   0  0  0  0  0  0  0  0  0  0  0  0
  133.1640  139.4479  160.1915 C   0  0  0  0  0  0  0  0  0  0  0  0
  134.1301  139.6087  161.1666 C   0  0  0  0  0  0  0  0  0  0  0  0
  135.4379  139.8849  160.8065 C   0  0  0  0  0  0  0  0  0  0  0  0
  136.3835  140.0368  161.7594 F   0  0  0  0  0  0  0  0  0  0  0  0
  135.7758  140.0107  159.4695 C   0  0  0  0  0  0  0  0  0  0  0  0
  134.8090  139.8549  158.4949 C   0  0  0  0  0  0  0  0  0  0  0  0
  133.5020  139.5731  158.8551 C   0  0  0  0  0  0  0  0  0  0  0  0
  132.5566  139.4209  157.9021 F   0  0  0  0  0  0  0  0  0  0  0  0
  129.9954  135.4633  158.7955 N   0  0  0  0  0  0  0  0  0  0  0  0
  129.8316  134.2281  158.1919 C   0  0  0  0  0  0  0  0  0  0  0  0
  129.1200  133.1858  158.7003 N   0  0  0  0  0  0  0  0  0  0  0  0
  128.6405  133.1743  159.5435 H   0  0  0  0  0  0  0  0  0  0  0  0
  129.2065  132.1518  157.7984 C   0  0  0  0  0  0  0  0  0  0  0  0
  129.9677  132.5928  156.7666 C   0  0  0  0  0  0  0  0  0  0  0  0
  130.3334  131.8157  155.5570 C   0  0  0  0  0  0  0  0  0  0  0  0
  129.9531  132.2690  154.2947 C   0  0  0  0  0  0  0  0  0  0  0  0
  130.2986  131.5476  153.1713 C   0  0  0  0  0  0  0  0  0  0  0  0
  131.0152  130.3640  153.2974 C   0  0  0  0  0  0  0  0  0  0  0  0
  131.3590  129.6322  152.1581 N   0  0  0  0  0  0  0  0  0  0  0  0
  131.3909  129.9071  154.5555 C   0  0  0  0  0  0  0  0  0  0  0  0
  131.0526  130.6281  155.6812 C   0  0  0  0  0  0  0  0  0  0  0  0
  130.3319  133.8720  157.0339 N   0  0  0  0  0  0  0  0  0  0  0  0
  130.8775  134.4328  156.4605 H   0  0  0  0  0  0  0  0  0  0  0  0
  127.4097  135.7231  162.9658 H   0  0  0  0  0  0  0  0  0  0  0  0
  126.7437  134.0885  162.7359 H   0  0  0  0  0  0  0  0  0  0  0  0
  128.4469  134.4198  162.3384 H   0  0  0  0  0  0  0  0  0  0  0  0
  124.9609  135.6241  158.5294 H   0  0  0  0  0  0  0  0  0  0  0  0
  127.5095  136.1204  157.9181 H   0  0  0  0  0  0  0  0  0  0  0  0
  129.3263  137.8631  159.8006 H   0  0  0  0  0  0  0  0  0  0  0  0
  129.2527  137.3556  161.5052 H   0  0  0  0  0  0  0  0  0  0  0  0
  131.0620  139.5601  159.8408 H   0  0  0  0  0  0  0  0  0  0  0  0
  131.5304  139.5828  161.5579 H   0  0  0  0  0  0  0  0  0  0  0  0
  133.8656  139.5151  162.2096 H   0  0  0  0  0  0  0  0  0  0  0  0
  136.7952  140.2310  159.1886 H   0  0  0  0  0  0  0  0  0  0  0  0
  135.0725  139.9534  157.4521 H   0  0  0  0  0  0  0  0  0  0  0  0
  130.5184  136.1523  158.3563 H   0  0  0  0  0  0  0  0  0  0  0  0
  128.7547  131.1755  157.8933 H   0  0  0  0  0  0  0  0  0  0  0  0
  129.3919  133.1864  154.1964 H   0  0  0  0  0  0  0  0  0  0  0  0
  130.0080  131.9009  152.1929 H   0  0  0  0  0  0  0  0  0  0  0  0
  131.8597  128.8052  152.2460 H   0  0  0  0  0  0  0  0  0  0  0  0
  131.0975  129.9495  151.2805 H   0  0  0  0  0  0  0  0  0  0  0  0
  131.9479  128.9867  154.6514 H   0  0  0  0  0  0  0  0  0  0  0  0
  131.3450  130.2730  156.6585 H   0  0  0  0  0  0  0  0  0  0  0  0
  1  2  1  0
  1 35  1  0
  1 36  1  0
  1 37  1  0
  2  6  1  0
  2  3  1  0
  3  4  2  0
  4  5  1  0
  4 38  1  0
  5  6  2  0
  5 39  1  0
  6  7  1  0
  7  8  1  1
  7  9  1  0
  7 20  1  0
  9 10  1  0
  9 40  1  0
  9 41  1  0
 10 11  1  0
 11 12  1  0
 11 42  1  0
 11 43  1  0
 12 18  1  0
 12 13  2  0
 13 14  1  0
 13 44  1  0
 14 15  1  0
 14 16  2  0
 16 17  1  0
 16 45  1  0
 17 18  2  0
 17 46  1  0
 18 19  1  0
 20 47  1  0
 21 20  1  0
 21 33  2  0
 21 22  1  0
 22 23  1  0
 22 24  1  0
 24 25  2  0
 24 48  1  0
 25 26  1  0
 25 33  1  0
 26 32  1  0
 26 27  2  0
 27 28  1  0
 27 49  1  0
 28 29  2  0
 28 50  1  0
 29 30  1  0
 29 31  1  0
 30 51  1  0
 30 52  1  0
 31 32  2  0
 31 53  1  0
 32 54  1  0
 33 34  1  0
M  CHG  1  33   1
M  END
>  <DOCK_score>  (1) 
-62.360043

>  <SMILES>  (1) 
Cn1nccc1[C@H](CSCc1cc(F)ccc1F)Nc1[nH]cc(-c2ccc(N)cc2)[nH+]1

$$$$
