C[C@@H](CCc1c[nH]c2ccccc12)Nc1[nH]c(CCC(=O)Nc2cccc(O)c2)c[nH+]1
     RDKit          3D

 59 62  0  0  1  0  0  0  0  0999 V2000
  132.9610  133.7767  161.4077 C   0  0  0  0  0  0  0  0  0  0  0  0
  132.1444  135.0636  161.2739 C   0  0  1  0  0  0  0  0  0  0  0  0
  131.3459  135.0661  162.0159 H   0  0  0  0  0  0  0  0  0  0  0  0
  133.0555  136.2717  161.5013 C   0  0  0  0  0  0  0  0  0  0  0  0
  132.2389  137.5586  161.3676 C   0  0  0  0  0  0  0  0  0  0  0  0
  133.1363  138.7485  161.5915 C   0  0  0  0  0  0  0  0  0  0  0  0
  133.3943  139.3441  162.7666 C   0  0  0  0  0  0  0  0  0  0  0  0
  134.2538  140.3921  162.5795 N   0  0  0  0  0  0  0  0  0  0  0  0
  134.5857  140.9729  163.2820 H   0  0  0  0  0  0  0  0  0  0  0  0
  134.5780  140.4991  161.2456 C   0  0  0  0  0  0  0  0  0  0  0  0
  135.3919  141.3669  160.5244 C   0  0  0  0  0  0  0  0  0  0  0  0
  135.5169  141.2137  159.1612 C   0  0  0  0  0  0  0  0  0  0  0  0
  134.8381  140.2007  158.4975 C   0  0  0  0  0  0  0  0  0  0  0  0
  134.0334  139.3374  159.1859 C   0  0  0  0  0  0  0  0  0  0  0  0
  133.8974  139.4706  160.5692 C   0  0  0  0  0  0  0  0  0  0  0  0
  131.5634  135.1361  159.9310 N   0  0  0  0  0  0  0  0  0  0  0  0
  130.3134  134.5920  159.6871 C   0  0  0  0  0  0  0  0  0  0  0  0
  129.5282  133.9613  160.6014 N   0  0  0  0  0  0  0  0  0  0  0  0
  129.7383  133.8109  161.5364 H   0  0  0  0  0  0  0  0  0  0  0  0
  128.3778  133.5791  159.9490 C   0  0  0  0  0  0  0  0  0  0  0  0
  127.2054  132.8484  160.5515 C   0  0  0  0  0  0  0  0  0  0  0  0
  126.1970  133.8626  161.0949 C   0  0  0  0  0  0  0  0  0  0  0  0
  126.8572  134.7106  162.1515 C   0  0  0  0  0  0  0  0  0  0  0  0
  127.7521  134.2493  162.8275 O   0  0  0  0  0  0  0  0  0  0  0  0
  126.4531  135.9818  162.3449 N   0  0  0  0  0  0  0  0  0  0  0  0
  127.0662  136.7692  163.3257 C   0  0  0  0  0  0  0  0  0  0  0  0
  128.3964  136.5505  163.6618 C   0  0  0  0  0  0  0  0  0  0  0  0
  129.0034  137.3319  164.6255 C   0  0  0  0  0  0  0  0  0  0  0  0
  128.2864  138.3246  165.2664 C   0  0  0  0  0  0  0  0  0  0  0  0
  126.9559  138.5438  164.9387 C   0  0  0  0  0  0  0  0  0  0  0  0
  126.2523  139.5202  165.5696 O   0  0  0  0  0  0  0  0  0  0  0  0
  126.3450  137.7657  163.9676 C   0  0  0  0  0  0  0  0  0  0  0  0
  128.5011  133.9775  158.6717 C   0  0  0  0  0  0  0  0  0  0  0  0
  129.6880  134.5927  158.5338 N   0  0  0  0  0  0  0  0  0  0  0  0
  130.0286  134.9771  157.7109 H   0  0  0  0  0  0  0  0  0  0  0  0
  133.7595  133.7744  160.6656 H   0  0  0  0  0  0  0  0  0  0  0  0
  133.3933  133.7229  162.4067 H   0  0  0  0  0  0  0  0  0  0  0  0
  132.3120  132.9162  161.2455 H   0  0  0  0  0  0  0  0  0  0  0  0
  133.4877  136.2178  162.5005 H   0  0  0  0  0  0  0  0  0  0  0  0
  133.8540  136.2693  160.7594 H   0  0  0  0  0  0  0  0  0  0  0  0
  131.8066  137.6125  160.3684 H   0  0  0  0  0  0  0  0  0  0  0  0
  131.4404  137.5610  162.1095 H   0  0  0  0  0  0  0  0  0  0  0  0
  132.9841  139.0409  163.7186 H   0  0  0  0  0  0  0  0  0  0  0  0
  135.9239  142.1583  161.0316 H   0  0  0  0  0  0  0  0  0  0  0  0
  136.1489  141.8885  158.6031 H   0  0  0  0  0  0  0  0  0  0  0  0
  134.9466  140.0945  157.4281 H   0  0  0  0  0  0  0  0  0  0  0  0
  133.5083  138.5520  158.6628 H   0  0  0  0  0  0  0  0  0  0  0  0
  132.0542  135.5652  159.2127 H   0  0  0  0  0  0  0  0  0  0  0  0
  126.7280  132.2351  159.7873 H   0  0  0  0  0  0  0  0  0  0  0  0
  127.5535  132.2107  161.3641 H   0  0  0  0  0  0  0  0  0  0  0  0
  125.8490  134.5003  160.2823 H   0  0  0  0  0  0  0  0  0  0  0  0
  125.3492  133.3341  161.5308 H   0  0  0  0  0  0  0  0  0  0  0  0
  125.7373  136.3507  161.8042 H   0  0  0  0  0  0  0  0  0  0  0  0
  128.9574  135.7723  163.1659 H   0  0  0  0  0  0  0  0  0  0  0  0
  130.0389  137.1637  164.8822 H   0  0  0  0  0  0  0  0  0  0  0  0
  128.7624  138.9308  166.0230 H   0  0  0  0  0  0  0  0  0  0  0  0
  126.7625  140.0085  166.2301 H   0  0  0  0  0  0  0  0  0  0  0  0
  125.3097  137.9350  163.7110 H   0  0  0  0  0  0  0  0  0  0  0  0
  127.7711  133.8294  157.8897 H   0  0  0  0  0  0  0  0  0  0  0  0
  1  2  1  0
  1 36  1  0
  1 37  1  0
  1 38  1  0
  2  3  1  1
  2  4  1  0
  2 16  1  0
  4  5  1  0
  4 39  1  0
  4 40  1  0
  5  6  1  0
  5 41  1  0
  5 42  1  0
  6 15  1  0
  6  7  2  0
  7  8  1  0
  7 43  1  0
  8  9  1  0
  8 10  1  0
 10 15  2  0
 10 11  1  0
 11 12  2  0
 11 44  1  0
 12 13  1  0
 12 45  1  0
 13 14  2  0
 13 46  1  0
 14 15  1  0
 14 47  1  0
 16 48  1  0
 17 16  1  0
 17 34  2  0
 17 18  1  0
 18 19  1  0
 18 20  1  0
 20 21  1  0
 20 33  2  0
 21 22  1  0
 21 49  1  0
 21 50  1  0
 22 23  1  0
 22 51  1  0
 22 52  1  0
 23 24  2  0
 23 25  1  0
 25 26  1  0
 25 53  1  0
 26 32  1  0
 26 27  2  0
 27 28  1  0
 27 54  1  0
 28 29  2  0
 28 55  1  0
 29 30  1  0
 29 56  1  0
 30 31  1  0
 30 32  2  0
 31 57  1  0
 32 58  1  0
 33 34  1  0
 33 59  1  0
 34 35  1  0
M  CHG  1  34   1
M  END
>  <DOCK_score>  (1) 
-50.018963

>  <SMILES>  (1) 
C[C@@H](CCc1c[nH]c2ccccc12)Nc1[nH]c(CCC(=O)Nc2cccc(O)c2)c[nH+]1

$$$$
