N[C@H]1C[C@H]1NC(N[C@H]1CCC(=O)NC1)=[NH+][C@@H]1C[C@H]1Br
     RDKit          3D

 40 42  0  0  1  0  0  0  0  0999 V2000
  131.0634  132.0747  158.1526 N   0  0  0  0  0  0  0  0  0  0  0  0
  130.8546  132.8847  156.9450 C   0  0  1  0  0  0  0  0  0  0  0  0
  131.7577  133.1505  156.3954 H   0  0  0  0  0  0  0  0  0  0  0  0
  129.5825  132.6296  156.1330 C   0  0  0  0  0  0  0  0  0  0  0  0
  129.7150  133.9052  156.9671 C   0  0  1  0  0  0  0  0  0  0  0  0
  129.8684  134.8426  156.4324 H   0  0  0  0  0  0  0  0  0  0  0  0
  128.9150  133.9995  158.1909 N   0  0  0  0  0  0  0  0  0  0  0  0
  129.2863  134.8682  159.1896 C   0  0  0  0  0  0  0  0  0  0  0  0
  128.5356  134.9566  160.3380 N   0  0  0  0  0  0  0  0  0  0  0  0
  127.0943  134.6985  160.2925 C   0  0  1  0  0  0  0  0  0  0  0  0
  126.7017  134.9742  159.3138 H   0  0  0  0  0  0  0  0  0  0  0  0
  126.8343  133.2109  160.5544 C   0  0  0  0  0  0  0  0  0  0  0  0
  125.3477  132.9349  160.3162 C   0  0  0  0  0  0  0  0  0  0  0  0
  124.5161  133.9509  161.0452 C   0  0  0  0  0  0  0  0  0  0  0  0
  123.3442  133.7033  161.2358 O   0  0  0  0  0  0  0  0  0  0  0  0
  124.9972  135.1107  161.4940 N   0  0  0  0  0  0  0  0  0  0  0  0
  126.3919  135.5175  161.3762 C   0  0  0  0  0  0  0  0  0  0  0  0
  130.3501  135.6080  159.0478 N   0  0  0  0  0  0  0  0  0  0  0  0
  130.8798  135.5455  158.2376 H   0  0  0  0  0  0  0  0  0  0  0  0
  130.7457  136.5337  160.1121 C   0  0  2  0  0  0  0  0  0  0  0  0
  131.4189  136.1243  160.8653 H   0  0  0  0  0  0  0  0  0  0  0  0
  129.7121  137.5632  160.5731 C   0  0  0  0  0  0  0  0  0  0  0  0
  130.9152  138.0079  159.7391 C   0  0  1  0  0  0  0  0  0  0  0  0
  130.7324  138.2889  158.7019 H   0  0  0  0  0  0  0  0  0  0  0  0
  132.3308  139.0191  160.6550 Br  0  0  0  0  0  0  0  0  0  0  0  0
  131.8362  131.4373  158.0314 H   0  0  0  0  0  0  0  0  0  0  0  0
  131.2018  132.6611  158.9620 H   0  0  0  0  0  0  0  0  0  0  0  0
  128.9000  131.8604  156.4946 H   0  0  0  0  0  0  0  0  0  0  0  0
  129.6489  132.7275  155.0493 H   0  0  0  0  0  0  0  0  0  0  0  0
  128.1234  133.4489  158.2964 H   0  0  0  0  0  0  0  0  0  0  0  0
  128.9603  135.1898  161.1783 H   0  0  0  0  0  0  0  0  0  0  0  0
  127.0924  132.9665  161.5848 H   0  0  0  0  0  0  0  0  0  0  0  0
  127.4335  132.6070  159.8730 H   0  0  0  0  0  0  0  0  0  0  0  0
  125.1017  131.9373  160.6800 H   0  0  0  0  0  0  0  0  0  0  0  0
  125.1354  132.9921  159.2486 H   0  0  0  0  0  0  0  0  0  0  0  0
  124.3804  135.7220  161.9261 H   0  0  0  0  0  0  0  0  0  0  0  0
  126.4381  136.5748  161.1155 H   0  0  0  0  0  0  0  0  0  0  0  0
  126.8951  135.3594  162.3301 H   0  0  0  0  0  0  0  0  0  0  0  0
  128.7377  137.5517  160.0848 H   0  0  0  0  0  0  0  0  0  0  0  0
  129.7055  137.8313  161.6296 H   0  0  0  0  0  0  0  0  0  0  0  0
  1  2  1  0
  1 26  1  0
  1 27  1  0
  2  3  1  6
  2  5  1  0
  2  4  1  0
  4  5  1  0
  4 28  1  0
  4 29  1  0
  5  6  1  6
  5  7  1  0
  7 30  1  0
  8  7  1  0
  8  9  1  0
  8 18  2  0
  9 10  1  0
  9 31  1  0
 10 11  1  6
 10 17  1  0
 10 12  1  0
 12 13  1  0
 12 32  1  0
 12 33  1  0
 13 14  1  0
 13 34  1  0
 13 35  1  0
 14 15  2  0
 14 16  1  0
 16 17  1  0
 16 36  1  0
 17 37  1  0
 17 38  1  0
 18 19  1  0
 18 20  1  0
 20 21  1  1
 20 23  1  0
 20 22  1  0
 22 23  1  0
 22 39  1  0
 22 40  1  0
 23 24  1  6
 23 25  1  0
M  CHG  1  18   1
M  END
>  <DOCK_score>  (1) 
-43.610813

>  <SMILES>  (1) 
N[C@H]1C[C@H]1NC(N[C@H]1CCC(=O)NC1)=[NH+][C@@H]1C[C@H]1Br

$$$$
