Nc1ccc(-c2c[nH]c(Nc3ccc(NCc4nc5ccccc5[nH]4)cc3)[nH+]2)cc1
     RDKit          3D

 52 56  0  0  1  0  0  0  0  0999 V2000
  131.3138  129.2938  151.4912 N   0  0  0  0  0  0  0  0  0  0  0  0
  131.0452  130.0029  152.6645 C   0  0  0  0  0  0  0  0  0  0  0  0
  130.1257  131.0452  152.6505 C   0  0  0  0  0  0  0  0  0  0  0  0
  129.8593  131.7465  153.8074 C   0  0  0  0  0  0  0  0  0  0  0  0
  130.5127  131.4093  154.9917 C   0  0  0  0  0  0  0  0  0  0  0  0
  130.2278  132.1623  156.2378 C   0  0  0  0  0  0  0  0  0  0  0  0
  129.7359  131.6422  157.3896 C   0  0  0  0  0  0  0  0  0  0  0  0
  129.6304  132.6812  158.2831 N   0  0  0  0  0  0  0  0  0  0  0  0
  129.3115  132.6228  159.1974 H   0  0  0  0  0  0  0  0  0  0  0  0
  130.0539  133.8076  157.6472 C   0  0  0  0  0  0  0  0  0  0  0  0
  130.1031  135.0763  158.2006 N   0  0  0  0  0  0  0  0  0  0  0  0
  129.1867  135.4431  159.1942 C   0  0  0  0  0  0  0  0  0  0  0  0
  129.6400  135.8255  160.4499 C   0  0  0  0  0  0  0  0  0  0  0  0
  128.7364  136.1875  161.4292 C   0  0  0  0  0  0  0  0  0  0  0  0
  127.3742  136.1689  161.1584 C   0  0  0  0  0  0  0  0  0  0  0  0
  126.4582  136.5357  162.1509 N   0  0  0  0  0  0  0  0  0  0  0  0
  126.8583  136.5143  163.5605 C   0  0  0  0  0  0  0  0  0  0  0  0
  127.4263  137.8569  163.9423 C   0  0  0  0  0  0  0  0  0  0  0  0
  128.5164  138.0370  164.6294 N   0  0  0  0  0  0  0  0  0  0  0  0
  128.7386  139.3665  164.7931 C   0  0  0  0  0  0  0  0  0  0  0  0
  129.7372  140.1052  165.4331 C   0  0  0  0  0  0  0  0  0  0  0  0
  129.6850  141.4702  165.4253 C   0  0  0  0  0  0  0  0  0  0  0  0
  128.6481  142.1353  164.7864 C   0  0  0  0  0  0  0  0  0  0  0  0
  127.6522  141.4274  164.1483 C   0  0  0  0  0  0  0  0  0  0  0  0
  127.6881  140.0394  164.1465 C   0  0  0  0  0  0  0  0  0  0  0  0
  126.8772  139.0574  163.6138 N   0  0  0  0  0  0  0  0  0  0  0  0
  126.0653  139.1973  163.1016 H   0  0  0  0  0  0  0  0  0  0  0  0
  126.9209  135.7811  159.9046 C   0  0  0  0  0  0  0  0  0  0  0  0
  127.8248  135.4246  158.9235 C   0  0  0  0  0  0  0  0  0  0  0  0
  130.4128  133.4925  156.4263 N   0  0  0  0  0  0  0  0  0  0  0  0
  130.7558  134.1120  155.7635 H   0  0  0  0  0  0  0  0  0  0  0  0
  131.4384  130.3671  155.0022 C   0  0  0  0  0  0  0  0  0  0  0  0
  131.6973  129.6647  153.8441 C   0  0  0  0  0  0  0  0  0  0  0  0
  130.8587  129.5294  150.6673 H   0  0  0  0  0  0  0  0  0  0  0  0
  131.9553  128.5666  151.4999 H   0  0  0  0  0  0  0  0  0  0  0  0
  129.6197  131.3061  151.7326 H   0  0  0  0  0  0  0  0  0  0  0  0
  129.1447  132.5562  153.7961 H   0  0  0  0  0  0  0  0  0  0  0  0
  129.4799  130.6088  157.5713 H   0  0  0  0  0  0  0  0  0  0  0  0
  130.7724  135.7109  157.8999 H   0  0  0  0  0  0  0  0  0  0  0  0
  130.6991  135.8403  160.6603 H   0  0  0  0  0  0  0  0  0  0  0  0
  129.0889  136.4847  162.4058 H   0  0  0  0  0  0  0  0  0  0  0  0
  125.5607  136.8084  161.9059 H   0  0  0  0  0  0  0  0  0  0  0  0
  125.9890  136.2977  164.1813 H   0  0  0  0  0  0  0  0  0  0  0  0
  127.6141  135.7436  163.7120 H   0  0  0  0  0  0  0  0  0  0  0  0
  130.5489  139.5977  165.9333 H   0  0  0  0  0  0  0  0  0  0  0  0
  130.4588  142.0374  165.9211 H   0  0  0  0  0  0  0  0  0  0  0  0
  128.6213  143.2150  164.7890 H   0  0  0  0  0  0  0  0  0  0  0  0
  126.8475  141.9498  163.6523 H   0  0  0  0  0  0  0  0  0  0  0  0
  125.8615  135.7621  159.6956 H   0  0  0  0  0  0  0  0  0  0  0  0
  127.4722  135.1268  157.9470 H   0  0  0  0  0  0  0  0  0  0  0  0
  131.9493  130.1072  155.9175 H   0  0  0  0  0  0  0  0  0  0  0  0
  132.4112  128.8542  153.8527 H   0  0  0  0  0  0  0  0  0  0  0  0
  1  2  1  0
  1 34  1  0
  1 35  1  0
  2 33  2  0
  2  3  1  0
  3  4  2  0
  3 36  1  0
  4  5  1  0
  4 37  1  0
  5  6  1  0
  5 32  2  0
  6 30  1  0
  6  7  2  0
  7  8  1  0
  7 38  1  0
  8  9  1  0
  8 10  1  0
 10 11  1  0
 10 30  2  0
 11 12  1  0
 11 39  1  0
 12 29  1  0
 12 13  2  0
 13 14  1  0
 13 40  1  0
 14 15  2  0
 14 41  1  0
 15 16  1  0
 15 28  1  0
 16 17  1  0
 16 42  1  0
 17 18  1  0
 17 43  1  0
 17 44  1  0
 18 26  1  0
 18 19  2  0
 19 20  1  0
 20 25  2  0
 20 21  1  0
 21 22  2  0
 21 45  1  0
 22 23  1  0
 22 46  1  0
 23 24  2  0
 23 47  1  0
 24 25  1  0
 24 48  1  0
 25 26  1  0
 26 27  1  0
 28 29  2  0
 28 49  1  0
 29 50  1  0
 30 31  1  0
 32 33  1  0
 32 51  1  0
 33 52  1  0
M  CHG  1  30   1
M  END
>  <DOCK_score>  (1) 
-55.877495

>  <SMILES>  (1) 
Nc1ccc(-c2c[nH]c(Nc3ccc(NCc4nc5ccccc5[nH]4)cc3)[nH+]2)cc1

$$$$
