CC(Cc1ccc(F)cc1)[C@H](Nc1[nH]cc(-c2ccc(N)cc2)[nH+]1)C1=COCCC1
     RDKit          3D

 58 61  0  0  1  0  0  0  0  0999 V2000
  132.5241  135.5240  160.5731 C   0  0  0  0  0  0  0  0  0  0  0  0
  131.0732  135.7740  160.1569 C   0  0  2  0  0  0  0  0  0  0  0  0
  130.2446  136.1399  161.3899 C   0  0  0  0  0  0  0  0  0  0  0  0
  130.4655  137.5911  161.7310 C   0  0  0  0  0  0  0  0  0  0  0  0
  131.4802  137.9499  162.5987 C   0  0  0  0  0  0  0  0  0  0  0  0
  131.6873  139.2810  162.9078 C   0  0  0  0  0  0  0  0  0  0  0  0
  130.8706  140.2541  162.3573 C   0  0  0  0  0  0  0  0  0  0  0  0
  131.0680  141.5550  162.6637 F   0  0  0  0  0  0  0  0  0  0  0  0
  129.8511  139.8929  161.4928 C   0  0  0  0  0  0  0  0  0  0  0  0
  129.6498  138.5619  161.1804 C   0  0  0  0  0  0  0  0  0  0  0  0
  130.5014  134.5081  159.5154 C   0  0  2  0  0  0  0  0  0  0  0  0
  130.5374  133.6888  160.2336 H   0  0  0  0  0  0  0  0  0  0  0  0
  131.2947  134.1578  158.3346 N   0  0  0  0  0  0  0  0  0  0  0  0
  130.9647  133.0414  157.5853 C   0  0  0  0  0  0  0  0  0  0  0  0
  130.3720  131.9134  158.0626 N   0  0  0  0  0  0  0  0  0  0  0  0
  130.1073  131.7478  158.9810 H   0  0  0  0  0  0  0  0  0  0  0  0
  130.2177  131.0516  157.0025 C   0  0  0  0  0  0  0  0  0  0  0  0
  130.7204  131.6781  155.9102 C   0  0  0  0  0  0  0  0  0  0  0  0
  130.7679  131.1282  154.5331 C   0  0  0  0  0  0  0  0  0  0  0  0
  130.1079  131.7853  153.4959 C   0  0  0  0  0  0  0  0  0  0  0  0
  130.1582  131.2755  152.2157 C   0  0  0  0  0  0  0  0  0  0  0  0
  130.8569  130.1009  151.9614 C   0  0  0  0  0  0  0  0  0  0  0  0
  130.9021  129.5838  150.6644 N   0  0  0  0  0  0  0  0  0  0  0  0
  131.5109  129.4413  152.9949 C   0  0  0  0  0  0  0  0  0  0  0  0
  131.4680  129.9505  154.2755 C   0  0  0  0  0  0  0  0  0  0  0  0
  131.1665  132.8992  156.2980 N   0  0  0  0  0  0  0  0  0  0  0  0
  131.5721  133.5606  155.7159 H   0  0  0  0  0  0  0  0  0  0  0  0
  129.0722  134.7543  159.1055 C   0  0  0  0  0  0  0  0  0  0  0  0
  128.1321  134.0098  159.6248 C   0  0  0  0  0  0  0  0  0  0  0  0
  126.8237  134.1409  159.3133 O   0  0  0  0  0  0  0  0  0  0  0  0
  126.4130  135.3560  158.6775 C   0  0  0  0  0  0  0  0  0  0  0  0
  127.3830  135.6425  157.5229 C   0  0  0  0  0  0  0  0  0  0  0  0
  128.7819  135.8482  158.1143 C   0  0  0  0  0  0  0  0  0  0  0  0
  132.9314  136.4259  161.0301 H   0  0  0  0  0  0  0  0  0  0  0  0
  132.5601  134.7047  161.2912 H   0  0  0  0  0  0  0  0  0  0  0  0
  133.1144  135.2634  159.6946 H   0  0  0  0  0  0  0  0  0  0  0  0
  131.0373  136.5933  159.4388 H   0  0  0  0  0  0  0  0  0  0  0  0
  129.1881  135.9727  161.1805 H   0  0  0  0  0  0  0  0  0  0  0  0
  130.5512  135.5183  162.2312 H   0  0  0  0  0  0  0  0  0  0  0  0
  132.1139  137.1902  163.0319 H   0  0  0  0  0  0  0  0  0  0  0  0
  132.4825  139.5614  163.5825 H   0  0  0  0  0  0  0  0  0  0  0  0
  129.2132  140.6512  161.0630 H   0  0  0  0  0  0  0  0  0  0  0  0
  128.8545  138.2800  160.5061 H   0  0  0  0  0  0  0  0  0  0  0  0
  132.0511  134.7080  158.0779 H   0  0  0  0  0  0  0  0  0  0  0  0
  129.7801  130.0647  157.0339 H   0  0  0  0  0  0  0  0  0  0  0  0
  129.5609  132.6953  153.6941 H   0  0  0  0  0  0  0  0  0  0  0  0
  129.6505  131.7864  151.4110 H   0  0  0  0  0  0  0  0  0  0  0  0
  131.3896  128.7644  150.4858 H   0  0  0  0  0  0  0  0  0  0  0  0
  130.4459  130.0437  149.9425 H   0  0  0  0  0  0  0  0  0  0  0  0
  132.0529  128.5288  152.7949 H   0  0  0  0  0  0  0  0  0  0  0  0
  131.9767  129.4377  155.0784 H   0  0  0  0  0  0  0  0  0  0  0  0
  128.4158  133.2479  160.3358 H   0  0  0  0  0  0  0  0  0  0  0  0
  126.4413  136.1772  159.3938 H   0  0  0  0  0  0  0  0  0  0  0  0
  125.4012  135.2427  158.2880 H   0  0  0  0  0  0  0  0  0  0  0  0
  127.0707  136.5436  156.9951 H   0  0  0  0  0  0  0  0  0  0  0  0
  127.3955  134.7982  156.8337 H   0  0  0  0  0  0  0  0  0  0  0  0
  128.8258  136.8146  158.6164 H   0  0  0  0  0  0  0  0  0  0  0  0
  129.5222  135.8199  157.3147 H   0  0  0  0  0  0  0  0  0  0  0  0
  1  2  1  0
  1 34  1  0
  1 35  1  0
  1 36  1  0
  2  3  1  0
  2 11  1  0
  2 37  1  6
  3  4  1  0
  3 38  1  0
  3 39  1  0
  4 10  1  0
  4  5  2  0
  5  6  1  0
  5 40  1  0
  6  7  2  0
  6 41  1  0
  7  8  1  0
  7  9  1  0
  9 10  2  0
  9 42  1  0
 10 43  1  0
 11 12  1  1
 11 13  1  0
 11 28  1  0
 13 44  1  0
 14 13  1  0
 14 26  2  0
 14 15  1  0
 15 16  1  0
 15 17  1  0
 17 18  2  0
 17 45  1  0
 18 19  1  0
 18 26  1  0
 19 25  1  0
 19 20  2  0
 20 21  1  0
 20 46  1  0
 21 22  2  0
 21 47  1  0
 22 23  1  0
 22 24  1  0
 23 48  1  0
 23 49  1  0
 24 25  2  0
 24 50  1  0
 25 51  1  0
 26 27  1  0
 28 33  1  0
 28 29  2  0
 29 30  1  0
 29 52  1  0
 30 31  1  0
 31 32  1  0
 31 53  1  0
 31 54  1  0
 32 33  1  0
 32 55  1  0
 32 56  1  0
 33 57  1  0
 33 58  1  0
M  CHG  1  26   1
M  END
>  <DOCK_score>  (1) 
-59.492882

>  <SMILES>  (1) 
CC(Cc1ccc(F)cc1)[C@H](Nc1[nH]cc(-c2ccc(N)cc2)[nH+]1)C1=COCCC1

$$$$
