CC[C@@H](CC=Cc1cc(C)cc(NCC[NH+]2CCc3ccccc3C2)c1)C(O)C1CC=CCC1
     RDKit          3D

 77 80  0  0  1  0  0  0  0  0999 V2000
  139.0014  136.5017  167.9532 C   0  0  0  0  0  0  0  0  0  0  0  0
  137.6522  137.2157  167.8483 C   0  0  0  0  0  0  0  0  0  0  0  0
  137.5543  137.9247  166.4959 C   0  0  1  0  0  0  0  0  0  0  0  0
  138.3592  138.6544  166.4091 H   0  0  0  0  0  0  0  0  0  0  0  0
  137.6754  136.8952  165.3706 C   0  0  0  0  0  0  0  0  0  0  0  0
  137.1049  137.4707  164.0999 C   0  0  0  0  0  0  0  0  0  0  0  0
  136.0845  136.8728  163.5010 C   0  0  0  0  0  0  0  0  0  0  0  0
  135.5249  137.4372  162.2547 C   0  0  0  0  0  0  0  0  0  0  0  0
  136.2841  138.3179  161.4822 C   0  0  0  0  0  0  0  0  0  0  0  0
  135.7599  138.8436  160.3191 C   0  0  0  0  0  0  0  0  0  0  0  0
  136.5815  139.7943  159.4874 C   0  0  0  0  0  0  0  0  0  0  0  0
  134.4831  138.5013  159.9145 C   0  0  0  0  0  0  0  0  0  0  0  0
  133.7192  137.6253  160.6766 C   0  0  0  0  0  0  0  0  0  0  0  0
  132.4291  137.2832  160.2641 N   0  0  0  0  0  0  0  0  0  0  0  0
  131.4712  136.7398  161.2303 C   0  0  0  0  0  0  0  0  0  0  0  0
  130.1440  136.4516  160.5257 C   0  0  0  0  0  0  0  0  0  0  0  0
  130.3624  135.4749  159.4504 N   0  0  2  0  0  0  0  0  0  0  0  0
  131.0221  135.8480  158.7842 H   0  0  0  0  0  0  0  0  0  0  0  0
  129.0866  135.1931  158.7748 C   0  0  0  0  0  0  0  0  0  0  0  0
  129.3766  134.4257  157.4848 C   0  0  0  0  0  0  0  0  0  0  0  0
  130.2719  133.2493  157.7797 C   0  0  0  0  0  0  0  0  0  0  0  0
  130.3788  132.2417  156.8339 C   0  0  0  0  0  0  0  0  0  0  0  0
  131.1916  131.1503  157.0675 C   0  0  0  0  0  0  0  0  0  0  0  0
  131.9020  131.0627  158.2504 C   0  0  0  0  0  0  0  0  0  0  0  0
  131.7943  132.0646  159.1936 C   0  0  0  0  0  0  0  0  0  0  0  0
  130.9778  133.1616  158.9607 C   0  0  0  0  0  0  0  0  0  0  0  0
  130.8892  134.2304  160.0179 C   0  0  0  0  0  0  0  0  0  0  0  0
  134.2395  137.0874  161.8440 C   0  0  0  0  0  0  0  0  0  0  0  0
  136.2052  138.6387  166.3909 C   0  0  1  0  0  0  0  0  0  0  0  0
  135.1497  137.6820  166.5049 O   0  0  0  0  0  0  0  0  0  0  0  0
  136.0840  139.6681  167.5163 C   0  0  1  0  0  0  0  0  0  0  0  0
  137.1969  140.7097  167.3827 C   0  0  0  0  0  0  0  0  0  0  0  0
  136.9396  141.8629  168.3077 C   0  0  0  0  0  0  0  0  0  0  0  0
  135.7931  142.1120  168.8548 C   0  0  0  0  0  0  0  0  0  0  0  0
  134.5636  141.2769  168.6477 C   0  0  0  0  0  0  0  0  0  0  0  0
  134.7324  140.3865  167.4149 C   0  0  0  0  0  0  0  0  0  0  0  0
  139.1586  136.1714  168.9800 H   0  0  0  0  0  0  0  0  0  0  0  0
  139.7986  137.1874  167.6659 H   0  0  0  0  0  0  0  0  0  0  0  0
  139.0079  135.6378  167.2885 H   0  0  0  0  0  0  0  0  0  0  0  0
  136.8472  136.4860  167.9350 H   0  0  0  0  0  0  0  0  0  0  0  0
  137.5659  137.9491  168.6499 H   0  0  0  0  0  0  0  0  0  0  0  0
  138.7253  136.6463  165.2172 H   0  0  0  0  0  0  0  0  0  0  0  0
  137.1240  135.9947  165.6411 H   0  0  0  0  0  0  0  0  0  0  0  0
  137.5272  138.3704  163.6772 H   0  0  0  0  0  0  0  0  0  0  0  0
  135.6621  135.9731  163.9238 H   0  0  0  0  0  0  0  0  0  0  0  0
  137.2820  138.5879  161.7952 H   0  0  0  0  0  0  0  0  0  0  0  0
  137.1609  139.2303  158.7565 H   0  0  0  0  0  0  0  0  0  0  0  0
  135.9201  140.4886  158.9691 H   0  0  0  0  0  0  0  0  0  0  0  0
  137.2581  140.3521  160.1350 H   0  0  0  0  0  0  0  0  0  0  0  0
  134.0778  138.9162  159.0033 H   0  0  0  0  0  0  0  0  0  0  0  0
  132.1675  137.4053  159.3381 H   0  0  0  0  0  0  0  0  0  0  0  0
  131.8660  135.8161  161.6533 H   0  0  0  0  0  0  0  0  0  0  0  0
  131.3091  137.4645  162.0281 H   0  0  0  0  0  0  0  0  0  0  0  0
  129.4313  136.0474  161.2445 H   0  0  0  0  0  0  0  0  0  0  0  0
  129.7491  137.3754  160.1027 H   0  0  0  0  0  0  0  0  0  0  0  0
  128.4543  134.5878  159.4244 H   0  0  0  0  0  0  0  0  0  0  0  0
  128.5825  136.1303  158.5390 H   0  0  0  0  0  0  0  0  0  0  0  0
  129.8708  135.0883  156.7744 H   0  0  0  0  0  0  0  0  0  0  0  0
  128.4399  134.0696  157.0559 H   0  0  0  0  0  0  0  0  0  0  0  0
  129.8240  132.3107  155.9098 H   0  0  0  0  0  0  0  0  0  0  0  0
  131.2719  130.3670  156.3283 H   0  0  0  0  0  0  0  0  0  0  0  0
  132.5396  130.2111  158.4364 H   0  0  0  0  0  0  0  0  0  0  0  0
  132.3494  131.9947  160.1173 H   0  0  0  0  0  0  0  0  0  0  0  0
  131.8826  134.4143  160.4270 H   0  0  0  0  0  0  0  0  0  0  0  0
  130.2289  133.8916  160.8161 H   0  0  0  0  0  0  0  0  0  0  0  0
  133.6493  136.4033  162.4357 H   0  0  0  0  0  0  0  0  0  0  0  0
  136.1353  139.1437  165.4276 H   0  0  0  0  0  0  0  0  0  0  0  0
  134.2637  138.0650  166.4470 H   0  0  0  0  0  0  0  0  0  0  0  0
  136.1648  139.1674  168.4811 H   0  0  0  0  0  0  0  0  0  0  0  0
  138.1532  140.2512  167.6344 H   0  0  0  0  0  0  0  0  0  0  0  0
  137.2300  141.0734  166.3556 H   0  0  0  0  0  0  0  0  0  0  0  0
  137.7619  142.5266  168.5310 H   0  0  0  0  0  0  0  0  0  0  0  0
  135.7166  142.9747  169.5000 H   0  0  0  0  0  0  0  0  0  0  0  0
  134.3997  140.6513  169.5252 H   0  0  0  0  0  0  0  0  0  0  0  0
  133.7026  141.9302  168.5064 H   0  0  0  0  0  0  0  0  0  0  0  0
  134.7104  141.0001  166.5143 H   0  0  0  0  0  0  0  0  0  0  0  0
  133.9286  139.6512  167.3808 H   0  0  0  0  0  0  0  0  0  0  0  0
  1  2  1  0
  1 37  1  0
  1 38  1  0
  1 39  1  0
  2  3  1  0
  2 40  1  0
  2 41  1  0
  3  4  1  6
  3  5  1  0
  3 29  1  0
  5  6  1  0
  5 42  1  0
  5 43  1  0
  6  7  2  0
  6 44  1  0
  7  8  1  0
  7 45  1  0
  8 28  1  0
  8  9  2  0
  9 10  1  0
  9 46  1  0
 10 11  1  0
 10 12  2  0
 11 47  1  0
 11 48  1  0
 11 49  1  0
 12 13  1  0
 12 50  1  0
 13 14  1  0
 13 28  2  0
 14 15  1  0
 14 51  1  0
 15 16  1  0
 15 52  1  0
 15 53  1  0
 16 17  1  0
 16 54  1  0
 16 55  1  0
 17 18  1  6
 17 27  1  0
 17 19  1  0
 19 20  1  0
 19 56  1  0
 19 57  1  0
 20 21  1  0
 20 58  1  0
 20 59  1  0
 21 26  2  0
 21 22  1  0
 22 23  2  0
 22 60  1  0
 23 24  1  0
 23 61  1  0
 24 25  2  0
 24 62  1  0
 25 26  1  0
 25 63  1  0
 26 27  1  0
 27 64  1  0
 27 65  1  0
 28 66  1  0
 29 30  1  0
 29 31  1  0
 29 67  1  6
 30 68  1  0
 31 36  1  0
 31 32  1  0
 31 69  1  1
 32 33  1  0
 32 70  1  0
 32 71  1  0
 33 34  2  0
 33 72  1  0
 34 35  1  0
 34 73  1  0
 35 36  1  0
 35 74  1  0
 35 75  1  0
 36 76  1  0
 36 77  1  0
M  CHG  1  17   1
M  END
>  <DOCK_score>  (1) 
-57.474033

>  <SMILES>  (1) 
CC[C@@H](CC=Cc1cc(C)cc(NCC[NH+]2CCc3ccccc3C2)c1)C(O)C1CC=CCC1

$$$$
