Fc1ccc([C@H](Nc2[nH]cc(-c3ccccc3)[nH+]2)c2ccccc2)cc1
     RDKit          3D

 45 48  0  0  1  0  0  0  0  0999 V2000
  130.9768  140.7951  161.6410 F   0  0  0  0  0  0  0  0  0  0  0  0
  130.6758  139.5311  161.2708 C   0  0  0  0  0  0  0  0  0  0  0  0
  130.5604  138.5377  162.2283 C   0  0  0  0  0  0  0  0  0  0  0  0
  130.2530  137.2449  161.8484 C   0  0  0  0  0  0  0  0  0  0  0  0
  130.0603  136.9438  160.5129 C   0  0  0  0  0  0  0  0  0  0  0  0
  129.7245  135.5338  160.1000 C   0  0  2  0  0  0  0  0  0  0  0  0
  130.1692  134.8327  160.8062 H   0  0  0  0  0  0  0  0  0  0  0  0
  130.2553  135.2783  158.7587 N   0  0  0  0  0  0  0  0  0  0  0  0
  130.0693  134.0419  158.1644 C   0  0  0  0  0  0  0  0  0  0  0  0
  129.4192  132.9843  158.7221 N   0  0  0  0  0  0  0  0  0  0  0  0
  129.0061  132.9614  159.5994 H   0  0  0  0  0  0  0  0  0  0  0  0
  129.4529  131.9561  157.8118 C   0  0  0  0  0  0  0  0  0  0  0  0
  130.1295  132.4117  156.7284 C   0  0  0  0  0  0  0  0  0  0  0  0
  130.4181  131.6434  155.4928 C   0  0  0  0  0  0  0  0  0  0  0  0
  129.9401  132.0918  154.2627 C   0  0  0  0  0  0  0  0  0  0  0  0
  130.2169  131.3762  153.1154 C   0  0  0  0  0  0  0  0  0  0  0  0
  130.9566  130.2095  153.1865 C   0  0  0  0  0  0  0  0  0  0  0  0
  131.4287  129.7567  154.4055 C   0  0  0  0  0  0  0  0  0  0  0  0
  131.1633  130.4674  155.5583 C   0  0  0  0  0  0  0  0  0  0  0  0
  130.4951  133.6948  156.9745 N   0  0  0  0  0  0  0  0  0  0  0  0
  130.9923  134.2645  156.3668 H   0  0  0  0  0  0  0  0  0  0  0  0
  128.2280  135.3561  160.0902 C   0  0  0  0  0  0  0  0  0  0  0  0
  127.5756  134.9254  161.2302 C   0  0  0  0  0  0  0  0  0  0  0  0
  126.2024  134.7666  161.2223 C   0  0  0  0  0  0  0  0  0  0  0  0
  125.4827  135.0296  160.0719 C   0  0  0  0  0  0  0  0  0  0  0  0
  126.1358  135.4553  158.9303 C   0  0  0  0  0  0  0  0  0  0  0  0
  127.5085  135.6183  158.9393 C   0  0  0  0  0  0  0  0  0  0  0  0
  130.1807  137.9337  159.5555 C   0  0  0  0  0  0  0  0  0  0  0  0
  130.4830  139.2281  159.9337 C   0  0  0  0  0  0  0  0  0  0  0  0
  130.7110  138.7727  163.2715 H   0  0  0  0  0  0  0  0  0  0  0  0
  130.1630  136.4699  162.5950 H   0  0  0  0  0  0  0  0  0  0  0  0
  130.7372  135.9755  158.2868 H   0  0  0  0  0  0  0  0  0  0  0  0
  129.0256  130.9720  157.9364 H   0  0  0  0  0  0  0  0  0  0  0  0
  129.3584  133.0000  154.2068 H   0  0  0  0  0  0  0  0  0  0  0  0
  129.8515  131.7255  152.1611 H   0  0  0  0  0  0  0  0  0  0  0  0
  131.1667  129.6501  152.2869 H   0  0  0  0  0  0  0  0  0  0  0  0
  132.0063  128.8455  154.4550 H   0  0  0  0  0  0  0  0  0  0  0  0
  131.5326  130.1132  156.5094 H   0  0  0  0  0  0  0  0  0  0  0  0
  128.1385  134.7163  162.1280 H   0  0  0  0  0  0  0  0  0  0  0  0
  125.6922  134.4344  162.1144 H   0  0  0  0  0  0  0  0  0  0  0  0
  124.4103  134.9030  160.0649 H   0  0  0  0  0  0  0  0  0  0  0  0
  125.5735  135.6609  158.0314 H   0  0  0  0  0  0  0  0  0  0  0  0
  128.0187  135.9508  158.0474 H   0  0  0  0  0  0  0  0  0  0  0  0
  130.0346  137.6963  158.5122 H   0  0  0  0  0  0  0  0  0  0  0  0
  130.5723  140.0023  159.1859 H   0  0  0  0  0  0  0  0  0  0  0  0
  1  2  1  0
  2 29  2  0
  2  3  1  0
  3  4  2  0
  3 30  1  0
  4  5  1  0
  4 31  1  0
  5  6  1  0
  5 28  2  0
  6  7  1  1
  6  8  1  0
  6 22  1  0
  8 32  1  0
  9  8  1  0
  9 20  2  0
  9 10  1  0
 10 11  1  0
 10 12  1  0
 12 13  2  0
 12 33  1  0
 13 14  1  0
 13 20  1  0
 14 19  1  0
 14 15  2  0
 15 16  1  0
 15 34  1  0
 16 17  2  0
 16 35  1  0
 17 18  1  0
 17 36  1  0
 18 19  2  0
 18 37  1  0
 19 38  1  0
 20 21  1  0
 22 27  1  0
 22 23  2  0
 23 24  1  0
 23 39  1  0
 24 25  2  0
 24 40  1  0
 25 26  1  0
 25 41  1  0
 26 27  2  0
 26 42  1  0
 27 43  1  0
 28 29  1  0
 28 44  1  0
 29 45  1  0
M  CHG  1  20   1
M  END
>  <DOCK_score>  (1) 
-57.429073

>  <SMILES>  (1) 
Fc1ccc([C@H](Nc2[nH]cc(-c3ccccc3)[nH+]2)c2ccccc2)cc1

$$$$
