Cn1nccc1C[NH+]=C(NCC1COc2ccccc2C1)NC[C@H]1COC(=O)C1
     RDKit          3D

 57 60  0  0  1  0  0  0  0  0999 V2000
  129.7073  132.2855  159.5558 C   0  0  0  0  0  0  0  0  0  0  0  0
  129.6048  132.8434  158.2051 N   0  0  0  0  0  0  0  0  0  0  0  0
  130.0187  132.2184  157.0217 N   0  0  0  0  0  0  0  0  0  0  0  0
  129.7695  133.0269  156.0236 C   0  0  0  0  0  0  0  0  0  0  0  0
  129.1852  134.1889  156.5381 C   0  0  0  0  0  0  0  0  0  0  0  0
  129.0925  134.0490  157.8808 C   0  0  0  0  0  0  0  0  0  0  0  0
  128.5249  135.0609  158.8425 C   0  0  0  0  0  0  0  0  0  0  0  0
  129.5918  135.9579  159.2936 N   0  0  0  0  0  0  0  0  0  0  0  0
  130.3410  136.1528  158.7090 H   0  0  0  0  0  0  0  0  0  0  0  0
  129.5344  136.4939  160.4803 C   0  0  0  0  0  0  0  0  0  0  0  0
  130.5358  137.3356  160.9035 N   0  0  0  0  0  0  0  0  0  0  0  0
  131.6671  137.6300  160.0206 C   0  0  0  0  0  0  0  0  0  0  0  0
  132.6309  138.5849  160.7279 C   0  0  1  0  0  0  0  0  0  0  0  0
  133.5343  137.7941  161.6829 C   0  0  0  0  0  0  0  0  0  0  0  0
  134.3493  138.7207  162.4024 O   0  0  0  0  0  0  0  0  0  0  0  0
  135.0086  139.6718  161.6911 C   0  0  0  0  0  0  0  0  0  0  0  0
  136.0678  140.3397  162.2978 C   0  0  0  0  0  0  0  0  0  0  0  0
  136.7592  141.3151  161.6094 C   0  0  0  0  0  0  0  0  0  0  0  0
  136.3996  141.6312  160.3121 C   0  0  0  0  0  0  0  0  0  0  0  0
  135.3498  140.9694  159.7061 C   0  0  0  0  0  0  0  0  0  0  0  0
  134.6528  139.9884  160.3919 C   0  0  0  0  0  0  0  0  0  0  0  0
  133.5184  139.2819  159.6938 C   0  0  0  0  0  0  0  0  0  0  0  0
  128.4726  136.2177  161.3088 N   0  0  0  0  0  0  0  0  0  0  0  0
  128.6566  136.2241  162.7622 C   0  0  0  0  0  0  0  0  0  0  0  0
  127.6843  135.2321  163.4037 C   0  0  1  0  0  0  0  0  0  0  0  0
  127.8601  134.2228  163.0315 H   0  0  0  0  0  0  0  0  0  0  0  0
  127.7856  135.2806  164.9454 C   0  0  0  0  0  0  0  0  0  0  0  0
  126.4218  135.0485  165.4070 O   0  0  0  0  0  0  0  0  0  0  0  0
  125.5485  135.5282  164.5100 C   0  0  0  0  0  0  0  0  0  0  0  0
  124.3975  135.8115  164.7440 O   0  0  0  0  0  0  0  0  0  0  0  0
  126.2202  135.6611  163.1605 C   0  0  0  0  0  0  0  0  0  0  0  0
  128.8022  131.7235  159.7864 H   0  0  0  0  0  0  0  0  0  0  0  0
  130.5706  131.6222  159.6104 H   0  0  0  0  0  0  0  0  0  0  0  0
  129.8253  133.0955  160.2755 H   0  0  0  0  0  0  0  0  0  0  0  0
  129.9793  132.8311  154.9825 H   0  0  0  0  0  0  0  0  0  0  0  0
  128.8642  135.0461  155.9649 H   0  0  0  0  0  0  0  0  0  0  0  0
  128.0965  134.5450  159.7018 H   0  0  0  0  0  0  0  0  0  0  0  0
  127.7491  135.6413  158.3433 H   0  0  0  0  0  0  0  0  0  0  0  0
  130.4930  137.7345  161.7866 H   0  0  0  0  0  0  0  0  0  0  0  0
  132.1875  136.7041  159.7757 H   0  0  0  0  0  0  0  0  0  0  0  0
  131.3020  138.0950  159.1049 H   0  0  0  0  0  0  0  0  0  0  0  0
  132.0654  139.3290  161.2888 H   0  0  0  0  0  0  0  0  0  0  0  0
  132.9211  137.2251  162.3815 H   0  0  0  0  0  0  0  0  0  0  0  0
  134.1672  137.1151  161.1118 H   0  0  0  0  0  0  0  0  0  0  0  0
  136.3494  140.0939  163.3111 H   0  0  0  0  0  0  0  0  0  0  0  0
  137.5812  141.8312  162.0832 H   0  0  0  0  0  0  0  0  0  0  0  0
  136.9397  142.3952  159.7727 H   0  0  0  0  0  0  0  0  0  0  0  0
  135.0706  141.2182  158.6930 H   0  0  0  0  0  0  0  0  0  0  0  0
  133.9221  138.5409  159.0039 H   0  0  0  0  0  0  0  0  0  0  0  0
  132.9258  140.0088  159.1382 H   0  0  0  0  0  0  0  0  0  0  0  0
  127.6007  136.0224  160.9312 H   0  0  0  0  0  0  0  0  0  0  0  0
  129.6803  135.9348  163.0001 H   0  0  0  0  0  0  0  0  0  0  0  0
  128.4626  137.2247  163.1487 H   0  0  0  0  0  0  0  0  0  0  0  0
  128.4491  134.4956  165.3082 H   0  0  0  0  0  0  0  0  0  0  0  0
  128.1372  136.2589  165.2732 H   0  0  0  0  0  0  0  0  0  0  0  0
  126.1799  136.6948  162.8169 H   0  0  0  0  0  0  0  0  0  0  0  0
  125.7469  135.0004  162.4343 H   0  0  0  0  0  0  0  0  0  0  0  0
  1  2  1  0
  1 32  1  0
  1 33  1  0
  1 34  1  0
  2  6  1  0
  2  3  1  0
  3  4  2  0
  4  5  1  0
  4 35  1  0
  5  6  2  0
  5 36  1  0
  6  7  1  0
  7  8  1  0
  7 37  1  0
  7 38  1  0
  8  9  1  0
 10  8  2  0
 10 11  1  0
 10 23  1  0
 11 12  1  0
 11 39  1  0
 12 13  1  0
 12 40  1  0
 12 41  1  0
 13 22  1  0
 13 14  1  0
 13 42  1  1
 14 15  1  0
 14 43  1  0
 14 44  1  0
 15 16  1  0
 16 21  2  0
 16 17  1  0
 17 18  2  0
 17 45  1  0
 18 19  1  0
 18 46  1  0
 19 20  2  0
 19 47  1  0
 20 21  1  0
 20 48  1  0
 21 22  1  0
 22 49  1  0
 22 50  1  0
 23 24  1  0
 23 51  1  0
 24 25  1  0
 24 52  1  0
 24 53  1  0
 25 26  1  6
 25 31  1  0
 25 27  1  0
 27 28  1  0
 27 54  1  0
 27 55  1  0
 28 29  1  0
 29 30  2  0
 29 31  1  0
 31 56  1  0
 31 57  1  0
M  CHG  1   8   1
M  END
>  <DOCK_score>  (1) 
-42.549664

>  <SMILES>  (1) 
Cn1nccc1C[NH+]=C(NCC1COc2ccccc2C1)NC[C@H]1COC(=O)C1

$$$$
