Brc1ccccc1C1(Nc2[nH]cc(-c3ccccc3)[nH+]2)CCCCC1
     RDKit          3D

 48 51  0  0  1  0  0  0  0  0999 V2000
  128.8199  136.2799  157.6950 Br  0  0  0  0  0  0  0  0  0  0  0  0
  127.9733  134.9964  158.7957 C   0  0  0  0  0  0  0  0  0  0  0  0
  126.6596  134.6361  158.5540 C   0  0  0  0  0  0  0  0  0  0  0  0
  126.0411  133.6983  159.3590 C   0  0  0  0  0  0  0  0  0  0  0  0
  126.7351  133.1203  160.4058 C   0  0  0  0  0  0  0  0  0  0  0  0
  128.0493  133.4758  160.6443 C   0  0  0  0  0  0  0  0  0  0  0  0
  128.6670  134.4179  159.8432 C   0  0  0  0  0  0  0  0  0  0  0  0
  130.0979  134.8099  160.1071 C   0  0  0  0  0  0  0  0  0  0  0  0
  130.9136  134.5023  158.9297 N   0  0  0  0  0  0  0  0  0  0  0  0
  130.6957  133.3319  158.2232 C   0  0  0  0  0  0  0  0  0  0  0  0
  130.2391  132.1624  158.7483 N   0  0  0  0  0  0  0  0  0  0  0  0
  130.0093  132.0004  159.6767 H   0  0  0  0  0  0  0  0  0  0  0  0
  130.1602  131.2546  157.7203 C   0  0  0  0  0  0  0  0  0  0  0  0
  130.5788  131.8924  156.5991 C   0  0  0  0  0  0  0  0  0  0  0  0
  130.6680  131.3026  155.2411 C   0  0  0  0  0  0  0  0  0  0  0  0
  129.9288  131.8468  154.1922 C   0  0  0  0  0  0  0  0  0  0  0  0
  130.0206  131.2978  152.9294 C   0  0  0  0  0  0  0  0  0  0  0  0
  130.8347  130.2019  152.7062 C   0  0  0  0  0  0  0  0  0  0  0  0
  131.5661  129.6541  153.7447 C   0  0  0  0  0  0  0  0  0  0  0  0
  131.4870  130.1987  155.0103 C   0  0  0  0  0  0  0  0  0  0  0  0
  130.9006  133.1659  156.9393 N   0  0  0  0  0  0  0  0  0  0  0  0
  131.2299  133.8447  156.3298 H   0  0  0  0  0  0  0  0  0  0  0  0
  130.6267  134.0292  161.3119 C   0  0  0  0  0  0  0  0  0  0  0  0
  132.0794  134.4273  161.5800 C   0  0  0  0  0  0  0  0  0  0  0  0
  132.1516  135.9272  161.8726 C   0  0  0  0  0  0  0  0  0  0  0  0
  131.6228  136.7080  160.6678 C   0  0  0  0  0  0  0  0  0  0  0  0
  130.1701  136.3100  160.3999 C   0  0  0  0  0  0  0  0  0  0  0  0
  126.1174  135.0878  157.7365 H   0  0  0  0  0  0  0  0  0  0  0  0
  125.0155  133.4173  159.1705 H   0  0  0  0  0  0  0  0  0  0  0  0
  126.2514  132.3872  161.0345 H   0  0  0  0  0  0  0  0  0  0  0  0
  128.5925  133.0204  161.4592 H   0  0  0  0  0  0  0  0  0  0  0  0
  131.6065  135.1188  158.6452 H   0  0  0  0  0  0  0  0  0  0  0  0
  129.8323  130.2282  157.7921 H   0  0  0  0  0  0  0  0  0  0  0  0
  129.2893  132.6994  154.3663 H   0  0  0  0  0  0  0  0  0  0  0  0
  129.4523  131.7218  152.1147 H   0  0  0  0  0  0  0  0  0  0  0  0
  130.8997  129.7724  151.7174 H   0  0  0  0  0  0  0  0  0  0  0  0
  132.2006  128.7989  153.5647 H   0  0  0  0  0  0  0  0  0  0  0  0
  132.0587  129.7705  155.8203 H   0  0  0  0  0  0  0  0  0  0  0  0
  130.0197  134.2580  162.1880 H   0  0  0  0  0  0  0  0  0  0  0  0
  130.5754  132.9606  161.1034 H   0  0  0  0  0  0  0  0  0  0  0  0
  132.6864  134.1984  160.7039 H   0  0  0  0  0  0  0  0  0  0  0  0
  132.4561  133.8711  162.4383 H   0  0  0  0  0  0  0  0  0  0  0  0
  133.1866  136.2109  162.0636 H   0  0  0  0  0  0  0  0  0  0  0  0
  131.5446  136.1561  162.7486 H   0  0  0  0  0  0  0  0  0  0  0  0
  132.2298  136.4792  159.7919 H   0  0  0  0  0  0  0  0  0  0  0  0
  131.6741  137.7767  160.8763 H   0  0  0  0  0  0  0  0  0  0  0  0
  129.7934  136.8661  159.5414 H   0  0  0  0  0  0  0  0  0  0  0  0
  129.5630  136.5388  161.2758 H   0  0  0  0  0  0  0  0  0  0  0  0
  1  2  1  0
  2  7  2  0
  2  3  1  0
  3  4  2  0
  3 28  1  0
  4  5  1  0
  4 29  1  0
  5  6  2  0
  5 30  1  0
  6  7  1  0
  6 31  1  0
  7  8  1  0
  8 27  1  0
  8  9  1  0
  8 23  1  0
  9 32  1  0
 10  9  1  0
 10 21  2  0
 10 11  1  0
 11 12  1  0
 11 13  1  0
 13 14  2  0
 13 33  1  0
 14 15  1  0
 14 21  1  0
 15 20  1  0
 15 16  2  0
 16 17  1  0
 16 34  1  0
 17 18  2  0
 17 35  1  0
 18 19  1  0
 18 36  1  0
 19 20  2  0
 19 37  1  0
 20 38  1  0
 21 22  1  0
 23 24  1  0
 23 39  1  0
 23 40  1  0
 24 25  1  0
 24 41  1  0
 24 42  1  0
 25 26  1  0
 25 43  1  0
 25 44  1  0
 26 27  1  0
 26 45  1  0
 26 46  1  0
 27 47  1  0
 27 48  1  0
M  CHG  1  21   1
M  END
>  <DOCK_score>  (1) 
-56.508144

>  <SMILES>  (1) 
Brc1ccccc1C1(Nc2[nH]cc(-c3ccccc3)[nH+]2)CCCCC1

$$$$
