CCc1ccc(CC=C[C@H](Nc2[nH]cc(-c3ccc(CC)cc3)[nH+]2)c2ccc(F)c(F)c2)cc1
     RDKit          3D

 64 67  0  0  1  0  0  0  0  0999 V2000
  137.5751  140.8086  161.6763 C   0  0  0  0  0  0  0  0  0  0  0  0
  137.2807  139.4019  161.1516 C   0  0  0  0  0  0  0  0  0  0  0  0
  135.7985  139.1388  161.2236 C   0  0  0  0  0  0  0  0  0  0  0  0
  134.9870  139.4582  160.1510 C   0  0  0  0  0  0  0  0  0  0  0  0
  133.6274  139.2174  160.2173 C   0  0  0  0  0  0  0  0  0  0  0  0
  133.0793  138.6573  161.3559 C   0  0  0  0  0  0  0  0  0  0  0  0
  131.5970  138.3953  161.4282 C   0  0  0  0  0  0  0  0  0  0  0  0
  131.3068  137.0072  160.9179 C   0  0  0  0  0  0  0  0  0  0  0  0
  130.0743  136.5643  160.8897 C   0  0  0  0  0  0  0  0  0  0  0  0
  129.7843  135.1763  160.3793 C   0  0  2  0  0  0  0  0  0  0  0  0
  130.3127  134.4459  160.9920 H   0  0  0  0  0  0  0  0  0  0  0  0
  130.2327  135.0635  158.9893 N   0  0  0  0  0  0  0  0  0  0  0  0
  130.0701  133.8717  158.3040 C   0  0  0  0  0  0  0  0  0  0  0  0
  129.5109  132.7377  158.8075 N   0  0  0  0  0  0  0  0  0  0  0  0
  129.1581  132.6200  159.7034 H   0  0  0  0  0  0  0  0  0  0  0  0
  129.5390  131.7903  157.8132 C   0  0  0  0  0  0  0  0  0  0  0  0
  130.1087  132.3738  156.7297 C   0  0  0  0  0  0  0  0  0  0  0  0
  130.3431  131.7304  155.4138 C   0  0  0  0  0  0  0  0  0  0  0  0
  130.3276  132.4950  154.2487 C   0  0  0  0  0  0  0  0  0  0  0  0
  130.5519  131.8921  153.0277 C   0  0  0  0  0  0  0  0  0  0  0  0
  130.7802  130.5299  152.9577 C   0  0  0  0  0  0  0  0  0  0  0  0
  131.0180  129.8765  151.6207 C   0  0  0  0  0  0  0  0  0  0  0  0
  129.6813  129.4237  151.0295 C   0  0  0  0  0  0  0  0  0  0  0  0
  130.7916  129.7648  154.1106 C   0  0  0  0  0  0  0  0  0  0  0  0
  130.5740  130.3580  155.3375 C   0  0  0  0  0  0  0  0  0  0  0  0
  130.4293  133.6492  157.0632 N   0  0  0  0  0  0  0  0  0  0  0  0
  130.8528  134.2947  156.4760 H   0  0  0  0  0  0  0  0  0  0  0  0
  128.3019  134.9141  160.4516 C   0  0  0  0  0  0  0  0  0  0  0  0
  127.4917  135.2290  159.3764 C   0  0  0  0  0  0  0  0  0  0  0  0
  126.1320  134.9894  159.4405 C   0  0  0  0  0  0  0  0  0  0  0  0
  125.5801  134.4338  160.5817 C   0  0  0  0  0  0  0  0  0  0  0  0
  124.2512  134.1990  160.6449 F   0  0  0  0  0  0  0  0  0  0  0  0
  126.3926  134.1181  161.6599 C   0  0  0  0  0  0  0  0  0  0  0  0
  125.8562  133.5758  162.7749 F   0  0  0  0  0  0  0  0  0  0  0  0
  127.7547  134.3539  161.5905 C   0  0  0  0  0  0  0  0  0  0  0  0
  133.8900  138.3428  162.4306 C   0  0  0  0  0  0  0  0  0  0  0  0
  135.2504  138.5788  162.3623 C   0  0  0  0  0  0  0  0  0  0  0  0
  137.0461  141.5416  161.0672 H   0  0  0  0  0  0  0  0  0  0  0  0
  137.2419  140.8877  162.7111 H   0  0  0  0  0  0  0  0  0  0  0  0
  138.6471  140.9988  161.6243 H   0  0  0  0  0  0  0  0  0  0  0  0
  137.8097  138.6688  161.7607 H   0  0  0  0  0  0  0  0  0  0  0  0
  137.6139  139.3228  160.1169 H   0  0  0  0  0  0  0  0  0  0  0  0
  135.4153  139.8961  159.2616 H   0  0  0  0  0  0  0  0  0  0  0  0
  132.9934  139.4672  159.3793 H   0  0  0  0  0  0  0  0  0  0  0  0
  131.0687  139.1256  160.8154 H   0  0  0  0  0  0  0  0  0  0  0  0
  131.2633  138.4793  162.4625 H   0  0  0  0  0  0  0  0  0  0  0  0
  132.1150  136.3780  160.5755 H   0  0  0  0  0  0  0  0  0  0  0  0
  129.2663  137.1936  161.2322 H   0  0  0  0  0  0  0  0  0  0  0  0
  130.6438  135.8239  158.5490 H   0  0  0  0  0  0  0  0  0  0  0  0
  129.1727  130.7765  157.8799 H   0  0  0  0  0  0  0  0  0  0  0  0
  130.1447  133.5582  154.3016 H   0  0  0  0  0  0  0  0  0  0  0  0
  130.5442  132.4842  152.1247 H   0  0  0  0  0  0  0  0  0  0  0  0
  131.4909  130.5895  150.9466 H   0  0  0  0  0  0  0  0  0  0  0  0
  131.6691  129.0114  151.7500 H   0  0  0  0  0  0  0  0  0  0  0  0
  129.2083  128.7100  151.7040 H   0  0  0  0  0  0  0  0  0  0  0  0
  129.0300  130.2883  150.9005 H   0  0  0  0  0  0  0  0  0  0  0  0
  129.8532  128.9511  150.0625 H   0  0  0  0  0  0  0  0  0  0  0  0
  130.9706  128.7015  154.0502 H   0  0  0  0  0  0  0  0  0  0  0  0
  130.5831  129.7600  156.2368 H   0  0  0  0  0  0  0  0  0  0  0  0
  127.9218  135.6628  158.4858 H   0  0  0  0  0  0  0  0  0  0  0  0
  125.5001  135.2362  158.6001 H   0  0  0  0  0  0  0  0  0  0  0  0
  128.3893  134.1041  162.4279 H   0  0  0  0  0  0  0  0  0  0  0  0
  133.4611  137.9094  163.3219 H   0  0  0  0  0  0  0  0  0  0  0  0
  135.8844  138.3296  163.2005 H   0  0  0  0  0  0  0  0  0  0  0  0
  1  2  1  0
  1 38  1  0
  1 39  1  0
  1 40  1  0
  2  3  1  0
  2 41  1  0
  2 42  1  0
  3 37  2  0
  3  4  1  0
  4  5  2  0
  4 43  1  0
  5  6  1  0
  5 44  1  0
  6  7  1  0
  6 36  2  0
  7  8  1  0
  7 45  1  0
  7 46  1  0
  8  9  2  0
  8 47  1  0
  9 10  1  0
  9 48  1  0
 10 11  1  1
 10 12  1  0
 10 28  1  0
 12 49  1  0
 13 12  1  0
 13 26  2  0
 13 14  1  0
 14 15  1  0
 14 16  1  0
 16 17  2  0
 16 50  1  0
 17 18  1  0
 17 26  1  0
 18 25  1  0
 18 19  2  0
 19 20  1  0
 19 51  1  0
 20 21  2  0
 20 52  1  0
 21 22  1  0
 21 24  1  0
 22 23  1  0
 22 53  1  0
 22 54  1  0
 23 55  1  0
 23 56  1  0
 23 57  1  0
 24 25  2  0
 24 58  1  0
 25 59  1  0
 26 27  1  0
 28 35  1  0
 28 29  2  0
 29 30  1  0
 29 60  1  0
 30 31  2  0
 30 61  1  0
 31 32  1  0
 31 33  1  0
 33 34  1  0
 33 35  2  0
 35 62  1  0
 36 37  1  0
 36 63  1  0
 37 64  1  0
M  CHG  1  26   1
M  END
>  <DOCK_score>  (1) 
-63.069141

>  <SMILES>  (1) 
CCc1ccc(CC=C[C@H](Nc2[nH]cc(-c3ccc(CC)cc3)[nH+]2)c2ccc(F)c(F)c2)cc1

$$$$
