Cc1c(N)cccc1C[NH2+]Cc1cc2c(NCCCc3cccc4ccccc34)cccc2[nH]1
     RDKit          3D

 67 71  0  0  0  0  0  0  0  0999 V2000
  131.5447  132.5941  160.7289 C   0  0  0  0  0  0  0  0  0  0  0  0
  131.0914  132.6462  159.2926 C   0  0  0  0  0  0  0  0  0  0  0  0
  131.3717  131.5888  158.4362 C   0  0  0  0  0  0  0  0  0  0  0  0
  132.0745  130.4762  158.9042 N   0  0  0  0  0  0  0  0  0  0  0  0
  130.9517  131.6407  157.1133 C   0  0  0  0  0  0  0  0  0  0  0  0
  130.2574  132.7427  156.6536 C   0  0  0  0  0  0  0  0  0  0  0  0
  129.9754  133.7907  157.5101 C   0  0  0  0  0  0  0  0  0  0  0  0
  130.3969  133.7448  158.8266 C   0  0  0  0  0  0  0  0  0  0  0  0
  130.0925  134.8922  159.7549 C   0  0  0  0  0  0  0  0  0  0  0  0
  131.1881  135.8694  159.7011 N   0  0  0  0  0  0  0  0  0  0  0  0
  131.2838  136.2158  158.7584 H   0  0  0  0  0  0  0  0  0  0  0  0
  132.0486  135.4258  159.9856 H   0  0  0  0  0  0  0  0  0  0  0  0
  130.8914  136.9878  160.6062 C   0  0  0  0  0  0  0  0  0  0  0  0
  132.0152  137.9903  160.5511 C   0  0  0  0  0  0  0  0  0  0  0  0
  132.5800  138.5749  161.6191 C   0  0  0  0  0  0  0  0  0  0  0  0
  133.6231  139.4710  161.1150 C   0  0  0  0  0  0  0  0  0  0  0  0
  134.5410  140.3373  161.7256 C   0  0  0  0  0  0  0  0  0  0  0  0
  134.5693  140.4657  163.1151 N   0  0  0  0  0  0  0  0  0  0  0  0
  135.7623  140.9989  163.7772 C   0  0  0  0  0  0  0  0  0  0  0  0
  135.5332  141.0345  165.2896 C   0  0  0  0  0  0  0  0  0  0  0  0
  135.2583  139.6177  165.7973 C   0  0  0  0  0  0  0  0  0  0  0  0
  136.4405  138.7355  165.4891 C   0  0  0  0  0  0  0  0  0  0  0  0
  136.4984  138.0560  164.3109 C   0  0  0  0  0  0  0  0  0  0  0  0
  137.5831  137.2353  164.0089 C   0  0  0  0  0  0  0  0  0  0  0  0
  138.6171  137.0901  164.8823 C   0  0  0  0  0  0  0  0  0  0  0  0
  138.5928  137.7760  166.1084 C   0  0  0  0  0  0  0  0  0  0  0  0
  139.6411  137.6505  167.0360 C   0  0  0  0  0  0  0  0  0  0  0  0
  139.5824  138.3291  168.2142 C   0  0  0  0  0  0  0  0  0  0  0  0
  138.4971  139.1496  168.5166 C   0  0  0  0  0  0  0  0  0  0  0  0
  137.4639  139.2954  167.6429 C   0  0  0  0  0  0  0  0  0  0  0  0
  137.4888  138.6100  166.4161 C   0  0  0  0  0  0  0  0  0  0  0  0
  135.4145  141.0682  160.9405 C   0  0  0  0  0  0  0  0  0  0  0  0
  135.3911  140.9371  159.5594 C   0  0  0  0  0  0  0  0  0  0  0  0
  134.4942  140.0895  158.9478 C   0  0  0  0  0  0  0  0  0  0  0  0
  133.6007  139.3472  159.7157 C   0  0  0  0  0  0  0  0  0  0  0  0
  132.6129  138.4401  159.4038 N   0  0  0  0  0  0  0  0  0  0  0  0
  132.3759  138.1610  158.5056 H   0  0  0  0  0  0  0  0  0  0  0  0
  130.7676  132.1328  161.3386 H   0  0  0  0  0  0  0  0  0  0  0  0
  132.4595  132.0056  160.8002 H   0  0  0  0  0  0  0  0  0  0  0  0
  131.7348  133.6059  161.0870 H   0  0  0  0  0  0  0  0  0  0  0  0
  132.3675  130.4412  159.8283 H   0  0  0  0  0  0  0  0  0  0  0  0
  132.2695  129.7385  158.3053 H   0  0  0  0  0  0  0  0  0  0  0  0
  131.1682  130.8205  156.4448 H   0  0  0  0  0  0  0  0  0  0  0  0
  129.9305  132.7836  155.6250 H   0  0  0  0  0  0  0  0  0  0  0  0
  129.4280  134.6492  157.1493 H   0  0  0  0  0  0  0  0  0  0  0  0
  129.9890  134.5180  160.7733 H   0  0  0  0  0  0  0  0  0  0  0  0
  129.1629  135.3714  159.4476 H   0  0  0  0  0  0  0  0  0  0  0  0
  130.7879  136.6135  161.6247 H   0  0  0  0  0  0  0  0  0  0  0  0
  129.9618  137.4669  160.2989 H   0  0  0  0  0  0  0  0  0  0  0  0
  132.3158  138.4147  162.6540 H   0  0  0  0  0  0  0  0  0  0  0  0
  133.7990  140.2018  163.6423 H   0  0  0  0  0  0  0  0  0  0  0  0
  135.9581  142.0083  163.4156 H   0  0  0  0  0  0  0  0  0  0  0  0
  136.6174  140.3609  163.5543 H   0  0  0  0  0  0  0  0  0  0  0  0
  134.6779  141.6726  165.5126 H   0  0  0  0  0  0  0  0  0  0  0  0
  136.4207  141.4314  165.7824 H   0  0  0  0  0  0  0  0  0  0  0  0
  134.3706  139.2210  165.3046 H   0  0  0  0  0  0  0  0  0  0  0  0
  135.0950  139.6431  166.8748 H   0  0  0  0  0  0  0  0  0  0  0  0
  135.6915  138.1544  163.6000 H   0  0  0  0  0  0  0  0  0  0  0  0
  137.6042  136.7069  163.0670 H   0  0  0  0  0  0  0  0  0  0  0  0
  139.4537  136.4545  164.6323 H   0  0  0  0  0  0  0  0  0  0  0  0
  140.4885  137.0183  166.8153 H   0  0  0  0  0  0  0  0  0  0  0  0
  140.3892  138.2306  168.9254 H   0  0  0  0  0  0  0  0  0  0  0  0
  138.4755  139.6773  169.4588 H   0  0  0  0  0  0  0  0  0  0  0  0
  136.6295  139.9347  167.8908 H   0  0  0  0  0  0  0  0  0  0  0  0
  136.1207  141.7404  161.4050 H   0  0  0  0  0  0  0  0  0  0  0  0
  136.0810  141.5095  158.9570 H   0  0  0  0  0  0  0  0  0  0  0  0
  134.4842  140.0002  157.8715 H   0  0  0  0  0  0  0  0  0  0  0  0
  1  2  1  0
  1 38  1  0
  1 39  1  0
  1 40  1  0
  2  8  2  0
  2  3  1  0
  3  4  1  0
  3  5  2  0
  4 41  1  0
  4 42  1  0
  5  6  1  0
  5 43  1  0
  6  7  2  0
  6 44  1  0
  7  8  1  0
  7 45  1  0
  8  9  1  0
  9 10  1  0
  9 46  1  0
  9 47  1  0
 10 11  1  0
 10 12  1  0
 10 13  1  0
 13 14  1  0
 13 48  1  0
 13 49  1  0
 14 36  1  0
 14 15  2  0
 15 16  1  0
 15 50  1  0
 16 35  2  0
 16 17  1  0
 17 18  1  0
 17 32  2  0
 18 19  1  0
 18 51  1  0
 19 20  1  0
 19 52  1  0
 19 53  1  0
 20 21  1  0
 20 54  1  0
 20 55  1  0
 21 22  1  0
 21 56  1  0
 21 57  1  0
 22 31  1  0
 22 23  2  0
 23 24  1  0
 23 58  1  0
 24 25  2  0
 24 59  1  0
 25 26  1  0
 25 60  1  0
 26 31  2  0
 26 27  1  0
 27 28  2  0
 27 61  1  0
 28 29  1  0
 28 62  1  0
 29 30  2  0
 29 63  1  0
 30 31  1  0
 30 64  1  0
 32 33  1  0
 32 65  1  0
 33 34  2  0
 33 66  1  0
 34 35  1  0
 34 67  1  0
 35 36  1  0
 36 37  1  0
M  CHG  1  10   1
M  END
>  <DOCK_score>  (1) 
-58.804203

>  <SMILES>  (1) 
Cc1c(N)cccc1C[NH2+]Cc1cc2c(NCCCc3cccc4ccccc34)cccc2[nH]1

$$$$
