CCCNc1ccc(-c2n[nH]cc2C[NH2+][C@H](C)c2cc3ccccc3[nH]2)o1
     RDKit          3D

 53 56  0  0  1  0  0  0  0  0999 V2000
  128.0535  138.0423  165.3085 C   0  0  0  0  0  0  0  0  0  0  0  0
  127.1661  137.2944  164.3116 C   0  0  0  0  0  0  0  0  0  0  0  0
  127.7314  137.4620  162.8998 C   0  0  0  0  0  0  0  0  0  0  0  0
  126.8816  136.7458  161.9453 N   0  0  0  0  0  0  0  0  0  0  0  0
  127.4156  135.7220  161.1714 C   0  0  0  0  0  0  0  0  0  0  0  0
  126.7077  134.7418  160.5564 C   0  0  0  0  0  0  0  0  0  0  0  0
  127.6370  133.9230  159.8851 C   0  0  0  0  0  0  0  0  0  0  0  0
  128.8682  134.4461  160.1251 C   0  0  0  0  0  0  0  0  0  0  0  0
  130.1492  133.9126  159.6178 C   0  0  0  0  0  0  0  0  0  0  0  0
  130.2991  132.8475  158.8551 N   0  0  0  0  0  0  0  0  0  0  0  0
  131.6667  132.6847  158.5998 N   0  0  0  0  0  0  0  0  0  0  0  0
  132.0656  131.9810  158.0647 H   0  0  0  0  0  0  0  0  0  0  0  0
  132.3335  133.6805  159.2230 C   0  0  0  0  0  0  0  0  0  0  0  0
  131.4295  134.4519  159.8640 C   0  0  0  0  0  0  0  0  0  0  0  0
  131.7334  135.6750  160.6903 C   0  0  0  0  0  0  0  0  0  0  0  0
  130.7944  136.7486  160.3395 N   0  0  0  0  0  0  0  0  0  0  0  0
  129.8505  136.4438  160.5246 H   0  0  0  0  0  0  0  0  0  0  0  0
  130.8896  136.9722  159.3602 H   0  0  0  0  0  0  0  0  0  0  0  0
  131.0907  137.9410  161.1450 C   0  0  2  0  0  0  0  0  0  0  0  0
  130.9877  137.6994  162.2029 H   0  0  0  0  0  0  0  0  0  0  0  0
  130.1124  139.0592  160.7797 C   0  0  0  0  0  0  0  0  0  0  0  0
  132.5002  138.3965  160.8685 C   0  0  0  0  0  0  0  0  0  0  0  0
  132.9676  138.7702  159.6668 C   0  0  0  0  0  0  0  0  0  0  0  0
  134.3768  139.1269  159.8476 C   0  0  0  0  0  0  0  0  0  0  0  0
  135.3818  139.5767  158.9889 C   0  0  0  0  0  0  0  0  0  0  0  0
  136.6318  139.8275  159.4803 C   0  0  0  0  0  0  0  0  0  0  0  0
  136.9109  139.6388  160.8271 C   0  0  0  0  0  0  0  0  0  0  0  0
  135.9343  139.1960  161.6919 C   0  0  0  0  0  0  0  0  0  0  0  0
  134.6545  138.9344  161.2130 C   0  0  0  0  0  0  0  0  0  0  0  0
  133.4924  138.4937  161.8057 N   0  0  0  0  0  0  0  0  0  0  0  0
  133.3930  138.2801  162.7466 H   0  0  0  0  0  0  0  0  0  0  0  0
  128.7205  135.5333  160.9112 O   0  0  0  0  0  0  0  0  0  0  0  0
  129.0643  137.6360  165.2713 H   0  0  0  0  0  0  0  0  0  0  0  0
  128.0778  139.1010  165.0502 H   0  0  0  0  0  0  0  0  0  0  0  0
  127.6508  137.9229  166.3143 H   0  0  0  0  0  0  0  0  0  0  0  0
  126.1553  137.7007  164.3488 H   0  0  0  0  0  0  0  0  0  0  0  0
  127.1418  136.2356  164.5700 H   0  0  0  0  0  0  0  0  0  0  0  0
  128.7421  137.0556  162.8625 H   0  0  0  0  0  0  0  0  0  0  0  0
  127.7558  138.5206  162.6415 H   0  0  0  0  0  0  0  0  0  0  0  0
  125.9463  136.9861  161.8532 H   0  0  0  0  0  0  0  0  0  0  0  0
  125.6356  134.6137  160.5773 H   0  0  0  0  0  0  0  0  0  0  0  0
  127.4140  133.0473  159.2937 H   0  0  0  0  0  0  0  0  0  0  0  0
  133.4028  133.8318  159.2122 H   0  0  0  0  0  0  0  0  0  0  0  0
  132.7531  136.0044  160.4904 H   0  0  0  0  0  0  0  0  0  0  0  0
  131.6306  135.4335  161.7482 H   0  0  0  0  0  0  0  0  0  0  0  0
  130.2154  139.3007  159.7217 H   0  0  0  0  0  0  0  0  0  0  0  0
  129.0927  138.7298  160.9796 H   0  0  0  0  0  0  0  0  0  0  0  0
  130.3322  139.9439  161.3773 H   0  0  0  0  0  0  0  0  0  0  0  0
  132.4114  138.7979  158.7414 H   0  0  0  0  0  0  0  0  0  0  0  0
  135.1719  139.7262  157.9401 H   0  0  0  0  0  0  0  0  0  0  0  0
  137.4087  140.1758  158.8159 H   0  0  0  0  0  0  0  0  0  0  0  0
  137.9038  139.8413  161.2008 H   0  0  0  0  0  0  0  0  0  0  0  0
  136.1612  139.0529  162.7380 H   0  0  0  0  0  0  0  0  0  0  0  0
  1  2  1  0
  1 33  1  0
  1 34  1  0
  1 35  1  0
  2  3  1  0
  2 36  1  0
  2 37  1  0
  3  4  1  0
  3 38  1  0
  3 39  1  0
  4  5  1  0
  4 40  1  0
  5 32  1  0
  5  6  2  0
  6  7  1  0
  6 41  1  0
  7  8  2  0
  7 42  1  0
  8  9  1  0
  8 32  1  0
  9 14  1  0
  9 10  2  0
 10 11  1  0
 11 12  1  0
 11 13  1  0
 13 14  2  0
 13 43  1  0
 14 15  1  0
 15 16  1  0
 15 44  1  0
 15 45  1  0
 16 17  1  0
 16 18  1  0
 16 19  1  0
 19 20  1  1
 19 21  1  0
 19 22  1  0
 21 46  1  0
 21 47  1  0
 21 48  1  0
 22 30  1  0
 22 23  2  0
 23 24  1  0
 23 49  1  0
 24 29  2  0
 24 25  1  0
 25 26  2  0
 25 50  1  0
 26 27  1  0
 26 51  1  0
 27 28  2  0
 27 52  1  0
 28 29  1  0
 28 53  1  0
 29 30  1  0
 30 31  1  0
M  CHG  1  16   1
M  END
>  <DOCK_score>  (1) 
-43.011848

>  <SMILES>  (1) 
CCCNc1ccc(-c2n[nH]cc2C[NH2+][C@H](C)c2cc3ccccc3[nH]2)o1

$$$$
