Cc1ccc(-c2ccc(C[C@H](Nc3[nH]cc(-c4ccc(N)cc4)[nH+]3)c3ccccc3)cc2)cc1
     RDKit          3D

 63 67  0  0  1  0  0  0  0  0999 V2000
  138.0897  136.3928  165.4863 C   0  0  0  0  0  0  0  0  0  0  0  0
  136.7868  136.4767  164.7335 C   0  0  0  0  0  0  0  0  0  0  0  0
  136.7491  136.1699  163.3854 C   0  0  0  0  0  0  0  0  0  0  0  0
  135.5575  136.2396  162.6923 C   0  0  0  0  0  0  0  0  0  0  0  0
  134.3923  136.6251  163.3521 C   0  0  0  0  0  0  0  0  0  0  0  0
  133.1082  136.7014  162.6122 C   0  0  0  0  0  0  0  0  0  0  0  0
  131.9053  136.4586  163.2724 C   0  0  0  0  0  0  0  0  0  0  0  0
  130.7137  136.5352  162.5804 C   0  0  0  0  0  0  0  0  0  0  0  0
  130.7128  136.8425  161.2316 C   0  0  0  0  0  0  0  0  0  0  0  0
  129.4088  136.9196  160.4802 C   0  0  0  0  0  0  0  0  0  0  0  0
  129.0691  135.5428  159.9056 C   0  0  2  0  0  0  0  0  0  0  0  0
  128.9780  134.8223  160.7185 H   0  0  0  0  0  0  0  0  0  0  0  0
  130.1340  135.1180  158.9936 N   0  0  0  0  0  0  0  0  0  0  0  0
  130.0467  133.8959  158.3491 C   0  0  0  0  0  0  0  0  0  0  0  0
  129.4177  132.7893  158.8301 N   0  0  0  0  0  0  0  0  0  0  0  0
  128.9540  132.7152  159.6788 H   0  0  0  0  0  0  0  0  0  0  0  0
  129.5612  131.7955  157.8909 C   0  0  0  0  0  0  0  0  0  0  0  0
  130.2730  132.3240  156.8650 C   0  0  0  0  0  0  0  0  0  0  0  0
  130.6720  131.6164  155.6237 C   0  0  0  0  0  0  0  0  0  0  0  0
  130.2407  132.0850  154.3836 C   0  0  0  0  0  0  0  0  0  0  0  0
  130.6172  131.4287  153.2308 C   0  0  0  0  0  0  0  0  0  0  0  0
  131.4162  130.2946  153.3049 C   0  0  0  0  0  0  0  0  0  0  0  0
  131.7915  129.6282  152.1359 N   0  0  0  0  0  0  0  0  0  0  0  0
  131.8433  129.8221  154.5408 C   0  0  0  0  0  0  0  0  0  0  0  0
  131.4741  130.4785  155.6959 C   0  0  0  0  0  0  0  0  0  0  0  0
  130.5516  133.6156  157.1723 N   0  0  0  0  0  0  0  0  0  0  0  0
  131.0475  134.2326  156.6117 H   0  0  0  0  0  0  0  0  0  0  0  0
  127.7651  135.6198  159.1541 C   0  0  0  0  0  0  0  0  0  0  0  0
  126.5734  135.3775  159.8113 C   0  0  0  0  0  0  0  0  0  0  0  0
  125.3770  135.4520  159.1228 C   0  0  0  0  0  0  0  0  0  0  0  0
  125.3729  135.7608  157.7753 C   0  0  0  0  0  0  0  0  0  0  0  0
  126.5651  135.9980  157.1170 C   0  0  0  0  0  0  0  0  0  0  0  0
  127.7612  135.9272  157.8064 C   0  0  0  0  0  0  0  0  0  0  0  0
  131.9043  137.0797  160.5703 C   0  0  0  0  0  0  0  0  0  0  0  0
  133.1015  137.0105  161.2536 C   0  0  0  0  0  0  0  0  0  0  0  0
  134.4372  136.9382  164.7090 C   0  0  0  0  0  0  0  0  0  0  0  0
  135.6342  136.8652  165.3922 C   0  0  0  0  0  0  0  0  0  0  0  0
  138.5995  137.3550  165.4387 H   0  0  0  0  0  0  0  0  0  0  0  0
  137.8920  136.1376  166.5274 H   0  0  0  0  0  0  0  0  0  0  0  0
  138.7199  135.6251  165.0374 H   0  0  0  0  0  0  0  0  0  0  0  0
  137.6526  135.8708  162.8750 H   0  0  0  0  0  0  0  0  0  0  0  0
  135.5284  135.9961  161.6405 H   0  0  0  0  0  0  0  0  0  0  0  0
  131.9054  136.2141  164.3244 H   0  0  0  0  0  0  0  0  0  0  0  0
  129.7806  136.3509  163.0918 H   0  0  0  0  0  0  0  0  0  0  0  0
  128.6165  137.2356  161.1587 H   0  0  0  0  0  0  0  0  0  0  0  0
  129.4999  137.6401  159.6673 H   0  0  0  0  0  0  0  0  0  0  0  0
  130.9002  135.6931  158.8413 H   0  0  0  0  0  0  0  0  0  0  0  0
  129.1801  130.7873  157.9576 H   0  0  0  0  0  0  0  0  0  0  0  0
  129.6155  132.9637  154.3256 H   0  0  0  0  0  0  0  0  0  0  0  0
  130.2869  131.7940  152.2696 H   0  0  0  0  0  0  0  0  0  0  0  0
  132.3499  128.8359  152.1874 H   0  0  0  0  0  0  0  0  0  0  0  0
  131.4942  129.9564  151.2736 H   0  0  0  0  0  0  0  0  0  0  0  0
  132.4645  128.9403  154.5962 H   0  0  0  0  0  0  0  0  0  0  0  0
  131.8062  130.1115  156.6557 H   0  0  0  0  0  0  0  0  0  0  0  0
  126.5767  135.1330  160.8632 H   0  0  0  0  0  0  0  0  0  0  0  0
  124.4455  135.2664  159.6370 H   0  0  0  0  0  0  0  0  0  0  0  0
  124.4383  135.8164  157.2369 H   0  0  0  0  0  0  0  0  0  0  0  0
  126.5620  136.2388  156.0643 H   0  0  0  0  0  0  0  0  0  0  0  0
  128.6926  136.1125  157.2920 H   0  0  0  0  0  0  0  0  0  0  0  0
  131.8978  137.3193  159.5172 H   0  0  0  0  0  0  0  0  0  0  0  0
  134.0312  137.1959  160.7363 H   0  0  0  0  0  0  0  0  0  0  0  0
  133.5371  137.2380  165.2252 H   0  0  0  0  0  0  0  0  0  0  0  0
  135.6701  137.1077  166.4441 H   0  0  0  0  0  0  0  0  0  0  0  0
  1  2  1  0
  1 38  1  0
  1 39  1  0
  1 40  1  0
  2 37  2  0
  2  3  1  0
  3  4  2  0
  3 41  1  0
  4  5  1  0
  4 42  1  0
  5  6  1  0
  5 36  2  0
  6 35  1  0
  6  7  2  0
  7  8  1  0
  7 43  1  0
  8  9  2  0
  8 44  1  0
  9 10  1  0
  9 34  1  0
 10 11  1  0
 10 45  1  0
 10 46  1  0
 11 12  1  1
 11 13  1  0
 11 28  1  0
 13 47  1  0
 14 13  1  0
 14 26  2  0
 14 15  1  0
 15 16  1  0
 15 17  1  0
 17 18  2  0
 17 48  1  0
 18 19  1  0
 18 26  1  0
 19 25  1  0
 19 20  2  0
 20 21  1  0
 20 49  1  0
 21 22  2  0
 21 50  1  0
 22 23  1  0
 22 24  1  0
 23 51  1  0
 23 52  1  0
 24 25  2  0
 24 53  1  0
 25 54  1  0
 26 27  1  0
 28 33  1  0
 28 29  2  0
 29 30  1  0
 29 55  1  0
 30 31  2  0
 30 56  1  0
 31 32  1  0
 31 57  1  0
 32 33  2  0
 32 58  1  0
 33 59  1  0
 34 35  2  0
 34 60  1  0
 35 61  1  0
 36 37  1  0
 36 62  1  0
 37 63  1  0
M  CHG  1  26   1
M  END
>  <DOCK_score>  (1) 
-64.393272

>  <SMILES>  (1) 
Cc1ccc(-c2ccc(C[C@H](Nc3[nH]cc(-c4ccc(N)cc4)[nH+]3)c3ccccc3)cc2)cc1

$$$$
