O=C1CC[C@H](NC(N[C@H]2CCc3ccccc3C2)=[NH+]C2CC2)CN1
     RDKit          3D

 51 54  0  0  1  0  0  0  0  0999 V2000
  123.6815  133.6491  161.1814 O   0  0  0  0  0  0  0  0  0  0  0  0
  124.8276  133.9826  160.9664 C   0  0  0  0  0  0  0  0  0  0  0  0
  125.6696  133.1052  160.0854 C   0  0  0  0  0  0  0  0  0  0  0  0
  127.1510  133.4349  160.2852 C   0  0  0  0  0  0  0  0  0  0  0  0
  127.3262  134.9554  160.1903 C   0  0  2  0  0  0  0  0  0  0  0  0
  126.8749  135.3186  159.2670 H   0  0  0  0  0  0  0  0  0  0  0  0
  128.7530  135.2876  160.2039 N   0  0  0  0  0  0  0  0  0  0  0  0
  129.5822  134.7978  159.2227 C   0  0  0  0  0  0  0  0  0  0  0  0
  130.9211  135.1095  159.2355 N   0  0  0  0  0  0  0  0  0  0  0  0
  131.6031  135.3582  160.5080 C   0  0  1  0  0  0  0  0  0  0  0  0
  130.8975  135.7735  161.2276 H   0  0  0  0  0  0  0  0  0  0  0  0
  132.1809  134.0455  161.0502 C   0  0  0  0  0  0  0  0  0  0  0  0
  132.6702  134.2872  162.4767 C   0  0  0  0  0  0  0  0  0  0  0  0
  133.5762  135.4895  162.5278 C   0  0  0  0  0  0  0  0  0  0  0  0
  134.3913  135.6383  163.6427 C   0  0  0  0  0  0  0  0  0  0  0  0
  135.2317  136.7263  163.7566 C   0  0  0  0  0  0  0  0  0  0  0  0
  135.2603  137.6793  162.7553 C   0  0  0  0  0  0  0  0  0  0  0  0
  134.4506  137.5341  161.6482 C   0  0  0  0  0  0  0  0  0  0  0  0
  133.6050  136.4384  161.5309 C   0  0  0  0  0  0  0  0  0  0  0  0
  132.7544  136.3384  160.2917 C   0  0  0  0  0  0  0  0  0  0  0  0
  129.0989  134.0380  158.2804 N   0  0  0  0  0  0  0  0  0  0  0  0
  128.1798  134.1496  157.9911 H   0  0  0  0  0  0  0  0  0  0  0  0
  129.9437  133.0157  157.6581 C   0  0  0  0  0  0  0  0  0  0  0  0
  129.3913  131.5906  157.5862 C   0  0  0  0  0  0  0  0  0  0  0  0
  130.5189  131.9263  158.5655 C   0  0  0  0  0  0  0  0  0  0  0  0
  126.6370  135.6036  161.3916 C   0  0  0  0  0  0  0  0  0  0  0  0
  125.2726  135.1086  161.5254 N   0  0  0  0  0  0  0  0  0  0  0  0
  125.3989  133.2725  159.0429 H   0  0  0  0  0  0  0  0  0  0  0  0
  125.4934  132.0606  160.3420 H   0  0  0  0  0  0  0  0  0  0  0  0
  127.7431  132.9483  159.5101 H   0  0  0  0  0  0  0  0  0  0  0  0
  127.4754  133.0887  161.2664 H   0  0  0  0  0  0  0  0  0  0  0  0
  129.1126  135.8531  160.9052 H   0  0  0  0  0  0  0  0  0  0  0  0
  131.4143  135.1649  158.4020 H   0  0  0  0  0  0  0  0  0  0  0  0
  131.4076  133.2773  161.0525 H   0  0  0  0  0  0  0  0  0  0  0  0
  133.0143  133.7252  160.4249 H   0  0  0  0  0  0  0  0  0  0  0  0
  131.8118  134.4520  163.1280 H   0  0  0  0  0  0  0  0  0  0  0  0
  133.2199  133.4114  162.8214 H   0  0  0  0  0  0  0  0  0  0  0  0
  134.3702  134.8938  164.4248 H   0  0  0  0  0  0  0  0  0  0  0  0
  135.8652  136.8330  164.6247 H   0  0  0  0  0  0  0  0  0  0  0  0
  135.9148  138.5344  162.8398 H   0  0  0  0  0  0  0  0  0  0  0  0
  134.4745  138.2784  160.8659 H   0  0  0  0  0  0  0  0  0  0  0  0
  132.3490  137.3219  160.0537 H   0  0  0  0  0  0  0  0  0  0  0  0
  133.3690  135.9923  159.4608 H   0  0  0  0  0  0  0  0  0  0  0  0
  130.5623  133.3582  156.8286 H   0  0  0  0  0  0  0  0  0  0  0  0
  128.3993  131.4138  158.0018 H   0  0  0  0  0  0  0  0  0  0  0  0
  129.6469  130.9955  156.7094 H   0  0  0  0  0  0  0  0  0  0  0  0
  131.5157  131.5519  158.3327 H   0  0  0  0  0  0  0  0  0  0  0  0
  130.2691  131.9705  159.6256 H   0  0  0  0  0  0  0  0  0  0  0  0
  127.1959  135.3687  162.2976 H   0  0  0  0  0  0  0  0  0  0  0  0
  126.6162  136.6847  161.2550 H   0  0  0  0  0  0  0  0  0  0  0  0
  124.6493  135.6308  162.0542 H   0  0  0  0  0  0  0  0  0  0  0  0
  1  2  2  0
  2 27  1  0
  2  3  1  0
  3  4  1  0
  3 28  1  0
  3 29  1  0
  4  5  1  0
  4 30  1  0
  4 31  1  0
  5  6  1  6
  5  7  1  0
  5 26  1  0
  7 32  1  0
  8  7  1  0
  8  9  1  0
  8 21  2  0
  9 10  1  0
  9 33  1  0
 10 11  1  1
 10 20  1  0
 10 12  1  0
 12 13  1  0
 12 34  1  0
 12 35  1  0
 13 14  1  0
 13 36  1  0
 13 37  1  0
 14 19  2  0
 14 15  1  0
 15 16  2  0
 15 38  1  0
 16 17  1  0
 16 39  1  0
 17 18  2  0
 17 40  1  0
 18 19  1  0
 18 41  1  0
 19 20  1  0
 20 42  1  0
 20 43  1  0
 21 22  1  0
 21 23  1  0
 23 25  1  0
 23 24  1  0
 23 44  1  0
 24 25  1  0
 24 45  1  0
 24 46  1  0
 25 47  1  0
 25 48  1  0
 26 27  1  0
 26 49  1  0
 26 50  1  0
 27 51  1  0
M  CHG  1  21   1
M  END
>  <DOCK_score>  (1) 
-41.786335

>  <SMILES>  (1) 
O=C1CC[C@H](NC(N[C@H]2CCc3ccccc3C2)=[NH+]C2CC2)CN1

$$$$
