Cn1nccc1[C@H](Nc1[nH]cc(-c2ccccc2)[nH+]1)c1ccccc1
     RDKit          3D

 45 48  0  0  1  0  0  0  0  0999 V2000
  128.0032  136.9262  162.3740 C   0  0  0  0  0  0  0  0  0  0  0  0
  128.8194  137.5955  161.3581 N   0  0  0  0  0  0  0  0  0  0  0  0
  129.3307  138.8974  161.4380 N   0  0  0  0  0  0  0  0  0  0  0  0
  130.0062  139.1391  160.3439 C   0  0  0  0  0  0  0  0  0  0  0  0
  129.9422  138.0027  159.5309 C   0  0  0  0  0  0  0  0  0  0  0  0
  129.2116  137.0669  160.1800 C   0  0  0  0  0  0  0  0  0  0  0  0
  128.8886  135.6843  159.6752 C   0  0  2  0  0  0  0  0  0  0  0  0
  128.7774  135.0055  160.5206 H   0  0  0  0  0  0  0  0  0  0  0  0
  129.9742  135.2140  158.8111 N   0  0  0  0  0  0  0  0  0  0  0  0
  129.9007  133.9612  158.2268 C   0  0  0  0  0  0  0  0  0  0  0  0
  129.2688  132.8769  158.7531 N   0  0  0  0  0  0  0  0  0  0  0  0
  128.7929  132.8431  159.5977 H   0  0  0  0  0  0  0  0  0  0  0  0
  129.4265  131.8398  157.8661 C   0  0  0  0  0  0  0  0  0  0  0  0
  130.1569  132.3174  156.8282 C   0  0  0  0  0  0  0  0  0  0  0  0
  130.5787  131.5495  155.6313 C   0  0  0  0  0  0  0  0  0  0  0  0
  130.1711  131.9539  154.3613 C   0  0  0  0  0  0  0  0  0  0  0  0
  130.5717  131.2393  153.2507 C   0  0  0  0  0  0  0  0  0  0  0  0
  131.3661  130.1164  153.3972 C   0  0  0  0  0  0  0  0  0  0  0  0
  131.7689  129.7070  154.6557 C   0  0  0  0  0  0  0  0  0  0  0  0
  131.3795  130.4175  155.7729 C   0  0  0  0  0  0  0  0  0  0  0  0
  130.4329  133.6221  157.0780 N   0  0  0  0  0  0  0  0  0  0  0  0
  130.9427  134.2100  156.4989 H   0  0  0  0  0  0  0  0  0  0  0  0
  127.6029  135.7237  158.8900 C   0  0  0  0  0  0  0  0  0  0  0  0
  126.3956  135.5148  159.5298 C   0  0  0  0  0  0  0  0  0  0  0  0
  125.2159  135.5553  158.8103 C   0  0  0  0  0  0  0  0  0  0  0  0
  125.2445  135.7955  157.4493 C   0  0  0  0  0  0  0  0  0  0  0  0
  126.4522  135.9991  156.8084 C   0  0  0  0  0  0  0  0  0  0  0  0
  127.6315  135.9630  157.5287 C   0  0  0  0  0  0  0  0  0  0  0  0
  126.9487  137.1225  162.1801 H   0  0  0  0  0  0  0  0  0  0  0  0
  128.1856  135.8522  162.3368 H   0  0  0  0  0  0  0  0  0  0  0  0
  128.2681  137.3058  163.3608 H   0  0  0  0  0  0  0  0  0  0  0  0
  130.5203  140.0590  160.1074 H   0  0  0  0  0  0  0  0  0  0  0  0
  130.3974  137.8912  158.5579 H   0  0  0  0  0  0  0  0  0  0  0  0
  130.7447  135.7805  158.6484 H   0  0  0  0  0  0  0  0  0  0  0  0
  129.0450  130.8354  157.9761 H   0  0  0  0  0  0  0  0  0  0  0  0
  129.5470  132.8278  154.2462 H   0  0  0  0  0  0  0  0  0  0  0  0
  130.2608  131.5547  152.2658 H   0  0  0  0  0  0  0  0  0  0  0  0
  131.6731  129.5572  152.5257 H   0  0  0  0  0  0  0  0  0  0  0  0
  132.3897  128.8300  154.7641 H   0  0  0  0  0  0  0  0  0  0  0  0
  131.6949  130.0973  156.7549 H   0  0  0  0  0  0  0  0  0  0  0  0
  126.3736  135.3235  160.5925 H   0  0  0  0  0  0  0  0  0  0  0  0
  124.2724  135.3966  159.3111 H   0  0  0  0  0  0  0  0  0  0  0  0
  124.3230  135.8246  156.8867 H   0  0  0  0  0  0  0  0  0  0  0  0
  126.4744  136.1868  155.7451 H   0  0  0  0  0  0  0  0  0  0  0  0
  128.5751  136.1220  157.0281 H   0  0  0  0  0  0  0  0  0  0  0  0
  1  2  1  0
  1 29  1  0
  1 30  1  0
  1 31  1  0
  2  6  1  0
  2  3  1  0
  3  4  2  0
  4  5  1  0
  4 32  1  0
  5  6  2  0
  5 33  1  0
  6  7  1  0
  7  8  1  1
  7  9  1  0
  7 23  1  0
  9 34  1  0
 10  9  1  0
 10 21  2  0
 10 11  1  0
 11 12  1  0
 11 13  1  0
 13 14  2  0
 13 35  1  0
 14 15  1  0
 14 21  1  0
 15 20  1  0
 15 16  2  0
 16 17  1  0
 16 36  1  0
 17 18  2  0
 17 37  1  0
 18 19  1  0
 18 38  1  0
 19 20  2  0
 19 39  1  0
 20 40  1  0
 21 22  1  0
 23 28  1  0
 23 24  2  0
 24 25  1  0
 24 41  1  0
 25 26  2  0
 25 42  1  0
 26 27  1  0
 26 43  1  0
 27 28  2  0
 27 44  1  0
 28 45  1  0
M  CHG  1  21   1
M  END
>  <DOCK_score>  (1) 
-57.830177

>  <SMILES>  (1) 
Cn1nccc1[C@H](Nc1[nH]cc(-c2ccccc2)[nH+]1)c1ccccc1

$$$$
