C#Cc1ccc([C@@H](Cc2ccc(C)cc2)Nc2[nH]cc(-c3ccc(CC)cc3)[nH+]2)cc1
     RDKit          3D

 59 62  0  0  1  0  0  0  0  0999 V2000
  135.7860  136.8153  164.0222 C   0  0  0  0  0  0  0  0  0  0  0  0
  134.8360  136.5457  163.3875 C   0  0  0  0  0  0  0  0  0  0  0  0
  133.6771  136.2167  162.6132 C   0  0  0  0  0  0  0  0  0  0  0  0
  132.9502  135.0599  162.8967 C   0  0  0  0  0  0  0  0  0  0  0  0
  131.8343  134.7488  162.1472 C   0  0  0  0  0  0  0  0  0  0  0  0
  131.4357  135.5811  161.1165 C   0  0  0  0  0  0  0  0  0  0  0  0
  130.2158  135.2353  160.3021 C   0  0  1  0  0  0  0  0  0  0  0  0
  129.7857  134.3035  160.6698 H   0  0  0  0  0  0  0  0  0  0  0  0
  129.1838  136.3577  160.4273 C   0  0  0  0  0  0  0  0  0  0  0  0
  128.7925  136.5214  161.8734 C   0  0  0  0  0  0  0  0  0  0  0  0
  129.4956  137.3913  162.6854 C   0  0  0  0  0  0  0  0  0  0  0  0
  129.1339  137.5446  164.0108 C   0  0  0  0  0  0  0  0  0  0  0  0
  128.0751  136.8209  164.5264 C   0  0  0  0  0  0  0  0  0  0  0  0
  127.6836  136.9845  165.9725 C   0  0  0  0  0  0  0  0  0  0  0  0
  127.3748  135.9474  163.7155 C   0  0  0  0  0  0  0  0  0  0  0  0
  127.7338  135.7973  162.3890 C   0  0  0  0  0  0  0  0  0  0  0  0
  130.5963  135.0762  158.8963 N   0  0  0  0  0  0  0  0  0  0  0  0
  130.3843  133.8682  158.2543 C   0  0  0  0  0  0  0  0  0  0  0  0
  129.8378  132.7562  158.8175 N   0  0  0  0  0  0  0  0  0  0  0  0
  129.5296  132.6683  159.7330 H   0  0  0  0  0  0  0  0  0  0  0  0
  129.8028  131.7817  157.8500 C   0  0  0  0  0  0  0  0  0  0  0  0
  130.3284  132.3255  156.7244 C   0  0  0  0  0  0  0  0  0  0  0  0
  130.4941  131.6405  155.4192 C   0  0  0  0  0  0  0  0  0  0  0  0
  129.8619  132.1401  154.2818 C   0  0  0  0  0  0  0  0  0  0  0  0
  130.0201  131.4989  153.0700 C   0  0  0  0  0  0  0  0  0  0  0  0
  130.8040  130.3622  152.9830 C   0  0  0  0  0  0  0  0  0  0  0  0
  130.9724  129.6664  151.6569 C   0  0  0  0  0  0  0  0  0  0  0  0
  129.8708  128.6181  151.4876 C   0  0  0  0  0  0  0  0  0  0  0  0
  131.4290  129.8590  154.1095 C   0  0  0  0  0  0  0  0  0  0  0  0
  131.2830  130.4953  155.3253 C   0  0  0  0  0  0  0  0  0  0  0  0
  130.6810  133.6051  157.0050 N   0  0  0  0  0  0  0  0  0  0  0  0
  131.0858  134.2269  156.3801 H   0  0  0  0  0  0  0  0  0  0  0  0
  132.1552  136.7265  160.8267 C   0  0  0  0  0  0  0  0  0  0  0  0
  133.2697  137.0519  161.5722 C   0  0  0  0  0  0  0  0  0  0  0  0
  136.6357  137.0565  164.5899 H   0  0  0  0  0  0  0  0  0  0  0  0
  133.2607  134.4091  163.7009 H   0  0  0  0  0  0  0  0  0  0  0  0
  131.2707  133.8539  162.3658 H   0  0  0  0  0  0  0  0  0  0  0  0
  129.6139  137.2894  160.0596 H   0  0  0  0  0  0  0  0  0  0  0  0
  128.3016  136.1075  159.8382 H   0  0  0  0  0  0  0  0  0  0  0  0
  130.3255  137.9537  162.2837 H   0  0  0  0  0  0  0  0  0  0  0  0
  129.6807  138.2273  164.6443 H   0  0  0  0  0  0  0  0  0  0  0  0
  128.2332  136.2665  166.5811 H   0  0  0  0  0  0  0  0  0  0  0  0
  127.9213  137.9964  166.3009 H   0  0  0  0  0  0  0  0  0  0  0  0
  126.6134  136.8092  166.0814 H   0  0  0  0  0  0  0  0  0  0  0  0
  126.5476  135.3820  164.1184 H   0  0  0  0  0  0  0  0  0  0  0  0
  127.1870  135.1145  161.7556 H   0  0  0  0  0  0  0  0  0  0  0  0
  130.9968  135.8173  158.4154 H   0  0  0  0  0  0  0  0  0  0  0  0
  129.4283  130.7751  157.9640 H   0  0  0  0  0  0  0  0  0  0  0  0
  129.2494  133.0270  154.3488 H   0  0  0  0  0  0  0  0  0  0  0  0
  129.5307  131.8851  152.1881 H   0  0  0  0  0  0  0  0  0  0  0  0
  131.9464  129.1788  151.6236 H   0  0  0  0  0  0  0  0  0  0  0  0
  130.9044  130.3979  150.8515 H   0  0  0  0  0  0  0  0  0  0  0  0
  129.9386  127.8867  152.2929 H   0  0  0  0  0  0  0  0  0  0  0  0
  128.8967  129.1058  151.5208 H   0  0  0  0  0  0  0  0  0  0  0  0
  129.9927  128.1147  150.5285 H   0  0  0  0  0  0  0  0  0  0  0  0
  132.0359  128.9686  154.0366 H   0  0  0  0  0  0  0  0  0  0  0  0
  131.7753  130.1042  156.2034 H   0  0  0  0  0  0  0  0  0  0  0  0
  131.8413  137.3698  160.0179 H   0  0  0  0  0  0  0  0  0  0  0  0
  133.8280  137.9487  161.3478 H   0  0  0  0  0  0  0  0  0  0  0  0
  1  2  3  0
  1 35  1  0
  2  3  1  0
  3 34  2  0
  3  4  1  0
  4  5  2  0
  4 36  1  0
  5  6  1  0
  5 37  1  0
  6  7  1  0
  6 33  2  0
  7  8  1  1
  7  9  1  0
  7 17  1  0
  9 10  1  0
  9 38  1  0
  9 39  1  0
 10 16  1  0
 10 11  2  0
 11 12  1  0
 11 40  1  0
 12 13  2  0
 12 41  1  0
 13 14  1  0
 13 15  1  0
 14 42  1  0
 14 43  1  0
 14 44  1  0
 15 16  2  0
 15 45  1  0
 16 46  1  0
 17 47  1  0
 18 17  1  0
 18 31  2  0
 18 19  1  0
 19 20  1  0
 19 21  1  0
 21 22  2  0
 21 48  1  0
 22 23  1  0
 22 31  1  0
 23 30  1  0
 23 24  2  0
 24 25  1  0
 24 49  1  0
 25 26  2  0
 25 50  1  0
 26 27  1  0
 26 29  1  0
 27 28  1  0
 27 51  1  0
 27 52  1  0
 28 53  1  0
 28 54  1  0
 28 55  1  0
 29 30  2  0
 29 56  1  0
 30 57  1  0
 31 32  1  0
 33 34  1  0
 33 58  1  0
 34 59  1  0
M  CHG  1  31   1
M  END
>  <DOCK_score>  (1) 
-56.531445

>  <SMILES>  (1) 
C#Cc1ccc([C@@H](Cc2ccc(C)cc2)Nc2[nH]cc(-c3ccc(CC)cc3)[nH+]2)cc1

$$$$
