CNC(=[NH2+])N[C@H]1C[C@H]1NC1c2cc(O)ccc2-c2ccc(O)cc21
     RDKit          3D

 45 48  0  0  1  0  0  0  0  0999 V2000
  133.8892  134.2820  162.1461 C   0  0  0  0  0  0  0  0  0  0  0  0
  133.2550  135.0317  161.0590 N   0  0  0  0  0  0  0  0  0  0  0  0
  132.1326  135.7858  161.3074 C   0  0  0  0  0  0  0  0  0  0  0  0
  131.6329  135.8339  162.5102 N   0  0  0  0  0  0  0  0  0  0  0  0
  132.0528  135.3376  163.2300 H   0  0  0  0  0  0  0  0  0  0  0  0
  130.8409  136.3660  162.6855 H   0  0  0  0  0  0  0  0  0  0  0  0
  131.5375  136.4894  160.2872 N   0  0  0  0  0  0  0  0  0  0  0  0
  130.3414  137.2929  160.5518 C   0  0  1  0  0  0  0  0  0  0  0  0
  130.2655  137.7056  161.5578 H   0  0  0  0  0  0  0  0  0  0  0  0
  129.7839  138.1319  159.3992 C   0  0  0  0  0  0  0  0  0  0  0  0
  129.0424  136.8753  159.8596 C   0  0  1  0  0  0  0  0  0  0  0  0
  128.1119  137.0134  160.4101 H   0  0  0  0  0  0  0  0  0  0  0  0
  129.0900  135.6994  158.9805 N   0  0  0  0  0  0  0  0  0  0  0  0
  129.0362  134.4560  159.7611 C   0  0  0  0  0  0  0  0  0  0  0  0
  129.4894  133.2915  158.9151 C   0  0  0  0  0  0  0  0  0  0  0  0
  130.6799  133.0168  158.2802 C   0  0  0  0  0  0  0  0  0  0  0  0
  130.8250  131.8432  157.5526 C   0  0  0  0  0  0  0  0  0  0  0  0
  132.0008  131.5719  156.9278 O   0  0  0  0  0  0  0  0  0  0  0  0
  129.7686  130.9466  157.4641 C   0  0  0  0  0  0  0  0  0  0  0  0
  128.5747  131.2173  158.0971 C   0  0  0  0  0  0  0  0  0  0  0  0
  128.4240  132.3964  158.8306 C   0  0  0  0  0  0  0  0  0  0  0  0
  127.2699  132.9277  159.5973 C   0  0  0  0  0  0  0  0  0  0  0  0
  125.9921  132.4063  159.8126 C   0  0  0  0  0  0  0  0  0  0  0  0
  125.0819  133.1043  160.5766 C   0  0  0  0  0  0  0  0  0  0  0  0
  125.4307  134.3266  161.1352 C   0  0  0  0  0  0  0  0  0  0  0  0
  124.5306  135.0111  161.8885 O   0  0  0  0  0  0  0  0  0  0  0  0
  126.6997  134.8490  160.9241 C   0  0  0  0  0  0  0  0  0  0  0  0
  127.6125  134.1543  160.1603 C   0  0  0  0  0  0  0  0  0  0  0  0
  134.7584  133.7488  161.7611 H   0  0  0  0  0  0  0  0  0  0  0  0
  134.2039  134.9728  162.9285 H   0  0  0  0  0  0  0  0  0  0  0  0
  133.1773  133.5669  162.5579 H   0  0  0  0  0  0  0  0  0  0  0  0
  133.6269  134.9960  160.1639 H   0  0  0  0  0  0  0  0  0  0  0  0
  131.9094  136.4536  159.3919 H   0  0  0  0  0  0  0  0  0  0  0  0
  130.3071  138.0861  158.4441 H   0  0  0  0  0  0  0  0  0  0  0  0
  129.3414  139.0967  159.6473 H   0  0  0  0  0  0  0  0  0  0  0  0
  129.9087  135.7213  158.3912 H   0  0  0  0  0  0  0  0  0  0  0  0
  129.6643  134.5427  160.6478 H   0  0  0  0  0  0  0  0  0  0  0  0
  131.5013  133.7146  158.3490 H   0  0  0  0  0  0  0  0  0  0  0  0
  132.6760  132.2539  157.0470 H   0  0  0  0  0  0  0  0  0  0  0  0
  129.8829  130.0341  156.8978 H   0  0  0  0  0  0  0  0  0  0  0  0
  127.7555  130.5173  158.0262 H   0  0  0  0  0  0  0  0  0  0  0  0
  125.7169  131.4558  159.3797 H   0  0  0  0  0  0  0  0  0  0  0  0
  124.0946  132.6991  160.7415 H   0  0  0  0  0  0  0  0  0  0  0  0
  124.8643  135.8504  162.2342 H   0  0  0  0  0  0  0  0  0  0  0  0
  126.9712  135.8001  161.3578 H   0  0  0  0  0  0  0  0  0  0  0  0
  1  2  1  0
  1 29  1  0
  1 30  1  0
  1 31  1  0
  2  3  1  0
  2 32  1  0
  3  4  2  0
  3  7  1  0
  4  5  1  0
  4  6  1  0
  7  8  1  0
  7 33  1  0
  8  9  1  1
  8 11  1  0
  8 10  1  0
 10 11  1  0
 10 34  1  0
 10 35  1  0
 11 12  1  1
 11 13  1  0
 13 14  1  0
 13 36  1  0
 14 28  1  0
 14 15  1  0
 14 37  1  0
 15 21  1  0
 15 16  2  0
 16 17  1  0
 16 38  1  0
 17 18  1  0
 17 19  2  0
 18 39  1  0
 19 20  1  0
 19 40  1  0
 20 21  2  0
 20 41  1  0
 21 22  1  0
 22 28  2  0
 22 23  1  0
 23 24  2  0
 23 42  1  0
 24 25  1  0
 24 43  1  0
 25 26  1  0
 25 27  2  0
 26 44  1  0
 27 28  1  0
 27 45  1  0
M  CHG  1   4   1
M  END
>  <DOCK_score>  (1) 
-44.039532

>  <SMILES>  (1) 
CNC(=[NH2+])N[C@H]1C[C@H]1NC1c2cc(O)ccc2-c2ccc(O)cc21

$$$$
