C1=CC[C@H]2[C@@H](C1)[C@@H]2Nc1cccc2c1CC([NH2+][C@@H]1CN(Cc3ccccc3)C3(CCOCC3)C1)CC2
     RDKit          3D

 78 84  0  0  1  0  0  0  0  0999 V2000
  135.6753  135.0999  167.7577 C   0  0  0  0  0  0  0  0  0  0  0  0
  136.4057  135.0911  166.6704 C   0  0  0  0  0  0  0  0  0  0  0  0
  136.0735  136.0080  165.5189 C   0  0  0  0  0  0  0  0  0  0  0  0
  134.5553  135.9653  165.2827 C   0  0  1  0  0  0  0  0  0  0  0  0
  134.2118  135.3721  164.4352 H   0  0  0  0  0  0  0  0  0  0  0  0
  133.6973  135.9761  166.5611 C   0  0  1  0  0  0  0  0  0  0  0  0
  132.7783  135.3902  166.5710 H   0  0  0  0  0  0  0  0  0  0  0  0
  134.4912  136.0280  167.8760 C   0  0  0  0  0  0  0  0  0  0  0  0
  133.7562  137.2135  165.6629 C   0  0  2  0  0  0  0  0  0  0  0  0
  134.3144  138.0747  166.0299 H   0  0  0  0  0  0  0  0  0  0  0  0
  132.5688  137.5249  164.8634 N   0  0  0  0  0  0  0  0  0  0  0  0
  132.4895  138.7369  164.1737 C   0  0  0  0  0  0  0  0  0  0  0  0
  132.5505  139.9329  164.8725 C   0  0  0  0  0  0  0  0  0  0  0  0
  132.4719  141.1297  164.1883 C   0  0  0  0  0  0  0  0  0  0  0  0
  132.3306  141.1282  162.8153 C   0  0  0  0  0  0  0  0  0  0  0  0
  132.2605  139.9328  162.1108 C   0  0  0  0  0  0  0  0  0  0  0  0
  132.3497  138.7370  162.7854 C   0  0  0  0  0  0  0  0  0  0  0  0
  132.3049  137.4048  162.0844 C   0  0  0  0  0  0  0  0  0  0  0  0
  131.7084  137.5568  160.6827 C   0  0  2  0  0  0  0  0  0  0  0  0
  131.8683  136.2995  159.9402 N   0  0  0  0  0  0  0  0  0  0  0  0
  131.7886  136.4807  158.9508 H   0  0  0  0  0  0  0  0  0  0  0  0
  132.7758  135.9052  160.1379 H   0  0  0  0  0  0  0  0  0  0  0  0
  130.8231  135.3522  160.3502 C   0  0  2  0  0  0  0  0  0  0  0  0
  131.0869  134.8743  161.2937 H   0  0  0  0  0  0  0  0  0  0  0  0
  130.5835  134.2950  159.2514 C   0  0  0  0  0  0  0  0  0  0  0  0
  129.1291  134.0520  159.1887 N   0  0  0  0  0  0  0  0  0  0  0  0
  128.8226  132.6322  159.4085 C   0  0  0  0  0  0  0  0  0  0  0  0
  129.4974  131.8026  158.3466 C   0  0  0  0  0  0  0  0  0  0  0  0
  129.9032  130.5123  158.6317 C   0  0  0  0  0  0  0  0  0  0  0  0
  130.5178  129.7496  157.6562 C   0  0  0  0  0  0  0  0  0  0  0  0
  130.7360  130.2809  156.3989 C   0  0  0  0  0  0  0  0  0  0  0  0
  130.3349  131.5731  156.1155 C   0  0  0  0  0  0  0  0  0  0  0  0
  129.7157  132.3339  157.0893 C   0  0  0  0  0  0  0  0  0  0  0  0
  128.4720  134.8966  160.2007 C   0  0  0  0  0  0  0  0  0  0  0  0
  128.2497  134.1125  161.4906 C   0  0  0  0  0  0  0  0  0  0  0  0
  127.5271  135.0050  162.5047 C   0  0  0  0  0  0  0  0  0  0  0  0
  126.3031  135.4736  161.9352 O   0  0  0  0  0  0  0  0  0  0  0  0
  126.4703  136.2719  160.7615 C   0  0  0  0  0  0  0  0  0  0  0  0
  127.1462  135.4349  159.6708 C   0  0  0  0  0  0  0  0  0  0  0  0
  129.4483  136.0649  160.4576 C   0  0  0  0  0  0  0  0  0  0  0  0
  132.4632  138.6810  159.9632 C   0  0  0  0  0  0  0  0  0  0  0  0
  132.0863  140.0093  160.6164 C   0  0  0  0  0  0  0  0  0  0  0  0
  135.9225  134.4389  168.5753 H   0  0  0  0  0  0  0  0  0  0  0  0
  137.2510  134.4228  166.5974 H   0  0  0  0  0  0  0  0  0  0  0  0
  136.5932  135.6721  164.6216 H   0  0  0  0  0  0  0  0  0  0  0  0
  136.3777  137.0261  165.7621 H   0  0  0  0  0  0  0  0  0  0  0  0
  134.8394  137.0455  168.0537 H   0  0  0  0  0  0  0  0  0  0  0  0
  133.8552  135.7064  168.7007 H   0  0  0  0  0  0  0  0  0  0  0  0
  131.8378  136.8893  164.8128 H   0  0  0  0  0  0  0  0  0  0  0  0
  132.6592  139.9283  165.9471 H   0  0  0  0  0  0  0  0  0  0  0  0
  132.5206  142.0648  164.7263 H   0  0  0  0  0  0  0  0  0  0  0  0
  132.2692  142.0662  162.2835 H   0  0  0  0  0  0  0  0  0  0  0  0
  133.3149  137.0009  162.0151 H   0  0  0  0  0  0  0  0  0  0  0  0
  131.6824  136.7179  162.6577 H   0  0  0  0  0  0  0  0  0  0  0  0
  130.6507  137.8104  160.7516 H   0  0  0  0  0  0  0  0  0  0  0  0
  130.9383  134.6706  158.2917 H   0  0  0  0  0  0  0  0  0  0  0  0
  131.1031  133.3712  159.5059 H   0  0  0  0  0  0  0  0  0  0  0  0
  129.1855  132.3300  160.3909 H   0  0  0  0  0  0  0  0  0  0  0  0
  127.7443  132.4812  159.3571 H   0  0  0  0  0  0  0  0  0  0  0  0
  129.7366  130.0987  159.6155 H   0  0  0  0  0  0  0  0  0  0  0  0
  130.8315  128.7401  157.8779 H   0  0  0  0  0  0  0  0  0  0  0  0
  131.2202  129.6866  155.6382 H   0  0  0  0  0  0  0  0  0  0  0  0
  130.5058  131.9883  155.1331 H   0  0  0  0  0  0  0  0  0  0  0  0
  129.4026  133.3436  156.8679 H   0  0  0  0  0  0  0  0  0  0  0  0
  127.6415  133.2324  161.2817 H   0  0  0  0  0  0  0  0  0  0  0  0
  129.2118  133.8026  161.8988 H   0  0  0  0  0  0  0  0  0  0  0  0
  128.1604  135.8558  162.7565 H   0  0  0  0  0  0  0  0  0  0  0  0
  127.3127  134.4316  163.4067 H   0  0  0  0  0  0  0  0  0  0  0  0
  127.0925  137.1360  160.9949 H   0  0  0  0  0  0  0  0  0  0  0  0
  125.4959  136.6099  160.4091 H   0  0  0  0  0  0  0  0  0  0  0  0
  127.3300  136.0577  158.7953 H   0  0  0  0  0  0  0  0  0  0  0  0
  126.4984  134.6022  159.3970 H   0  0  0  0  0  0  0  0  0  0  0  0
  129.3023  136.4844  161.4531 H   0  0  0  0  0  0  0  0  0  0  0  0
  129.3465  136.8345  159.6925 H   0  0  0  0  0  0  0  0  0  0  0  0
  132.1815  138.6968  158.9103 H   0  0  0  0  0  0  0  0  0  0  0  0
  133.5372  138.5191  160.0536 H   0  0  0  0  0  0  0  0  0  0  0  0
  131.0459  140.2401  160.3872 H   0  0  0  0  0  0  0  0  0  0  0  0
  132.7253  140.7981  160.2198 H   0  0  0  0  0  0  0  0  0  0  0  0
  1  8  1  0
  1  2  2  0
  1 43  1  0
  2  3  1  0
  2 44  1  0
  3  4  1  0
  3 45  1  0
  3 46  1  0
  4  5  1  6
  4  9  1  0
  4  6  1  0
  6  7  1  1
  6  8  1  0
  6  9  1  0
  8 47  1  0
  8 48  1  0
  9 10  1  1
  9 11  1  0
 11 12  1  0
 11 49  1  0
 12 17  1  0
 12 13  2  0
 13 14  1  0
 13 50  1  0
 14 15  2  0
 14 51  1  0
 15 16  1  0
 15 52  1  0
 16 42  1  0
 16 17  2  0
 17 18  1  0
 18 19  1  0
 18 53  1  0
 18 54  1  0
 19 20  1  0
 19 41  1  0
 19 55  1  1
 20 21  1  0
 20 22  1  0
 20 23  1  0
 23 24  1  1
 23 40  1  0
 23 25  1  0
 25 26  1  0
 25 56  1  0
 25 57  1  0
 26 27  1  0
 26 34  1  0
 27 28  1  0
 27 58  1  0
 27 59  1  0
 28 33  1  0
 28 29  2  0
 29 30  1  0
 29 60  1  0
 30 31  2  0
 30 61  1  0
 31 32  1  0
 31 62  1  0
 32 33  2  0
 32 63  1  0
 33 64  1  0
 34 39  1  0
 34 35  1  0
 34 40  1  0
 35 36  1  0
 35 65  1  0
 35 66  1  0
 36 37  1  0
 36 67  1  0
 36 68  1  0
 37 38  1  0
 38 39  1  0
 38 69  1  0
 38 70  1  0
 39 71  1  0
 39 72  1  0
 40 73  1  0
 40 74  1  0
 41 42  1  0
 41 75  1  0
 41 76  1  0
 42 77  1  0
 42 78  1  0
M  CHG  1  20   1
M  END
>  <DOCK_score>  (1) 
-44.189018

>  <SMILES>  (1) 
C1=CC[C@H]2[C@@H](C1)[C@@H]2Nc1cccc2c1CC([NH2+][C@@H]1CN(Cc3ccccc3)C3(CCOCC3)C1)CC2

$$$$
