Oc1ccc([C@H](Nc2[nH]cc(-c3ccc(Br)cc3)[nH+]2)c2ccc(Cl)cc2)cc1
     RDKit          3D

 46 49  0  0  1  0  0  0  0  0999 V2000
  129.6878  132.3182  164.2578 O   0  0  0  0  0  0  0  0  0  0  0  0
  129.5730  133.1775  163.2112 C   0  0  0  0  0  0  0  0  0  0  0  0
  128.3633  133.3011  162.5432 C   0  0  0  0  0  0  0  0  0  0  0  0
  128.2494  134.1749  161.4794 C   0  0  0  0  0  0  0  0  0  0  0  0
  129.3394  134.9263  161.0804 C   0  0  0  0  0  0  0  0  0  0  0  0
  129.2121  135.8790  159.9198 C   0  0  2  0  0  0  0  0  0  0  0  0
  128.1964  135.8386  159.5263 H   0  0  0  0  0  0  0  0  0  0  0  0
  130.1587  135.4977  158.8688 N   0  0  0  0  0  0  0  0  0  0  0  0
  130.0762  134.2454  158.2841 C   0  0  0  0  0  0  0  0  0  0  0  0
  129.6230  133.1152  158.8918 N   0  0  0  0  0  0  0  0  0  0  0  0
  129.3018  133.0427  159.8042 H   0  0  0  0  0  0  0  0  0  0  0  0
  129.7096  132.0947  157.9761 C   0  0  0  0  0  0  0  0  0  0  0  0
  130.2076  132.6313  156.8347 C   0  0  0  0  0  0  0  0  0  0  0  0
  130.4729  131.9020  155.5705 C   0  0  0  0  0  0  0  0  0  0  0  0
  130.3706  132.5626  154.3474 C   0  0  0  0  0  0  0  0  0  0  0  0
  130.6228  131.8807  153.1746 C   0  0  0  0  0  0  0  0  0  0  0  0
  130.9671  130.5399  153.2111 C   0  0  0  0  0  0  0  0  0  0  0  0
  131.3045  129.6107  151.5991 Br  0  0  0  0  0  0  0  0  0  0  0  0
  131.0651  129.8786  154.4224 C   0  0  0  0  0  0  0  0  0  0  0  0
  130.8198  130.5525  155.6013 C   0  0  0  0  0  0  0  0  0  0  0  0
  130.4193  133.9535  157.0533 N   0  0  0  0  0  0  0  0  0  0  0  0
  130.7724  134.5815  156.4038 H   0  0  0  0  0  0  0  0  0  0  0  0
  129.5154  137.2803  160.3846 C   0  0  0  0  0  0  0  0  0  0  0  0
  129.2374  137.6516  161.6868 C   0  0  0  0  0  0  0  0  0  0  0  0
  129.5205  138.9348  162.1153 C   0  0  0  0  0  0  0  0  0  0  0  0
  130.0718  139.8509  161.2374 C   0  0  0  0  0  0  0  0  0  0  0  0
  130.4210  141.4652  161.7722 Cl  0  0  0  0  0  0  0  0  0  0  0  0
  130.3446  139.4804  159.9326 C   0  0  0  0  0  0  0  0  0  0  0  0
  130.0663  138.1952  159.5069 C   0  0  0  0  0  0  0  0  0  0  0  0
  130.5476  134.8007  161.7410 C   0  0  0  0  0  0  0  0  0  0  0  0
  130.6653  133.9321  162.8087 C   0  0  0  0  0  0  0  0  0  0  0  0
  128.8743  131.8375  164.4631 H   0  0  0  0  0  0  0  0  0  0  0  0
  127.5117  132.7145  162.8544 H   0  0  0  0  0  0  0  0  0  0  0  0
  127.3079  134.2716  160.9590 H   0  0  0  0  0  0  0  0  0  0  0  0
  130.8434  136.1224  158.5826 H   0  0  0  0  0  0  0  0  0  0  0  0
  129.4336  131.0626  158.1348 H   0  0  0  0  0  0  0  0  0  0  0  0
  130.0978  133.6072  154.3180 H   0  0  0  0  0  0  0  0  0  0  0  0
  130.5474  132.3925  152.2265 H   0  0  0  0  0  0  0  0  0  0  0  0
  131.3339  128.8328  154.4452 H   0  0  0  0  0  0  0  0  0  0  0  0
  130.8967  130.0351  156.5462 H   0  0  0  0  0  0  0  0  0  0  0  0
  128.8028  136.9376  162.3709 H   0  0  0  0  0  0  0  0  0  0  0  0
  129.3073  139.2235  163.1339 H   0  0  0  0  0  0  0  0  0  0  0  0
  130.7747  140.1953  159.2468 H   0  0  0  0  0  0  0  0  0  0  0  0
  130.2796  137.9057  158.4885 H   0  0  0  0  0  0  0  0  0  0  0  0
  131.3988  135.3851  161.4244 H   0  0  0  0  0  0  0  0  0  0  0  0
  131.6081  133.8372  163.3270 H   0  0  0  0  0  0  0  0  0  0  0  0
  1  2  1  0
  1 32  1  0
  2 31  2  0
  2  3  1  0
  3  4  2  0
  3 33  1  0
  4  5  1  0
  4 34  1  0
  5  6  1  0
  5 30  2  0
  6  7  1  6
  6  8  1  0
  6 23  1  0
  8 35  1  0
  9  8  1  0
  9 21  2  0
  9 10  1  0
 10 11  1  0
 10 12  1  0
 12 13  2  0
 12 36  1  0
 13 14  1  0
 13 21  1  0
 14 20  1  0
 14 15  2  0
 15 16  1  0
 15 37  1  0
 16 17  2  0
 16 38  1  0
 17 18  1  0
 17 19  1  0
 19 20  2  0
 19 39  1  0
 20 40  1  0
 21 22  1  0
 23 29  1  0
 23 24  2  0
 24 25  1  0
 24 41  1  0
 25 26  2  0
 25 42  1  0
 26 27  1  0
 26 28  1  0
 28 29  2  0
 28 43  1  0
 29 44  1  0
 30 31  1  0
 30 45  1  0
 31 46  1  0
M  CHG  1  21   1
M  END
>  <DOCK_score>  (1) 
-55.997185

>  <SMILES>  (1) 
Oc1ccc([C@H](Nc2[nH]cc(-c3ccc(Br)cc3)[nH+]2)c2ccc(Cl)cc2)cc1

$$$$
