CCc1ccc(-c2c[nH]c(N[C@@H](C3=Cc4ccccc4C3)c3ccnn3C)[nH+]2)cc1
     RDKit          3D

 56 60  0  0  1  0  0  0  0  0999 V2000
  130.3677  128.3967  151.7548 C   0  0  0  0  0  0  0  0  0  0  0  0
  131.4129  129.4745  152.0493 C   0  0  0  0  0  0  0  0  0  0  0  0
  131.0421  130.2011  153.3164 C   0  0  0  0  0  0  0  0  0  0  0  0
  131.5085  129.7429  154.5348 C   0  0  0  0  0  0  0  0  0  0  0  0
  131.1768  130.4075  155.6981 C   0  0  0  0  0  0  0  0  0  0  0  0
  130.3608  131.5360  155.6441 C   0  0  0  0  0  0  0  0  0  0  0  0
  129.9963  132.2514  156.8914 C   0  0  0  0  0  0  0  0  0  0  0  0
  129.3305  131.7240  157.9485 C   0  0  0  0  0  0  0  0  0  0  0  0
  129.2051  132.7253  158.8806 N   0  0  0  0  0  0  0  0  0  0  0  0
  128.7731  132.6537  159.7460 H   0  0  0  0  0  0  0  0  0  0  0  0
  129.7987  133.8363  158.3654 C   0  0  0  0  0  0  0  0  0  0  0  0
  129.8892  135.0668  158.9932 N   0  0  0  0  0  0  0  0  0  0  0  0
  128.8476  135.4879  159.9333 C   0  0  1  0  0  0  0  0  0  0  0  0
  128.7917  134.7757  160.7565 H   0  0  0  0  0  0  0  0  0  0  0  0
  129.1809  136.8548  160.4733 C   0  0  0  0  0  0  0  0  0  0  0  0
  129.8520  137.7970  159.8344 C   0  0  0  0  0  0  0  0  0  0  0  0
  129.9910  139.0062  160.6669 C   0  0  0  0  0  0  0  0  0  0  0  0
  130.6066  140.2376  160.4291 C   0  0  0  0  0  0  0  0  0  0  0  0
  130.5874  141.2150  161.4017 C   0  0  0  0  0  0  0  0  0  0  0  0
  129.9612  140.9836  162.6138 C   0  0  0  0  0  0  0  0  0  0  0  0
  129.3490  139.7659  162.8580 C   0  0  0  0  0  0  0  0  0  0  0  0
  129.3625  138.7849  161.8939 C   0  0  0  0  0  0  0  0  0  0  0  0
  128.7995  137.3858  161.8354 C   0  0  0  0  0  0  0  0  0  0  0  0
  127.5199  135.5388  159.2222 C   0  0  0  0  0  0  0  0  0  0  0  0
  127.3272  135.8108  157.9107 C   0  0  0  0  0  0  0  0  0  0  0  0
  125.9527  135.7568  157.6574 C   0  0  0  0  0  0  0  0  0  0  0  0
  125.3421  135.4631  158.7765 N   0  0  0  0  0  0  0  0  0  0  0  0
  126.3106  135.3156  159.7779 N   0  0  0  0  0  0  0  0  0  0  0  0
  126.0554  134.9813  161.1812 C   0  0  0  0  0  0  0  0  0  0  0  0
  130.2754  133.5476  157.1790 N   0  0  0  0  0  0  0  0  0  0  0  0
  130.7497  134.1631  156.5984 H   0  0  0  0  0  0  0  0  0  0  0  0
  129.8889  131.9903  154.4139 C   0  0  0  0  0  0  0  0  0  0  0  0
  130.2316  131.3211  153.2566 C   0  0  0  0  0  0  0  0  0  0  0  0
  130.6359  127.8713  150.8383 H   0  0  0  0  0  0  0  0  0  0  0  0
  130.3335  127.6887  152.5828 H   0  0  0  0  0  0  0  0  0  0  0  0
  129.3895  128.8621  151.6340 H   0  0  0  0  0  0  0  0  0  0  0  0
  132.3908  129.0097  152.1696 H   0  0  0  0  0  0  0  0  0  0  0  0
  131.4469  130.1831  151.2208 H   0  0  0  0  0  0  0  0  0  0  0  0
  132.1369  128.8655  154.5759 H   0  0  0  0  0  0  0  0  0  0  0  0
  131.5455  130.0514  156.6487 H   0  0  0  0  0  0  0  0  0  0  0  0
  128.9678  130.7108  158.0399 H   0  0  0  0  0  0  0  0  0  0  0  0
  130.6425  135.6501  158.8108 H   0  0  0  0  0  0  0  0  0  0  0  0
  130.2473  137.6947  158.8345 H   0  0  0  0  0  0  0  0  0  0  0  0
  131.0965  140.4240  159.4848 H   0  0  0  0  0  0  0  0  0  0  0  0
  131.0639  142.1663  161.2166 H   0  0  0  0  0  0  0  0  0  0  0  0
  129.9502  141.7539  163.3707 H   0  0  0  0  0  0  0  0  0  0  0  0
  128.8612  139.5865  163.8047 H   0  0  0  0  0  0  0  0  0  0  0  0
  127.7148  137.4087  161.9412 H   0  0  0  0  0  0  0  0  0  0  0  0
  129.2426  136.7699  162.6180 H   0  0  0  0  0  0  0  0  0  0  0  0
  128.0984  136.0308  157.1874 H   0  0  0  0  0  0  0  0  0  0  0  0
  125.4775  135.9275  156.7026 H   0  0  0  0  0  0  0  0  0  0  0  0
  125.9102  135.8982  161.7526 H   0  0  0  0  0  0  0  0  0  0  0  0
  125.1595  134.3643  161.2506 H   0  0  0  0  0  0  0  0  0  0  0  0
  126.9066  134.4328  161.5846 H   0  0  0  0  0  0  0  0  0  0  0  0
  129.2561  132.8642  154.3663 H   0  0  0  0  0  0  0  0  0  0  0  0
  129.8669  131.6725  152.3027 H   0  0  0  0  0  0  0  0  0  0  0  0
  1  2  1  0
  1 34  1  0
  1 35  1  0
  1 36  1  0
  2  3  1  0
  2 37  1  0
  2 38  1  0
  3 33  2  0
  3  4  1  0
  4  5  2  0
  4 39  1  0
  5  6  1  0
  5 40  1  0
  6  7  1  0
  6 32  2  0
  7 30  1  0
  7  8  2  0
  8  9  1  0
  8 41  1  0
  9 10  1  0
  9 11  1  0
 11 12  1  0
 11 30  2  0
 12 13  1  0
 12 42  1  0
 13 14  1  1
 13 15  1  0
 13 24  1  0
 15 23  1  0
 15 16  2  0
 16 17  1  0
 16 43  1  0
 17 22  2  0
 17 18  1  0
 18 19  2  0
 18 44  1  0
 19 20  1  0
 19 45  1  0
 20 21  2  0
 20 46  1  0
 21 22  1  0
 21 47  1  0
 22 23  1  0
 23 48  1  0
 23 49  1  0
 24 28  1  0
 24 25  2  0
 25 26  1  0
 25 50  1  0
 26 27  2  0
 26 51  1  0
 27 28  1  0
 28 29  1  0
 29 52  1  0
 29 53  1  0
 29 54  1  0
 30 31  1  0
 32 33  1  0
 32 55  1  0
 33 56  1  0
M  CHG  1  30   1
M  END
>  <DOCK_score>  (1) 
-63.475655

>  <SMILES>  (1) 
CCc1ccc(-c2c[nH]c(N[C@@H](C3=Cc4ccccc4C3)c3ccnn3C)[nH+]2)cc1

$$$$
