Oc1cc(F)cc(C[NH+]=C(NC[C@H]2CC=CCC2)NC2CC=CC2)c1
     RDKit          3D

 52 54  0  0  1  0  0  0  0  0999 V2000
  124.6560  135.7870  163.2755 O   0  0  0  0  0  0  0  0  0  0  0  0
  125.8853  135.8426  163.8521 C   0  0  0  0  0  0  0  0  0  0  0  0
  126.0483  135.4667  165.1775 C   0  0  0  0  0  0  0  0  0  0  0  0
  127.2996  135.5302  165.7638 C   0  0  0  0  0  0  0  0  0  0  0  0
  127.4592  135.1697  167.0559 F   0  0  0  0  0  0  0  0  0  0  0  0
  128.3892  135.9628  165.0258 C   0  0  0  0  0  0  0  0  0  0  0  0
  128.2280  136.3324  163.7039 C   0  0  0  0  0  0  0  0  0  0  0  0
  129.4153  136.8031  162.9039 C   0  0  0  0  0  0  0  0  0  0  0  0
  129.4017  136.1620  161.5867 N   0  0  0  0  0  0  0  0  0  0  0  0
  128.6925  135.5415  161.3567 H   0  0  0  0  0  0  0  0  0  0  0  0
  130.3425  136.4255  160.7238 C   0  0  0  0  0  0  0  0  0  0  0  0
  131.3474  137.3052  161.0499 N   0  0  0  0  0  0  0  0  0  0  0  0
  132.4047  137.6015  160.0800 C   0  0  0  0  0  0  0  0  0  0  0  0
  133.3893  138.6019  160.6887 C   0  0  1  0  0  0  0  0  0  0  0  0
  132.8427  139.3537  161.2579 H   0  0  0  0  0  0  0  0  0  0  0  0
  134.3684  137.8667  161.6065 C   0  0  0  0  0  0  0  0  0  0  0  0
  135.4932  138.7790  161.9993 C   0  0  0  0  0  0  0  0  0  0  0  0
  135.7853  139.8781  161.3808 C   0  0  0  0  0  0  0  0  0  0  0  0
  135.0335  140.3986  160.1909 C   0  0  0  0  0  0  0  0  0  0  0  0
  134.1898  139.2825  159.5712 C   0  0  0  0  0  0  0  0  0  0  0  0
  130.3295  135.8240  159.4877 N   0  0  0  0  0  0  0  0  0  0  0  0
  129.2584  134.8868  159.1403 C   0  0  0  0  0  0  0  0  0  0  0  0
  129.3579  133.5935  159.9822 C   0  0  0  0  0  0  0  0  0  0  0  0
  128.9630  132.4862  159.0319 C   0  0  0  0  0  0  0  0  0  0  0  0
  129.0108  132.8910  157.7920 C   0  0  0  0  0  0  0  0  0  0  0  0
  129.4460  134.3356  157.7078 C   0  0  0  0  0  0  0  0  0  0  0  0
  126.9796  136.2704  163.1147 C   0  0  0  0  0  0  0  0  0  0  0  0
  124.6431  136.0648  162.3493 H   0  0  0  0  0  0  0  0  0  0  0  0
  125.1985  135.1290  165.7520 H   0  0  0  0  0  0  0  0  0  0  0  0
  129.3658  136.0117  165.4842 H   0  0  0  0  0  0  0  0  0  0  0  0
  129.3653  137.8850  162.7819 H   0  0  0  0  0  0  0  0  0  0  0  0
  130.3341  136.5385  163.4272 H   0  0  0  0  0  0  0  0  0  0  0  0
  131.3564  137.7298  161.9220 H   0  0  0  0  0  0  0  0  0  0  0  0
  132.9319  136.6820  159.8252 H   0  0  0  0  0  0  0  0  0  0  0  0
  131.9628  138.0283  159.1798 H   0  0  0  0  0  0  0  0  0  0  0  0
  133.8437  137.5338  162.5019 H   0  0  0  0  0  0  0  0  0  0  0  0
  134.7722  136.9997  161.0835 H   0  0  0  0  0  0  0  0  0  0  0  0
  136.0969  138.5013  162.8506 H   0  0  0  0  0  0  0  0  0  0  0  0
  136.6221  140.4563  161.7437 H   0  0  0  0  0  0  0  0  0  0  0  0
  135.7419  140.7699  159.4501 H   0  0  0  0  0  0  0  0  0  0  0  0
  134.3807  141.2125  160.5062 H   0  0  0  0  0  0  0  0  0  0  0  0
  134.8425  138.5531  159.0913 H   0  0  0  0  0  0  0  0  0  0  0  0
  133.5055  139.7026  158.8340 H   0  0  0  0  0  0  0  0  0  0  0  0
  131.0295  136.0203  158.8455 H   0  0  0  0  0  0  0  0  0  0  0  0
  128.2803  135.3540  159.2548 H   0  0  0  0  0  0  0  0  0  0  0  0
  130.3793  133.4464  160.3330 H   0  0  0  0  0  0  0  0  0  0  0  0
  128.6682  133.6353  160.8252 H   0  0  0  0  0  0  0  0  0  0  0  0
  128.6784  131.4906  159.3389 H   0  0  0  0  0  0  0  0  0  0  0  0
  128.7711  132.2745  156.9384 H   0  0  0  0  0  0  0  0  0  0  0  0
  128.8164  134.8816  157.0053 H   0  0  0  0  0  0  0  0  0  0  0  0
  130.4923  134.4019  157.4094 H   0  0  0  0  0  0  0  0  0  0  0  0
  126.8551  136.5591  162.0816 H   0  0  0  0  0  0  0  0  0  0  0  0
  1  2  1  0
  1 28  1  0
  2 27  2  0
  2  3  1  0
  3  4  2  0
  3 29  1  0
  4  5  1  0
  4  6  1  0
  6  7  2  0
  6 30  1  0
  7  8  1  0
  7 27  1  0
  8  9  1  0
  8 31  1  0
  8 32  1  0
  9 10  1  0
 11  9  2  0
 11 12  1  0
 11 21  1  0
 12 13  1  0
 12 33  1  0
 13 14  1  0
 13 34  1  0
 13 35  1  0
 14 15  1  1
 14 20  1  0
 14 16  1  0
 16 17  1  0
 16 36  1  0
 16 37  1  0
 17 18  2  0
 17 38  1  0
 18 19  1  0
 18 39  1  0
 19 20  1  0
 19 40  1  0
 19 41  1  0
 20 42  1  0
 20 43  1  0
 21 22  1  0
 21 44  1  0
 22 26  1  0
 22 23  1  0
 22 45  1  0
 23 24  1  0
 23 46  1  0
 23 47  1  0
 24 25  2  0
 24 48  1  0
 25 26  1  0
 25 49  1  0
 26 50  1  0
 26 51  1  0
 27 52  1  0
M  CHG  1   9   1
M  END
>  <DOCK_score>  (1) 
-41.875893

>  <SMILES>  (1) 
Oc1cc(F)cc(C[NH+]=C(NC[C@H]2CC=CCC2)NC2CC=CC2)c1

$$$$
