CCc1ccc(-n2cc(C[NH2+]Cc3cc4ccccc4[nH]3)c(C)n2)cc1
     RDKit          3D

 51 54  0  0  0  0  0  0  0  0999 V2000
  130.6166  130.6278  151.8109 C   0  0  0  0  0  0  0  0  0  0  0  0
  130.8387  129.7644  153.0541 C   0  0  0  0  0  0  0  0  0  0  0  0
  130.7047  130.6179  154.2890 C   0  0  0  0  0  0  0  0  0  0  0  0
  130.4225  131.9662  154.1686 C   0  0  0  0  0  0  0  0  0  0  0  0
  130.3003  132.7513  155.2983 C   0  0  0  0  0  0  0  0  0  0  0  0
  130.4613  132.1853  156.5559 C   0  0  0  0  0  0  0  0  0  0  0  0
  130.3378  132.9794  157.7045 N   0  0  0  0  0  0  0  0  0  0  0  0
  130.0658  134.3037  157.7309 C   0  0  0  0  0  0  0  0  0  0  0  0
  130.0317  134.6912  159.0270 C   0  0  0  0  0  0  0  0  0  0  0  0
  129.7618  136.0866  159.5284 C   0  0  0  0  0  0  0  0  0  0  0  0
  131.0298  136.8193  159.6434 N   0  0  0  0  0  0  0  0  0  0  0  0
  131.4740  136.8670  158.7386 H   0  0  0  0  0  0  0  0  0  0  0  0
  131.6373  136.3408  160.2915 H   0  0  0  0  0  0  0  0  0  0  0  0
  130.7668  138.1794  160.1320 C   0  0  0  0  0  0  0  0  0  0  0  0
  132.0674  138.9312  160.2500 C   0  0  0  0  0  0  0  0  0  0  0  0
  132.4249  139.6936  161.2955 C   0  0  0  0  0  0  0  0  0  0  0  0
  133.7541  140.2325  160.9980 C   0  0  0  0  0  0  0  0  0  0  0  0
  134.6355  141.0733  161.6806 C   0  0  0  0  0  0  0  0  0  0  0  0
  135.8366  141.3986  161.1163 C   0  0  0  0  0  0  0  0  0  0  0  0
  136.1881  140.9000  159.8692 C   0  0  0  0  0  0  0  0  0  0  0  0
  135.3336  140.0691  159.1785 C   0  0  0  0  0  0  0  0  0  0  0  0
  134.1055  139.7247  159.7342 C   0  0  0  0  0  0  0  0  0  0  0  0
  133.0592  138.9379  159.3073 N   0  0  0  0  0  0  0  0  0  0  0  0
  133.0296  138.4595  158.4640 H   0  0  0  0  0  0  0  0  0  0  0  0
  130.2972  133.5690  159.8194 C   0  0  0  0  0  0  0  0  0  0  0  0
  130.3637  133.5463  161.3247 C   0  0  0  0  0  0  0  0  0  0  0  0
  130.4748  132.5417  159.0281 N   0  0  0  0  0  0  0  0  0  0  0  0
  130.7506  130.8324  156.6734 C   0  0  0  0  0  0  0  0  0  0  0  0
  130.8669  130.0517  155.5401 C   0  0  0  0  0  0  0  0  0  0  0  0
  131.3604  131.4242  151.7839 H   0  0  0  0  0  0  0  0  0  0  0  0
  130.7129  130.0105  150.9177 H   0  0  0  0  0  0  0  0  0  0  0  0
  129.6182  131.0641  151.8450 H   0  0  0  0  0  0  0  0  0  0  0  0
  131.8371  129.3282  153.0200 H   0  0  0  0  0  0  0  0  0  0  0  0
  130.0950  128.9680  153.0811 H   0  0  0  0  0  0  0  0  0  0  0  0
  130.2973  132.4059  153.1900 H   0  0  0  0  0  0  0  0  0  0  0  0
  130.0793  133.8041  155.2038 H   0  0  0  0  0  0  0  0  0  0  0  0
  129.9043  134.9381  156.8719 H   0  0  0  0  0  0  0  0  0  0  0  0
  129.2821  136.0350  160.5058 H   0  0  0  0  0  0  0  0  0  0  0  0
  129.1056  136.6035  158.8283 H   0  0  0  0  0  0  0  0  0  0  0  0
  130.2870  138.1279  161.1094 H   0  0  0  0  0  0  0  0  0  0  0  0
  130.1105  138.6965  159.4319 H   0  0  0  0  0  0  0  0  0  0  0  0
  131.8425  139.8757  162.1866 H   0  0  0  0  0  0  0  0  0  0  0  0
  134.3691  141.4647  162.6512 H   0  0  0  0  0  0  0  0  0  0  0  0
  136.5179  142.0492  161.6445 H   0  0  0  0  0  0  0  0  0  0  0  0
  137.1409  141.1661  159.4361 H   0  0  0  0  0  0  0  0  0  0  0  0
  135.6180  139.6828  158.2109 H   0  0  0  0  0  0  0  0  0  0  0  0
  129.3744  133.3320  161.7288 H   0  0  0  0  0  0  0  0  0  0  0  0
  131.0625  132.7739  161.6459 H   0  0  0  0  0  0  0  0  0  0  0  0
  130.7024  134.5165  161.6881 H   0  0  0  0  0  0  0  0  0  0  0  0
  130.8813  130.3905  157.6502 H   0  0  0  0  0  0  0  0  0  0  0  0
  131.0883  128.9984  155.6309 H   0  0  0  0  0  0  0  0  0  0  0  0
  1  2  1  0
  1 30  1  0
  1 31  1  0
  1 32  1  0
  2  3  1  0
  2 33  1  0
  2 34  1  0
  3 29  2  0
  3  4  1  0
  4  5  2  0
  4 35  1  0
  5  6  1  0
  5 36  1  0
  6  7  1  0
  6 28  2  0
  7 27  1  0
  7  8  1  0
  8  9  2  0
  8 37  1  0
  9 10  1  0
  9 25  1  0
 10 11  1  0
 10 38  1  0
 10 39  1  0
 11 12  1  0
 11 13  1  0
 11 14  1  0
 14 15  1  0
 14 40  1  0
 14 41  1  0
 15 23  1  0
 15 16  2  0
 16 17  1  0
 16 42  1  0
 17 22  2  0
 17 18  1  0
 18 19  2  0
 18 43  1  0
 19 20  1  0
 19 44  1  0
 20 21  2  0
 20 45  1  0
 21 22  1  0
 21 46  1  0
 22 23  1  0
 23 24  1  0
 25 26  1  0
 25 27  2  0
 26 47  1  0
 26 48  1  0
 26 49  1  0
 28 29  1  0
 28 50  1  0
 29 51  1  0
M  CHG  1  11   1
M  END
>  <DOCK_score>  (1) 
-56.272064

>  <SMILES>  (1) 
CCc1ccc(-n2cc(C[NH2+]Cc3cc4ccccc4[nH]3)c(C)n2)cc1

$$$$
