Cc1cccc(-c2ccc(-c3n[nH]cc3C[N@@H+]3CC=C(c4ccc(Cl)cc4)CC3)cc2)c1
     RDKit          3D

 59 63  0  0  1  0  0  0  0  0999 V2000
  130.5351  132.2261  152.1982 C   0  0  0  0  0  0  0  0  0  0  0  0
  130.4771  131.6576  153.5927 C   0  0  0  0  0  0  0  0  0  0  0  0
  130.9979  130.4017  153.8485 C   0  0  0  0  0  0  0  0  0  0  0  0
  130.9481  129.8737  155.1259 C   0  0  0  0  0  0  0  0  0  0  0  0
  130.3839  130.6009  156.1545 C   0  0  0  0  0  0  0  0  0  0  0  0
  129.8527  131.8642  155.9016 C   0  0  0  0  0  0  0  0  0  0  0  0
  129.2392  132.6476  157.0013 C   0  0  0  0  0  0  0  0  0  0  0  0
  129.2776  134.0412  156.9703 C   0  0  0  0  0  0  0  0  0  0  0  0
  128.7081  134.7688  157.9920 C   0  0  0  0  0  0  0  0  0  0  0  0
  128.0934  134.1119  159.0573 C   0  0  0  0  0  0  0  0  0  0  0  0
  127.4807  134.8955  160.1577 C   0  0  0  0  0  0  0  0  0  0  0  0
  126.2341  135.3159  160.2085 N   0  0  0  0  0  0  0  0  0  0  0  0
  126.0605  136.0198  161.4071 N   0  0  0  0  0  0  0  0  0  0  0  0
  125.2402  136.4431  161.7048 H   0  0  0  0  0  0  0  0  0  0  0  0
  127.2334  136.0061  162.0764 C   0  0  0  0  0  0  0  0  0  0  0  0
  128.1288  135.3183  161.3349 C   0  0  0  0  0  0  0  0  0  0  0  0
  129.5673  135.0556  161.6993 C   0  0  0  0  0  0  0  0  0  0  0  0
  130.4087  136.1463  161.1894 N   0  0  2  0  0  0  0  0  0  0  0  0
  130.0893  136.4184  160.2716 H   0  0  0  0  0  0  0  0  0  0  0  0
  131.8030  135.6953  161.1102 C   0  0  0  0  0  0  0  0  0  0  0  0
  132.7066  136.8446  160.7683 C   0  0  0  0  0  0  0  0  0  0  0  0
  132.3498  138.1028  160.9121 C   0  0  0  0  0  0  0  0  0  0  0  0
  133.3152  139.1627  160.5523 C   0  0  0  0  0  0  0  0  0  0  0  0
  133.7353  140.0829  161.5135 C   0  0  0  0  0  0  0  0  0  0  0  0
  134.6406  141.0666  161.1732 C   0  0  0  0  0  0  0  0  0  0  0  0
  135.1280  141.1454  159.8797 C   0  0  0  0  0  0  0  0  0  0  0  0
  136.2677  142.3855  159.4592 Cl  0  0  0  0  0  0  0  0  0  0  0  0
  134.7103  140.2385  158.9202 C   0  0  0  0  0  0  0  0  0  0  0  0
  133.8049  139.2508  159.2486 C   0  0  0  0  0  0  0  0  0  0  0  0
  130.9972  138.5010  161.4353 C   0  0  0  0  0  0  0  0  0  0  0  0
  130.3290  137.2978  162.1020 C   0  0  0  0  0  0  0  0  0  0  0  0
  128.0597  132.7184  159.0910 C   0  0  0  0  0  0  0  0  0  0  0  0
  128.6244  131.9907  158.0667 C   0  0  0  0  0  0  0  0  0  0  0  0
  129.9052  132.3911  154.6120 C   0  0  0  0  0  0  0  0  0  0  0  0
  131.4628  132.7842  152.0716 H   0  0  0  0  0  0  0  0  0  0  0  0
  130.4982  131.4133  151.4727 H   0  0  0  0  0  0  0  0  0  0  0  0
  129.6863  132.8917  152.0415 H   0  0  0  0  0  0  0  0  0  0  0  0
  131.4445  129.8312  153.0477 H   0  0  0  0  0  0  0  0  0  0  0  0
  131.3561  128.8927  155.3199 H   0  0  0  0  0  0  0  0  0  0  0  0
  130.3499  130.1897  157.1526 H   0  0  0  0  0  0  0  0  0  0  0  0
  129.7533  134.5501  156.1450 H   0  0  0  0  0  0  0  0  0  0  0  0
  128.7381  135.8481  157.9682 H   0  0  0  0  0  0  0  0  0  0  0  0
  127.4221  136.4643  163.0360 H   0  0  0  0  0  0  0  0  0  0  0  0
  129.8876  134.1123  161.2569 H   0  0  0  0  0  0  0  0  0  0  0  0
  129.6631  134.9993  162.7837 H   0  0  0  0  0  0  0  0  0  0  0  0
  131.8903  134.9269  160.3421 H   0  0  0  0  0  0  0  0  0  0  0  0
  132.1012  135.2757  162.0711 H   0  0  0  0  0  0  0  0  0  0  0  0
  133.6936  136.6288  160.3868 H   0  0  0  0  0  0  0  0  0  0  0  0
  133.3557  140.0225  162.5228 H   0  0  0  0  0  0  0  0  0  0  0  0
  134.9697  141.7768  161.9173 H   0  0  0  0  0  0  0  0  0  0  0  0
  135.0938  140.3048  157.9128 H   0  0  0  0  0  0  0  0  0  0  0  0
  133.4795  138.5443  158.4994 H   0  0  0  0  0  0  0  0  0  0  0  0
  131.1115  139.3046  162.1629 H   0  0  0  0  0  0  0  0  0  0  0  0
  130.3754  138.8456  160.6090 H   0  0  0  0  0  0  0  0  0  0  0  0
  129.2842  137.5274  162.3109 H   0  0  0  0  0  0  0  0  0  0  0  0
  130.8453  137.0633  163.0329 H   0  0  0  0  0  0  0  0  0  0  0  0
  127.5872  132.2095  159.9182 H   0  0  0  0  0  0  0  0  0  0  0  0
  128.5951  130.9114  158.0911 H   0  0  0  0  0  0  0  0  0  0  0  0
  129.4987  133.3712  154.4111 H   0  0  0  0  0  0  0  0  0  0  0  0
  1  2  1  0
  1 35  1  0
  1 36  1  0
  1 37  1  0
  2 34  2  0
  2  3  1  0
  3  4  2  0
  3 38  1  0
  4  5  1  0
  4 39  1  0
  5  6  2  0
  5 40  1  0
  6  7  1  0
  6 34  1  0
  7 33  1  0
  7  8  2  0
  8  9  1  0
  8 41  1  0
  9 10  2  0
  9 42  1  0
 10 11  1  0
 10 32  1  0
 11 16  1  0
 11 12  2  0
 12 13  1  0
 13 14  1  0
 13 15  1  0
 15 16  2  0
 15 43  1  0
 16 17  1  0
 17 18  1  0
 17 44  1  0
 17 45  1  0
 18 19  1  6
 18 31  1  0
 18 20  1  0
 20 21  1  0
 20 46  1  0
 20 47  1  0
 21 22  2  0
 21 48  1  0
 22 23  1  0
 22 30  1  0
 23 29  1  0
 23 24  2  0
 24 25  1  0
 24 49  1  0
 25 26  2  0
 25 50  1  0
 26 27  1  0
 26 28  1  0
 28 29  2  0
 28 51  1  0
 29 52  1  0
 30 31  1  0
 30 53  1  0
 30 54  1  0
 31 55  1  0
 31 56  1  0
 32 33  2  0
 32 57  1  0
 33 58  1  0
 34 59  1  0
M  CHG  1  18   1
M  END
>  <DOCK_score>  (1) 
-51.19339

>  <SMILES>  (1) 
Cc1cccc(-c2ccc(-c3n[nH]cc3C[N@@H+]3CC=C(c4ccc(Cl)cc4)CC3)cc2)c1

$$$$
