CCc1ccc(-c2c[nH]c(N[C@H](c3ccccc3SC3=CCC3)c3cccc4ccccc34)[nH+]2)cc1
     RDKit          3D

 66 71  0  0  1  0  0  0  0  0999 V2000
  130.4611  128.1173  152.1008 C   0  0  0  0  0  0  0  0  0  0  0  0
  131.3211  129.3798  152.1856 C   0  0  0  0  0  0  0  0  0  0  0  0
  130.9775  130.1392  153.4412 C   0  0  0  0  0  0  0  0  0  0  0  0
  131.6586  129.8733  154.6156 C   0  0  0  0  0  0  0  0  0  0  0  0
  131.3470  130.5650  155.7686 C   0  0  0  0  0  0  0  0  0  0  0  0
  130.3440  131.5325  155.7482 C   0  0  0  0  0  0  0  0  0  0  0  0
  130.0047  132.2792  156.9843 C   0  0  0  0  0  0  0  0  0  0  0  0
  129.5579  131.7396  158.1454 C   0  0  0  0  0  0  0  0  0  0  0  0
  129.3700  132.7801  159.0222 N   0  0  0  0  0  0  0  0  0  0  0  0
  129.0552  132.7108  159.9370 H   0  0  0  0  0  0  0  0  0  0  0  0
  129.7078  133.9263  158.3707 C   0  0  0  0  0  0  0  0  0  0  0  0
  129.6586  135.2022  158.9055 N   0  0  0  0  0  0  0  0  0  0  0  0
  129.2129  135.4008  160.2868 C   0  0  2  0  0  0  0  0  0  0  0  0
  129.6192  134.6097  160.9171 H   0  0  0  0  0  0  0  0  0  0  0  0
  127.7073  135.3613  160.3394 C   0  0  0  0  0  0  0  0  0  0  0  0
  126.9664  135.7754  159.2501 C   0  0  0  0  0  0  0  0  0  0  0  0
  125.5848  135.7395  159.2974 C   0  0  0  0  0  0  0  0  0  0  0  0
  124.9399  135.2892  160.4353 C   0  0  0  0  0  0  0  0  0  0  0  0
  125.6742  134.8733  161.5280 C   0  0  0  0  0  0  0  0  0  0  0  0
  127.0630  134.9029  161.4819 C   0  0  0  0  0  0  0  0  0  0  0  0
  128.0042  134.3662  162.8715 S   0  0  0  0  0  0  0  0  0  0  0  0
  127.4737  135.4528  164.1531 C   0  0  0  0  0  0  0  0  0  0  0  0
  126.8929  135.3001  165.3308 C   0  0  0  0  0  0  0  0  0  0  0  0
  126.8190  136.7532  165.7262 C   0  0  0  0  0  0  0  0  0  0  0  0
  127.4863  136.9459  164.3624 C   0  0  0  0  0  0  0  0  0  0  0  0
  129.6981  136.7381  160.7839 C   0  0  0  0  0  0  0  0  0  0  0  0
  128.8053  137.6820  161.1903 C   0  0  0  0  0  0  0  0  0  0  0  0
  129.2351  138.9243  161.6523 C   0  0  0  0  0  0  0  0  0  0  0  0
  130.5602  139.2303  161.7107 C   0  0  0  0  0  0  0  0  0  0  0  0
  131.5115  138.2814  161.2998 C   0  0  0  0  0  0  0  0  0  0  0  0
  132.8882  138.5607  161.3460 C   0  0  0  0  0  0  0  0  0  0  0  0
  133.7806  137.6167  160.9404 C   0  0  0  0  0  0  0  0  0  0  0  0
  133.3506  136.3741  160.4779 C   0  0  0  0  0  0  0  0  0  0  0  0
  132.0258  136.0683  160.4191 C   0  0  0  0  0  0  0  0  0  0  0  0
  131.0742  137.0176  160.8298 C   0  0  0  0  0  0  0  0  0  0  0  0
  130.0819  133.6233  157.1516 N   0  0  0  0  0  0  0  0  0  0  0  0
  130.3697  134.2585  156.4774 H   0  0  0  0  0  0  0  0  0  0  0  0
  129.6570  131.7917  154.5636 C   0  0  0  0  0  0  0  0  0  0  0  0
  129.9809  131.0979  153.4153 C   0  0  0  0  0  0  0  0  0  0  0  0
  129.4076  128.3964  152.0791 H   0  0  0  0  0  0  0  0  0  0  0  0
  130.7102  127.5684  151.1926 H   0  0  0  0  0  0  0  0  0  0  0  0
  130.6525  127.4879  152.9697 H   0  0  0  0  0  0  0  0  0  0  0  0
  131.1300  130.0091  151.3168 H   0  0  0  0  0  0  0  0  0  0  0  0
  132.3749  129.1006  152.2074 H   0  0  0  0  0  0  0  0  0  0  0  0
  132.4357  129.1234  154.6302 H   0  0  0  0  0  0  0  0  0  0  0  0
  131.8799  130.3571  156.6848 H   0  0  0  0  0  0  0  0  0  0  0  0
  129.3828  130.6923  158.3426 H   0  0  0  0  0  0  0  0  0  0  0  0
  129.9193  135.9648  158.3656 H   0  0  0  0  0  0  0  0  0  0  0  0
  127.4666  136.1273  158.3599 H   0  0  0  0  0  0  0  0  0  0  0  0
  125.0080  136.0644  158.4441 H   0  0  0  0  0  0  0  0  0  0  0  0
  123.8608  135.2627  160.4688 H   0  0  0  0  0  0  0  0  0  0  0  0
  125.1701  134.5211  162.4157 H   0  0  0  0  0  0  0  0  0  0  0  0
  126.5701  134.4094  165.8494 H   0  0  0  0  0  0  0  0  0  0  0  0
  127.4452  137.0240  166.5763 H   0  0  0  0  0  0  0  0  0  0  0  0
  125.8053  137.1486  165.7915 H   0  0  0  0  0  0  0  0  0  0  0  0
  128.4920  137.3607  164.4317 H   0  0  0  0  0  0  0  0  0  0  0  0
  126.8611  137.4841  163.6500 H   0  0  0  0  0  0  0  0  0  0  0  0
  127.7480  137.4644  161.1545 H   0  0  0  0  0  0  0  0  0  0  0  0
  128.5061  139.6537  161.9731 H   0  0  0  0  0  0  0  0  0  0  0  0
  130.8786  140.1974  162.0708 H   0  0  0  0  0  0  0  0  0  0  0  0
  133.2359  139.5192  161.7017 H   0  0  0  0  0  0  0  0  0  0  0  0
  134.8380  137.8336  160.9774 H   0  0  0  0  0  0  0  0  0  0  0  0
  134.0799  135.6428  160.1618 H   0  0  0  0  0  0  0  0  0  0  0  0
  131.7074  135.1013  160.0590 H   0  0  0  0  0  0  0  0  0  0  0  0
  128.8755  132.5370  154.5433 H   0  0  0  0  0  0  0  0  0  0  0  0
  129.4522  131.3012  152.4956 H   0  0  0  0  0  0  0  0  0  0  0  0
  1  2  1  0
  1 40  1  0
  1 41  1  0
  1 42  1  0
  2  3  1  0
  2 43  1  0
  2 44  1  0
  3 39  2  0
  3  4  1  0
  4  5  2  0
  4 45  1  0
  5  6  1  0
  5 46  1  0
  6  7  1  0
  6 38  2  0
  7 36  1  0
  7  8  2  0
  8  9  1  0
  8 47  1  0
  9 10  1  0
  9 11  1  0
 11 12  1  0
 11 36  2  0
 12 13  1  0
 12 48  1  0
 13 14  1  1
 13 15  1  0
 13 26  1  0
 15 20  1  0
 15 16  2  0
 16 17  1  0
 16 49  1  0
 17 18  2  0
 17 50  1  0
 18 19  1  0
 18 51  1  0
 19 20  2  0
 19 52  1  0
 20 21  1  0
 21 22  1  0
 22 25  1  0
 22 23  2  0
 23 24  1  0
 23 53  1  0
 24 25  1  0
 24 54  1  0
 24 55  1  0
 25 56  1  0
 25 57  1  0
 26 35  1  0
 26 27  2  0
 27 28  1  0
 27 58  1  0
 28 29  2  0
 28 59  1  0
 29 30  1  0
 29 60  1  0
 30 35  2  0
 30 31  1  0
 31 32  2  0
 31 61  1  0
 32 33  1  0
 32 62  1  0
 33 34  2  0
 33 63  1  0
 34 35  1  0
 34 64  1  0
 36 37  1  0
 38 39  1  0
 38 65  1  0
 39 66  1  0
M  CHG  1  36   1
M  END
>  <DOCK_score>  (1) 
-58.9865

>  <SMILES>  (1) 
CCc1ccc(-c2c[nH]c(N[C@H](c3ccccc3SC3=CCC3)c3cccc4ccccc34)[nH+]2)cc1

$$$$
