Nc1ccc(-c2c[nH]c(N[C@H](c3ccc(F)cc3)c3ccccn3)[nH+]2)cc1
     RDKit          3D

 46 49  0  0  1  0  0  0  0  0999 V2000
  131.7124  129.4782  151.6737 N   0  0  0  0  0  0  0  0  0  0  0  0
  131.3350  130.1685  152.8280 C   0  0  0  0  0  0  0  0  0  0  0  0
  130.5458  131.3080  152.7280 C   0  0  0  0  0  0  0  0  0  0  0  0
  130.1720  131.9911  153.8660 C   0  0  0  0  0  0  0  0  0  0  0  0
  130.5861  131.5377  155.1175 C   0  0  0  0  0  0  0  0  0  0  0  0
  130.1851  132.2710  156.3433 C   0  0  0  0  0  0  0  0  0  0  0  0
  129.4577  131.7687  157.3714 C   0  0  0  0  0  0  0  0  0  0  0  0
  129.3184  132.7798  158.2925 N   0  0  0  0  0  0  0  0  0  0  0  0
  128.8462  132.7257  159.1382 H   0  0  0  0  0  0  0  0  0  0  0  0
  129.9655  133.8702  157.7988 C   0  0  0  0  0  0  0  0  0  0  0  0
  130.0624  135.1017  158.4238 N   0  0  0  0  0  0  0  0  0  0  0  0
  128.9919  135.5579  159.3137 C   0  0  2  0  0  0  0  0  0  0  0  0
  128.8790  134.8529  160.1374 H   0  0  0  0  0  0  0  0  0  0  0  0
  127.6994  135.6416  158.5433 C   0  0  0  0  0  0  0  0  0  0  0  0
  126.4952  135.4341  159.1900 C   0  0  0  0  0  0  0  0  0  0  0  0
  125.3093  135.5114  158.4847 C   0  0  0  0  0  0  0  0  0  0  0  0
  125.3275  135.7961  157.1299 C   0  0  0  0  0  0  0  0  0  0  0  0
  124.1687  135.8715  156.4392 F   0  0  0  0  0  0  0  0  0  0  0  0
  126.5345  135.9980  156.4821 C   0  0  0  0  0  0  0  0  0  0  0  0
  127.7189  135.9259  157.1906 C   0  0  0  0  0  0  0  0  0  0  0  0
  129.3393  136.9184  159.8612 C   0  0  0  0  0  0  0  0  0  0  0  0
  128.8827  137.2882  161.1124 C   0  0  0  0  0  0  0  0  0  0  0  0
  129.2123  138.5399  161.6088 C   0  0  0  0  0  0  0  0  0  0  0  0
  129.9832  139.3807  160.8202 C   0  0  0  0  0  0  0  0  0  0  0  0
  130.3990  138.9439  159.5770 C   0  0  0  0  0  0  0  0  0  0  0  0
  130.0706  137.7440  159.1388 N   0  0  0  0  0  0  0  0  0  0  0  0
  130.4772  133.5640  156.6315 N   0  0  0  0  0  0  0  0  0  0  0  0
  130.9857  134.1654  156.0653 H   0  0  0  0  0  0  0  0  0  0  0  0
  131.3823  130.3977  155.2150 C   0  0  0  0  0  0  0  0  0  0  0  0
  131.7486  129.7143  154.0748 C   0  0  0  0  0  0  0  0  0  0  0  0
  131.4239  129.7940  150.8033 H   0  0  0  0  0  0  0  0  0  0  0  0
  132.2632  128.6824  151.7428 H   0  0  0  0  0  0  0  0  0  0  0  0
  130.2254  131.6592  151.7582 H   0  0  0  0  0  0  0  0  0  0  0  0
  129.5584  132.8765  153.7879 H   0  0  0  0  0  0  0  0  0  0  0  0
  129.0630  130.7666  157.4512 H   0  0  0  0  0  0  0  0  0  0  0  0
  130.8391  135.6628  158.2722 H   0  0  0  0  0  0  0  0  0  0  0  0
  126.4813  135.2120  160.2468 H   0  0  0  0  0  0  0  0  0  0  0  0
  124.3686  135.3494  158.9900 H   0  0  0  0  0  0  0  0  0  0  0  0
  126.5501  136.2158  155.4243 H   0  0  0  0  0  0  0  0  0  0  0  0
  128.6601  136.0876  156.6865 H   0  0  0  0  0  0  0  0  0  0  0  0
  128.2802  136.6092  161.6974 H   0  0  0  0  0  0  0  0  0  0  0  0
  128.8733  138.8543  162.5849 H   0  0  0  0  0  0  0  0  0  0  0  0
  130.2547  140.3646  161.1732 H   0  0  0  0  0  0  0  0  0  0  0  0
  130.9998  139.5927  158.9567 H   0  0  0  0  0  0  0  0  0  0  0  0
  131.7081  130.0472  156.1832 H   0  0  0  0  0  0  0  0  0  0  0  0
  132.3613  128.8280  154.1502 H   0  0  0  0  0  0  0  0  0  0  0  0
  1  2  1  0
  1 31  1  0
  1 32  1  0
  2 30  2  0
  2  3  1  0
  3  4  2  0
  3 33  1  0
  4  5  1  0
  4 34  1  0
  5  6  1  0
  5 29  2  0
  6 27  1  0
  6  7  2  0
  7  8  1  0
  7 35  1  0
  8  9  1  0
  8 10  1  0
 10 11  1  0
 10 27  2  0
 11 12  1  0
 11 36  1  0
 12 13  1  1
 12 14  1  0
 12 21  1  0
 14 20  1  0
 14 15  2  0
 15 16  1  0
 15 37  1  0
 16 17  2  0
 16 38  1  0
 17 18  1  0
 17 19  1  0
 19 20  2  0
 19 39  1  0
 20 40  1  0
 21 26  1  0
 21 22  2  0
 22 23  1  0
 22 41  1  0
 23 24  2  0
 23 42  1  0
 24 25  1  0
 24 43  1  0
 25 26  2  0
 25 44  1  0
 27 28  1  0
 29 30  1  0
 29 45  1  0
 30 46  1  0
M  CHG  1  27   1
M  END
>  <DOCK_score>  (1) 
-59.822475

>  <SMILES>  (1) 
Nc1ccc(-c2c[nH]c(N[C@H](c3ccc(F)cc3)c3ccccn3)[nH+]2)cc1

$$$$
