CCc1ccc(-c2c[nH]c(N[C@@H](c3cccc(C)c3)c3cccc(F)c3)[nH+]2)cc1
     RDKit          3D

 54 57  0  0  1  0  0  0  0  0999 V2000
  130.5702  128.3628  151.6361 C   0  0  0  0  0  0  0  0  0  0  0  0
  131.6591  129.3758  151.9950 C   0  0  0  0  0  0  0  0  0  0  0  0
  131.2747  130.0998  153.2596 C   0  0  0  0  0  0  0  0  0  0  0  0
  131.6631  129.5954  154.4871 C   0  0  0  0  0  0  0  0  0  0  0  0
  131.3189  130.2571  155.6483 C   0  0  0  0  0  0  0  0  0  0  0  0
  130.5687  131.4298  155.5827 C   0  0  0  0  0  0  0  0  0  0  0  0
  130.1909  132.1426  156.8275 C   0  0  0  0  0  0  0  0  0  0  0  0
  129.4528  131.6346  157.8454 C   0  0  0  0  0  0  0  0  0  0  0  0
  129.3427  132.6250  158.7909 N   0  0  0  0  0  0  0  0  0  0  0  0
  128.8709  132.5624  159.6361 H   0  0  0  0  0  0  0  0  0  0  0  0
  130.0174  133.7102  158.3228 C   0  0  0  0  0  0  0  0  0  0  0  0
  130.1481  134.9227  158.9779 N   0  0  0  0  0  0  0  0  0  0  0  0
  129.0918  135.3845  159.8819 C   0  0  1  0  0  0  0  0  0  0  0  0
  128.9622  134.6622  160.6880 H   0  0  0  0  0  0  0  0  0  0  0  0
  129.4760  136.7213  160.4621 C   0  0  0  0  0  0  0  0  0  0  0  0
  129.6953  137.8003  159.6261 C   0  0  0  0  0  0  0  0  0  0  0  0
  130.0472  139.0264  160.1582 C   0  0  0  0  0  0  0  0  0  0  0  0
  130.1798  139.1738  161.5264 C   0  0  0  0  0  0  0  0  0  0  0  0
  129.9604  138.0950  162.3623 C   0  0  0  0  0  0  0  0  0  0  0  0
  130.1044  138.2558  163.8537 C   0  0  0  0  0  0  0  0  0  0  0  0
  129.6033  136.8699  161.8303 C   0  0  0  0  0  0  0  0  0  0  0  0
  127.8003  135.5211  159.1174 C   0  0  0  0  0  0  0  0  0  0  0  0
  126.5921  135.3290  159.7616 C   0  0  0  0  0  0  0  0  0  0  0  0
  125.4068  135.4544  159.0617 C   0  0  0  0  0  0  0  0  0  0  0  0
  125.4282  135.7720  157.7168 C   0  0  0  0  0  0  0  0  0  0  0  0
  126.6373  135.9641  157.0705 C   0  0  0  0  0  0  0  0  0  0  0  0
  126.6593  136.2740  155.7557 F   0  0  0  0  0  0  0  0  0  0  0  0
  127.8240  135.8436  157.7740 C   0  0  0  0  0  0  0  0  0  0  0  0
  130.5278  133.4162  157.1519 N   0  0  0  0  0  0  0  0  0  0  0  0
  131.0593  134.0144  156.6038 H   0  0  0  0  0  0  0  0  0  0  0  0
  130.1752  131.9308  154.3430 C   0  0  0  0  0  0  0  0  0  0  0  0
  130.5299  131.2638  153.1880 C   0  0  0  0  0  0  0  0  0  0  0  0
  129.6248  128.8836  151.4838 H   0  0  0  0  0  0  0  0  0  0  0  0
  130.8481  127.8393  150.7214 H   0  0  0  0  0  0  0  0  0  0  0  0
  130.4620  127.6435  152.4478 H   0  0  0  0  0  0  0  0  0  0  0  0
  132.6042  128.8556  152.1467 H   0  0  0  0  0  0  0  0  0  0  0  0
  131.7670  130.0957  151.1827 H   0  0  0  0  0  0  0  0  0  0  0  0
  132.2403  128.6840  154.5370 H   0  0  0  0  0  0  0  0  0  0  0  0
  131.6267  129.8647  156.6063 H   0  0  0  0  0  0  0  0  0  0  0  0
  129.0318  130.6416  157.9017 H   0  0  0  0  0  0  0  0  0  0  0  0
  130.9392  135.4665  158.8385 H   0  0  0  0  0  0  0  0  0  0  0  0
  129.5914  137.6853  158.5572 H   0  0  0  0  0  0  0  0  0  0  0  0
  130.2183  139.8694  159.5051 H   0  0  0  0  0  0  0  0  0  0  0  0
  130.4545  140.1320  161.9422 H   0  0  0  0  0  0  0  0  0  0  0  0
  129.1460  138.5496  164.2817 H   0  0  0  0  0  0  0  0  0  0  0  0
  130.4236  137.3102  164.2919 H   0  0  0  0  0  0  0  0  0  0  0  0
  130.8479  139.0241  164.0662 H   0  0  0  0  0  0  0  0  0  0  0  0
  129.4276  136.0280  162.4837 H   0  0  0  0  0  0  0  0  0  0  0  0
  126.5745  135.0811  160.8127 H   0  0  0  0  0  0  0  0  0  0  0  0
  124.4637  135.3045  159.5662 H   0  0  0  0  0  0  0  0  0  0  0  0
  124.5018  135.8706  157.1702 H   0  0  0  0  0  0  0  0  0  0  0  0
  128.7676  135.9984  157.2721 H   0  0  0  0  0  0  0  0  0  0  0  0
  129.5936  132.8391  154.2863 H   0  0  0  0  0  0  0  0  0  0  0  0
  130.2259  131.6513  152.2269 H   0  0  0  0  0  0  0  0  0  0  0  0
  1  2  1  0
  1 33  1  0
  1 34  1  0
  1 35  1  0
  2  3  1  0
  2 36  1  0
  2 37  1  0
  3 32  2  0
  3  4  1  0
  4  5  2  0
  4 38  1  0
  5  6  1  0
  5 39  1  0
  6  7  1  0
  6 31  2  0
  7 29  1  0
  7  8  2  0
  8  9  1  0
  8 40  1  0
  9 10  1  0
  9 11  1  0
 11 12  1  0
 11 29  2  0
 12 13  1  0
 12 41  1  0
 13 14  1  1
 13 15  1  0
 13 22  1  0
 15 21  1  0
 15 16  2  0
 16 17  1  0
 16 42  1  0
 17 18  2  0
 17 43  1  0
 18 19  1  0
 18 44  1  0
 19 20  1  0
 19 21  2  0
 20 45  1  0
 20 46  1  0
 20 47  1  0
 21 48  1  0
 22 28  1  0
 22 23  2  0
 23 24  1  0
 23 49  1  0
 24 25  2  0
 24 50  1  0
 25 26  1  0
 25 51  1  0
 26 27  1  0
 26 28  2  0
 28 52  1  0
 29 30  1  0
 31 32  1  0
 31 53  1  0
 32 54  1  0
M  CHG  1  29   1
M  END
>  <DOCK_score>  (1) 
-62.512802

>  <SMILES>  (1) 
CCc1ccc(-c2c[nH]c(N[C@@H](c3cccc(C)c3)c3cccc(F)c3)[nH+]2)cc1

$$$$
