C[N@@H+](CC(CO)CBr)C1c2cc(O)ccc2-c2ccc(O)cc21
     RDKit          3D

 44 46  0  0  1  0  0  0  0  0999 V2000
  129.3797  134.2311  161.4590 C   0  0  0  0  0  0  0  0  0  0  0  0
  128.7641  135.3605  160.7495 N   0  0  1  0  0  0  0  0  0  0  0  0
  128.1432  135.8521  161.3746 H   0  0  0  0  0  0  0  0  0  0  0  0
  129.8138  136.2758  160.2819 C   0  0  0  0  0  0  0  0  0  0  0  0
  130.2680  137.1654  161.4409 C   0  0  1  0  0  0  0  0  0  0  0  0
  131.6482  137.7464  161.1272 C   0  0  0  0  0  0  0  0  0  0  0  0
  131.5772  138.5233  159.9299 O   0  0  0  0  0  0  0  0  0  0  0  0
  129.2660  138.3057  161.6317 C   0  0  0  0  0  0  0  0  0  0  0  0
  127.7082  137.6484  162.6348 Br  0  0  0  0  0  0  0  0  0  0  0  0
  128.0030  134.8589  159.5975 C   0  0  0  0  0  0  0  0  0  0  0  0
  128.7192  133.6870  158.9721 C   0  0  0  0  0  0  0  0  0  0  0  0
  129.9661  133.5651  158.3982 C   0  0  0  0  0  0  0  0  0  0  0  0
  130.3784  132.3418  157.8871 C   0  0  0  0  0  0  0  0  0  0  0  0
  131.6059  132.2224  157.3165 O   0  0  0  0  0  0  0  0  0  0  0  0
  129.5384  131.2389  157.9643 C   0  0  0  0  0  0  0  0  0  0  0  0
  128.2930  131.3552  158.5430 C   0  0  0  0  0  0  0  0  0  0  0  0
  127.8714  132.5853  159.0534 C   0  0  0  0  0  0  0  0  0  0  0  0
  126.6052  132.9841  159.7164 C   0  0  0  0  0  0  0  0  0  0  0  0
  125.4593  132.2479  160.0264 C   0  0  0  0  0  0  0  0  0  0  0  0
  124.3966  132.8586  160.6563 C   0  0  0  0  0  0  0  0  0  0  0  0
  124.4601  134.2061  160.9851 C   0  0  0  0  0  0  0  0  0  0  0  0
  123.4096  134.8044  161.6058 O   0  0  0  0  0  0  0  0  0  0  0  0
  125.5969  134.9420  160.6791 C   0  0  0  0  0  0  0  0  0  0  0  0
  126.6617  134.3351  160.0493 C   0  0  0  0  0  0  0  0  0  0  0  0
  130.1339  133.7691  160.8217 H   0  0  0  0  0  0  0  0  0  0  0  0
  129.8486  134.5896  162.3753 H   0  0  0  0  0  0  0  0  0  0  0  0
  128.6136  133.4963  161.7063 H   0  0  0  0  0  0  0  0  0  0  0  0
  130.6615  135.6984  159.9132 H   0  0  0  0  0  0  0  0  0  0  0  0
  129.4211  136.8985  159.4781 H   0  0  0  0  0  0  0  0  0  0  0  0
  130.3224  136.5728  162.3542 H   0  0  0  0  0  0  0  0  0  0  0  0
  131.9719  138.3800  161.9529 H   0  0  0  0  0  0  0  0  0  0  0  0
  132.3621  136.9340  160.9913 H   0  0  0  0  0  0  0  0  0  0  0  0
  131.2950  138.0226  159.1523 H   0  0  0  0  0  0  0  0  0  0  0  0
  129.7393  139.1165  162.1859 H   0  0  0  0  0  0  0  0  0  0  0  0
  128.9426  138.6721  160.6574 H   0  0  0  0  0  0  0  0  0  0  0  0
  127.8679  135.6530  158.8631 H   0  0  0  0  0  0  0  0  0  0  0  0
  130.6209  134.4221  158.3420 H   0  0  0  0  0  0  0  0  0  0  0  0
  132.1192  133.0419  157.3127 H   0  0  0  0  0  0  0  0  0  0  0  0
  129.8620  130.2870  157.5700 H   0  0  0  0  0  0  0  0  0  0  0  0
  127.6426  130.4951  158.6015 H   0  0  0  0  0  0  0  0  0  0  0  0
  125.4061  131.1996  159.7721 H   0  0  0  0  0  0  0  0  0  0  0  0
  123.5116  132.2873  160.8949 H   0  0  0  0  0  0  0  0  0  0  0  0
  123.5467  135.7430  161.7939 H   0  0  0  0  0  0  0  0  0  0  0  0
  125.6468  135.9901  160.9351 H   0  0  0  0  0  0  0  0  0  0  0  0
  1  2  1  0
  1 25  1  0
  1 26  1  0
  1 27  1  0
  2  3  1  1
  2  4  1  0
  2 10  1  0
  4  5  1  0
  4 28  1  0
  4 29  1  0
  5  6  1  0
  5  8  1  0
  5 30  1  1
  6  7  1  0
  6 31  1  0
  6 32  1  0
  7 33  1  0
  8  9  1  0
  8 34  1  0
  8 35  1  0
 10 24  1  0
 10 11  1  0
 10 36  1  0
 11 17  2  0
 11 12  1  0
 12 13  2  0
 12 37  1  0
 13 14  1  0
 13 15  1  0
 14 38  1  0
 15 16  2  0
 15 39  1  0
 16 17  1  0
 16 40  1  0
 17 18  1  0
 18 24  2  0
 18 19  1  0
 19 20  2  0
 19 41  1  0
 20 21  1  0
 20 42  1  0
 21 22  1  0
 21 23  2  0
 22 43  1  0
 23 24  1  0
 23 44  1  0
M  CHG  1   2   1
M  END
>  <DOCK_score>  (1) 
-42.529255

>  <SMILES>  (1) 
C[N@@H+](CC(CO)CBr)C1c2cc(O)ccc2-c2ccc(O)cc21

$$$$
