Nc1ccc(C2=CCCCC2)c(Nc2[nH]cc(-c3ccc(C(F)(F)F)cc3)[nH+]2)c1
     RDKit          3D

 51 54  0  0  1  0  0  0  0  0999 V2000
  125.5946  136.2001  159.8275 N   0  0  0  0  0  0  0  0  0  0  0  0
  126.9220  136.0514  160.2307 C   0  0  0  0  0  0  0  0  0  0  0  0
  127.2785  136.3070  161.5514 C   0  0  0  0  0  0  0  0  0  0  0  0
  128.5873  136.1628  161.9570 C   0  0  0  0  0  0  0  0  0  0  0  0
  129.5610  135.7592  161.0420 C   0  0  0  0  0  0  0  0  0  0  0  0
  130.9642  135.6044  161.4739 C   0  0  0  0  0  0  0  0  0  0  0  0
  131.7552  136.6482  161.3897 C   0  0  0  0  0  0  0  0  0  0  0  0
  133.2035  136.6329  161.7835 C   0  0  0  0  0  0  0  0  0  0  0  0
  133.4972  135.4165  162.6638 C   0  0  0  0  0  0  0  0  0  0  0  0
  132.9298  134.1691  161.9754 C   0  0  0  0  0  0  0  0  0  0  0  0
  131.4010  134.2642  161.9894 C   0  0  0  0  0  0  0  0  0  0  0  0
  129.2020  135.5015  159.7109 C   0  0  0  0  0  0  0  0  0  0  0  0
  130.1696  135.0976  158.7907 N   0  0  0  0  0  0  0  0  0  0  0  0
  130.0467  133.8770  158.1472 C   0  0  0  0  0  0  0  0  0  0  0  0
  129.4459  132.7678  158.6588 N   0  0  0  0  0  0  0  0  0  0  0  0
  129.0305  132.6905  159.5318 H   0  0  0  0  0  0  0  0  0  0  0  0
  129.5374  131.7783  157.7110 C   0  0  0  0  0  0  0  0  0  0  0  0
  130.1861  132.3120  156.6461 C   0  0  0  0  0  0  0  0  0  0  0  0
  130.5088  131.6106  155.3795 C   0  0  0  0  0  0  0  0  0  0  0  0
  130.0042  132.0839  154.1696 C   0  0  0  0  0  0  0  0  0  0  0  0
  130.3124  131.4307  152.9936 C   0  0  0  0  0  0  0  0  0  0  0  0
  131.1111  130.3014  153.0155 C   0  0  0  0  0  0  0  0  0  0  0  0
  131.4386  129.5889  151.7286 C   0  0  0  0  0  0  0  0  0  0  0  0
  130.8263  130.2516  150.6597 F   0  0  0  0  0  0  0  0  0  0  0  0
  132.8248  129.5803  151.5399 F   0  0  0  0  0  0  0  0  0  0  0  0
  130.9685  128.2726  151.7921 F   0  0  0  0  0  0  0  0  0  0  0  0
  131.6100  129.8239  154.2141 C   0  0  0  0  0  0  0  0  0  0  0  0
  131.3130  130.4724  155.3956 C   0  0  0  0  0  0  0  0  0  0  0  0
  130.4904  133.5992  156.9454 N   0  0  0  0  0  0  0  0  0  0  0  0
  130.9581  134.2170  156.3619 H   0  0  0  0  0  0  0  0  0  0  0  0
  127.8839  135.6550  159.3115 C   0  0  0  0  0  0  0  0  0  0  0  0
  124.9220  136.4813  160.4675 H   0  0  0  0  0  0  0  0  0  0  0  0
  125.3444  136.0225  158.9074 H   0  0  0  0  0  0  0  0  0  0  0  0
  126.5266  136.6198  162.2609 H   0  0  0  0  0  0  0  0  0  0  0  0
  128.8598  136.3618  162.9829 H   0  0  0  0  0  0  0  0  0  0  0  0
  131.3400  137.5719  161.0147 H   0  0  0  0  0  0  0  0  0  0  0  0
  133.8214  136.5876  160.8866 H   0  0  0  0  0  0  0  0  0  0  0  0
  133.4375  137.5435  162.3352 H   0  0  0  0  0  0  0  0  0  0  0  0
  134.5745  135.3072  162.7899 H   0  0  0  0  0  0  0  0  0  0  0  0
  133.0231  135.5456  163.6368 H   0  0  0  0  0  0  0  0  0  0  0  0
  133.2883  134.1232  160.9471 H   0  0  0  0  0  0  0  0  0  0  0  0
  133.2479  133.2766  162.5143 H   0  0  0  0  0  0  0  0  0  0  0  0
  131.0364  134.1325  163.0081 H   0  0  0  0  0  0  0  0  0  0  0  0
  130.9864  133.4805  161.3553 H   0  0  0  0  0  0  0  0  0  0  0  0
  130.9283  135.6714  158.6013 H   0  0  0  0  0  0  0  0  0  0  0  0
  129.1604  130.7697  157.7956 H   0  0  0  0  0  0  0  0  0  0  0  0
  129.3768  132.9629  154.1518 H   0  0  0  0  0  0  0  0  0  0  0  0
  129.9257  131.7992  152.0550 H   0  0  0  0  0  0  0  0  0  0  0  0
  132.2334  128.9421  154.2252 H   0  0  0  0  0  0  0  0  0  0  0  0
  131.7027  130.0984  156.3307 H   0  0  0  0  0  0  0  0  0  0  0  0
  127.6042  135.4619  158.2864 H   0  0  0  0  0  0  0  0  0  0  0  0
  1  2  1  0
  1 32  1  0
  1 33  1  0
  2 31  2  0
  2  3  1  0
  3  4  2  0
  3 34  1  0
  4  5  1  0
  4 35  1  0
  5  6  1  0
  5 12  2  0
  6 11  1  0
  6  7  2  0
  7  8  1  0
  7 36  1  0
  8  9  1  0
  8 37  1  0
  8 38  1  0
  9 10  1  0
  9 39  1  0
  9 40  1  0
 10 11  1  0
 10 41  1  0
 10 42  1  0
 11 43  1  0
 11 44  1  0
 12 13  1  0
 12 31  1  0
 13 45  1  0
 14 13  1  0
 14 29  2  0
 14 15  1  0
 15 16  1  0
 15 17  1  0
 17 18  2  0
 17 46  1  0
 18 19  1  0
 18 29  1  0
 19 28  1  0
 19 20  2  0
 20 21  1  0
 20 47  1  0
 21 22  2  0
 21 48  1  0
 22 23  1  0
 22 27  1  0
 23 24  1  0
 23 25  1  0
 23 26  1  0
 27 28  2  0
 27 49  1  0
 28 50  1  0
 29 30  1  0
 31 51  1  0
M  CHG  1  29   1
M  END
>  <DOCK_score>  (1) 
-53.134159

>  <SMILES>  (1) 
Nc1ccc(C2=CCCCC2)c(Nc2[nH]cc(-c3ccc(C(F)(F)F)cc3)[nH+]2)c1

$$$$
