Nc1ccc(-c2c[nH]c(Nc3ccc(Nc4ccccc4)c(N)c3)[nH+]2)cc1
     RDKit          3D

 48 51  0  0  1  0  0  0  0  0999 V2000
  131.0964  129.2819  152.3758 N   0  0  0  0  0  0  0  0  0  0  0  0
  130.8617  130.0809  153.4973 C   0  0  0  0  0  0  0  0  0  0  0  0
  130.0009  131.1687  153.4064 C   0  0  0  0  0  0  0  0  0  0  0  0
  129.7674  131.9585  154.5125 C   0  0  0  0  0  0  0  0  0  0  0  0
  130.3954  131.6656  155.7219 C   0  0  0  0  0  0  0  0  0  0  0  0
  130.1463  132.5141  156.9131 C   0  0  0  0  0  0  0  0  0  0  0  0
  129.6162  132.1002  158.0908 C   0  0  0  0  0  0  0  0  0  0  0  0
  129.5613  133.2010  158.9120 N   0  0  0  0  0  0  0  0  0  0  0  0
  129.2289  133.2222  159.8230 H   0  0  0  0  0  0  0  0  0  0  0  0
  130.0601  134.2554  158.2108 C   0  0  0  0  0  0  0  0  0  0  0  0
  130.1798  135.5528  158.6809 N   0  0  0  0  0  0  0  0  0  0  0  0
  129.2758  136.0385  159.6334 C   0  0  0  0  0  0  0  0  0  0  0  0
  129.6793  137.0084  160.5419 C   0  0  0  0  0  0  0  0  0  0  0  0
  128.7878  137.4939  161.4797 C   0  0  0  0  0  0  0  0  0  0  0  0
  127.4873  137.0141  161.5159 C   0  0  0  0  0  0  0  0  0  0  0  0
  126.5833  137.5076  162.4682 N   0  0  0  0  0  0  0  0  0  0  0  0
  126.9929  138.4825  163.3803 C   0  0  0  0  0  0  0  0  0  0  0  0
  126.3583  139.7182  163.4107 C   0  0  0  0  0  0  0  0  0  0  0  0
  126.7628  140.6780  164.3173 C   0  0  0  0  0  0  0  0  0  0  0  0
  127.8052  140.4146  165.1870 C   0  0  0  0  0  0  0  0  0  0  0  0
  128.4427  139.1877  165.1559 C   0  0  0  0  0  0  0  0  0  0  0  0
  128.0399  138.2211  164.2555 C   0  0  0  0  0  0  0  0  0  0  0  0
  127.0790  136.0399  160.6050 C   0  0  0  0  0  0  0  0  0  0  0  0
  125.7671  135.5536  160.6398 N   0  0  0  0  0  0  0  0  0  0  0  0
  127.9750  135.5540  159.6656 C   0  0  0  0  0  0  0  0  0  0  0  0
  130.4032  133.8418  157.0150 N   0  0  0  0  0  0  0  0  0  0  0  0
  130.7826  134.3964  156.3156 H   0  0  0  0  0  0  0  0  0  0  0  0
  131.2626  130.5776  155.8091 C   0  0  0  0  0  0  0  0  0  0  0  0
  131.4890  129.7874  154.7018 C   0  0  0  0  0  0  0  0  0  0  0  0
  130.6586  129.4867  151.5342 H   0  0  0  0  0  0  0  0  0  0  0  0
  131.6971  128.5233  152.4377 H   0  0  0  0  0  0  0  0  0  0  0  0
  129.5147  131.3955  152.4691 H   0  0  0  0  0  0  0  0  0  0  0  0
  129.0981  132.8031  154.4417 H   0  0  0  0  0  0  0  0  0  0  0  0
  129.2978  131.0978  158.3362 H   0  0  0  0  0  0  0  0  0  0  0  0
  130.8899  136.1248  158.3502 H   0  0  0  0  0  0  0  0  0  0  0  0
  130.6917  137.3836  160.5156 H   0  0  0  0  0  0  0  0  0  0  0  0
  129.1044  138.2482  162.1849 H   0  0  0  0  0  0  0  0  0  0  0  0
  125.6736  137.1716  162.4932 H   0  0  0  0  0  0  0  0  0  0  0  0
  125.5468  139.9261  162.7291 H   0  0  0  0  0  0  0  0  0  0  0  0
  126.2671  141.6373  164.3443 H   0  0  0  0  0  0  0  0  0  0  0  0
  128.1225  141.1688  165.8920 H   0  0  0  0  0  0  0  0  0  0  0  0
  129.2562  138.9851  165.8368 H   0  0  0  0  0  0  0  0  0  0  0  0
  128.5385  137.2634  164.2316 H   0  0  0  0  0  0  0  0  0  0  0  0
  125.1408  135.8940  161.2977 H   0  0  0  0  0  0  0  0  0  0  0  0
  125.4839  134.8762  160.0057 H   0  0  0  0  0  0  0  0  0  0  0  0
  127.6613  134.8000  158.9588 H   0  0  0  0  0  0  0  0  0  0  0  0
  131.7537  130.3514  156.7440 H   0  0  0  0  0  0  0  0  0  0  0  0
  132.1573  128.9417  154.7700 H   0  0  0  0  0  0  0  0  0  0  0  0
  1  2  1  0
  1 30  1  0
  1 31  1  0
  2 29  2  0
  2  3  1  0
  3  4  2  0
  3 32  1  0
  4  5  1  0
  4 33  1  0
  5  6  1  0
  5 28  2  0
  6 26  1  0
  6  7  2  0
  7  8  1  0
  7 34  1  0
  8  9  1  0
  8 10  1  0
 10 11  1  0
 10 26  2  0
 11 12  1  0
 11 35  1  0
 12 25  1  0
 12 13  2  0
 13 14  1  0
 13 36  1  0
 14 15  2  0
 14 37  1  0
 15 16  1  0
 15 23  1  0
 16 17  1  0
 16 38  1  0
 17 22  1  0
 17 18  2  0
 18 19  1  0
 18 39  1  0
 19 20  2  0
 19 40  1  0
 20 21  1  0
 20 41  1  0
 21 22  2  0
 21 42  1  0
 22 43  1  0
 23 24  1  0
 23 25  2  0
 24 44  1  0
 24 45  1  0
 25 46  1  0
 26 27  1  0
 28 29  1  0
 28 47  1  0
 29 48  1  0
M  CHG  1  26   1
M  END
>  <DOCK_score>  (1) 
-57.588924

>  <SMILES>  (1) 
Nc1ccc(-c2c[nH]c(Nc3ccc(Nc4ccccc4)c(N)c3)[nH+]2)cc1

$$$$
