C[C@@H](O)C(Cc1ccccc1)Nc1[nH]cc(-c2ccc(N)cc2)[nH+]1
     RDKit          3D

 47 49  0  0  1  0  0  0  0  0999 V2000
  127.3101  135.1692  158.4421 C   0  0  0  0  0  0  0  0  0  0  0  0
  127.9890  136.1425  159.4079 C   0  0  1  0  0  0  0  0  0  0  0  0
  128.3059  137.0323  158.8640 H   0  0  0  0  0  0  0  0  0  0  0  0
  127.0676  136.5148  160.4349 O   0  0  0  0  0  0  0  0  0  0  0  0
  129.2093  135.4681  160.0378 C   0  0  2  0  0  0  0  0  0  0  0  0
  129.8881  136.4414  161.0036 C   0  0  0  0  0  0  0  0  0  0  0  0
  131.0902  135.7771  161.6240 C   0  0  0  0  0  0  0  0  0  0  0  0
  130.9568  135.0697  162.8041 C   0  0  0  0  0  0  0  0  0  0  0  0
  132.0586  134.4564  163.3705 C   0  0  0  0  0  0  0  0  0  0  0  0
  133.2957  134.5591  162.7625 C   0  0  0  0  0  0  0  0  0  0  0  0
  133.4300  135.2709  161.5850 C   0  0  0  0  0  0  0  0  0  0  0  0
  132.3273  135.8799  161.0158 C   0  0  0  0  0  0  0  0  0  0  0  0
  130.1539  135.0864  158.9851 N   0  0  0  0  0  0  0  0  0  0  0  0
  130.0611  133.8397  158.3904 C   0  0  0  0  0  0  0  0  0  0  0  0
  129.6050  132.7071  158.9913 N   0  0  0  0  0  0  0  0  0  0  0  0
  129.2893  132.6285  159.9050 H   0  0  0  0  0  0  0  0  0  0  0  0
  129.6712  131.6954  158.0626 C   0  0  0  0  0  0  0  0  0  0  0  0
  130.1740  132.2374  156.9260 C   0  0  0  0  0  0  0  0  0  0  0  0
  130.4278  131.5178  155.6537 C   0  0  0  0  0  0  0  0  0  0  0  0
  129.7759  131.9123  154.4864 C   0  0  0  0  0  0  0  0  0  0  0  0
  130.0179  131.2457  153.3039 C   0  0  0  0  0  0  0  0  0  0  0  0
  130.9016  130.1739  153.2774 C   0  0  0  0  0  0  0  0  0  0  0  0
  131.1406  129.4957  152.0797 N   0  0  0  0  0  0  0  0  0  0  0  0
  131.5489  129.7751  154.4413 C   0  0  0  0  0  0  0  0  0  0  0  0
  131.3144  130.4424  155.6250 C   0  0  0  0  0  0  0  0  0  0  0  0
  130.4033  133.5542  157.1577 N   0  0  0  0  0  0  0  0  0  0  0  0
  130.7634  134.1841  156.5140 H   0  0  0  0  0  0  0  0  0  0  0  0
  126.4407  135.6497  157.9935 H   0  0  0  0  0  0  0  0  0  0  0  0
  128.0130  134.8852  157.6588 H   0  0  0  0  0  0  0  0  0  0  0  0
  126.9933  134.2794  158.9860 H   0  0  0  0  0  0  0  0  0  0  0  0
  126.2679  136.9489  160.1075 H   0  0  0  0  0  0  0  0  0  0  0  0
  128.8925  134.5783  160.5817 H   0  0  0  0  0  0  0  0  0  0  0  0
  130.2051  137.3313  160.4597 H   0  0  0  0  0  0  0  0  0  0  0  0
  129.1854  136.7254  161.7870 H   0  0  0  0  0  0  0  0  0  0  0  0
  129.9911  134.9932  163.2816 H   0  0  0  0  0  0  0  0  0  0  0  0
  131.9536  133.9006  164.2906 H   0  0  0  0  0  0  0  0  0  0  0  0
  134.1573  134.0837  163.2073 H   0  0  0  0  0  0  0  0  0  0  0  0
  134.3967  135.3515  161.1101 H   0  0  0  0  0  0  0  0  0  0  0  0
  132.4324  136.4363  160.0961 H   0  0  0  0  0  0  0  0  0  0  0  0
  130.8445  135.7072  158.7045 H   0  0  0  0  0  0  0  0  0  0  0  0
  129.3829  130.6654  158.2115 H   0  0  0  0  0  0  0  0  0  0  0  0
  129.0850  132.7423  154.5075 H   0  0  0  0  0  0  0  0  0  0  0  0
  129.5164  131.5539  152.3983 H   0  0  0  0  0  0  0  0  0  0  0  0
  131.7577  128.7475  152.0606 H   0  0  0  0  0  0  0  0  0  0  0  0
  130.6894  129.7731  151.2672 H   0  0  0  0  0  0  0  0  0  0  0  0
  132.2357  128.9418  154.4186 H   0  0  0  0  0  0  0  0  0  0  0  0
  131.8174  130.1324  156.5289 H   0  0  0  0  0  0  0  0  0  0  0  0
  1  2  1  0
  1 28  1  0
  1 29  1  0
  1 30  1  0
  2  3  1  6
  2  4  1  0
  2  5  1  0
  4 31  1  0
  5  6  1  0
  5 13  1  0
  5 32  1  1
  6  7  1  0
  6 33  1  0
  6 34  1  0
  7 12  1  0
  7  8  2  0
  8  9  1  0
  8 35  1  0
  9 10  2  0
  9 36  1  0
 10 11  1  0
 10 37  1  0
 11 12  2  0
 11 38  1  0
 12 39  1  0
 13 40  1  0
 14 13  1  0
 14 26  2  0
 14 15  1  0
 15 16  1  0
 15 17  1  0
 17 18  2  0
 17 41  1  0
 18 19  1  0
 18 26  1  0
 19 25  1  0
 19 20  2  0
 20 21  1  0
 20 42  1  0
 21 22  2  0
 21 43  1  0
 22 23  1  0
 22 24  1  0
 23 44  1  0
 23 45  1  0
 24 25  2  0
 24 46  1  0
 25 47  1  0
 26 27  1  0
M  CHG  1  26   1
M  END
>  <DOCK_score>  (1) 
-52.462231

>  <SMILES>  (1) 
C[C@@H](O)C(Cc1ccccc1)Nc1[nH]cc(-c2ccc(N)cc2)[nH+]1

$$$$
