CCc1ccc(-c2c[nH]c(N[C@H](c3ccccc3)C3CCCC3)[nH+]2)cc1
     RDKit          3D

 54 57  0  0  1  0  0  0  0  0999 V2000
  130.7634  129.0804  151.2906 C   0  0  0  0  0  0  0  0  0  0  0  0
  131.9956  129.5211  152.0823 C   0  0  0  0  0  0  0  0  0  0  0  0
  131.5590  130.2430  153.3311 C   0  0  0  0  0  0  0  0  0  0  0  0
  131.3487  129.5336  154.4991 C   0  0  0  0  0  0  0  0  0  0  0  0
  130.9535  130.1899  155.6469 C   0  0  0  0  0  0  0  0  0  0  0  0
  130.7565  131.5695  155.6247 C   0  0  0  0  0  0  0  0  0  0  0  0
  130.3267  132.2800  156.8539 C   0  0  0  0  0  0  0  0  0  0  0  0
  129.5713  131.7605  157.8531 C   0  0  0  0  0  0  0  0  0  0  0  0
  129.4118  132.7528  158.7895 N   0  0  0  0  0  0  0  0  0  0  0  0
  128.9174  132.6839  159.6212 H   0  0  0  0  0  0  0  0  0  0  0  0
  130.0750  133.8507  158.3347 C   0  0  0  0  0  0  0  0  0  0  0  0
  130.1591  135.0694  158.9862 N   0  0  0  0  0  0  0  0  0  0  0  0
  129.0668  135.5115  159.8566 C   0  0  2  0  0  0  0  0  0  0  0  0
  128.9302  134.7908  160.6628 H   0  0  0  0  0  0  0  0  0  0  0  0
  127.7955  135.6145  159.0541 C   0  0  0  0  0  0  0  0  0  0  0  0
  126.5741  135.3926  159.6625 C   0  0  0  0  0  0  0  0  0  0  0  0
  125.4076  135.4914  158.9273 C   0  0  0  0  0  0  0  0  0  0  0  0
  125.4630  135.8030  157.5817 C   0  0  0  0  0  0  0  0  0  0  0  0
  126.6846  136.0196  156.9721 C   0  0  0  0  0  0  0  0  0  0  0  0
  127.8508  135.9252  157.7082 C   0  0  0  0  0  0  0  0  0  0  0  0
  129.4085  136.8803  160.4485 C   0  0  0  0  0  0  0  0  0  0  0  0
  130.8845  136.9090  160.8962 C   0  0  0  0  0  0  0  0  0  0  0  0
  130.8714  137.7539  162.1944 C   0  0  0  0  0  0  0  0  0  0  0  0
  129.5532  137.3112  162.8770 C   0  0  0  0  0  0  0  0  0  0  0  0
  128.5621  137.1361  161.7079 C   0  0  0  0  0  0  0  0  0  0  0  0
  130.6247  133.5628  157.1802 N   0  0  0  0  0  0  0  0  0  0  0  0
  131.1578  134.1702  156.6439 H   0  0  0  0  0  0  0  0  0  0  0  0
  130.9653  132.2792  154.4434 C   0  0  0  0  0  0  0  0  0  0  0  0
  131.3654  131.6131  153.3030 C   0  0  0  0  0  0  0  0  0  0  0  0
  130.1745  129.9560  151.0170 H   0  0  0  0  0  0  0  0  0  0  0  0
  131.0793  128.5584  150.3873 H   0  0  0  0  0  0  0  0  0  0  0  0
  130.1581  128.4125  151.9034 H   0  0  0  0  0  0  0  0  0  0  0  0
  132.5849  128.6463  152.3555 H   0  0  0  0  0  0  0  0  0  0  0  0
  132.6013  130.1898  151.4692 H   0  0  0  0  0  0  0  0  0  0  0  0
  131.4973  128.4639  154.5139 H   0  0  0  0  0  0  0  0  0  0  0  0
  130.7935  129.6352  156.5596 H   0  0  0  0  0  0  0  0  0  0  0  0
  129.1713  130.7585  157.9029 H   0  0  0  0  0  0  0  0  0  0  0  0
  130.9413  135.6304  158.8665 H   0  0  0  0  0  0  0  0  0  0  0  0
  126.5312  135.1457  160.7130 H   0  0  0  0  0  0  0  0  0  0  0  0
  124.4532  135.3224  159.4037 H   0  0  0  0  0  0  0  0  0  0  0  0
  124.5518  135.8774  157.0067 H   0  0  0  0  0  0  0  0  0  0  0  0
  126.7278  136.2630  155.9208 H   0  0  0  0  0  0  0  0  0  0  0  0
  128.8053  136.0945  157.2319 H   0  0  0  0  0  0  0  0  0  0  0  0
  129.2261  137.6620  159.7110 H   0  0  0  0  0  0  0  0  0  0  0  0
  131.2404  135.8994  161.1018 H   0  0  0  0  0  0  0  0  0  0  0  0
  131.5044  137.3858  160.1370 H   0  0  0  0  0  0  0  0  0  0  0  0
  130.8475  138.8185  161.9621 H   0  0  0  0  0  0  0  0  0  0  0  0
  131.7304  137.5132  162.8206 H   0  0  0  0  0  0  0  0  0  0  0  0
  129.2016  138.0816  163.5631 H   0  0  0  0  0  0  0  0  0  0  0  0
  129.6925  136.3671  163.4038 H   0  0  0  0  0  0  0  0  0  0  0  0
  127.9696  138.0423  161.5819 H   0  0  0  0  0  0  0  0  0  0  0  0
  127.9080  136.2852  161.8973 H   0  0  0  0  0  0  0  0  0  0  0  0
  130.8137  133.3483  154.4205 H   0  0  0  0  0  0  0  0  0  0  0  0
  131.5271  132.1618  152.3870 H   0  0  0  0  0  0  0  0  0  0  0  0
  1  2  1  0
  1 30  1  0
  1 31  1  0
  1 32  1  0
  2  3  1  0
  2 33  1  0
  2 34  1  0
  3 29  2  0
  3  4  1  0
  4  5  2  0
  4 35  1  0
  5  6  1  0
  5 36  1  0
  6  7  1  0
  6 28  2  0
  7 26  1  0
  7  8  2  0
  8  9  1  0
  8 37  1  0
  9 10  1  0
  9 11  1  0
 11 12  1  0
 11 26  2  0
 12 13  1  0
 12 38  1  0
 13 14  1  1
 13 15  1  0
 13 21  1  0
 15 20  1  0
 15 16  2  0
 16 17  1  0
 16 39  1  0
 17 18  2  0
 17 40  1  0
 18 19  1  0
 18 41  1  0
 19 20  2  0
 19 42  1  0
 20 43  1  0
 21 25  1  0
 21 22  1  0
 21 44  1  0
 22 23  1  0
 22 45  1  0
 22 46  1  0
 23 24  1  0
 23 47  1  0
 23 48  1  0
 24 25  1  0
 24 49  1  0
 24 50  1  0
 25 51  1  0
 25 52  1  0
 26 27  1  0
 28 29  1  0
 28 53  1  0
 29 54  1  0
M  CHG  1  26   1
M  END
>  <DOCK_score>  (1) 
-56.399284

>  <SMILES>  (1) 
CCc1ccc(-c2c[nH]c(N[C@H](c3ccccc3)C3CCCC3)[nH+]2)cc1

$$$$
