c1ccc2c(CCc3cccc4[nH]c(C[NH2+][C@H]5CCN6CCCCC56)cc34)cccc2c1
     RDKit          3D

 66 71  0  0  1  0  0  0  0  0999 V2000
  139.0435  135.7009  167.0441 C   0  0  0  0  0  0  0  0  0  0  0  0
  138.8470  135.5913  165.6687 C   0  0  0  0  0  0  0  0  0  0  0  0
  138.1551  136.5410  164.9819 C   0  0  0  0  0  0  0  0  0  0  0  0
  137.6297  137.6500  165.6667 C   0  0  0  0  0  0  0  0  0  0  0  0
  136.9102  138.6510  164.9916 C   0  0  0  0  0  0  0  0  0  0  0  0
  136.6920  138.5541  163.5038 C   0  0  0  0  0  0  0  0  0  0  0  0
  135.8855  139.7636  163.0267 C   0  0  0  0  0  0  0  0  0  0  0  0
  135.6672  139.6666  161.5387 C   0  0  0  0  0  0  0  0  0  0  0  0
  136.5746  140.2137  160.6755 C   0  0  0  0  0  0  0  0  0  0  0  0
  136.3820  140.1293  159.3036 C   0  0  0  0  0  0  0  0  0  0  0  0
  135.2743  139.4931  158.7872 C   0  0  0  0  0  0  0  0  0  0  0  0
  134.3382  138.9289  159.6473 C   0  0  0  0  0  0  0  0  0  0  0  0
  133.1594  138.2455  159.4489 N   0  0  0  0  0  0  0  0  0  0  0  0
  132.7739  138.0389  158.5832 H   0  0  0  0  0  0  0  0  0  0  0  0
  132.6201  137.8885  160.6549 C   0  0  0  0  0  0  0  0  0  0  0  0
  131.3330  137.1259  160.8352 C   0  0  0  0  0  0  0  0  0  0  0  0
  131.2959  135.9986  159.8940 N   0  0  0  0  0  0  0  0  0  0  0  0
  131.3505  136.3476  158.9488 H   0  0  0  0  0  0  0  0  0  0  0  0
  132.0775  135.3859  160.0721 H   0  0  0  0  0  0  0  0  0  0  0  0
  130.0411  135.2551  160.0697 C   0  0  1  0  0  0  0  0  0  0  0  0
  129.7905  135.1761  161.1276 H   0  0  0  0  0  0  0  0  0  0  0  0
  128.8907  135.9402  159.2894 C   0  0  0  0  0  0  0  0  0  0  0  0
  128.4642  134.9049  158.2148 C   0  0  0  0  0  0  0  0  0  0  0  0
  129.6641  134.0711  158.0450 N   0  0  0  0  0  0  0  0  0  0  0  0
  129.4719  132.7773  157.4037 C   0  0  0  0  0  0  0  0  0  0  0  0
  130.8493  132.1104  157.2692 C   0  0  0  0  0  0  0  0  0  0  0  0
  131.5193  131.9738  158.6359 C   0  0  0  0  0  0  0  0  0  0  0  0
  131.5730  133.3331  159.3503 C   0  0  0  0  0  0  0  0  0  0  0  0
  130.1487  133.8639  159.4357 C   0  0  1  0  0  0  0  0  0  0  0  0
  133.4015  138.3284  161.6539 C   0  0  0  0  0  0  0  0  0  0  0  0
  134.5405  139.0128  161.0371 C   0  0  0  0  0  0  0  0  0  0  0  0
  136.4166  139.7111  165.6878 C   0  0  0  0  0  0  0  0  0  0  0  0
  136.6125  139.8202  167.0634 C   0  0  0  0  0  0  0  0  0  0  0  0
  137.3044  138.8705  167.7502 C   0  0  0  0  0  0  0  0  0  0  0  0
  137.8296  137.7615  167.0653 C   0  0  0  0  0  0  0  0  0  0  0  0
  138.5497  136.7608  167.7402 C   0  0  0  0  0  0  0  0  0  0  0  0
  139.5962  134.9333  167.5652 H   0  0  0  0  0  0  0  0  0  0  0  0
  139.2494  134.7399  165.1399 H   0  0  0  0  0  0  0  0  0  0  0  0
  138.0103  136.4426  163.9161 H   0  0  0  0  0  0  0  0  0  0  0  0
  137.6561  138.5368  162.9954 H   0  0  0  0  0  0  0  0  0  0  0  0
  136.1445  137.6395  163.2756 H   0  0  0  0  0  0  0  0  0  0  0  0
  134.9213  139.7807  163.5350 H   0  0  0  0  0  0  0  0  0  0  0  0
  136.4328  140.6782  163.2548 H   0  0  0  0  0  0  0  0  0  0  0  0
  137.4482  140.7158  161.0640 H   0  0  0  0  0  0  0  0  0  0  0  0
  137.1077  140.5671  158.6340 H   0  0  0  0  0  0  0  0  0  0  0  0
  135.1337  139.4324  157.7181 H   0  0  0  0  0  0  0  0  0  0  0  0
  131.2740  136.7489  161.8562 H   0  0  0  0  0  0  0  0  0  0  0  0
  130.4885  137.7877  160.6429 H   0  0  0  0  0  0  0  0  0  0  0  0
  128.0573  136.1587  159.9570 H   0  0  0  0  0  0  0  0  0  0  0  0
  129.2463  136.8555  158.8161 H   0  0  0  0  0  0  0  0  0  0  0  0
  127.6271  134.3046  158.5713 H   0  0  0  0  0  0  0  0  0  0  0  0
  128.2089  135.4047  157.2804 H   0  0  0  0  0  0  0  0  0  0  0  0
  128.8189  132.1554  158.0159 H   0  0  0  0  0  0  0  0  0  0  0  0
  129.0302  132.9166  156.4170 H   0  0  0  0  0  0  0  0  0  0  0  0
  130.7276  131.1211  156.8285 H   0  0  0  0  0  0  0  0  0  0  0  0
  131.4802  132.7175  156.6200 H   0  0  0  0  0  0  0  0  0  0  0  0
  130.9524  131.2698  159.2451 H   0  0  0  0  0  0  0  0  0  0  0  0
  132.5335  131.5973  158.5028 H   0  0  0  0  0  0  0  0  0  0  0  0
  131.9821  133.2081  160.3529 H   0  0  0  0  0  0  0  0  0  0  0  0
  132.1925  134.0260  158.7809 H   0  0  0  0  0  0  0  0  0  0  0  0
  129.5041  133.1588  159.9603 H   0  0  0  0  0  0  0  0  0  0  0  0
  133.2240  138.2020  162.7117 H   0  0  0  0  0  0  0  0  0  0  0  0
  135.8640  140.4788  165.1667 H   0  0  0  0  0  0  0  0  0  0  0  0
  136.2099  140.6715  167.5922 H   0  0  0  0  0  0  0  0  0  0  0  0
  137.4492  138.9689  168.8159 H   0  0  0  0  0  0  0  0  0  0  0  0
  138.7097  136.8327  168.8059 H   0  0  0  0  0  0  0  0  0  0  0  0
  1 36  2  0
  1  2  1  0
  1 37  1  0
  2  3  2  0
  2 38  1  0
  3  4  1  0
  3 39  1  0
  4 35  2  0
  4  5  1  0
  5  6  1  0
  5 32  2  0
  6  7  1  0
  6 40  1  0
  6 41  1  0
  7  8  1  0
  7 42  1  0
  7 43  1  0
  8 31  1  0
  8  9  2  0
  9 10  1  0
  9 44  1  0
 10 11  2  0
 10 45  1  0
 11 12  1  0
 11 46  1  0
 12 31  2  0
 12 13  1  0
 13 14  1  0
 13 15  1  0
 15 16  1  0
 15 30  2  0
 16 17  1  0
 16 47  1  0
 16 48  1  0
 17 18  1  0
 17 19  1  0
 17 20  1  0
 20 21  1  1
 20 29  1  0
 20 22  1  0
 22 23  1  0
 22 49  1  0
 22 50  1  0
 23 51  1  0
 23 52  1  0
 24 23  1  0
 24 29  1  0
 24 25  1  0
 25 26  1  0
 25 53  1  0
 25 54  1  0
 26 27  1  0
 26 55  1  0
 26 56  1  0
 27 28  1  0
 27 57  1  0
 27 58  1  0
 28 29  1  0
 28 59  1  0
 28 60  1  0
 29 61  1  1
 30 31  1  0
 30 62  1  0
 32 33  1  0
 32 63  1  0
 33 34  2  0
 33 64  1  0
 34 35  1  0
 34 65  1  0
 35 36  1  0
 36 66  1  0
M  CHG  1  17   1
M  END
>  <DOCK_score>  (1) 
-56.96917

>  <SMILES>  (1) 
c1ccc2c(CCc3cccc4[nH]c(C[NH2+][C@H]5CCN6CCCCC56)cc34)cccc2c1

$$$$
