C[C@@H](Cc1ccccc1Cl)NC(NC1CC1)=[NH+][C@H]1CCC(=O)NC1
     RDKit          3D

 50 52  0  0  1  0  0  0  0  0999 V2000
  131.0421  134.0918  162.2741 C   0  0  0  0  0  0  0  0  0  0  0  0
  131.5817  135.2751  161.4682 C   0  0  1  0  0  0  0  0  0  0  0  0
  131.1030  136.1939  161.8069 H   0  0  0  0  0  0  0  0  0  0  0  0
  133.0943  135.3833  161.6714 C   0  0  0  0  0  0  0  0  0  0  0  0
  133.5515  136.7732  161.3107 C   0  0  0  0  0  0  0  0  0  0  0  0
  133.9388  137.0591  160.0149 C   0  0  0  0  0  0  0  0  0  0  0  0
  134.3637  138.3324  159.6853 C   0  0  0  0  0  0  0  0  0  0  0  0
  134.3916  139.3235  160.6488 C   0  0  0  0  0  0  0  0  0  0  0  0
  134.0046  139.0390  161.9446 C   0  0  0  0  0  0  0  0  0  0  0  0
  133.5842  137.7631  162.2764 C   0  0  0  0  0  0  0  0  0  0  0  0
  133.0985  137.4047  163.9041 Cl  0  0  0  0  0  0  0  0  0  0  0  0
  131.2934  135.0697  160.0467 N   0  0  0  0  0  0  0  0  0  0  0  0
  129.9925  134.9431  159.6203 C   0  0  0  0  0  0  0  0  0  0  0  0
  129.7026  134.1783  158.5152 N   0  0  0  0  0  0  0  0  0  0  0  0
  130.7799  133.4985  157.7919 C   0  0  0  0  0  0  0  0  0  0  0  0
  130.3989  132.3010  156.9191 C   0  0  0  0  0  0  0  0  0  0  0  0
  131.1452  132.0811  158.2372 C   0  0  0  0  0  0  0  0  0  0  0  0
  129.0340  135.5480  160.2639 N   0  0  0  0  0  0  0  0  0  0  0  0
  129.2110  136.3826  160.7253 H   0  0  0  0  0  0  0  0  0  0  0  0
  127.6892  134.9673  160.2905 C   0  0  1  0  0  0  0  0  0  0  0  0
  127.3078  134.8814  159.2731 H   0  0  0  0  0  0  0  0  0  0  0  0
  127.7404  133.5807  160.9433 C   0  0  0  0  0  0  0  0  0  0  0  0
  126.3656  132.9246  160.7933 C   0  0  0  0  0  0  0  0  0  0  0  0
  125.2924  133.8830  161.2237 C   0  0  0  0  0  0  0  0  0  0  0  0
  124.1936  133.4374  161.4787 O   0  0  0  0  0  0  0  0  0  0  0  0
  125.4832  135.1975  161.3409 N   0  0  0  0  0  0  0  0  0  0  0  0
  126.7604  135.8615  161.1128 C   0  0  0  0  0  0  0  0  0  0  0  0
  131.5210  133.1730  161.9353 H   0  0  0  0  0  0  0  0  0  0  0  0
  131.2567  134.2445  163.3318 H   0  0  0  0  0  0  0  0  0  0  0  0
  129.9646  134.0146  162.1293 H   0  0  0  0  0  0  0  0  0  0  0  0
  133.5993  134.6577  161.0338 H   0  0  0  0  0  0  0  0  0  0  0  0
  133.3361  135.1806  162.7147 H   0  0  0  0  0  0  0  0  0  0  0  0
  133.9137  136.2863  159.2609 H   0  0  0  0  0  0  0  0  0  0  0  0
  134.6704  138.5541  158.6738 H   0  0  0  0  0  0  0  0  0  0  0  0
  134.7198  140.3193  160.3897 H   0  0  0  0  0  0  0  0  0  0  0  0
  134.0301  139.8124  162.6980 H   0  0  0  0  0  0  0  0  0  0  0  0
  132.0203  135.0230  159.4061 H   0  0  0  0  0  0  0  0  0  0  0  0
  128.7847  134.0890  158.2145 H   0  0  0  0  0  0  0  0  0  0  0  0
  131.5885  134.1399  157.4410 H   0  0  0  0  0  0  0  0  0  0  0  0
  129.3466  132.0190  156.8831 H   0  0  0  0  0  0  0  0  0  0  0  0
  130.9570  132.1543  155.9942 H   0  0  0  0  0  0  0  0  0  0  0  0
  132.1940  131.7899  158.1792 H   0  0  0  0  0  0  0  0  0  0  0  0
  130.5840  131.6545  159.0685 H   0  0  0  0  0  0  0  0  0  0  0  0
  128.4947  132.9694  160.4477 H   0  0  0  0  0  0  0  0  0  0  0  0
  127.9859  133.6816  162.0005 H   0  0  0  0  0  0  0  0  0  0  0  0
  126.3218  132.0295  161.4138 H   0  0  0  0  0  0  0  0  0  0  0  0
  126.2087  132.6500  159.7502 H   0  0  0  0  0  0  0  0  0  0  0  0
  124.7243  135.7463  161.5937 H   0  0  0  0  0  0  0  0  0  0  0  0
  127.2286  136.0817  162.0722 H   0  0  0  0  0  0  0  0  0  0  0  0
  126.5875  136.7932  160.5741 H   0  0  0  0  0  0  0  0  0  0  0  0
  1  2  1  0
  1 28  1  0
  1 29  1  0
  1 30  1  0
  2  3  1  1
  2  4  1  0
  2 12  1  0
  4  5  1  0
  4 31  1  0
  4 32  1  0
  5 10  1  0
  5  6  2  0
  6  7  1  0
  6 33  1  0
  7  8  2  0
  7 34  1  0
  8  9  1  0
  8 35  1  0
  9 10  2  0
  9 36  1  0
 10 11  1  0
 12 37  1  0
 13 12  1  0
 13 14  1  0
 13 18  2  0
 14 15  1  0
 14 38  1  0
 15 17  1  0
 15 16  1  0
 15 39  1  0
 16 17  1  0
 16 40  1  0
 16 41  1  0
 17 42  1  0
 17 43  1  0
 18 19  1  0
 18 20  1  0
 20 21  1  6
 20 27  1  0
 20 22  1  0
 22 23  1  0
 22 44  1  0
 22 45  1  0
 23 24  1  0
 23 46  1  0
 23 47  1  0
 24 25  2  0
 24 26  1  0
 26 27  1  0
 26 48  1  0
 27 49  1  0
 27 50  1  0
M  CHG  1  18   1
M  END
>  <DOCK_score>  (1) 
-46.08588

>  <SMILES>  (1) 
C[C@@H](Cc1ccccc1Cl)NC(NC1CC1)=[NH+][C@H]1CCC(=O)NC1

$$$$
