C[C@@H](Cc1ccccc1-c1ccc(N)cc1)Nc1[nH]cc(-c2ccc(C(F)(F)F)cc2)[nH+]1
     RDKit          3D

 56 59  0  0  1  0  0  0  0  0999 V2000
  130.6122  136.7538  161.2926 C   0  0  0  0  0  0  0  0  0  0  0  0
  129.7014  135.8107  160.5042 C   0  0  1  0  0  0  0  0  0  0  0  0
  129.5711  134.8823  161.0603 H   0  0  0  0  0  0  0  0  0  0  0  0
  128.3391  136.4747  160.2937 C   0  0  0  0  0  0  0  0  0  0  0  0
  127.7142  136.7741  161.6320 C   0  0  0  0  0  0  0  0  0  0  0  0
  127.9458  137.9880  162.2472 C   0  0  0  0  0  0  0  0  0  0  0  0
  127.3726  138.2643  163.4751 C   0  0  0  0  0  0  0  0  0  0  0  0
  126.5640  137.3274  164.0935 C   0  0  0  0  0  0  0  0  0  0  0  0
  126.3257  136.1107  163.4877 C   0  0  0  0  0  0  0  0  0  0  0  0
  126.8968  135.8286  162.2480 C   0  0  0  0  0  0  0  0  0  0  0  0
  126.6393  134.5248  161.5890 C   0  0  0  0  0  0  0  0  0  0  0  0
  125.5521  134.3804  160.7284 C   0  0  0  0  0  0  0  0  0  0  0  0
  125.3176  133.1694  160.1127 C   0  0  0  0  0  0  0  0  0  0  0  0
  126.1579  132.0896  160.3582 C   0  0  0  0  0  0  0  0  0  0  0  0
  125.9157  130.8630  159.7381 N   0  0  0  0  0  0  0  0  0  0  0  0
  127.2396  132.2299  161.2203 C   0  0  0  0  0  0  0  0  0  0  0  0
  127.4807  133.4406  161.8337 C   0  0  0  0  0  0  0  0  0  0  0  0
  130.3089  135.5195  159.2033 N   0  0  0  0  0  0  0  0  0  0  0  0
  130.0712  134.3040  158.5847 C   0  0  0  0  0  0  0  0  0  0  0  0
  129.2999  133.2990  159.0820 N   0  0  0  0  0  0  0  0  0  0  0  0
  128.8223  133.3053  159.9263 H   0  0  0  0  0  0  0  0  0  0  0  0
  129.3230  132.2739  158.1679 C   0  0  0  0  0  0  0  0  0  0  0  0
  130.1069  132.6815  157.1392 C   0  0  0  0  0  0  0  0  0  0  0  0
  130.4231  131.8991  155.9193 C   0  0  0  0  0  0  0  0  0  0  0  0
  130.0741  132.3911  154.6628 C   0  0  0  0  0  0  0  0  0  0  0  0
  130.3712  131.6591  153.5313 C   0  0  0  0  0  0  0  0  0  0  0  0
  131.0142  130.4388  153.6427 C   0  0  0  0  0  0  0  0  0  0  0  0
  131.3359  129.6441  152.4033 C   0  0  0  0  0  0  0  0  0  0  0  0
  130.8901  130.3407  151.2742 F   0  0  0  0  0  0  0  0  0  0  0  0
  132.7191  129.4541  152.3171 F   0  0  0  0  0  0  0  0  0  0  0  0
  130.6967  128.4017  152.4669 F   0  0  0  0  0  0  0  0  0  0  0  0
  131.3576  129.9434  154.8872 C   0  0  0  0  0  0  0  0  0  0  0  0
  131.0706  130.6695  156.0252 C   0  0  0  0  0  0  0  0  0  0  0  0
  130.5558  133.9293  157.4260 N   0  0  0  0  0  0  0  0  0  0  0  0
  131.1403  134.4602  156.8626 H   0  0  0  0  0  0  0  0  0  0  0  0
  130.1602  136.9705  162.2606 H   0  0  0  0  0  0  0  0  0  0  0  0
  131.5826  136.2809  161.4426 H   0  0  0  0  0  0  0  0  0  0  0  0
  130.7425  137.6822  160.7366 H   0  0  0  0  0  0  0  0  0  0  0  0
  128.4696  137.4032  159.7377 H   0  0  0  0  0  0  0  0  0  0  0  0
  127.6903  135.8028  159.7320 H   0  0  0  0  0  0  0  0  0  0  0  0
  128.5756  138.7233  161.7685 H   0  0  0  0  0  0  0  0  0  0  0  0
  127.5565  139.2153  163.9528 H   0  0  0  0  0  0  0  0  0  0  0  0
  126.1189  137.5485  165.0524 H   0  0  0  0  0  0  0  0  0  0  0  0
  125.6940  135.3801  163.9713 H   0  0  0  0  0  0  0  0  0  0  0  0
  124.8965  135.2178  160.5407 H   0  0  0  0  0  0  0  0  0  0  0  0
  124.4779  133.0584  159.4426 H   0  0  0  0  0  0  0  0  0  0  0  0
  126.5019  130.1092  159.9088 H   0  0  0  0  0  0  0  0  0  0  0  0
  125.1612  130.7643  159.1365 H   0  0  0  0  0  0  0  0  0  0  0  0
  127.8914  131.3899  161.4096 H   0  0  0  0  0  0  0  0  0  0  0  0
  128.3211  133.5493  162.5033 H   0  0  0  0  0  0  0  0  0  0  0  0
  130.8778  136.1784  158.7753 H   0  0  0  0  0  0  0  0  0  0  0  0
  128.8140  131.3251  158.2521 H   0  0  0  0  0  0  0  0  0  0  0  0
  129.5725  133.3435  154.5748 H   0  0  0  0  0  0  0  0  0  0  0  0
  130.1017  132.0396  152.5570 H   0  0  0  0  0  0  0  0  0  0  0  0
  131.8550  128.9882  154.9684 H   0  0  0  0  0  0  0  0  0  0  0  0
  131.3430  130.2833  156.9964 H   0  0  0  0  0  0  0  0  0  0  0  0
  1  2  1  0
  1 36  1  0
  1 37  1  0
  1 38  1  0
  2  3  1  1
  2  4  1  0
  2 18  1  0
  4  5  1  0
  4 39  1  0
  4 40  1  0
  5 10  1  0
  5  6  2  0
  6  7  1  0
  6 41  1  0
  7  8  2  0
  7 42  1  0
  8  9  1  0
  8 43  1  0
  9 10  2  0
  9 44  1  0
 10 11  1  0
 11 17  1  0
 11 12  2  0
 12 13  1  0
 12 45  1  0
 13 14  2  0
 13 46  1  0
 14 15  1  0
 14 16  1  0
 15 47  1  0
 15 48  1  0
 16 17  2  0
 16 49  1  0
 17 50  1  0
 18 51  1  0
 19 18  1  0
 19 34  2  0
 19 20  1  0
 20 21  1  0
 20 22  1  0
 22 23  2  0
 22 52  1  0
 23 24  1  0
 23 34  1  0
 24 33  1  0
 24 25  2  0
 25 26  1  0
 25 53  1  0
 26 27  2  0
 26 54  1  0
 27 28  1  0
 27 32  1  0
 28 29  1  0
 28 30  1  0
 28 31  1  0
 32 33  2  0
 32 55  1  0
 33 56  1  0
 34 35  1  0
M  CHG  1  34   1
M  END
>  <DOCK_score>  (1) 
-58.948059

>  <SMILES>  (1) 
C[C@@H](Cc1ccccc1-c1ccc(N)cc1)Nc1[nH]cc(-c2ccc(C(F)(F)F)cc2)[nH+]1

$$$$
