CC=C[C@@H](Nc1[nH]cc(-c2ccc(-c3ccccc3F)cc2)[nH+]1)c1ccccc1
     RDKit          3D

 52 55  0  0  1  0  0  0  0  0999 V2000
  127.8504  136.0743  161.1778 C   0  0  0  0  0  0  0  0  0  0  0  0
  129.3071  136.1457  160.7983 C   0  0  0  0  0  0  0  0  0  0  0  0
  130.2269  135.7891  161.6603 C   0  0  0  0  0  0  0  0  0  0  0  0
  131.6835  135.8604  161.2806 C   0  0  1  0  0  0  0  0  0  0  0  0
  132.2374  135.0912  161.8190 H   0  0  0  0  0  0  0  0  0  0  0  0
  131.8235  135.6441  159.8385 N   0  0  0  0  0  0  0  0  0  0  0  0
  131.3877  134.4591  159.2708 C   0  0  0  0  0  0  0  0  0  0  0  0
  130.8143  133.4228  159.9414 N   0  0  0  0  0  0  0  0  0  0  0  0
  130.6362  133.3833  160.8941 H   0  0  0  0  0  0  0  0  0  0  0  0
  130.5287  132.4456  159.0192 C   0  0  0  0  0  0  0  0  0  0  0  0
  130.9357  132.9126  157.8122 C   0  0  0  0  0  0  0  0  0  0  0  0
  130.8274  132.1971  156.5183 C   0  0  0  0  0  0  0  0  0  0  0  0
  130.0837  132.7501  155.4757 C   0  0  0  0  0  0  0  0  0  0  0  0
  129.9871  132.0876  154.2719 C   0  0  0  0  0  0  0  0  0  0  0  0
  130.6245  130.8594  154.0988 C   0  0  0  0  0  0  0  0  0  0  0  0
  130.5161  130.1439  152.8045 C   0  0  0  0  0  0  0  0  0  0  0  0
  130.5728  128.7520  152.7677 C   0  0  0  0  0  0  0  0  0  0  0  0
  130.4662  128.0909  151.5611 C   0  0  0  0  0  0  0  0  0  0  0  0
  130.3138  128.8062  150.3871 C   0  0  0  0  0  0  0  0  0  0  0  0
  130.2638  130.1882  150.4140 C   0  0  0  0  0  0  0  0  0  0  0  0
  130.3636  130.8620  151.6172 C   0  0  0  0  0  0  0  0  0  0  0  0
  130.3137  132.2119  151.6437 F   0  0  0  0  0  0  0  0  0  0  0  0
  131.3633  130.3036  155.1431 C   0  0  0  0  0  0  0  0  0  0  0  0
  131.4644  130.9683  156.3452 C   0  0  0  0  0  0  0  0  0  0  0  0
  131.4586  134.1507  157.9990 N   0  0  0  0  0  0  0  0  0  0  0  0
  131.8259  134.7171  157.3025 H   0  0  0  0  0  0  0  0  0  0  0  0
  132.2305  137.2178  161.6405 C   0  0  0  0  0  0  0  0  0  0  0  0
  132.1839  138.2480  160.7198 C   0  0  0  0  0  0  0  0  0  0  0  0
  132.6821  139.4941  161.0512 C   0  0  0  0  0  0  0  0  0  0  0  0
  133.2340  139.7079  162.3008 C   0  0  0  0  0  0  0  0  0  0  0  0
  133.2854  138.6763  163.2191 C   0  0  0  0  0  0  0  0  0  0  0  0
  132.7839  137.4313  162.8891 C   0  0  0  0  0  0  0  0  0  0  0  0
  127.2396  136.4082  160.3390 H   0  0  0  0  0  0  0  0  0  0  0  0
  127.5906  135.0462  161.4299 H   0  0  0  0  0  0  0  0  0  0  0  0
  127.6675  136.7169  162.0390 H   0  0  0  0  0  0  0  0  0  0  0  0
  129.5928  136.4906  159.8155 H   0  0  0  0  0  0  0  0  0  0  0  0
  129.9411  135.4440  162.6430 H   0  0  0  0  0  0  0  0  0  0  0  0
  132.2217  136.3312  159.2814 H   0  0  0  0  0  0  0  0  0  0  0  0
  130.0682  131.4890  159.2172 H   0  0  0  0  0  0  0  0  0  0  0  0
  129.5868  133.6993  155.6111 H   0  0  0  0  0  0  0  0  0  0  0  0
  129.4144  132.5175  153.4635 H   0  0  0  0  0  0  0  0  0  0  0  0
  130.6951  128.1913  153.6825 H   0  0  0  0  0  0  0  0  0  0  0  0
  130.5050  127.0119  151.5329 H   0  0  0  0  0  0  0  0  0  0  0  0
  130.2369  128.2844  149.4447 H   0  0  0  0  0  0  0  0  0  0  0  0
  130.1458  130.7417  149.4942 H   0  0  0  0  0  0  0  0  0  0  0  0
  131.8565  129.3520  155.0091 H   0  0  0  0  0  0  0  0  0  0  0  0
  132.0366  130.5380  157.1538 H   0  0  0  0  0  0  0  0  0  0  0  0
  131.7557  138.0799  159.7427 H   0  0  0  0  0  0  0  0  0  0  0  0
  132.6424  140.2999  160.3333 H   0  0  0  0  0  0  0  0  0  0  0  0
  133.6260  140.6807  162.5583 H   0  0  0  0  0  0  0  0  0  0  0  0
  133.7171  138.8433  164.1950 H   0  0  0  0  0  0  0  0  0  0  0  0
  132.8239  136.6253  163.6070 H   0  0  0  0  0  0  0  0  0  0  0  0
  1  2  1  0
  1 33  1  0
  1 34  1  0
  1 35  1  0
  2  3  2  0
  2 36  1  0
  3  4  1  0
  3 37  1  0
  4  5  1  1
  4  6  1  0
  4 27  1  0
  6 38  1  0
  7  6  1  0
  7 25  2  0
  7  8  1  0
  8  9  1  0
  8 10  1  0
 10 11  2  0
 10 39  1  0
 11 12  1  0
 11 25  1  0
 12 24  1  0
 12 13  2  0
 13 14  1  0
 13 40  1  0
 14 15  2  0
 14 41  1  0
 15 16  1  0
 15 23  1  0
 16 21  1  0
 16 17  2  0
 17 18  1  0
 17 42  1  0
 18 19  2  0
 18 43  1  0
 19 20  1  0
 19 44  1  0
 20 21  2  0
 20 45  1  0
 21 22  1  0
 23 24  2  0
 23 46  1  0
 24 47  1  0
 25 26  1  0
 27 32  1  0
 27 28  2  0
 28 29  1  0
 28 48  1  0
 29 30  2  0
 29 49  1  0
 30 31  1  0
 30 50  1  0
 31 32  2  0
 31 51  1  0
 32 52  1  0
M  CHG  1  25   1
M  END
>  <DOCK_score>  (1) 
-59.331871

>  <SMILES>  (1) 
CC=C[C@@H](Nc1[nH]cc(-c2ccc(-c3ccccc3F)cc2)[nH+]1)c1ccccc1

$$$$
