Brc1ccc(-c2c[nH]c(NC(Cc3ccccc3)Cc3ccccc3)[nH+]2)cc1
     RDKit          3D

 51 54  0  0  1  0  0  0  0  0999 V2000
  131.5080  129.5337  152.3293 Br  0  0  0  0  0  0  0  0  0  0  0  0
  131.0756  130.5144  153.8873 C   0  0  0  0  0  0  0  0  0  0  0  0
  130.3916  131.7129  153.7801 C   0  0  0  0  0  0  0  0  0  0  0  0
  130.0682  132.4293  154.9144 C   0  0  0  0  0  0  0  0  0  0  0  0
  130.4366  131.9468  156.1689 C   0  0  0  0  0  0  0  0  0  0  0  0
  130.0920  132.7130  157.3914 C   0  0  0  0  0  0  0  0  0  0  0  0
  129.3195  132.2752  158.4164 C   0  0  0  0  0  0  0  0  0  0  0  0
  129.2626  133.2941  159.3362 N   0  0  0  0  0  0  0  0  0  0  0  0
  128.7852  133.2801  160.1805 H   0  0  0  0  0  0  0  0  0  0  0  0
  129.9949  134.3291  158.8415 C   0  0  0  0  0  0  0  0  0  0  0  0
  130.1861  135.5512  159.4630 N   0  0  0  0  0  0  0  0  0  0  0  0
  129.5730  135.8135  160.7675 C   0  0  0  0  0  0  0  0  0  0  0  0
  130.4483  136.7903  161.5553 C   0  0  0  0  0  0  0  0  0  0  0  0
  131.8163  136.1902  161.7548 C   0  0  0  0  0  0  0  0  0  0  0  0
  132.9247  137.0113  161.8456 C   0  0  0  0  0  0  0  0  0  0  0  0
  134.1788  136.4612  162.0333 C   0  0  0  0  0  0  0  0  0  0  0  0
  134.3259  135.0893  162.1196 C   0  0  0  0  0  0  0  0  0  0  0  0
  133.2182  134.2680  162.0235 C   0  0  0  0  0  0  0  0  0  0  0  0
  131.9633  134.8184  161.8410 C   0  0  0  0  0  0  0  0  0  0  0  0
  128.1842  136.4227  160.5650 C   0  0  0  0  0  0  0  0  0  0  0  0
  127.3690  136.2432  161.8196 C   0  0  0  0  0  0  0  0  0  0  0  0
  126.5898  135.1129  161.9818 C   0  0  0  0  0  0  0  0  0  0  0  0
  125.8458  134.9459  163.1348 C   0  0  0  0  0  0  0  0  0  0  0  0
  125.8728  135.9142  164.1211 C   0  0  0  0  0  0  0  0  0  0  0  0
  126.6479  137.0469  163.9566 C   0  0  0  0  0  0  0  0  0  0  0  0
  127.3960  137.2114  162.8059 C   0  0  0  0  0  0  0  0  0  0  0  0
  130.4889  133.9781  157.6793 N   0  0  0  0  0  0  0  0  0  0  0  0
  131.0486  134.5341  157.1150 H   0  0  0  0  0  0  0  0  0  0  0  0
  131.1303  130.7423  156.2709 C   0  0  0  0  0  0  0  0  0  0  0  0
  131.4488  130.0336  155.1304 C   0  0  0  0  0  0  0  0  0  0  0  0
  130.1066  132.0858  152.8074 H   0  0  0  0  0  0  0  0  0  0  0  0
  129.5303  133.3620  154.8299 H   0  0  0  0  0  0  0  0  0  0  0  0
  128.8428  131.3094  158.4957 H   0  0  0  0  0  0  0  0  0  0  0  0
  130.7261  136.2339  159.0350 H   0  0  0  0  0  0  0  0  0  0  0  0
  129.4825  134.8788  161.3211 H   0  0  0  0  0  0  0  0  0  0  0  0
  130.5387  137.7248  161.0018 H   0  0  0  0  0  0  0  0  0  0  0  0
  129.9922  136.9854  162.5258 H   0  0  0  0  0  0  0  0  0  0  0  0
  132.8102  138.0828  161.7738 H   0  0  0  0  0  0  0  0  0  0  0  0
  135.0443  137.1028  162.1081 H   0  0  0  0  0  0  0  0  0  0  0  0
  135.3063  134.6593  162.2619 H   0  0  0  0  0  0  0  0  0  0  0  0
  133.3331  133.1961  162.0905 H   0  0  0  0  0  0  0  0  0  0  0  0
  131.0979  134.1767  161.7655 H   0  0  0  0  0  0  0  0  0  0  0  0
  128.2824  137.4856  160.3444 H   0  0  0  0  0  0  0  0  0  0  0  0
  127.6862  135.9236  159.7336 H   0  0  0  0  0  0  0  0  0  0  0  0
  126.5652  134.3586  161.2092 H   0  0  0  0  0  0  0  0  0  0  0  0
  125.2399  134.0611  163.2632 H   0  0  0  0  0  0  0  0  0  0  0  0
  125.2880  135.7858  165.0199 H   0  0  0  0  0  0  0  0  0  0  0  0
  126.6687  137.8035  164.7270 H   0  0  0  0  0  0  0  0  0  0  0  0
  128.0012  138.0965  162.6773 H   0  0  0  0  0  0  0  0  0  0  0  0
  131.4183  130.3642  157.2407 H   0  0  0  0  0  0  0  0  0  0  0  0
  131.9860  129.0999  155.2084 H   0  0  0  0  0  0  0  0  0  0  0  0
  1  2  1  0
  2 30  2  0
  2  3  1  0
  3  4  2  0
  3 31  1  0
  4  5  1  0
  4 32  1  0
  5  6  1  0
  5 29  2  0
  6 27  1  0
  6  7  2  0
  7  8  1  0
  7 33  1  0
  8  9  1  0
  8 10  1  0
 10 11  1  0
 10 27  2  0
 11 12  1  0
 11 34  1  0
 12 13  1  0
 12 20  1  0
 12 35  1  0
 13 14  1  0
 13 36  1  0
 13 37  1  0
 14 19  1  0
 14 15  2  0
 15 16  1  0
 15 38  1  0
 16 17  2  0
 16 39  1  0
 17 18  1  0
 17 40  1  0
 18 19  2  0
 18 41  1  0
 19 42  1  0
 20 21  1  0
 20 43  1  0
 20 44  1  0
 21 26  1  0
 21 22  2  0
 22 23  1  0
 22 45  1  0
 23 24  2  0
 23 46  1  0
 24 25  1  0
 24 47  1  0
 25 26  2  0
 25 48  1  0
 26 49  1  0
 27 28  1  0
 29 30  1  0
 29 50  1  0
 30 51  1  0
M  CHG  1  27   1
M  END
>  <DOCK_score>  (1) 
-56.060471

>  <SMILES>  (1) 
Brc1ccc(-c2c[nH]c(NC(Cc3ccccc3)Cc3ccccc3)[nH+]2)cc1

$$$$
