Clc1c(N[C@H]2CCC=C2[NH2+]C2CC=CCC2)ccc(-c2cnn(-c3ccccc3)c2)c1Cl
     RDKit          3D

 59 63  0  0  1  0  0  0  0  0999 V2000
  134.2554  138.2199  159.6263 Cl  0  0  0  0  0  0  0  0  0  0  0  0
  134.4068  137.2532  161.0603 C   0  0  0  0  0  0  0  0  0  0  0  0
  133.4871  136.2423  161.3175 C   0  0  0  0  0  0  0  0  0  0  0  0
  132.4414  136.0054  160.4207 N   0  0  0  0  0  0  0  0  0  0  0  0
  131.1641  135.4787  160.9078 C   0  0  1  0  0  0  0  0  0  0  0  0
  131.3112  134.5104  161.3864 H   0  0  0  0  0  0  0  0  0  0  0  0
  130.5122  136.4743  161.8953 C   0  0  0  0  0  0  0  0  0  0  0  0
  129.0132  136.3137  161.5437 C   0  0  0  0  0  0  0  0  0  0  0  0
  129.0031  135.8144  160.1176 C   0  0  0  0  0  0  0  0  0  0  0  0
  130.1761  135.3591  159.7708 C   0  0  0  0  0  0  0  0  0  0  0  0
  130.4790  134.8304  158.5125 N   0  0  0  0  0  0  0  0  0  0  0  0
  129.8993  135.2713  157.8141 H   0  0  0  0  0  0  0  0  0  0  0  0
  131.4504  135.0021  158.3004 H   0  0  0  0  0  0  0  0  0  0  0  0
  130.2266  133.3832  158.5157 C   0  0  1  0  0  0  0  0  0  0  0  0
  130.0937  132.8809  157.0765 C   0  0  0  0  0  0  0  0  0  0  0  0
  130.1013  131.3805  157.0498 C   0  0  0  0  0  0  0  0  0  0  0  0
  130.5160  130.6400  158.0271 C   0  0  0  0  0  0  0  0  0  0  0  0
  131.0373  131.1780  159.3273 C   0  0  0  0  0  0  0  0  0  0  0  0
  131.4045  132.6560  159.1766 C   0  0  0  0  0  0  0  0  0  0  0  0
  133.6061  135.4679  162.4645 C   0  0  0  0  0  0  0  0  0  0  0  0
  134.6371  135.6998  163.3516 C   0  0  0  0  0  0  0  0  0  0  0  0
  135.5601  136.7114  163.0972 C   0  0  0  0  0  0  0  0  0  0  0  0
  136.6699  136.9625  164.0513 C   0  0  0  0  0  0  0  0  0  0  0  0
  138.0471  136.8812  163.7660 C   0  0  0  0  0  0  0  0  0  0  0  0
  138.7067  137.1759  164.8554 N   0  0  0  0  0  0  0  0  0  0  0  0
  137.7852  137.4492  165.8736 N   0  0  0  0  0  0  0  0  0  0  0  0
  138.0988  137.8046  167.1925 C   0  0  0  0  0  0  0  0  0  0  0  0
  137.2378  137.4654  168.2278 C   0  0  0  0  0  0  0  0  0  0  0  0
  137.5521  137.8125  169.5272 C   0  0  0  0  0  0  0  0  0  0  0  0
  138.7176  138.5071  169.7961 C   0  0  0  0  0  0  0  0  0  0  0  0
  139.5740  138.8509  168.7668 C   0  0  0  0  0  0  0  0  0  0  0  0
  139.2680  138.5016  167.4659 C   0  0  0  0  0  0  0  0  0  0  0  0
  136.5408  137.3099  165.3642 C   0  0  0  0  0  0  0  0  0  0  0  0
  135.4370  137.4922  161.9481 C   0  0  0  0  0  0  0  0  0  0  0  0
  136.5816  138.7582  161.6310 Cl  0  0  0  0  0  0  0  0  0  0  0  0
  132.5614  136.1898  159.4761 H   0  0  0  0  0  0  0  0  0  0  0  0
  130.7068  136.1851  162.9280 H   0  0  0  0  0  0  0  0  0  0  0  0
  130.8514  137.4925  161.7052 H   0  0  0  0  0  0  0  0  0  0  0  0
  128.5009  137.2734  161.6136 H   0  0  0  0  0  0  0  0  0  0  0  0
  128.5440  135.5847  162.2045 H   0  0  0  0  0  0  0  0  0  0  0  0
  128.1389  135.8323  159.4700 H   0  0  0  0  0  0  0  0  0  0  0  0
  129.3081  133.1728  159.0636 H   0  0  0  0  0  0  0  0  0  0  0  0
  129.1582  133.2451  156.6516 H   0  0  0  0  0  0  0  0  0  0  0  0
  130.9291  133.2550  156.4846 H   0  0  0  0  0  0  0  0  0  0  0  0
  129.7377  130.8880  156.1602 H   0  0  0  0  0  0  0  0  0  0  0  0
  130.4845  129.5680  157.8989 H   0  0  0  0  0  0  0  0  0  0  0  0
  130.2712  131.0723  160.0953 H   0  0  0  0  0  0  0  0  0  0  0  0
  131.9224  130.6144  159.6228 H   0  0  0  0  0  0  0  0  0  0  0  0
  132.2918  132.7515  158.5506 H   0  0  0  0  0  0  0  0  0  0  0  0
  131.5973  133.0877  160.1587 H   0  0  0  0  0  0  0  0  0  0  0  0
  132.8905  134.6835  162.6623 H   0  0  0  0  0  0  0  0  0  0  0  0
  134.7282  135.0973  164.2432 H   0  0  0  0  0  0  0  0  0  0  0  0
  138.4823  136.6245  162.8116 H   0  0  0  0  0  0  0  0  0  0  0  0
  136.3255  136.9270  168.0177 H   0  0  0  0  0  0  0  0  0  0  0  0
  136.8851  137.5451  170.3334 H   0  0  0  0  0  0  0  0  0  0  0  0
  138.9592  138.7814  170.8123 H   0  0  0  0  0  0  0  0  0  0  0  0
  140.4835  139.3927  168.9802 H   0  0  0  0  0  0  0  0  0  0  0  0
  139.9378  138.7701  166.6624 H   0  0  0  0  0  0  0  0  0  0  0  0
  135.6130  137.4526  165.8983 H   0  0  0  0  0  0  0  0  0  0  0  0
  1  2  1  0
  2 34  2  0
  2  3  1  0
  3  4  1  0
  3 20  2  0
  4  5  1  0
  4 36  1  0
  5  6  1  1
  5 10  1  0
  5  7  1  0
  7  8  1  0
  7 37  1  0
  7 38  1  0
  8  9  1  0
  8 39  1  0
  8 40  1  0
  9 10  2  0
  9 41  1  0
 10 11  1  0
 11 12  1  0
 11 13  1  0
 11 14  1  0
 14 19  1  0
 14 15  1  0
 14 42  1  1
 15 16  1  0
 15 43  1  0
 15 44  1  0
 16 17  2  0
 16 45  1  0
 17 18  1  0
 17 46  1  0
 18 19  1  0
 18 47  1  0
 18 48  1  0
 19 49  1  0
 19 50  1  0
 20 21  1  0
 20 51  1  0
 21 22  2  0
 21 52  1  0
 22 23  1  0
 22 34  1  0
 23 33  2  0
 23 24  1  0
 24 25  2  0
 24 53  1  0
 25 26  1  0
 26 27  1  0
 26 33  1  0
 27 32  1  0
 27 28  2  0
 28 29  1  0
 28 54  1  0
 29 30  2  0
 29 55  1  0
 30 31  1  0
 30 56  1  0
 31 32  2  0
 31 57  1  0
 32 58  1  0
 33 59  1  0
 34 35  1  0
M  CHG  1  11   1
M  END
>  <DOCK_score>  (1) 
-56.441635

>  <SMILES>  (1) 
Clc1c(N[C@H]2CCC=C2[NH2+]C2CC=CCC2)ccc(-c2cnn(-c3ccccc3)c2)c1Cl

$$$$
