CCc1ccc(-c2c[nH]c(N[C@H](C)CSc3ccccc3)[nH+]2)cc1
     RDKit          3D

 48 50  0  0  1  0  0  0  0  0999 V2000
  130.2324  128.7685  151.6594 C   0  0  0  0  0  0  0  0  0  0  0  0
  131.4124  129.6734  152.0191 C   0  0  0  0  0  0  0  0  0  0  0  0
  131.0998  130.4269  153.2863 C   0  0  0  0  0  0  0  0  0  0  0  0
  131.4406  129.8847  154.5118 C   0  0  0  0  0  0  0  0  0  0  0  0
  131.1620  130.5727  155.6754 C   0  0  0  0  0  0  0  0  0  0  0  0
  130.5255  131.8111  155.6141 C   0  0  0  0  0  0  0  0  0  0  0  0
  130.2183  132.5528  156.8614 C   0  0  0  0  0  0  0  0  0  0  0  0
  129.4371  132.1137  157.8792 C   0  0  0  0  0  0  0  0  0  0  0  0
  129.4221  133.1075  158.8275 N   0  0  0  0  0  0  0  0  0  0  0  0
  128.9477  133.0873  159.6733 H   0  0  0  0  0  0  0  0  0  0  0  0
  130.1954  134.1256  158.3611 C   0  0  0  0  0  0  0  0  0  0  0  0
  130.4406  135.3186  159.0192 N   0  0  0  0  0  0  0  0  0  0  0  0
  129.8446  135.5656  160.3345 C   0  0  2  0  0  0  0  0  0  0  0  0
  129.8799  134.6513  160.9268 H   0  0  0  0  0  0  0  0  0  0  0  0
  128.3893  136.0049  160.1605 C   0  0  0  0  0  0  0  0  0  0  0  0
  130.6279  136.6678  161.0504 C   0  0  0  0  0  0  0  0  0  0  0  0
  131.0777  137.9606  159.8601 S   0  0  0  0  0  0  0  0  0  0  0  0
  132.5871  138.5930  160.5134 C   0  0  0  0  0  0  0  0  0  0  0  0
  132.6854  139.9334  160.8674 C   0  0  0  0  0  0  0  0  0  0  0  0
  133.8684  140.4242  161.3835 C   0  0  0  0  0  0  0  0  0  0  0  0
  134.9574  139.5860  161.5395 C   0  0  0  0  0  0  0  0  0  0  0  0
  134.8649  138.2530  161.1829 C   0  0  0  0  0  0  0  0  0  0  0  0
  133.6837  137.7540  160.6706 C   0  0  0  0  0  0  0  0  0  0  0  0
  130.6741  133.7880  157.1886 N   0  0  0  0  0  0  0  0  0  0  0  0
  131.2589  134.3351  156.6411 H   0  0  0  0  0  0  0  0  0  0  0  0
  130.1791  132.3503  154.3764 C   0  0  0  0  0  0  0  0  0  0  0  0
  130.4678  131.6560  153.2191 C   0  0  0  0  0  0  0  0  0  0  0  0
  130.0582  128.0603  152.4695 H   0  0  0  0  0  0  0  0  0  0  0  0
  129.3401  129.3764  151.5101 H   0  0  0  0  0  0  0  0  0  0  0  0
  130.4584  128.2237  150.7429 H   0  0  0  0  0  0  0  0  0  0  0  0
  132.3045  129.0661  152.1680 H   0  0  0  0  0  0  0  0  0  0  0  0
  131.5865  130.3822  151.2086 H   0  0  0  0  0  0  0  0  0  0  0  0
  131.9295  128.9229  154.5584 H   0  0  0  0  0  0  0  0  0  0  0  0
  131.4328  130.1504  156.6318 H   0  0  0  0  0  0  0  0  0  0  0  0
  128.9245  131.1647  157.9336 H   0  0  0  0  0  0  0  0  0  0  0  0
  131.0073  135.9909  158.6095 H   0  0  0  0  0  0  0  0  0  0  0  0
  128.3542  136.9193  159.5681 H   0  0  0  0  0  0  0  0  0  0  0  0
  127.8313  135.2197  159.6505 H   0  0  0  0  0  0  0  0  0  0  0  0
  127.9459  136.1887  161.1391 H   0  0  0  0  0  0  0  0  0  0  0  0
  130.0108  137.0986  161.8390 H   0  0  0  0  0  0  0  0  0  0  0  0
  131.5328  136.2453  161.4873 H   0  0  0  0  0  0  0  0  0  0  0  0
  131.8366  140.5893  160.7424 H   0  0  0  0  0  0  0  0  0  0  0  0
  133.9444  141.4649  161.6625 H   0  0  0  0  0  0  0  0  0  0  0  0
  135.8826  139.9733  161.9400 H   0  0  0  0  0  0  0  0  0  0  0  0
  135.7175  137.6015  161.3055 H   0  0  0  0  0  0  0  0  0  0  0  0
  133.6123  136.7130  160.3921 H   0  0  0  0  0  0  0  0  0  0  0  0
  129.6856  133.3095  154.3230 H   0  0  0  0  0  0  0  0  0  0  0  0
  130.2003  132.0732  152.2595 H   0  0  0  0  0  0  0  0  0  0  0  0
  1  2  1  0
  1 28  1  0
  1 29  1  0
  1 30  1  0
  2  3  1  0
  2 31  1  0
  2 32  1  0
  3 27  2  0
  3  4  1  0
  4  5  2  0
  4 33  1  0
  5  6  1  0
  5 34  1  0
  6  7  1  0
  6 26  2  0
  7 24  1  0
  7  8  2  0
  8  9  1  0
  8 35  1  0
  9 10  1  0
  9 11  1  0
 11 12  1  0
 11 24  2  0
 12 13  1  0
 12 36  1  0
 13 14  1  1
 13 15  1  0
 13 16  1  0
 15 37  1  0
 15 38  1  0
 15 39  1  0
 16 17  1  0
 16 40  1  0
 16 41  1  0
 17 18  1  0
 18 23  1  0
 18 19  2  0
 19 20  1  0
 19 42  1  0
 20 21  2  0
 20 43  1  0
 21 22  1  0
 21 44  1  0
 22 23  2  0
 22 45  1  0
 23 46  1  0
 24 25  1  0
 26 27  1  0
 26 47  1  0
 27 48  1  0
M  CHG  1  24   1
M  END
>  <DOCK_score>  (1) 
-57.685513

>  <SMILES>  (1) 
CCc1ccc(-c2c[nH]c(N[C@H](C)CSc3ccccc3)[nH+]2)cc1

$$$$
