O=C1CC[C@H](NC(NC2CC2)=[NH+]C2COc3ccc(N[C@@H]4COc5ccccc5C4)cc3C2)CN1
     RDKit          3D

 69 74  0  0  1  0  0  0  0  0999 V2000
  123.7900  134.0408  161.6552 O   0  0  0  0  0  0  0  0  0  0  0  0
  124.9716  133.9096  161.4156 C   0  0  0  0  0  0  0  0  0  0  0  0
  125.7074  132.7747  162.0680 C   0  0  0  0  0  0  0  0  0  0  0  0
  127.2158  133.0266  162.0039 C   0  0  0  0  0  0  0  0  0  0  0  0
  127.5827  133.4089  160.5650 C   0  0  2  0  0  0  0  0  0  0  0  0
  127.1927  132.6590  159.8765 H   0  0  0  0  0  0  0  0  0  0  0  0
  129.0396  133.4865  160.4331 N   0  0  0  0  0  0  0  0  0  0  0  0
  129.6039  133.8154  159.2234 C   0  0  0  0  0  0  0  0  0  0  0  0
  128.9635  133.4832  158.0531 N   0  0  0  0  0  0  0  0  0  0  0  0
  129.7435  133.2069  156.8441 C   0  0  0  0  0  0  0  0  0  0  0  0
  129.4512  131.9040  156.0973 C   0  0  0  0  0  0  0  0  0  0  0  0
  130.7460  132.0524  156.8988 C   0  0  0  0  0  0  0  0  0  0  0  0
  130.7461  134.4423  159.1860 N   0  0  0  0  0  0  0  0  0  0  0  0
  131.1442  134.6745  158.3325 H   0  0  0  0  0  0  0  0  0  0  0  0
  131.4286  134.7963  160.4331 C   0  0  1  0  0  0  0  0  0  0  0  0
  132.3854  133.6674  160.8372 C   0  0  0  0  0  0  0  0  0  0  0  0
  132.9564  133.9936  162.1051 O   0  0  0  0  0  0  0  0  0  0  0  0
  133.4825  135.2373  162.2641 C   0  0  0  0  0  0  0  0  0  0  0  0
  134.3498  135.4582  163.3294 C   0  0  0  0  0  0  0  0  0  0  0  0
  134.9023  136.7058  163.5302 C   0  0  0  0  0  0  0  0  0  0  0  0
  134.5922  137.7473  162.6654 C   0  0  0  0  0  0  0  0  0  0  0  0
  135.1492  139.0153  162.8659 N   0  0  0  0  0  0  0  0  0  0  0  0
  135.4853  139.4618  164.2202 C   0  0  2  0  0  0  0  0  0  0  0  0
  136.2163  138.7834  164.6599 H   0  0  0  0  0  0  0  0  0  0  0  0
  134.2184  139.4893  165.0848 C   0  0  0  0  0  0  0  0  0  0  0  0
  134.5926  139.8273  166.4211 O   0  0  0  0  0  0  0  0  0  0  0  0
  135.3981  140.9063  166.6010 C   0  0  0  0  0  0  0  0  0  0  0  0
  135.4844  141.4657  167.8720 C   0  0  0  0  0  0  0  0  0  0  0  0
  136.2981  142.5571  168.0966 C   0  0  0  0  0  0  0  0  0  0  0  0
  137.0312  143.0975  167.0560 C   0  0  0  0  0  0  0  0  0  0  0  0
  136.9471  142.5456  165.7928 C   0  0  0  0  0  0  0  0  0  0  0  0
  136.1307  141.4509  165.5611 C   0  0  0  0  0  0  0  0  0  0  0  0
  136.0623  140.8786  164.1678 C   0  0  0  0  0  0  0  0  0  0  0  0
  133.7292  137.5271  161.6022 C   0  0  0  0  0  0  0  0  0  0  0  0
  133.1765  136.2737  161.3999 C   0  0  0  0  0  0  0  0  0  0  0  0
  132.2497  136.0717  160.2278 C   0  0  0  0  0  0  0  0  0  0  0  0
  126.9656  134.7716  160.2478 C   0  0  0  0  0  0  0  0  0  0  0  0
  125.5480  134.7811  160.5870 N   0  0  0  0  0  0  0  0  0  0  0  0
  125.4732  131.8452  161.5490 H   0  0  0  0  0  0  0  0  0  0  0  0
  125.3978  132.6939  163.1101 H   0  0  0  0  0  0  0  0  0  0  0  0
  127.7516  132.1218  162.2913 H   0  0  0  0  0  0  0  0  0  0  0  0
  127.4810  133.8406  162.6787 H   0  0  0  0  0  0  0  0  0  0  0  0
  129.6062  133.3055  161.1994 H   0  0  0  0  0  0  0  0  0  0  0  0
  127.9952  133.4317  158.0278 H   0  0  0  0  0  0  0  0  0  0  0  0
  130.0123  134.0792  156.2483 H   0  0  0  0  0  0  0  0  0  0  0  0
  129.5278  131.9190  155.0101 H   0  0  0  0  0  0  0  0  0  0  0  0
  128.6786  131.2524  156.5053 H   0  0  0  0  0  0  0  0  0  0  0  0
  130.8252  131.4985  157.8342 H   0  0  0  0  0  0  0  0  0  0  0  0
  131.6745  132.1647  156.3388 H   0  0  0  0  0  0  0  0  0  0  0  0
  130.6933  134.9548  161.2220 H   0  0  0  0  0  0  0  0  0  0  0  0
  131.8355  132.7294  160.9127 H   0  0  0  0  0  0  0  0  0  0  0  0
  133.1752  133.5711  160.0922 H   0  0  0  0  0  0  0  0  0  0  0  0
  134.5911  134.6488  164.0024 H   0  0  0  0  0  0  0  0  0  0  0  0
  135.5753  136.8725  164.3584 H   0  0  0  0  0  0  0  0  0  0  0  0
  135.3129  139.5985  162.1083 H   0  0  0  0  0  0  0  0  0  0  0  0
  133.5255  140.2362  164.6974 H   0  0  0  0  0  0  0  0  0  0  0  0
  133.7449  138.5076  165.0734 H   0  0  0  0  0  0  0  0  0  0  0  0
  134.9120  141.0448  168.6855 H   0  0  0  0  0  0  0  0  0  0  0  0
  136.3624  142.9890  169.0843 H   0  0  0  0  0  0  0  0  0  0  0  0
  137.6690  143.9513  167.2308 H   0  0  0  0  0  0  0  0  0  0  0  0
  137.5202  142.9698  164.9816 H   0  0  0  0  0  0  0  0  0  0  0  0
  137.0639  140.8468  163.7393 H   0  0  0  0  0  0  0  0  0  0  0  0
  135.4233  141.5080  163.5484 H   0  0  0  0  0  0  0  0  0  0  0  0
  133.4871  138.3367  160.9295 H   0  0  0  0  0  0  0  0  0  0  0  0
  132.8361  135.9823  159.3135 H   0  0  0  0  0  0  0  0  0  0  0  0
  131.5779  136.9261  160.1451 H   0  0  0  0  0  0  0  0  0  0  0  0
  127.4789  135.5421  160.8230 H   0  0  0  0  0  0  0  0  0  0  0  0
  127.0831  134.9817  159.1847 H   0  0  0  0  0  0  0  0  0  0  0  0
  124.9890  135.4641  160.1846 H   0  0  0  0  0  0  0  0  0  0  0  0
  1  2  2  0
  2 38  1  0
  2  3  1  0
  3  4  1  0
  3 39  1  0
  3 40  1  0
  4  5  1  0
  4 41  1  0
  4 42  1  0
  5  6  1  6
  5  7  1  0
  5 37  1  0
  7 43  1  0
  8  7  1  0
  8  9  1  0
  8 13  2  0
  9 10  1  0
  9 44  1  0
 10 12  1  0
 10 11  1  0
 10 45  1  0
 11 12  1  0
 11 46  1  0
 11 47  1  0
 12 48  1  0
 12 49  1  0
 13 14  1  0
 13 15  1  0
 15 36  1  0
 15 16  1  0
 15 50  1  1
 16 17  1  0
 16 51  1  0
 16 52  1  0
 17 18  1  0
 18 35  2  0
 18 19  1  0
 19 20  2  0
 19 53  1  0
 20 21  1  0
 20 54  1  0
 21 22  1  0
 21 34  2  0
 22 23  1  0
 22 55  1  0
 23 24  1  1
 23 33  1  0
 23 25  1  0
 25 26  1  0
 25 56  1  0
 25 57  1  0
 26 27  1  0
 27 32  2  0
 27 28  1  0
 28 29  2  0
 28 58  1  0
 29 30  1  0
 29 59  1  0
 30 31  2  0
 30 60  1  0
 31 32  1  0
 31 61  1  0
 32 33  1  0
 33 62  1  0
 33 63  1  0
 34 35  1  0
 34 64  1  0
 35 36  1  0
 36 65  1  0
 36 66  1  0
 37 38  1  0
 37 67  1  0
 37 68  1  0
 38 69  1  0
M  CHG  1  13   1
M  END
>  <DOCK_score>  (1) 
-50.582371

>  <SMILES>  (1) 
O=C1CC[C@H](NC(NC2CC2)=[NH+]C2COc3ccc(N[C@@H]4COc5ccccc5C4)cc3C2)CN1

$$$$
