CCc1ccc(-c2c[nH]c(N[C@H](CO)Cc3ccccc3Br)[nH+]2)cc1
     RDKit          3D

 48 50  0  0  1  0  0  0  0  0999 V2000
  130.3353  128.6778  151.8177 C   0  0  0  0  0  0  0  0  0  0  0  0
  131.4130  129.7308  152.0831 C   0  0  0  0  0  0  0  0  0  0  0  0
  131.0641  130.5036  153.3291 C   0  0  0  0  0  0  0  0  0  0  0  0
  131.5155  130.0656  154.5605 C   0  0  0  0  0  0  0  0  0  0  0  0
  131.2033  130.7720  155.7042 C   0  0  0  0  0  0  0  0  0  0  0  0
  130.4223  131.9233  155.6176 C   0  0  0  0  0  0  0  0  0  0  0  0
  130.0790  132.6840  156.8439 C   0  0  0  0  0  0  0  0  0  0  0  0
  129.3965  132.2069  157.9141 C   0  0  0  0  0  0  0  0  0  0  0  0
  129.3019  133.2369  158.8181 N   0  0  0  0  0  0  0  0  0  0  0  0
  128.8673  133.2028  159.6846 H   0  0  0  0  0  0  0  0  0  0  0  0
  129.9301  134.3143  158.2734 C   0  0  0  0  0  0  0  0  0  0  0  0
  130.0582  135.5583  158.8670 N   0  0  0  0  0  0  0  0  0  0  0  0
  129.0291  136.0374  159.7931 C   0  0  2  0  0  0  0  0  0  0  0  0
  128.9504  135.3505  160.6358 H   0  0  0  0  0  0  0  0  0  0  0  0
  127.6842  136.1107  159.0675 C   0  0  0  0  0  0  0  0  0  0  0  0
  127.1061  134.8055  159.0027 O   0  0  0  0  0  0  0  0  0  0  0  0
  129.4099  137.4287  160.3033 C   0  0  0  0  0  0  0  0  0  0  0  0
  130.7346  137.3566  161.0182 C   0  0  0  0  0  0  0  0  0  0  0  0
  130.8767  136.5477  162.1303 C   0  0  0  0  0  0  0  0  0  0  0  0
  132.0933  136.4770  162.7827 C   0  0  0  0  0  0  0  0  0  0  0  0
  133.1653  137.2238  162.3301 C   0  0  0  0  0  0  0  0  0  0  0  0
  133.0225  138.0368  161.2218 C   0  0  0  0  0  0  0  0  0  0  0  0
  131.8066  138.1036  160.5651 C   0  0  0  0  0  0  0  0  0  0  0  0
  131.6108  139.2156  159.0482 Br  0  0  0  0  0  0  0  0  0  0  0  0
  130.3976  133.9785  157.0958 N   0  0  0  0  0  0  0  0  0  0  0  0
  130.8910  134.5628  156.4990 H   0  0  0  0  0  0  0  0  0  0  0  0
  129.9658  132.3574  154.3744 C   0  0  0  0  0  0  0  0  0  0  0  0
  130.2886  131.6459  153.2368 C   0  0  0  0  0  0  0  0  0  0  0  0
  130.5876  128.1189  150.9166 H   0  0  0  0  0  0  0  0  0  0  0  0
  130.2788  127.9946  152.6653 H   0  0  0  0  0  0  0  0  0  0  0  0
  129.3720  129.1695  151.6825 H   0  0  0  0  0  0  0  0  0  0  0  0
  132.3761  129.2396  152.2182 H   0  0  0  0  0  0  0  0  0  0  0  0
  131.4693  130.4144  151.2355 H   0  0  0  0  0  0  0  0  0  0  0  0
  132.1169  129.1710  154.6269 H   0  0  0  0  0  0  0  0  0  0  0  0
  131.5601  130.4314  156.6650 H   0  0  0  0  0  0  0  0  0  0  0  0
  129.0022  131.2084  158.0328 H   0  0  0  0  0  0  0  0  0  0  0  0
  130.8293  136.1128  158.6697 H   0  0  0  0  0  0  0  0  0  0  0  0
  127.0145  136.7780  159.6101 H   0  0  0  0  0  0  0  0  0  0  0  0
  127.8365  136.4912  158.0575 H   0  0  0  0  0  0  0  0  0  0  0  0
  126.9424  134.4043  159.8672 H   0  0  0  0  0  0  0  0  0  0  0  0
  129.4887  138.1157  159.4607 H   0  0  0  0  0  0  0  0  0  0  0  0
  128.6443  137.7852  160.9924 H   0  0  0  0  0  0  0  0  0  0  0  0
  130.0383  135.9680  162.4869 H   0  0  0  0  0  0  0  0  0  0  0  0
  132.2054  135.8414  163.6485 H   0  0  0  0  0  0  0  0  0  0  0  0
  134.1145  137.1713  162.8426 H   0  0  0  0  0  0  0  0  0  0  0  0
  133.8599  138.6204  160.8686 H   0  0  0  0  0  0  0  0  0  0  0  0
  129.3599  133.2486  154.3015 H   0  0  0  0  0  0  0  0  0  0  0  0
  129.9349  131.9811  152.2729 H   0  0  0  0  0  0  0  0  0  0  0  0
  1  2  1  0
  1 29  1  0
  1 30  1  0
  1 31  1  0
  2  3  1  0
  2 32  1  0
  2 33  1  0
  3 28  2  0
  3  4  1  0
  4  5  2  0
  4 34  1  0
  5  6  1  0
  5 35  1  0
  6  7  1  0
  6 27  2  0
  7 25  1  0
  7  8  2  0
  8  9  1  0
  8 36  1  0
  9 10  1  0
  9 11  1  0
 11 12  1  0
 11 25  2  0
 12 13  1  0
 12 37  1  0
 13 14  1  1
 13 15  1  0
 13 17  1  0
 15 16  1  0
 15 38  1  0
 15 39  1  0
 16 40  1  0
 17 18  1  0
 17 41  1  0
 17 42  1  0
 18 23  1  0
 18 19  2  0
 19 20  1  0
 19 43  1  0
 20 21  2  0
 20 44  1  0
 21 22  1  0
 21 45  1  0
 22 23  2  0
 22 46  1  0
 23 24  1  0
 25 26  1  0
 27 28  1  0
 27 47  1  0
 28 48  1  0
M  CHG  1  25   1
M  END
>  <DOCK_score>  (1) 
-56.093056

>  <SMILES>  (1) 
CCc1ccc(-c2c[nH]c(N[C@H](CO)Cc3ccccc3Br)[nH+]2)cc1

$$$$
