Oc1ccc(Nc2[nH]cc(-c3ccc(Nc4c[nH]c5ccccc45)cc3)[nH+]2)cc1
     RDKit          3D

 49 53  0  0  1  0  0  0  0  0999 V2000
  123.8758  134.8212  160.9988 O   0  0  0  0  0  0  0  0  0  0  0  0
  124.9662  134.1714  160.5106 C   0  0  0  0  0  0  0  0  0  0  0  0
  126.1188  134.8816  160.2089 C   0  0  0  0  0  0  0  0  0  0  0  0
  127.2263  134.2227  159.7128 C   0  0  0  0  0  0  0  0  0  0  0  0
  127.1860  132.8484  159.5164 C   0  0  0  0  0  0  0  0  0  0  0  0
  128.3083  132.1795  159.0135 N   0  0  0  0  0  0  0  0  0  0  0  0
  129.5790  132.6633  159.2778 C   0  0  0  0  0  0  0  0  0  0  0  0
  130.6651  132.5214  158.4700 N   0  0  0  0  0  0  0  0  0  0  0  0
  130.6888  132.0672  157.6132 H   0  0  0  0  0  0  0  0  0  0  0  0
  131.7217  133.1436  159.0911 C   0  0  0  0  0  0  0  0  0  0  0  0
  131.2527  133.6386  160.2634 C   0  0  0  0  0  0  0  0  0  0  0  0
  132.0412  134.3872  161.2726 C   0  0  0  0  0  0  0  0  0  0  0  0
  131.4221  135.3501  162.0682 C   0  0  0  0  0  0  0  0  0  0  0  0
  132.1556  136.0406  163.0097 C   0  0  0  0  0  0  0  0  0  0  0  0
  133.5142  135.7853  163.1577 C   0  0  0  0  0  0  0  0  0  0  0  0
  134.2559  136.4903  164.1076 N   0  0  0  0  0  0  0  0  0  0  0  0
  135.3481  137.2792  163.7023 C   0  0  0  0  0  0  0  0  0  0  0  0
  136.4518  137.5510  164.4239 C   0  0  0  0  0  0  0  0  0  0  0  0
  137.2988  138.3519  163.6938 N   0  0  0  0  0  0  0  0  0  0  0  0
  138.1591  138.6788  164.0003 H   0  0  0  0  0  0  0  0  0  0  0  0
  136.7406  138.6253  162.4655 C   0  0  0  0  0  0  0  0  0  0  0  0
  137.1616  139.3723  161.3691 C   0  0  0  0  0  0  0  0  0  0  0  0
  136.3601  139.4596  160.2525 C   0  0  0  0  0  0  0  0  0  0  0  0
  135.1341  138.8093  160.2083 C   0  0  0  0  0  0  0  0  0  0  0  0
  134.7017  138.0704  161.2730 C   0  0  0  0  0  0  0  0  0  0  0  0
  135.4980  137.9682  162.4151 C   0  0  0  0  0  0  0  0  0  0  0  0
  134.1348  134.8295  162.3613 C   0  0  0  0  0  0  0  0  0  0  0  0
  133.4037  134.1328  161.4227 C   0  0  0  0  0  0  0  0  0  0  0  0
  129.9353  133.3283  160.3500 N   0  0  0  0  0  0  0  0  0  0  0  0
  129.3500  133.5611  161.0876 H   0  0  0  0  0  0  0  0  0  0  0  0
  126.0298  132.1389  159.8139 C   0  0  0  0  0  0  0  0  0  0  0  0
  124.9248  132.7988  160.3144 C   0  0  0  0  0  0  0  0  0  0  0  0
  123.9993  135.7747  161.1013 H   0  0  0  0  0  0  0  0  0  0  0  0
  126.1500  135.9503  160.3616 H   0  0  0  0  0  0  0  0  0  0  0  0
  128.1234  134.7759  159.4771 H   0  0  0  0  0  0  0  0  0  0  0  0
  128.1963  131.3750  158.4834 H   0  0  0  0  0  0  0  0  0  0  0  0
  132.7328  133.2193  158.7193 H   0  0  0  0  0  0  0  0  0  0  0  0
  130.3677  135.5521  161.9503 H   0  0  0  0  0  0  0  0  0  0  0  0
  131.6754  136.7834  163.6292 H   0  0  0  0  0  0  0  0  0  0  0  0
  134.0192  136.4358  165.0462 H   0  0  0  0  0  0  0  0  0  0  0  0
  136.6443  137.1922  165.4243 H   0  0  0  0  0  0  0  0  0  0  0  0
  138.1134  139.8820  161.3941 H   0  0  0  0  0  0  0  0  0  0  0  0
  136.6887  140.0395  159.4027 H   0  0  0  0  0  0  0  0  0  0  0  0
  134.5175  138.8879  159.3250 H   0  0  0  0  0  0  0  0  0  0  0  0
  133.7470  137.5673  161.2314 H   0  0  0  0  0  0  0  0  0  0  0  0
  135.1904  134.6330  162.4776 H   0  0  0  0  0  0  0  0  0  0  0  0
  133.8862  133.3906  160.8040 H   0  0  0  0  0  0  0  0  0  0  0  0
  125.9960  131.0710  159.6569 H   0  0  0  0  0  0  0  0  0  0  0  0
  124.0267  132.2466  160.5493 H   0  0  0  0  0  0  0  0  0  0  0  0
  1  2  1  0
  1 33  1  0
  2 32  2  0
  2  3  1  0
  3  4  2  0
  3 34  1  0
  4  5  1  0
  4 35  1  0
  5  6  1  0
  5 31  2  0
  6 36  1  0
  7  6  1  0
  7 29  2  0
  7  8  1  0
  8  9  1  0
  8 10  1  0
 10 11  2  0
 10 37  1  0
 11 12  1  0
 11 29  1  0
 12 28  1  0
 12 13  2  0
 13 14  1  0
 13 38  1  0
 14 15  2  0
 14 39  1  0
 15 16  1  0
 15 27  1  0
 16 17  1  0
 16 40  1  0
 17 26  1  0
 17 18  2  0
 18 19  1  0
 18 41  1  0
 19 20  1  0
 19 21  1  0
 21 26  2  0
 21 22  1  0
 22 23  2  0
 22 42  1  0
 23 24  1  0
 23 43  1  0
 24 25  2  0
 24 44  1  0
 25 26  1  0
 25 45  1  0
 27 28  2  0
 27 46  1  0
 28 47  1  0
 29 30  1  0
 31 32  1  0
 31 48  1  0
 32 49  1  0
M  CHG  1  29   1
M  END
>  <DOCK_score>  (1) 
-42.188503

>  <SMILES>  (1) 
Oc1ccc(Nc2[nH]cc(-c3ccc(Nc4c[nH]c5ccccc45)cc3)[nH+]2)cc1

$$$$
