Cc1ccc([C@H](Nc2[nH]cc(-c3ccc(C(F)(F)F)cc3)[nH+]2)c2ccccc2)cc1
     RDKit          3D

 51 54  0  0  1  0  0  0  0  0999 V2000
  130.4825  140.6814  162.0840 C   0  0  0  0  0  0  0  0  0  0  0  0
  130.1121  139.3434  161.4981 C   0  0  0  0  0  0  0  0  0  0  0  0
  129.8403  138.2749  162.3321 C   0  0  0  0  0  0  0  0  0  0  0  0
  129.5006  137.0475  161.7945 C   0  0  0  0  0  0  0  0  0  0  0  0
  129.4324  136.8886  160.4231 C   0  0  0  0  0  0  0  0  0  0  0  0
  129.0624  135.5504  159.8371 C   0  0  2  0  0  0  0  0  0  0  0  0
  128.8861  134.8374  160.6423 H   0  0  0  0  0  0  0  0  0  0  0  0
  130.1562  135.0691  158.9896 N   0  0  0  0  0  0  0  0  0  0  0  0
  130.0444  133.8518  158.3399 C   0  0  0  0  0  0  0  0  0  0  0  0
  129.3365  132.7780  158.7849 N   0  0  0  0  0  0  0  0  0  0  0  0
  128.8236  132.7284  159.6067 H   0  0  0  0  0  0  0  0  0  0  0  0
  129.4820  131.7773  157.8550 C   0  0  0  0  0  0  0  0  0  0  0  0
  130.2739  132.2679  156.8696 C   0  0  0  0  0  0  0  0  0  0  0  0
  130.7047  131.5390  155.6516 C   0  0  0  0  0  0  0  0  0  0  0  0
  130.3662  132.0243  154.3896 C   0  0  0  0  0  0  0  0  0  0  0  0
  130.7738  131.3446  153.2599 C   0  0  0  0  0  0  0  0  0  0  0  0
  131.5083  130.1790  153.3780 C   0  0  0  0  0  0  0  0  0  0  0  0
  131.9459  129.4384  152.1406 C   0  0  0  0  0  0  0  0  0  0  0  0
  131.4938  130.1188  151.0056 F   0  0  0  0  0  0  0  0  0  0  0  0
  133.3425  129.3609  152.1131 F   0  0  0  0  0  0  0  0  0  0  0  0
  131.4078  128.1465  152.1555 F   0  0  0  0  0  0  0  0  0  0  0  0
  131.8422  129.6890  154.6285 C   0  0  0  0  0  0  0  0  0  0  0  0
  131.4445  130.3633  155.7649 C   0  0  0  0  0  0  0  0  0  0  0  0
  130.6031  133.5432  157.1951 N   0  0  0  0  0  0  0  0  0  0  0  0
  131.1630  134.1323  156.6657 H   0  0  0  0  0  0  0  0  0  0  0  0
  127.8111  135.6932  159.0094 C   0  0  0  0  0  0  0  0  0  0  0  0
  126.5715  135.5145  159.5943 C   0  0  0  0  0  0  0  0  0  0  0  0
  125.4234  135.6498  158.8361 C   0  0  0  0  0  0  0  0  0  0  0  0
  125.5155  135.9548  157.4910 C   0  0  0  0  0  0  0  0  0  0  0  0
  126.7556  136.1284  156.9050 C   0  0  0  0  0  0  0  0  0  0  0  0
  127.9032  135.9973  157.6642 C   0  0  0  0  0  0  0  0  0  0  0  0
  129.7094  137.9557  159.5889 C   0  0  0  0  0  0  0  0  0  0  0  0
  130.0435  139.1846  160.1265 C   0  0  0  0  0  0  0  0  0  0  0  0
  131.5641  140.7373  162.2070 H   0  0  0  0  0  0  0  0  0  0  0  0
  130.1515  141.4754  161.4147 H   0  0  0  0  0  0  0  0  0  0  0  0
  130.0001  140.7993  163.0543 H   0  0  0  0  0  0  0  0  0  0  0  0
  129.8939  138.3991  163.4036 H   0  0  0  0  0  0  0  0  0  0  0  0
  129.2886  136.2127  162.4461 H   0  0  0  0  0  0  0  0  0  0  0  0
  130.9588  135.6035  158.8837 H   0  0  0  0  0  0  0  0  0  0  0  0
  129.0520  130.7878  157.9021 H   0  0  0  0  0  0  0  0  0  0  0  0
  129.7894  132.9325  154.2960 H   0  0  0  0  0  0  0  0  0  0  0  0
  130.5158  131.7218  152.2813 H   0  0  0  0  0  0  0  0  0  0  0  0
  132.4154  128.7778  154.7151 H   0  0  0  0  0  0  0  0  0  0  0  0
  131.7057  129.9803  156.7404 H   0  0  0  0  0  0  0  0  0  0  0  0
  126.4995  135.2726  160.6444 H   0  0  0  0  0  0  0  0  0  0  0  0
  124.4548  135.5145  159.2941 H   0  0  0  0  0  0  0  0  0  0  0  0
  124.6188  136.0579  156.8979 H   0  0  0  0  0  0  0  0  0  0  0  0
  126.8275  136.3667  155.8540 H   0  0  0  0  0  0  0  0  0  0  0  0
  128.8720  136.1330  157.2062 H   0  0  0  0  0  0  0  0  0  0  0  0
  129.6603  137.8303  158.5173 H   0  0  0  0  0  0  0  0  0  0  0  0
  130.2555  140.0194  159.4750 H   0  0  0  0  0  0  0  0  0  0  0  0
  1  2  1  0
  1 34  1  0
  1 35  1  0
  1 36  1  0
  2 33  2  0
  2  3  1  0
  3  4  2  0
  3 37  1  0
  4  5  1  0
  4 38  1  0
  5  6  1  0
  5 32  2  0
  6  7  1  1
  6  8  1  0
  6 26  1  0
  8 39  1  0
  9  8  1  0
  9 24  2  0
  9 10  1  0
 10 11  1  0
 10 12  1  0
 12 13  2  0
 12 40  1  0
 13 14  1  0
 13 24  1  0
 14 23  1  0
 14 15  2  0
 15 16  1  0
 15 41  1  0
 16 17  2  0
 16 42  1  0
 17 18  1  0
 17 22  1  0
 18 19  1  0
 18 20  1  0
 18 21  1  0
 22 23  2  0
 22 43  1  0
 23 44  1  0
 24 25  1  0
 26 31  1  0
 26 27  2  0
 27 28  1  0
 27 45  1  0
 28 29  2  0
 28 46  1  0
 29 30  1  0
 29 47  1  0
 30 31  2  0
 30 48  1  0
 31 49  1  0
 32 33  1  0
 32 50  1  0
 33 51  1  0
M  CHG  1  24   1
M  END
>  <DOCK_score>  (1) 
-59.114071

>  <SMILES>  (1) 
Cc1ccc([C@H](Nc2[nH]cc(-c3ccc(C(F)(F)F)cc3)[nH+]2)c2ccccc2)cc1

$$$$
