C[C@](C[NH2+]C1C=CCC1)(NCc1cccc2c1NC(=O)CO2)c1ccccc1
     RDKit          3D

 56 59  0  0  1  0  0  0  0  0999 V2000
  128.2055  136.4963  159.9569 C   0  0  0  0  0  0  0  0  0  0  0  0
  129.4542  135.6585  160.2388 C   0  0  2  0  0  0  0  0  0  0  0  0
  130.5434  136.5516  160.8362 C   0  0  0  0  0  0  0  0  0  0  0  0
  131.2093  137.2979  159.7602 N   0  0  0  0  0  0  0  0  0  0  0  0
  130.5318  137.8700  159.2787 H   0  0  0  0  0  0  0  0  0  0  0  0
  131.6257  136.6496  159.1089 H   0  0  0  0  0  0  0  0  0  0  0  0
  132.2551  138.1555  160.3338 C   0  0  2  0  0  0  0  0  0  0  0  0
  132.6946  139.1940  159.3281 C   0  0  0  0  0  0  0  0  0  0  0  0
  133.9955  139.2974  159.2971 C   0  0  0  0  0  0  0  0  0  0  0  0
  134.6403  138.3451  160.2772 C   0  0  0  0  0  0  0  0  0  0  0  0
  133.5286  137.3289  160.6273 C   0  0  0  0  0  0  0  0  0  0  0  0
  129.9397  135.0659  158.9854 N   0  0  0  0  0  0  0  0  0  0  0  0
  128.9178  134.1999  158.3820 C   0  0  0  0  0  0  0  0  0  0  0  0
  129.5731  133.2494  157.4134 C   0  0  0  0  0  0  0  0  0  0  0  0
  129.7174  133.6038  156.0841 C   0  0  0  0  0  0  0  0  0  0  0  0
  130.3218  132.7354  155.1945 C   0  0  0  0  0  0  0  0  0  0  0  0
  130.7779  131.5021  155.6251 C   0  0  0  0  0  0  0  0  0  0  0  0
  130.6327  131.1386  156.9520 C   0  0  0  0  0  0  0  0  0  0  0  0
  130.0273  132.0166  157.8504 C   0  0  0  0  0  0  0  0  0  0  0  0
  129.8860  131.6349  159.1921 N   0  0  0  0  0  0  0  0  0  0  0  0
  130.6028  130.5872  159.6537 C   0  0  0  0  0  0  0  0  0  0  0  0
  130.4733  130.2197  160.8023 O   0  0  0  0  0  0  0  0  0  0  0  0
  131.5639  129.8760  158.7355 C   0  0  0  0  0  0  0  0  0  0  0  0
  131.0757  129.9308  157.3927 O   0  0  0  0  0  0  0  0  0  0  0  0
  129.1134  134.5614  161.2141 C   0  0  0  0  0  0  0  0  0  0  0  0
  127.8249  134.4455  161.7014 C   0  0  0  0  0  0  0  0  0  0  0  0
  127.5110  133.4362  162.5924 C   0  0  0  0  0  0  0  0  0  0  0  0
  128.4881  132.5492  163.0041 C   0  0  0  0  0  0  0  0  0  0  0  0
  129.7778  132.6684  162.5210 C   0  0  0  0  0  0  0  0  0  0  0  0
  130.0904  133.6745  161.6260 C   0  0  0  0  0  0  0  0  0  0  0  0
  128.4521  137.2899  159.2513 H   0  0  0  0  0  0  0  0  0  0  0  0
  127.4295  135.8601  159.5313 H   0  0  0  0  0  0  0  0  0  0  0  0
  127.8454  136.9360  160.8868 H   0  0  0  0  0  0  0  0  0  0  0  0
  131.2753  135.9336  161.3563 H   0  0  0  0  0  0  0  0  0  0  0  0
  130.0937  137.2520  161.5398 H   0  0  0  0  0  0  0  0  0  0  0  0
  131.8963  138.6363  161.2438 H   0  0  0  0  0  0  0  0  0  0  0  0
  132.0207  139.7774  158.7181 H   0  0  0  0  0  0  0  0  0  0  0  0
  134.5393  139.9749  158.6557 H   0  0  0  0  0  0  0  0  0  0  0  0
  135.4860  137.8376  159.8130 H   0  0  0  0  0  0  0  0  0  0  0  0
  134.9612  138.8798  161.1711 H   0  0  0  0  0  0  0  0  0  0  0  0
  133.5829  136.4517  159.9825 H   0  0  0  0  0  0  0  0  0  0  0  0
  133.5766  137.0429  161.6780 H   0  0  0  0  0  0  0  0  0  0  0  0
  130.2356  135.7811  158.3380 H   0  0  0  0  0  0  0  0  0  0  0  0
  128.4149  133.6318  159.1646 H   0  0  0  0  0  0  0  0  0  0  0  0
  128.1887  134.8131  157.8523 H   0  0  0  0  0  0  0  0  0  0  0  0
  129.3601  134.5635  155.7409 H   0  0  0  0  0  0  0  0  0  0  0  0
  130.4347  133.0189  154.1585 H   0  0  0  0  0  0  0  0  0  0  0  0
  131.2466  130.8246  154.9266 H   0  0  0  0  0  0  0  0  0  0  0  0
  129.2829  132.1162  159.7799 H   0  0  0  0  0  0  0  0  0  0  0  0
  132.5396  130.3593  158.7869 H   0  0  0  0  0  0  0  0  0  0  0  0
  131.6585  128.8352  159.0450 H   0  0  0  0  0  0  0  0  0  0  0  0
  127.0625  135.1412  161.3831 H   0  0  0  0  0  0  0  0  0  0  0  0
  126.5036  133.3433  162.9701 H   0  0  0  0  0  0  0  0  0  0  0  0
  128.2440  131.7635  163.7036 H   0  0  0  0  0  0  0  0  0  0  0  0
  130.5412  131.9756  162.8430 H   0  0  0  0  0  0  0  0  0  0  0  0
  131.0982  133.7677  161.2486 H   0  0  0  0  0  0  0  0  0  0  0  0
  1 31  1  0
  1 32  1  0
  1 33  1  0
  2  1  1  0
  2  3  1  0
  2 12  1  6
  2 25  1  0
  3  4  1  0
  3 34  1  0
  3 35  1  0
  4  5  1  0
  4  6  1  0
  4  7  1  0
  7 11  1  0
  7  8  1  0
  7 36  1  1
  8  9  2  0
  8 37  1  0
  9 10  1  0
  9 38  1  0
 10 11  1  0
 10 39  1  0
 10 40  1  0
 11 41  1  0
 11 42  1  0
 12 13  1  0
 12 43  1  0
 13 14  1  0
 13 44  1  0
 13 45  1  0
 14 19  1  0
 14 15  2  0
 15 16  1  0
 15 46  1  0
 16 17  2  0
 16 47  1  0
 17 18  1  0
 17 48  1  0
 18 24  1  0
 18 19  2  0
 19 20  1  0
 20 21  1  0
 20 49  1  0
 21 22  2  0
 21 23  1  0
 23 24  1  0
 23 50  1  0
 23 51  1  0
 25 30  1  0
 25 26  2  0
 26 27  1  0
 26 52  1  0
 27 28  2  0
 27 53  1  0
 28 29  1  0
 28 54  1  0
 29 30  2  0
 29 55  1  0
 30 56  1  0
M  CHG  1   4   1
M  END
>  <DOCK_score>  (1) 
-56.290047

>  <SMILES>  (1) 
C[C@](C[NH2+]C1C=CCC1)(NCc1cccc2c1NC(=O)CO2)c1ccccc1

$$$$
