Nc1ccc(-c2c[nH]c(N[C@H](Cc3ccccc3)c3ccccc3)[nH+]2)cc1
     RDKit          3D

 50 53  0  0  1  0  0  0  0  0999 V2000
  131.6894  129.8317  152.0121 N   0  0  0  0  0  0  0  0  0  0  0  0
  131.3847  130.4796  153.2117 C   0  0  0  0  0  0  0  0  0  0  0  0
  130.9164  131.7881  153.1942 C   0  0  0  0  0  0  0  0  0  0  0  0
  130.6155  132.4297  154.3770 C   0  0  0  0  0  0  0  0  0  0  0  0
  130.7808  131.7648  155.5910 C   0  0  0  0  0  0  0  0  0  0  0  0
  130.4583  132.4533  156.8650 C   0  0  0  0  0  0  0  0  0  0  0  0
  130.0137  131.8619  158.0012 C   0  0  0  0  0  0  0  0  0  0  0  0
  129.8432  132.8608  158.9302 N   0  0  0  0  0  0  0  0  0  0  0  0
  129.5336  132.7502  159.8428 H   0  0  0  0  0  0  0  0  0  0  0  0
  130.1890  134.0335  158.3329 C   0  0  0  0  0  0  0  0  0  0  0  0
  130.1585  135.2823  158.9299 N   0  0  0  0  0  0  0  0  0  0  0  0
  129.7255  135.4178  160.3229 C   0  0  2  0  0  0  0  0  0  0  0  0
  128.8802  134.7548  160.5069 H   0  0  0  0  0  0  0  0  0  0  0  0
  129.3057  136.8651  160.5879 C   0  0  0  0  0  0  0  0  0  0  0  0
  130.4743  137.7818  160.3336 C   0  0  0  0  0  0  0  0  0  0  0  0
  131.3436  138.0950  161.3617 C   0  0  0  0  0  0  0  0  0  0  0  0
  132.4184  138.9320  161.1273 C   0  0  0  0  0  0  0  0  0  0  0  0
  132.6180  139.4642  159.8673 C   0  0  0  0  0  0  0  0  0  0  0  0
  131.7457  139.1553  158.8403 C   0  0  0  0  0  0  0  0  0  0  0  0
  130.6739  138.3140  159.0735 C   0  0  0  0  0  0  0  0  0  0  0  0
  130.8625  135.0485  161.2405 C   0  0  0  0  0  0  0  0  0  0  0  0
  130.5986  134.5061  162.4844 C   0  0  0  0  0  0  0  0  0  0  0  0
  131.6416  134.1634  163.3243 C   0  0  0  0  0  0  0  0  0  0  0  0
  132.9483  134.3712  162.9240 C   0  0  0  0  0  0  0  0  0  0  0  0
  133.2121  134.9184  161.6822 C   0  0  0  0  0  0  0  0  0  0  0  0
  132.1692  135.2574  160.8406 C   0  0  0  0  0  0  0  0  0  0  0  0
  130.5506  133.7867  157.0974 N   0  0  0  0  0  0  0  0  0  0  0  0
  130.8399  134.4511  156.4527 H   0  0  0  0  0  0  0  0  0  0  0  0
  131.2552  130.4542  155.6066 C   0  0  0  0  0  0  0  0  0  0  0  0
  131.5499  129.8147  154.4209 C   0  0  0  0  0  0  0  0  0  0  0  0
  131.5740  130.2950  151.1678 H   0  0  0  0  0  0  0  0  0  0  0  0
  132.0163  128.9186  152.0237 H   0  0  0  0  0  0  0  0  0  0  0  0
  130.7884  132.3027  152.2534 H   0  0  0  0  0  0  0  0  0  0  0  0
  130.2515  133.4465  154.3628 H   0  0  0  0  0  0  0  0  0  0  0  0
  129.8284  130.8081  158.1480 H   0  0  0  0  0  0  0  0  0  0  0  0
  130.4237  136.0675  158.4258 H   0  0  0  0  0  0  0  0  0  0  0  0
  128.4832  137.1321  159.9241 H   0  0  0  0  0  0  0  0  0  0  0  0
  128.9836  136.9660  161.6242 H   0  0  0  0  0  0  0  0  0  0  0  0
  131.1852  137.6827  162.3474 H   0  0  0  0  0  0  0  0  0  0  0  0
  133.0997  139.1738  161.9297 H   0  0  0  0  0  0  0  0  0  0  0  0
  133.4552  140.1219  159.6852 H   0  0  0  0  0  0  0  0  0  0  0  0
  131.9015  139.5714  157.8560 H   0  0  0  0  0  0  0  0  0  0  0  0
  129.9922  138.0728  158.2713 H   0  0  0  0  0  0  0  0  0  0  0  0
  129.5776  134.3473  162.7985 H   0  0  0  0  0  0  0  0  0  0  0  0
  131.4356  133.7355  164.2943 H   0  0  0  0  0  0  0  0  0  0  0  0
  133.7631  134.1059  163.5813 H   0  0  0  0  0  0  0  0  0  0  0  0
  134.2330  135.0809  161.3695 H   0  0  0  0  0  0  0  0  0  0  0  0
  132.3752  135.6848  159.8704 H   0  0  0  0  0  0  0  0  0  0  0  0
  131.3880  129.9385  156.5462 H   0  0  0  0  0  0  0  0  0  0  0  0
  131.9135  128.7978  154.4322 H   0  0  0  0  0  0  0  0  0  0  0  0
  1  2  1  0
  1 31  1  0
  1 32  1  0
  2 30  2  0
  2  3  1  0
  3  4  2  0
  3 33  1  0
  4  5  1  0
  4 34  1  0
  5  6  1  0
  5 29  2  0
  6 27  1  0
  6  7  2  0
  7  8  1  0
  7 35  1  0
  8  9  1  0
  8 10  1  0
 10 11  1  0
 10 27  2  0
 11 12  1  0
 11 36  1  0
 12 13  1  6
 12 14  1  0
 12 21  1  0
 14 15  1  0
 14 37  1  0
 14 38  1  0
 15 20  1  0
 15 16  2  0
 16 17  1  0
 16 39  1  0
 17 18  2  0
 17 40  1  0
 18 19  1  0
 18 41  1  0
 19 20  2  0
 19 42  1  0
 20 43  1  0
 21 26  1  0
 21 22  2  0
 22 23  1  0
 22 44  1  0
 23 24  2  0
 23 45  1  0
 24 25  1  0
 24 46  1  0
 25 26  2  0
 25 47  1  0
 26 48  1  0
 27 28  1  0
 29 30  1  0
 29 49  1  0
 30 50  1  0
M  CHG  1  27   1
M  END
>  <DOCK_score>  (1) 
-59.318439

>  <SMILES>  (1) 
Nc1ccc(-c2c[nH]c(N[C@H](Cc3ccccc3)c3ccccc3)[nH+]2)cc1

$$$$
