CCc1ccc(-c2c[nH]c(N[C@@H](Cc3ccc(OC)cc3)c3ccccc3)[nH+]2)cc1
     RDKit          3D

 58 61  0  0  1  0  0  0  0  0999 V2000
  130.5916  128.4597  151.5822 C   0  0  0  0  0  0  0  0  0  0  0  0
  131.6784  129.4710  151.9520 C   0  0  0  0  0  0  0  0  0  0  0  0
  131.2922  130.1810  153.2239 C   0  0  0  0  0  0  0  0  0  0  0  0
  131.6812  129.6646  154.4463 C   0  0  0  0  0  0  0  0  0  0  0  0
  131.3353  130.3135  155.6143 C   0  0  0  0  0  0  0  0  0  0  0  0
  130.5828  131.4853  155.5606 C   0  0  0  0  0  0  0  0  0  0  0  0
  130.2033  132.1843  156.8127 C   0  0  0  0  0  0  0  0  0  0  0  0
  129.4659  131.6642  157.8250 C   0  0  0  0  0  0  0  0  0  0  0  0
  129.3535  132.6445  158.7807 N   0  0  0  0  0  0  0  0  0  0  0  0
  128.8815  132.5721  159.6251 H   0  0  0  0  0  0  0  0  0  0  0  0
  130.0262  133.7359  158.3242 C   0  0  0  0  0  0  0  0  0  0  0  0
  130.1542  134.9417  158.9920 N   0  0  0  0  0  0  0  0  0  0  0  0
  129.0968  135.3919  159.9004 C   0  0  1  0  0  0  0  0  0  0  0  0
  128.9683  134.6611  160.6989 H   0  0  0  0  0  0  0  0  0  0  0  0
  129.4839  136.7436  160.5037 C   0  0  0  0  0  0  0  0  0  0  0  0
  130.7754  136.6017  161.2672 C   0  0  0  0  0  0  0  0  0  0  0  0
  131.0948  135.3967  161.8651 C   0  0  0  0  0  0  0  0  0  0  0  0
  132.2807  135.2622  162.5608 C   0  0  0  0  0  0  0  0  0  0  0  0
  133.1459  136.3412  162.6691 C   0  0  0  0  0  0  0  0  0  0  0  0
  134.3102  136.2135  163.3584 O   0  0  0  0  0  0  0  0  0  0  0  0
  135.1523  137.3658  163.4288 C   0  0  0  0  0  0  0  0  0  0  0  0
  132.8206  137.5510  162.0730 C   0  0  0  0  0  0  0  0  0  0  0  0
  131.6363  137.6784  161.3733 C   0  0  0  0  0  0  0  0  0  0  0  0
  127.8053  135.5340  159.1369 C   0  0  0  0  0  0  0  0  0  0  0  0
  126.5976  135.3274  159.7769 C   0  0  0  0  0  0  0  0  0  0  0  0
  125.4129  135.4617  159.0774 C   0  0  0  0  0  0  0  0  0  0  0  0
  125.4361  135.7944  157.7359 C   0  0  0  0  0  0  0  0  0  0  0  0
  126.6440  135.9958  157.0946 C   0  0  0  0  0  0  0  0  0  0  0  0
  127.8287  135.8653  157.7951 C   0  0  0  0  0  0  0  0  0  0  0  0
  130.5375  133.4551  157.1505 N   0  0  0  0  0  0  0  0  0  0  0  0
  131.0680  134.0600  156.6088 H   0  0  0  0  0  0  0  0  0  0  0  0
  130.1887  131.9984  154.3261 C   0  0  0  0  0  0  0  0  0  0  0  0
  130.5451  131.3442  153.1644 C   0  0  0  0  0  0  0  0  0  0  0  0
  130.4846  127.7317  152.3864 H   0  0  0  0  0  0  0  0  0  0  0  0
  129.6452  128.9801  151.4351 H   0  0  0  0  0  0  0  0  0  0  0  0
  130.8708  127.9463  150.6622 H   0  0  0  0  0  0  0  0  0  0  0  0
  132.6244  128.9512  152.0986 H   0  0  0  0  0  0  0  0  0  0  0  0
  131.7850  130.1996  151.1473 H   0  0  0  0  0  0  0  0  0  0  0  0
  132.2602  128.7539  154.4869 H   0  0  0  0  0  0  0  0  0  0  0  0
  131.6436  129.9117  156.5681 H   0  0  0  0  0  0  0  0  0  0  0  0
  129.0468  130.6699  157.8708 H   0  0  0  0  0  0  0  0  0  0  0  0
  130.9443  135.4885  158.8585 H   0  0  0  0  0  0  0  0  0  0  0  0
  129.6122  137.4745  159.7053 H   0  0  0  0  0  0  0  0  0  0  0  0
  128.6970  137.0786  161.1797 H   0  0  0  0  0  0  0  0  0  0  0  0
  130.4184  134.5584  161.7848 H   0  0  0  0  0  0  0  0  0  0  0  0
  132.5316  134.3196  163.0243 H   0  0  0  0  0  0  0  0  0  0  0  0
  134.6135  138.1805  163.9125 H   0  0  0  0  0  0  0  0  0  0  0  0
  136.0460  137.1281  164.0058 H   0  0  0  0  0  0  0  0  0  0  0  0
  135.4398  137.6678  162.4216 H   0  0  0  0  0  0  0  0  0  0  0  0
  133.4924  138.3925  162.1562 H   0  0  0  0  0  0  0  0  0  0  0  0
  131.3825  138.6199  160.9091 H   0  0  0  0  0  0  0  0  0  0  0  0
  126.5795  135.0643  160.8242 H   0  0  0  0  0  0  0  0  0  0  0  0
  124.4691  135.3040  159.5784 H   0  0  0  0  0  0  0  0  0  0  0  0
  124.5106  135.8967  157.1888 H   0  0  0  0  0  0  0  0  0  0  0  0
  126.6623  136.2553  156.0464 H   0  0  0  0  0  0  0  0  0  0  0  0
  128.7723  136.0227  157.2941 H   0  0  0  0  0  0  0  0  0  0  0  0
  129.6053  132.9061  154.2787 H   0  0  0  0  0  0  0  0  0  0  0  0
  130.2400  131.7407  152.2072 H   0  0  0  0  0  0  0  0  0  0  0  0
  1  2  1  0
  1 34  1  0
  1 35  1  0
  1 36  1  0
  2  3  1  0
  2 37  1  0
  2 38  1  0
  3 33  2  0
  3  4  1  0
  4  5  2  0
  4 39  1  0
  5  6  1  0
  5 40  1  0
  6  7  1  0
  6 32  2  0
  7 30  1  0
  7  8  2  0
  8  9  1  0
  8 41  1  0
  9 10  1  0
  9 11  1  0
 11 12  1  0
 11 30  2  0
 12 13  1  0
 12 42  1  0
 13 14  1  1
 13 15  1  0
 13 24  1  0
 15 16  1  0
 15 43  1  0
 15 44  1  0
 16 23  1  0
 16 17  2  0
 17 18  1  0
 17 45  1  0
 18 19  2  0
 18 46  1  0
 19 20  1  0
 19 22  1  0
 20 21  1  0
 21 47  1  0
 21 48  1  0
 21 49  1  0
 22 23  2  0
 22 50  1  0
 23 51  1  0
 24 29  1  0
 24 25  2  0
 25 26  1  0
 25 52  1  0
 26 27  2  0
 26 53  1  0
 27 28  1  0
 27 54  1  0
 28 29  2  0
 28 55  1  0
 29 56  1  0
 30 31  1  0
 32 33  1  0
 32 57  1  0
 33 58  1  0
M  CHG  1  30   1
M  END
>  <DOCK_score>  (1) 
-61.522984

>  <SMILES>  (1) 
CCc1ccc(-c2c[nH]c(N[C@@H](Cc3ccc(OC)cc3)c3ccccc3)[nH+]2)cc1

$$$$
