C[C@H](O)[C@H](C)N(C(=O)c1c[nH]nc1C1CCC[NH2+]C1)[C@@H]1C=CCCC1
     RDKit          3D

 56 58  0  0  1  0  0  0  0  0999 V2000
  133.6073  136.4938  161.4662 C   0  0  0  0  0  0  0  0  0  0  0  0
  132.0864  136.4813  161.3002 C   0  0  2  0  0  0  0  0  0  0  0  0
  131.7208  135.4575  161.3795 H   0  0  0  0  0  0  0  0  0  0  0  0
  131.7427  137.0119  160.0186 O   0  0  0  0  0  0  0  0  0  0  0  0
  131.4468  137.3375  162.3951 C   0  0  2  0  0  0  0  0  0  0  0  0
  131.8124  138.3612  162.3158 H   0  0  0  0  0  0  0  0  0  0  0  0
  131.8149  136.7692  163.7671 C   0  0  0  0  0  0  0  0  0  0  0  0
  129.9905  137.3254  162.2363 N   0  0  0  0  0  0  0  0  0  0  0  0
  129.3155  136.1605  162.2980 C   0  0  0  0  0  0  0  0  0  0  0  0
  129.7370  135.2492  162.9841 O   0  0  0  0  0  0  0  0  0  0  0  0
  128.0695  135.9888  161.5289 C   0  0  0  0  0  0  0  0  0  0  0  0
  126.7922  136.2839  161.9617 C   0  0  0  0  0  0  0  0  0  0  0  0
  125.9492  135.9824  160.9611 N   0  0  0  0  0  0  0  0  0  0  0  0
  124.9852  136.0870  160.9813 H   0  0  0  0  0  0  0  0  0  0  0  0
  126.6961  135.4919  159.8841 N   0  0  0  0  0  0  0  0  0  0  0  0
  127.9595  135.4973  160.2089 C   0  0  0  0  0  0  0  0  0  0  0  0
  129.1013  135.0528  159.3315 C   0  0  1  0  0  0  0  0  0  0  0  0
  129.3548  133.5571  159.5408 C   0  0  0  0  0  0  0  0  0  0  0  0
  130.4634  133.0992  158.5886 C   0  0  0  0  0  0  0  0  0  0  0  0
  130.0577  133.4227  157.1492 C   0  0  0  0  0  0  0  0  0  0  0  0
  129.8556  134.8696  157.0073 N   0  0  0  0  0  0  0  0  0  0  0  0
  130.6982  135.3540  157.2784 H   0  0  0  0  0  0  0  0  0  0  0  0
  129.6395  135.0854  156.0456 H   0  0  0  0  0  0  0  0  0  0  0  0
  128.7460  135.3039  157.8644 C   0  0  0  0  0  0  0  0  0  0  0  0
  129.2679  138.5796  162.0103 C   0  0  2  0  0  0  0  0  0  0  0  0
  128.2021  138.3709  161.9174 H   0  0  0  0  0  0  0  0  0  0  0  0
  129.7597  139.2158  160.7432 C   0  0  0  0  0  0  0  0  0  0  0  0
  130.0008  140.4809  160.6130 C   0  0  0  0  0  0  0  0  0  0  0  0
  129.8317  141.4867  161.7138 C   0  0  0  0  0  0  0  0  0  0  0  0
  128.9583  140.9065  162.8284 C   0  0  0  0  0  0  0  0  0  0  0  0
  129.4992  139.5189  163.1960 C   0  0  0  0  0  0  0  0  0  0  0  0
  133.9729  137.5176  161.3869 H   0  0  0  0  0  0  0  0  0  0  0  0
  133.8695  136.0891  162.4437 H   0  0  0  0  0  0  0  0  0  0  0  0
  134.0630  135.8839  160.6861 H   0  0  0  0  0  0  0  0  0  0  0  0
  132.1149  136.5176  159.2756 H   0  0  0  0  0  0  0  0  0  0  0  0
  131.4493  135.7453  163.8463 H   0  0  0  0  0  0  0  0  0  0  0  0
  132.8984  136.7781  163.8853 H   0  0  0  0  0  0  0  0  0  0  0  0
  131.3593  137.3792  164.5471 H   0  0  0  0  0  0  0  0  0  0  0  0
  126.5208  136.6831  162.9277 H   0  0  0  0  0  0  0  0  0  0  0  0
  129.9992  135.6139  159.5904 H   0  0  0  0  0  0  0  0  0  0  0  0
  129.6634  133.3804  160.5712 H   0  0  0  0  0  0  0  0  0  0  0  0
  128.4413  133.0000  159.3333 H   0  0  0  0  0  0  0  0  0  0  0  0
  131.3898  133.6198  158.8314 H   0  0  0  0  0  0  0  0  0  0  0  0
  130.6118  132.0244  158.6929 H   0  0  0  0  0  0  0  0  0  0  0  0
  130.8447  133.0978  156.4685 H   0  0  0  0  0  0  0  0  0  0  0  0
  129.1311  132.9020  156.9075 H   0  0  0  0  0  0  0  0  0  0  0  0
  127.8478  134.7427  157.6074 H   0  0  0  0  0  0  0  0  0  0  0  0
  128.5647  136.3679  157.7120 H   0  0  0  0  0  0  0  0  0  0  0  0
  129.9230  138.5784  159.8868 H   0  0  0  0  0  0  0  0  0  0  0  0
  130.3453  140.8345  159.6525 H   0  0  0  0  0  0  0  0  0  0  0  0
  129.3588  142.3838  161.3141 H   0  0  0  0  0  0  0  0  0  0  0  0
  130.8096  141.7465  162.1192 H   0  0  0  0  0  0  0  0  0  0  0  0
  127.9296  140.8181  162.4793 H   0  0  0  0  0  0  0  0  0  0  0  0
  128.9941  141.5570  163.7023 H   0  0  0  0  0  0  0  0  0  0  0  0
  128.9720  139.1404  164.0717 H   0  0  0  0  0  0  0  0  0  0  0  0
  130.5664  139.5860  163.4076 H   0  0  0  0  0  0  0  0  0  0  0  0
  1  2  1  0
  1 32  1  0
  1 33  1  0
  1 34  1  0
  2  3  1  6
  2  4  1  0
  2  5  1  0
  4 35  1  0
  5  6  1  1
  5  7  1  0
  5  8  1  0
  7 36  1  0
  7 37  1  0
  7 38  1  0
  8  9  1  0
  8 25  1  0
  9 10  2  0
  9 11  1  0
 11 16  1  0
 11 12  2  0
 12 13  1  0
 12 39  1  0
 13 14  1  0
 13 15  1  0
 15 16  2  0
 16 17  1  0
 17 24  1  0
 17 18  1  0
 17 40  1  1
 18 19  1  0
 18 41  1  0
 18 42  1  0
 19 20  1  0
 19 43  1  0
 19 44  1  0
 20 21  1  0
 20 45  1  0
 20 46  1  0
 21 22  1  0
 21 23  1  0
 21 24  1  0
 24 47  1  0
 24 48  1  0
 25 26  1  6
 25 31  1  0
 25 27  1  0
 27 28  2  0
 27 49  1  0
 28 29  1  0
 28 50  1  0
 29 30  1  0
 29 51  1  0
 29 52  1  0
 30 31  1  0
 30 53  1  0
 30 54  1  0
 31 55  1  0
 31 56  1  0
M  CHG  1  21   1
M  END
>  <DOCK_score>  (1) 
-42.151794

>  <SMILES>  (1) 
C[C@H](O)[C@H](C)N(C(=O)c1c[nH]nc1C1CCC[NH2+]C1)[C@@H]1C=CCCC1

$$$$
