CCc1ccc(-c2c[nH]c(N[C@H](c3ccccc3)c3ccccc3SCc3ccccn3)[nH+]2)cc1
     RDKit          3D

 64 68  0  0  1  0  0  0  0  0999 V2000
  132.1633  129.6521  152.6044 C   0  0  0  0  0  0  0  0  0  0  0  0
  130.7534  129.6539  153.1989 C   0  0  0  0  0  0  0  0  0  0  0  0
  130.7343  130.5037  154.4434 C   0  0  0  0  0  0  0  0  0  0  0  0
  130.4479  131.8539  154.3513 C   0  0  0  0  0  0  0  0  0  0  0  0
  130.4293  132.6370  155.4875 C   0  0  0  0  0  0  0  0  0  0  0  0
  130.6992  132.0650  156.7294 C   0  0  0  0  0  0  0  0  0  0  0  0
  130.6806  132.9015  157.9542 C   0  0  0  0  0  0  0  0  0  0  0  0
  130.3520  132.4830  159.2015 C   0  0  0  0  0  0  0  0  0  0  0  0
  130.4668  133.5722  160.0307 N   0  0  0  0  0  0  0  0  0  0  0  0
  130.2977  133.5876  160.9857 H   0  0  0  0  0  0  0  0  0  0  0  0
  130.8626  134.6255  159.2651 C   0  0  0  0  0  0  0  0  0  0  0  0
  131.0927  135.9122  159.7209 N   0  0  0  0  0  0  0  0  0  0  0  0
  130.9116  136.2302  161.1395 C   0  0  2  0  0  0  0  0  0  0  0  0
  131.5829  135.6147  161.7384 H   0  0  0  0  0  0  0  0  0  0  0  0
  129.4852  135.9522  161.5384 C   0  0  0  0  0  0  0  0  0  0  0  0
  129.1924  135.5644  162.8324 C   0  0  0  0  0  0  0  0  0  0  0  0
  127.8836  135.3132  163.1995 C   0  0  0  0  0  0  0  0  0  0  0  0
  126.8685  135.4414  162.2698 C   0  0  0  0  0  0  0  0  0  0  0  0
  127.1617  135.8246  160.9745 C   0  0  0  0  0  0  0  0  0  0  0  0
  128.4701  136.0796  160.6087 C   0  0  0  0  0  0  0  0  0  0  0  0
  131.2236  137.6861  161.3717 C   0  0  0  0  0  0  0  0  0  0  0  0
  130.2228  138.6324  161.2699 C   0  0  0  0  0  0  0  0  0  0  0  0
  130.5081  139.9686  161.4833 C   0  0  0  0  0  0  0  0  0  0  0  0
  131.7962  140.3624  161.7995 C   0  0  0  0  0  0  0  0  0  0  0  0
  132.8002  139.4213  161.9087 C   0  0  0  0  0  0  0  0  0  0  0  0
  132.5184  138.0780  161.6892 C   0  0  0  0  0  0  0  0  0  0  0  0
  133.7984  136.8743  161.8202 S   0  0  0  0  0  0  0  0  0  0  0  0
  134.3614  137.0622  163.5343 C   0  0  0  0  0  0  0  0  0  0  0  0
  135.7430  136.4771  163.6762 C   0  0  0  0  0  0  0  0  0  0  0  0
  136.8493  137.2787  163.4662 C   0  0  0  0  0  0  0  0  0  0  0  0
  138.1156  136.7307  163.5998 C   0  0  0  0  0  0  0  0  0  0  0  0
  138.2223  135.3908  163.9411 C   0  0  0  0  0  0  0  0  0  0  0  0
  137.0711  134.6502  164.1296 C   0  0  0  0  0  0  0  0  0  0  0  0
  135.8823  135.2063  163.9996 N   0  0  0  0  0  0  0  0  0  0  0  0
  130.9846  134.2220  158.0240 N   0  0  0  0  0  0  0  0  0  0  0  0
  131.2512  134.7781  157.2754 H   0  0  0  0  0  0  0  0  0  0  0  0
  130.9922  130.7052  156.8156 C   0  0  0  0  0  0  0  0  0  0  0  0
  131.0023  129.9305  155.6734 C   0  0  0  0  0  0  0  0  0  0  0  0
  132.8644  129.2453  153.3332 H   0  0  0  0  0  0  0  0  0  0  0  0
  132.1772  129.0375  151.7043 H   0  0  0  0  0  0  0  0  0  0  0  0
  132.4525  130.6723  152.3522 H   0  0  0  0  0  0  0  0  0  0  0  0
  130.4642  128.6337  153.4512 H   0  0  0  0  0  0  0  0  0  0  0  0
  130.0524  130.0607  152.4702 H   0  0  0  0  0  0  0  0  0  0  0  0
  130.2390  132.2962  153.3883 H   0  0  0  0  0  0  0  0  0  0  0  0
  130.2057  133.6912  155.4144 H   0  0  0  0  0  0  0  0  0  0  0  0
  130.0561  131.4847  159.4880 H   0  0  0  0  0  0  0  0  0  0  0  0
  131.3739  136.6033  159.1010 H   0  0  0  0  0  0  0  0  0  0  0  0
  129.9860  135.4606  163.5577 H   0  0  0  0  0  0  0  0  0  0  0  0
  127.6545  135.0135  164.2113 H   0  0  0  0  0  0  0  0  0  0  0  0
  125.8462  135.2419  162.5556 H   0  0  0  0  0  0  0  0  0  0  0  0
  126.3687  135.9243  160.2482 H   0  0  0  0  0  0  0  0  0  0  0  0
  128.6993  136.3786  159.5965 H   0  0  0  0  0  0  0  0  0  0  0  0
  129.2163  138.3286  161.0235 H   0  0  0  0  0  0  0  0  0  0  0  0
  129.7235  140.7064  161.4029 H   0  0  0  0  0  0  0  0  0  0  0  0
  132.0154  141.4069  161.9644 H   0  0  0  0  0  0  0  0  0  0  0  0
  133.8045  139.7291  162.1598 H   0  0  0  0  0  0  0  0  0  0  0  0
  133.6754  136.5403  164.2014 H   0  0  0  0  0  0  0  0  0  0  0  0
  134.3866  138.1204  163.7944 H   0  0  0  0  0  0  0  0  0  0  0  0
  136.7286  138.3189  163.2019 H   0  0  0  0  0  0  0  0  0  0  0  0
  138.9981  137.3330  163.4422 H   0  0  0  0  0  0  0  0  0  0  0  0
  139.1931  134.9309  164.0536 H   0  0  0  0  0  0  0  0  0  0  0  0
  137.1457  133.6049  164.3907 H   0  0  0  0  0  0  0  0  0  0  0  0
  131.2068  130.2576  157.7747 H   0  0  0  0  0  0  0  0  0  0  0  0
  131.2248  128.8758  155.7395 H   0  0  0  0  0  0  0  0  0  0  0  0
  1  2  1  0
  1 39  1  0
  1 40  1  0
  1 41  1  0
  2  3  1  0
  2 42  1  0
  2 43  1  0
  3 38  2  0
  3  4  1  0
  4  5  2  0
  4 44  1  0
  5  6  1  0
  5 45  1  0
  6  7  1  0
  6 37  2  0
  7 35  1  0
  7  8  2  0
  8  9  1  0
  8 46  1  0
  9 10  1  0
  9 11  1  0
 11 12  1  0
 11 35  2  0
 12 13  1  0
 12 47  1  0
 13 14  1  1
 13 15  1  0
 13 21  1  0
 15 20  1  0
 15 16  2  0
 16 17  1  0
 16 48  1  0
 17 18  2  0
 17 49  1  0
 18 19  1  0
 18 50  1  0
 19 20  2  0
 19 51  1  0
 20 52  1  0
 21 26  1  0
 21 22  2  0
 22 23  1  0
 22 53  1  0
 23 24  2  0
 23 54  1  0
 24 25  1  0
 24 55  1  0
 25 26  2  0
 25 56  1  0
 26 27  1  0
 27 28  1  0
 28 29  1  0
 28 57  1  0
 28 58  1  0
 29 34  1  0
 29 30  2  0
 30 31  1  0
 30 59  1  0
 31 32  2  0
 31 60  1  0
 32 33  1  0
 32 61  1  0
 33 34  2  0
 33 62  1  0
 35 36  1  0
 37 38  1  0
 37 63  1  0
 38 64  1  0
M  CHG  1  35   1
M  END
>  <DOCK_score>  (1) 
-58.238663

>  <SMILES>  (1) 
CCc1ccc(-c2c[nH]c(N[C@H](c3ccccc3)c3ccccc3SCc3ccccn3)[nH+]2)cc1

$$$$
