C[C@H](NC(=O)C1=CC[NH+](Cc2cccc3ccccc23)CC1)C1=CC(CBr)C=CC1
     RDKit          3D

 60 63  0  0  1  0  0  0  0  0999 V2000
  128.5889  135.8475  157.1295 C   0  0  0  0  0  0  0  0  0  0  0  0
  128.8587  135.0012  158.3754 C   0  0  2  0  0  0  0  0  0  0  0  0
  127.9986  135.0531  159.0430 H   0  0  0  0  0  0  0  0  0  0  0  0
  130.0447  135.5133  159.0661 N   0  0  0  0  0  0  0  0  0  0  0  0
  130.1524  135.3875  160.4037 C   0  0  0  0  0  0  0  0  0  0  0  0
  129.2649  134.8488  161.0372 O   0  0  0  0  0  0  0  0  0  0  0  0
  131.3434  135.9015  161.0974 C   0  0  0  0  0  0  0  0  0  0  0  0
  132.4957  135.9232  160.4537 C   0  0  0  0  0  0  0  0  0  0  0  0
  133.7700  136.4234  161.0754 C   0  0  0  0  0  0  0  0  0  0  0  0
  133.4724  137.2452  162.2543 N   0  0  1  0  0  0  0  0  0  0  0  0
  134.3312  137.4729  162.7327 H   0  0  0  0  0  0  0  0  0  0  0  0
  132.8009  138.4824  161.8343 C   0  0  0  0  0  0  0  0  0  0  0  0
  133.7013  139.2510  160.9017 C   0  0  0  0  0  0  0  0  0  0  0  0
  133.6412  139.0339  159.5592 C   0  0  0  0  0  0  0  0  0  0  0  0
  134.4654  139.7353  158.6816 C   0  0  0  0  0  0  0  0  0  0  0  0
  135.3547  140.6579  159.1412 C   0  0  0  0  0  0  0  0  0  0  0  0
  135.4453  140.9091  160.5206 C   0  0  0  0  0  0  0  0  0  0  0  0
  136.3508  141.8542  161.0326 C   0  0  0  0  0  0  0  0  0  0  0  0
  136.4102  142.0713  162.3748 C   0  0  0  0  0  0  0  0  0  0  0  0
  135.5858  141.3697  163.2526 C   0  0  0  0  0  0  0  0  0  0  0  0
  134.6971  140.4471  162.7932 C   0  0  0  0  0  0  0  0  0  0  0  0
  134.6069  140.1956  161.4133 C   0  0  0  0  0  0  0  0  0  0  0  0
  132.5911  136.4889  163.1578 C   0  0  0  0  0  0  0  0  0  0  0  0
  131.2056  136.3846  162.5150 C   0  0  0  0  0  0  0  0  0  0  0  0
  129.0933  133.5693  157.9687 C   0  0  0  0  0  0  0  0  0  0  0  0
  128.2986  132.6536  158.4330 C   0  0  0  0  0  0  0  0  0  0  0  0
  128.4407  131.2019  158.0861 C   0  0  2  0  0  0  0  0  0  0  0  0
  128.1676  130.3622  159.3357 C   0  0  0  0  0  0  0  0  0  0  0  0
  126.2269  130.2018  159.6062 Br  0  0  0  0  0  0  0  0  0  0  0  0
  129.8199  130.8994  157.5826 C   0  0  0  0  0  0  0  0  0  0  0  0
  130.6179  131.8144  157.1226 C   0  0  0  0  0  0  0  0  0  0  0  0
  130.2380  133.2629  157.0504 C   0  0  0  0  0  0  0  0  0  0  0  0
  129.4490  135.7957  156.4619 H   0  0  0  0  0  0  0  0  0  0  0  0
  127.7065  135.4666  156.6156 H   0  0  0  0  0  0  0  0  0  0  0  0
  128.4192  136.8832  157.4237 H   0  0  0  0  0  0  0  0  0  0  0  0
  130.7526  135.9429  158.5609 H   0  0  0  0  0  0  0  0  0  0  0  0
  132.5247  135.5655  159.4350 H   0  0  0  0  0  0  0  0  0  0  0  0
  134.3178  137.0221  160.3476 H   0  0  0  0  0  0  0  0  0  0  0  0
  134.3836  135.5735  161.3739 H   0  0  0  0  0  0  0  0  0  0  0  0
  132.5805  139.0917  162.7108 H   0  0  0  0  0  0  0  0  0  0  0  0
  131.8717  138.2352  161.3206 H   0  0  0  0  0  0  0  0  0  0  0  0
  132.9440  138.3075  159.1685 H   0  0  0  0  0  0  0  0  0  0  0  0
  134.3974  139.5443  157.6208 H   0  0  0  0  0  0  0  0  0  0  0  0
  135.9841  141.1970  158.4486 H   0  0  0  0  0  0  0  0  0  0  0  0
  136.9959  142.4053  160.3644 H   0  0  0  0  0  0  0  0  0  0  0  0
  137.1071  142.7980  162.7655 H   0  0  0  0  0  0  0  0  0  0  0  0
  135.6534  141.5609  164.3134 H   0  0  0  0  0  0  0  0  0  0  0  0
  134.0648  139.9108  163.4852 H   0  0  0  0  0  0  0  0  0  0  0  0
  132.9979  135.4900  163.3143 H   0  0  0  0  0  0  0  0  0  0  0  0
  132.5132  137.0088  164.1128 H   0  0  0  0  0  0  0  0  0  0  0  0
  130.5950  135.6808  163.0807 H   0  0  0  0  0  0  0  0  0  0  0  0
  130.7285  137.3646  162.5195 H   0  0  0  0  0  0  0  0  0  0  0  0
  127.4979  132.9510  159.0938 H   0  0  0  0  0  0  0  0  0  0  0  0
  127.7144  130.9427  157.3159 H   0  0  0  0  0  0  0  0  0  0  0  0
  128.5999  129.3699  159.2083 H   0  0  0  0  0  0  0  0  0  0  0  0
  128.6167  130.8456  160.2035 H   0  0  0  0  0  0  0  0  0  0  0  0
  130.1647  129.8761  157.6033 H   0  0  0  0  0  0  0  0  0  0  0  0
  131.5974  131.5194  156.7767 H   0  0  0  0  0  0  0  0  0  0  0  0
  129.9504  133.5061  156.0275 H   0  0  0  0  0  0  0  0  0  0  0  0
  131.0966  133.8711  157.3343 H   0  0  0  0  0  0  0  0  0  0  0  0
  1  2  1  0
  1 33  1  0
  1 34  1  0
  1 35  1  0
  2  3  1  1
  2  4  1  0
  2 25  1  0
  4  5  1  0
  4 36  1  0
  5  6  2  0
  5  7  1  0
  7 24  1  0
  7  8  2  0
  8  9  1  0
  8 37  1  0
  9 10  1  0
  9 38  1  0
  9 39  1  0
 10 11  1  1
 10 12  1  0
 10 23  1  0
 12 13  1  0
 12 40  1  0
 12 41  1  0
 13 22  1  0
 13 14  2  0
 14 15  1  0
 14 42  1  0
 15 16  2  0
 15 43  1  0
 16 17  1  0
 16 44  1  0
 17 22  2  0
 17 18  1  0
 18 19  2  0
 18 45  1  0
 19 20  1  0
 19 46  1  0
 20 21  2  0
 20 47  1  0
 21 22  1  0
 21 48  1  0
 23 24  1  0
 23 49  1  0
 23 50  1  0
 24 51  1  0
 24 52  1  0
 25 32  1  0
 25 26  2  0
 26 27  1  0
 26 53  1  0
 27 28  1  0
 27 30  1  0
 27 54  1  6
 28 29  1  0
 28 55  1  0
 28 56  1  0
 30 31  2  0
 30 57  1  0
 31 32  1  0
 31 58  1  0
 32 59  1  0
 32 60  1  0
M  CHG  1  10   1
M  END
>  <DOCK_score>  (1) 
-57.432869

>  <SMILES>  (1) 
C[C@H](NC(=O)C1=CC[NH+](Cc2cccc3ccccc23)CC1)C1=CC(CBr)C=CC1

$$$$
