CC(C)n1nccc1NC(c1ccccc1)[C@@H](Nc1[nH]cc(-c2ccc(N)cc2)[nH+]1)c1ccccc1
     RDKit          3D

 68 72  0  0  1  0  0  0  0  0999 V2000
  126.6550  133.2318  159.0526 C   0  0  0  0  0  0  0  0  0  0  0  0
  127.1797  134.2315  160.0853 C   0  0  0  0  0  0  0  0  0  0  0  0
  126.0001  134.9323  160.7620 C   0  0  0  0  0  0  0  0  0  0  0  0
  128.0215  135.2271  159.4173 N   0  0  0  0  0  0  0  0  0  0  0  0
  127.8829  135.6701  158.0957 N   0  0  0  0  0  0  0  0  0  0  0  0
  128.8111  136.5614  157.8596 C   0  0  0  0  0  0  0  0  0  0  0  0
  129.5804  136.7119  159.0169 C   0  0  0  0  0  0  0  0  0  0  0  0
  129.0732  135.8770  159.9657 C   0  0  0  0  0  0  0  0  0  0  0  0
  129.5505  135.7207  161.2640 N   0  0  0  0  0  0  0  0  0  0  0  0
  130.7059  136.4984  161.7181 C   0  0  1  0  0  0  0  0  0  0  0  0
  130.5944  136.7448  163.2006 C   0  0  0  0  0  0  0  0  0  0  0  0
  129.9494  137.8750  163.6668 C   0  0  0  0  0  0  0  0  0  0  0  0
  129.8428  138.0985  165.0269 C   0  0  0  0  0  0  0  0  0  0  0  0
  130.3904  137.1971  165.9204 C   0  0  0  0  0  0  0  0  0  0  0  0
  131.0401  136.0694  165.4540 C   0  0  0  0  0  0  0  0  0  0  0  0
  131.1420  135.8433  164.0943 C   0  0  0  0  0  0  0  0  0  0  0  0
  131.9908  135.7208  161.4255 C   0  0  1  0  0  0  0  0  0  0  0  0
  131.9657  134.7665  161.9515 H   0  0  0  0  0  0  0  0  0  0  0  0
  132.0992  135.4814  159.9843 N   0  0  0  0  0  0  0  0  0  0  0  0
  131.5544  134.3357  159.4300 C   0  0  0  0  0  0  0  0  0  0  0  0
  130.8914  133.3631  160.1126 N   0  0  0  0  0  0  0  0  0  0  0  0
  130.7175  133.3473  161.0667 H   0  0  0  0  0  0  0  0  0  0  0  0
  130.5141  132.4065  159.2001 C   0  0  0  0  0  0  0  0  0  0  0  0
  130.9572  132.8228  157.9881 C   0  0  0  0  0  0  0  0  0  0  0  0
  130.7792  132.1076  156.7006 C   0  0  0  0  0  0  0  0  0  0  0  0
  130.0858  132.7150  155.6549 C   0  0  0  0  0  0  0  0  0  0  0  0
  129.9265  132.0506  154.4570 C   0  0  0  0  0  0  0  0  0  0  0  0
  130.4467  130.7718  154.2959 C   0  0  0  0  0  0  0  0  0  0  0  0
  130.2794  130.0982  153.0835 N   0  0  0  0  0  0  0  0  0  0  0  0
  131.1333  130.1621  155.3391 C   0  0  0  0  0  0  0  0  0  0  0  0
  131.3000  130.8250  156.5367 C   0  0  0  0  0  0  0  0  0  0  0  0
  131.5871  134.0120  158.1603 N   0  0  0  0  0  0  0  0  0  0  0  0
  131.9980  134.5378  157.4562 H   0  0  0  0  0  0  0  0  0  0  0  0
  133.1794  136.5208  161.8926 C   0  0  0  0  0  0  0  0  0  0  0  0
  134.3213  135.8734  162.3256 C   0  0  0  0  0  0  0  0  0  0  0  0
  135.4133  136.6073  162.7500 C   0  0  0  0  0  0  0  0  0  0  0  0
  135.3603  137.9881  162.7496 C   0  0  0  0  0  0  0  0  0  0  0  0
  134.2162  138.6360  162.3214 C   0  0  0  0  0  0  0  0  0  0  0  0
  133.1257  137.9022  161.8931 C   0  0  0  0  0  0  0  0  0  0  0  0
  126.0669  133.7599  158.3020 H   0  0  0  0  0  0  0  0  0  0  0  0
  126.0288  132.4910  159.5498 H   0  0  0  0  0  0  0  0  0  0  0  0
  127.4955  132.7325  158.5705 H   0  0  0  0  0  0  0  0  0  0  0  0
  127.7679  133.7035  160.8359 H   0  0  0  0  0  0  0  0  0  0  0  0
  125.3739  134.1915  161.2590 H   0  0  0  0  0  0  0  0  0  0  0  0
  126.3738  135.6445  161.4976 H   0  0  0  0  0  0  0  0  0  0  0  0
  125.4120  135.4603  160.0113 H   0  0  0  0  0  0  0  0  0  0  0  0
  128.9605  137.0875  156.9282 H   0  0  0  0  0  0  0  0  0  0  0  0
  130.4266  137.3721  159.1371 H   0  0  0  0  0  0  0  0  0  0  0  0
  129.1179  135.0971  161.8680 H   0  0  0  0  0  0  0  0  0  0  0  0
  130.7311  137.4527  161.1920 H   0  0  0  0  0  0  0  0  0  0  0  0
  129.5255  138.5815  162.9687 H   0  0  0  0  0  0  0  0  0  0  0  0
  129.3357  138.9797  165.3912 H   0  0  0  0  0  0  0  0  0  0  0  0
  130.3111  137.3740  166.9829 H   0  0  0  0  0  0  0  0  0  0  0  0
  131.4680  135.3654  166.1523 H   0  0  0  0  0  0  0  0  0  0  0  0
  131.6497  134.9624  163.7298 H   0  0  0  0  0  0  0  0  0  0  0  0
  132.5527  136.1257  159.4184 H   0  0  0  0  0  0  0  0  0  0  0  0
  129.9691  131.4978  159.4085 H   0  0  0  0  0  0  0  0  0  0  0  0
  129.6773  133.7068  155.7813 H   0  0  0  0  0  0  0  0  0  0  0  0
  129.3929  132.5223  153.6452 H   0  0  0  0  0  0  0  0  0  0  0  0
  130.6424  129.2062  152.9700 H   0  0  0  0  0  0  0  0  0  0  0  0
  129.8003  130.5234  152.3548 H   0  0  0  0  0  0  0  0  0  0  0  0
  131.5364  129.1683  155.2119 H   0  0  0  0  0  0  0  0  0  0  0  0
  131.8340  130.3510  157.3470 H   0  0  0  0  0  0  0  0  0  0  0  0
  134.3617  134.7941  162.3295 H   0  0  0  0  0  0  0  0  0  0  0  0
  136.3071  136.1015  163.0841 H   0  0  0  0  0  0  0  0  0  0  0  0
  136.2120  138.5620  163.0836 H   0  0  0  0  0  0  0  0  0  0  0  0
  134.1745  139.7152  162.3212 H   0  0  0  0  0  0  0  0  0  0  0  0
  132.2321  138.4080  161.5587 H   0  0  0  0  0  0  0  0  0  0  0  0
  1  2  1  0
  1 40  1  0
  1 41  1  0
  1 42  1  0
  2  3  1  0
  2  4  1  0
  2 43  1  0
  3 44  1  0
  3 45  1  0
  3 46  1  0
  4  8  1  0
  4  5  1  0
  5  6  2  0
  6  7  1  0
  6 47  1  0
  7  8  2  0
  7 48  1  0
  8  9  1  0
  9 10  1  0
  9 49  1  0
 10 11  1  0
 10 17  1  0
 10 50  1  6
 11 16  1  0
 11 12  2  0
 12 13  1  0
 12 51  1  0
 13 14  2  0
 13 52  1  0
 14 15  1  0
 14 53  1  0
 15 16  2  0
 15 54  1  0
 16 55  1  0
 17 18  1  1
 17 19  1  0
 17 34  1  0
 19 56  1  0
 20 19  1  0
 20 32  2  0
 20 21  1  0
 21 22  1  0
 21 23  1  0
 23 24  2  0
 23 57  1  0
 24 25  1  0
 24 32  1  0
 25 31  1  0
 25 26  2  0
 26 27  1  0
 26 58  1  0
 27 28  2  0
 27 59  1  0
 28 29  1  0
 28 30  1  0
 29 60  1  0
 29 61  1  0
 30 31  2  0
 30 62  1  0
 31 63  1  0
 32 33  1  0
 34 39  1  0
 34 35  2  0
 35 36  1  0
 35 64  1  0
 36 37  2  0
 36 65  1  0
 37 38  1  0
 37 66  1  0
 38 39  2  0
 38 67  1  0
 39 68  1  0
M  CHG  1  32   1
M  END
>  <DOCK_score>  (1) 
-61.19278

>  <SMILES>  (1) 
CC(C)n1nccc1NC(c1ccccc1)[C@@H](Nc1[nH]cc(-c2ccc(N)cc2)[nH+]1)c1ccccc1

$$$$
