C=C1CCC[C@@H]1Sc1cc(C)ccc1Nc1[nH]cc(-c2ccc(N)cc2)[nH+]1
     RDKit          3D

 52 55  0  0  1  0  0  0  0  0999 V2000
  134.4485  137.8207  159.3705 C   0  0  0  0  0  0  0  0  0  0  0  0
  133.6539  138.4337  160.2125 C   0  0  0  0  0  0  0  0  0  0  0  0
  134.0490  139.5244  161.1934 C   0  0  0  0  0  0  0  0  0  0  0  0
  132.7325  140.2935  161.4668 C   0  0  0  0  0  0  0  0  0  0  0  0
  131.6818  139.1542  161.4863 C   0  0  0  0  0  0  0  0  0  0  0  0
  132.1703  138.1859  160.3891 C   0  0  2  0  0  0  0  0  0  0  0  0
  131.6453  138.3859  159.4551 H   0  0  0  0  0  0  0  0  0  0  0  0
  131.8855  136.4702  160.9049 S   0  0  0  0  0  0  0  0  0  0  0  0
  130.1318  136.3869  161.0532 C   0  0  0  0  0  0  0  0  0  0  0  0
  129.5205  136.6863  162.2623 C   0  0  0  0  0  0  0  0  0  0  0  0
  128.1445  136.6207  162.3760 C   0  0  0  0  0  0  0  0  0  0  0  0
  127.4833  136.9402  163.6920 C   0  0  0  0  0  0  0  0  0  0  0  0
  127.3732  136.2570  161.2875 C   0  0  0  0  0  0  0  0  0  0  0  0
  127.9735  135.9568  160.0785 C   0  0  0  0  0  0  0  0  0  0  0  0
  129.3531  136.0199  159.9549 C   0  0  0  0  0  0  0  0  0  0  0  0
  129.9633  135.7168  158.7313 N   0  0  0  0  0  0  0  0  0  0  0  0
  129.7980  134.4630  158.1669 C   0  0  0  0  0  0  0  0  0  0  0  0
  129.0754  133.4414  158.7026 N   0  0  0  0  0  0  0  0  0  0  0  0
  128.5880  133.4601  159.5411 H   0  0  0  0  0  0  0  0  0  0  0  0
  129.1616  132.3795  157.8342 C   0  0  0  0  0  0  0  0  0  0  0  0
  129.9410  132.7799  156.7992 C   0  0  0  0  0  0  0  0  0  0  0  0
  130.3160  131.9603  155.6208 C   0  0  0  0  0  0  0  0  0  0  0  0
  129.9575  132.3752  154.3393 C   0  0  0  0  0  0  0  0  0  0  0  0
  130.3109  131.6140  153.2452 C   0  0  0  0  0  0  0  0  0  0  0  0
  131.0150  130.4293  153.4196 C   0  0  0  0  0  0  0  0  0  0  0  0
  131.3672  129.6563  152.3107 N   0  0  0  0  0  0  0  0  0  0  0  0
  131.3696  130.0108  154.6973 C   0  0  0  0  0  0  0  0  0  0  0  0
  131.0227  130.7712  155.7940 C   0  0  0  0  0  0  0  0  0  0  0  0
  130.3164  134.0623  157.0314 N   0  0  0  0  0  0  0  0  0  0  0  0
  130.8788  134.5975  156.4500 H   0  0  0  0  0  0  0  0  0  0  0  0
  134.0424  137.1153  158.6606 H   0  0  0  0  0  0  0  0  0  0  0  0
  135.5097  138.0206  159.3864 H   0  0  0  0  0  0  0  0  0  0  0  0
  134.7912  140.1866  160.7474 H   0  0  0  0  0  0  0  0  0  0  0  0
  134.4340  139.0890  162.1156 H   0  0  0  0  0  0  0  0  0  0  0  0
  132.5228  141.0005  160.6642 H   0  0  0  0  0  0  0  0  0  0  0  0
  132.7726  140.8004  162.4308 H   0  0  0  0  0  0  0  0  0  0  0  0
  130.6924  139.5415  161.2426 H   0  0  0  0  0  0  0  0  0  0  0  0
  131.6717  138.6593  162.4573 H   0  0  0  0  0  0  0  0  0  0  0  0
  130.1199  136.9703  163.1147 H   0  0  0  0  0  0  0  0  0  0  0  0
  127.2541  138.0050  163.7342 H   0  0  0  0  0  0  0  0  0  0  0  0
  126.5614  136.3661  163.7842 H   0  0  0  0  0  0  0  0  0  0  0  0
  128.1564  136.6807  164.5092 H   0  0  0  0  0  0  0  0  0  0  0  0
  126.2984  136.2074  161.3817 H   0  0  0  0  0  0  0  0  0  0  0  0
  127.3677  135.6732  159.2306 H   0  0  0  0  0  0  0  0  0  0  0  0
  130.5017  136.3851  158.2791 H   0  0  0  0  0  0  0  0  0  0  0  0
  128.7009  131.4102  157.9554 H   0  0  0  0  0  0  0  0  0  0  0  0
  129.4064  133.2941  154.2032 H   0  0  0  0  0  0  0  0  0  0  0  0
  130.0365  131.9371  152.2518 H   0  0  0  0  0  0  0  0  0  0  0  0
  131.8585  128.8288  152.4320 H   0  0  0  0  0  0  0  0  0  0  0  0
  131.1202  129.9474  151.4191 H   0  0  0  0  0  0  0  0  0  0  0  0
  131.9170  129.0894  154.8310 H   0  0  0  0  0  0  0  0  0  0  0  0
  131.2976  130.4455  156.7864 H   0  0  0  0  0  0  0  0  0  0  0  0
  1  2  2  0
  1 31  1  0
  1 32  1  0
  2  6  1  0
  2  3  1  0
  3  4  1  0
  3 33  1  0
  3 34  1  0
  4  5  1  0
  4 35  1  0
  4 36  1  0
  5  6  1  0
  5 37  1  0
  5 38  1  0
  6  7  1  6
  6  8  1  0
  8  9  1  0
  9 15  1  0
  9 10  2  0
 10 11  1  0
 10 39  1  0
 11 12  1  0
 11 13  2  0
 12 40  1  0
 12 41  1  0
 12 42  1  0
 13 14  1  0
 13 43  1  0
 14 15  2  0
 14 44  1  0
 15 16  1  0
 16 45  1  0
 17 16  1  0
 17 29  2  0
 17 18  1  0
 18 19  1  0
 18 20  1  0
 20 21  2  0
 20 46  1  0
 21 22  1  0
 21 29  1  0
 22 28  1  0
 22 23  2  0
 23 24  1  0
 23 47  1  0
 24 25  2  0
 24 48  1  0
 25 26  1  0
 25 27  1  0
 26 49  1  0
 26 50  1  0
 27 28  2  0
 27 51  1  0
 28 52  1  0
 29 30  1  0
M  CHG  1  29   1
M  END
>  <DOCK_score>  (1) 
-56.010483

>  <SMILES>  (1) 
C=C1CCC[C@@H]1Sc1cc(C)ccc1Nc1[nH]cc(-c2ccc(N)cc2)[nH+]1

$$$$
