Cc1ccc(C)c(NC(=O)[C@@H](Cc2cnn(C)c2)Nc2[nH]c3ccccc3[nH+]2)c1
     RDKit          3D

 54 57  0  0  1  0  0  0  0  0999 V2000
  135.5845  139.8787  164.0777 C   0  0  0  0  0  0  0  0  0  0  0  0
  135.4122  139.5700  162.6128 C   0  0  0  0  0  0  0  0  0  0  0  0
  136.3671  139.9848  161.7023 C   0  0  0  0  0  0  0  0  0  0  0  0
  136.2126  139.7035  160.3576 C   0  0  0  0  0  0  0  0  0  0  0  0
  135.1031  139.0075  159.9190 C   0  0  0  0  0  0  0  0  0  0  0  0
  134.9350  138.7022  158.4528 C   0  0  0  0  0  0  0  0  0  0  0  0
  134.1425  138.5896  160.8304 C   0  0  0  0  0  0  0  0  0  0  0  0
  133.0172  137.8846  160.3893 N   0  0  0  0  0  0  0  0  0  0  0  0
  132.4248  136.9854  161.1999 C   0  0  0  0  0  0  0  0  0  0  0  0
  132.8673  136.7873  162.3117 O   0  0  0  0  0  0  0  0  0  0  0  0
  131.2164  136.2219  160.7226 C   0  0  1  0  0  0  0  0  0  0  0  0
  130.8822  135.5432  161.5074 H   0  0  0  0  0  0  0  0  0  0  0  0
  130.0931  137.2041  160.3852 C   0  0  0  0  0  0  0  0  0  0  0  0
  128.8846  136.4407  159.9079 C   0  0  0  0  0  0  0  0  0  0  0  0
  128.6027  136.0907  158.5834 C   0  0  0  0  0  0  0  0  0  0  0  0
  127.4720  135.4326  158.5664 N   0  0  0  0  0  0  0  0  0  0  0  0
  126.9930  135.3516  159.8802 N   0  0  0  0  0  0  0  0  0  0  0  0
  125.7507  134.7023  160.3062 C   0  0  0  0  0  0  0  0  0  0  0  0
  127.8776  135.9777  160.6843 C   0  0  0  0  0  0  0  0  0  0  0  0
  131.5667  135.4512  159.5270 N   0  0  0  0  0  0  0  0  0  0  0  0
  131.4445  134.0817  159.5317 C   0  0  0  0  0  0  0  0  0  0  0  0
  131.7285  133.2874  158.5019 N   0  0  0  0  0  0  0  0  0  0  0  0
  132.0517  133.5772  157.6345 H   0  0  0  0  0  0  0  0  0  0  0  0
  131.4897  131.9910  158.8755 C   0  0  0  0  0  0  0  0  0  0  0  0
  131.6075  130.7647  158.2276 C   0  0  0  0  0  0  0  0  0  0  0  0
  131.2724  129.6044  158.8913 C   0  0  0  0  0  0  0  0  0  0  0  0
  130.8183  129.6494  160.2013 C   0  0  0  0  0  0  0  0  0  0  0  0
  130.6958  130.8551  160.8574 C   0  0  0  0  0  0  0  0  0  0  0  0
  131.0299  132.0365  160.2019 C   0  0  0  0  0  0  0  0  0  0  0  0
  131.0195  133.3577  160.5647 N   0  0  0  0  0  0  0  0  0  0  0  0
  130.7477  133.7066  161.4281 H   0  0  0  0  0  0  0  0  0  0  0  0
  134.2982  138.8779  162.1801 C   0  0  0  0  0  0  0  0  0  0  0  0
  135.1203  140.8386  164.3038 H   0  0  0  0  0  0  0  0  0  0  0  0
  135.1108  139.0971  164.6718 H   0  0  0  0  0  0  0  0  0  0  0  0
  136.6469  139.9235  164.3170 H   0  0  0  0  0  0  0  0  0  0  0  0
  137.2351  140.5298  162.0428 H   0  0  0  0  0  0  0  0  0  0  0  0
  136.9601  140.0287  159.6491 H   0  0  0  0  0  0  0  0  0  0  0  0
  134.3892  139.5144  157.9728 H   0  0  0  0  0  0  0  0  0  0  0  0
  135.9158  138.5993  157.9883 H   0  0  0  0  0  0  0  0  0  0  0  0
  134.3786  137.7721  158.3368 H   0  0  0  0  0  0  0  0  0  0  0  0
  132.6634  138.0431  159.5002 H   0  0  0  0  0  0  0  0  0  0  0  0
  129.8325  137.7776  161.2748 H   0  0  0  0  0  0  0  0  0  0  0  0
  130.4272  137.8828  159.6005 H   0  0  0  0  0  0  0  0  0  0  0  0
  129.2144  136.3210  157.7236 H   0  0  0  0  0  0  0  0  0  0  0  0
  124.9356  135.4256  160.2811 H   0  0  0  0  0  0  0  0  0  0  0  0
  125.5236  133.8755  159.6333 H   0  0  0  0  0  0  0  0  0  0  0  0
  125.8685  134.3229  161.3212 H   0  0  0  0  0  0  0  0  0  0  0  0
  127.7967  136.0889  161.7554 H   0  0  0  0  0  0  0  0  0  0  0  0
  131.8848  135.9070  158.7320 H   0  0  0  0  0  0  0  0  0  0  0  0
  131.9607  130.7227  157.2078 H   0  0  0  0  0  0  0  0  0  0  0  0
  131.3644  128.6533  158.3881 H   0  0  0  0  0  0  0  0  0  0  0  0
  130.5585  128.7331  160.7104 H   0  0  0  0  0  0  0  0  0  0  0  0
  130.3419  130.8831  161.8775 H   0  0  0  0  0  0  0  0  0  0  0  0
  133.5506  138.5581  162.8910 H   0  0  0  0  0  0  0  0  0  0  0  0
  1  2  1  0
  1 33  1  0
  1 34  1  0
  1 35  1  0
  2 32  2  0
  2  3  1  0
  3  4  2  0
  3 36  1  0
  4  5  1  0
  4 37  1  0
  5  6  1  0
  5  7  2  0
  6 38  1  0
  6 39  1  0
  6 40  1  0
  7  8  1  0
  7 32  1  0
  8  9  1  0
  8 41  1  0
  9 10  2  0
  9 11  1  0
 11 12  1  1
 11 13  1  0
 11 20  1  0
 13 14  1  0
 13 42  1  0
 13 43  1  0
 14 19  2  0
 14 15  1  0
 15 16  2  0
 15 44  1  0
 16 17  1  0
 17 18  1  0
 17 19  1  0
 18 45  1  0
 18 46  1  0
 18 47  1  0
 19 48  1  0
 20 21  1  0
 20 49  1  0
 21 30  1  0
 21 22  2  0
 22 23  1  0
 22 24  1  0
 24 29  2  0
 24 25  1  0
 25 26  2  0
 25 50  1  0
 26 27  1  0
 26 51  1  0
 27 28  2  0
 27 52  1  0
 28 29  1  0
 28 53  1  0
 29 30  1  0
 30 31  1  0
 32 54  1  0
M  CHG  1  22   1
M  END
>  <DOCK_score>  (1) 
-60.71209

>  <SMILES>  (1) 
Cc1ccc(C)c(NC(=O)[C@@H](Cc2cnn(C)c2)Nc2[nH]c3ccccc3[nH+]2)c1

$$$$
