Nc1ccc(-c2c[nH]c(N[C@@H](C3=CN(c4ccccc4)CCC3)c3ccccc3)[nH+]2)cc1
     RDKit          3D

 60 64  0  0  1  0  0  0  0  0999 V2000
  131.3835  129.6183  152.0115 N   0  0  0  0  0  0  0  0  0  0  0  0
  131.1173  130.2720  153.2171 C   0  0  0  0  0  0  0  0  0  0  0  0
  130.1925  131.3081  153.2560 C   0  0  0  0  0  0  0  0  0  0  0  0
  129.9244  131.9505  154.4463 C   0  0  0  0  0  0  0  0  0  0  0  0
  130.5902  131.5669  155.6094 C   0  0  0  0  0  0  0  0  0  0  0  0
  130.3072  132.2599  156.8902 C   0  0  0  0  0  0  0  0  0  0  0  0
  129.8354  131.6823  158.0226 C   0  0  0  0  0  0  0  0  0  0  0  0
  129.7204  132.6805  158.9610 N   0  0  0  0  0  0  0  0  0  0  0  0
  129.4079  132.5780  159.8736 H   0  0  0  0  0  0  0  0  0  0  0  0
  130.1257  133.8387  158.3730 C   0  0  0  0  0  0  0  0  0  0  0  0
  130.1625  135.0819  158.9812 N   0  0  0  0  0  0  0  0  0  0  0  0
  129.7412  135.2274  160.3768 C   0  0  1  0  0  0  0  0  0  0  0  0
  130.1011  134.3768  160.9555 H   0  0  0  0  0  0  0  0  0  0  0  0
  130.3148  136.5001  160.9446 C   0  0  0  0  0  0  0  0  0  0  0  0
  131.4604  136.9345  160.4772 C   0  0  0  0  0  0  0  0  0  0  0  0
  132.0551  138.0954  160.9568 N   0  0  0  0  0  0  0  0  0  0  0  0
  133.3863  138.3900  160.6516 C   0  0  0  0  0  0  0  0  0  0  0  0
  134.3176  138.5403  161.6717 C   0  0  0  0  0  0  0  0  0  0  0  0
  135.6337  138.8258  161.3661 C   0  0  0  0  0  0  0  0  0  0  0  0
  136.0227  138.9735  160.0472 C   0  0  0  0  0  0  0  0  0  0  0  0
  135.0972  138.8301  159.0298 C   0  0  0  0  0  0  0  0  0  0  0  0
  133.7806  138.5390  159.3279 C   0  0  0  0  0  0  0  0  0  0  0  0
  131.2598  139.0082  161.7912 C   0  0  0  0  0  0  0  0  0  0  0  0
  130.4747  138.1545  162.7973 C   0  0  0  0  0  0  0  0  0  0  0  0
  129.5460  137.2182  162.0168 C   0  0  0  0  0  0  0  0  0  0  0  0
  128.2366  135.2805  160.4443 C   0  0  0  0  0  0  0  0  0  0  0  0
  127.5775  134.8003  161.5606 C   0  0  0  0  0  0  0  0  0  0  0  0
  126.1978  134.8529  161.6245 C   0  0  0  0  0  0  0  0  0  0  0  0
  125.4764  135.3770  160.5681 C   0  0  0  0  0  0  0  0  0  0  0  0
  126.1351  135.8528  159.4499 C   0  0  0  0  0  0  0  0  0  0  0  0
  127.5153  135.8041  159.3878 C   0  0  0  0  0  0  0  0  0  0  0  0
  130.4804  133.5825  157.1374 N   0  0  0  0  0  0  0  0  0  0  0  0
  130.8119  134.2349  156.5007 H   0  0  0  0  0  0  0  0  0  0  0  0
  131.5219  130.5308  155.5673 C   0  0  0  0  0  0  0  0  0  0  0  0
  131.7831  129.8878  154.3758 C   0  0  0  0  0  0  0  0  0  0  0  0
  132.0320  128.8977  151.9831 H   0  0  0  0  0  0  0  0  0  0  0  0
  130.9166  129.8829  151.2035 H   0  0  0  0  0  0  0  0  0  0  0  0
  129.6801  131.6078  152.3537 H   0  0  0  0  0  0  0  0  0  0  0  0
  129.2021  132.7529  154.4766 H   0  0  0  0  0  0  0  0  0  0  0  0
  129.5957  130.6384  158.1608 H   0  0  0  0  0  0  0  0  0  0  0  0
  130.4673  135.8566  158.4834 H   0  0  0  0  0  0  0  0  0  0  0  0
  131.9555  136.3746  159.6976 H   0  0  0  0  0  0  0  0  0  0  0  0
  134.0135  138.4294  162.7020 H   0  0  0  0  0  0  0  0  0  0  0  0
  136.3591  138.9382  162.1583 H   0  0  0  0  0  0  0  0  0  0  0  0
  137.0516  139.2012  159.8110 H   0  0  0  0  0  0  0  0  0  0  0  0
  135.4043  138.9464  158.0009 H   0  0  0  0  0  0  0  0  0  0  0  0
  133.0582  138.4276  158.5327 H   0  0  0  0  0  0  0  0  0  0  0  0
  131.9204  139.6926  162.3233 H   0  0  0  0  0  0  0  0  0  0  0  0
  130.5686  139.5730  161.1657 H   0  0  0  0  0  0  0  0  0  0  0  0
  131.1685  137.5690  163.4007 H   0  0  0  0  0  0  0  0  0  0  0  0
  129.8813  138.8023  163.4425 H   0  0  0  0  0  0  0  0  0  0  0  0
  128.7446  137.7982  161.5590 H   0  0  0  0  0  0  0  0  0  0  0  0
  129.1138  136.4882  162.7013 H   0  0  0  0  0  0  0  0  0  0  0  0
  128.1410  134.3871  162.3842 H   0  0  0  0  0  0  0  0  0  0  0  0
  125.6830  134.4815  162.4984 H   0  0  0  0  0  0  0  0  0  0  0  0
  124.3982  135.4150  160.6166 H   0  0  0  0  0  0  0  0  0  0  0  0
  125.5716  136.2623  158.6246 H   0  0  0  0  0  0  0  0  0  0  0  0
  128.0299  136.1755  158.5140 H   0  0  0  0  0  0  0  0  0  0  0  0
  132.0392  130.2323  156.4671 H   0  0  0  0  0  0  0  0  0  0  0  0
  132.5049  129.0851  154.3426 H   0  0  0  0  0  0  0  0  0  0  0  0
  1  2  1  0
  1 36  1  0
  1 37  1  0
  2 35  2  0
  2  3  1  0
  3  4  2  0
  3 38  1  0
  4  5  1  0
  4 39  1  0
  5  6  1  0
  5 34  2  0
  6 32  1  0
  6  7  2  0
  7  8  1  0
  7 40  1  0
  8  9  1  0
  8 10  1  0
 10 11  1  0
 10 32  2  0
 11 12  1  0
 11 41  1  0
 12 13  1  1
 12 14  1  0
 12 26  1  0
 14 25  1  0
 14 15  2  0
 15 16  1  0
 15 42  1  0
 16 17  1  0
 16 23  1  0
 17 22  1  0
 17 18  2  0
 18 19  1  0
 18 43  1  0
 19 20  2  0
 19 44  1  0
 20 21  1  0
 20 45  1  0
 21 22  2  0
 21 46  1  0
 22 47  1  0
 23 24  1  0
 23 48  1  0
 23 49  1  0
 24 25  1  0
 24 50  1  0
 24 51  1  0
 25 52  1  0
 25 53  1  0
 26 31  1  0
 26 27  2  0
 27 28  1  0
 27 54  1  0
 28 29  2  0
 28 55  1  0
 29 30  1  0
 29 56  1  0
 30 31  2  0
 30 57  1  0
 31 58  1  0
 32 33  1  0
 34 35  1  0
 34 59  1  0
 35 60  1  0
M  CHG  1  32   1
M  END
>  <DOCK_score>  (1) 
-60.690174

>  <SMILES>  (1) 
Nc1ccc(-c2c[nH]c(N[C@@H](C3=CN(c4ccccc4)CCC3)c3ccccc3)[nH+]2)cc1

$$$$
