CCC12CC([C@H](Nc3[nH]cc(-c4ccc(N)cc4)[nH+]3)c3cccc4ccccc34)(C1)C2
     RDKit          3D

 60 65  0  0  1  0  0  0  0  0999 V2000
  130.1118  141.5290  161.8942 C   0  0  0  0  0  0  0  0  0  0  0  0
  131.3609  140.6473  161.9495 C   0  0  0  0  0  0  0  0  0  0  0  0
  130.9938  139.2171  161.5483 C   0  0  2  0  0  0  0  0  0  0  0  0
  131.9063  137.9776  161.4250 C   0  0  0  0  0  0  0  0  0  0  0  0
  130.5403  137.3828  161.0193 C   0  0  2  0  0  0  0  0  0  0  0  0
  130.1951  135.9465  160.6209 C   0  0  2  0  0  0  0  0  0  0  0  0
  130.4366  135.2733  161.4435 H   0  0  0  0  0  0  0  0  0  0  0  0
  130.9706  135.5686  159.4368 N   0  0  0  0  0  0  0  0  0  0  0  0
  130.8259  134.3055  158.8887 C   0  0  0  0  0  0  0  0  0  0  0  0
  130.5113  133.1744  159.5767 N   0  0  0  0  0  0  0  0  0  0  0  0
  130.3493  133.1083  160.5307 H   0  0  0  0  0  0  0  0  0  0  0  0
  130.4617  132.1431  158.6688 C   0  0  0  0  0  0  0  0  0  0  0  0
  130.7565  132.6726  157.4558 C   0  0  0  0  0  0  0  0  0  0  0  0
  130.8277  131.9304  156.1733 C   0  0  0  0  0  0  0  0  0  0  0  0
  130.5144  132.5729  154.9765 C   0  0  0  0  0  0  0  0  0  0  0  0
  130.5864  131.8824  153.7851 C   0  0  0  0  0  0  0  0  0  0  0  0
  130.9606  130.5442  153.7777 C   0  0  0  0  0  0  0  0  0  0  0  0
  131.0277  129.8452  152.5701 N   0  0  0  0  0  0  0  0  0  0  0  0
  131.2684  129.8999  154.9705 C   0  0  0  0  0  0  0  0  0  0  0  0
  131.2028  130.5878  156.1637 C   0  0  0  0  0  0  0  0  0  0  0  0
  130.9750  134.0009  157.6226 N   0  0  0  0  0  0  0  0  0  0  0  0
  131.2048  134.6259  156.9172 H   0  0  0  0  0  0  0  0  0  0  0  0
  128.7239  135.8513  160.3093 C   0  0  0  0  0  0  0  0  0  0  0  0
  128.2777  136.0673  159.0414 C   0  0  0  0  0  0  0  0  0  0  0  0
  126.9205  135.9904  158.7356 C   0  0  0  0  0  0  0  0  0  0  0  0
  126.0014  135.6954  159.6954 C   0  0  0  0  0  0  0  0  0  0  0  0
  126.4243  135.4657  161.0155 C   0  0  0  0  0  0  0  0  0  0  0  0
  125.5049  135.1583  162.0332 C   0  0  0  0  0  0  0  0  0  0  0  0
  125.9510  134.9414  163.3005 C   0  0  0  0  0  0  0  0  0  0  0  0
  127.3086  135.0189  163.6065 C   0  0  0  0  0  0  0  0  0  0  0  0
  128.2275  135.3146  162.6474 C   0  0  0  0  0  0  0  0  0  0  0  0
  127.8048  135.5450  161.3268 C   0  0  0  0  0  0  0  0  0  0  0  0
  130.3833  138.6882  160.2002 C   0  0  0  0  0  0  0  0  0  0  0  0
  129.9908  138.2293  162.1943 C   0  0  0  0  0  0  0  0  0  0  0  0
  129.7107  141.5275  160.8807 H   0  0  0  0  0  0  0  0  0  0  0  0
  129.3616  141.1399  162.5824 H   0  0  0  0  0  0  0  0  0  0  0  0
  130.3734  142.5479  162.1800 H   0  0  0  0  0  0  0  0  0  0  0  0
  131.7621  140.6488  162.9631 H   0  0  0  0  0  0  0  0  0  0  0  0
  132.1112  141.0365  161.2613 H   0  0  0  0  0  0  0  0  0  0  0  0
  132.3071  137.6064  162.3683 H   0  0  0  0  0  0  0  0  0  0  0  0
  132.6424  138.0269  160.6228 H   0  0  0  0  0  0  0  0  0  0  0  0
  131.5854  136.2033  159.0367 H   0  0  0  0  0  0  0  0  0  0  0  0
  130.2354  131.1088  158.8816 H   0  0  0  0  0  0  0  0  0  0  0  0
  130.2193  133.6118  154.9821 H   0  0  0  0  0  0  0  0  0  0  0  0
  130.3476  132.3810  152.8573 H   0  0  0  0  0  0  0  0  0  0  0  0
  131.2891  128.9109  152.5644 H   0  0  0  0  0  0  0  0  0  0  0  0
  130.8130  130.2939  151.7375 H   0  0  0  0  0  0  0  0  0  0  0  0
  131.5589  128.8597  154.9626 H   0  0  0  0  0  0  0  0  0  0  0  0
  131.4420  130.0868  157.0901 H   0  0  0  0  0  0  0  0  0  0  0  0
  128.9862  136.3026  158.2611 H   0  0  0  0  0  0  0  0  0  0  0  0
  126.5929  136.1669  157.7218 H   0  0  0  0  0  0  0  0  0  0  0  0
  124.9526  135.6388  159.4438 H   0  0  0  0  0  0  0  0  0  0  0  0
  124.4500  135.0949  161.8108 H   0  0  0  0  0  0  0  0  0  0  0  0
  125.2425  134.7053  164.0806 H   0  0  0  0  0  0  0  0  0  0  0  0
  127.6362  134.8421  164.6204 H   0  0  0  0  0  0  0  0  0  0  0  0
  129.2762  135.3714  162.8994 H   0  0  0  0  0  0  0  0  0  0  0  0
  131.0442  138.7723  159.3374 H   0  0  0  0  0  0  0  0  0  0  0  0
  129.3539  138.9833  159.9976 H   0  0  0  0  0  0  0  0  0  0  0  0
  128.9368  138.4959  162.1161 H   0  0  0  0  0  0  0  0  0  0  0  0
  130.2865  137.8869  163.1859 H   0  0  0  0  0  0  0  0  0  0  0  0
  1  2  1  0
  1 35  1  0
  1 36  1  0
  1 37  1  0
  2 38  1  0
  2 39  1  0
  3  2  1  1
  3 33  1  0
  3 34  1  0
  3  4  1  0
  5  4  1  1
  4 40  1  0
  4 41  1  0
  5  6  1  0
  5 33  1  0
  5 34  1  0
  6  7  1  1
  6  8  1  0
  6 23  1  0
  8 42  1  0
  9  8  1  0
  9 21  2  0
  9 10  1  0
 10 11  1  0
 10 12  1  0
 12 13  2  0
 12 43  1  0
 13 14  1  0
 13 21  1  0
 14 20  1  0
 14 15  2  0
 15 16  1  0
 15 44  1  0
 16 17  2  0
 16 45  1  0
 17 18  1  0
 17 19  1  0
 18 46  1  0
 18 47  1  0
 19 20  2  0
 19 48  1  0
 20 49  1  0
 21 22  1  0
 23 32  1  0
 23 24  2  0
 24 25  1  0
 24 50  1  0
 25 26  2  0
 25 51  1  0
 26 27  1  0
 26 52  1  0
 27 32  2  0
 27 28  1  0
 28 29  2  0
 28 53  1  0
 29 30  1  0
 29 54  1  0
 30 31  2  0
 30 55  1  0
 31 32  1  0
 31 56  1  0
 33 57  1  0
 33 58  1  0
 34 59  1  0
 34 60  1  0
M  CHG  1  21   1
M  END
>  <DOCK_score>  (1) 
-59.910732

>  <SMILES>  (1) 
CCC12CC([C@H](Nc3[nH]cc(-c4ccc(N)cc4)[nH+]3)c3cccc4ccccc34)(C1)C2

$$$$
