CC=CC[C@@H](Nc1[nH]cc(-c2ccc(N)cc2)[nH+]1)c1ccc(-c2ccc(N)cc2)cc1
     RDKit          3D

 59 62  0  0  1  0  0  0  0  0999 V2000
  125.5242  134.9809  159.8270 C   0  0  0  0  0  0  0  0  0  0  0  0
  126.7953  135.7574  160.0557 C   0  0  0  0  0  0  0  0  0  0  0  0
  127.7810  135.2171  160.7285 C   0  0  0  0  0  0  0  0  0  0  0  0
  129.0521  135.9938  160.9572 C   0  0  0  0  0  0  0  0  0  0  0  0
  130.2296  135.2383  160.3379 C   0  0  1  0  0  0  0  0  0  0  0  0
  130.3156  134.2558  160.8020 H   0  0  0  0  0  0  0  0  0  0  0  0
  130.0061  135.0806  158.8987 N   0  0  0  0  0  0  0  0  0  0  0  0
  129.9361  133.8142  158.3438 C   0  0  0  0  0  0  0  0  0  0  0  0
  129.4913  132.6949  158.9770 N   0  0  0  0  0  0  0  0  0  0  0  0
  129.1683  132.6412  159.8901 H   0  0  0  0  0  0  0  0  0  0  0  0
  129.5838  131.6543  158.0833 C   0  0  0  0  0  0  0  0  0  0  0  0
  130.0821  132.1682  156.9317 C   0  0  0  0  0  0  0  0  0  0  0  0
  130.3541  131.4125  155.6843 C   0  0  0  0  0  0  0  0  0  0  0  0
  129.7005  131.7579  154.5024 C   0  0  0  0  0  0  0  0  0  0  0  0
  129.9593  131.0579  153.3429 C   0  0  0  0  0  0  0  0  0  0  0  0
  130.8618  130.0011  153.3546 C   0  0  0  0  0  0  0  0  0  0  0  0
  131.1176  129.2895  152.1800 N   0  0  0  0  0  0  0  0  0  0  0  0
  131.5107  129.6516  154.5331 C   0  0  0  0  0  0  0  0  0  0  0  0
  131.2593  130.3524  155.6936 C   0  0  0  0  0  0  0  0  0  0  0  0
  130.2882  133.4954  157.1220 N   0  0  0  0  0  0  0  0  0  0  0  0
  130.6397  134.1105  156.4595 H   0  0  0  0  0  0  0  0  0  0  0  0
  131.5007  136.0149  160.5667 C   0  0  0  0  0  0  0  0  0  0  0  0
  131.6239  137.2981  160.0651 C   0  0  0  0  0  0  0  0  0  0  0  0
  132.7838  138.0158  160.2758 C   0  0  0  0  0  0  0  0  0  0  0  0
  133.8360  137.4414  160.9866 C   0  0  0  0  0  0  0  0  0  0  0  0
  135.0874  138.2057  161.2114 C   0  0  0  0  0  0  0  0  0  0  0  0
  135.8469  137.9794  162.3582 C   0  0  0  0  0  0  0  0  0  0  0  0
  137.0124  138.6869  162.5627 C   0  0  0  0  0  0  0  0  0  0  0  0
  137.4244  139.6335  161.6314 C   0  0  0  0  0  0  0  0  0  0  0  0
  138.6018  140.3525  161.8430 N   0  0  0  0  0  0  0  0  0  0  0  0
  136.6656  139.8644  160.4898 C   0  0  0  0  0  0  0  0  0  0  0  0
  135.5023  139.1553  160.2789 C   0  0  0  0  0  0  0  0  0  0  0  0
  133.7083  136.1463  161.4851 C   0  0  0  0  0  0  0  0  0  0  0  0
  132.5420  135.4397  161.2726 C   0  0  0  0  0  0  0  0  0  0  0  0
  125.0777  134.7238  160.7875 H   0  0  0  0  0  0  0  0  0  0  0  0
  124.8253  135.5889  159.2525 H   0  0  0  0  0  0  0  0  0  0  0  0
  125.7502  134.0683  159.2755 H   0  0  0  0  0  0  0  0  0  0  0  0
  126.8937  136.7595  159.6651 H   0  0  0  0  0  0  0  0  0  0  0  0
  127.6825  134.2150  161.1191 H   0  0  0  0  0  0  0  0  0  0  0  0
  129.2184  136.1111  162.0280 H   0  0  0  0  0  0  0  0  0  0  0  0
  128.9661  136.9762  160.4930 H   0  0  0  0  0  0  0  0  0  0  0  0
  129.9071  135.8635  158.3346 H   0  0  0  0  0  0  0  0  0  0  0  0
  129.3155  130.6241  158.2652 H   0  0  0  0  0  0  0  0  0  0  0  0
  128.9956  132.5760  154.4939 H   0  0  0  0  0  0  0  0  0  0  0  0
  129.4563  131.3277  152.4261 H   0  0  0  0  0  0  0  0  0  0  0  0
  131.7478  128.5518  152.1875 H   0  0  0  0  0  0  0  0  0  0  0  0
  130.6653  129.5326  151.3573 H   0  0  0  0  0  0  0  0  0  0  0  0
  132.2118  128.8303  154.5398 H   0  0  0  0  0  0  0  0  0  0  0  0
  131.7636  130.0805  156.6092 H   0  0  0  0  0  0  0  0  0  0  0  0
  130.8093  137.7409  159.5112 H   0  0  0  0  0  0  0  0  0  0  0  0
  132.8775  139.0190  159.8870 H   0  0  0  0  0  0  0  0  0  0  0  0
  135.5249  137.2474  163.0841 H   0  0  0  0  0  0  0  0  0  0  0  0
  137.6033  138.5091  163.4489 H   0  0  0  0  0  0  0  0  0  0  0  0
  138.8900  141.0129  161.1936 H   0  0  0  0  0  0  0  0  0  0  0  0
  139.1316  140.1919  162.6394 H   0  0  0  0  0  0  0  0  0  0  0  0
  136.9874  140.6001  159.7676 H   0  0  0  0  0  0  0  0  0  0  0  0
  134.9128  139.3355  159.3922 H   0  0  0  0  0  0  0  0  0  0  0  0
  134.5207  135.6962  162.0363 H   0  0  0  0  0  0  0  0  0  0  0  0
  132.4420  134.4359  161.6583 H   0  0  0  0  0  0  0  0  0  0  0  0
  1  2  1  0
  1 35  1  0
  1 36  1  0
  1 37  1  0
  2  3  2  0
  2 38  1  0
  3  4  1  0
  3 39  1  0
  4  5  1  0
  4 40  1  0
  4 41  1  0
  5  6  1  1
  5  7  1  0
  5 22  1  0
  7 42  1  0
  8  7  1  0
  8 20  2  0
  8  9  1  0
  9 10  1  0
  9 11  1  0
 11 12  2  0
 11 43  1  0
 12 13  1  0
 12 20  1  0
 13 19  1  0
 13 14  2  0
 14 15  1  0
 14 44  1  0
 15 16  2  0
 15 45  1  0
 16 17  1  0
 16 18  1  0
 17 46  1  0
 17 47  1  0
 18 19  2  0
 18 48  1  0
 19 49  1  0
 20 21  1  0
 22 34  1  0
 22 23  2  0
 23 24  1  0
 23 50  1  0
 24 25  2  0
 24 51  1  0
 25 26  1  0
 25 33  1  0
 26 32  1  0
 26 27  2  0
 27 28  1  0
 27 52  1  0
 28 29  2  0
 28 53  1  0
 29 30  1  0
 29 31  1  0
 30 54  1  0
 30 55  1  0
 31 32  2  0
 31 56  1  0
 32 57  1  0
 33 34  2  0
 33 58  1  0
 34 59  1  0
M  CHG  1  20   1
M  END
>  <DOCK_score>  (1) 
-57.243942

>  <SMILES>  (1) 
CC=CC[C@@H](Nc1[nH]cc(-c2ccc(N)cc2)[nH+]1)c1ccc(-c2ccc(N)cc2)cc1

$$$$
