c1cc(CN[C@H]2CCCC2[NH2+]Cc2ccc3sccc3c2)c2ccsc2c1
     RDKit          3D

 52 56  0  0  1  0  0  0  0  0999 V2000
  135.0494  139.2759  159.7392 C   0  0  0  0  0  0  0  0  0  0  0  0
  134.4996  138.0175  159.9449 C   0  0  0  0  0  0  0  0  0  0  0  0
  134.1975  137.5906  161.2011 C   0  0  0  0  0  0  0  0  0  0  0  0
  133.5957  136.2238  161.4025 C   0  0  0  0  0  0  0  0  0  0  0  0
  132.5293  136.0080  160.4153 N   0  0  0  0  0  0  0  0  0  0  0  0
  131.2857  136.6709  160.8304 C   0  0  1  0  0  0  0  0  0  0  0  0
  131.1403  136.5528  161.9041 H   0  0  0  0  0  0  0  0  0  0  0  0
  131.3382  138.1689  160.4657 C   0  0  0  0  0  0  0  0  0  0  0  0
  129.8899  138.5052  160.0319 C   0  0  0  0  0  0  0  0  0  0  0  0
  129.4582  137.2306  159.2650 C   0  0  0  0  0  0  0  0  0  0  0  0
  130.0904  136.0744  160.0669 C   0  0  1  0  0  0  0  0  0  0  0  0
  130.5521  135.0213  159.1526 N   0  0  0  0  0  0  0  0  0  0  0  0
  130.9274  135.4429  158.3162 H   0  0  0  0  0  0  0  0  0  0  0  0
  131.2693  134.4741  159.6045 H   0  0  0  0  0  0  0  0  0  0  0  0
  129.4230  134.1511  158.7979 C   0  0  0  0  0  0  0  0  0  0  0  0
  129.8966  133.0708  157.8600 C   0  0  0  0  0  0  0  0  0  0  0  0
  130.3578  131.8665  158.3746 C   0  0  0  0  0  0  0  0  0  0  0  0
  130.7917  130.8740  157.5283 C   0  0  0  0  0  0  0  0  0  0  0  0
  130.7720  131.0723  156.1440 C   0  0  0  0  0  0  0  0  0  0  0  0
  131.2559  130.0086  154.8292 S   0  0  0  0  0  0  0  0  0  0  0  0
  130.8301  131.2016  153.6175 C   0  0  0  0  0  0  0  0  0  0  0  0
  130.3640  132.3038  154.1705 C   0  0  0  0  0  0  0  0  0  0  0  0
  130.3088  132.2835  155.6232 C   0  0  0  0  0  0  0  0  0  0  0  0
  129.8633  133.2822  156.5160 C   0  0  0  0  0  0  0  0  0  0  0  0
  134.4495  138.4169  162.3177 C   0  0  0  0  0  0  0  0  0  0  0  0
  134.2109  138.1583  163.7283 C   0  0  0  0  0  0  0  0  0  0  0  0
  134.5565  139.1390  164.5386 C   0  0  0  0  0  0  0  0  0  0  0  0
  135.2182  140.4985  163.6514 S   0  0  0  0  0  0  0  0  0  0  0  0
  135.0085  139.6804  162.1084 C   0  0  0  0  0  0  0  0  0  0  0  0
  135.3055  140.1013  160.8082 C   0  0  0  0  0  0  0  0  0  0  0  0
  135.2811  139.6051  158.7371 H   0  0  0  0  0  0  0  0  0  0  0  0
  134.3059  137.3736  159.0997 H   0  0  0  0  0  0  0  0  0  0  0  0
  133.1796  136.1544  162.4077 H   0  0  0  0  0  0  0  0  0  0  0  0
  134.3674  135.4647  161.2754 H   0  0  0  0  0  0  0  0  0  0  0  0
  132.8163  136.3187  159.4993 H   0  0  0  0  0  0  0  0  0  0  0  0
  131.6241  138.7630  161.3339 H   0  0  0  0  0  0  0  0  0  0  0  0
  132.0338  138.3373  159.6436 H   0  0  0  0  0  0  0  0  0  0  0  0
  129.2536  138.6666  160.9019 H   0  0  0  0  0  0  0  0  0  0  0  0
  129.8753  139.3767  159.3775 H   0  0  0  0  0  0  0  0  0  0  0  0
  128.3720  137.1399  159.2567 H   0  0  0  0  0  0  0  0  0  0  0  0
  129.8464  137.2483  158.2466 H   0  0  0  0  0  0  0  0  0  0  0  0
  129.3641  135.6668  160.7701 H   0  0  0  0  0  0  0  0  0  0  0  0
  129.0174  133.6958  159.7014 H   0  0  0  0  0  0  0  0  0  0  0  0
  128.6481  134.7420  158.3096 H   0  0  0  0  0  0  0  0  0  0  0  0
  130.3753  131.7088  159.4429 H   0  0  0  0  0  0  0  0  0  0  0  0
  131.1492  129.9389  157.9333 H   0  0  0  0  0  0  0  0  0  0  0  0
  130.9362  131.0527  152.5531 H   0  0  0  0  0  0  0  0  0  0  0  0
  130.0468  133.1567  153.5888 H   0  0  0  0  0  0  0  0  0  0  0  0
  129.4978  134.2223  156.1300 H   0  0  0  0  0  0  0  0  0  0  0  0
  133.7835  137.2330  164.0854 H   0  0  0  0  0  0  0  0  0  0  0  0
  134.4459  139.1088  165.6124 H   0  0  0  0  0  0  0  0  0  0  0  0
  135.7376  141.0773  160.6435 H   0  0  0  0  0  0  0  0  0  0  0  0
  1 30  2  0
  1  2  1  0
  1 31  1  0
  2  3  2  0
  2 32  1  0
  3  4  1  0
  3 25  1  0
  4  5  1  0
  4 33  1  0
  4 34  1  0
  5  6  1  0
  5 35  1  0
  6  7  1  1
  6 11  1  0
  6  8  1  0
  8  9  1  0
  8 36  1  0
  8 37  1  0
  9 10  1  0
  9 38  1  0
  9 39  1  0
 10 11  1  0
 10 40  1  0
 10 41  1  0
 11 12  1  0
 11 42  1  1
 12 13  1  0
 12 14  1  0
 12 15  1  0
 15 16  1  0
 15 43  1  0
 15 44  1  0
 16 24  1  0
 16 17  2  0
 17 18  1  0
 17 45  1  0
 18 19  2  0
 18 46  1  0
 19 23  1  0
 19 20  1  0
 20 21  1  0
 21 22  2  0
 21 47  1  0
 22 23  1  0
 22 48  1  0
 23 24  2  0
 24 49  1  0
 25 29  2  0
 25 26  1  0
 26 27  2  0
 26 50  1  0
 27 28  1  0
 27 51  1  0
 28 29  1  0
 29 30  1  0
 30 52  1  0
M  CHG  1  12   1
M  END
>  <DOCK_score>  (1) 
-58.49913

>  <SMILES>  (1) 
c1cc(CN[C@H]2CCCC2[NH2+]Cc2ccc3sccc3c2)c2ccsc2c1

$$$$
