Oc1ccc(Nc2ccc(-c3n[nH]cc3C[NH2+][C@H]3C[C@@H](F)[C@@H](F)C3)o2)cc1
     RDKit          3D

 48 51  0  0  1  0  0  0  0  0999 V2000
  129.3974  137.5381  166.4614 O   0  0  0  0  0  0  0  0  0  0  0  0
  128.6575  137.1899  165.3748 C   0  0  0  0  0  0  0  0  0  0  0  0
  128.8111  135.9346  164.8050 C   0  0  0  0  0  0  0  0  0  0  0  0
  128.0641  135.5820  163.6984 C   0  0  0  0  0  0  0  0  0  0  0  0
  127.1508  136.4809  163.1625 C   0  0  0  0  0  0  0  0  0  0  0  0
  126.3899  136.1229  162.0442 N   0  0  0  0  0  0  0  0  0  0  0  0
  126.9040  135.2310  161.1102 C   0  0  0  0  0  0  0  0  0  0  0  0
  126.1784  134.3697  160.3538 C   0  0  0  0  0  0  0  0  0  0  0  0
  127.0910  133.6612  159.5480 C   0  0  0  0  0  0  0  0  0  0  0  0
  128.3315  134.1211  159.8600 C   0  0  0  0  0  0  0  0  0  0  0  0
  129.6014  133.6586  159.2630 C   0  0  0  0  0  0  0  0  0  0  0  0
  129.7304  132.7336  158.3323 N   0  0  0  0  0  0  0  0  0  0  0  0
  131.0939  132.5941  158.0440 N   0  0  0  0  0  0  0  0  0  0  0  0
  131.4788  131.9834  157.3961 H   0  0  0  0  0  0  0  0  0  0  0  0
  131.7802  133.4573  158.8239 C   0  0  0  0  0  0  0  0  0  0  0  0
  130.8912  134.1326  159.5832 C   0  0  0  0  0  0  0  0  0  0  0  0
  131.2184  135.2002  160.5955 C   0  0  0  0  0  0  0  0  0  0  0  0
  132.1989  136.1327  160.0237 N   0  0  0  0  0  0  0  0  0  0  0  0
  133.0396  135.6301  159.7813 H   0  0  0  0  0  0  0  0  0  0  0  0
  131.8127  136.5612  159.1959 H   0  0  0  0  0  0  0  0  0  0  0  0
  132.5180  137.1733  161.0103 C   0  0  1  0  0  0  0  0  0  0  0  0
  132.9370  136.7269  161.9121 H   0  0  0  0  0  0  0  0  0  0  0  0
  133.5026  138.2068  160.4091 C   0  0  0  0  0  0  0  0  0  0  0  0
  133.2460  139.4660  161.2762 C   0  0  1  0  0  0  0  0  0  0  0  0
  133.7839  139.3918  162.2212 H   0  0  0  0  0  0  0  0  0  0  0  0
  133.6240  140.6225  160.5856 F   0  0  0  0  0  0  0  0  0  0  0  0
  131.7227  139.4562  161.5197 C   0  0  1  0  0  0  0  0  0  0  0  0
  131.5038  139.8027  162.5297 H   0  0  0  0  0  0  0  0  0  0  0  0
  131.0815  140.2742  160.5833 F   0  0  0  0  0  0  0  0  0  0  0  0
  131.2599  137.9985  161.3507 C   0  0  0  0  0  0  0  0  0  0  0  0
  128.2043  135.0727  160.8084 O   0  0  0  0  0  0  0  0  0  0  0  0
  126.9940  137.7357  163.7370 C   0  0  0  0  0  0  0  0  0  0  0  0
  127.7457  138.0883  164.8403 C   0  0  0  0  0  0  0  0  0  0  0  0
  130.0045  136.8478  166.7615 H   0  0  0  0  0  0  0  0  0  0  0  0
  129.5180  135.2341  165.2245 H   0  0  0  0  0  0  0  0  0  0  0  0
  128.1865  134.6060  163.2526 H   0  0  0  0  0  0  0  0  0  0  0  0
  125.5034  136.4971  161.9208 H   0  0  0  0  0  0  0  0  0  0  0  0
  125.1050  134.2513  160.3656 H   0  0  0  0  0  0  0  0  0  0  0  0
  126.8514  132.8964  158.8241 H   0  0  0  0  0  0  0  0  0  0  0  0
  132.8522  133.5879  158.8348 H   0  0  0  0  0  0  0  0  0  0  0  0
  130.3103  135.7430  160.8573 H   0  0  0  0  0  0  0  0  0  0  0  0
  131.6357  134.7373  161.4897 H   0  0  0  0  0  0  0  0  0  0  0  0
  134.5326  137.8658  160.5145 H   0  0  0  0  0  0  0  0  0  0  0  0
  133.2651  138.4038  159.3637 H   0  0  0  0  0  0  0  0  0  0  0  0
  130.5362  137.9282  160.5386 H   0  0  0  0  0  0  0  0  0  0  0  0
  130.8163  137.6375  162.2786 H   0  0  0  0  0  0  0  0  0  0  0  0
  126.2839  138.4353  163.3212 H   0  0  0  0  0  0  0  0  0  0  0  0
  127.6236  139.0638  165.2874 H   0  0  0  0  0  0  0  0  0  0  0  0
  1  2  1  0
  1 34  1  0
  2 33  2  0
  2  3  1  0
  3  4  2  0
  3 35  1  0
  4  5  1  0
  4 36  1  0
  5  6  1  0
  5 32  2  0
  6  7  1  0
  6 37  1  0
  7 31  1  0
  7  8  2  0
  8  9  1  0
  8 38  1  0
  9 10  2  0
  9 39  1  0
 10 11  1  0
 10 31  1  0
 11 16  1  0
 11 12  2  0
 12 13  1  0
 13 14  1  0
 13 15  1  0
 15 16  2  0
 15 40  1  0
 16 17  1  0
 17 18  1  0
 17 41  1  0
 17 42  1  0
 18 19  1  0
 18 20  1  0
 18 21  1  0
 21 22  1  1
 21 30  1  0
 21 23  1  0
 23 24  1  0
 23 43  1  0
 23 44  1  0
 24 25  1  1
 24 26  1  0
 24 27  1  0
 27 28  1  1
 27 29  1  0
 27 30  1  0
 30 45  1  0
 30 46  1  0
 32 33  1  0
 32 47  1  0
 33 48  1  0
M  CHG  1  18   1
M  END
>  <DOCK_score>  (1) 
-43.050644

>  <SMILES>  (1) 
Oc1ccc(Nc2ccc(-c3n[nH]cc3C[NH2+][C@H]3C[C@@H](F)[C@@H](F)C3)o2)cc1

$$$$
