Cc1n[nH]cc1C[NH2+]Cc1c[nH]nc1-c1nc(-c2cc[nH]n2)nn1C[C@H](C)CO
     RDKit          3D

 54 57  0  0  1  0  0  0  0  0999 V2000
  128.3856  132.1769  159.9742 C   0  0  0  0  0  0  0  0  0  0  0  0
  128.9062  132.3775  158.5742 C   0  0  0  0  0  0  0  0  0  0  0  0
  129.0167  131.4513  157.6567 N   0  0  0  0  0  0  0  0  0  0  0  0
  129.5404  132.0419  156.4995 N   0  0  0  0  0  0  0  0  0  0  0  0
  129.7269  131.5892  155.6621 H   0  0  0  0  0  0  0  0  0  0  0  0
  129.7344  133.3530  156.7536 C   0  0  0  0  0  0  0  0  0  0  0  0
  129.3554  133.5858  158.0315 C   0  0  0  0  0  0  0  0  0  0  0  0
  129.4027  134.9138  158.7424 C   0  0  0  0  0  0  0  0  0  0  0  0
  130.7017  135.0650  159.4115 N   0  0  0  0  0  0  0  0  0  0  0  0
  131.4404  135.0243  158.7255 H   0  0  0  0  0  0  0  0  0  0  0  0
  130.8236  134.3204  160.0815 H   0  0  0  0  0  0  0  0  0  0  0  0
  130.7477  136.3594  160.1046 C   0  0  0  0  0  0  0  0  0  0  0  0
  132.0803  136.5145  160.7911 C   0  0  0  0  0  0  0  0  0  0  0  0
  133.2873  136.2274  160.2584 C   0  0  0  0  0  0  0  0  0  0  0  0
  134.2297  136.5032  161.1860 N   0  0  0  0  0  0  0  0  0  0  0  0
  135.1871  136.3934  161.0746 H   0  0  0  0  0  0  0  0  0  0  0  0
  133.5848  136.9705  162.3382 N   0  0  0  0  0  0  0  0  0  0  0  0
  132.2878  136.9794  162.1059 C   0  0  0  0  0  0  0  0  0  0  0  0
  131.2354  137.4025  163.0564 C   0  0  0  0  0  0  0  0  0  0  0  0
  129.9404  137.4162  162.8211 N   0  0  0  0  0  0  0  0  0  0  0  0
  129.2897  137.8530  163.9052 C   0  0  0  0  0  0  0  0  0  0  0  0
  127.8178  138.0032  164.0256 C   0  0  0  0  0  0  0  0  0  0  0  0
  127.1224  138.4672  165.1589 C   0  0  0  0  0  0  0  0  0  0  0  0
  125.8032  138.4563  164.8683 C   0  0  0  0  0  0  0  0  0  0  0  0
  125.6587  138.0050  163.6038 N   0  0  0  0  0  0  0  0  0  0  0  0
  124.8186  137.8937  163.1317 H   0  0  0  0  0  0  0  0  0  0  0  0
  126.9328  137.7316  163.0900 N   0  0  0  0  0  0  0  0  0  0  0  0
  130.1660  138.1329  164.8455 N   0  0  0  0  0  0  0  0  0  0  0  0
  131.4361  137.8486  164.3182 N   0  0  0  0  0  0  0  0  0  0  0  0
  132.7237  138.0039  164.9995 C   0  0  0  0  0  0  0  0  0  0  0  0
  133.2701  139.4097  164.7431 C   0  0  2  0  0  0  0  0  0  0  0  0
  133.0771  139.6913  163.7079 H   0  0  0  0  0  0  0  0  0  0  0  0
  134.7775  139.4264  165.0038 C   0  0  0  0  0  0  0  0  0  0  0  0
  132.5796  140.4037  165.6793 C   0  0  0  0  0  0  0  0  0  0  0  0
  133.0899  141.7169  165.4398 O   0  0  0  0  0  0  0  0  0  0  0  0
  127.3075  132.3369  159.9872 H   0  0  0  0  0  0  0  0  0  0  0  0
  128.6061  131.1610  160.3017 H   0  0  0  0  0  0  0  0  0  0  0  0
  128.8666  132.8878  160.6460 H   0  0  0  0  0  0  0  0  0  0  0  0
  130.1247  134.0847  156.0618 H   0  0  0  0  0  0  0  0  0  0  0  0
  128.6048  134.9577  159.4836 H   0  0  0  0  0  0  0  0  0  0  0  0
  129.2711  135.7182  158.0186 H   0  0  0  0  0  0  0  0  0  0  0  0
  130.6160  137.1639  159.3809 H   0  0  0  0  0  0  0  0  0  0  0  0
  129.9498  136.4034  160.8458 H   0  0  0  0  0  0  0  0  0  0  0  0
  133.4678  135.8459  159.2643 H   0  0  0  0  0  0  0  0  0  0  0  0
  127.5648  138.7762  166.0943 H   0  0  0  0  0  0  0  0  0  0  0  0
  125.0046  138.7556  165.5308 H   0  0  0  0  0  0  0  0  0  0  0  0
  132.5877  137.8565  166.0710 H   0  0  0  0  0  0  0  0  0  0  0  0
  133.4282  137.2650  164.6176 H   0  0  0  0  0  0  0  0  0  0  0  0
  134.9705  139.1447  166.0390 H   0  0  0  0  0  0  0  0  0  0  0  0
  135.2694  138.7183  164.3369 H   0  0  0  0  0  0  0  0  0  0  0  0
  135.1668  140.4281  164.8212 H   0  0  0  0  0  0  0  0  0  0  0  0
  131.5056  140.3918  165.4936 H   0  0  0  0  0  0  0  0  0  0  0  0
  132.7724  140.1221  166.7143 H   0  0  0  0  0  0  0  0  0  0  0  0
  132.9529  142.0334  164.5363 H   0  0  0  0  0  0  0  0  0  0  0  0
  1  2  1  0
  1 36  1  0
  1 37  1  0
  1 38  1  0
  2  7  1  0
  2  3  2  0
  3  4  1  0
  4  5  1  0
  4  6  1  0
  6  7  2  0
  6 39  1  0
  7  8  1  0
  8  9  1  0
  8 40  1  0
  8 41  1  0
  9 10  1  0
  9 11  1  0
  9 12  1  0
 12 13  1  0
 12 42  1  0
 12 43  1  0
 13 18  1  0
 13 14  2  0
 14 15  1  0
 14 44  1  0
 15 16  1  0
 15 17  1  0
 17 18  2  0
 18 19  1  0
 19 29  1  0
 19 20  2  0
 20 21  1  0
 21 22  1  0
 21 28  2  0
 22 27  2  0
 22 23  1  0
 23 24  2  0
 23 45  1  0
 24 25  1  0
 24 46  1  0
 25 26  1  0
 25 27  1  0
 28 29  1  0
 29 30  1  0
 30 31  1  0
 30 47  1  0
 30 48  1  0
 31 32  1  6
 31 33  1  0
 31 34  1  0
 33 49  1  0
 33 50  1  0
 33 51  1  0
 34 35  1  0
 34 52  1  0
 34 53  1  0
 35 54  1  0
M  CHG  1   9   1
M  END
>  <DOCK_score>  (1) 
-41.212944

>  <SMILES>  (1) 
Cc1n[nH]cc1C[NH2+]Cc1c[nH]nc1-c1nc(-c2cc[nH]n2)nn1C[C@H](C)CO

$$$$
