CC(C(Nc1[nH]cc(-c2ccc(N)cc2)[nH+]1)C1=COCCC1)[C@H](C)Cc1ccccc1
     RDKit          3D

 64 67  0  0  1  0  0  0  0  0999 V2000
  129.5540  136.8646  162.1767 C   0  0  0  0  0  0  0  0  0  0  0  0
  130.0956  136.6778  160.7580 C   0  0  2  0  0  0  0  0  0  0  0  0
  129.7808  135.2608  160.2744 C   0  0  2  0  0  0  0  0  0  0  0  0
  130.2993  135.0819  158.9160 N   0  0  0  0  0  0  0  0  0  0  0  0
  130.1325  133.8713  158.2652 C   0  0  0  0  0  0  0  0  0  0  0  0
  129.5131  132.7741  158.7789 N   0  0  0  0  0  0  0  0  0  0  0  0
  129.1124  132.6998  159.6592 H   0  0  0  0  0  0  0  0  0  0  0  0
  129.5569  131.7914  157.8184 C   0  0  0  0  0  0  0  0  0  0  0  0
  130.2094  132.3141  156.7509 C   0  0  0  0  0  0  0  0  0  0  0  0
  130.4989  131.6130  155.4758 C   0  0  0  0  0  0  0  0  0  0  0  0
  129.9950  132.1109  154.2754 C   0  0  0  0  0  0  0  0  0  0  0  0
  130.2701  131.4609  153.0908 C   0  0  0  0  0  0  0  0  0  0  0  0
  131.0395  130.3037  153.0944 C   0  0  0  0  0  0  0  0  0  0  0  0
  131.3118  129.6438  151.8937 N   0  0  0  0  0  0  0  0  0  0  0  0
  131.5385  129.8021  154.2909 C   0  0  0  0  0  0  0  0  0  0  0  0
  131.2706  130.4521  155.4772 C   0  0  0  0  0  0  0  0  0  0  0  0
  130.5502  133.5914  157.0547 N   0  0  0  0  0  0  0  0  0  0  0  0
  131.0274  134.2004  156.4695 H   0  0  0  0  0  0  0  0  0  0  0  0
  128.2886  135.0502  160.2743 C   0  0  0  0  0  0  0  0  0  0  0  0
  127.7879  134.0984  161.0169 C   0  0  0  0  0  0  0  0  0  0  0  0
  126.4660  133.8269  161.0848 O   0  0  0  0  0  0  0  0  0  0  0  0
  125.5575  134.8187  160.5978 C   0  0  0  0  0  0  0  0  0  0  0  0
  126.0552  135.2939  159.2256 C   0  0  0  0  0  0  0  0  0  0  0  0
  127.4323  135.9394  159.4143 C   0  0  0  0  0  0  0  0  0  0  0  0
  131.6107  136.8916  160.7583 C   0  0  2  0  0  0  0  0  0  0  0  0
  131.9966  136.7585  159.7477 H   0  0  0  0  0  0  0  0  0  0  0  0
  132.2690  135.8752  161.6935 C   0  0  0  0  0  0  0  0  0  0  0  0
  131.9256  138.3085  161.2421 C   0  0  0  0  0  0  0  0  0  0  0  0
  133.3115  138.6958  160.7942 C   0  0  0  0  0  0  0  0  0  0  0  0
  134.3999  138.4260  161.6027 C   0  0  0  0  0  0  0  0  0  0  0  0
  135.6710  138.7813  161.1918 C   0  0  0  0  0  0  0  0  0  0  0  0
  135.8539  139.4063  159.9724 C   0  0  0  0  0  0  0  0  0  0  0  0
  134.7649  139.6808  159.1663 C   0  0  0  0  0  0  0  0  0  0  0  0
  133.4943  139.3203  159.5746 C   0  0  0  0  0  0  0  0  0  0  0  0
  129.6973  137.8997  162.4868 H   0  0  0  0  0  0  0  0  0  0  0  0
  128.4911  136.6238  162.1944 H   0  0  0  0  0  0  0  0  0  0  0  0
  130.0879  136.2036  162.8594 H   0  0  0  0  0  0  0  0  0  0  0  0
  129.6266  137.4018  160.0917 H   0  0  0  0  0  0  0  0  0  0  0  0
  130.2498  134.5368  160.9407 H   0  0  0  0  0  0  0  0  0  0  0  0
  130.7596  135.8115  158.4726 H   0  0  0  0  0  0  0  0  0  0  0  0
  129.1527  130.7933  157.9000 H   0  0  0  0  0  0  0  0  0  0  0  0
  129.3928  133.0076  154.2726 H   0  0  0  0  0  0  0  0  0  0  0  0
  129.8835  131.8489  152.1600 H   0  0  0  0  0  0  0  0  0  0  0  0
  131.8486  128.8352  151.8958 H   0  0  0  0  0  0  0  0  0  0  0  0
  130.9635  129.9922  151.0588 H   0  0  0  0  0  0  0  0  0  0  0  0
  132.1364  128.9027  154.2915 H   0  0  0  0  0  0  0  0  0  0  0  0
  131.6588  130.0622  156.4065 H   0  0  0  0  0  0  0  0  0  0  0  0
  128.4648  133.5015  161.6099 H   0  0  0  0  0  0  0  0  0  0  0  0
  125.5270  135.6605  161.2895 H   0  0  0  0  0  0  0  0  0  0  0  0
  124.5610  134.3884  160.4986 H   0  0  0  0  0  0  0  0  0  0  0  0
  125.3592  136.0253  158.8150 H   0  0  0  0  0  0  0  0  0  0  0  0
  126.1373  134.4431  158.5492 H   0  0  0  0  0  0  0  0  0  0  0  0
  127.3158  136.9093  159.8976 H   0  0  0  0  0  0  0  0  0  0  0  0
  127.9076  136.0724  158.4425 H   0  0  0  0  0  0  0  0  0  0  0  0
  131.8830  136.0082  162.7043 H   0  0  0  0  0  0  0  0  0  0  0  0
  132.0445  134.8658  161.3489 H   0  0  0  0  0  0  0  0  0  0  0  0
  133.3483  136.0275  161.6937 H   0  0  0  0  0  0  0  0  0  0  0  0
  131.8731  138.3410  162.3304 H   0  0  0  0  0  0  0  0  0  0  0  0
  131.2002  139.0054  160.8225 H   0  0  0  0  0  0  0  0  0  0  0  0
  134.2569  137.9380  162.5556 H   0  0  0  0  0  0  0  0  0  0  0  0
  136.5212  138.5709  161.8237 H   0  0  0  0  0  0  0  0  0  0  0  0
  136.8469  139.6840  159.6516 H   0  0  0  0  0  0  0  0  0  0  0  0
  134.9072  140.1731  158.2157 H   0  0  0  0  0  0  0  0  0  0  0  0
  132.6441  139.5308  158.9429 H   0  0  0  0  0  0  0  0  0  0  0  0
  1  2  1  0
  1 35  1  0
  1 36  1  0
  1 37  1  0
  2  3  1  0
  2 25  1  0
  2 38  1  6
  3  4  1  0
  3 19  1  0
  3 39  1  1
  4 40  1  0
  5  4  1  0
  5 17  2  0
  5  6  1  0
  6  7  1  0
  6  8  1  0
  8  9  2  0
  8 41  1  0
  9 10  1  0
  9 17  1  0
 10 16  1  0
 10 11  2  0
 11 12  1  0
 11 42  1  0
 12 13  2  0
 12 43  1  0
 13 14  1  0
 13 15  1  0
 14 44  1  0
 14 45  1  0
 15 16  2  0
 15 46  1  0
 16 47  1  0
 17 18  1  0
 19 24  1  0
 19 20  2  0
 20 21  1  0
 20 48  1  0
 21 22  1  0
 22 23  1  0
 22 49  1  0
 22 50  1  0
 23 24  1  0
 23 51  1  0
 23 52  1  0
 24 53  1  0
 24 54  1  0
 25 26  1  6
 25 27  1  0
 25 28  1  0
 27 55  1  0
 27 56  1  0
 27 57  1  0
 28 29  1  0
 28 58  1  0
 28 59  1  0
 29 34  1  0
 29 30  2  0
 30 31  1  0
 30 60  1  0
 31 32  2  0
 31 61  1  0
 32 33  1  0
 32 62  1  0
 33 34  2  0
 33 63  1  0
 34 64  1  0
M  CHG  1  17   1
M  END
>  <DOCK_score>  (1) 
-63.758141

>  <SMILES>  (1) 
CC(C(Nc1[nH]cc(-c2ccc(N)cc2)[nH+]1)C1=COCCC1)[C@H](C)Cc1ccccc1

$$$$
