c1ccc(C(c2ccccc2)[NH+]2CCN(c3cncc(-c4ccc5cccnc5c4)c3)CC2)cc1
     RDKit          3D

 64 69  0  0  0  0  0  0  0  0999 V2000
  126.4762  135.7025  157.8689 C   0  0  0  0  0  0  0  0  0  0  0  0
  126.4302  134.8087  158.9224 C   0  0  0  0  0  0  0  0  0  0  0  0
  127.5993  134.4139  159.5455 C   0  0  0  0  0  0  0  0  0  0  0  0
  128.8144  134.9131  159.1152 C   0  0  0  0  0  0  0  0  0  0  0  0
  130.0889  134.4832  159.7947 C   0  0  0  0  0  0  0  0  0  0  0  0
  130.6387  133.2615  159.1046 C   0  0  0  0  0  0  0  0  0  0  0  0
  130.4049  133.0652  157.7564 C   0  0  0  0  0  0  0  0  0  0  0  0
  130.9133  131.9470  157.1223 C   0  0  0  0  0  0  0  0  0  0  0  0
  131.6466  131.0197  157.8387 C   0  0  0  0  0  0  0  0  0  0  0  0
  131.8761  131.2134  159.1881 C   0  0  0  0  0  0  0  0  0  0  0  0
  131.3721  132.3343  159.8210 C   0  0  0  0  0  0  0  0  0  0  0  0
  131.0735  135.5710  159.7225 N   0  0  0  0  0  0  0  0  0  0  0  0
  131.2642  135.7879  158.7558 H   0  0  0  0  0  0  0  0  0  0  0  0
  130.5369  136.7620  160.3945 C   0  0  0  0  0  0  0  0  0  0  0  0
  131.5544  137.9012  160.3031 C   0  0  0  0  0  0  0  0  0  0  0  0
  132.8118  137.4834  160.9391 N   0  0  0  0  0  0  0  0  0  0  0  0
  133.7495  138.5192  160.9230 C   0  0  0  0  0  0  0  0  0  0  0  0
  134.1802  139.0603  159.7172 C   0  0  0  0  0  0  0  0  0  0  0  0
  135.0638  140.0383  159.6906 N   0  0  0  0  0  0  0  0  0  0  0  0
  135.5723  140.5481  160.7937 C   0  0  0  0  0  0  0  0  0  0  0  0
  135.1982  140.0582  162.0437 C   0  0  0  0  0  0  0  0  0  0  0  0
  135.7789  140.6324  163.2821 C   0  0  0  0  0  0  0  0  0  0  0  0
  136.1702  141.9808  163.3064 C   0  0  0  0  0  0  0  0  0  0  0  0
  136.7043  142.5289  164.4286 C   0  0  0  0  0  0  0  0  0  0  0  0
  136.8704  141.7435  165.5822 C   0  0  0  0  0  0  0  0  0  0  0  0
  137.4214  142.2847  166.7588 C   0  0  0  0  0  0  0  0  0  0  0  0
  137.5554  141.4668  167.8447 C   0  0  0  0  0  0  0  0  0  0  0  0
  137.1507  140.1359  167.7671 C   0  0  0  0  0  0  0  0  0  0  0  0
  136.6378  139.6343  166.6700 N   0  0  0  0  0  0  0  0  0  0  0  0
  136.4794  140.3811  165.5716 C   0  0  0  0  0  0  0  0  0  0  0  0
  135.9294  139.8351  164.4009 C   0  0  0  0  0  0  0  0  0  0  0  0
  134.2637  139.0225  162.1129 C   0  0  0  0  0  0  0  0  0  0  0  0
  133.3481  136.2773  160.2928 C   0  0  0  0  0  0  0  0  0  0  0  0
  132.3158  135.1514  160.3843 C   0  0  0  0  0  0  0  0  0  0  0  0
  128.8600  135.8110  158.0651 C   0  0  0  0  0  0  0  0  0  0  0  0
  127.6914  136.2018  157.4386 C   0  0  0  0  0  0  0  0  0  0  0  0
  125.5628  136.0113  157.3824 H   0  0  0  0  0  0  0  0  0  0  0  0
  125.4808  134.4189  159.2589 H   0  0  0  0  0  0  0  0  0  0  0  0
  127.5634  133.7158  160.3687 H   0  0  0  0  0  0  0  0  0  0  0  0
  129.8826  134.2486  160.8389 H   0  0  0  0  0  0  0  0  0  0  0  0
  129.8281  133.7874  157.1976 H   0  0  0  0  0  0  0  0  0  0  0  0
  130.7336  131.7955  156.0682 H   0  0  0  0  0  0  0  0  0  0  0  0
  132.0402  130.1439  157.3444 H   0  0  0  0  0  0  0  0  0  0  0  0
  132.4488  130.4888  159.7479 H   0  0  0  0  0  0  0  0  0  0  0  0
  131.5511  132.4854  160.8753 H   0  0  0  0  0  0  0  0  0  0  0  0
  130.3425  136.5314  161.4420 H   0  0  0  0  0  0  0  0  0  0  0  0
  129.6082  137.0645  159.9107 H   0  0  0  0  0  0  0  0  0  0  0  0
  131.1627  138.7805  160.8146 H   0  0  0  0  0  0  0  0  0  0  0  0
  131.7387  138.1412  159.2559 H   0  0  0  0  0  0  0  0  0  0  0  0
  133.7851  138.6744  158.7891 H   0  0  0  0  0  0  0  0  0  0  0  0
  136.2905  141.3520  160.7287 H   0  0  0  0  0  0  0  0  0  0  0  0
  136.0490  142.5878  162.4213 H   0  0  0  0  0  0  0  0  0  0  0  0
  137.0014  143.5672  164.4344 H   0  0  0  0  0  0  0  0  0  0  0  0
  137.7295  143.3189  166.8022 H   0  0  0  0  0  0  0  0  0  0  0  0
  137.9750  141.8515  168.7626 H   0  0  0  0  0  0  0  0  0  0  0  0
  137.2629  139.5007  168.6333 H   0  0  0  0  0  0  0  0  0  0  0  0
  135.6261  138.7989  164.3746 H   0  0  0  0  0  0  0  0  0  0  0  0
  133.9485  138.6232  163.0657 H   0  0  0  0  0  0  0  0  0  0  0  0
  133.5620  136.4905  159.2455 H   0  0  0  0  0  0  0  0  0  0  0  0
  134.2651  135.9718  160.7968 H   0  0  0  0  0  0  0  0  0  0  0  0
  132.1123  134.9292  161.4317 H   0  0  0  0  0  0  0  0  0  0  0  0
  132.7059  134.2600  159.8929 H   0  0  0  0  0  0  0  0  0  0  0  0
  129.8089  136.2044  157.7317 H   0  0  0  0  0  0  0  0  0  0  0  0
  127.7273  136.9005  156.6158 H   0  0  0  0  0  0  0  0  0  0  0  0
  1 36  2  0
  1  2  1  0
  1 37  1  0
  2  3  2  0
  2 38  1  0
  3  4  1  0
  3 39  1  0
  4  5  1  0
  4 35  2  0
  5  6  1  0
  5 12  1  0
  5 40  1  0
  6 11  1  0
  6  7  2  0
  7  8  1  0
  7 41  1  0
  8  9  2  0
  8 42  1  0
  9 10  1  0
  9 43  1  0
 10 11  2  0
 10 44  1  0
 11 45  1  0
 12 13  1  0
 12 34  1  0
 12 14  1  0
 14 15  1  0
 14 46  1  0
 14 47  1  0
 15 16  1  0
 15 48  1  0
 15 49  1  0
 16 17  1  0
 16 33  1  0
 17 32  1  0
 17 18  2  0
 18 19  1  0
 18 50  1  0
 19 20  2  0
 20 21  1  0
 20 51  1  0
 21 22  1  0
 21 32  2  0
 22 31  1  0
 22 23  2  0
 23 24  1  0
 23 52  1  0
 24 25  2  0
 24 53  1  0
 25 30  1  0
 25 26  1  0
 26 27  2  0
 26 54  1  0
 27 28  1  0
 27 55  1  0
 28 29  2  0
 28 56  1  0
 29 30  1  0
 30 31  2  0
 31 57  1  0
 32 58  1  0
 33 34  1  0
 33 59  1  0
 33 60  1  0
 34 61  1  0
 34 62  1  0
 35 36  1  0
 35 63  1  0
 36 64  1  0
M  CHG  1  12   1
M  END
>  <DOCK_score>  (1) 
-59.693665

>  <SMILES>  (1) 
c1ccc(C(c2ccccc2)[NH+]2CCN(c3cncc(-c4ccc5cccnc5c4)c3)CC2)cc1

$$$$
