C1=C\CC/C(c2cccc(-c3n[nH]cc3C[NH+]3CC[C@@H](c4c[nH]c5ccccc45)C3)c2)=C\CC/1
     RDKit          3D

 67 72  0  0  1  0  0  0  0  0999 V2000
  129.6637  132.4223  158.3956 C   0  0  0  0  0  0  0  0  0  0  0  0
  130.4058  132.9577  159.3296 C   0  0  0  0  0  0  0  0  0  0  0  0
  131.1488  134.2419  159.0733 C   0  0  0  0  0  0  0  0  0  0  0  0
  130.3109  135.4044  159.5818 C   0  0  0  0  0  0  0  0  0  0  0  0
  128.8479  135.1467  159.5442 C   0  0  0  0  0  0  0  0  0  0  0  0
  128.0820  135.3561  160.7972 C   0  0  0  0  0  0  0  0  0  0  0  0
  127.3807  134.2957  161.3741 C   0  0  0  0  0  0  0  0  0  0  0  0
  126.6679  134.4901  162.5401 C   0  0  0  0  0  0  0  0  0  0  0  0
  126.6478  135.7320  163.1450 C   0  0  0  0  0  0  0  0  0  0  0  0
  127.3392  136.7999  162.5754 C   0  0  0  0  0  0  0  0  0  0  0  0
  127.3111  138.1344  163.2246 C   0  0  0  0  0  0  0  0  0  0  0  0
  126.4360  139.0900  162.9928 N   0  0  0  0  0  0  0  0  0  0  0  0
  126.7630  140.1853  163.8023 N   0  0  0  0  0  0  0  0  0  0  0  0
  126.2861  141.0293  163.8376 H   0  0  0  0  0  0  0  0  0  0  0  0
  127.8566  139.8622  164.5255 C   0  0  0  0  0  0  0  0  0  0  0  0
  128.2196  138.6043  164.1928 C   0  0  0  0  0  0  0  0  0  0  0  0
  129.3890  137.8396  164.7573 C   0  0  0  0  0  0  0  0  0  0  0  0
  130.5711  138.7110  164.7961 N   0  0  1  0  0  0  0  0  0  0  0  0
  130.3836  139.5131  165.3787 H   0  0  0  0  0  0  0  0  0  0  0  0
  131.7212  137.9632  165.3365 C   0  0  0  0  0  0  0  0  0  0  0  0
  132.8226  137.9747  164.2556 C   0  0  0  0  0  0  0  0  0  0  0  0
  132.4509  139.2080  163.3909 C   0  0  1  0  0  0  0  0  0  0  0  0
  132.8241  140.1275  163.8416 H   0  0  0  0  0  0  0  0  0  0  0  0
  132.9637  139.0538  161.9822 C   0  0  0  0  0  0  0  0  0  0  0  0
  132.6433  138.0777  161.1182 C   0  0  0  0  0  0  0  0  0  0  0  0
  133.3007  138.2691  159.9335 N   0  0  0  0  0  0  0  0  0  0  0  0
  133.2266  137.6940  159.1559 H   0  0  0  0  0  0  0  0  0  0  0  0
  134.0875  139.3964  160.0117 C   0  0  0  0  0  0  0  0  0  0  0  0
  134.9457  140.0292  159.1180 C   0  0  0  0  0  0  0  0  0  0  0  0
  135.6100  141.1735  159.5014 C   0  0  0  0  0  0  0  0  0  0  0  0
  135.4324  141.7034  160.7722 C   0  0  0  0  0  0  0  0  0  0  0  0
  134.5944  141.0981  161.6657 C   0  0  0  0  0  0  0  0  0  0  0  0
  133.9110  139.9373  161.2982 C   0  0  0  0  0  0  0  0  0  0  0  0
  130.9031  139.1605  163.4273 C   0  0  0  0  0  0  0  0  0  0  0  0
  128.0603  136.6116  161.4008 C   0  0  0  0  0  0  0  0  0  0  0  0
  128.1727  134.7507  158.4697 C   0  0  0  0  0  0  0  0  0  0  0  0
  128.8717  134.4742  157.1781 C   0  0  0  0  0  0  0  0  0  0  0  0
  129.4793  133.0965  157.0830 C   0  0  0  0  0  0  0  0  0  0  0  0
  129.1755  131.4773  158.5814 H   0  0  0  0  0  0  0  0  0  0  0  0
  130.5009  132.4670  160.2881 H   0  0  0  0  0  0  0  0  0  0  0  0
  132.1019  134.2191  159.6133 H   0  0  0  0  0  0  0  0  0  0  0  0
  131.3506  134.3555  158.0085 H   0  0  0  0  0  0  0  0  0  0  0  0
  130.5292  136.2900  158.9842 H   0  0  0  0  0  0  0  0  0  0  0  0
  130.5919  135.6071  160.6214 H   0  0  0  0  0  0  0  0  0  0  0  0
  127.3964  133.3217  160.9079 H   0  0  0  0  0  0  0  0  0  0  0  0
  126.1275  133.6671  162.9835 H   0  0  0  0  0  0  0  0  0  0  0  0
  126.0915  135.8768  164.0593 H   0  0  0  0  0  0  0  0  0  0  0  0
  128.3534  140.4975  165.2436 H   0  0  0  0  0  0  0  0  0  0  0  0
  129.1511  137.5050  165.7670 H   0  0  0  0  0  0  0  0  0  0  0  0
  129.5959  136.9747  164.1271 H   0  0  0  0  0  0  0  0  0  0  0  0
  132.0857  138.4474  166.2424 H   0  0  0  0  0  0  0  0  0  0  0  0
  131.4258  136.9376  165.5576 H   0  0  0  0  0  0  0  0  0  0  0  0
  133.8056  138.1036  164.7085 H   0  0  0  0  0  0  0  0  0  0  0  0
  132.7879  137.0621  163.6605 H   0  0  0  0  0  0  0  0  0  0  0  0
  131.9652  137.2633  161.3265 H   0  0  0  0  0  0  0  0  0  0  0  0
  135.0908  139.6246  158.1273 H   0  0  0  0  0  0  0  0  0  0  0  0
  136.2755  141.6635  158.8061 H   0  0  0  0  0  0  0  0  0  0  0  0
  135.9605  142.6015  161.0568 H   0  0  0  0  0  0  0  0  0  0  0  0
  134.4608  141.5162  162.6524 H   0  0  0  0  0  0  0  0  0  0  0  0
  130.5279  138.4483  162.6925 H   0  0  0  0  0  0  0  0  0  0  0  0
  130.4886  140.1515  163.2424 H   0  0  0  0  0  0  0  0  0  0  0  0
  128.6012  137.4352  160.9588 H   0  0  0  0  0  0  0  0  0  0  0  0
  127.0990  134.6097  158.5404 H   0  0  0  0  0  0  0  0  0  0  0  0
  128.1669  134.6029  156.3566 H   0  0  0  0  0  0  0  0  0  0  0  0
  129.6692  135.2121  157.0558 H   0  0  0  0  0  0  0  0  0  0  0  0
  128.8322  132.4715  156.4623 H   0  0  0  0  0  0  0  0  0  0  0  0
  130.4489  133.1742  156.5958 H   0  0  0  0  0  0  0  0  0  0  0  0
  1 38  1  0
  1  2  2  0
  1 39  1  0
  2  3  1  0
  2 40  1  0
  3  4  1  0
  3 41  1  0
  3 42  1  0
  4  5  1  0
  4 43  1  0
  4 44  1  0
  5  6  1  0
  5 36  2  0
  6 35  1  0
  6  7  2  0
  7  8  1  0
  7 45  1  0
  8  9  2  0
  8 46  1  0
  9 10  1  0
  9 47  1  0
 10 11  1  0
 10 35  2  0
 11 16  1  0
 11 12  2  0
 12 13  1  0
 13 14  1  0
 13 15  1  0
 15 16  2  0
 15 48  1  0
 16 17  1  0
 17 18  1  0
 17 49  1  0
 17 50  1  0
 18 19  1  1
 18 34  1  0
 18 20  1  0
 20 21  1  0
 20 51  1  0
 20 52  1  0
 21 22  1  0
 21 53  1  0
 21 54  1  0
 22 23  1  1
 22 24  1  0
 22 34  1  0
 24 33  1  0
 24 25  2  0
 25 26  1  0
 25 55  1  0
 26 27  1  0
 26 28  1  0
 28 33  2  0
 28 29  1  0
 29 30  2  0
 29 56  1  0
 30 31  1  0
 30 57  1  0
 31 32  2  0
 31 58  1  0
 32 33  1  0
 32 59  1  0
 34 60  1  0
 34 61  1  0
 35 62  1  0
 36 37  1  0
 36 63  1  0
 37 38  1  0
 37 64  1  0
 37 65  1  0
 38 66  1  0
 38 67  1  0
M  CHG  1  18   1
M  END
>  <DOCK_score>  (1) 
-46.267757

>  <SMILES>  (1) 
C1=C\CC/C(c2cccc(-c3n[nH]cc3C[NH+]3CC[C@@H](c4c[nH]c5ccccc45)C3)c2)=C\CC/1

$$$$
