Cc1ccc(N[C@@H]2C=C(N)CC2)c(Nc2[nH]cc(-c3ccc(Br)cc3)[nH+]2)c1
     RDKit          3D

 50 53  0  0  1  0  0  0  0  0999 V2000
  134.2629  134.9212  162.4257 C   0  0  0  0  0  0  0  0  0  0  0  0
  133.0065  134.3998  161.7775 C   0  0  0  0  0  0  0  0  0  0  0  0
  132.0094  133.8419  162.5563 C   0  0  0  0  0  0  0  0  0  0  0  0
  130.8540  133.3620  161.9681 C   0  0  0  0  0  0  0  0  0  0  0  0
  130.6923  133.4395  160.5929 C   0  0  0  0  0  0  0  0  0  0  0  0
  129.5236  132.9539  159.9951 N   0  0  0  0  0  0  0  0  0  0  0  0
  128.3746  133.8425  159.8044 C   0  0  2  0  0  0  0  0  0  0  0  0
  128.4365  134.3392  158.8363 H   0  0  0  0  0  0  0  0  0  0  0  0
  128.3088  134.8634  160.9164 C   0  0  0  0  0  0  0  0  0  0  0  0
  127.3865  134.5348  161.7991 C   0  0  0  0  0  0  0  0  0  0  0  0
  127.0872  135.2743  162.9364 N   0  0  0  0  0  0  0  0  0  0  0  0
  126.6982  133.2474  161.4087 C   0  0  0  0  0  0  0  0  0  0  0  0
  127.0539  133.0465  159.9176 C   0  0  0  0  0  0  0  0  0  0  0  0
  131.7003  133.9975  159.8067 C   0  0  0  0  0  0  0  0  0  0  0  0
  131.5457  134.0739  158.4167 N   0  0  0  0  0  0  0  0  0  0  0  0
  131.3698  132.9179  157.6747 C   0  0  0  0  0  0  0  0  0  0  0  0
  131.3228  131.6533  158.1763 N   0  0  0  0  0  0  0  0  0  0  0  0
  131.4068  131.4018  159.1092 H   0  0  0  0  0  0  0  0  0  0  0  0
  131.1352  130.7992  157.1170 C   0  0  0  0  0  0  0  0  0  0  0  0
  131.0730  131.5656  155.9997 C   0  0  0  0  0  0  0  0  0  0  0  0
  130.8777  131.0738  154.6139 C   0  0  0  0  0  0  0  0  0  0  0  0
  130.2245  131.8703  153.6749 C   0  0  0  0  0  0  0  0  0  0  0  0
  130.0506  131.4104  152.3854 C   0  0  0  0  0  0  0  0  0  0  0  0
  130.5134  130.1562  152.0271 C   0  0  0  0  0  0  0  0  0  0  0  0
  130.2641  129.5291  150.2605 Br  0  0  0  0  0  0  0  0  0  0  0  0
  131.1578  129.3590  152.9573 C   0  0  0  0  0  0  0  0  0  0  0  0
  131.3419  129.8116  154.2478 C   0  0  0  0  0  0  0  0  0  0  0  0
  131.2151  132.8613  156.3742 N   0  0  0  0  0  0  0  0  0  0  0  0
  131.2061  133.6242  155.7750 H   0  0  0  0  0  0  0  0  0  0  0  0
  132.8537  134.4812  160.4059 C   0  0  0  0  0  0  0  0  0  0  0  0
  135.0028  134.1225  162.4789 H   0  0  0  0  0  0  0  0  0  0  0  0
  134.6611  135.7463  161.8351 H   0  0  0  0  0  0  0  0  0  0  0  0
  134.0340  135.2720  163.4320 H   0  0  0  0  0  0  0  0  0  0  0  0
  132.1339  133.7804  163.6274 H   0  0  0  0  0  0  0  0  0  0  0  0
  130.0774  132.9266  162.5793 H   0  0  0  0  0  0  0  0  0  0  0  0
  129.4759  132.0299  159.7034 H   0  0  0  0  0  0  0  0  0  0  0  0
  128.9330  135.7426  160.9780 H   0  0  0  0  0  0  0  0  0  0  0  0
  126.3937  134.9714  163.5432 H   0  0  0  0  0  0  0  0  0  0  0  0
  127.5717  136.0935  163.1236 H   0  0  0  0  0  0  0  0  0  0  0  0
  125.6194  133.3413  161.5322 H   0  0  0  0  0  0  0  0  0  0  0  0
  127.0769  132.4169  162.0044 H   0  0  0  0  0  0  0  0  0  0  0  0
  126.2853  133.4711  159.2718 H   0  0  0  0  0  0  0  0  0  0  0  0
  127.2126  131.9921  159.6916 H   0  0  0  0  0  0  0  0  0  0  0  0
  131.5620  134.9369  157.9736 H   0  0  0  0  0  0  0  0  0  0  0  0
  131.0533  129.7234  157.1647 H   0  0  0  0  0  0  0  0  0  0  0  0
  129.8587  132.8470  153.9549 H   0  0  0  0  0  0  0  0  0  0  0  0
  129.5481  132.0284  151.6560 H   0  0  0  0  0  0  0  0  0  0  0  0
  131.5167  128.3810  152.6726 H   0  0  0  0  0  0  0  0  0  0  0  0
  131.8444  129.1888  154.9729 H   0  0  0  0  0  0  0  0  0  0  0  0
  133.6345  134.9176  159.8006 H   0  0  0  0  0  0  0  0  0  0  0  0
  1  2  1  0
  1 31  1  0
  1 32  1  0
  1 33  1  0
  2 30  2  0
  2  3  1  0
  3  4  2  0
  3 34  1  0
  4  5  1  0
  4 35  1  0
  5  6  1  0
  5 14  2  0
  6  7  1  0
  6 36  1  0
  7  8  1  6
  7 13  1  0
  7  9  1  0
  9 10  2  0
  9 37  1  0
 10 11  1  0
 10 12  1  0
 11 38  1  0
 11 39  1  0
 12 13  1  0
 12 40  1  0
 12 41  1  0
 13 42  1  0
 13 43  1  0
 14 15  1  0
 14 30  1  0
 15 44  1  0
 16 15  1  0
 16 28  2  0
 16 17  1  0
 17 18  1  0
 17 19  1  0
 19 20  2  0
 19 45  1  0
 20 21  1  0
 20 28  1  0
 21 27  1  0
 21 22  2  0
 22 23  1  0
 22 46  1  0
 23 24  2  0
 23 47  1  0
 24 25  1  0
 24 26  1  0
 26 27  2  0
 26 48  1  0
 27 49  1  0
 28 29  1  0
 30 50  1  0
M  CHG  1  28   1
M  END
>  <DOCK_score>  (1) 
-57.15646

>  <SMILES>  (1) 
Cc1ccc(N[C@@H]2C=C(N)CC2)c(Nc2[nH]cc(-c3ccc(Br)cc3)[nH+]2)c1

$$$$
