CC1=CCCC[C@@H]1[NH2+][C@H](CO)Cc1c[nH]c2ccc(O)cc12
     RDKit          3D

 47 49  0  0  1  0  0  0  0  0999 V2000
  135.0609  138.3574  157.3299 C   0  0  0  0  0  0  0  0  0  0  0  0
  135.1579  139.1492  158.6085 C   0  0  0  0  0  0  0  0  0  0  0  0
  136.3023  139.6714  158.9137 C   0  0  0  0  0  0  0  0  0  0  0  0
  136.5553  140.4753  160.1553 C   0  0  0  0  0  0  0  0  0  0  0  0
  135.2295  140.9399  160.7617 C   0  0  0  0  0  0  0  0  0  0  0  0
  134.2927  139.7295  160.8647 C   0  0  0  0  0  0  0  0  0  0  0  0
  133.9218  139.2829  159.4489 C   0  0  2  0  0  0  0  0  0  0  0  0
  133.2586  140.0228  159.0010 H   0  0  0  0  0  0  0  0  0  0  0  0
  133.2334  137.9868  159.5119 N   0  0  0  0  0  0  0  0  0  0  0  0
  133.9147  137.2480  159.6028 H   0  0  0  0  0  0  0  0  0  0  0  0
  132.6984  137.8486  158.6677 H   0  0  0  0  0  0  0  0  0  0  0  0
  132.3319  137.9669  160.6716 C   0  0  2  0  0  0  0  0  0  0  0  0
  132.9098  138.1161  161.5836 H   0  0  0  0  0  0  0  0  0  0  0  0
  131.6147  136.6170  160.7372 C   0  0  0  0  0  0  0  0  0  0  0  0
  132.5317  135.5738  160.4006 O   0  0  0  0  0  0  0  0  0  0  0  0
  131.2988  139.0870  160.5336 C   0  0  0  0  0  0  0  0  0  0  0  0
  130.7066  139.3934  161.8851 C   0  0  0  0  0  0  0  0  0  0  0  0
  131.1609  140.2949  162.7701 C   0  0  0  0  0  0  0  0  0  0  0  0
  130.3686  140.2941  163.8853 N   0  0  0  0  0  0  0  0  0  0  0  0
  130.5005  140.8583  164.6632 H   0  0  0  0  0  0  0  0  0  0  0  0
  129.3548  139.3708  163.7387 C   0  0  0  0  0  0  0  0  0  0  0  0
  128.2984  138.9753  164.5526 C   0  0  0  0  0  0  0  0  0  0  0  0
  127.4250  138.0017  164.1224 C   0  0  0  0  0  0  0  0  0  0  0  0
  127.5871  137.4045  162.8747 C   0  0  0  0  0  0  0  0  0  0  0  0
  126.7157  136.4442  162.4652 O   0  0  0  0  0  0  0  0  0  0  0  0
  128.6294  137.7829  162.0524 C   0  0  0  0  0  0  0  0  0  0  0  0
  129.5212  138.7698  162.4784 C   0  0  0  0  0  0  0  0  0  0  0  0
  134.7436  139.0135  156.5195 H   0  0  0  0  0  0  0  0  0  0  0  0
  136.0353  137.9310  157.0918 H   0  0  0  0  0  0  0  0  0  0  0  0
  134.3336  137.5550  157.4538 H   0  0  0  0  0  0  0  0  0  0  0  0
  137.1262  139.5194  158.2322 H   0  0  0  0  0  0  0  0  0  0  0  0
  137.0891  139.8614  160.8808 H   0  0  0  0  0  0  0  0  0  0  0  0
  137.1607  141.3465  159.9046 H   0  0  0  0  0  0  0  0  0  0  0  0
  135.4056  141.3525  161.7552 H   0  0  0  0  0  0  0  0  0  0  0  0
  134.7813  141.7012  160.1232 H   0  0  0  0  0  0  0  0  0  0  0  0
  133.3907  140.0094  161.4088 H   0  0  0  0  0  0  0  0  0  0  0  0
  134.8002  138.9167  161.3842 H   0  0  0  0  0  0  0  0  0  0  0  0
  131.2355  136.4558  161.7463 H   0  0  0  0  0  0  0  0  0  0  0  0
  130.7840  136.6122  160.0317 H   0  0  0  0  0  0  0  0  0  0  0  0
  132.9095  135.6534  159.5140 H   0  0  0  0  0  0  0  0  0  0  0  0
  130.5079  138.7701  159.8538 H   0  0  0  0  0  0  0  0  0  0  0  0
  131.7819  139.9803  160.1377 H   0  0  0  0  0  0  0  0  0  0  0  0
  132.0261  140.9248  162.6247 H   0  0  0  0  0  0  0  0  0  0  0  0
  128.1630  139.4318  165.5220 H   0  0  0  0  0  0  0  0  0  0  0  0
  126.6067  137.6980  164.7583 H   0  0  0  0  0  0  0  0  0  0  0  0
  126.9073  136.0878  161.5868 H   0  0  0  0  0  0  0  0  0  0  0  0
  128.7540  137.3192  161.0850 H   0  0  0  0  0  0  0  0  0  0  0  0
  1  2  1  0
  1 28  1  0
  1 29  1  0
  1 30  1  0
  2  7  1  0
  2  3  2  0
  3  4  1  0
  3 31  1  0
  4  5  1  0
  4 32  1  0
  4 33  1  0
  5  6  1  0
  5 34  1  0
  5 35  1  0
  6  7  1  0
  6 36  1  0
  6 37  1  0
  7  8  1  6
  7  9  1  0
  9 10  1  0
  9 11  1  0
  9 12  1  0
 12 13  1  1
 12 14  1  0
 12 16  1  0
 14 15  1  0
 14 38  1  0
 14 39  1  0
 15 40  1  0
 16 17  1  0
 16 41  1  0
 16 42  1  0
 17 27  1  0
 17 18  2  0
 18 19  1  0
 18 43  1  0
 19 20  1  0
 19 21  1  0
 21 27  2  0
 21 22  1  0
 22 23  2  0
 22 44  1  0
 23 24  1  0
 23 45  1  0
 24 25  1  0
 24 26  2  0
 25 46  1  0
 26 27  1  0
 26 47  1  0
M  CHG  1   9   1
M  END
>  <DOCK_score>  (1) 
-42.082359

>  <SMILES>  (1) 
CC1=CCCC[C@@H]1[NH2+][C@H](CO)Cc1c[nH]c2ccc(O)cc12

$$$$
