CCc1ccc(-c2c[nH]c(N[C@H](c3cnn(C)c3)c3cccc(N)c3C)[nH+]2)cc1
     RDKit          3D

 56 59  0  0  1  0  0  0  0  0999 V2000
  130.2261  128.4377  151.6052 C   0  0  0  0  0  0  0  0  0  0  0  0
  131.3771  129.3913  151.9313 C   0  0  0  0  0  0  0  0  0  0  0  0
  131.0256  130.2050  153.1500 C   0  0  0  0  0  0  0  0  0  0  0  0
  131.3604  129.7401  154.4086 C   0  0  0  0  0  0  0  0  0  0  0  0
  131.0461  130.4836  155.5281 C   0  0  0  0  0  0  0  0  0  0  0  0
  130.3798  131.6998  155.3890 C   0  0  0  0  0  0  0  0  0  0  0  0
  130.0343  132.5009  156.5887 C   0  0  0  0  0  0  0  0  0  0  0  0
  129.2482  132.0984  157.6179 C   0  0  0  0  0  0  0  0  0  0  0  0
  129.1932  133.1421  158.5093 N   0  0  0  0  0  0  0  0  0  0  0  0
  128.7060  133.1562  159.3480 H   0  0  0  0  0  0  0  0  0  0  0  0
  129.9480  134.1527  157.9985 C   0  0  0  0  0  0  0  0  0  0  0  0
  130.1528  135.3860  158.5929 N   0  0  0  0  0  0  0  0  0  0  0  0
  129.5299  135.6895  159.8837 C   0  0  2  0  0  0  0  0  0  0  0  0
  128.4462  135.6192  159.7896 H   0  0  0  0  0  0  0  0  0  0  0  0
  129.9077  137.0854  160.3080 C   0  0  0  0  0  0  0  0  0  0  0  0
  130.1880  138.1575  159.4543 C   0  0  0  0  0  0  0  0  0  0  0  0
  130.4702  139.2023  160.1894 N   0  0  0  0  0  0  0  0  0  0  0  0
  130.3881  138.8250  161.5361 N   0  0  0  0  0  0  0  0  0  0  0  0
  130.6345  139.6924  162.6908 C   0  0  0  0  0  0  0  0  0  0  0  0
  130.0414  137.5216  161.5818 C   0  0  0  0  0  0  0  0  0  0  0  0
  130.0096  134.7032  160.9173 C   0  0  0  0  0  0  0  0  0  0  0  0
  131.2709  134.1466  160.8077 C   0  0  0  0  0  0  0  0  0  0  0  0
  131.7151  133.2416  161.7541 C   0  0  0  0  0  0  0  0  0  0  0  0
  130.8997  132.8906  162.8123 C   0  0  0  0  0  0  0  0  0  0  0  0
  129.6326  133.4477  162.9254 C   0  0  0  0  0  0  0  0  0  0  0  0
  128.8054  133.0946  163.9939 N   0  0  0  0  0  0  0  0  0  0  0  0
  129.1914  134.3607  161.9755 C   0  0  0  0  0  0  0  0  0  0  0  0
  127.8194  134.9721  162.0971 C   0  0  0  0  0  0  0  0  0  0  0  0
  130.4537  133.7637  156.8535 N   0  0  0  0  0  0  0  0  0  0  0  0
  131.0332  134.2947  156.2851 H   0  0  0  0  0  0  0  0  0  0  0  0
  130.0397  132.1610  154.1185 C   0  0  0  0  0  0  0  0  0  0  0  0
  130.3642  131.4118  153.0057 C   0  0  0  0  0  0  0  0  0  0  0  0
  129.3213  129.0132  151.4095 H   0  0  0  0  0  0  0  0  0  0  0  0
  130.4803  127.8493  150.7236 H   0  0  0  0  0  0  0  0  0  0  0  0
  130.0568  127.7709  152.4506 H   0  0  0  0  0  0  0  0  0  0  0  0
  132.2817  128.8164  152.1265 H   0  0  0  0  0  0  0  0  0  0  0  0
  131.5462  130.0587  151.0853 H   0  0  0  0  0  0  0  0  0  0  0  0
  131.8724  128.7953  154.5155 H   0  0  0  0  0  0  0  0  0  0  0  0
  131.3121  130.1217  156.5102 H   0  0  0  0  0  0  0  0  0  0  0  0
  128.7588  131.1408  157.7173 H   0  0  0  0  0  0  0  0  0  0  0  0
  130.7089  136.0493  158.1548 H   0  0  0  0  0  0  0  0  0  0  0  0
  130.1714  138.1285  158.3749 H   0  0  0  0  0  0  0  0  0  0  0  0
  131.6886  139.6429  162.9639 H   0  0  0  0  0  0  0  0  0  0  0  0
  130.3730  140.7194  162.4361 H   0  0  0  0  0  0  0  0  0  0  0  0
  130.0254  139.3600  163.5314 H   0  0  0  0  0  0  0  0  0  0  0  0
  129.8968  136.9322  162.4752 H   0  0  0  0  0  0  0  0  0  0  0  0
  131.9106  134.4196  159.9815 H   0  0  0  0  0  0  0  0  0  0  0  0
  132.7004  132.8085  161.6655 H   0  0  0  0  0  0  0  0  0  0  0  0
  131.2472  132.1834  163.5510 H   0  0  0  0  0  0  0  0  0  0  0  0
  129.1158  132.4596  164.6582 H   0  0  0  0  0  0  0  0  0  0  0  0
  127.9206  133.4844  164.0718 H   0  0  0  0  0  0  0  0  0  0  0  0
  127.0957  134.3480  161.5729 H   0  0  0  0  0  0  0  0  0  0  0  0
  127.5444  135.0416  163.1496 H   0  0  0  0  0  0  0  0  0  0  0  0
  127.8257  135.9693  161.6567 H   0  0  0  0  0  0  0  0  0  0  0  0
  129.5232  133.1027  154.0049 H   0  0  0  0  0  0  0  0  0  0  0  0
  130.1009  131.7680  152.0207 H   0  0  0  0  0  0  0  0  0  0  0  0
  1  2  1  0
  1 33  1  0
  1 34  1  0
  1 35  1  0
  2  3  1  0
  2 36  1  0
  2 37  1  0
  3 32  2  0
  3  4  1  0
  4  5  2  0
  4 38  1  0
  5  6  1  0
  5 39  1  0
  6  7  1  0
  6 31  2  0
  7 29  1  0
  7  8  2  0
  8  9  1  0
  8 40  1  0
  9 10  1  0
  9 11  1  0
 11 12  1  0
 11 29  2  0
 12 13  1  0
 12 41  1  0
 13 14  1  6
 13 15  1  0
 13 21  1  0
 15 20  2  0
 15 16  1  0
 16 17  2  0
 16 42  1  0
 17 18  1  0
 18 19  1  0
 18 20  1  0
 19 43  1  0
 19 44  1  0
 19 45  1  0
 20 46  1  0
 21 27  1  0
 21 22  2  0
 22 23  1  0
 22 47  1  0
 23 24  2  0
 23 48  1  0
 24 25  1  0
 24 49  1  0
 25 26  1  0
 25 27  2  0
 26 50  1  0
 26 51  1  0
 27 28  1  0
 28 52  1  0
 28 53  1  0
 28 54  1  0
 29 30  1  0
 31 32  1  0
 31 55  1  0
 32 56  1  0
M  CHG  1  29   1
M  END
>  <DOCK_score>  (1) 
-57.927677

>  <SMILES>  (1) 
CCc1ccc(-c2c[nH]c(N[C@H](c3cnn(C)c3)c3cccc(N)c3C)[nH+]2)cc1

$$$$
