CCn1ncnc1[C@H](C)[NH2+]C1CN(Cc2cc(C)cc(Sc3ccc(N)nc3C)c2)C1
     RDKit          3D

 63 66  0  0  1  0  0  0  0  0999 V2000
  130.6102  132.2132  155.3769 C   0  0  0  0  0  0  0  0  0  0  0  0
  129.6389  132.2249  156.5591 C   0  0  0  0  0  0  0  0  0  0  0  0
  130.3920  132.1154  157.8109 N   0  0  0  0  0  0  0  0  0  0  0  0
  131.4525  131.2351  158.0809 N   0  0  0  0  0  0  0  0  0  0  0  0
  131.8301  131.4650  159.3111 C   0  0  0  0  0  0  0  0  0  0  0  0
  131.0747  132.4369  159.8211 N   0  0  0  0  0  0  0  0  0  0  0  0
  130.2075  132.8398  158.9282 C   0  0  0  0  0  0  0  0  0  0  0  0
  129.1773  133.9227  159.1208 C   0  0  2  0  0  0  0  0  0  0  0  0
  128.3030  133.7056  158.5070 H   0  0  0  0  0  0  0  0  0  0  0  0
  129.7702  135.2705  158.7052 C   0  0  0  0  0  0  0  0  0  0  0  0
  128.7819  133.9765  160.5345 N   0  0  0  0  0  0  0  0  0  0  0  0
  129.5912  134.1773  161.1027 H   0  0  0  0  0  0  0  0  0  0  0  0
  128.3907  133.0877  160.8085 H   0  0  0  0  0  0  0  0  0  0  0  0
  127.7777  135.0321  160.7223 C   0  0  0  0  0  0  0  0  0  0  0  0
  128.3110  136.2896  161.4231 C   0  0  0  0  0  0  0  0  0  0  0  0
  127.0421  136.3453  162.1724 N   0  0  0  0  0  0  0  0  0  0  0  0
  127.2766  136.6954  163.5796 C   0  0  0  0  0  0  0  0  0  0  0  0
  127.4722  138.1848  163.7009 C   0  0  0  0  0  0  0  0  0  0  0  0
  126.3828  139.0093  163.9173 C   0  0  0  0  0  0  0  0  0  0  0  0
  126.5573  140.3765  164.0287 C   0  0  0  0  0  0  0  0  0  0  0  0
  125.3672  141.2705  164.2640 C   0  0  0  0  0  0  0  0  0  0  0  0
  127.8217  140.9232  163.9294 C   0  0  0  0  0  0  0  0  0  0  0  0
  128.9178  140.0986  163.7068 C   0  0  0  0  0  0  0  0  0  0  0  0
  130.5321  140.7922  163.5733 S   0  0  0  0  0  0  0  0  0  0  0  0
  131.3544  139.6762  162.4858 C   0  0  0  0  0  0  0  0  0  0  0  0
  132.4957  138.9931  162.9059 C   0  0  0  0  0  0  0  0  0  0  0  0
  133.1088  138.1276  162.0192 C   0  0  0  0  0  0  0  0  0  0  0  0
  132.5713  137.9679  160.7461 C   0  0  0  0  0  0  0  0  0  0  0  0
  133.1817  137.0985  159.8452 N   0  0  0  0  0  0  0  0  0  0  0  0
  131.4864  138.6323  160.3813 N   0  0  0  0  0  0  0  0  0  0  0  0
  130.8752  139.4661  161.2014 C   0  0  0  0  0  0  0  0  0  0  0  0
  129.6428  140.1986  160.7370 C   0  0  0  0  0  0  0  0  0  0  0  0
  128.7384  138.7247  163.5954 C   0  0  0  0  0  0  0  0  0  0  0  0
  126.9414  134.8840  162.0010 C   0  0  0  0  0  0  0  0  0  0  0  0
  131.2969  133.0553  155.4626 H   0  0  0  0  0  0  0  0  0  0  0  0
  131.1756  131.2814  155.3805 H   0  0  0  0  0  0  0  0  0  0  0  0
  130.0498  132.2947  154.4455 H   0  0  0  0  0  0  0  0  0  0  0  0
  128.9520  131.3828  156.4733 H   0  0  0  0  0  0  0  0  0  0  0  0
  129.0734  133.1567  156.5556 H   0  0  0  0  0  0  0  0  0  0  0  0
  132.6252  130.9503  159.8300 H   0  0  0  0  0  0  0  0  0  0  0  0
  129.0251  136.0537  158.8446 H   0  0  0  0  0  0  0  0  0  0  0  0
  130.6445  135.4876  159.3190 H   0  0  0  0  0  0  0  0  0  0  0  0
  130.0635  135.2305  157.6563 H   0  0  0  0  0  0  0  0  0  0  0  0
  127.1939  135.2353  159.8245 H   0  0  0  0  0  0  0  0  0  0  0  0
  128.4550  137.1343  160.7494 H   0  0  0  0  0  0  0  0  0  0  0  0
  129.1797  136.0997  162.0537 H   0  0  0  0  0  0  0  0  0  0  0  0
  128.1685  136.1816  163.9382 H   0  0  0  0  0  0  0  0  0  0  0  0
  126.4174  136.3920  164.1776 H   0  0  0  0  0  0  0  0  0  0  0  0
  125.3932  138.5841  163.9991 H   0  0  0  0  0  0  0  0  0  0  0  0
  125.2067  141.3873  165.3358 H   0  0  0  0  0  0  0  0  0  0  0  0
  125.5519  142.2467  163.8158 H   0  0  0  0  0  0  0  0  0  0  0  0
  124.4822  140.8242  163.8105 H   0  0  0  0  0  0  0  0  0  0  0  0
  127.9579  141.9906  164.0210 H   0  0  0  0  0  0  0  0  0  0  0  0
  132.8911  139.1369  163.9005 H   0  0  0  0  0  0  0  0  0  0  0  0
  133.9941  137.5823  162.3112 H   0  0  0  0  0  0  0  0  0  0  0  0
  132.8115  136.9829  158.9561 H   0  0  0  0  0  0  0  0  0  0  0  0
  133.9770  136.6088  160.1069 H   0  0  0  0  0  0  0  0  0  0  0  0
  128.7583  139.6056  160.9697 H   0  0  0  0  0  0  0  0  0  0  0  0
  129.5790  141.1608  161.2450 H   0  0  0  0  0  0  0  0  0  0  0  0
  129.6998  140.3592  159.6604 H   0  0  0  0  0  0  0  0  0  0  0  0
  129.5885  138.0803  163.4267 H   0  0  0  0  0  0  0  0  0  0  0  0
  127.4445  134.3190  162.7858 H   0  0  0  0  0  0  0  0  0  0  0  0
  125.9245  134.5372  161.8170 H   0  0  0  0  0  0  0  0  0  0  0  0
  1  2  1  0
  1 35  1  0
  1 36  1  0
  1 37  1  0
  2  3  1  0
  2 38  1  0
  2 39  1  0
  3  7  1  0
  3  4  1  0
  4  5  2  0
  5  6  1  0
  5 40  1  0
  6  7  2  0
  7  8  1  0
  8  9  1  6
  8 10  1  0
  8 11  1  0
 10 41  1  0
 10 42  1  0
 10 43  1  0
 11 12  1  0
 11 13  1  0
 11 14  1  0
 14 34  1  0
 14 15  1  0
 14 44  1  0
 15 16  1  0
 15 45  1  0
 15 46  1  0
 16 17  1  0
 16 34  1  0
 17 18  1  0
 17 47  1  0
 17 48  1  0
 18 33  1  0
 18 19  2  0
 19 20  1  0
 19 49  1  0
 20 21  1  0
 20 22  2  0
 21 50  1  0
 21 51  1  0
 21 52  1  0
 22 23  1  0
 22 53  1  0
 23 24  1  0
 23 33  2  0
 24 25  1  0
 25 31  1  0
 25 26  2  0
 26 27  1  0
 26 54  1  0
 27 28  2  0
 27 55  1  0
 28 29  1  0
 28 30  1  0
 29 56  1  0
 29 57  1  0
 30 31  2  0
 31 32  1  0
 32 58  1  0
 32 59  1  0
 32 60  1  0
 33 61  1  0
 34 62  1  0
 34 63  1  0
M  CHG  1  11   1
M  END
>  <DOCK_score>  (1) 
-43.399796

>  <SMILES>  (1) 
CCn1ncnc1[C@H](C)[NH2+]C1CN(Cc2cc(C)cc(Sc3ccc(N)nc3C)c2)C1

$$$$
