O=C1CC[C@@H]([NH+]=C(N[C@@H]2C[C@H](O)[C@@H](F)C2)N[C@H]2[C@@H]3CC=CC[C@@H]32)CN1
     RDKit          3D

 53 56  0  0  1  0  0  0  0  0999 V2000
  123.7392  134.6636  162.6714 O   0  0  0  0  0  0  0  0  0  0  0  0
  124.8069  134.4254  162.1480 C   0  0  0  0  0  0  0  0  0  0  0  0
  125.6171  133.2768  162.6765 C   0  0  0  0  0  0  0  0  0  0  0  0
  126.6751  132.8689  161.6484 C   0  0  0  0  0  0  0  0  0  0  0  0
  127.4092  134.1312  161.1803 C   0  0  1  0  0  0  0  0  0  0  0  0
  127.7695  134.6871  162.0459 H   0  0  0  0  0  0  0  0  0  0  0  0
  128.5401  133.7548  160.3284 N   0  0  0  0  0  0  0  0  0  0  0  0
  128.7186  132.8192  160.1446 H   0  0  0  0  0  0  0  0  0  0  0  0
  129.3064  134.6770  159.8173 C   0  0  0  0  0  0  0  0  0  0  0  0
  129.4935  135.8636  160.4860 N   0  0  0  0  0  0  0  0  0  0  0  0
  130.3548  136.9002  159.9117 C   0  0  2  0  0  0  0  0  0  0  0  0
  130.3372  136.8493  158.8229 H   0  0  0  0  0  0  0  0  0  0  0  0
  131.8041  136.7537  160.4379 C   0  0  0  0  0  0  0  0  0  0  0  0
  132.3794  138.1805  160.2569 C   0  0  2  0  0  0  0  0  0  0  0  0
  132.6890  138.3387  159.2237 H   0  0  0  0  0  0  0  0  0  0  0  0
  133.4782  138.3931  161.1453 O   0  0  0  0  0  0  0  0  0  0  0  0
  131.2028  139.1111  160.6164 C   0  0  1  0  0  0  0  0  0  0  0  0
  131.2761  139.4199  161.6591 H   0  0  0  0  0  0  0  0  0  0  0  0
  131.2084  140.2346  159.7828 F   0  0  0  0  0  0  0  0  0  0  0  0
  129.9155  138.2971  160.3968 C   0  0  0  0  0  0  0  0  0  0  0  0
  129.9276  134.4632  158.6097 N   0  0  0  0  0  0  0  0  0  0  0  0
  129.7283  133.1988  157.8972 C   0  0  1  0  0  0  0  0  0  0  0  0
  128.6978  132.9704  157.6251 H   0  0  0  0  0  0  0  0  0  0  0  0
  130.8283  132.7518  156.9323 C   0  0  2  0  0  0  0  0  0  0  0  0
  131.7015  133.3933  156.8138 H   0  0  0  0  0  0  0  0  0  0  0  0
  130.3556  131.9299  155.6972 C   0  0  0  0  0  0  0  0  0  0  0  0
  130.8008  130.4988  155.8727 C   0  0  0  0  0  0  0  0  0  0  0  0
  130.6490  129.8928  157.0240 C   0  0  0  0  0  0  0  0  0  0  0  0
  130.0261  130.6166  158.1926 C   0  0  0  0  0  0  0  0  0  0  0  0
  130.6348  132.0255  158.2751 C   0  0  2  0  0  0  0  0  0  0  0  0
  131.3781  132.1801  159.0572 H   0  0  0  0  0  0  0  0  0  0  0  0
  126.4335  134.9990  160.3849 C   0  0  0  0  0  0  0  0  0  0  0  0
  125.1990  135.1978  161.1341 N   0  0  0  0  0  0  0  0  0  0  0  0
  124.9593  132.4305  162.8745 H   0  0  0  0  0  0  0  0  0  0  0  0
  126.1085  133.5760  163.6025 H   0  0  0  0  0  0  0  0  0  0  0  0
  127.3851  132.1800  162.1059 H   0  0  0  0  0  0  0  0  0  0  0  0
  126.1933  132.3877  160.7972 H   0  0  0  0  0  0  0  0  0  0  0  0
  129.0552  136.0145  161.3381 H   0  0  0  0  0  0  0  0  0  0  0  0
  131.8062  136.4669  161.4894 H   0  0  0  0  0  0  0  0  0  0  0  0
  132.3607  136.0312  159.8410 H   0  0  0  0  0  0  0  0  0  0  0  0
  133.2505  138.3037  162.0809 H   0  0  0  0  0  0  0  0  0  0  0  0
  129.2947  138.7771  159.6403 H   0  0  0  0  0  0  0  0  0  0  0  0
  129.3640  138.2108  161.3331 H   0  0  0  0  0  0  0  0  0  0  0  0
  130.4980  135.1495  158.2294 H   0  0  0  0  0  0  0  0  0  0  0  0
  130.8055  132.3455  154.7955 H   0  0  0  0  0  0  0  0  0  0  0  0
  129.2691  131.9683  155.6188 H   0  0  0  0  0  0  0  0  0  0  0  0
  131.2479  129.9706  155.0435 H   0  0  0  0  0  0  0  0  0  0  0  0
  130.9722  128.8687  157.1379 H   0  0  0  0  0  0  0  0  0  0  0  0
  130.2354  130.0729  159.1138 H   0  0  0  0  0  0  0  0  0  0  0  0
  128.9483  130.6912  158.0483 H   0  0  0  0  0  0  0  0  0  0  0  0
  126.2055  134.5085  159.4385 H   0  0  0  0  0  0  0  0  0  0  0  0
  126.8948  135.9665  160.1872 H   0  0  0  0  0  0  0  0  0  0  0  0
  124.6271  135.9388  160.8795 H   0  0  0  0  0  0  0  0  0  0  0  0
  1  2  2  0
  2 33  1  0
  2  3  1  0
  3  4  1  0
  3 34  1  0
  3 35  1  0
  4  5  1  0
  4 36  1  0
  4 37  1  0
  5  6  1  1
  5  7  1  0
  5 32  1  0
  7  8  1  0
  9  7  2  0
  9 10  1  0
  9 21  1  0
 10 11  1  0
 10 38  1  0
 11 12  1  6
 11 20  1  0
 11 13  1  0
 13 14  1  0
 13 39  1  0
 13 40  1  0
 14 15  1  6
 14 16  1  0
 14 17  1  0
 16 41  1  0
 17 18  1  1
 17 19  1  0
 17 20  1  0
 20 42  1  0
 20 43  1  0
 21 22  1  0
 21 44  1  0
 22 23  1  6
 22 30  1  0
 22 24  1  0
 24 25  1  6
 24 30  1  0
 24 26  1  0
 26 27  1  0
 26 45  1  0
 26 46  1  0
 27 28  2  0
 27 47  1  0
 28 29  1  0
 28 48  1  0
 29 30  1  0
 29 49  1  0
 29 50  1  0
 30 31  1  1
 32 33  1  0
 32 51  1  0
 32 52  1  0
 33 53  1  0
M  CHG  1   7   1
M  END
>  <DOCK_score>  (1) 
-44.623535

>  <SMILES>  (1) 
O=C1CC[C@@H]([NH+]=C(N[C@@H]2C[C@H](O)[C@@H](F)C2)N[C@H]2[C@@H]3CC=CC[C@@H]32)CN1

$$$$
