Fc1cccc([C@H](Nc2[nH]cc(-c3ccc(Br)cc3)[nH+]2)c2cccc(Cl)c2)c1
     RDKit          3D

 45 48  0  0  1  0  0  0  0  0999 V2000
  133.1592  134.0123  162.8602 F   0  0  0  0  0  0  0  0  0  0  0  0
  131.8413  134.1114  162.5794 C   0  0  0  0  0  0  0  0  0  0  0  0
  130.9264  133.3289  163.2638 C   0  0  0  0  0  0  0  0  0  0  0  0
  129.5788  133.4308  162.9754 C   0  0  0  0  0  0  0  0  0  0  0  0
  129.1440  134.3134  162.0041 C   0  0  0  0  0  0  0  0  0  0  0  0
  130.0558  135.0990  161.3243 C   0  0  0  0  0  0  0  0  0  0  0  0
  129.5796  136.0650  160.2703 C   0  0  2  0  0  0  0  0  0  0  0  0
  128.4946  136.0038  160.1848 H   0  0  0  0  0  0  0  0  0  0  0  0
  130.1910  135.7241  158.9834 N   0  0  0  0  0  0  0  0  0  0  0  0
  129.9699  134.4789  158.4202 C   0  0  0  0  0  0  0  0  0  0  0  0
  129.2033  133.4909  158.9572 N   0  0  0  0  0  0  0  0  0  0  0  0
  128.7181  133.5319  159.7961 H   0  0  0  0  0  0  0  0  0  0  0  0
  129.2440  132.4245  158.0919 C   0  0  0  0  0  0  0  0  0  0  0  0
  130.0335  132.7912  157.0522 C   0  0  0  0  0  0  0  0  0  0  0  0
  130.3677  131.9560  155.8728 C   0  0  0  0  0  0  0  0  0  0  0  0
  130.0199  132.3828  154.5923 C   0  0  0  0  0  0  0  0  0  0  0  0
  130.3383  131.6048  153.4980 C   0  0  0  0  0  0  0  0  0  0  0  0
  130.9914  130.3971  153.6711 C   0  0  0  0  0  0  0  0  0  0  0  0
  131.4168  129.3319  152.1676 Br  0  0  0  0  0  0  0  0  0  0  0  0
  131.3341  129.9656  154.9413 C   0  0  0  0  0  0  0  0  0  0  0  0
  131.0254  130.7388  156.0417 C   0  0  0  0  0  0  0  0  0  0  0  0
  130.4596  134.0591  157.2792 N   0  0  0  0  0  0  0  0  0  0  0  0
  131.0367  134.5722  156.6921 H   0  0  0  0  0  0  0  0  0  0  0  0
  129.9744  137.4668  160.6582 C   0  0  0  0  0  0  0  0  0  0  0  0
  131.1915  137.9801  160.2495 C   0  0  0  0  0  0  0  0  0  0  0  0
  131.5543  139.2655  160.6048 C   0  0  0  0  0  0  0  0  0  0  0  0
  130.7005  140.0388  161.3691 C   0  0  0  0  0  0  0  0  0  0  0  0
  129.4829  139.5257  161.7783 C   0  0  0  0  0  0  0  0  0  0  0  0
  128.4104  140.4960  162.7385 Cl  0  0  0  0  0  0  0  0  0  0  0  0
  129.1177  138.2407  161.4174 C   0  0  0  0  0  0  0  0  0  0  0  0
  131.4047  134.9946  161.6069 C   0  0  0  0  0  0  0  0  0  0  0  0
  131.2658  132.6398  164.0228 H   0  0  0  0  0  0  0  0  0  0  0  0
  128.8651  132.8210  163.5093 H   0  0  0  0  0  0  0  0  0  0  0  0
  128.0904  134.3926  161.7796 H   0  0  0  0  0  0  0  0  0  0  0  0
  130.7508  136.3707  158.5259 H   0  0  0  0  0  0  0  0  0  0  0  0
  128.7428  131.4758  158.2158 H   0  0  0  0  0  0  0  0  0  0  0  0
  129.5061  133.3230  154.4566 H   0  0  0  0  0  0  0  0  0  0  0  0
  130.0729  131.9365  152.5052 H   0  0  0  0  0  0  0  0  0  0  0  0
  131.8439  129.0224  155.0710 H   0  0  0  0  0  0  0  0  0  0  0  0
  131.2934  130.4016  157.0321 H   0  0  0  0  0  0  0  0  0  0  0  0
  131.8588  137.3764  159.6520 H   0  0  0  0  0  0  0  0  0  0  0  0
  132.5049  139.6661  160.2850 H   0  0  0  0  0  0  0  0  0  0  0  0
  130.9840  141.0433  161.6464 H   0  0  0  0  0  0  0  0  0  0  0  0
  128.1652  137.8411  161.7329 H   0  0  0  0  0  0  0  0  0  0  0  0
  132.1175  135.6054  161.0726 H   0  0  0  0  0  0  0  0  0  0  0  0
  1  2  1  0
  2 31  2  0
  2  3  1  0
  3  4  2  0
  3 32  1  0
  4  5  1  0
  4 33  1  0
  5  6  2  0
  5 34  1  0
  6  7  1  0
  6 31  1  0
  7  8  1  6
  7  9  1  0
  7 24  1  0
  9 35  1  0
 10  9  1  0
 10 22  2  0
 10 11  1  0
 11 12  1  0
 11 13  1  0
 13 14  2  0
 13 36  1  0
 14 15  1  0
 14 22  1  0
 15 21  1  0
 15 16  2  0
 16 17  1  0
 16 37  1  0
 17 18  2  0
 17 38  1  0
 18 19  1  0
 18 20  1  0
 20 21  2  0
 20 39  1  0
 21 40  1  0
 22 23  1  0
 24 30  1  0
 24 25  2  0
 25 26  1  0
 25 41  1  0
 26 27  2  0
 26 42  1  0
 27 28  1  0
 27 43  1  0
 28 29  1  0
 28 30  2  0
 30 44  1  0
 31 45  1  0
M  CHG  1  22   1
M  END
>  <DOCK_score>  (1) 
-57.086487

>  <SMILES>  (1) 
Fc1cccc([C@H](Nc2[nH]cc(-c3ccc(Br)cc3)[nH+]2)c2cccc(Cl)c2)c1

$$$$
