Cc1c(Cc2ccccc2)cccc1N1CC[NH+](C(c2ccccc2)c2ccccc2)CC1
     RDKit          3D

 66 70  0  0  0  0  0  0  0  0999 V2000
  133.5495  138.3073  163.4807 C   0  0  0  0  0  0  0  0  0  0  0  0
  134.1063  138.8547  162.1917 C   0  0  0  0  0  0  0  0  0  0  0  0
  135.0405  139.8718  162.2188 C   0  0  0  0  0  0  0  0  0  0  0  0
  135.5033  140.4338  163.5382 C   0  0  0  0  0  0  0  0  0  0  0  0
  136.1396  139.3389  164.3551 C   0  0  0  0  0  0  0  0  0  0  0  0
  135.8323  139.2100  165.6968 C   0  0  0  0  0  0  0  0  0  0  0  0
  136.4124  138.2027  166.4451 C   0  0  0  0  0  0  0  0  0  0  0  0
  137.3071  137.3305  165.8540 C   0  0  0  0  0  0  0  0  0  0  0  0
  137.6187  137.4628  164.5137 C   0  0  0  0  0  0  0  0  0  0  0  0
  137.0348  138.4670  163.7643 C   0  0  0  0  0  0  0  0  0  0  0  0
  135.5477  140.3784  161.0365 C   0  0  0  0  0  0  0  0  0  0  0  0
  135.1257  139.8655  159.8233 C   0  0  0  0  0  0  0  0  0  0  0  0
  134.1962  138.8448  159.7892 C   0  0  0  0  0  0  0  0  0  0  0  0
  133.6846  138.3335  160.9753 C   0  0  0  0  0  0  0  0  0  0  0  0
  132.7440  137.3014  160.9445 N   0  0  0  0  0  0  0  0  0  0  0  0
  131.5050  137.7374  160.2851 C   0  0  0  0  0  0  0  0  0  0  0  0
  130.4819  136.6001  160.3249 C   0  0  0  0  0  0  0  0  0  0  0  0
  131.0322  135.4221  159.6415 N   0  0  0  0  0  0  0  0  0  0  0  0
  131.2488  135.6592  158.6850 H   0  0  0  0  0  0  0  0  0  0  0  0
  130.0429  134.3365  159.6642 C   0  0  0  0  0  0  0  0  0  0  0  0
  128.7882  134.7854  158.9602 C   0  0  0  0  0  0  0  0  0  0  0  0
  127.5617  134.2730  159.3399 C   0  0  0  0  0  0  0  0  0  0  0  0
  126.4104  134.6883  158.6973 C   0  0  0  0  0  0  0  0  0  0  0  0
  126.4862  135.6080  157.6690 C   0  0  0  0  0  0  0  0  0  0  0  0
  127.7137  136.1166  157.2852 C   0  0  0  0  0  0  0  0  0  0  0  0
  128.8645  135.7052  157.9312 C   0  0  0  0  0  0  0  0  0  0  0  0
  130.6071  133.1278  158.9630 C   0  0  0  0  0  0  0  0  0  0  0  0
  130.4087  132.9611  157.6052 C   0  0  0  0  0  0  0  0  0  0  0  0
  130.9306  131.8548  156.9612 C   0  0  0  0  0  0  0  0  0  0  0  0
  131.6419  130.9100  157.6768 C   0  0  0  0  0  0  0  0  0  0  0  0
  131.8357  131.0741  159.0357 C   0  0  0  0  0  0  0  0  0  0  0  0
  131.3185  132.1829  159.6788 C   0  0  0  0  0  0  0  0  0  0  0  0
  132.2556  134.9837  160.3260 C   0  0  0  0  0  0  0  0  0  0  0  0
  133.2934  136.1076  160.2862 C   0  0  0  0  0  0  0  0  0  0  0  0
  134.2167  137.5366  163.8664 H   0  0  0  0  0  0  0  0  0  0  0  0
  133.4641  139.1123  164.2104 H   0  0  0  0  0  0  0  0  0  0  0  0
  132.5650  137.8770  163.2975 H   0  0  0  0  0  0  0  0  0  0  0  0
  136.2318  141.2249  163.3608 H   0  0  0  0  0  0  0  0  0  0  0  0
  134.6491  140.8411  164.0793 H   0  0  0  0  0  0  0  0  0  0  0  0
  135.1363  139.8940  166.1595 H   0  0  0  0  0  0  0  0  0  0  0  0
  136.1692  138.0995  167.4922 H   0  0  0  0  0  0  0  0  0  0  0  0
  137.7631  136.5457  166.4394 H   0  0  0  0  0  0  0  0  0  0  0  0
  138.3182  136.7816  164.0521 H   0  0  0  0  0  0  0  0  0  0  0  0
  137.2782  138.5703  162.7171 H   0  0  0  0  0  0  0  0  0  0  0  0
  136.2746  141.1768  161.0603 H   0  0  0  0  0  0  0  0  0  0  0  0
  135.5237  140.2635  158.9016 H   0  0  0  0  0  0  0  0  0  0  0  0
  133.8676  138.4443  158.8415 H   0  0  0  0  0  0  0  0  0  0  0  0
  131.7174  137.9993  159.2486 H   0  0  0  0  0  0  0  0  0  0  0  0
  131.1028  138.6068  160.8052 H   0  0  0  0  0  0  0  0  0  0  0  0
  129.5672  136.9166  159.8239 H   0  0  0  0  0  0  0  0  0  0  0  0
  130.2595  136.3476  161.3618 H   0  0  0  0  0  0  0  0  0  0  0  0
  129.8080  134.0804  160.6974 H   0  0  0  0  0  0  0  0  0  0  0  0
  127.5025  133.5510  160.1408 H   0  0  0  0  0  0  0  0  0  0  0  0
  125.4518  134.2908  158.9963 H   0  0  0  0  0  0  0  0  0  0  0  0
  125.5876  135.9294  157.1633 H   0  0  0  0  0  0  0  0  0  0  0  0
  127.7734  136.8350  156.4810 H   0  0  0  0  0  0  0  0  0  0  0  0
  129.8233  136.1022  157.6318 H   0  0  0  0  0  0  0  0  0  0  0  0
  129.8494  133.6971  157.0469 H   0  0  0  0  0  0  0  0  0  0  0  0
  130.7789  131.7265  155.8996 H   0  0  0  0  0  0  0  0  0  0  0  0
  132.0457  130.0435  157.1745 H   0  0  0  0  0  0  0  0  0  0  0  0
  132.3911  130.3357  159.5949 H   0  0  0  0  0  0  0  0  0  0  0  0
  131.4696  132.3109  160.7404 H   0  0  0  0  0  0  0  0  0  0  0  0
  132.0242  134.7395  161.3629 H   0  0  0  0  0  0  0  0  0  0  0  0
  132.6557  134.1018  159.8258 H   0  0  0  0  0  0  0  0  0  0  0  0
  134.1959  135.7879  160.8071 H   0  0  0  0  0  0  0  0  0  0  0  0
  133.5352  136.3427  159.2497 H   0  0  0  0  0  0  0  0  0  0  0  0
  1  2  1  0
  1 35  1  0
  1 36  1  0
  1 37  1  0
  2 14  2  0
  2  3  1  0
  3  4  1  0
  3 11  2  0
  4  5  1  0
  4 38  1  0
  4 39  1  0
  5 10  1  0
  5  6  2  0
  6  7  1  0
  6 40  1  0
  7  8  2  0
  7 41  1  0
  8  9  1  0
  8 42  1  0
  9 10  2  0
  9 43  1  0
 10 44  1  0
 11 12  1  0
 11 45  1  0
 12 13  2  0
 12 46  1  0
 13 14  1  0
 13 47  1  0
 14 15  1  0
 15 34  1  0
 15 16  1  0
 16 17  1  0
 16 48  1  0
 16 49  1  0
 17 18  1  0
 17 50  1  0
 17 51  1  0
 18 19  1  0
 18 20  1  0
 18 33  1  0
 20 21  1  0
 20 27  1  0
 20 52  1  0
 21 26  1  0
 21 22  2  0
 22 23  1  0
 22 53  1  0
 23 24  2  0
 23 54  1  0
 24 25  1  0
 24 55  1  0
 25 26  2  0
 25 56  1  0
 26 57  1  0
 27 32  1  0
 27 28  2  0
 28 29  1  0
 28 58  1  0
 29 30  2  0
 29 59  1  0
 30 31  1  0
 30 60  1  0
 31 32  2  0
 31 61  1  0
 32 62  1  0
 33 34  1  0
 33 63  1  0
 33 64  1  0
 34 65  1  0
 34 66  1  0
M  CHG  1  18   1
M  END
>  <DOCK_score>  (1) 
-61.264111

>  <SMILES>  (1) 
Cc1c(Cc2ccccc2)cccc1N1CC[NH+](C(c2ccccc2)c2ccccc2)CC1

$$$$
