O=C1CCC(NC(N[C@@H]2COC3(CCC3)C2)=[NH+]C2CC2)CN1
     RDKit          3D

 49 52  0  0  1  0  0  0  0  0999 V2000
  123.6916  133.7006  161.4479 O   0  0  0  0  0  0  0  0  0  0  0  0
  124.8562  134.0049  161.2997 C   0  0  0  0  0  0  0  0  0  0  0  0
  125.7952  132.9734  160.7435 C   0  0  0  0  0  0  0  0  0  0  0  0
  127.2429  133.3748  161.0369 C   0  0  0  0  0  0  0  0  0  0  0  0
  127.4330  134.8393  160.6243 C   0  0  2  0  0  0  0  0  0  0  0  0
  128.8488  135.2003  160.7306 N   0  0  0  0  0  0  0  0  0  0  0  0
  129.6845  135.0296  159.6524 C   0  0  0  0  0  0  0  0  0  0  0  0
  130.7647  135.8629  159.4812 N   0  0  0  0  0  0  0  0  0  0  0  0
  131.0249  136.9327  160.4477 C   0  0  2  0  0  0  0  0  0  0  0  0
  130.6720  136.6508  161.4396 H   0  0  0  0  0  0  0  0  0  0  0  0
  130.3752  138.2570  159.9894 C   0  0  0  0  0  0  0  0  0  0  0  0
  131.2998  139.3157  160.2774 O   0  0  0  0  0  0  0  0  0  0  0  0
  132.4689  138.7780  160.8929 C   0  0  0  0  0  0  0  0  0  0  0  0
  132.6162  139.0355  162.3926 C   0  0  0  0  0  0  0  0  0  0  0  0
  134.1255  139.1875  162.1311 C   0  0  0  0  0  0  0  0  0  0  0  0
  133.7610  139.5681  160.6846 C   0  0  0  0  0  0  0  0  0  0  0  0
  132.5363  137.2960  160.4765 C   0  0  0  0  0  0  0  0  0  0  0  0
  129.4530  134.0779  158.7925 N   0  0  0  0  0  0  0  0  0  0  0  0
  128.5435  133.7834  158.6282 H   0  0  0  0  0  0  0  0  0  0  0  0
  130.5659  133.4570  158.0697 C   0  0  0  0  0  0  0  0  0  0  0  0
  130.3411  133.0990  156.5993 C   0  0  0  0  0  0  0  0  0  0  0  0
  130.4090  131.9928  157.6542 C   0  0  0  0  0  0  0  0  0  0  0  0
  126.6061  135.7256  161.5567 C   0  0  0  0  0  0  0  0  0  0  0  0
  125.2346  135.2376  161.6400 N   0  0  0  0  0  0  0  0  0  0  0  0
  125.6520  132.8971  159.6656 H   0  0  0  0  0  0  0  0  0  0  0  0
  125.5867  132.0079  161.2043 H   0  0  0  0  0  0  0  0  0  0  0  0
  127.9221  132.7416  160.4660 H   0  0  0  0  0  0  0  0  0  0  0  0
  127.4462  133.2642  162.1020 H   0  0  0  0  0  0  0  0  0  0  0  0
  127.0968  134.9763  159.5965 H   0  0  0  0  0  0  0  0  0  0  0  0
  129.1965  135.5596  161.5618 H   0  0  0  0  0  0  0  0  0  0  0  0
  131.3543  135.7426  158.7205 H   0  0  0  0  0  0  0  0  0  0  0  0
  130.1769  138.2203  158.9182 H   0  0  0  0  0  0  0  0  0  0  0  0
  129.4449  138.4201  160.5335 H   0  0  0  0  0  0  0  0  0  0  0  0
  132.1356  139.9546  162.7280 H   0  0  0  0  0  0  0  0  0  0  0  0
  132.3640  138.1741  163.0112 H   0  0  0  0  0  0  0  0  0  0  0  0
  134.6783  138.2514  162.2098 H   0  0  0  0  0  0  0  0  0  0  0  0
  134.5860  140.0001  162.6930 H   0  0  0  0  0  0  0  0  0  0  0  0
  134.4243  139.1324  159.9373 H   0  0  0  0  0  0  0  0  0  0  0  0
  133.6019  140.6366  160.5403 H   0  0  0  0  0  0  0  0  0  0  0  0
  133.0694  136.7025  161.2192 H   0  0  0  0  0  0  0  0  0  0  0  0
  132.9863  137.1848  159.4899 H   0  0  0  0  0  0  0  0  0  0  0  0
  131.5611  133.7941  158.3596 H   0  0  0  0  0  0  0  0  0  0  0  0
  129.3652  133.3254  156.1696 H   0  0  0  0  0  0  0  0  0  0  0  0
  131.1884  133.2007  155.9213 H   0  0  0  0  0  0  0  0  0  0  0  0
  131.3012  131.3669  157.6702 H   0  0  0  0  0  0  0  0  0  0  0  0
  129.4780  131.4915  157.9186 H   0  0  0  0  0  0  0  0  0  0  0  0
  127.0510  135.7151  162.5519 H   0  0  0  0  0  0  0  0  0  0  0  0
  126.6058  136.7470  161.1765 H   0  0  0  0  0  0  0  0  0  0  0  0
  124.5540  135.8497  161.9609 H   0  0  0  0  0  0  0  0  0  0  0  0
  1  2  2  0
  2 24  1  0
  2  3  1  0
  3  4  1  0
  3 25  1  0
  3 26  1  0
  4  5  1  0
  4 27  1  0
  4 28  1  0
  5  6  1  0
  5 23  1  0
  5 29  1  6
  6 30  1  0
  7  6  1  0
  7  8  1  0
  7 18  2  0
  8  9  1  0
  8 31  1  0
  9 10  1  1
  9 17  1  0
  9 11  1  0
 11 12  1  0
 11 32  1  0
 11 33  1  0
 12 13  1  0
 13 16  1  0
 13 14  1  0
 13 17  1  0
 14 15  1  0
 14 34  1  0
 14 35  1  0
 15 16  1  0
 15 36  1  0
 15 37  1  0
 16 38  1  0
 16 39  1  0
 17 40  1  0
 17 41  1  0
 18 19  1  0
 18 20  1  0
 20 22  1  0
 20 21  1  0
 20 42  1  0
 21 22  1  0
 21 43  1  0
 21 44  1  0
 22 45  1  0
 22 46  1  0
 23 24  1  0
 23 47  1  0
 23 48  1  0
 24 49  1  0
M  CHG  1  18   1
M  END
>  <DOCK_score>  (1) 
-41.671089

>  <SMILES>  (1) 
O=C1CCC(NC(N[C@@H]2COC3(CCC3)C2)=[NH+]C2CC2)CN1

$$$$
