Nc1ccc(-c2c[nH]c(N[C@@H](/C=C/C(=O)NC3CCCCC3)c3ccccc3)[nH+]2)cc1
     RDKit          3D

 61 64  0  0  1  0  0  0  0  0999 V2000
  131.7876  129.4730  151.9409 N   0  0  0  0  0  0  0  0  0  0  0  0
  131.4048  130.1625  153.0939 C   0  0  0  0  0  0  0  0  0  0  0  0
  130.6162  131.3025  152.9910 C   0  0  0  0  0  0  0  0  0  0  0  0
  130.2373  131.9848  154.1277 C   0  0  0  0  0  0  0  0  0  0  0  0
  130.6452  131.5302  155.3808 C   0  0  0  0  0  0  0  0  0  0  0  0
  130.2385  132.2626  156.6052 C   0  0  0  0  0  0  0  0  0  0  0  0
  129.5060  131.7598  157.6294 C   0  0  0  0  0  0  0  0  0  0  0  0
  129.3625  132.7702  158.5506 N   0  0  0  0  0  0  0  0  0  0  0  0
  128.8864  132.7156  159.3939 H   0  0  0  0  0  0  0  0  0  0  0  0
  130.0124  133.8608  158.0609 C   0  0  0  0  0  0  0  0  0  0  0  0
  130.1067  135.0919  158.6872 N   0  0  0  0  0  0  0  0  0  0  0  0
  129.0320  135.5477  159.5723 C   0  0  1  0  0  0  0  0  0  0  0  0
  128.9148  134.8421  160.3948 H   0  0  0  0  0  0  0  0  0  0  0  0
  129.3770  136.9077  160.1224 C   0  0  0  0  0  0  0  0  0  0  0  0
  129.4911  137.0842  161.4356 C   0  0  0  0  0  0  0  0  0  0  0  0
  129.8279  138.4118  161.9726 C   0  0  0  0  0  0  0  0  0  0  0  0
  130.0020  139.3477  161.2157 O   0  0  0  0  0  0  0  0  0  0  0  0
  129.9436  138.5909  163.3035 N   0  0  0  0  0  0  0  0  0  0  0  0
  130.2730  139.9142  163.8384 C   0  0  0  0  0  0  0  0  0  0  0  0
  131.7925  140.0574  163.9452 C   0  0  0  0  0  0  0  0  0  0  0  0
  132.1365  141.4396  164.5042 C   0  0  0  0  0  0  0  0  0  0  0  0
  131.5106  141.5991  165.8910 C   0  0  0  0  0  0  0  0  0  0  0  0
  129.9911  141.4560  165.7843 C   0  0  0  0  0  0  0  0  0  0  0  0
  129.6470  140.0738  165.2254 C   0  0  0  0  0  0  0  0  0  0  0  0
  127.7433  135.6322  158.7955 C   0  0  0  0  0  0  0  0  0  0  0  0
  126.5362  135.4189  159.4343 C   0  0  0  0  0  0  0  0  0  0  0  0
  125.3538  135.5003  158.7227 C   0  0  0  0  0  0  0  0  0  0  0  0
  125.3792  135.7868  157.3705 C   0  0  0  0  0  0  0  0  0  0  0  0
  126.5868  135.9949  156.7307 C   0  0  0  0  0  0  0  0  0  0  0  0
  127.7688  135.9173  157.4432 C   0  0  0  0  0  0  0  0  0  0  0  0
  130.5297  133.5553  156.8959 N   0  0  0  0  0  0  0  0  0  0  0  0
  131.0410  134.1570  156.3325 H   0  0  0  0  0  0  0  0  0  0  0  0
  131.4405  130.3898  155.4812 C   0  0  0  0  0  0  0  0  0  0  0  0
  131.8121  129.7072  154.3422 C   0  0  0  0  0  0  0  0  0  0  0  0
  131.5030  129.7897  151.0693 H   0  0  0  0  0  0  0  0  0  0  0  0
  132.3375  128.6772  152.0118 H   0  0  0  0  0  0  0  0  0  0  0  0
  130.3007  131.6546  152.0199 H   0  0  0  0  0  0  0  0  0  0  0  0
  129.6244  132.8705  154.0473 H   0  0  0  0  0  0  0  0  0  0  0  0
  129.1106  130.7577  157.7066 H   0  0  0  0  0  0  0  0  0  0  0  0
  130.8845  135.6527  158.5400 H   0  0  0  0  0  0  0  0  0  0  0  0
  129.5317  137.7387  159.4502 H   0  0  0  0  0  0  0  0  0  0  0  0
  129.3364  136.2533  162.1077 H   0  0  0  0  0  0  0  0  0  0  0  0
  129.8048  137.8444  163.9070 H   0  0  0  0  0  0  0  0  0  0  0  0
  129.8816  140.6833  163.1724 H   0  0  0  0  0  0  0  0  0  0  0  0
  132.1841  139.2885  164.6112 H   0  0  0  0  0  0  0  0  0  0  0  0
  132.2385  139.9438  162.9572 H   0  0  0  0  0  0  0  0  0  0  0  0
  131.7451  142.2085  163.8381 H   0  0  0  0  0  0  0  0  0  0  0  0
  133.2191  141.5416  164.5802 H   0  0  0  0  0  0  0  0  0  0  0  0
  131.7557  142.5838  166.2892 H   0  0  0  0  0  0  0  0  0  0  0  0
  131.9020  140.8302  166.5570 H   0  0  0  0  0  0  0  0  0  0  0  0
  129.5996  142.2249  165.1182 H   0  0  0  0  0  0  0  0  0  0  0  0
  129.5451  141.5696  166.7723 H   0  0  0  0  0  0  0  0  0  0  0  0
  128.5645  139.9719  165.1493 H   0  0  0  0  0  0  0  0  0  0  0  0
  130.0385  139.3049  165.8914 H   0  0  0  0  0  0  0  0  0  0  0  0
  126.5164  135.1918  160.4900 H   0  0  0  0  0  0  0  0  0  0  0  0
  124.4104  135.3374  159.2225 H   0  0  0  0  0  0  0  0  0  0  0  0
  124.4556  135.8477  156.8141 H   0  0  0  0  0  0  0  0  0  0  0  0
  126.6067  136.2183  155.6743 H   0  0  0  0  0  0  0  0  0  0  0  0
  128.7123  136.0799  156.9433 H   0  0  0  0  0  0  0  0  0  0  0  0
  131.7614  130.0385  156.4507 H   0  0  0  0  0  0  0  0  0  0  0  0
  132.4246  128.8210  154.4198 H   0  0  0  0  0  0  0  0  0  0  0  0
  1  2  1  0
  1 35  1  0
  1 36  1  0
  2 34  2  0
  2  3  1  0
  3  4  2  0
  3 37  1  0
  4  5  1  0
  4 38  1  0
  5  6  1  0
  5 33  2  0
  6 31  1  0
  6  7  2  0
  7  8  1  0
  7 39  1  0
  8  9  1  0
  8 10  1  0
 10 11  1  0
 10 31  2  0
 11 12  1  0
 11 40  1  0
 12 13  1  1
 12 14  1  0
 12 25  1  0
 14 15  2  0
 14 41  1  0
 15 16  1  0
 15 42  1  0
 16 17  2  0
 16 18  1  0
 18 19  1  0
 18 43  1  0
 19 24  1  0
 19 20  1  0
 19 44  1  0
 20 21  1  0
 20 45  1  0
 20 46  1  0
 21 22  1  0
 21 47  1  0
 21 48  1  0
 22 23  1  0
 22 49  1  0
 22 50  1  0
 23 24  1  0
 23 51  1  0
 23 52  1  0
 24 53  1  0
 24 54  1  0
 25 30  1  0
 25 26  2  0
 26 27  1  0
 26 55  1  0
 27 28  2  0
 27 56  1  0
 28 29  1  0
 28 57  1  0
 29 30  2  0
 29 58  1  0
 30 59  1  0
 31 32  1  0
 33 34  1  0
 33 60  1  0
 34 61  1  0
M  CHG  1  31   1
M  END
>  <DOCK_score>  (1) 
-62.433914

>  <SMILES>  (1) 
Nc1ccc(-c2c[nH]c(N[C@@H](/C=C/C(=O)NC3CCCCC3)c3ccccc3)[nH+]2)cc1

$$$$
