CCCCc1ccc(C=C(C)[C@H](Nc2[nH]cc(-c3ccc(N)cc3)[nH+]2)c2cccc(F)c2)cc1
     RDKit          3D

 66 69  0  0  1  0  0  0  0  0999 V2000
  130.1179  140.9304  168.0109 C   0  0  0  0  0  0  0  0  0  0  0  0
  130.0906  141.0988  166.4905 C   0  0  0  0  0  0  0  0  0  0  0  0
  131.4173  141.6977  166.0197 C   0  0  0  0  0  0  0  0  0  0  0  0
  131.3895  141.8660  164.4994 C   0  0  0  0  0  0  0  0  0  0  0  0
  131.1865  140.5222  163.8487 C   0  0  0  0  0  0  0  0  0  0  0  0
  129.9053  140.0688  163.5904 C   0  0  0  0  0  0  0  0  0  0  0  0
  129.7123  138.8394  162.9945 C   0  0  0  0  0  0  0  0  0  0  0  0
  130.8129  138.0528  162.6526 C   0  0  0  0  0  0  0  0  0  0  0  0
  130.6134  136.7348  162.0139 C   0  0  0  0  0  0  0  0  0  0  0  0
  129.9842  136.6505  160.8500 C   0  0  0  0  0  0  0  0  0  0  0  0
  129.6254  137.9044  160.0950 C   0  0  0  0  0  0  0  0  0  0  0  0
  129.6277  135.3010  160.2820 C   0  0  2  0  0  0  0  0  0  0  0  0
  129.9647  134.5196  160.9633 H   0  0  0  0  0  0  0  0  0  0  0  0
  130.2809  135.1304  158.9818 N   0  0  0  0  0  0  0  0  0  0  0  0
  130.0998  133.9603  158.2644 C   0  0  0  0  0  0  0  0  0  0  0  0
  129.3437  132.8991  158.6567 N   0  0  0  0  0  0  0  0  0  0  0  0
  128.8384  132.8271  159.4816 H   0  0  0  0  0  0  0  0  0  0  0  0
  129.4278  131.9480  157.6676 C   0  0  0  0  0  0  0  0  0  0  0  0
  130.2321  132.4559  156.7012 C   0  0  0  0  0  0  0  0  0  0  0  0
  130.6114  131.7794  155.4365 C   0  0  0  0  0  0  0  0  0  0  0  0
  130.8757  132.5330  154.2939 C   0  0  0  0  0  0  0  0  0  0  0  0
  131.2337  131.9023  153.1209 C   0  0  0  0  0  0  0  0  0  0  0  0
  131.3197  130.5164  153.0743 C   0  0  0  0  0  0  0  0  0  0  0  0
  131.6768  129.8797  151.8830 N   0  0  0  0  0  0  0  0  0  0  0  0
  131.0513  129.7625  154.2109 C   0  0  0  0  0  0  0  0  0  0  0  0
  130.6985  130.3890  155.3874 C   0  0  0  0  0  0  0  0  0  0  0  0
  130.6289  133.6916  157.0957 N   0  0  0  0  0  0  0  0  0  0  0  0
  131.2112  134.2824  156.5928 H   0  0  0  0  0  0  0  0  0  0  0  0
  128.1336  135.2072  160.1097 C   0  0  0  0  0  0  0  0  0  0  0  0
  127.5488  135.6046  158.9215 C   0  0  0  0  0  0  0  0  0  0  0  0
  126.1789  135.5139  158.7600 C   0  0  0  0  0  0  0  0  0  0  0  0
  125.3910  135.0364  159.7904 C   0  0  0  0  0  0  0  0  0  0  0  0
  125.9750  134.6435  160.9827 C   0  0  0  0  0  0  0  0  0  0  0  0
  125.2060  134.1764  161.9904 F   0  0  0  0  0  0  0  0  0  0  0  0
  127.3480  134.7297  161.1412 C   0  0  0  0  0  0  0  0  0  0  0  0
  132.1023  138.5131  162.9213 C   0  0  0  0  0  0  0  0  0  0  0  0
  132.2821  139.7472  163.5115 C   0  0  0  0  0  0  0  0  0  0  0  0
  130.2650  141.9024  168.4815 H   0  0  0  0  0  0  0  0  0  0  0  0
  129.1727  140.5036  168.3463 H   0  0  0  0  0  0  0  0  0  0  0  0
  130.9357  140.2650  168.2882 H   0  0  0  0  0  0  0  0  0  0  0  0
  129.2728  141.7640  166.2132 H   0  0  0  0  0  0  0  0  0  0  0  0
  129.9435  140.1266  166.0199 H   0  0  0  0  0  0  0  0  0  0  0  0
  132.2351  141.0325  166.2970 H   0  0  0  0  0  0  0  0  0  0  0  0
  131.5644  142.6699  166.4904 H   0  0  0  0  0  0  0  0  0  0  0  0
  132.3353  142.2928  164.1639 H   0  0  0  0  0  0  0  0  0  0  0  0
  130.5724  142.5315  164.2221 H   0  0  0  0  0  0  0  0  0  0  0  0
  129.0543  140.6786  163.8556 H   0  0  0  0  0  0  0  0  0  0  0  0
  128.7116  138.4866  162.7934 H   0  0  0  0  0  0  0  0  0  0  0  0
  130.9802  135.8403  162.4953 H   0  0  0  0  0  0  0  0  0  0  0  0
  128.6107  138.2068  160.3540 H   0  0  0  0  0  0  0  0  0  0  0  0
  130.3208  138.7006  160.3614 H   0  0  0  0  0  0  0  0  0  0  0  0
  129.6853  137.7132  159.0236 H   0  0  0  0  0  0  0  0  0  0  0  0
  130.8403  135.8373  158.6236 H   0  0  0  0  0  0  0  0  0  0  0  0
  128.9489  130.9799  157.6632 H   0  0  0  0  0  0  0  0  0  0  0  0
  130.8043  133.6100  154.3284 H   0  0  0  0  0  0  0  0  0  0  0  0
  131.4424  132.4859  152.2366 H   0  0  0  0  0  0  0  0  0  0  0  0
  131.7366  128.9114  151.8501 H   0  0  0  0  0  0  0  0  0  0  0  0
  131.8635  130.4041  151.0897 H   0  0  0  0  0  0  0  0  0  0  0  0
  131.1189  128.6852  154.1725 H   0  0  0  0  0  0  0  0  0  0  0  0
  130.4903  129.8030  156.2705 H   0  0  0  0  0  0  0  0  0  0  0  0
  128.1631  135.9822  158.1175 H   0  0  0  0  0  0  0  0  0  0  0  0
  125.7236  135.8203  157.8298 H   0  0  0  0  0  0  0  0  0  0  0  0
  124.3204  134.9700  159.6657 H   0  0  0  0  0  0  0  0  0  0  0  0
  127.8046  134.4239  162.0710 H   0  0  0  0  0  0  0  0  0  0  0  0
  132.9582  137.9071  162.6631 H   0  0  0  0  0  0  0  0  0  0  0  0
  133.2797  140.1068  163.7155 H   0  0  0  0  0  0  0  0  0  0  0  0
  1  2  1  0
  1 38  1  0
  1 39  1  0
  1 40  1  0
  2  3  1  0
  2 41  1  0
  2 42  1  0
  3  4  1  0
  3 43  1  0
  3 44  1  0
  4  5  1  0
  4 45  1  0
  4 46  1  0
  5 37  2  0
  5  6  1  0
  6  7  2  0
  6 47  1  0
  7  8  1  0
  7 48  1  0
  8  9  1  0
  8 36  2  0
  9 10  2  0
  9 49  1  0
 10 11  1  0
 10 12  1  0
 11 50  1  0
 11 51  1  0
 11 52  1  0
 12 13  1  1
 12 14  1  0
 12 29  1  0
 14 53  1  0
 15 14  1  0
 15 27  2  0
 15 16  1  0
 16 17  1  0
 16 18  1  0
 18 19  2  0
 18 54  1  0
 19 20  1  0
 19 27  1  0
 20 26  1  0
 20 21  2  0
 21 22  1  0
 21 55  1  0
 22 23  2  0
 22 56  1  0
 23 24  1  0
 23 25  1  0
 24 57  1  0
 24 58  1  0
 25 26  2  0
 25 59  1  0
 26 60  1  0
 27 28  1  0
 29 35  1  0
 29 30  2  0
 30 31  1  0
 30 61  1  0
 31 32  2  0
 31 62  1  0
 32 33  1  0
 32 63  1  0
 33 34  1  0
 33 35  2  0
 35 64  1  0
 36 37  1  0
 36 65  1  0
 37 66  1  0
M  CHG  1  27   1
M  END
>  <DOCK_score>  (1) 
-59.94223

>  <SMILES>  (1) 
CCCCc1ccc(C=C(C)[C@H](Nc2[nH]cc(-c3ccc(N)cc3)[nH+]2)c2cccc(F)c2)cc1

$$$$
