O=C1CC[C@H](NC(NC2CCCCCC2)=[NH+][C@@H]2Cc3ccc(Br)cc3C2)CN1
     RDKit          3D

 60 63  0  0  1  0  0  0  0  0999 V2000
  123.6529  134.0978  161.4329 O   0  0  0  0  0  0  0  0  0  0  0  0
  124.8437  134.2891  161.3053 C   0  0  0  0  0  0  0  0  0  0  0  0
  125.6925  133.1646  160.7853 C   0  0  0  0  0  0  0  0  0  0  0  0
  127.1662  133.4329  161.0989 C   0  0  0  0  0  0  0  0  0  0  0  0
  127.4998  134.8670  160.6707 C   0  0  2  0  0  0  0  0  0  0  0  0
  127.1974  135.0191  159.6345 H   0  0  0  0  0  0  0  0  0  0  0  0
  128.9410  135.0960  160.8007 N   0  0  0  0  0  0  0  0  0  0  0  0
  129.7773  134.8319  159.7419 C   0  0  0  0  0  0  0  0  0  0  0  0
  129.2612  134.3528  158.5612 N   0  0  0  0  0  0  0  0  0  0  0  0
  130.0715  133.4804  157.7078 C   0  0  0  0  0  0  0  0  0  0  0  0
  129.2756  133.1547  156.4273 C   0  0  0  0  0  0  0  0  0  0  0  0
  130.2447  132.7180  155.3611 C   0  0  0  0  0  0  0  0  0  0  0  0
  130.4058  131.1867  155.3051 C   0  0  0  0  0  0  0  0  0  0  0  0
  130.4848  130.5429  156.7026 C   0  0  0  0  0  0  0  0  0  0  0  0
  131.3389  131.3357  157.6544 C   0  0  0  0  0  0  0  0  0  0  0  0
  130.4259  132.2845  158.4578 C   0  0  0  0  0  0  0  0  0  0  0  0
  131.0595  135.0358  159.8575 N   0  0  0  0  0  0  0  0  0  0  0  0
  131.5843  135.2782  159.0786 H   0  0  0  0  0  0  0  0  0  0  0  0
  131.7079  134.8988  161.1641 C   0  0  2  0  0  0  0  0  0  0  0  0
  131.1885  134.1626  161.7773 H   0  0  0  0  0  0  0  0  0  0  0  0
  131.7805  136.2611  161.8861 C   0  0  0  0  0  0  0  0  0  0  0  0
  133.0942  136.2417  162.6375 C   0  0  0  0  0  0  0  0  0  0  0  0
  133.5416  137.0323  163.6832 C   0  0  0  0  0  0  0  0  0  0  0  0
  134.7980  136.8301  164.2193 C   0  0  0  0  0  0  0  0  0  0  0  0
  135.6136  135.8350  163.7108 C   0  0  0  0  0  0  0  0  0  0  0  0
  137.3343  135.5549  164.4429 Br  0  0  0  0  0  0  0  0  0  0  0  0
  135.1687  135.0457  162.6673 C   0  0  0  0  0  0  0  0  0  0  0  0
  133.9088  135.2474  162.1292 C   0  0  0  0  0  0  0  0  0  0  0  0
  133.1980  134.5305  161.0012 C   0  0  0  0  0  0  0  0  0  0  0  0
  126.7421  135.8404  161.5744 C   0  0  0  0  0  0  0  0  0  0  0  0
  125.3293  135.4869  161.6338 N   0  0  0  0  0  0  0  0  0  0  0  0
  125.3854  132.2312  161.2570 H   0  0  0  0  0  0  0  0  0  0  0  0
  125.5650  133.0839  159.7059 H   0  0  0  0  0  0  0  0  0  0  0  0
  127.7939  132.7306  160.5504 H   0  0  0  0  0  0  0  0  0  0  0  0
  127.3375  133.3203  162.1694 H   0  0  0  0  0  0  0  0  0  0  0  0
  129.3046  135.4379  161.6324 H   0  0  0  0  0  0  0  0  0  0  0  0
  128.3601  134.5925  158.2931 H   0  0  0  0  0  0  0  0  0  0  0  0
  130.9849  134.0074  157.4312 H   0  0  0  0  0  0  0  0  0  0  0  0
  128.5667  132.3522  156.6312 H   0  0  0  0  0  0  0  0  0  0  0  0
  128.7406  134.0434  156.0928 H   0  0  0  0  0  0  0  0  0  0  0  0
  131.2171  133.1677  155.5615 H   0  0  0  0  0  0  0  0  0  0  0  0
  129.8862  133.0705  154.3939 H   0  0  0  0  0  0  0  0  0  0  0  0
  131.3171  130.9490  154.7566 H   0  0  0  0  0  0  0  0  0  0  0  0
  129.5556  130.7632  154.7704 H   0  0  0  0  0  0  0  0  0  0  0  0
  130.9017  129.5404  156.6059 H   0  0  0  0  0  0  0  0  0  0  0  0
  129.4778  130.4658  157.1128 H   0  0  0  0  0  0  0  0  0  0  0  0
  132.0689  131.9184  157.0926 H   0  0  0  0  0  0  0  0  0  0  0  0
  131.8559  130.6606  158.3363 H   0  0  0  0  0  0  0  0  0  0  0  0
  130.9414  132.5807  159.3714 H   0  0  0  0  0  0  0  0  0  0  0  0
  129.5131  131.7528  158.7262 H   0  0  0  0  0  0  0  0  0  0  0  0
  131.7717  137.0745  161.1606 H   0  0  0  0  0  0  0  0  0  0  0  0
  130.9480  136.3651  162.5821 H   0  0  0  0  0  0  0  0  0  0  0  0
  132.9057  137.8093  164.0807 H   0  0  0  0  0  0  0  0  0  0  0  0
  135.1435  137.4480  165.0350 H   0  0  0  0  0  0  0  0  0  0  0  0
  135.8057  134.2692  162.2703 H   0  0  0  0  0  0  0  0  0  0  0  0
  133.3334  133.4529  161.0931 H   0  0  0  0  0  0  0  0  0  0  0  0
  133.5704  134.8786  160.0377 H   0  0  0  0  0  0  0  0  0  0  0  0
  127.1651  135.8036  162.5783 H   0  0  0  0  0  0  0  0  0  0  0  0
  126.8441  136.8516  161.1806 H   0  0  0  0  0  0  0  0  0  0  0  0
  124.7029  136.1655  161.9305 H   0  0  0  0  0  0  0  0  0  0  0  0
  1  2  2  0
  2 31  1  0
  2  3  1  0
  3  4  1  0
  3 32  1  0
  3 33  1  0
  4  5  1  0
  4 34  1  0
  4 35  1  0
  5  6  1  6
  5  7  1  0
  5 30  1  0
  7 36  1  0
  8  7  1  0
  8  9  1  0
  8 17  2  0
  9 10  1  0
  9 37  1  0
 10 16  1  0
 10 11  1  0
 10 38  1  0
 11 12  1  0
 11 39  1  0
 11 40  1  0
 12 13  1  0
 12 41  1  0
 12 42  1  0
 13 14  1  0
 13 43  1  0
 13 44  1  0
 14 15  1  0
 14 45  1  0
 14 46  1  0
 15 16  1  0
 15 47  1  0
 15 48  1  0
 16 49  1  0
 16 50  1  0
 17 18  1  0
 17 19  1  0
 19 20  1  1
 19 29  1  0
 19 21  1  0
 21 22  1  0
 21 51  1  0
 21 52  1  0
 22 28  2  0
 22 23  1  0
 23 24  2  0
 23 53  1  0
 24 25  1  0
 24 54  1  0
 25 26  1  0
 25 27  2  0
 27 28  1  0
 27 55  1  0
 28 29  1  0
 29 56  1  0
 29 57  1  0
 30 31  1  0
 30 58  1  0
 30 59  1  0
 31 60  1  0
M  CHG  1  17   1
M  END
>  <DOCK_score>  (1) 
-50.450611

>  <SMILES>  (1) 
O=C1CC[C@H](NC(NC2CCCCCC2)=[NH+][C@@H]2Cc3ccc(Br)cc3C2)CN1

$$$$
