O=C1CC[C@H](NC(NC2CC2)=[NH+]Cc2ccncc2)CN1
     RDKit          3D

 43 45  0  0  1  0  0  0  0  0999 V2000
  123.6788  133.6706  161.4338 O   0  0  0  0  0  0  0  0  0  0  0  0
  124.8608  133.8473  161.2268 C   0  0  0  0  0  0  0  0  0  0  0  0
  125.6754  132.6899  160.7241 C   0  0  0  0  0  0  0  0  0  0  0  0
  127.1643  132.9677  160.9459 C   0  0  0  0  0  0  0  0  0  0  0  0
  127.4802  134.3706  160.4133 C   0  0  2  0  0  0  0  0  0  0  0  0
  127.1211  134.4620  159.3882 H   0  0  0  0  0  0  0  0  0  0  0  0
  128.9270  134.5970  160.4527 N   0  0  0  0  0  0  0  0  0  0  0  0
  129.7049  134.2628  159.3696 C   0  0  0  0  0  0  0  0  0  0  0  0
  131.0627  134.4753  159.4066 N   0  0  0  0  0  0  0  0  0  0  0  0
  131.6807  135.0579  160.6003 C   0  0  0  0  0  0  0  0  0  0  0  0
  133.1779  134.8212  160.8078 C   0  0  0  0  0  0  0  0  0  0  0  0
  132.1593  134.0956  161.6893 C   0  0  0  0  0  0  0  0  0  0  0  0
  129.1551  133.7446  158.3075 N   0  0  0  0  0  0  0  0  0  0  0  0
  128.3538  133.2043  158.3907 H   0  0  0  0  0  0  0  0  0  0  0  0
  129.7473  133.9781  156.9880 C   0  0  0  0  0  0  0  0  0  0  0  0
  130.1319  132.6588  156.3693 C   0  0  0  0  0  0  0  0  0  0  0  0
  129.8305  132.3813  155.0447 C   0  0  0  0  0  0  0  0  0  0  0  0
  130.2035  131.1627  154.5103 C   0  0  0  0  0  0  0  0  0  0  0  0
  130.8292  130.2660  155.2474 N   0  0  0  0  0  0  0  0  0  0  0  0
  131.1270  130.4933  156.5117 C   0  0  0  0  0  0  0  0  0  0  0  0
  130.7906  131.6915  157.1127 C   0  0  0  0  0  0  0  0  0  0  0  0
  126.7755  135.4002  161.2975 C   0  0  0  0  0  0  0  0  0  0  0  0
  125.3665  135.0603  161.4526 N   0  0  0  0  0  0  0  0  0  0  0  0
  125.4886  132.5460  159.6600 H   0  0  0  0  0  0  0  0  0  0  0  0
  125.3904  131.7886  161.2669 H   0  0  0  0  0  0  0  0  0  0  0  0
  127.7593  132.2288  160.4092 H   0  0  0  0  0  0  0  0  0  0  0  0
  127.3925  132.9193  162.0106 H   0  0  0  0  0  0  0  0  0  0  0  0
  129.3361  134.9826  161.2432 H   0  0  0  0  0  0  0  0  0  0  0  0
  131.6115  134.2393  158.6424 H   0  0  0  0  0  0  0  0  0  0  0  0
  131.2734  136.0172  160.9198 H   0  0  0  0  0  0  0  0  0  0  0  0
  133.7031  134.2319  160.0561 H   0  0  0  0  0  0  0  0  0  0  0  0
  133.7561  135.6247  161.2636 H   0  0  0  0  0  0  0  0  0  0  0  0
  132.0674  134.4221  162.7251 H   0  0  0  0  0  0  0  0  0  0  0  0
  132.0140  133.0292  161.5176 H   0  0  0  0  0  0  0  0  0  0  0  0
  129.0226  134.4819  156.3485 H   0  0  0  0  0  0  0  0  0  0  0  0
  130.6347  134.6023  157.0934 H   0  0  0  0  0  0  0  0  0  0  0  0
  129.3142  133.1100  154.4373 H   0  0  0  0  0  0  0  0  0  0  0  0
  129.9767  130.9407  153.4779 H   0  0  0  0  0  0  0  0  0  0  0  0
  131.6402  129.7346  157.0839 H   0  0  0  0  0  0  0  0  0  0  0  0
  131.0379  131.8721  158.1485 H   0  0  0  0  0  0  0  0  0  0  0  0
  126.8600  136.3859  160.8402 H   0  0  0  0  0  0  0  0  0  0  0  0
  127.2515  135.4192  162.2778 H   0  0  0  0  0  0  0  0  0  0  0  0
  124.7595  135.7594  161.7420 H   0  0  0  0  0  0  0  0  0  0  0  0
  1  2  2  0
  2 23  1  0
  2  3  1  0
  3  4  1  0
  3 24  1  0
  3 25  1  0
  4  5  1  0
  4 26  1  0
  4 27  1  0
  5  6  1  6
  5  7  1  0
  5 22  1  0
  7 28  1  0
  8  7  1  0
  8  9  1  0
  8 13  2  0
  9 10  1  0
  9 29  1  0
 10 12  1  0
 10 11  1  0
 10 30  1  0
 11 12  1  0
 11 31  1  0
 11 32  1  0
 12 33  1  0
 12 34  1  0
 13 14  1  0
 13 15  1  0
 15 16  1  0
 15 35  1  0
 15 36  1  0
 16 21  1  0
 16 17  2  0
 17 18  1  0
 17 37  1  0
 18 19  2  0
 18 38  1  0
 19 20  1  0
 20 21  2  0
 20 39  1  0
 21 40  1  0
 22 23  1  0
 22 41  1  0
 22 42  1  0
 23 43  1  0
M  CHG  1  13   1
M  END
>  <DOCK_score>  (1) 
-42.313763

>  <SMILES>  (1) 
O=C1CC[C@H](NC(NC2CC2)=[NH+]Cc2ccncc2)CN1

$$$$
