CCc1ccc(-c2c[nH]c(N[C@@H](Cc3ccc(-c4cccc(O)c4)cc3)c3ccc(F)cc3)[nH+]2)cc1
     RDKit          3D

 65 69  0  0  1  0  0  0  0  0999 V2000
  130.6598  128.5970  152.4676 C   0  0  0  0  0  0  0  0  0  0  0  0
  131.6735  129.7182  152.7040 C   0  0  0  0  0  0  0  0  0  0  0  0
  131.2748  130.5066  153.9250 C   0  0  0  0  0  0  0  0  0  0  0  0
  131.7454  130.1328  155.1703 C   0  0  0  0  0  0  0  0  0  0  0  0
  131.3875  130.8540  156.2913 C   0  0  0  0  0  0  0  0  0  0  0  0
  130.5416  131.9548  156.1678 C   0  0  0  0  0  0  0  0  0  0  0  0
  130.1494  132.7307  157.3695 C   0  0  0  0  0  0  0  0  0  0  0  0
  129.4907  132.2471  158.4518 C   0  0  0  0  0  0  0  0  0  0  0  0
  129.3327  133.2966  159.3240 N   0  0  0  0  0  0  0  0  0  0  0  0
  128.8969  133.2632  160.1900 H   0  0  0  0  0  0  0  0  0  0  0  0
  129.8998  134.3918  158.7486 C   0  0  0  0  0  0  0  0  0  0  0  0
  129.9530  135.6584  159.3048 N   0  0  0  0  0  0  0  0  0  0  0  0
  129.3655  135.9044  160.6241 C   0  0  1  0  0  0  0  0  0  0  0  0
  129.8555  135.2712  161.3638 H   0  0  0  0  0  0  0  0  0  0  0  0
  129.5590  137.3742  161.0026 C   0  0  0  0  0  0  0  0  0  0  0  0
  131.0313  137.6934  161.0409 C   0  0  0  0  0  0  0  0  0  0  0  0
  131.9417  136.7070  161.3752 C   0  0  0  0  0  0  0  0  0  0  0  0
  133.2917  136.9925  161.4071 C   0  0  0  0  0  0  0  0  0  0  0  0
  133.7359  138.2800  161.1129 C   0  0  0  0  0  0  0  0  0  0  0  0
  135.1856  138.5946  161.1521 C   0  0  0  0  0  0  0  0  0  0  0  0
  135.7088  139.5841  160.3215 C   0  0  0  0  0  0  0  0  0  0  0  0
  137.0574  139.8753  160.3602 C   0  0  0  0  0  0  0  0  0  0  0  0
  137.8924  139.1881  161.2215 C   0  0  0  0  0  0  0  0  0  0  0  0
  137.3795  138.2011  162.0514 C   0  0  0  0  0  0  0  0  0  0  0  0
  138.2039  137.5277  162.8963 O   0  0  0  0  0  0  0  0  0  0  0  0
  136.0261  137.9061  162.0229 C   0  0  0  0  0  0  0  0  0  0  0  0
  132.8141  139.2710  160.7820 C   0  0  0  0  0  0  0  0  0  0  0  0
  131.4668  138.9729  160.7475 C   0  0  0  0  0  0  0  0  0  0  0  0
  127.8932  135.5851  160.5859 C   0  0  0  0  0  0  0  0  0  0  0  0
  127.2553  135.1303  161.7249 C   0  0  0  0  0  0  0  0  0  0  0  0
  125.9040  134.8426  161.6925 C   0  0  0  0  0  0  0  0  0  0  0  0
  125.1914  134.9995  160.5158 C   0  0  0  0  0  0  0  0  0  0  0  0
  123.8715  134.7132  160.4815 F   0  0  0  0  0  0  0  0  0  0  0  0
  125.8327  135.4496  159.3742 C   0  0  0  0  0  0  0  0  0  0  0  0
  127.1828  135.7416  159.4103 C   0  0  0  0  0  0  0  0  0  0  0  0
  130.3912  134.0486  157.5830 N   0  0  0  0  0  0  0  0  0  0  0  0
  130.8525  134.6423  156.9702 H   0  0  0  0  0  0  0  0  0  0  0  0
  130.0662  132.3240  154.9108 C   0  0  0  0  0  0  0  0  0  0  0  0
  130.4348  131.5986  153.7961 C   0  0  0  0  0  0  0  0  0  0  0  0
  130.9483  128.0267  151.5845 H   0  0  0  0  0  0  0  0  0  0  0  0
  130.6392  127.9374  153.3352 H   0  0  0  0  0  0  0  0  0  0  0  0
  129.6703  129.0276  152.3150 H   0  0  0  0  0  0  0  0  0  0  0  0
  132.6629  129.2880  152.8564 H   0  0  0  0  0  0  0  0  0  0  0  0
  131.6939  130.3782  151.8361 H   0  0  0  0  0  0  0  0  0  0  0  0
  132.3974  129.2770  155.2655 H   0  0  0  0  0  0  0  0  0  0  0  0
  131.7594  130.5637  157.2629 H   0  0  0  0  0  0  0  0  0  0  0  0
  129.1545  131.2315  158.5996 H   0  0  0  0  0  0  0  0  0  0  0  0
  130.3791  136.3831  158.8210 H   0  0  0  0  0  0  0  0  0  0  0  0
  129.0691  138.0074  160.2629 H   0  0  0  0  0  0  0  0  0  0  0  0
  129.1218  137.5572  161.9841 H   0  0  0  0  0  0  0  0  0  0  0  0
  131.5958  135.7107  161.6077 H   0  0  0  0  0  0  0  0  0  0  0  0
  134.0020  136.2208  161.6646 H   0  0  0  0  0  0  0  0  0  0  0  0
  135.0590  140.1226  159.6476 H   0  0  0  0  0  0  0  0  0  0  0  0
  137.4614  140.6424  159.7160 H   0  0  0  0  0  0  0  0  0  0  0  0
  138.9469  139.4199  161.2484 H   0  0  0  0  0  0  0  0  0  0  0  0
  137.7562  136.8601  163.4338 H   0  0  0  0  0  0  0  0  0  0  0  0
  135.6249  137.1414  162.6713 H   0  0  0  0  0  0  0  0  0  0  0  0
  133.1531  140.2704  160.5527 H   0  0  0  0  0  0  0  0  0  0  0  0
  130.7515  139.7403  160.4911 H   0  0  0  0  0  0  0  0  0  0  0  0
  127.8124  135.0037  162.6416 H   0  0  0  0  0  0  0  0  0  0  0  0
  125.4048  134.4920  162.5836 H   0  0  0  0  0  0  0  0  0  0  0  0
  125.2778  135.5720  158.4556 H   0  0  0  0  0  0  0  0  0  0  0  0
  127.6833  136.0928  158.5199 H   0  0  0  0  0  0  0  0  0  0  0  0
  129.4101  133.1759  154.8092 H   0  0  0  0  0  0  0  0  0  0  0  0
  130.0667  131.8836  152.8216 H   0  0  0  0  0  0  0  0  0  0  0  0
  1  2  1  0
  1 40  1  0
  1 41  1  0
  1 42  1  0
  2  3  1  0
  2 43  1  0
  2 44  1  0
  3 39  2  0
  3  4  1  0
  4  5  2  0
  4 45  1  0
  5  6  1  0
  5 46  1  0
  6  7  1  0
  6 38  2  0
  7 36  1  0
  7  8  2  0
  8  9  1  0
  8 47  1  0
  9 10  1  0
  9 11  1  0
 11 12  1  0
 11 36  2  0
 12 13  1  0
 12 48  1  0
 13 14  1  1
 13 15  1  0
 13 29  1  0
 15 16  1  0
 15 49  1  0
 15 50  1  0
 16 28  1  0
 16 17  2  0
 17 18  1  0
 17 51  1  0
 18 19  2  0
 18 52  1  0
 19 20  1  0
 19 27  1  0
 20 26  1  0
 20 21  2  0
 21 22  1  0
 21 53  1  0
 22 23  2  0
 22 54  1  0
 23 24  1  0
 23 55  1  0
 24 25  1  0
 24 26  2  0
 25 56  1  0
 26 57  1  0
 27 28  2  0
 27 58  1  0
 28 59  1  0
 29 35  1  0
 29 30  2  0
 30 31  1  0
 30 60  1  0
 31 32  2  0
 31 61  1  0
 32 33  1  0
 32 34  1  0
 34 35  2  0
 34 62  1  0
 35 63  1  0
 36 37  1  0
 38 39  1  0
 38 64  1  0
 39 65  1  0
M  CHG  1  36   1
M  END
>  <DOCK_score>  (1) 
-62.409904

>  <SMILES>  (1) 
CCc1ccc(-c2c[nH]c(N[C@@H](Cc3ccc(-c4cccc(O)c4)cc3)c3ccc(F)cc3)[nH+]2)cc1

$$$$
