[NH3+][C@@H](C(=O)Nc1cccc(O)c1)c1cccc(NCCC2CCC2)c1
     RDKit          3D

 51 53  0  0  1  0  0  0  0  0999 V2000
  131.1060  133.1801  158.0511 N   0  0  0  0  0  0  0  0  0  0  0  0
  132.0088  133.5890  157.8617 H   0  0  0  0  0  0  0  0  0  0  0  0
  131.2199  132.3756  158.6494 H   0  0  0  0  0  0  0  0  0  0  0  0
  130.6767  132.8959  157.1834 H   0  0  0  0  0  0  0  0  0  0  0  0
  130.2507  134.1700  158.7194 C   0  0  1  0  0  0  0  0  0  0  0  0
  130.1276  135.0391  158.0732 H   0  0  0  0  0  0  0  0  0  0  0  0
  128.9023  133.5595  159.0024 C   0  0  0  0  0  0  0  0  0  0  0  0
  128.4605  132.6990  158.2705 O   0  0  0  0  0  0  0  0  0  0  0  0
  128.1873  133.9694  160.0688 N   0  0  0  0  0  0  0  0  0  0  0  0
  126.9354  133.4024  160.3314 C   0  0  0  0  0  0  0  0  0  0  0  0
  126.6735  132.0905  159.9563 C   0  0  0  0  0  0  0  0  0  0  0  0
  125.4395  131.5290  160.2208 C   0  0  0  0  0  0  0  0  0  0  0  0
  124.4588  132.2735  160.8484 C   0  0  0  0  0  0  0  0  0  0  0  0
  124.7128  133.5862  161.2202 C   0  0  0  0  0  0  0  0  0  0  0  0
  123.7473  134.3172  161.8368 O   0  0  0  0  0  0  0  0  0  0  0  0
  125.9519  134.1514  160.9616 C   0  0  0  0  0  0  0  0  0  0  0  0
  130.8919  134.5945  160.0154 C   0  0  0  0  0  0  0  0  0  0  0  0
  131.1491  133.6564  160.9987 C   0  0  0  0  0  0  0  0  0  0  0  0
  131.7371  134.0417  162.1892 C   0  0  0  0  0  0  0  0  0  0  0  0
  132.0748  135.3647  162.3982 C   0  0  0  0  0  0  0  0  0  0  0  0
  131.8128  136.3102  161.4152 C   0  0  0  0  0  0  0  0  0  0  0  0
  132.1480  137.6497  161.6254 N   0  0  0  0  0  0  0  0  0  0  0  0
  132.2900  138.5571  160.4840 C   0  0  0  0  0  0  0  0  0  0  0  0
  133.3157  139.6417  160.8192 C   0  0  0  0  0  0  0  0  0  0  0  0
  134.6661  138.9902  161.1237 C   0  0  0  0  0  0  0  0  0  0  0  0
  134.7881  138.4705  162.5659 C   0  0  0  0  0  0  0  0  0  0  0  0
  136.2332  139.0009  162.5494 C   0  0  0  0  0  0  0  0  0  0  0  0
  135.7720  139.9993  161.4746 C   0  0  0  0  0  0  0  0  0  0  0  0
  131.2216  135.9196  160.2202 C   0  0  0  0  0  0  0  0  0  0  0  0
  128.5405  134.6574  160.6541 H   0  0  0  0  0  0  0  0  0  0  0  0
  127.4366  131.5080  159.4618 H   0  0  0  0  0  0  0  0  0  0  0  0
  125.2392  130.5078  159.9322 H   0  0  0  0  0  0  0  0  0  0  0  0
  123.4936  131.8331  161.0502 H   0  0  0  0  0  0  0  0  0  0  0  0
  124.0172  135.2192  162.0570 H   0  0  0  0  0  0  0  0  0  0  0  0
  126.1516  135.1727  161.2505 H   0  0  0  0  0  0  0  0  0  0  0  0
  130.8895  132.6208  160.8363 H   0  0  0  0  0  0  0  0  0  0  0  0
  131.9366  133.3067  162.9549 H   0  0  0  0  0  0  0  0  0  0  0  0
  132.5382  135.6642  163.3266 H   0  0  0  0  0  0  0  0  0  0  0  0
  132.2869  137.9792  162.5271 H   0  0  0  0  0  0  0  0  0  0  0  0
  131.3280  139.0212  160.2670 H   0  0  0  0  0  0  0  0  0  0  0  0
  132.6270  137.9952  159.6129 H   0  0  0  0  0  0  0  0  0  0  0  0
  132.9788  140.2036  161.6903 H   0  0  0  0  0  0  0  0  0  0  0  0
  133.4214  140.3168  159.9699 H   0  0  0  0  0  0  0  0  0  0  0  0
  134.9636  138.2608  160.3703 H   0  0  0  0  0  0  0  0  0  0  0  0
  134.1407  138.9893  163.2731 H   0  0  0  0  0  0  0  0  0  0  0  0
  134.7212  137.3856  162.6464 H   0  0  0  0  0  0  0  0  0  0  0  0
  136.9597  138.2738  162.1868 H   0  0  0  0  0  0  0  0  0  0  0  0
  136.5365  139.4741  163.4834 H   0  0  0  0  0  0  0  0  0  0  0  0
  136.4981  140.1469  160.6752 H   0  0  0  0  0  0  0  0  0  0  0  0
  135.3941  140.9373  161.8814 H   0  0  0  0  0  0  0  0  0  0  0  0
  131.0206  136.6517  159.4519 H   0  0  0  0  0  0  0  0  0  0  0  0
  1  2  1  0
  1  3  1  0
  1  4  1  0
  1  5  1  0
  5  6  1  6
  5  7  1  0
  5 17  1  0
  7  8  2  0
  7  9  1  0
  9 10  1  0
  9 30  1  0
 10 16  1  0
 10 11  2  0
 11 12  1  0
 11 31  1  0
 12 13  2  0
 12 32  1  0
 13 14  1  0
 13 33  1  0
 14 15  1  0
 14 16  2  0
 15 34  1  0
 16 35  1  0
 17 29  1  0
 17 18  2  0
 18 19  1  0
 18 36  1  0
 19 20  2  0
 19 37  1  0
 20 21  1  0
 20 38  1  0
 21 22  1  0
 21 29  2  0
 22 23  1  0
 22 39  1  0
 23 24  1  0
 23 40  1  0
 23 41  1  0
 24 25  1  0
 24 42  1  0
 24 43  1  0
 25 28  1  0
 25 26  1  0
 25 44  1  0
 26 27  1  0
 26 45  1  0
 26 46  1  0
 27 28  1  0
 27 47  1  0
 27 48  1  0
 28 49  1  0
 28 50  1  0
 29 51  1  0
M  CHG  1   1   1
M  END
>  <DOCK_score>  (1) 
-42.869354

>  <SMILES>  (1) 
[NH3+][C@@H](C(=O)Nc1cccc(O)c1)c1cccc(NCCC2CCC2)c1

$$$$
