C[C@@H](Nc1[nH]cc(-c2ccc(C3CC=CC3)cc2)[nH+]1)c1ccccc1
     RDKit          3D

 49 52  0  0  1  0  0  0  0  0999 V2000
  127.9571  135.9423  159.6166 C   0  0  0  0  0  0  0  0  0  0  0  0
  129.3792  136.0536  160.1703 C   0  0  1  0  0  0  0  0  0  0  0  0
  129.4813  135.4073  161.0421 H   0  0  0  0  0  0  0  0  0  0  0  0
  130.3374  135.6412  159.1417 N   0  0  0  0  0  0  0  0  0  0  0  0
  130.2818  134.3611  158.6174 C   0  0  0  0  0  0  0  0  0  0  0  0
  129.8451  133.2530  159.2758 N   0  0  0  0  0  0  0  0  0  0  0  0
  129.5200  133.2182  160.1891 H   0  0  0  0  0  0  0  0  0  0  0  0
  129.9503  132.1928  158.4087 C   0  0  0  0  0  0  0  0  0  0  0  0
  130.4477  132.6830  157.2463 C   0  0  0  0  0  0  0  0  0  0  0  0
  130.7300  131.8999  156.0186 C   0  0  0  0  0  0  0  0  0  0  0  0
  130.6262  132.5018  154.7657 C   0  0  0  0  0  0  0  0  0  0  0  0
  130.8960  131.7701  153.6271 C   0  0  0  0  0  0  0  0  0  0  0  0
  131.2574  130.4386  153.7270 C   0  0  0  0  0  0  0  0  0  0  0  0
  131.5453  129.6433  152.4797 C   0  0  0  0  0  0  0  0  0  0  0  0
  130.5792  130.0336  151.3372 C   0  0  0  0  0  0  0  0  0  0  0  0
  130.2874  128.7346  150.6212 C   0  0  0  0  0  0  0  0  0  0  0  0
  130.6240  127.7079  151.3535 C   0  0  0  0  0  0  0  0  0  0  0  0
  131.1959  128.1503  152.6804 C   0  0  0  0  0  0  0  0  0  0  0  0
  131.3560  129.8344  154.9675 C   0  0  0  0  0  0  0  0  0  0  0  0
  131.0945  130.5580  156.1132 C   0  0  0  0  0  0  0  0  0  0  0  0
  130.6356  134.0175  157.4030 N   0  0  0  0  0  0  0  0  0  0  0  0
  130.9790  134.6207  156.7254 H   0  0  0  0  0  0  0  0  0  0  0  0
  129.6529  137.4811  160.5683 C   0  0  0  0  0  0  0  0  0  0  0  0
  130.1945  138.3626  159.6515 C   0  0  0  0  0  0  0  0  0  0  0  0
  130.4420  139.6729  160.0155 C   0  0  0  0  0  0  0  0  0  0  0  0
  130.1554  140.0998  161.2986 C   0  0  0  0  0  0  0  0  0  0  0  0
  129.6186  139.2171  162.2170 C   0  0  0  0  0  0  0  0  0  0  0  0
  129.3676  137.9076  161.8519 C   0  0  0  0  0  0  0  0  0  0  0  0
  127.2442  136.2492  160.3820 H   0  0  0  0  0  0  0  0  0  0  0  0
  127.8551  136.5885  158.7449 H   0  0  0  0  0  0  0  0  0  0  0  0
  127.7592  134.9097  159.3288 H   0  0  0  0  0  0  0  0  0  0  0  0
  131.0107  136.2650  158.8280 H   0  0  0  0  0  0  0  0  0  0  0  0
  129.6871  131.1656  158.6136 H   0  0  0  0  0  0  0  0  0  0  0  0
  130.3393  133.5400  154.6864 H   0  0  0  0  0  0  0  0  0  0  0  0
  130.8206  132.2368  152.6560 H   0  0  0  0  0  0  0  0  0  0  0  0
  132.5839  129.7641  152.1722 H   0  0  0  0  0  0  0  0  0  0  0  0
  129.6610  130.4571  151.7444 H   0  0  0  0  0  0  0  0  0  0  0  0
  131.0576  130.7417  150.6606 H   0  0  0  0  0  0  0  0  0  0  0  0
  129.8574  128.6653  149.6330 H   0  0  0  0  0  0  0  0  0  0  0  0
  130.5095  126.6776  151.0507 H   0  0  0  0  0  0  0  0  0  0  0  0
  132.0934  127.5787  152.9165 H   0  0  0  0  0  0  0  0  0  0  0  0
  130.4551  128.0368  153.4718 H   0  0  0  0  0  0  0  0  0  0  0  0
  131.6386  128.7945  155.0395 H   0  0  0  0  0  0  0  0  0  0  0  0
  131.1725  130.0854  157.0812 H   0  0  0  0  0  0  0  0  0  0  0  0
  130.4216  138.0282  158.6499 H   0  0  0  0  0  0  0  0  0  0  0  0
  130.8616  140.3626  159.2981 H   0  0  0  0  0  0  0  0  0  0  0  0
  130.3512  141.1229  161.5839 H   0  0  0  0  0  0  0  0  0  0  0  0
  129.3951  139.5504  163.2197 H   0  0  0  0  0  0  0  0  0  0  0  0
  128.9483  137.2178  162.5694 H   0  0  0  0  0  0  0  0  0  0  0  0
  1  2  1  0
  1 29  1  0
  1 30  1  0
  1 31  1  0
  2  3  1  1
  2  4  1  0
  2 23  1  0
  4 32  1  0
  5  4  1  0
  5 21  2  0
  5  6  1  0
  6  7  1  0
  6  8  1  0
  8  9  2  0
  8 33  1  0
  9 10  1  0
  9 21  1  0
 10 20  1  0
 10 11  2  0
 11 12  1  0
 11 34  1  0
 12 13  2  0
 12 35  1  0
 13 14  1  0
 13 19  1  0
 14 18  1  0
 14 15  1  0
 14 36  1  0
 15 16  1  0
 15 37  1  0
 15 38  1  0
 16 17  2  0
 16 39  1  0
 17 18  1  0
 17 40  1  0
 18 41  1  0
 18 42  1  0
 19 20  2  0
 19 43  1  0
 20 44  1  0
 21 22  1  0
 23 28  1  0
 23 24  2  0
 24 25  1  0
 24 45  1  0
 25 26  2  0
 25 46  1  0
 26 27  1  0
 26 47  1  0
 27 28  2  0
 27 48  1  0
 28 49  1  0
M  CHG  1  21   1
M  END
>  <DOCK_score>  (1) 
-57.677502

>  <SMILES>  (1) 
C[C@@H](Nc1[nH]cc(-c2ccc(C3CC=CC3)cc2)[nH+]1)c1ccccc1

$$$$
