Fc1ccc(Nc2ccc(Nc3[nH]cc(-c4ccc(F)cc4)[nH+]3)cc2)cc1
     RDKit          3D

 44 47  0  0  1  0  0  0  0  0999 V2000
  127.6658  135.0434  167.0193 F   0  0  0  0  0  0  0  0  0  0  0  0
  127.3670  135.2780  165.7228 C   0  0  0  0  0  0  0  0  0  0  0  0
  127.9038  134.4719  164.7330 C   0  0  0  0  0  0  0  0  0  0  0  0
  127.5998  134.7099  163.4069 C   0  0  0  0  0  0  0  0  0  0  0  0
  126.7553  135.7589  163.0666 C   0  0  0  0  0  0  0  0  0  0  0  0
  126.4465  136.0020  161.7247 N   0  0  0  0  0  0  0  0  0  0  0  0
  127.3726  135.6842  160.7247 C   0  0  0  0  0  0  0  0  0  0  0  0
  127.0353  134.7762  159.7290 C   0  0  0  0  0  0  0  0  0  0  0  0
  127.9506  134.4590  158.7453 C   0  0  0  0  0  0  0  0  0  0  0  0
  129.2049  135.0553  158.7455 C   0  0  0  0  0  0  0  0  0  0  0  0
  130.1316  134.7372  157.7449 N   0  0  0  0  0  0  0  0  0  0  0  0
  130.1158  133.4816  157.1603 C   0  0  0  0  0  0  0  0  0  0  0  0
  129.7264  132.3282  157.7693 N   0  0  0  0  0  0  0  0  0  0  0  0
  129.4128  132.2382  158.6828 H   0  0  0  0  0  0  0  0  0  0  0  0
  129.8564  131.3156  156.8500 C   0  0  0  0  0  0  0  0  0  0  0  0
  130.3297  131.8772  155.7100 C   0  0  0  0  0  0  0  0  0  0  0  0
  130.6305  131.1634  154.4448 C   0  0  0  0  0  0  0  0  0  0  0  0
  129.9610  131.5076  153.2718 C   0  0  0  0  0  0  0  0  0  0  0  0
  130.2486  130.8452  152.0960 C   0  0  0  0  0  0  0  0  0  0  0  0
  131.1924  129.8309  152.0830 C   0  0  0  0  0  0  0  0  0  0  0  0
  131.4664  129.1809  150.9307 F   0  0  0  0  0  0  0  0  0  0  0  0
  131.8563  129.4818  153.2476 C   0  0  0  0  0  0  0  0  0  0  0  0
  131.5796  130.1429  154.4267 C   0  0  0  0  0  0  0  0  0  0  0  0
  130.4788  133.2071  155.9309 N   0  0  0  0  0  0  0  0  0  0  0  0
  130.8024  133.8521  155.2827 H   0  0  0  0  0  0  0  0  0  0  0  0
  129.5406  135.9666  159.7383 C   0  0  0  0  0  0  0  0  0  0  0  0
  128.6270  136.2804  160.7247 C   0  0  0  0  0  0  0  0  0  0  0  0
  126.2227  136.5696  164.0608 C   0  0  0  0  0  0  0  0  0  0  0  0
  126.5249  136.3243  165.3859 C   0  0  0  0  0  0  0  0  0  0  0  0
  128.5604  133.6565  164.9982 H   0  0  0  0  0  0  0  0  0  0  0  0
  128.0187  134.0811  162.6353 H   0  0  0  0  0  0  0  0  0  0  0  0
  125.5903  136.3912  161.4870 H   0  0  0  0  0  0  0  0  0  0  0  0
  126.0583  134.3159  159.7262 H   0  0  0  0  0  0  0  0  0  0  0  0
  127.6896  133.7505  157.9730 H   0  0  0  0  0  0  0  0  0  0  0  0
  130.7844  135.3960  157.4612 H   0  0  0  0  0  0  0  0  0  0  0  0
  129.6294  130.2714  157.0067 H   0  0  0  0  0  0  0  0  0  0  0  0
  129.2214  132.2945  153.2823 H   0  0  0  0  0  0  0  0  0  0  0  0
  129.7333  131.1142  151.1858 H   0  0  0  0  0  0  0  0  0  0  0  0
  132.5912  128.6906  153.2328 H   0  0  0  0  0  0  0  0  0  0  0  0
  132.0978  129.8702  155.3340 H   0  0  0  0  0  0  0  0  0  0  0  0
  130.5159  136.4302  159.7384 H   0  0  0  0  0  0  0  0  0  0  0  0
  128.8881  136.9892  161.4968 H   0  0  0  0  0  0  0  0  0  0  0  0
  125.5690  137.3883  163.7981 H   0  0  0  0  0  0  0  0  0  0  0  0
  126.1077  136.9518  166.1595 H   0  0  0  0  0  0  0  0  0  0  0  0
  1  2  1  0
  2 29  2  0
  2  3  1  0
  3  4  2  0
  3 30  1  0
  4  5  1  0
  4 31  1  0
  5  6  1  0
  5 28  2  0
  6  7  1  0
  6 32  1  0
  7 27  1  0
  7  8  2  0
  8  9  1  0
  8 33  1  0
  9 10  2  0
  9 34  1  0
 10 11  1  0
 10 26  1  0
 11 35  1  0
 12 11  1  0
 12 24  2  0
 12 13  1  0
 13 14  1  0
 13 15  1  0
 15 16  2  0
 15 36  1  0
 16 17  1  0
 16 24  1  0
 17 23  1  0
 17 18  2  0
 18 19  1  0
 18 37  1  0
 19 20  2  0
 19 38  1  0
 20 21  1  0
 20 22  1  0
 22 23  2  0
 22 39  1  0
 23 40  1  0
 24 25  1  0
 26 27  2  0
 26 41  1  0
 27 42  1  0
 28 29  1  0
 28 43  1  0
 29 44  1  0
M  CHG  1  24   1
M  END
>  <DOCK_score>  (1) 
-55.131618

>  <SMILES>  (1) 
Fc1ccc(Nc2ccc(Nc3[nH]cc(-c4ccc(F)cc4)[nH+]3)cc2)cc1

$$$$
