Cc1ccc([C@H](Nc2c[nH]c(NC(c3ccccc3)c3ccccc3)[nH+]2)c2ccccc2)cc1
     RDKit          3D

 63 67  0  0  1  0  0  0  0  0999 V2000
  130.8465  131.9724  154.7060 C   0  0  0  0  0  0  0  0  0  0  0  0
  130.2294  132.5011  155.9752 C   0  0  0  0  0  0  0  0  0  0  0  0
  129.4067  133.6112  155.9334 C   0  0  0  0  0  0  0  0  0  0  0  0
  128.8400  134.0956  157.0974 C   0  0  0  0  0  0  0  0  0  0  0  0
  129.0960  133.4701  158.3033 C   0  0  0  0  0  0  0  0  0  0  0  0
  128.4785  133.9984  159.5723 C   0  0  2  0  0  0  0  0  0  0  0  0
  128.3362  135.0757  159.4860 H   0  0  0  0  0  0  0  0  0  0  0  0
  129.3649  133.7119  160.7029 N   0  0  0  0  0  0  0  0  0  0  0  0
  130.3512  134.6397  161.0744 C   0  0  0  0  0  0  0  0  0  0  0  0
  130.8301  134.8286  162.3217 C   0  0  0  0  0  0  0  0  0  0  0  0
  131.7830  135.8277  162.2366 N   0  0  0  0  0  0  0  0  0  0  0  0
  132.3098  136.1863  162.9679 H   0  0  0  0  0  0  0  0  0  0  0  0
  131.8392  136.2131  160.9342 C   0  0  0  0  0  0  0  0  0  0  0  0
  132.6671  137.1953  160.4171 N   0  0  0  0  0  0  0  0  0  0  0  0
  133.0730  138.3268  161.2546 C   0  0  0  0  0  0  0  0  0  0  0  0
  133.9658  139.2448  160.4603 C   0  0  0  0  0  0  0  0  0  0  0  0
  134.9385  139.9885  161.1020 C   0  0  0  0  0  0  0  0  0  0  0  0
  135.7607  140.8271  160.3728 C   0  0  0  0  0  0  0  0  0  0  0  0
  135.6031  140.9301  159.0033 C   0  0  0  0  0  0  0  0  0  0  0  0
  134.6269  140.1904  158.3623 C   0  0  0  0  0  0  0  0  0  0  0  0
  133.8083  139.3479  159.0909 C   0  0  0  0  0  0  0  0  0  0  0  0
  131.8496  139.0823  161.7057 C   0  0  0  0  0  0  0  0  0  0  0  0
  131.8538  139.7423  162.9203 C   0  0  0  0  0  0  0  0  0  0  0  0
  130.7332  140.4394  163.3319 C   0  0  0  0  0  0  0  0  0  0  0  0
  129.6049  140.4678  162.5337 C   0  0  0  0  0  0  0  0  0  0  0  0
  129.5990  139.8032  161.3215 C   0  0  0  0  0  0  0  0  0  0  0  0
  130.7213  139.1105  160.9075 C   0  0  0  0  0  0  0  0  0  0  0  0
  130.9816  135.4946  160.2479 N   0  0  0  0  0  0  0  0  0  0  0  0
  130.8264  135.5681  159.2932 H   0  0  0  0  0  0  0  0  0  0  0  0
  127.1457  133.3322  159.7976 C   0  0  0  0  0  0  0  0  0  0  0  0
  126.9286  132.0472  159.3366 C   0  0  0  0  0  0  0  0  0  0  0  0
  125.7076  131.4344  159.5471 C   0  0  0  0  0  0  0  0  0  0  0  0
  124.7004  132.1100  160.2105 C   0  0  0  0  0  0  0  0  0  0  0  0
  124.9157  133.3969  160.6669 C   0  0  0  0  0  0  0  0  0  0  0  0
  126.1383  134.0081  160.4603 C   0  0  0  0  0  0  0  0  0  0  0  0
  129.9232  132.3634  158.3458 C   0  0  0  0  0  0  0  0  0  0  0  0
  130.4855  131.8755  157.1810 C   0  0  0  0  0  0  0  0  0  0  0  0
  131.8105  132.4542  154.5425 H   0  0  0  0  0  0  0  0  0  0  0  0
  130.9889  130.8952  154.7926 H   0  0  0  0  0  0  0  0  0  0  0  0
  130.1867  132.1853  153.8650 H   0  0  0  0  0  0  0  0  0  0  0  0
  129.2067  134.0998  154.9913 H   0  0  0  0  0  0  0  0  0  0  0  0
  128.1972  134.9630  157.0648 H   0  0  0  0  0  0  0  0  0  0  0  0
  129.2706  132.8812  161.1948 H   0  0  0  0  0  0  0  0  0  0  0  0
  130.5296  134.2994  163.2140 H   0  0  0  0  0  0  0  0  0  0  0  0
  132.9750  137.1362  159.4992 H   0  0  0  0  0  0  0  0  0  0  0  0
  133.6142  137.9581  162.1259 H   0  0  0  0  0  0  0  0  0  0  0  0
  135.0587  139.9114  162.1725 H   0  0  0  0  0  0  0  0  0  0  0  0
  136.5230  141.4053  160.8736 H   0  0  0  0  0  0  0  0  0  0  0  0
  136.2424  141.5888  158.4342 H   0  0  0  0  0  0  0  0  0  0  0  0
  134.5036  140.2712  157.2925 H   0  0  0  0  0  0  0  0  0  0  0  0
  133.0454  138.7702  158.5901 H   0  0  0  0  0  0  0  0  0  0  0  0
  132.7336  139.7166  163.5458 H   0  0  0  0  0  0  0  0  0  0  0  0
  130.7378  140.9583  164.2790 H   0  0  0  0  0  0  0  0  0  0  0  0
  128.7280  141.0086  162.8572 H   0  0  0  0  0  0  0  0  0  0  0  0
  128.7173  139.8250  160.6981 H   0  0  0  0  0  0  0  0  0  0  0  0
  130.7165  138.5911  159.9606 H   0  0  0  0  0  0  0  0  0  0  0  0
  127.7142  131.5207  158.8150 H   0  0  0  0  0  0  0  0  0  0  0  0
  125.5394  130.4288  159.1908 H   0  0  0  0  0  0  0  0  0  0  0  0
  123.7455  131.6323  160.3726 H   0  0  0  0  0  0  0  0  0  0  0  0
  124.1289  133.9248  161.1852 H   0  0  0  0  0  0  0  0  0  0  0  0
  126.3065  135.0136  160.8168 H   0  0  0  0  0  0  0  0  0  0  0  0
  130.1269  131.8772  159.2886 H   0  0  0  0  0  0  0  0  0  0  0  0
  131.1280  131.0081  157.2136 H   0  0  0  0  0  0  0  0  0  0  0  0
  1  2  1  0
  1 38  1  0
  1 39  1  0
  1 40  1  0
  2 37  2  0
  2  3  1  0
  3  4  2  0
  3 41  1  0
  4  5  1  0
  4 42  1  0
  5  6  1  0
  5 36  2  0
  6  7  1  6
  6  8  1  0
  6 30  1  0
  8  9  1  0
  8 43  1  0
  9 28  1  0
  9 10  2  0
 10 11  1  0
 10 44  1  0
 11 12  1  0
 11 13  1  0
 13 14  1  0
 13 28  2  0
 14 15  1  0
 14 45  1  0
 15 16  1  0
 15 22  1  0
 15 46  1  0
 16 21  1  0
 16 17  2  0
 17 18  1  0
 17 47  1  0
 18 19  2  0
 18 48  1  0
 19 20  1  0
 19 49  1  0
 20 21  2  0
 20 50  1  0
 21 51  1  0
 22 27  1  0
 22 23  2  0
 23 24  1  0
 23 52  1  0
 24 25  2  0
 24 53  1  0
 25 26  1  0
 25 54  1  0
 26 27  2  0
 26 55  1  0
 27 56  1  0
 28 29  1  0
 30 35  1  0
 30 31  2  0
 31 32  1  0
 31 57  1  0
 32 33  2  0
 32 58  1  0
 33 34  1  0
 33 59  1  0
 34 35  2  0
 34 60  1  0
 35 61  1  0
 36 37  1  0
 36 62  1  0
 37 63  1  0
M  CHG  1  28   1
M  END
>  <DOCK_score>  (1) 
-60.353035

>  <SMILES>  (1) 
Cc1ccc([C@H](Nc2c[nH]c(NC(c3ccccc3)c3ccccc3)[nH+]2)c2ccccc2)cc1

$$$$
