Cc1cccc(N2CC[NH+](C(c3ccccc3)c3ccccc3)CC2)c1NCC/C=C/Br
     RDKit          3D

 65 68  0  0  1  0  0  0  0  0999 V2000
  136.0617  141.1209  162.4957 C   0  0  0  0  0  0  0  0  0  0  0  0
  135.4140  140.3830  161.3524 C   0  0  0  0  0  0  0  0  0  0  0  0
  135.8017  140.6467  160.0512 C   0  0  0  0  0  0  0  0  0  0  0  0
  135.2148  139.9678  159.0000 C   0  0  0  0  0  0  0  0  0  0  0  0
  134.2323  139.0250  159.2428 C   0  0  0  0  0  0  0  0  0  0  0  0
  133.8336  138.7587  160.5434 C   0  0  0  0  0  0  0  0  0  0  0  0
  132.8395  137.8044  160.7915 N   0  0  0  0  0  0  0  0  0  0  0  0
  133.2783  136.4657  160.3728 C   0  0  0  0  0  0  0  0  0  0  0  0
  132.1902  135.4454  160.7147 C   0  0  0  0  0  0  0  0  0  0  0  0
  130.9445  135.8087  160.0266 N   0  0  0  0  0  0  0  0  0  0  0  0
  131.1030  135.8246  159.0303 H   0  0  0  0  0  0  0  0  0  0  0  0
  129.9053  134.8190  160.3407 C   0  0  0  0  0  0  0  0  0  0  0  0
  128.6270  135.1916  159.6349 C   0  0  0  0  0  0  0  0  0  0  0  0
  127.4072  134.8515  160.1892 C   0  0  0  0  0  0  0  0  0  0  0  0
  126.2345  135.1975  159.5441 C   0  0  0  0  0  0  0  0  0  0  0  0
  126.2814  135.8744  158.3403 C   0  0  0  0  0  0  0  0  0  0  0  0
  127.5019  136.2097  157.7828 C   0  0  0  0  0  0  0  0  0  0  0  0
  128.6744  135.8684  158.4305 C   0  0  0  0  0  0  0  0  0  0  0  0
  130.3543  133.4560  159.8808 C   0  0  0  0  0  0  0  0  0  0  0  0
  129.9309  132.3253  160.5539 C   0  0  0  0  0  0  0  0  0  0  0  0
  130.3388  131.0746  160.1291 C   0  0  0  0  0  0  0  0  0  0  0  0
  131.1786  130.9554  159.0376 C   0  0  0  0  0  0  0  0  0  0  0  0
  131.6061  132.0864  158.3676 C   0  0  0  0  0  0  0  0  0  0  0  0
  131.1940  133.3367  158.7893 C   0  0  0  0  0  0  0  0  0  0  0  0
  130.5057  137.1374  160.4734 C   0  0  0  0  0  0  0  0  0  0  0  0
  131.5798  138.1718  160.1295 C   0  0  0  0  0  0  0  0  0  0  0  0
  134.4260  139.4439  161.6045 C   0  0  0  0  0  0  0  0  0  0  0  0
  134.0280  139.1796  162.9206 N   0  0  0  0  0  0  0  0  0  0  0  0
  132.9233  140.0602  163.3235 C   0  0  0  0  0  0  0  0  0  0  0  0
  132.5169  139.7422  164.7638 C   0  0  0  0  0  0  0  0  0  0  0  0
  131.3836  140.6455  165.1770 C   0  0  0  0  0  0  0  0  0  0  0  0
  130.2335  140.1305  165.5396 C   0  0  0  0  0  0  0  0  0  0  0  0
  128.8115  141.2641  166.0581 Br  0  0  0  0  0  0  0  0  0  0  0  0
  135.4492  141.9811  162.7664 H   0  0  0  0  0  0  0  0  0  0  0  0
  136.1516  140.4546  163.3537 H   0  0  0  0  0  0  0  0  0  0  0  0
  137.0524  141.4608  162.1942 H   0  0  0  0  0  0  0  0  0  0  0  0
  136.5684  141.3818  159.8563 H   0  0  0  0  0  0  0  0  0  0  0  0
  135.5239  140.1744  157.9860 H   0  0  0  0  0  0  0  0  0  0  0  0
  133.7760  138.4963  158.4191 H   0  0  0  0  0  0  0  0  0  0  0  0
  133.4561  136.4611  159.2974 H   0  0  0  0  0  0  0  0  0  0  0  0
  134.1987  136.2046  160.8951 H   0  0  0  0  0  0  0  0  0  0  0  0
  132.0224  135.4406  161.7917 H   0  0  0  0  0  0  0  0  0  0  0  0
  132.5077  134.4538  160.3920 H   0  0  0  0  0  0  0  0  0  0  0  0
  129.7341  134.8011  161.4171 H   0  0  0  0  0  0  0  0  0  0  0  0
  127.3701  134.3189  161.1279 H   0  0  0  0  0  0  0  0  0  0  0  0
  125.2813  134.9352  159.9790 H   0  0  0  0  0  0  0  0  0  0  0  0
  125.3658  136.1406  157.8335 H   0  0  0  0  0  0  0  0  0  0  0  0
  127.5388  136.7381  156.8417 H   0  0  0  0  0  0  0  0  0  0  0  0
  129.6276  136.1300  157.9952 H   0  0  0  0  0  0  0  0  0  0  0  0
  129.2784  132.4188  161.4096 H   0  0  0  0  0  0  0  0  0  0  0  0
  130.0051  130.1911  160.6528 H   0  0  0  0  0  0  0  0  0  0  0  0
  131.5008  129.9785  158.7085 H   0  0  0  0  0  0  0  0  0  0  0  0
  132.2624  131.9931  157.5150 H   0  0  0  0  0  0  0  0  0  0  0  0
  131.5284  134.2204  158.2660 H   0  0  0  0  0  0  0  0  0  0  0  0
  130.3465  137.1239  161.5517 H   0  0  0  0  0  0  0  0  0  0  0  0
  129.5744  137.4002  159.9719 H   0  0  0  0  0  0  0  0  0  0  0  0
  131.2611  139.1554  160.4743 H   0  0  0  0  0  0  0  0  0  0  0  0
  131.7296  138.1953  159.0501 H   0  0  0  0  0  0  0  0  0  0  0  0
  133.7765  138.2090  163.0343 H   0  0  0  0  0  0  0  0  0  0  0  0
  133.2448  141.0996  163.2576 H   0  0  0  0  0  0  0  0  0  0  0  0
  132.0718  139.9006  162.6620 H   0  0  0  0  0  0  0  0  0  0  0  0
  132.1954  138.7028  164.8296 H   0  0  0  0  0  0  0  0  0  0  0  0
  133.3685  139.9018  165.4253 H   0  0  0  0  0  0  0  0  0  0  0  0
  131.5188  141.7170  165.1747 H   0  0  0  0  0  0  0  0  0  0  0  0
  130.0983  139.0592  165.5420 H   0  0  0  0  0  0  0  0  0  0  0  0
  1  2  1  0
  1 34  1  0
  1 35  1  0
  1 36  1  0
  2 27  2  0
  2  3  1  0
  3  4  2  0
  3 37  1  0
  4  5  1  0
  4 38  1  0
  5  6  2  0
  5 39  1  0
  6  7  1  0
  6 27  1  0
  7 26  1  0
  7  8  1  0
  8  9  1  0
  8 40  1  0
  8 41  1  0
  9 10  1  0
  9 42  1  0
  9 43  1  0
 10 11  1  0
 10 12  1  0
 10 25  1  0
 12 13  1  0
 12 19  1  0
 12 44  1  0
 13 18  1  0
 13 14  2  0
 14 15  1  0
 14 45  1  0
 15 16  2  0
 15 46  1  0
 16 17  1  0
 16 47  1  0
 17 18  2  0
 17 48  1  0
 18 49  1  0
 19 24  1  0
 19 20  2  0
 20 21  1  0
 20 50  1  0
 21 22  2  0
 21 51  1  0
 22 23  1  0
 22 52  1  0
 23 24  2  0
 23 53  1  0
 24 54  1  0
 25 26  1  0
 25 55  1  0
 25 56  1  0
 26 57  1  0
 26 58  1  0
 27 28  1  0
 28 29  1  0
 28 59  1  0
 29 30  1  0
 29 60  1  0
 29 61  1  0
 30 31  1  0
 30 62  1  0
 30 63  1  0
 31 32  2  0
 31 64  1  0
 32 33  1  0
 32 65  1  0
M  CHG  1  10   1
M  END
>  <DOCK_score>  (1) 
-55.956367

>  <SMILES>  (1) 
Cc1cccc(N2CC[NH+](C(c3ccccc3)c3ccccc3)CC2)c1NCC/C=C/Br

$$$$
