Cn1nccc1C=C[C@H](Nc1[nH]cc(C(C)(C)C)[nH+]1)c1ccc(-c2ccccc2)cc1
     RDKit          3D

 61 64  0  0  1  0  0  0  0  0999 V2000
  126.6892  135.5832  159.8951 C   0  0  0  0  0  0  0  0  0  0  0  0
  126.2798  134.1802  159.7934 N   0  0  0  0  0  0  0  0  0  0  0  0
  125.0334  133.6557  160.1568 N   0  0  0  0  0  0  0  0  0  0  0  0
  125.0349  132.3673  159.9257 C   0  0  0  0  0  0  0  0  0  0  0  0
  126.2759  132.0089  159.4003 C   0  0  0  0  0  0  0  0  0  0  0  0
  127.0453  133.1507  159.3284 C   0  0  0  0  0  0  0  0  0  0  0  0
  128.4307  133.2429  158.8362 C   0  0  0  0  0  0  0  0  0  0  0  0
  129.2535  132.2088  158.9706 C   0  0  0  0  0  0  0  0  0  0  0  0
  130.6355  132.2628  158.3722 C   0  0  2  0  0  0  0  0  0  0  0  0
  131.3153  131.6584  158.9727 H   0  0  0  0  0  0  0  0  0  0  0  0
  131.1047  133.6504  158.3511 N   0  0  0  0  0  0  0  0  0  0  0  0
  131.2249  134.3588  159.5351 C   0  0  0  0  0  0  0  0  0  0  0  0
  130.9470  133.8827  160.7787 N   0  0  0  0  0  0  0  0  0  0  0  0
  130.6305  132.9925  160.9982 H   0  0  0  0  0  0  0  0  0  0  0  0
  131.1996  134.9040  161.6666 C   0  0  0  0  0  0  0  0  0  0  0  0
  131.6182  135.9568  160.9440 C   0  0  0  0  0  0  0  0  0  0  0  0
  132.0115  137.3038  161.4935 C   0  0  0  0  0  0  0  0  0  0  0  0
  133.1842  137.1370  162.4619 C   0  0  0  0  0  0  0  0  0  0  0  0
  132.4271  138.2224  160.3426 C   0  0  0  0  0  0  0  0  0  0  0  0
  130.8226  137.9197  162.2336 C   0  0  0  0  0  0  0  0  0  0  0  0
  131.6317  135.6010  159.6481 N   0  0  0  0  0  0  0  0  0  0  0  0
  131.8978  136.1736  158.9117 H   0  0  0  0  0  0  0  0  0  0  0  0
  130.5949  131.7249  156.9650 C   0  0  0  0  0  0  0  0  0  0  0  0
  129.7944  132.3356  156.0167 C   0  0  0  0  0  0  0  0  0  0  0  0
  129.7538  131.8474  154.7264 C   0  0  0  0  0  0  0  0  0  0  0  0
  130.5209  130.7370  154.3799 C   0  0  0  0  0  0  0  0  0  0  0  0
  130.4814  130.2077  152.9941 C   0  0  0  0  0  0  0  0  0  0  0  0
  130.6858  128.8497  152.7581 C   0  0  0  0  0  0  0  0  0  0  0  0
  130.6476  128.3628  151.4674 C   0  0  0  0  0  0  0  0  0  0  0  0
  130.4066  129.2201  150.4088 C   0  0  0  0  0  0  0  0  0  0  0  0
  130.2082  130.5699  150.6369 C   0  0  0  0  0  0  0  0  0  0  0  0
  130.2391  131.0667  151.9241 C   0  0  0  0  0  0  0  0  0  0  0  0
  131.3208  130.1219  155.3407 C   0  0  0  0  0  0  0  0  0  0  0  0
  131.3587  130.6225  156.6264 C   0  0  0  0  0  0  0  0  0  0  0  0
  126.3706  136.1203  159.0016 H   0  0  0  0  0  0  0  0  0  0  0  0
  126.2276  136.0336  160.7737 H   0  0  0  0  0  0  0  0  0  0  0  0
  127.7740  135.6396  159.9853 H   0  0  0  0  0  0  0  0  0  0  0  0
  124.2101  131.6944  160.1073 H   0  0  0  0  0  0  0  0  0  0  0  0
  126.5802  131.0155  159.1054 H   0  0  0  0  0  0  0  0  0  0  0  0
  128.7773  134.1513  158.3662 H   0  0  0  0  0  0  0  0  0  0  0  0
  128.9321  131.3294  159.5089 H   0  0  0  0  0  0  0  0  0  0  0  0
  131.3311  134.0731  157.5079 H   0  0  0  0  0  0  0  0  0  0  0  0
  131.0833  134.8663  162.7397 H   0  0  0  0  0  0  0  0  0  0  0  0
  134.0314  136.6982  161.9345 H   0  0  0  0  0  0  0  0  0  0  0  0
  133.4688  138.1114  162.8591 H   0  0  0  0  0  0  0  0  0  0  0  0
  132.8882  136.4826  163.2817 H   0  0  0  0  0  0  0  0  0  0  0  0
  131.5918  138.3412  159.6526 H   0  0  0  0  0  0  0  0  0  0  0  0
  132.7117  139.1967  160.7400 H   0  0  0  0  0  0  0  0  0  0  0  0
  133.2742  137.7836  159.8152 H   0  0  0  0  0  0  0  0  0  0  0  0
  130.5264  137.2653  163.0535 H   0  0  0  0  0  0  0  0  0  0  0  0
  131.1070  138.8940  162.6310 H   0  0  0  0  0  0  0  0  0  0  0  0
  129.9871  138.0385  161.5436 H   0  0  0  0  0  0  0  0  0  0  0  0
  129.2001  133.1962  156.2863 H   0  0  0  0  0  0  0  0  0  0  0  0
  129.1283  132.3250  153.9868 H   0  0  0  0  0  0  0  0  0  0  0  0
  130.8736  128.1795  153.5840 H   0  0  0  0  0  0  0  0  0  0  0  0
  130.8056  127.3104  151.2833 H   0  0  0  0  0  0  0  0  0  0  0  0
  130.3779  128.8348  149.4003 H   0  0  0  0  0  0  0  0  0  0  0  0
  130.0246  131.2356  149.8065 H   0  0  0  0  0  0  0  0  0  0  0  0
  130.0802  132.1203  152.1015 H   0  0  0  0  0  0  0  0  0  0  0  0
  131.9136  129.2581  155.0787 H   0  0  0  0  0  0  0  0  0  0  0  0
  131.9825  130.1497  157.3707 H   0  0  0  0  0  0  0  0  0  0  0  0
  1  2  1  0
  1 35  1  0
  1 36  1  0
  1 37  1  0
  2  6  1  0
  2  3  1  0
  3  4  2  0
  4  5  1  0
  4 38  1  0
  5  6  2  0
  5 39  1  0
  6  7  1  0
  7  8  2  0
  7 40  1  0
  8  9  1  0
  8 41  1  0
  9 10  1  1
  9 11  1  0
  9 23  1  0
 11 42  1  0
 12 11  1  0
 12 21  2  0
 12 13  1  0
 13 14  1  0
 13 15  1  0
 15 16  2  0
 15 43  1  0
 16 17  1  0
 16 21  1  0
 17 18  1  0
 17 19  1  0
 17 20  1  0
 18 44  1  0
 18 45  1  0
 18 46  1  0
 19 47  1  0
 19 48  1  0
 19 49  1  0
 20 50  1  0
 20 51  1  0
 20 52  1  0
 21 22  1  0
 23 34  1  0
 23 24  2  0
 24 25  1  0
 24 53  1  0
 25 26  2  0
 25 54  1  0
 26 27  1  0
 26 33  1  0
 27 32  1  0
 27 28  2  0
 28 29  1  0
 28 55  1  0
 29 30  2  0
 29 56  1  0
 30 31  1  0
 30 57  1  0
 31 32  2  0
 31 58  1  0
 32 59  1  0
 33 34  2  0
 33 60  1  0
 34 61  1  0
M  CHG  1  21   1
M  END
>  <DOCK_score>  (1) 
-64.35157

>  <SMILES>  (1) 
Cn1nccc1C=C[C@H](Nc1[nH]cc(C(C)(C)C)[nH+]1)c1ccc(-c2ccccc2)cc1

$$$$
