COc1ccnc([C@@H](C)Nc2cc(Nc3[nH]cc(-c4cccnc4)[nH+]3)ccn2)c1
     RDKit          3D

 51 54  0  0  1  0  0  0  0  0999 V2000
  127.7675  135.1659  168.5965 C   0  0  0  0  0  0  0  0  0  0  0  0
  127.4026  135.4002  167.2349 O   0  0  0  0  0  0  0  0  0  0  0  0
  127.7484  136.5998  166.7019 C   0  0  0  0  0  0  0  0  0  0  0  0
  128.4281  137.5492  167.4611 C   0  0  0  0  0  0  0  0  0  0  0  0
  128.7614  138.7567  166.8831 C   0  0  0  0  0  0  0  0  0  0  0  0
  128.4443  139.0162  165.6286 N   0  0  0  0  0  0  0  0  0  0  0  0
  127.8010  138.1427  164.8777 C   0  0  0  0  0  0  0  0  0  0  0  0
  127.4646  138.4928  163.4510 C   0  0  1  0  0  0  0  0  0  0  0  0
  126.5488  137.9798  163.1572 H   0  0  0  0  0  0  0  0  0  0  0  0
  127.2633  140.0047  163.3307 C   0  0  0  0  0  0  0  0  0  0  0  0
  128.5613  138.0748  162.5740 N   0  0  0  0  0  0  0  0  0  0  0  0
  128.3274  137.1542  161.5589 C   0  0  0  0  0  0  0  0  0  0  0  0
  129.3729  136.7589  160.7353 C   0  0  0  0  0  0  0  0  0  0  0  0
  129.1234  135.8367  159.7238 C   0  0  0  0  0  0  0  0  0  0  0  0
  130.1446  135.4139  158.8754 N   0  0  0  0  0  0  0  0  0  0  0  0
  130.1087  134.1411  158.3286 C   0  0  0  0  0  0  0  0  0  0  0  0
  129.5492  133.0444  158.9089 N   0  0  0  0  0  0  0  0  0  0  0  0
  129.1076  133.0134  159.7720 H   0  0  0  0  0  0  0  0  0  0  0  0
  129.7231  131.9905  158.0461 C   0  0  0  0  0  0  0  0  0  0  0  0
  130.3906  132.4711  156.9674 C   0  0  0  0  0  0  0  0  0  0  0  0
  130.8035  131.6886  155.7767 C   0  0  0  0  0  0  0  0  0  0  0  0
  130.8952  132.2990  154.5224 C   0  0  0  0  0  0  0  0  0  0  0  0
  131.2908  131.5270  153.4439 C   0  0  0  0  0  0  0  0  0  0  0  0
  131.5687  130.1859  153.6377 C   0  0  0  0  0  0  0  0  0  0  0  0
  131.4681  129.6363  154.8324 N   0  0  0  0  0  0  0  0  0  0  0  0
  131.1008  130.3319  155.8891 C   0  0  0  0  0  0  0  0  0  0  0  0
  130.6131  133.7934  157.1700 N   0  0  0  0  0  0  0  0  0  0  0  0
  131.0723  134.3872  156.5554 H   0  0  0  0  0  0  0  0  0  0  0  0
  127.8237  135.3456  159.5798 C   0  0  0  0  0  0  0  0  0  0  0  0
  126.8392  135.7863  160.4365 C   0  0  0  0  0  0  0  0  0  0  0  0
  127.1099  136.6587  161.3905 N   0  0  0  0  0  0  0  0  0  0  0  0
  127.4324  136.9123  165.3824 C   0  0  0  0  0  0  0  0  0  0  0  0
  127.4327  134.1730  168.8967 H   0  0  0  0  0  0  0  0  0  0  0  0
  128.8509  135.2303  168.6986 H   0  0  0  0  0  0  0  0  0  0  0  0
  127.2974  135.9157  169.2329 H   0  0  0  0  0  0  0  0  0  0  0  0
  128.6908  137.3430  168.4881 H   0  0  0  0  0  0  0  0  0  0  0  0
  129.2844  139.5005  167.4657 H   0  0  0  0  0  0  0  0  0  0  0  0
  128.1791  140.5177  163.6244 H   0  0  0  0  0  0  0  0  0  0  0  0
  127.0202  140.2579  162.2988 H   0  0  0  0  0  0  0  0  0  0  0  0
  126.4475  140.3157  163.9832 H   0  0  0  0  0  0  0  0  0  0  0  0
  129.4506  138.4406  162.7016 H   0  0  0  0  0  0  0  0  0  0  0  0
  130.3649  137.1613  160.8777 H   0  0  0  0  0  0  0  0  0  0  0  0
  130.8805  136.0107  158.6674 H   0  0  0  0  0  0  0  0  0  0  0  0
  129.3953  130.9729  158.1989 H   0  0  0  0  0  0  0  0  0  0  0  0
  130.6677  133.3476  154.3988 H   0  0  0  0  0  0  0  0  0  0  0  0
  131.3771  131.9657  152.4609 H   0  0  0  0  0  0  0  0  0  0  0  0
  131.8733  129.5794  152.7976 H   0  0  0  0  0  0  0  0  0  0  0  0
  131.0298  129.8465  156.8513 H   0  0  0  0  0  0  0  0  0  0  0  0
  127.5933  134.6289  158.8054 H   0  0  0  0  0  0  0  0  0  0  0  0
  125.8326  135.4097  160.3294 H   0  0  0  0  0  0  0  0  0  0  0  0
  126.9062  136.2016  164.7623 H   0  0  0  0  0  0  0  0  0  0  0  0
  1  2  1  0
  1 33  1  0
  1 34  1  0
  1 35  1  0
  2  3  1  0
  3 32  2  0
  3  4  1  0
  4  5  2  0
  4 36  1  0
  5  6  1  0
  5 37  1  0
  6  7  2  0
  7  8  1  0
  7 32  1  0
  8  9  1  6
  8 10  1  0
  8 11  1  0
 10 38  1  0
 10 39  1  0
 10 40  1  0
 11 12  1  0
 11 41  1  0
 12 31  1  0
 12 13  2  0
 13 14  1  0
 13 42  1  0
 14 15  1  0
 14 29  2  0
 15 43  1  0
 16 15  1  0
 16 27  2  0
 16 17  1  0
 17 18  1  0
 17 19  1  0
 19 20  2  0
 19 44  1  0
 20 21  1  0
 20 27  1  0
 21 26  1  0
 21 22  2  0
 22 23  1  0
 22 45  1  0
 23 24  2  0
 23 46  1  0
 24 25  1  0
 24 47  1  0
 25 26  2  0
 26 48  1  0
 27 28  1  0
 29 30  1  0
 29 49  1  0
 30 31  2  0
 30 50  1  0
 32 51  1  0
M  CHG  1  27   1
M  END
>  <DOCK_score>  (1) 
-49.027145

>  <SMILES>  (1) 
COc1ccnc([C@@H](C)Nc2cc(Nc3[nH]cc(-c4cccnc4)[nH+]3)ccn2)c1

$$$$
