CCc1ccc(-c2cnc([C@@H](C)Nc3[nH]cc(-c4ccc(CC)cc4)[nH+]3)nc2)cc1
     RDKit          3D

 58 61  0  0  1  0  0  0  0  0999 V2000
  139.0792  136.6971  165.1916 C   0  0  0  0  0  0  0  0  0  0  0  0
  137.9197  136.0448  165.9472 C   0  0  0  0  0  0  0  0  0  0  0  0
  136.7413  135.8889  165.0209 C   0  0  0  0  0  0  0  0  0  0  0  0
  136.6009  134.7337  164.2731 C   0  0  0  0  0  0  0  0  0  0  0  0
  135.5238  134.5856  163.4228 C   0  0  0  0  0  0  0  0  0  0  0  0
  134.5766  135.6022  163.3188 C   0  0  0  0  0  0  0  0  0  0  0  0
  133.4164  135.4481  162.4065 C   0  0  0  0  0  0  0  0  0  0  0  0
  132.8847  134.1876  162.1271 C   0  0  0  0  0  0  0  0  0  0  0  0
  131.8511  134.0960  161.3078 N   0  0  0  0  0  0  0  0  0  0  0  0
  131.3243  135.1722  160.7583 C   0  0  0  0  0  0  0  0  0  0  0  0
  130.1471  135.0164  159.8305 C   0  0  1  0  0  0  0  0  0  0  0  0
  129.5643  134.1441  160.1263 H   0  0  0  0  0  0  0  0  0  0  0  0
  129.2684  136.2666  159.9070 C   0  0  0  0  0  0  0  0  0  0  0  0
  130.6272  134.8402  158.4576 N   0  0  0  0  0  0  0  0  0  0  0  0
  130.3130  133.6883  157.7569 C   0  0  0  0  0  0  0  0  0  0  0  0
  129.5741  132.6486  158.2312 N   0  0  0  0  0  0  0  0  0  0  0  0
  129.1760  132.5819  159.1133 H   0  0  0  0  0  0  0  0  0  0  0  0
  129.4956  131.7111  157.2302 C   0  0  0  0  0  0  0  0  0  0  0  0
  130.1882  132.2045  156.1738 C   0  0  0  0  0  0  0  0  0  0  0  0
  130.3774  131.5342  154.8642 C   0  0  0  0  0  0  0  0  0  0  0  0
  129.9225  132.1419  153.6952 C   0  0  0  0  0  0  0  0  0  0  0  0
  130.1018  131.5139  152.4795 C   0  0  0  0  0  0  0  0  0  0  0  0
  130.7316  130.2833  152.4200 C   0  0  0  0  0  0  0  0  0  0  0  0
  130.9245  129.6023  151.0895 C   0  0  0  0  0  0  0  0  0  0  0  0
  129.7125  128.7184  150.7885 C   0  0  0  0  0  0  0  0  0  0  0  0
  131.1799  129.6732  153.5772 C   0  0  0  0  0  0  0  0  0  0  0  0
  131.0112  130.2947  154.7979 C   0  0  0  0  0  0  0  0  0  0  0  0
  130.6825  133.4170  156.5290 N   0  0  0  0  0  0  0  0  0  0  0  0
  131.2215  133.9923  155.9637 H   0  0  0  0  0  0  0  0  0  0  0  0
  131.7988  136.3799  160.9908 N   0  0  0  0  0  0  0  0  0  0  0  0
  132.8269  136.5617  161.8016 C   0  0  0  0  0  0  0  0  0  0  0  0
  134.7256  136.7658  164.0709 C   0  0  0  0  0  0  0  0  0  0  0  0
  135.8042  136.9014  164.9212 C   0  0  0  0  0  0  0  0  0  0  0  0
  139.9316  136.8099  165.8616 H   0  0  0  0  0  0  0  0  0  0  0  0
  139.3618  136.0687  164.3470 H   0  0  0  0  0  0  0  0  0  0  0  0
  138.7706  137.6772  164.8282 H   0  0  0  0  0  0  0  0  0  0  0  0
  137.6371  136.6732  166.7918 H   0  0  0  0  0  0  0  0  0  0  0  0
  138.2284  135.0647  166.3107 H   0  0  0  0  0  0  0  0  0  0  0  0
  137.3355  133.9463  164.3544 H   0  0  0  0  0  0  0  0  0  0  0  0
  135.4154  133.6836  162.8389 H   0  0  0  0  0  0  0  0  0  0  0  0
  133.3112  133.3014  162.5734 H   0  0  0  0  0  0  0  0  0  0  0  0
  129.8512  137.1389  159.6112 H   0  0  0  0  0  0  0  0  0  0  0  0
  128.4170  136.1539  159.2359 H   0  0  0  0  0  0  0  0  0  0  0  0
  128.9112  136.3977  160.9284 H   0  0  0  0  0  0  0  0  0  0  0  0
  131.1651  135.5308  158.0396 H   0  0  0  0  0  0  0  0  0  0  0  0
  128.9806  130.7629  157.2756 H   0  0  0  0  0  0  0  0  0  0  0  0
  129.4305  133.1022  153.7408 H   0  0  0  0  0  0  0  0  0  0  0  0
  129.7494  131.9837  151.5731 H   0  0  0  0  0  0  0  0  0  0  0  0
  131.8236  128.9882  151.1224 H   0  0  0  0  0  0  0  0  0  0  0  0
  131.0273  130.3556  150.3074 H   0  0  0  0  0  0  0  0  0  0  0  0
  129.8520  128.2260  149.8261 H   0  0  0  0  0  0  0  0  0  0  0  0
  129.6093  127.9657  151.5701 H   0  0  0  0  0  0  0  0  0  0  0  0
  128.8132  129.3332  150.7552 H   0  0  0  0  0  0  0  0  0  0  0  0
  131.6667  128.7106  153.5251 H   0  0  0  0  0  0  0  0  0  0  0  0
  131.3658  129.8194  155.7005 H   0  0  0  0  0  0  0  0  0  0  0  0
  133.2078  137.5547  161.9903 H   0  0  0  0  0  0  0  0  0  0  0  0
  133.9968  137.5588  163.9907 H   0  0  0  0  0  0  0  0  0  0  0  0
  135.9190  137.8015  165.5068 H   0  0  0  0  0  0  0  0  0  0  0  0
  1  2  1  0
  1 34  1  0
  1 35  1  0
  1 36  1  0
  2  3  1  0
  2 37  1  0
  2 38  1  0
  3 33  2  0
  3  4  1  0
  4  5  2  0
  4 39  1  0
  5  6  1  0
  5 40  1  0
  6  7  1  0
  6 32  2  0
  7 31  1  0
  7  8  2  0
  8  9  1  0
  8 41  1  0
  9 10  2  0
 10 11  1  0
 10 30  1  0
 11 12  1  1
 11 13  1  0
 11 14  1  0
 13 42  1  0
 13 43  1  0
 13 44  1  0
 14 45  1  0
 15 14  1  0
 15 28  2  0
 15 16  1  0
 16 17  1  0
 16 18  1  0
 18 19  2  0
 18 46  1  0
 19 20  1  0
 19 28  1  0
 20 27  1  0
 20 21  2  0
 21 22  1  0
 21 47  1  0
 22 23  2  0
 22 48  1  0
 23 24  1  0
 23 26  1  0
 24 25  1  0
 24 49  1  0
 24 50  1  0
 25 51  1  0
 25 52  1  0
 25 53  1  0
 26 27  2  0
 26 54  1  0
 27 55  1  0
 28 29  1  0
 30 31  2  0
 31 56  1  0
 32 33  1  0
 32 57  1  0
 33 58  1  0
M  CHG  1  28   1
M  END
>  <DOCK_score>  (1) 
-59.185005

>  <SMILES>  (1) 
CCc1ccc(-c2cnc([C@@H](C)Nc3[nH]cc(-c4ccc(CC)cc4)[nH+]3)nc2)cc1

$$$$
