Cn1nccc1C(c1ccccc1)[C@H](Nc1[nH]cc(-c2ccc(N)cc2)[nH+]1)c1ccno1
     RDKit          3D

 56 60  0  0  1  0  0  0  0  0999 V2000
  132.1028  138.6282  159.5112 C   0  0  0  0  0  0  0  0  0  0  0  0
  132.5548  137.5381  160.3792 N   0  0  0  0  0  0  0  0  0  0  0  0
  133.8835  137.2501  160.7167 N   0  0  0  0  0  0  0  0  0  0  0  0
  133.8880  136.2060  161.5051 C   0  0  0  0  0  0  0  0  0  0  0  0
  132.5635  135.8017  161.7024 C   0  0  0  0  0  0  0  0  0  0  0  0
  131.7642  136.6372  160.9993 C   0  0  0  0  0  0  0  0  0  0  0  0
  130.2604  136.5733  160.9232 C   0  0  2  0  0  0  0  0  0  0  0  0
  129.6804  136.7304  162.3052 C   0  0  0  0  0  0  0  0  0  0  0  0
  129.3770  137.9894  162.7886 C   0  0  0  0  0  0  0  0  0  0  0  0
  128.8405  138.1331  164.0544 C   0  0  0  0  0  0  0  0  0  0  0  0
  128.6167  137.0193  164.8408 C   0  0  0  0  0  0  0  0  0  0  0  0
  128.9254  135.7599  164.3596 C   0  0  0  0  0  0  0  0  0  0  0  0
  129.4571  135.6158  163.0917 C   0  0  0  0  0  0  0  0  0  0  0  0
  129.8360  135.2231  160.3424 C   0  0  2  0  0  0  0  0  0  0  0  0
  130.2016  134.4208  160.9832 H   0  0  0  0  0  0  0  0  0  0  0  0
  130.3999  135.0704  158.9990 N   0  0  0  0  0  0  0  0  0  0  0  0
  130.1504  133.9200  158.2701 C   0  0  0  0  0  0  0  0  0  0  0  0
  129.3960  132.8665  158.6857 N   0  0  0  0  0  0  0  0  0  0  0  0
  128.9406  132.7868  159.5384 H   0  0  0  0  0  0  0  0  0  0  0  0
  129.3993  131.9358  157.6738 C   0  0  0  0  0  0  0  0  0  0  0  0
  130.1547  132.4478  156.6711 C   0  0  0  0  0  0  0  0  0  0  0  0
  130.4421  131.7915  155.3720 C   0  0  0  0  0  0  0  0  0  0  0  0
  130.0527  132.4014  154.1805 C   0  0  0  0  0  0  0  0  0  0  0  0
  130.3255  131.7919  152.9740 C   0  0  0  0  0  0  0  0  0  0  0  0
  130.9780  130.5651  152.9458 C   0  0  0  0  0  0  0  0  0  0  0  0
  131.2480  129.9475  151.7222 N   0  0  0  0  0  0  0  0  0  0  0  0
  131.3625  129.9528  154.1327 C   0  0  0  0  0  0  0  0  0  0  0  0
  131.0968  130.5611  155.3413 C   0  0  0  0  0  0  0  0  0  0  0  0
  130.5973  133.6686  157.0637 N   0  0  0  0  0  0  0  0  0  0  0  0
  131.1570  134.2601  156.5367 H   0  0  0  0  0  0  0  0  0  0  0  0
  128.3323  135.1593  160.2663 C   0  0  0  0  0  0  0  0  0  0  0  0
  127.5197  135.9882  159.5681 C   0  0  0  0  0  0  0  0  0  0  0  0
  126.2210  135.4960  159.8323 C   0  0  0  0  0  0  0  0  0  0  0  0
  126.3693  134.4768  160.6286 N   0  0  0  0  0  0  0  0  0  0  0  0
  127.5344  134.2746  160.8807 O   0  0  0  0  0  0  0  0  0  0  0  0
  131.9226  139.5199  160.1117 H   0  0  0  0  0  0  0  0  0  0  0  0
  132.8693  138.8407  158.7660 H   0  0  0  0  0  0  0  0  0  0  0  0
  131.1802  138.3350  159.0101 H   0  0  0  0  0  0  0  0  0  0  0  0
  134.7628  135.7396  161.9336 H   0  0  0  0  0  0  0  0  0  0  0  0
  132.2366  134.9702  162.3089 H   0  0  0  0  0  0  0  0  0  0  0  0
  129.8947  137.3757  160.2823 H   0  0  0  0  0  0  0  0  0  0  0  0
  129.5558  138.8607  162.1757 H   0  0  0  0  0  0  0  0  0  0  0  0
  128.6000  139.1165  164.4306 H   0  0  0  0  0  0  0  0  0  0  0  0
  128.2020  137.1311  165.8317 H   0  0  0  0  0  0  0  0  0  0  0  0
  128.7511  134.8890  164.9743 H   0  0  0  0  0  0  0  0  0  0  0  0
  129.6982  134.6325  162.7158 H   0  0  0  0  0  0  0  0  0  0  0  0
  130.9480  135.7751  158.6201 H   0  0  0  0  0  0  0  0  0  0  0  0
  128.8964  130.9800  157.6771 H   0  0  0  0  0  0  0  0  0  0  0  0
  129.5413  133.3524  154.2022 H   0  0  0  0  0  0  0  0  0  0  0  0
  130.0279  132.2663  152.0504 H   0  0  0  0  0  0  0  0  0  0  0  0
  131.7039  129.0908  151.7020 H   0  0  0  0  0  0  0  0  0  0  0  0
  130.9802  130.3737  150.8938 H   0  0  0  0  0  0  0  0  0  0  0  0
  131.8693  128.9994  154.1084 H   0  0  0  0  0  0  0  0  0  0  0  0
  131.3960  130.0851  156.2632 H   0  0  0  0  0  0  0  0  0  0  0  0
  127.7994  136.8294  158.9512 H   0  0  0  0  0  0  0  0  0  0  0  0
  125.2901  135.8895  159.4516 H   0  0  0  0  0  0  0  0  0  0  0  0
  1  2  1  0
  1 36  1  0
  1 37  1  0
  1 38  1  0
  2  6  1  0
  2  3  1  0
  3  4  2  0
  4  5  1  0
  4 39  1  0
  5  6  2  0
  5 40  1  0
  6  7  1  0
  7  8  1  0
  7 14  1  0
  7 41  1  6
  8 13  1  0
  8  9  2  0
  9 10  1  0
  9 42  1  0
 10 11  2  0
 10 43  1  0
 11 12  1  0
 11 44  1  0
 12 13  2  0
 12 45  1  0
 13 46  1  0
 14 15  1  1
 14 16  1  0
 14 31  1  0
 16 47  1  0
 17 16  1  0
 17 29  2  0
 17 18  1  0
 18 19  1  0
 18 20  1  0
 20 21  2  0
 20 48  1  0
 21 22  1  0
 21 29  1  0
 22 28  1  0
 22 23  2  0
 23 24  1  0
 23 49  1  0
 24 25  2  0
 24 50  1  0
 25 26  1  0
 25 27  1  0
 26 51  1  0
 26 52  1  0
 27 28  2  0
 27 53  1  0
 28 54  1  0
 29 30  1  0
 31 35  1  0
 31 32  2  0
 32 33  1  0
 32 55  1  0
 33 34  2  0
 33 56  1  0
 34 35  1  0
M  CHG  1  29   1
M  END
>  <DOCK_score>  (1) 
-61.788914

>  <SMILES>  (1) 
Cn1nccc1C(c1ccccc1)[C@H](Nc1[nH]cc(-c2ccc(N)cc2)[nH+]1)c1ccno1

$$$$
