O=C1CC[C@H]([NH+]=C(NCc2ncccc2NC=CCl)NC2CC=CC2)CN1
     RDKit          3D

 53 55  0  0  1  0  0  0  0  0999 V2000
  123.8669  133.7953  161.9251 O   0  0  0  0  0  0  0  0  0  0  0  0
  125.0461  133.9158  161.6689 C   0  0  0  0  0  0  0  0  0  0  0  0
  125.9705  132.7880  162.0283 C   0  0  0  0  0  0  0  0  0  0  0  0
  127.4183  133.2844  162.0387 C   0  0  0  0  0  0  0  0  0  0  0  0
  127.6746  134.0585  160.7400 C   0  0  2  0  0  0  0  0  0  0  0  0
  127.3841  133.4466  159.8861 H   0  0  0  0  0  0  0  0  0  0  0  0
  129.0968  134.3964  160.6417 N   0  0  0  0  0  0  0  0  0  0  0  0
  129.6180  134.5396  161.4471 H   0  0  0  0  0  0  0  0  0  0  0  0
  129.6616  134.5042  159.4720 C   0  0  0  0  0  0  0  0  0  0  0  0
  128.9227  134.3010  158.3304 N   0  0  0  0  0  0  0  0  0  0  0  0
  129.5673  133.7747  157.1248 C   0  0  0  0  0  0  0  0  0  0  0  0
  130.1587  132.4207  157.4216 C   0  0  0  0  0  0  0  0  0  0  0  0
  130.0350  131.9050  158.6282 N   0  0  0  0  0  0  0  0  0  0  0  0
  130.5407  130.7265  158.9355 C   0  0  0  0  0  0  0  0  0  0  0  0
  131.2220  129.9778  157.9933 C   0  0  0  0  0  0  0  0  0  0  0  0
  131.3713  130.4782  156.7107 C   0  0  0  0  0  0  0  0  0  0  0  0
  130.8244  131.7263  156.4193 C   0  0  0  0  0  0  0  0  0  0  0  0
  130.9486  132.2736  155.1399 N   0  0  0  0  0  0  0  0  0  0  0  0
  130.4171  131.6037  154.0417 C   0  0  0  0  0  0  0  0  0  0  0  0
  130.5345  132.1210  152.8324 C   0  0  0  0  0  0  0  0  0  0  0  0
  129.8716  131.2854  151.4626 Cl  0  0  0  0  0  0  0  0  0  0  0  0
  130.9962  134.8213  159.3796 N   0  0  0  0  0  0  0  0  0  0  0  0
  131.7835  135.0378  160.5960 C   0  0  0  0  0  0  0  0  0  0  0  0
  131.3313  136.3223  161.3286 C   0  0  0  0  0  0  0  0  0  0  0  0
  132.6081  136.9264  161.8668 C   0  0  0  0  0  0  0  0  0  0  0  0
  133.6551  136.4127  161.2806 C   0  0  0  0  0  0  0  0  0  0  0  0
  133.2517  135.3809  160.2530 C   0  0  0  0  0  0  0  0  0  0  0  0
  126.8429  135.3416  160.7626 C   0  0  0  0  0  0  0  0  0  0  0  0
  125.4529  135.0428  161.0836 N   0  0  0  0  0  0  0  0  0  0  0  0
  125.8672  131.9877  161.2953 H   0  0  0  0  0  0  0  0  0  0  0  0
  125.7109  132.4080  163.0164 H   0  0  0  0  0  0  0  0  0  0  0  0
  128.0975  132.4338  162.0989 H   0  0  0  0  0  0  0  0  0  0  0  0
  127.5750  133.9411  162.8944 H   0  0  0  0  0  0  0  0  0  0  0  0
  127.9747  134.5061  158.3234 H   0  0  0  0  0  0  0  0  0  0  0  0
  130.3579  134.4552  156.8089 H   0  0  0  0  0  0  0  0  0  0  0  0
  128.8284  133.6818  156.3288 H   0  0  0  0  0  0  0  0  0  0  0  0
  130.4214  130.3408  159.9372 H   0  0  0  0  0  0  0  0  0  0  0  0
  131.6332  129.0140  158.2549 H   0  0  0  0  0  0  0  0  0  0  0  0
  131.8990  129.9152  155.9550 H   0  0  0  0  0  0  0  0  0  0  0  0
  131.4053  133.1205  155.0170 H   0  0  0  0  0  0  0  0  0  0  0  0
  129.9088  130.6607  154.1787 H   0  0  0  0  0  0  0  0  0  0  0  0
  131.0390  133.0661  152.6960 H   0  0  0  0  0  0  0  0  0  0  0  0
  131.4166  134.9015  158.5091 H   0  0  0  0  0  0  0  0  0  0  0  0
  131.7278  134.1713  161.2549 H   0  0  0  0  0  0  0  0  0  0  0  0
  130.8514  137.0084  160.6309 H   0  0  0  0  0  0  0  0  0  0  0  0
  130.6537  136.0747  162.1457 H   0  0  0  0  0  0  0  0  0  0  0  0
  132.6487  137.6836  162.6360 H   0  0  0  0  0  0  0  0  0  0  0  0
  134.6758  136.6891  161.5008 H   0  0  0  0  0  0  0  0  0  0  0  0
  133.8791  134.4938  160.3393 H   0  0  0  0  0  0  0  0  0  0  0  0
  133.3197  135.7968  159.2478 H   0  0  0  0  0  0  0  0  0  0  0  0
  127.2480  136.0204  161.5130 H   0  0  0  0  0  0  0  0  0  0  0  0
  126.8919  135.8200  159.7845 H   0  0  0  0  0  0  0  0  0  0  0  0
  124.7816  135.7055  160.8574 H   0  0  0  0  0  0  0  0  0  0  0  0
  1  2  2  0
  2 29  1  0
  2  3  1  0
  3  4  1  0
  3 30  1  0
  3 31  1  0
  4  5  1  0
  4 32  1  0
  4 33  1  0
  5  6  1  6
  5  7  1  0
  5 28  1  0
  7  8  1  0
  9  7  2  0
  9 10  1  0
  9 22  1  0
 10 11  1  0
 10 34  1  0
 11 12  1  0
 11 35  1  0
 11 36  1  0
 12 17  1  0
 12 13  2  0
 13 14  1  0
 14 15  2  0
 14 37  1  0
 15 16  1  0
 15 38  1  0
 16 17  2  0
 16 39  1  0
 17 18  1  0
 18 19  1  0
 18 40  1  0
 19 20  2  0
 19 41  1  0
 20 21  1  0
 20 42  1  0
 22 23  1  0
 22 43  1  0
 23 27  1  0
 23 24  1  0
 23 44  1  0
 24 25  1  0
 24 45  1  0
 24 46  1  0
 25 26  2  0
 25 47  1  0
 26 27  1  0
 26 48  1  0
 27 49  1  0
 27 50  1  0
 28 29  1  0
 28 51  1  0
 28 52  1  0
 29 53  1  0
M  CHG  1   7   1
M  END
>  <DOCK_score>  (1) 
-56.804054

>  <SMILES>  (1) 
O=C1CC[C@H]([NH+]=C(NCc2ncccc2NC=CCl)NC2CC=CC2)CN1

$$$$
