NNc1ccc([C@H](Nc2[nH]cc(-c3ccc(C4=CCC=CC4)cc3)[nH+]2)c2ccccc2)cn1
     RDKit          3D

 60 64  0  0  1  0  0  0  0  0999 V2000
  136.1257  140.6099  162.6424 N   0  0  0  0  0  0  0  0  0  0  0  0
  134.8198  140.7183  162.2564 N   0  0  0  0  0  0  0  0  0  0  0  0
  134.0325  139.5786  162.1402 C   0  0  0  0  0  0  0  0  0  0  0  0
  134.5825  138.3300  162.4134 C   0  0  0  0  0  0  0  0  0  0  0  0
  133.7861  137.2050  162.2996 C   0  0  0  0  0  0  0  0  0  0  0  0
  132.4646  137.3656  161.9039 C   0  0  0  0  0  0  0  0  0  0  0  0
  131.5621  136.1673  161.7602 C   0  0  2  0  0  0  0  0  0  0  0  0
  132.1175  135.2625  162.0075 H   0  0  0  0  0  0  0  0  0  0  0  0
  131.0795  136.0821  160.3797 N   0  0  0  0  0  0  0  0  0  0  0  0
  130.7859  134.8487  159.8239 C   0  0  0  0  0  0  0  0  0  0  0  0
  130.3377  133.7588  160.5051 N   0  0  0  0  0  0  0  0  0  0  0  0
  130.1691  133.7069  161.4590 H   0  0  0  0  0  0  0  0  0  0  0  0
  130.1689  132.7460  159.5931 C   0  0  0  0  0  0  0  0  0  0  0  0
  130.5186  133.2455  158.3809 C   0  0  0  0  0  0  0  0  0  0  0  0
  130.4963  132.5095  157.0946 C   0  0  0  0  0  0  0  0  0  0  0  0
  130.2552  133.1947  155.9033 C   0  0  0  0  0  0  0  0  0  0  0  0
  130.2390  132.5125  154.7076 C   0  0  0  0  0  0  0  0  0  0  0  0
  130.4540  131.1331  154.6880 C   0  0  0  0  0  0  0  0  0  0  0  0
  130.4319  130.3996  153.4062 C   0  0  0  0  0  0  0  0  0  0  0  0
  129.6655  130.8476  152.4353 C   0  0  0  0  0  0  0  0  0  0  0  0
  129.5789  130.1752  151.0982 C   0  0  0  0  0  0  0  0  0  0  0  0
  130.0503  128.7546  151.1757 C   0  0  0  0  0  0  0  0  0  0  0  0
  130.8027  128.3101  152.1348 C   0  0  0  0  0  0  0  0  0  0  0  0
  131.2797  129.1709  153.2652 C   0  0  0  0  0  0  0  0  0  0  0  0
  130.6903  130.4466  155.8818 C   0  0  0  0  0  0  0  0  0  0  0  0
  130.7112  131.1310  157.0762 C   0  0  0  0  0  0  0  0  0  0  0  0
  130.8881  134.5397  158.5545 N   0  0  0  0  0  0  0  0  0  0  0  0
  131.1828  135.1396  157.8515 H   0  0  0  0  0  0  0  0  0  0  0  0
  130.3883  136.3075  162.6949 C   0  0  0  0  0  0  0  0  0  0  0  0
  130.4629  135.8008  163.9789 C   0  0  0  0  0  0  0  0  0  0  0  0
  129.3877  135.9332  164.8376 C   0  0  0  0  0  0  0  0  0  0  0  0
  128.2346  136.5637  164.4093 C   0  0  0  0  0  0  0  0  0  0  0  0
  128.1583  137.0662  163.1237 C   0  0  0  0  0  0  0  0  0  0  0  0
  129.2350  136.9376  162.2663 C   0  0  0  0  0  0  0  0  0  0  0  0
  131.9864  138.6337  161.6430 C   0  0  0  0  0  0  0  0  0  0  0  0
  132.7677  139.6902  161.7655 N   0  0  0  0  0  0  0  0  0  0  0  0
  136.5675  141.5163  162.6818 H   0  0  0  0  0  0  0  0  0  0  0  0
  136.2025  140.1315  163.5273 H   0  0  0  0  0  0  0  0  0  0  0  0
  134.4419  141.5906  162.0632 H   0  0  0  0  0  0  0  0  0  0  0  0
  135.6159  138.2410  162.7142 H   0  0  0  0  0  0  0  0  0  0  0  0
  134.1843  136.2232  162.5093 H   0  0  0  0  0  0  0  0  0  0  0  0
  130.9659  136.8899  159.8549 H   0  0  0  0  0  0  0  0  0  0  0  0
  129.8240  131.7439  159.8009 H   0  0  0  0  0  0  0  0  0  0  0  0
  130.0846  134.2610  155.9188 H   0  0  0  0  0  0  0  0  0  0  0  0
  130.0566  133.0436  153.7851 H   0  0  0  0  0  0  0  0  0  0  0  0
  129.0778  131.7373  152.6073 H   0  0  0  0  0  0  0  0  0  0  0  0
  130.1957  130.7176  150.3815 H   0  0  0  0  0  0  0  0  0  0  0  0
  128.5427  130.1900  150.7605 H   0  0  0  0  0  0  0  0  0  0  0  0
  129.7494  128.0690  150.3974 H   0  0  0  0  0  0  0  0  0  0  0  0
  131.0993  127.2718  152.1176 H   0  0  0  0  0  0  0  0  0  0  0  0
  132.3114  129.4681  153.0772 H   0  0  0  0  0  0  0  0  0  0  0  0
  131.2361  128.5987  154.1919 H   0  0  0  0  0  0  0  0  0  0  0  0
  130.8560  129.3795  155.8678 H   0  0  0  0  0  0  0  0  0  0  0  0
  130.8941  130.6008  157.9991 H   0  0  0  0  0  0  0  0  0  0  0  0
  131.3624  135.3046  164.3122 H   0  0  0  0  0  0  0  0  0  0  0  0
  129.4476  135.5410  165.8421 H   0  0  0  0  0  0  0  0  0  0  0  0
  127.3934  136.6643  165.0792 H   0  0  0  0  0  0  0  0  0  0  0  0
  127.2574  137.5589  162.7892 H   0  0  0  0  0  0  0  0  0  0  0  0
  129.1753  137.3299  161.2620 H   0  0  0  0  0  0  0  0  0  0  0  0
  130.9593  138.7631  161.3350 H   0  0  0  0  0  0  0  0  0  0  0  0
  1  2  1  0
  1 37  1  0
  1 38  1  0
  2  3  1  0
  2 39  1  0
  3 36  2  0
  3  4  1  0
  4  5  2  0
  4 40  1  0
  5  6  1  0
  5 41  1  0
  6  7  1  0
  6 35  2  0
  7  8  1  1
  7  9  1  0
  7 29  1  0
  9 42  1  0
 10  9  1  0
 10 27  2  0
 10 11  1  0
 11 12  1  0
 11 13  1  0
 13 14  2  0
 13 43  1  0
 14 15  1  0
 14 27  1  0
 15 26  1  0
 15 16  2  0
 16 17  1  0
 16 44  1  0
 17 18  2  0
 17 45  1  0
 18 19  1  0
 18 25  1  0
 19 24  1  0
 19 20  2  0
 20 21  1  0
 20 46  1  0
 21 22  1  0
 21 47  1  0
 21 48  1  0
 22 23  2  0
 22 49  1  0
 23 24  1  0
 23 50  1  0
 24 51  1  0
 24 52  1  0
 25 26  2  0
 25 53  1  0
 26 54  1  0
 27 28  1  0
 29 34  1  0
 29 30  2  0
 30 31  1  0
 30 55  1  0
 31 32  2  0
 31 56  1  0
 32 33  1  0
 32 57  1  0
 33 34  2  0
 33 58  1  0
 34 59  1  0
 35 36  1  0
 35 60  1  0
M  CHG  1  27   1
M  END
>  <DOCK_score>  (1) 
-56.419342

>  <SMILES>  (1) 
NNc1ccc([C@H](Nc2[nH]cc(-c3ccc(C4=CCC=CC4)cc3)[nH+]2)c2ccccc2)cn1

$$$$
