Cc1nccnc1Oc1ccc(C[C@@H]([NH3+])C(=O)Nc2cccc(O)c2)cc1
     RDKit          3D

 48 50  0  0  1  0  0  0  0  0999 V2000
  129.3702  135.4763  165.0719 C   0  0  0  0  0  0  0  0  0  0  0  0
  130.7206  136.1354  165.1861 C   0  0  0  0  0  0  0  0  0  0  0  0
  130.8082  137.4073  165.5283 N   0  0  0  0  0  0  0  0  0  0  0  0
  131.9926  137.9861  165.6286 C   0  0  0  0  0  0  0  0  0  0  0  0
  133.1428  137.2621  165.3757 C   0  0  0  0  0  0  0  0  0  0  0  0
  133.0618  135.9879  165.0330 N   0  0  0  0  0  0  0  0  0  0  0  0
  131.8762  135.4030  164.9366 C   0  0  0  0  0  0  0  0  0  0  0  0
  131.7900  134.0940  164.5902 O   0  0  0  0  0  0  0  0  0  0  0  0
  131.6905  133.7888  163.2697 C   0  0  0  0  0  0  0  0  0  0  0  0
  130.7692  132.8435  162.8424 C   0  0  0  0  0  0  0  0  0  0  0  0
  130.6665  132.5387  161.4990 C   0  0  0  0  0  0  0  0  0  0  0  0
  131.4887  133.1667  160.5817 C   0  0  0  0  0  0  0  0  0  0  0  0
  131.3788  132.8278  159.1174 C   0  0  0  0  0  0  0  0  0  0  0  0
  130.3582  133.7551  158.4546 C   0  0  1  0  0  0  0  0  0  0  0  0
  130.4720  134.7638  158.8518 H   0  0  0  0  0  0  0  0  0  0  0  0
  130.5826  133.7724  157.0029 N   0  0  0  0  0  0  0  0  0  0  0  0
  130.4771  132.8387  156.6352 H   0  0  0  0  0  0  0  0  0  0  0  0
  129.9096  134.3840  156.5658 H   0  0  0  0  0  0  0  0  0  0  0  0
  131.5150  134.1063  156.8107 H   0  0  0  0  0  0  0  0  0  0  0  0
  128.9654  133.2563  158.7417 C   0  0  0  0  0  0  0  0  0  0  0  0
  128.4361  132.4680  157.9871 O   0  0  0  0  0  0  0  0  0  0  0  0
  128.3080  133.6863  159.8368 N   0  0  0  0  0  0  0  0  0  0  0  0
  127.0149  133.2232  160.1035 C   0  0  0  0  0  0  0  0  0  0  0  0
  126.6302  131.9554  159.6853 C   0  0  0  0  0  0  0  0  0  0  0  0
  125.3554  131.4960  159.9537 C   0  0  0  0  0  0  0  0  0  0  0  0
  124.4562  132.3000  160.6284 C   0  0  0  0  0  0  0  0  0  0  0  0
  124.8332  133.5693  161.0434 C   0  0  0  0  0  0  0  0  0  0  0  0
  123.9477  134.3589  161.7063 O   0  0  0  0  0  0  0  0  0  0  0  0
  126.1134  134.0317  160.7810 C   0  0  0  0  0  0  0  0  0  0  0  0
  132.4113  134.1052  161.0054 C   0  0  0  0  0  0  0  0  0  0  0  0
  132.5141  134.4177  162.3471 C   0  0  0  0  0  0  0  0  0  0  0  0
  128.9967  135.5871  164.0539 H   0  0  0  0  0  0  0  0  0  0  0  0
  129.4615  134.4169  165.3121 H   0  0  0  0  0  0  0  0  0  0  0  0
  128.6757  135.9479  165.7671 H   0  0  0  0  0  0  0  0  0  0  0  0
  132.0617  139.0269  165.9084 H   0  0  0  0  0  0  0  0  0  0  0  0
  134.1089  137.7381  165.4585 H   0  0  0  0  0  0  0  0  0  0  0  0
  130.1299  132.3494  163.5591 H   0  0  0  0  0  0  0  0  0  0  0  0
  129.9467  131.8059  161.1655 H   0  0  0  0  0  0  0  0  0  0  0  0
  132.3504  132.9568  158.6406 H   0  0  0  0  0  0  0  0  0  0  0  0
  131.0545  131.7930  159.0074 H   0  0  0  0  0  0  0  0  0  0  0  0
  128.7314  134.3168  160.4403 H   0  0  0  0  0  0  0  0  0  0  0  0
  127.3296  131.3270  159.1539 H   0  0  0  0  0  0  0  0  0  0  0  0
  125.0595  130.5087  159.6315 H   0  0  0  0  0  0  0  0  0  0  0  0
  123.4588  131.9396  160.8332 H   0  0  0  0  0  0  0  0  0  0  0  0
  124.3012  135.2242  161.9543 H   0  0  0  0  0  0  0  0  0  0  0  0
  126.4087  135.0192  161.1035 H   0  0  0  0  0  0  0  0  0  0  0  0
  133.0525  134.5943  160.2869 H   0  0  0  0  0  0  0  0  0  0  0  0
  133.2352  135.1508  162.6777 H   0  0  0  0  0  0  0  0  0  0  0  0
  1  2  1  0
  1 32  1  0
  1 33  1  0
  1 34  1  0
  2  7  2  0
  2  3  1  0
  3  4  2  0
  4  5  1  0
  4 35  1  0
  5  6  2  0
  5 36  1  0
  6  7  1  0
  7  8  1  0
  8  9  1  0
  9 31  1  0
  9 10  2  0
 10 11  1  0
 10 37  1  0
 11 12  2  0
 11 38  1  0
 12 13  1  0
 12 30  1  0
 13 14  1  0
 13 39  1  0
 13 40  1  0
 14 15  1  1
 14 16  1  0
 14 20  1  0
 16 17  1  0
 16 18  1  0
 16 19  1  0
 20 21  2  0
 20 22  1  0
 22 23  1  0
 22 41  1  0
 23 29  1  0
 23 24  2  0
 24 25  1  0
 24 42  1  0
 25 26  2  0
 25 43  1  0
 26 27  1  0
 26 44  1  0
 27 28  1  0
 27 29  2  0
 28 45  1  0
 29 46  1  0
 30 31  2  0
 30 47  1  0
 31 48  1  0
M  CHG  1  16   1
M  END
>  <DOCK_score>  (1) 
-43.795837

>  <SMILES>  (1) 
Cc1nccnc1Oc1ccc(C[C@@H]([NH3+])C(=O)Nc2cccc(O)c2)cc1

$$$$
