Nc1ccc(-c2c[nH]c(NC3CCCC[C@]3(O)C3=CCCC3)[nH+]2)cc1
     RDKit          3D

 52 55  0  0  1  0  0  0  0  0999 V2000
  130.8914  129.2319  150.9678 N   0  0  0  0  0  0  0  0  0  0  0  0
  130.8339  129.8634  152.2127 C   0  0  0  0  0  0  0  0  0  0  0  0
  130.2870  131.1365  152.3205 C   0  0  0  0  0  0  0  0  0  0  0  0
  130.2293  131.7617  153.5481 C   0  0  0  0  0  0  0  0  0  0  0  0
  130.7202  131.1158  154.6817 C   0  0  0  0  0  0  0  0  0  0  0  0
  130.6592  131.7863  156.0036 C   0  0  0  0  0  0  0  0  0  0  0  0
  130.0058  131.3298  157.1005 C   0  0  0  0  0  0  0  0  0  0  0  0
  130.2077  132.2539  158.0982 N   0  0  0  0  0  0  0  0  0  0  0  0
  129.8636  132.2062  159.0038 H   0  0  0  0  0  0  0  0  0  0  0  0
  130.9790  133.2480  157.5803 C   0  0  0  0  0  0  0  0  0  0  0  0
  131.4104  134.3727  158.2628 N   0  0  0  0  0  0  0  0  0  0  0  0
  131.6402  134.3090  159.7082 C   0  0  1  0  0  0  0  0  0  0  0  0
  133.1014  134.6496  160.0079 C   0  0  0  0  0  0  0  0  0  0  0  0
  133.3413  134.5832  161.5175 C   0  0  0  0  0  0  0  0  0  0  0  0
  132.4285  135.5875  162.2237 C   0  0  0  0  0  0  0  0  0  0  0  0
  130.9673  135.2469  161.9241 C   0  0  0  0  0  0  0  0  0  0  0  0
  130.7272  135.3134  160.4144 C   0  0  1  0  0  0  0  0  0  0  0  0
  131.0152  136.6316  159.9440 O   0  0  0  0  0  0  0  0  0  0  0  0
  129.2881  134.9780  160.1193 C   0  0  0  0  0  0  0  0  0  0  0  0
  128.6123  135.4503  159.1073 C   0  0  0  0  0  0  0  0  0  0  0  0
  127.1996  134.9146  159.0987 C   0  0  0  0  0  0  0  0  0  0  0  0
  127.2323  133.7005  160.0560 C   0  0  0  0  0  0  0  0  0  0  0  0
  128.4356  134.0559  160.9598 C   0  0  0  0  0  0  0  0  0  0  0  0
  131.2468  132.9651  156.3286 N   0  0  0  0  0  0  0  0  0  0  0  0
  131.7769  133.5132  155.7292 H   0  0  0  0  0  0  0  0  0  0  0  0
  131.2735  129.8412  154.5703 C   0  0  0  0  0  0  0  0  0  0  0  0
  131.3236  129.2173  153.3417 C   0  0  0  0  0  0  0  0  0  0  0  0
  130.5496  129.6820  150.1795 H   0  0  0  0  0  0  0  0  0  0  0  0
  131.2728  128.3434  150.8919 H   0  0  0  0  0  0  0  0  0  0  0  0
  129.9066  131.6364  151.4418 H   0  0  0  0  0  0  0  0  0  0  0  0
  129.8046  132.7511  153.6312 H   0  0  0  0  0  0  0  0  0  0  0  0
  129.4357  130.4156  157.1758 H   0  0  0  0  0  0  0  0  0  0  0  0
  131.5606  135.2028  157.7839 H   0  0  0  0  0  0  0  0  0  0  0  0
  131.4205  133.3035  160.0672 H   0  0  0  0  0  0  0  0  0  0  0  0
  133.7517  133.9340  159.5047 H   0  0  0  0  0  0  0  0  0  0  0  0
  133.3210  135.6550  159.6490 H   0  0  0  0  0  0  0  0  0  0  0  0
  133.1216  133.5776  161.8764 H   0  0  0  0  0  0  0  0  0  0  0  0
  134.3824  134.8258  161.7309 H   0  0  0  0  0  0  0  0  0  0  0  0
  132.5994  135.5402  163.2990 H   0  0  0  0  0  0  0  0  0  0  0  0
  132.6481  136.5931  161.8648 H   0  0  0  0  0  0  0  0  0  0  0  0
  130.7476  134.2415  162.2829 H   0  0  0  0  0  0  0  0  0  0  0  0
  130.3168  135.9624  162.4271 H   0  0  0  0  0  0  0  0  0  0  0  0
  130.8847  136.7471  158.9929 H   0  0  0  0  0  0  0  0  0  0  0  0
  129.0114  136.1327  158.3714 H   0  0  0  0  0  0  0  0  0  0  0  0
  126.9166  134.5988  158.0946 H   0  0  0  0  0  0  0  0  0  0  0  0
  126.5064  135.6704  159.4678 H   0  0  0  0  0  0  0  0  0  0  0  0
  127.4137  132.7754  159.5088 H   0  0  0  0  0  0  0  0  0  0  0  0
  126.3123  133.6355  160.6371 H   0  0  0  0  0  0  0  0  0  0  0  0
  128.9931  133.1564  161.2209 H   0  0  0  0  0  0  0  0  0  0  0  0
  128.0961  134.5681  161.8600 H   0  0  0  0  0  0  0  0  0  0  0  0
  131.6588  129.3408  155.4466 H   0  0  0  0  0  0  0  0  0  0  0  0
  131.7478  128.2278  153.2558 H   0  0  0  0  0  0  0  0  0  0  0  0
  1  2  1  0
  1 28  1  0
  1 29  1  0
  2 27  2  0
  2  3  1  0
  3  4  2  0
  3 30  1  0
  4  5  1  0
  4 31  1  0
  5  6  1  0
  5 26  2  0
  6 24  1  0
  6  7  2  0
  7  8  1  0
  7 32  1  0
  8  9  1  0
  8 10  1  0
 10 11  1  0
 10 24  2  0
 11 12  1  0
 11 33  1  0
 12 17  1  0
 12 13  1  0
 12 34  1  1
 13 14  1  0
 13 35  1  0
 13 36  1  0
 14 15  1  0
 14 37  1  0
 14 38  1  0
 15 16  1  0
 15 39  1  0
 15 40  1  0
 16 17  1  0
 16 41  1  0
 16 42  1  0
 17 18  1  6
 17 19  1  0
 18 43  1  0
 19 23  1  0
 19 20  2  0
 20 21  1  0
 20 44  1  0
 21 22  1  0
 21 45  1  0
 21 46  1  0
 22 23  1  0
 22 47  1  0
 22 48  1  0
 23 49  1  0
 23 50  1  0
 24 25  1  0
 26 27  1  0
 26 51  1  0
 27 52  1  0
M  CHG  1  24   1
M  END
>  <DOCK_score>  (1) 
-60.541645

>  <SMILES>  (1) 
Nc1ccc(-c2c[nH]c(NC3CCCC[C@]3(O)C3=CCCC3)[nH+]2)cc1

$$$$
