C[C@](CNc1ccc(OC2CCCCC2)cc1)([NH2+]Cc1cccc2c1NC(=O)CO2)c1ccccc1
     RDKit          3D

 72 76  0  0  1  0  0  0  0  0999 V2000
  128.7424  136.8788  159.3192 C   0  0  0  0  0  0  0  0  0  0  0  0
  129.3641  135.6571  159.9988 C   0  0  2  0  0  0  0  0  0  0  0  0
  130.3872  136.1176  161.0391 C   0  0  0  0  0  0  0  0  0  0  0  0
  131.6431  136.4633  160.3691 N   0  0  0  0  0  0  0  0  0  0  0  0
  132.7352  136.9142  161.1189 C   0  0  0  0  0  0  0  0  0  0  0  0
  133.9277  137.2365  160.4847 C   0  0  0  0  0  0  0  0  0  0  0  0
  135.0033  137.6869  161.2251 C   0  0  0  0  0  0  0  0  0  0  0  0
  134.8963  137.8058  162.6027 C   0  0  0  0  0  0  0  0  0  0  0  0
  135.9579  138.2436  163.3316 O   0  0  0  0  0  0  0  0  0  0  0  0
  136.4694  137.3576  164.3293 C   0  0  0  0  0  0  0  0  0  0  0  0
  136.3712  138.0249  165.7026 C   0  0  0  0  0  0  0  0  0  0  0  0
  136.9190  137.0764  166.7708 C   0  0  0  0  0  0  0  0  0  0  0  0
  138.3828  136.7537  166.4640 C   0  0  0  0  0  0  0  0  0  0  0  0
  138.4809  136.0863  165.0908 C   0  0  0  0  0  0  0  0  0  0  0  0
  137.9332  137.0349  164.0226 C   0  0  0  0  0  0  0  0  0  0  0  0
  133.7072  137.4790  163.2376 C   0  0  0  0  0  0  0  0  0  0  0  0
  132.6289  137.0340  162.4983 C   0  0  0  0  0  0  0  0  0  0  0  0
  130.0322  134.8232  158.9907 N   0  0  0  0  0  0  0  0  0  0  0  0
  130.5071  135.4150  158.3257 H   0  0  0  0  0  0  0  0  0  0  0  0
  130.7028  134.2204  159.4436 H   0  0  0  0  0  0  0  0  0  0  0  0
  129.0324  134.0049  158.2915 C   0  0  0  0  0  0  0  0  0  0  0  0
  129.7177  133.1495  157.2573 C   0  0  0  0  0  0  0  0  0  0  0  0
  129.8858  133.6212  155.9678 C   0  0  0  0  0  0  0  0  0  0  0  0
  130.5178  132.8399  155.0184 C   0  0  0  0  0  0  0  0  0  0  0  0
  130.9779  131.5775  155.3485 C   0  0  0  0  0  0  0  0  0  0  0  0
  130.8091  131.0970  156.6348 C   0  0  0  0  0  0  0  0  0  0  0  0
  130.1757  131.8868  157.5937 C   0  0  0  0  0  0  0  0  0  0  0  0
  130.0106  131.3870  158.8932 N   0  0  0  0  0  0  0  0  0  0  0  0
  130.7287  130.3089  159.2761 C   0  0  0  0  0  0  0  0  0  0  0  0
  130.5793  129.8404  160.3849 O   0  0  0  0  0  0  0  0  0  0  0  0
  131.7163  129.6900  158.3199 C   0  0  0  0  0  0  0  0  0  0  0  0
  131.2555  129.8589  156.9768 O   0  0  0  0  0  0  0  0  0  0  0  0
  128.2833  134.8556  160.6775 C   0  0  0  0  0  0  0  0  0  0  0  0
  126.9682  135.2768  160.6155 C   0  0  0  0  0  0  0  0  0  0  0  0
  125.9762  134.5390  161.2339 C   0  0  0  0  0  0  0  0  0  0  0  0
  126.3008  133.3856  161.9233 C   0  0  0  0  0  0  0  0  0  0  0  0
  127.6166  132.9671  161.9898 C   0  0  0  0  0  0  0  0  0  0  0  0
  128.6079  133.7023  161.3669 C   0  0  0  0  0  0  0  0  0  0  0  0
  129.5241  137.4586  158.8283 H   0  0  0  0  0  0  0  0  0  0  0  0
  128.0136  136.5507  158.5782 H   0  0  0  0  0  0  0  0  0  0  0  0
  128.2467  137.4976  160.0672 H   0  0  0  0  0  0  0  0  0  0  0  0
  130.5656  135.3140  161.7536 H   0  0  0  0  0  0  0  0  0  0  0  0
  130.0029  136.9919  161.5643 H   0  0  0  0  0  0  0  0  0  0  0  0
  131.7180  136.3796  159.4056 H   0  0  0  0  0  0  0  0  0  0  0  0
  134.0128  137.1390  159.4126 H   0  0  0  0  0  0  0  0  0  0  0  0
  135.9295  137.9419  160.7315 H   0  0  0  0  0  0  0  0  0  0  0  0
  135.8868  136.4365  164.3305 H   0  0  0  0  0  0  0  0  0  0  0  0
  136.9540  138.9462  165.7014 H   0  0  0  0  0  0  0  0  0  0  0  0
  135.3284  138.2549  165.9210 H   0  0  0  0  0  0  0  0  0  0  0  0
  136.3363  136.1553  166.7720 H   0  0  0  0  0  0  0  0  0  0  0  0
  136.8491  137.5518  167.7492 H   0  0  0  0  0  0  0  0  0  0  0  0
  138.7730  136.0779  167.2251 H   0  0  0  0  0  0  0  0  0  0  0  0
  138.9654  137.6749  166.4629 H   0  0  0  0  0  0  0  0  0  0  0  0
  137.8983  135.1652  165.0920 H   0  0  0  0  0  0  0  0  0  0  0  0
  139.5238  135.8564  164.8723 H   0  0  0  0  0  0  0  0  0  0  0  0
  138.0032  136.5595  163.0442 H   0  0  0  0  0  0  0  0  0  0  0  0
  138.5159  137.9561  164.0214 H   0  0  0  0  0  0  0  0  0  0  0  0
  133.6246  137.5723  164.3104 H   0  0  0  0  0  0  0  0  0  0  0  0
  131.7032  136.7789  162.9928 H   0  0  0  0  0  0  0  0  0  0  0  0
  128.5193  133.3656  159.0098 H   0  0  0  0  0  0  0  0  0  0  0  0
  128.3078  134.6560  157.8022 H   0  0  0  0  0  0  0  0  0  0  0  0
  129.5255  134.6042  155.7029 H   0  0  0  0  0  0  0  0  0  0  0  0
  130.6492  133.2148  154.0142 H   0  0  0  0  0  0  0  0  0  0  0  0
  131.4682  130.9684  154.6034 H   0  0  0  0  0  0  0  0  0  0  0  0
  129.3904  131.8092  159.5080 H   0  0  0  0  0  0  0  0  0  0  0  0
  132.6855  130.1754  158.4346 H   0  0  0  0  0  0  0  0  0  0  0  0
  131.8155  128.6267  158.5384 H   0  0  0  0  0  0  0  0  0  0  0  0
  126.7152  136.1804  160.0806 H   0  0  0  0  0  0  0  0  0  0  0  0
  124.9482  134.8660  161.1822 H   0  0  0  0  0  0  0  0  0  0  0  0
  125.5264  132.8115  162.4101 H   0  0  0  0  0  0  0  0  0  0  0  0
  127.8703  132.0662  162.5287 H   0  0  0  0  0  0  0  0  0  0  0  0
  129.6359  133.3755  161.4191 H   0  0  0  0  0  0  0  0  0  0  0  0
  1 39  1  0
  1 40  1  0
  1 41  1  0
  2  1  1  6
  2  3  1  0
  2 18  1  0
  2 33  1  0
  3  4  1  0
  3 42  1  0
  3 43  1  0
  4  5  1  0
  4 44  1  0
  5 17  1  0
  5  6  2  0
  6  7  1  0
  6 45  1  0
  7  8  2  0
  7 46  1  0
  8  9  1  0
  8 16  1  0
  9 10  1  0
 10 15  1  0
 10 11  1  0
 10 47  1  0
 11 12  1  0
 11 48  1  0
 11 49  1  0
 12 13  1  0
 12 50  1  0
 12 51  1  0
 13 14  1  0
 13 52  1  0
 13 53  1  0
 14 15  1  0
 14 54  1  0
 14 55  1  0
 15 56  1  0
 15 57  1  0
 16 17  2  0
 16 58  1  0
 17 59  1  0
 18 19  1  0
 18 20  1  0
 18 21  1  0
 21 22  1  0
 21 60  1  0
 21 61  1  0
 22 27  1  0
 22 23  2  0
 23 24  1  0
 23 62  1  0
 24 25  2  0
 24 63  1  0
 25 26  1  0
 25 64  1  0
 26 32  1  0
 26 27  2  0
 27 28  1  0
 28 29  1  0
 28 65  1  0
 29 30  2  0
 29 31  1  0
 31 32  1  0
 31 66  1  0
 31 67  1  0
 33 38  1  0
 33 34  2  0
 34 35  1  0
 34 68  1  0
 35 36  2  0
 35 69  1  0
 36 37  1  0
 36 70  1  0
 37 38  2  0
 37 71  1  0
 38 72  1  0
M  CHG  1  18   1
M  END
>  <DOCK_score>  (1) 
-59.724739

>  <SMILES>  (1) 
C[C@](CNc1ccc(OC2CCCCC2)cc1)([NH2+]Cc1cccc2c1NC(=O)CO2)c1ccccc1

$$$$
