O=C1CC[C@H]([NH+]=C(NCC2=CCCC2)N[C@@H]2Cc3ccc(Cl)cc3C2)CN1
     RDKit          3D

 55 58  0  0  1  0  0  0  0  0999 V2000
  123.6677  133.6462  161.7210 O   0  0  0  0  0  0  0  0  0  0  0  0
  124.8203  133.9222  161.4636 C   0  0  0  0  0  0  0  0  0  0  0  0
  125.7300  132.8186  161.0054 C   0  0  0  0  0  0  0  0  0  0  0  0
  127.1904  133.2525  161.1532 C   0  0  0  0  0  0  0  0  0  0  0  0
  127.3489  134.6428  160.5261 C   0  0  2  0  0  0  0  0  0  0  0  0
  126.9497  134.6342  159.5117 H   0  0  0  0  0  0  0  0  0  0  0  0
  128.7668  135.0102  160.4966 N   0  0  0  0  0  0  0  0  0  0  0  0
  129.1609  135.4828  161.2463 H   0  0  0  0  0  0  0  0  0  0  0  0
  129.4986  134.7017  159.4631 C   0  0  0  0  0  0  0  0  0  0  0  0
  128.9400  134.0315  158.4005 N   0  0  0  0  0  0  0  0  0  0  0  0
  129.4632  134.2372  157.0478 C   0  0  0  0  0  0  0  0  0  0  0  0
  129.9565  132.9250  156.4950 C   0  0  0  0  0  0  0  0  0  0  0  0
  130.4414  131.9539  157.2201 C   0  0  0  0  0  0  0  0  0  0  0  0
  130.8435  130.7798  156.3581 C   0  0  0  0  0  0  0  0  0  0  0  0
  130.9127  131.3513  154.9229 C   0  0  0  0  0  0  0  0  0  0  0  0
  129.9491  132.5581  155.0293 C   0  0  0  0  0  0  0  0  0  0  0  0
  130.8292  135.0465  159.4355 N   0  0  0  0  0  0  0  0  0  0  0  0
  131.4245  135.7605  160.5676 C   0  0  2  0  0  0  0  0  0  0  0  0
  130.9237  136.7153  160.7280 H   0  0  0  0  0  0  0  0  0  0  0  0
  132.9392  135.9649  160.3522 C   0  0  0  0  0  0  0  0  0  0  0  0
  133.5536  135.8354  161.7330 C   0  0  0  0  0  0  0  0  0  0  0  0
  134.7977  136.2260  162.2000 C   0  0  0  0  0  0  0  0  0  0  0  0
  135.1458  136.0070  163.5180 C   0  0  0  0  0  0  0  0  0  0  0  0
  134.2491  135.3952  164.3762 C   0  0  0  0  0  0  0  0  0  0  0  0
  134.6835  135.1178  166.0340 Cl  0  0  0  0  0  0  0  0  0  0  0  0
  133.0072  135.0049  163.9115 C   0  0  0  0  0  0  0  0  0  0  0  0
  132.6575  135.2241  162.5896 C   0  0  0  0  0  0  0  0  0  0  0  0
  131.3807  134.8964  161.8457 C   0  0  0  0  0  0  0  0  0  0  0  0
  126.5746  135.6533  161.3735 C   0  0  0  0  0  0  0  0  0  0  0  0
  125.2120  135.1893  161.6023 N   0  0  0  0  0  0  0  0  0  0  0  0
  125.5241  132.5904  159.9597 H   0  0  0  0  0  0  0  0  0  0  0  0
  125.5536  131.9292  161.6104 H   0  0  0  0  0  0  0  0  0  0  0  0
  127.8381  132.5422  160.6392 H   0  0  0  0  0  0  0  0  0  0  0  0
  127.4565  133.2938  162.2094 H   0  0  0  0  0  0  0  0  0  0  0  0
  128.1992  133.4225  158.5466 H   0  0  0  0  0  0  0  0  0  0  0  0
  128.6718  134.6267  156.4075 H   0  0  0  0  0  0  0  0  0  0  0  0
  130.2871  134.9501  157.0815 H   0  0  0  0  0  0  0  0  0  0  0  0
  130.5422  131.9856  158.2948 H   0  0  0  0  0  0  0  0  0  0  0  0
  131.8189  130.4010  156.6635 H   0  0  0  0  0  0  0  0  0  0  0  0
  130.0934  129.9910  156.4171 H   0  0  0  0  0  0  0  0  0  0  0  0
  131.9247  131.6741  154.6788 H   0  0  0  0  0  0  0  0  0  0  0  0
  130.5486  130.6261  154.1951 H   0  0  0  0  0  0  0  0  0  0  0  0
  128.9449  132.2745  154.7140 H   0  0  0  0  0  0  0  0  0  0  0  0
  130.3161  133.3898  154.4278 H   0  0  0  0  0  0  0  0  0  0  0  0
  131.3738  134.8168  158.6664 H   0  0  0  0  0  0  0  0  0  0  0  0
  133.3342  135.1948  159.6896 H   0  0  0  0  0  0  0  0  0  0  0  0
  133.1323  136.9552  159.9398 H   0  0  0  0  0  0  0  0  0  0  0  0
  135.4980  136.7039  161.5308 H   0  0  0  0  0  0  0  0  0  0  0  0
  136.1165  136.3132  163.8790 H   0  0  0  0  0  0  0  0  0  0  0  0
  132.3077  134.5270  164.5812 H   0  0  0  0  0  0  0  0  0  0  0  0
  130.5126  135.1591  162.4503 H   0  0  0  0  0  0  0  0  0  0  0  0
  131.3534  133.8382  161.5861 H   0  0  0  0  0  0  0  0  0  0  0  0
  127.0778  135.7801  162.3320 H   0  0  0  0  0  0  0  0  0  0  0  0
  126.5466  136.6118  160.8551 H   0  0  0  0  0  0  0  0  0  0  0  0
  124.5485  135.8432  161.8724 H   0  0  0  0  0  0  0  0  0  0  0  0
  1  2  2  0
  2 30  1  0
  2  3  1  0
  3  4  1  0
  3 31  1  0
  3 32  1  0
  4  5  1  0
  4 33  1  0
  4 34  1  0
  5  6  1  6
  5  7  1  0
  5 29  1  0
  7  8  1  0
  9  7  2  0
  9 10  1  0
  9 17  1  0
 10 11  1  0
 10 35  1  0
 11 12  1  0
 11 36  1  0
 11 37  1  0
 12 16  1  0
 12 13  2  0
 13 14  1  0
 13 38  1  0
 14 15  1  0
 14 39  1  0
 14 40  1  0
 15 16  1  0
 15 41  1  0
 15 42  1  0
 16 43  1  0
 16 44  1  0
 17 18  1  0
 17 45  1  0
 18 19  1  1
 18 28  1  0
 18 20  1  0
 20 21  1  0
 20 46  1  0
 20 47  1  0
 21 27  2  0
 21 22  1  0
 22 23  2  0
 22 48  1  0
 23 24  1  0
 23 49  1  0
 24 25  1  0
 24 26  2  0
 26 27  1  0
 26 50  1  0
 27 28  1  0
 28 51  1  0
 28 52  1  0
 29 30  1  0
 29 53  1  0
 29 54  1  0
 30 55  1  0
M  CHG  1   7   1
M  END
>  <DOCK_score>  (1) 
-48.601936

>  <SMILES>  (1) 
O=C1CC[C@H]([NH+]=C(NCC2=CCCC2)N[C@@H]2Cc3ccc(Cl)cc3C2)CN1

$$$$
