Nc1cccc(-c2cccc(-c3cccc(C[C@@H]([NH3+])C(=O)Nc4cccc(O)c4)c3)c2)c1
     RDKit          3D

 58 61  0  0  1  0  0  0  0  0999 V2000
  139.0085  137.4048  167.0988 N   0  0  0  0  0  0  0  0  0  0  0  0
  137.7085  136.9284  166.9136 C   0  0  0  0  0  0  0  0  0  0  0  0
  136.9893  136.4316  167.9946 C   0  0  0  0  0  0  0  0  0  0  0  0
  135.7029  135.9606  167.8151 C   0  0  0  0  0  0  0  0  0  0  0  0
  135.1228  135.9845  166.5621 C   0  0  0  0  0  0  0  0  0  0  0  0
  135.8382  136.4758  165.4719 C   0  0  0  0  0  0  0  0  0  0  0  0
  135.2177  136.4978  164.1239 C   0  0  0  0  0  0  0  0  0  0  0  0
  135.5837  137.4780  163.2025 C   0  0  0  0  0  0  0  0  0  0  0  0
  135.0075  137.4993  161.9478 C   0  0  0  0  0  0  0  0  0  0  0  0
  134.0699  136.5479  161.5964 C   0  0  0  0  0  0  0  0  0  0  0  0
  133.6923  135.5666  162.5115 C   0  0  0  0  0  0  0  0  0  0  0  0
  132.6809  134.5481  162.1344 C   0  0  0  0  0  0  0  0  0  0  0  0
  131.8552  133.9890  163.1076 C   0  0  0  0  0  0  0  0  0  0  0  0
  130.9164  133.0423  162.7514 C   0  0  0  0  0  0  0  0  0  0  0  0
  130.7947  132.6477  161.4310 C   0  0  0  0  0  0  0  0  0  0  0  0
  131.6120  133.1991  160.4612 C   0  0  0  0  0  0  0  0  0  0  0  0
  131.4742  132.7637  159.0251 C   0  0  0  0  0  0  0  0  0  0  0  0
  130.4630  133.6648  158.3137 C   0  0  1  0  0  0  0  0  0  0  0  0
  130.6026  134.6955  158.6395 H   0  0  0  0  0  0  0  0  0  0  0  0
  130.6667  133.5785  156.8615 N   0  0  0  0  0  0  0  0  0  0  0  0
  130.5375  132.6243  156.5598 H   0  0  0  0  0  0  0  0  0  0  0  0
  129.9999  134.1728  156.3922 H   0  0  0  0  0  0  0  0  0  0  0  0
  131.6030  133.8790  156.6348 H   0  0  0  0  0  0  0  0  0  0  0  0
  129.0647  133.2160  158.6523 C   0  0  0  0  0  0  0  0  0  0  0  0
  128.5089  132.3891  157.9603 O   0  0  0  0  0  0  0  0  0  0  0  0
  128.4318  133.7332  159.7239 N   0  0  0  0  0  0  0  0  0  0  0  0
  127.1336  133.3165  160.0381 C   0  0  0  0  0  0  0  0  0  0  0  0
  126.7195  132.0296  159.7179 C   0  0  0  0  0  0  0  0  0  0  0  0
  125.4380  131.6183  160.0281 C   0  0  0  0  0  0  0  0  0  0  0  0
  124.5667  132.4829  160.6634 C   0  0  0  0  0  0  0  0  0  0  0  0
  124.9729  133.7713  160.9804 C   0  0  0  0  0  0  0  0  0  0  0  0
  124.1131  134.6224  161.5996 O   0  0  0  0  0  0  0  0  0  0  0  0
  126.2582  134.1879  160.6703 C   0  0  0  0  0  0  0  0  0  0  0  0
  132.5576  134.1433  160.8071 C   0  0  0  0  0  0  0  0  0  0  0  0
  134.2698  135.5402  163.7774 C   0  0  0  0  0  0  0  0  0  0  0  0
  137.1344  136.9513  165.6514 C   0  0  0  0  0  0  0  0  0  0  0  0
  139.5099  137.7516  166.3444 H   0  0  0  0  0  0  0  0  0  0  0  0
  139.4098  137.3886  167.9817 H   0  0  0  0  0  0  0  0  0  0  0  0
  137.4371  136.4142  168.9772 H   0  0  0  0  0  0  0  0  0  0  0  0
  135.1479  135.5763  168.6581 H   0  0  0  0  0  0  0  0  0  0  0  0
  134.1157  135.6188  166.4266 H   0  0  0  0  0  0  0  0  0  0  0  0
  136.3192  138.2220  163.4706 H   0  0  0  0  0  0  0  0  0  0  0  0
  135.2941  138.2603  161.2370 H   0  0  0  0  0  0  0  0  0  0  0  0
  133.6256  136.5667  160.6122 H   0  0  0  0  0  0  0  0  0  0  0  0
  131.9493  134.2961  164.1388 H   0  0  0  0  0  0  0  0  0  0  0  0
  130.2759  132.6082  163.5049 H   0  0  0  0  0  0  0  0  0  0  0  0
  130.0589  131.9062  161.1567 H   0  0  0  0  0  0  0  0  0  0  0  0
  131.1279  131.7306  158.9902 H   0  0  0  0  0  0  0  0  0  0  0  0
  132.4413  132.8397  158.5279 H   0  0  0  0  0  0  0  0  0  0  0  0
  128.8763  134.3944  160.2772 H   0  0  0  0  0  0  0  0  0  0  0  0
  127.4000  131.3505  159.2258 H   0  0  0  0  0  0  0  0  0  0  0  0
  125.1177  130.6176  159.7781 H   0  0  0  0  0  0  0  0  0  0  0  0
  123.5668  132.1568  160.9093 H   0  0  0  0  0  0  0  0  0  0  0  0
  124.4861  135.4963  161.7793 H   0  0  0  0  0  0  0  0  0  0  0  0
  126.5777  135.1887  160.9206 H   0  0  0  0  0  0  0  0  0  0  0  0
  133.1982  134.5702  160.0495 H   0  0  0  0  0  0  0  0  0  0  0  0
  133.9830  134.7794  164.4882 H   0  0  0  0  0  0  0  0  0  0  0  0
  137.6911  137.3371  164.8102 H   0  0  0  0  0  0  0  0  0  0  0  0
  1  2  1  0
  1 37  1  0
  1 38  1  0
  2 36  2  0
  2  3  1  0
  3  4  2  0
  3 39  1  0
  4  5  1  0
  4 40  1  0
  5  6  2  0
  5 41  1  0
  6  7  1  0
  6 36  1  0
  7 35  1  0
  7  8  2  0
  8  9  1  0
  8 42  1  0
  9 10  2  0
  9 43  1  0
 10 11  1  0
 10 44  1  0
 11 12  1  0
 11 35  2  0
 12 34  1  0
 12 13  2  0
 13 14  1  0
 13 45  1  0
 14 15  2  0
 14 46  1  0
 15 16  1  0
 15 47  1  0
 16 17  1  0
 16 34  2  0
 17 18  1  0
 17 48  1  0
 17 49  1  0
 18 19  1  1
 18 20  1  0
 18 24  1  0
 20 21  1  0
 20 22  1  0
 20 23  1  0
 24 25  2  0
 24 26  1  0
 26 27  1  0
 26 50  1  0
 27 33  1  0
 27 28  2  0
 28 29  1  0
 28 51  1  0
 29 30  2  0
 29 52  1  0
 30 31  1  0
 30 53  1  0
 31 32  1  0
 31 33  2  0
 32 54  1  0
 33 55  1  0
 34 56  1  0
 35 57  1  0
 36 58  1  0
M  CHG  1  20   1
M  END
>  <DOCK_score>  (1) 
-50.494476

>  <SMILES>  (1) 
Nc1cccc(-c2cccc(-c3cccc(C[C@@H]([NH3+])C(=O)Nc4cccc(O)c4)c3)c2)c1

$$$$
