CCc1ccc(Sc2ccc(O)cc2Nc2[nH]cc(-c3ccccc3)[nH+]2)cc1
     RDKit          3D

 50 53  0  0  1  0  0  0  0  0999 V2000
  135.2351  140.5267  161.5997 C   0  0  0  0  0  0  0  0  0  0  0  0
  136.0150  139.2163  161.4755 C   0  0  0  0  0  0  0  0  0  0  0  0
  135.0512  138.0578  161.4593 C   0  0  0  0  0  0  0  0  0  0  0  0
  134.5424  137.6006  160.2572 C   0  0  0  0  0  0  0  0  0  0  0  0
  133.6630  136.5364  160.2380 C   0  0  0  0  0  0  0  0  0  0  0  0
  133.2807  135.9313  161.4295 C   0  0  0  0  0  0  0  0  0  0  0  0
  132.1539  134.5769  161.4106 S   0  0  0  0  0  0  0  0  0  0  0  0
  130.5837  135.3659  161.5392 C   0  0  0  0  0  0  0  0  0  0  0  0
  130.0280  135.6074  162.7869 C   0  0  0  0  0  0  0  0  0  0  0  0
  128.7963  136.2267  162.8878 C   0  0  0  0  0  0  0  0  0  0  0  0
  128.1124  136.6084  161.7427 C   0  0  0  0  0  0  0  0  0  0  0  0
  126.9014  137.2182  161.8466 O   0  0  0  0  0  0  0  0  0  0  0  0
  128.6621  136.3693  160.4924 C   0  0  0  0  0  0  0  0  0  0  0  0
  129.9002  135.7535  160.3865 C   0  0  0  0  0  0  0  0  0  0  0  0
  130.4604  135.5166  159.1255 N   0  0  0  0  0  0  0  0  0  0  0  0
  130.1968  134.3295  158.4627 C   0  0  0  0  0  0  0  0  0  0  0  0
  129.4178  133.3160  158.9307 N   0  0  0  0  0  0  0  0  0  0  0  0
  128.9512  133.2955  159.7808 H   0  0  0  0  0  0  0  0  0  0  0  0
  129.4118  132.3293  157.9754 C   0  0  0  0  0  0  0  0  0  0  0  0
  130.1933  132.7638  156.9556 C   0  0  0  0  0  0  0  0  0  0  0  0
  130.4854  132.0241  155.7035 C   0  0  0  0  0  0  0  0  0  0  0  0
  130.1279  132.5672  154.4706 C   0  0  0  0  0  0  0  0  0  0  0  0
  130.4068  131.8770  153.3086 C   0  0  0  0  0  0  0  0  0  0  0  0
  131.0297  130.6436  153.3663 C   0  0  0  0  0  0  0  0  0  0  0  0
  131.3821  130.0970  154.5875 C   0  0  0  0  0  0  0  0  0  0  0  0
  131.1132  130.7809  155.7558 C   0  0  0  0  0  0  0  0  0  0  0  0
  130.6609  133.9940  157.2834 N   0  0  0  0  0  0  0  0  0  0  0  0
  131.2456  134.5386  156.7334 H   0  0  0  0  0  0  0  0  0  0  0  0
  133.7899  136.3971  162.6360 C   0  0  0  0  0  0  0  0  0  0  0  0
  134.6731  137.4583  162.6469 C   0  0  0  0  0  0  0  0  0  0  0  0
  134.6591  140.5204  162.5249 H   0  0  0  0  0  0  0  0  0  0  0  0
  135.9322  141.3646  161.6114 H   0  0  0  0  0  0  0  0  0  0  0  0
  134.5586  140.6288  160.7511 H   0  0  0  0  0  0  0  0  0  0  0  0
  136.5910  139.2225  160.5503 H   0  0  0  0  0  0  0  0  0  0  0  0
  136.6915  139.1142  162.3241 H   0  0  0  0  0  0  0  0  0  0  0  0
  134.8365  138.0739  159.3321 H   0  0  0  0  0  0  0  0  0  0  0  0
  133.2690  136.1773  159.2987 H   0  0  0  0  0  0  0  0  0  0  0  0
  130.5580  135.3119  163.6802 H   0  0  0  0  0  0  0  0  0  0  0  0
  128.3655  136.4143  163.8603 H   0  0  0  0  0  0  0  0  0  0  0  0
  126.5019  137.4468  160.9961 H   0  0  0  0  0  0  0  0  0  0  0  0
  128.1290  136.6673  159.6016 H   0  0  0  0  0  0  0  0  0  0  0  0
  131.0333  136.1839  158.7163 H   0  0  0  0  0  0  0  0  0  0  0  0
  128.8882  131.3862  158.0280 H   0  0  0  0  0  0  0  0  0  0  0  0
  129.6375  133.5283  154.4245 H   0  0  0  0  0  0  0  0  0  0  0  0
  130.1345  132.2989  152.3525 H   0  0  0  0  0  0  0  0  0  0  0  0
  131.2421  130.1050  152.4545 H   0  0  0  0  0  0  0  0  0  0  0  0
  131.8689  129.1338  154.6268 H   0  0  0  0  0  0  0  0  0  0  0  0
  131.3891  130.3537  156.7085 H   0  0  0  0  0  0  0  0  0  0  0  0
  133.4949  135.9295  163.5638 H   0  0  0  0  0  0  0  0  0  0  0  0
  135.0694  137.8205  163.5840 H   0  0  0  0  0  0  0  0  0  0  0  0
  1  2  1  0
  1 31  1  0
  1 32  1  0
  1 33  1  0
  2  3  1  0
  2 34  1  0
  2 35  1  0
  3 30  2  0
  3  4  1  0
  4  5  2  0
  4 36  1  0
  5  6  1  0
  5 37  1  0
  6  7  1  0
  6 29  2  0
  7  8  1  0
  8 14  1  0
  8  9  2  0
  9 10  1  0
  9 38  1  0
 10 11  2  0
 10 39  1  0
 11 12  1  0
 11 13  1  0
 12 40  1  0
 13 14  2  0
 13 41  1  0
 14 15  1  0
 15 42  1  0
 16 15  1  0
 16 27  2  0
 16 17  1  0
 17 18  1  0
 17 19  1  0
 19 20  2  0
 19 43  1  0
 20 21  1  0
 20 27  1  0
 21 26  1  0
 21 22  2  0
 22 23  1  0
 22 44  1  0
 23 24  2  0
 23 45  1  0
 24 25  1  0
 24 46  1  0
 25 26  2  0
 25 47  1  0
 26 48  1  0
 27 28  1  0
 29 30  1  0
 29 49  1  0
 30 50  1  0
M  CHG  1  27   1
M  END
>  <DOCK_score>  (1) 
-57.891598

>  <SMILES>  (1) 
CCc1ccc(Sc2ccc(O)cc2Nc2[nH]cc(-c3ccccc3)[nH+]2)cc1

$$$$
