CC=CSc1ccc(O)cc1Nc1[nH]cc(-c2ccccc2)[nH+]1
     RDKit          3D

 41 43  0  0  1  0  0  0  0  0999 V2000
  134.1544  138.3331  161.4842 C   0  0  0  0  0  0  0  0  0  0  0  0
  133.4063  137.0368  161.6609 C   0  0  0  0  0  0  0  0  0  0  0  0
  133.3540  136.1638  160.6703 C   0  0  0  0  0  0  0  0  0  0  0  0
  132.4794  134.6482  160.8768 S   0  0  0  0  0  0  0  0  0  0  0  0
  130.8357  135.1827  161.2199 C   0  0  0  0  0  0  0  0  0  0  0  0
  130.4380  135.4091  162.5293 C   0  0  0  0  0  0  0  0  0  0  0  0
  129.1490  135.8288  162.7984 C   0  0  0  0  0  0  0  0  0  0  0  0
  128.2492  136.0250  161.7607 C   0  0  0  0  0  0  0  0  0  0  0  0
  126.9819  136.4379  162.0300 O   0  0  0  0  0  0  0  0  0  0  0  0
  128.6404  135.8004  160.4494 C   0  0  0  0  0  0  0  0  0  0  0  0
  129.9327  135.3793  160.1749 C   0  0  0  0  0  0  0  0  0  0  0  0
  130.3304  135.1525  158.8520 N   0  0  0  0  0  0  0  0  0  0  0  0
  130.1742  133.8974  158.2875 C   0  0  0  0  0  0  0  0  0  0  0  0
  129.6553  132.8055  158.9132 N   0  0  0  0  0  0  0  0  0  0  0  0
  129.3308  132.7667  159.8265 H   0  0  0  0  0  0  0  0  0  0  0  0
  129.6727  131.7697  158.0115 C   0  0  0  0  0  0  0  0  0  0  0  0
  130.2092  132.2554  156.8643 C   0  0  0  0  0  0  0  0  0  0  0  0
  130.4303  131.4914  155.6123 C   0  0  0  0  0  0  0  0  0  0  0  0
  129.8066  131.8888  154.4310 C   0  0  0  0  0  0  0  0  0  0  0  0
  130.0210  131.1777  153.2677 C   0  0  0  0  0  0  0  0  0  0  0  0
  130.8435  130.0654  153.2754 C   0  0  0  0  0  0  0  0  0  0  0  0
  131.4601  129.6629  154.4464 C   0  0  0  0  0  0  0  0  0  0  0  0
  131.2579  130.3700  155.6141 C   0  0  0  0  0  0  0  0  0  0  0  0
  130.5069  133.5635  157.0643 N   0  0  0  0  0  0  0  0  0  0  0  0
  130.9030  134.1570  156.4072 H   0  0  0  0  0  0  0  0  0  0  0  0
  135.2006  138.1216  161.2642 H   0  0  0  0  0  0  0  0  0  0  0  0
  133.7161  138.8960  160.6601 H   0  0  0  0  0  0  0  0  0  0  0  0
  134.0870  138.9192  162.4008 H   0  0  0  0  0  0  0  0  0  0  0  0
  132.9129  136.8213  162.5971 H   0  0  0  0  0  0  0  0  0  0  0  0
  133.8473  136.3793  159.7341 H   0  0  0  0  0  0  0  0  0  0  0  0
  131.1363  135.2576  163.3393 H   0  0  0  0  0  0  0  0  0  0  0  0
  128.8416  136.0047  163.8186 H   0  0  0  0  0  0  0  0  0  0  0  0
  126.4285  136.5470  161.2445 H   0  0  0  0  0  0  0  0  0  0  0  0
  127.9403  135.9579  159.6423 H   0  0  0  0  0  0  0  0  0  0  0  0
  130.7154  135.8742  158.3307 H   0  0  0  0  0  0  0  0  0  0  0  0
  129.3286  130.7608  158.1840 H   0  0  0  0  0  0  0  0  0  0  0  0
  129.1605  132.7541  154.4248 H   0  0  0  0  0  0  0  0  0  0  0  0
  129.5423  131.4879  152.3506 H   0  0  0  0  0  0  0  0  0  0  0  0
  131.0053  129.5092  152.3639 H   0  0  0  0  0  0  0  0  0  0  0  0
  132.1012  128.7938  154.4464 H   0  0  0  0  0  0  0  0  0  0  0  0
  131.7404  130.0552  156.5276 H   0  0  0  0  0  0  0  0  0  0  0  0
  1  2  1  0
  1 26  1  0
  1 27  1  0
  1 28  1  0
  2  3  2  0
  2 29  1  0
  3  4  1  0
  3 30  1  0
  4  5  1  0
  5 11  2  0
  5  6  1  0
  6  7  2  0
  6 31  1  0
  7  8  1  0
  7 32  1  0
  8  9  1  0
  8 10  2  0
  9 33  1  0
 10 11  1  0
 10 34  1  0
 11 12  1  0
 12 35  1  0
 13 12  1  0
 13 24  2  0
 13 14  1  0
 14 15  1  0
 14 16  1  0
 16 17  2  0
 16 36  1  0
 17 18  1  0
 17 24  1  0
 18 23  1  0
 18 19  2  0
 19 20  1  0
 19 37  1  0
 20 21  2  0
 20 38  1  0
 21 22  1  0
 21 39  1  0
 22 23  2  0
 22 40  1  0
 23 41  1  0
 24 25  1  0
M  CHG  1  24   1
M  END
>  <DOCK_score>  (1) 
-50.403362

>  <SMILES>  (1) 
CC=CSc1ccc(O)cc1Nc1[nH]cc(-c2ccccc2)[nH+]1

$$$$
