CC(Sc1csc(Nc2ccc([C@H](C)[NH+]3CCCC3)cc2)n1)c1ccccc1
     RDKit          3D

 56 59  0  0  1  0  0  0  0  0999 V2000
  130.1340  133.4249  158.5140 C   0  0  0  0  0  0  0  0  0  0  0  0
  129.1581  132.7573  157.5430 C   0  0  2  0  0  0  0  0  0  0  0  0
  128.1935  131.4993  158.4248 S   0  0  0  0  0  0  0  0  0  0  0  0
  126.9587  132.4506  159.2466 C   0  0  0  0  0  0  0  0  0  0  0  0
  125.7375  131.9733  159.5197 C   0  0  0  0  0  0  0  0  0  0  0  0
  124.8274  133.2377  160.3419 S   0  0  0  0  0  0  0  0  0  0  0  0
  126.1694  134.2911  160.2342 C   0  0  0  0  0  0  0  0  0  0  0  0
  126.1970  135.5920  160.7135 N   0  0  0  0  0  0  0  0  0  0  0  0
  127.3529  136.3645  160.5714 C   0  0  0  0  0  0  0  0  0  0  0  0
  127.6515  137.3490  161.5050 C   0  0  0  0  0  0  0  0  0  0  0  0
  128.7978  138.1063  161.3647 C   0  0  0  0  0  0  0  0  0  0  0  0
  129.6417  137.8937  160.2898 C   0  0  0  0  0  0  0  0  0  0  0  0
  130.8887  138.7258  160.1364 C   0  0  2  0  0  0  0  0  0  0  0  0
  130.9553  139.4356  160.9618 H   0  0  0  0  0  0  0  0  0  0  0  0
  130.8340  139.4879  158.8116 C   0  0  0  0  0  0  0  0  0  0  0  0
  132.0672  137.8490  160.1496 N   0  0  0  0  0  0  0  0  0  0  0  0
  132.1938  137.4226  159.2440 H   0  0  0  0  0  0  0  0  0  0  0  0
  133.2777  138.6231  160.5264 C   0  0  0  0  0  0  0  0  0  0  0  0
  134.2520  137.5316  161.0362 C   0  0  0  0  0  0  0  0  0  0  0  0
  133.3150  136.5515  161.7789 C   0  0  0  0  0  0  0  0  0  0  0  0
  131.9162  136.8064  161.1877 C   0  0  0  0  0  0  0  0  0  0  0  0
  129.3443  136.9188  159.3554 C   0  0  0  0  0  0  0  0  0  0  0  0
  128.2028  136.1536  159.4930 C   0  0  0  0  0  0  0  0  0  0  0  0
  127.1588  133.6979  159.6401 N   0  0  0  0  0  0  0  0  0  0  0  0
  129.9294  132.1060  156.4242 C   0  0  0  0  0  0  0  0  0  0  0  0
  130.2151  132.8191  155.2750 C   0  0  0  0  0  0  0  0  0  0  0  0
  130.9268  132.2230  154.2507 C   0  0  0  0  0  0  0  0  0  0  0  0
  131.3436  130.9105  154.3713 C   0  0  0  0  0  0  0  0  0  0  0  0
  131.0534  130.1957  155.5183 C   0  0  0  0  0  0  0  0  0  0  0  0
  130.3461  130.7934  156.5447 C   0  0  0  0  0  0  0  0  0  0  0  0
  129.5760  133.8961  159.3233 H   0  0  0  0  0  0  0  0  0  0  0  0
  130.8075  132.6735  158.9264 H   0  0  0  0  0  0  0  0  0  0  0  0
  130.7137  134.1809  157.9842 H   0  0  0  0  0  0  0  0  0  0  0  0
  128.4846  133.5087  157.1308 H   0  0  0  0  0  0  0  0  0  0  0  0
  125.3746  130.9848  159.2794 H   0  0  0  0  0  0  0  0  0  0  0  0
  125.4141  135.9656  161.1475 H   0  0  0  0  0  0  0  0  0  0  0  0
  126.9906  137.5186  162.3420 H   0  0  0  0  0  0  0  0  0  0  0  0
  129.0331  138.8685  162.0928 H   0  0  0  0  0  0  0  0  0  0  0  0
  130.8720  138.7800  157.9837 H   0  0  0  0  0  0  0  0  0  0  0  0
  129.9073  140.0593  158.7588 H   0  0  0  0  0  0  0  0  0  0  0  0
  131.6840  140.1675  158.7478 H   0  0  0  0  0  0  0  0  0  0  0  0
  133.6931  139.1343  159.6580 H   0  0  0  0  0  0  0  0  0  0  0  0
  133.0479  139.3347  161.3194 H   0  0  0  0  0  0  0  0  0  0  0  0
  134.9849  137.9582  161.7211 H   0  0  0  0  0  0  0  0  0  0  0  0
  134.7460  137.0350  160.2011 H   0  0  0  0  0  0  0  0  0  0  0  0
  133.3180  136.7622  162.8482 H   0  0  0  0  0  0  0  0  0  0  0  0
  133.6210  135.5214  161.5960 H   0  0  0  0  0  0  0  0  0  0  0  0
  131.2409  137.1553  161.9688 H   0  0  0  0  0  0  0  0  0  0  0  0
  131.5294  135.8906  160.7405 H   0  0  0  0  0  0  0  0  0  0  0  0
  130.0055  136.7552  158.5174 H   0  0  0  0  0  0  0  0  0  0  0  0
  127.9712  135.3922  158.7628 H   0  0  0  0  0  0  0  0  0  0  0  0
  129.8856  133.8431  155.1790 H   0  0  0  0  0  0  0  0  0  0  0  0
  131.1532  132.7814  153.3544 H   0  0  0  0  0  0  0  0  0  0  0  0
  131.8957  130.4434  153.5692 H   0  0  0  0  0  0  0  0  0  0  0  0
  131.3786  129.1702  155.6124 H   0  0  0  0  0  0  0  0  0  0  0  0
  130.1190  130.2348  157.4407 H   0  0  0  0  0  0  0  0  0  0  0  0
  1  2  1  0
  1 31  1  0
  1 32  1  0
  1 33  1  0
  2  3  1  0
  2 25  1  0
  2 34  1  6
  3  4  1  0
  4 24  1  0
  4  5  2  0
  5  6  1  0
  5 35  1  0
  6  7  1  0
  7  8  1  0
  7 24  2  0
  8  9  1  0
  8 36  1  0
  9 23  1  0
  9 10  2  0
 10 11  1  0
 10 37  1  0
 11 12  2  0
 11 38  1  0
 12 13  1  0
 12 22  1  0
 13 14  1  1
 13 15  1  0
 13 16  1  0
 15 39  1  0
 15 40  1  0
 15 41  1  0
 16 17  1  0
 16 21  1  0
 16 18  1  0
 18 19  1  0
 18 42  1  0
 18 43  1  0
 19 20  1  0
 19 44  1  0
 19 45  1  0
 20 21  1  0
 20 46  1  0
 20 47  1  0
 21 48  1  0
 21 49  1  0
 22 23  2  0
 22 50  1  0
 23 51  1  0
 25 30  1  0
 25 26  2  0
 26 27  1  0
 26 52  1  0
 27 28  2  0
 27 53  1  0
 28 29  1  0
 28 54  1  0
 29 30  2  0
 29 55  1  0
 30 56  1  0
M  CHG  1  16   1
M  END
>  <DOCK_score>  (1) 
-50.283085

>  <SMILES>  (1) 
CC(Sc1csc(Nc2ccc([C@H](C)[NH+]3CCCC3)cc2)n1)c1ccccc1

$$$$
