CC(C)[C@@H](C)Nc1ccc(O)cc1Nc1[nH]cc(-c2ccc(Br)cc2)[nH+]1
     RDKit          3D

 50 52  0  0  1  0  0  0  0  0999 V2000
  131.3900  134.9538  164.2654 C   0  0  0  0  0  0  0  0  0  0  0  0
  132.4722  135.8138  163.6098 C   0  0  0  0  0  0  0  0  0  0  0  0
  133.5455  134.9077  163.0029 C   0  0  0  0  0  0  0  0  0  0  0  0
  131.8451  136.6702  162.5078 C   0  0  1  0  0  0  0  0  0  0  0  0
  131.0804  137.3157  162.9400 H   0  0  0  0  0  0  0  0  0  0  0  0
  132.9274  137.5302  161.8521 C   0  0  0  0  0  0  0  0  0  0  0  0
  131.2360  135.7993  161.4996 N   0  0  0  0  0  0  0  0  0  0  0  0
  129.8624  135.8898  161.2323 C   0  0  0  0  0  0  0  0  0  0  0  0
  128.9851  136.2804  162.2320 C   0  0  0  0  0  0  0  0  0  0  0  0
  127.6308  136.3704  161.9686 C   0  0  0  0  0  0  0  0  0  0  0  0
  127.1459  136.0708  160.7042 C   0  0  0  0  0  0  0  0  0  0  0  0
  125.8131  136.1610  160.4490 O   0  0  0  0  0  0  0  0  0  0  0  0
  128.0182  135.6800  159.6997 C   0  0  0  0  0  0  0  0  0  0  0  0
  129.3779  135.5928  159.9588 C   0  0  0  0  0  0  0  0  0  0  0  0
  130.2619  135.2031  158.9449 N   0  0  0  0  0  0  0  0  0  0  0  0
  130.1191  133.9657  158.3397 C   0  0  0  0  0  0  0  0  0  0  0  0
  129.6118  132.8483  158.9291 N   0  0  0  0  0  0  0  0  0  0  0  0
  129.2885  132.7761  159.8407 H   0  0  0  0  0  0  0  0  0  0  0  0
  129.6430  131.8422  157.9947 C   0  0  0  0  0  0  0  0  0  0  0  0
  130.1677  132.3727  156.8622 C   0  0  0  0  0  0  0  0  0  0  0  0
  130.3931  131.6536  155.5844 C   0  0  0  0  0  0  0  0  0  0  0  0
  129.7586  132.0818  154.4197 C   0  0  0  0  0  0  0  0  0  0  0  0
  129.9762  131.4128  153.2325 C   0  0  0  0  0  0  0  0  0  0  0  0
  130.8137  130.3114  153.1994 C   0  0  0  0  0  0  0  0  0  0  0  0
  131.1016  129.3943  151.5709 Br  0  0  0  0  0  0  0  0  0  0  0  0
  131.4416  129.8784  154.3545 C   0  0  0  0  0  0  0  0  0  0  0  0
  131.2355  130.5438  155.5457 C   0  0  0  0  0  0  0  0  0  0  0  0
  130.4448  133.6784  157.1027 N   0  0  0  0  0  0  0  0  0  0  0  0
  130.8251  134.3000  156.4624 H   0  0  0  0  0  0  0  0  0  0  0  0
  130.6253  135.5994  164.6977 H   0  0  0  0  0  0  0  0  0  0  0  0
  131.8366  134.3436  165.0504 H   0  0  0  0  0  0  0  0  0  0  0  0
  130.9367  134.3058  163.5152 H   0  0  0  0  0  0  0  0  0  0  0  0
  132.9254  136.4618  164.3599 H   0  0  0  0  0  0  0  0  0  0  0  0
  133.0922  134.2598  162.2527 H   0  0  0  0  0  0  0  0  0  0  0  0
  134.3165  135.5205  162.5357 H   0  0  0  0  0  0  0  0  0  0  0  0
  133.9922  134.2977  163.7880 H   0  0  0  0  0  0  0  0  0  0  0  0
  133.6920  136.8847  161.4198 H   0  0  0  0  0  0  0  0  0  0  0  0
  132.4806  138.1401  161.0670 H   0  0  0  0  0  0  0  0  0  0  0  0
  133.3806  138.1782  162.6022 H   0  0  0  0  0  0  0  0  0  0  0  0
  131.7829  135.1598  161.0169 H   0  0  0  0  0  0  0  0  0  0  0  0
  129.3599  136.5150  163.2175 H   0  0  0  0  0  0  0  0  0  0  0  0
  126.9491  136.6749  162.7490 H   0  0  0  0  0  0  0  0  0  0  0  0
  125.2853  136.4410  161.2092 H   0  0  0  0  0  0  0  0  0  0  0  0
  127.6396  135.4474  158.7153 H   0  0  0  0  0  0  0  0  0  0  0  0
  130.9742  135.7998  158.6667 H   0  0  0  0  0  0  0  0  0  0  0  0
  129.3125  130.8236  158.1349 H   0  0  0  0  0  0  0  0  0  0  0  0
  129.1012  132.9384  154.4454 H   0  0  0  0  0  0  0  0  0  0  0  0
  129.4884  131.7464  152.3286 H   0  0  0  0  0  0  0  0  0  0  0  0
  132.0940  129.0182  154.3236 H   0  0  0  0  0  0  0  0  0  0  0  0
  131.7262  130.2055  156.4464 H   0  0  0  0  0  0  0  0  0  0  0  0
  1  2  1  0
  1 30  1  0
  1 31  1  0
  1 32  1  0
  2  3  1  0
  2  4  1  0
  2 33  1  0
  3 34  1  0
  3 35  1  0
  3 36  1  0
  4  5  1  1
  4  6  1  0
  4  7  1  0
  6 37  1  0
  6 38  1  0
  6 39  1  0
  7  8  1  0
  7 40  1  0
  8 14  2  0
  8  9  1  0
  9 10  2  0
  9 41  1  0
 10 11  1  0
 10 42  1  0
 11 12  1  0
 11 13  2  0
 12 43  1  0
 13 14  1  0
 13 44  1  0
 14 15  1  0
 15 45  1  0
 16 15  1  0
 16 28  2  0
 16 17  1  0
 17 18  1  0
 17 19  1  0
 19 20  2  0
 19 46  1  0
 20 21  1  0
 20 28  1  0
 21 27  1  0
 21 22  2  0
 22 23  1  0
 22 47  1  0
 23 24  2  0
 23 48  1  0
 24 25  1  0
 24 26  1  0
 26 27  2  0
 26 49  1  0
 27 50  1  0
 28 29  1  0
M  CHG  1  28   1
M  END
>  <DOCK_score>  (1) 
-53.107037

>  <SMILES>  (1) 
CC(C)[C@@H](C)Nc1ccc(O)cc1Nc1[nH]cc(-c2ccc(Br)cc2)[nH+]1

$$$$
