O=C1CC([NH2+]Cc2c[nH]nc2-c2ccc(NCC3CC4C[C@@H]4C3)o2)CN1
     RDKit          3D

 52 56  0  0  1  0  0  0  0  0999 V2000
  128.7833  140.5087  162.0116 O   0  0  0  0  0  0  0  0  0  0  0  0
  129.4688  139.8845  161.2296 C   0  0  0  0  0  0  0  0  0  0  0  0
  129.5756  138.3756  161.1837 C   0  0  0  0  0  0  0  0  0  0  0  0
  130.8443  138.1115  160.3401 C   0  0  1  0  0  0  0  0  0  0  0  0
  130.6688  136.9323  159.4818 N   0  0  0  0  0  0  0  0  0  0  0  0
  131.3372  136.9635  158.7265 H   0  0  0  0  0  0  0  0  0  0  0  0
  129.7336  136.9279  159.1033 H   0  0  0  0  0  0  0  0  0  0  0  0
  130.8819  135.7139  160.2743 C   0  0  0  0  0  0  0  0  0  0  0  0
  130.7019  134.5042  159.3937 C   0  0  0  0  0  0  0  0  0  0  0  0
  131.6700  133.8857  158.6843 C   0  0  0  0  0  0  0  0  0  0  0  0
  131.1092  132.8469  158.0280 N   0  0  0  0  0  0  0  0  0  0  0  0
  131.5719  132.2280  157.4418 H   0  0  0  0  0  0  0  0  0  0  0  0
  129.7441  132.8180  158.3404 N   0  0  0  0  0  0  0  0  0  0  0  0
  129.4928  133.8126  159.1689 C   0  0  0  0  0  0  0  0  0  0  0  0
  128.1780  134.1458  159.7546 C   0  0  0  0  0  0  0  0  0  0  0  0
  127.0169  133.4730  159.5393 C   0  0  0  0  0  0  0  0  0  0  0  0
  126.0203  134.1284  160.2892 C   0  0  0  0  0  0  0  0  0  0  0  0
  126.6207  135.1662  160.9234 C   0  0  0  0  0  0  0  0  0  0  0  0
  125.9935  136.0729  161.7701 N   0  0  0  0  0  0  0  0  0  0  0  0
  126.7862  136.8580  162.7194 C   0  0  0  0  0  0  0  0  0  0  0  0
  126.9020  136.0953  164.0406 C   0  0  1  0  0  0  0  0  0  0  0  0
  127.5950  136.9658  165.1180 C   0  0  0  0  0  0  0  0  0  0  0  0
  127.1069  136.3721  166.4557 C   0  0  2  0  0  0  0  0  0  0  0  0
  127.0334  134.8495  166.5867 C   0  0  0  0  0  0  0  0  0  0  0  0
  125.7761  135.6584  166.1602 C   0  0  2  0  0  0  0  0  0  0  0  0
  124.9298  135.7319  166.8431 H   0  0  0  0  0  0  0  0  0  0  0  0
  125.5016  135.8389  164.6509 C   0  0  0  0  0  0  0  0  0  0  0  0
  127.9249  135.1673  160.5996 O   0  0  0  0  0  0  0  0  0  0  0  0
  130.9359  139.4014  159.4952 C   0  0  0  0  0  0  0  0  0  0  0  0
  130.2445  140.4324  160.2782 N   0  0  0  0  0  0  0  0  0  0  0  0
  128.6989  137.9458  160.6992 H   0  0  0  0  0  0  0  0  0  0  0  0
  129.6944  137.9702  162.1886 H   0  0  0  0  0  0  0  0  0  0  0  0
  131.7209  137.9999  160.9783 H   0  0  0  0  0  0  0  0  0  0  0  0
  131.8923  135.7184  160.6832 H   0  0  0  0  0  0  0  0  0  0  0  0
  130.1599  135.6801  161.0900 H   0  0  0  0  0  0  0  0  0  0  0  0
  132.7108  134.1721  158.6474 H   0  0  0  0  0  0  0  0  0  0  0  0
  126.8838  132.6029  158.9136 H   0  0  0  0  0  0  0  0  0  0  0  0
  124.9768  133.8564  160.3474 H   0  0  0  0  0  0  0  0  0  0  0  0
  125.0307  136.1857  161.7323 H   0  0  0  0  0  0  0  0  0  0  0  0
  127.7818  137.0269  162.3090 H   0  0  0  0  0  0  0  0  0  0  0  0
  126.2982  137.8168  162.8948 H   0  0  0  0  0  0  0  0  0  0  0  0
  127.4386  135.1575  163.8978 H   0  0  0  0  0  0  0  0  0  0  0  0
  128.6788  136.8827  165.0366 H   0  0  0  0  0  0  0  0  0  0  0  0
  127.2851  138.0068  165.0248 H   0  0  0  0  0  0  0  0  0  0  0  0
  127.2380  136.9789  167.3516 H   0  0  0  0  0  0  0  0  0  0  0  0
  127.5420  134.2545  165.8280 H   0  0  0  0  0  0  0  0  0  0  0  0
  127.0381  134.4307  167.5931 H   0  0  0  0  0  0  0  0  0  0  0  0
  124.8496  136.6962  164.4832 H   0  0  0  0  0  0  0  0  0  0  0  0
  125.0614  134.9353  164.2293 H   0  0  0  0  0  0  0  0  0  0  0  0
  131.9789  139.6795  159.3434 H   0  0  0  0  0  0  0  0  0  0  0  0
  130.4404  139.2594  158.5348 H   0  0  0  0  0  0  0  0  0  0  0  0
  130.3355  141.3864  160.1285 H   0  0  0  0  0  0  0  0  0  0  0  0
  1  2  2  0
  2 30  1  0
  2  3  1  0
  3  4  1  0
  3 31  1  0
  3 32  1  0
  4  5  1  0
  4 29  1  0
  4 33  1  1
  5  6  1  0
  5  7  1  0
  5  8  1  0
  8  9  1  0
  8 34  1  0
  8 35  1  0
  9 14  1  0
  9 10  2  0
 10 11  1  0
 10 36  1  0
 11 12  1  0
 11 13  1  0
 13 14  2  0
 14 15  1  0
 15 28  1  0
 15 16  2  0
 16 17  1  0
 16 37  1  0
 17 18  2  0
 17 38  1  0
 18 19  1  0
 18 28  1  0
 19 20  1  0
 19 39  1  0
 20 21  1  0
 20 40  1  0
 20 41  1  0
 21 27  1  0
 21 22  1  0
 21 42  1  6
 22 23  1  0
 22 43  1  0
 22 44  1  0
 23 25  1  0
 23 24  1  0
 23 45  1  1
 24 25  1  0
 24 46  1  0
 24 47  1  0
 25 26  1  1
 25 27  1  0
 27 48  1  0
 27 49  1  0
 29 30  1  0
 29 50  1  0
 29 51  1  0
 30 52  1  0
M  CHG  1   5   1
M  END
>  <DOCK_score>  (1) 
-42.875511

>  <SMILES>  (1) 
O=C1CC([NH2+]Cc2c[nH]nc2-c2ccc(NCC3CC4C[C@@H]4C3)o2)CN1

$$$$
