C[C@@H](O)[C@@H]1C[C@H]1[NH+]=C(NC1CC=CC1)N[C@H]1C[C@@H](O)C1
     RDKit          3D

 46 48  0  0  1  0  0  0  0  0999 V2000
  125.3018  133.4118  162.7805 C   0  0  0  0  0  0  0  0  0  0  0  0
  124.9017  133.8544  161.3717 C   0  0  1  0  0  0  0  0  0  0  0  0
  124.7866  132.9776  160.7343 H   0  0  0  0  0  0  0  0  0  0  0  0
  123.6643  134.5669  161.4297 O   0  0  0  0  0  0  0  0  0  0  0  0
  125.9879  134.7648  160.7953 C   0  0  2  0  0  0  0  0  0  0  0  0
  126.1851  135.6768  161.3589 H   0  0  0  0  0  0  0  0  0  0  0  0
  126.1171  134.8337  159.2723 C   0  0  0  0  0  0  0  0  0  0  0  0
  127.1735  134.0957  160.0970 C   0  0  1  0  0  0  0  0  0  0  0  0
  127.1798  133.0068  160.0480 H   0  0  0  0  0  0  0  0  0  0  0  0
  128.4867  134.7295  160.2371 N   0  0  0  0  0  0  0  0  0  0  0  0
  128.6992  135.2331  161.0384 H   0  0  0  0  0  0  0  0  0  0  0  0
  129.3696  134.6169  159.2849 C   0  0  0  0  0  0  0  0  0  0  0  0
  129.0685  133.9031  158.1491 N   0  0  0  0  0  0  0  0  0  0  0  0
  130.1318  133.2153  157.4127 C   0  0  0  0  0  0  0  0  0  0  0  0
  129.5448  132.3221  156.2952 C   0  0  0  0  0  0  0  0  0  0  0  0
  130.4263  131.0941  156.2831 C   0  0  0  0  0  0  0  0  0  0  0  0
  131.1308  131.0101  157.3788 C   0  0  0  0  0  0  0  0  0  0  0  0
  130.8365  132.1673  158.3047 C   0  0  0  0  0  0  0  0  0  0  0  0
  130.6023  135.2118  159.4164 N   0  0  0  0  0  0  0  0  0  0  0  0
  130.9230  135.9722  160.6268 C   0  0  1  0  0  0  0  0  0  0  0  0
  130.2502  136.8145  160.7882 H   0  0  0  0  0  0  0  0  0  0  0  0
  131.1214  135.0944  161.8737 C   0  0  0  0  0  0  0  0  0  0  0  0
  132.6037  135.0008  161.4755 C   0  0  1  0  0  0  0  0  0  0  0  0
  133.2889  135.0585  162.3213 H   0  0  0  0  0  0  0  0  0  0  0  0
  132.8936  133.9093  160.6001 O   0  0  0  0  0  0  0  0  0  0  0  0
  132.4112  136.3410  160.7462 C   0  0  0  0  0  0  0  0  0  0  0  0
  125.4169  134.2885  163.4178 H   0  0  0  0  0  0  0  0  0  0  0  0
  124.5279  132.7632  163.1912 H   0  0  0  0  0  0  0  0  0  0  0  0
  126.2457  132.8684  162.7363 H   0  0  0  0  0  0  0  0  0  0  0  0
  123.6931  135.3609  161.9808 H   0  0  0  0  0  0  0  0  0  0  0  0
  126.3992  135.7910  158.8340 H   0  0  0  0  0  0  0  0  0  0  0  0
  125.4285  134.2305  158.6807 H   0  0  0  0  0  0  0  0  0  0  0  0
  128.1518  133.8550  157.8354 H   0  0  0  0  0  0  0  0  0  0  0  0
  130.8486  133.9292  157.0068 H   0  0  0  0  0  0  0  0  0  0  0  0
  128.5159  132.0485  156.5288 H   0  0  0  0  0  0  0  0  0  0  0  0
  129.5934  132.8348  155.3344 H   0  0  0  0  0  0  0  0  0  0  0  0
  130.4679  130.3801  155.4738 H   0  0  0  0  0  0  0  0  0  0  0  0
  131.8322  130.2178  157.5948 H   0  0  0  0  0  0  0  0  0  0  0  0
  131.7629  132.5747  158.7096 H   0  0  0  0  0  0  0  0  0  0  0  0
  130.1767  131.8510  159.1127 H   0  0  0  0  0  0  0  0  0  0  0  0
  131.2592  135.1280  158.7078 H   0  0  0  0  0  0  0  0  0  0  0  0
  130.9537  135.6237  162.8116 H   0  0  0  0  0  0  0  0  0  0  0  0
  130.5951  134.1410  161.8247 H   0  0  0  0  0  0  0  0  0  0  0  0
  133.7005  134.0257  160.0800 H   0  0  0  0  0  0  0  0  0  0  0  0
  132.9262  136.3942  159.7871 H   0  0  0  0  0  0  0  0  0  0  0  0
  132.5960  137.2121  161.3747 H   0  0  0  0  0  0  0  0  0  0  0  0
  1  2  1  0
  1 27  1  0
  1 28  1  0
  1 29  1  0
  2  3  1  6
  2  4  1  0
  2  5  1  0
  4 30  1  0
  5  6  1  1
  5  8  1  0
  5  7  1  0
  7  8  1  0
  7 31  1  0
  7 32  1  0
  8  9  1  6
  8 10  1  0
 10 11  1  0
 12 10  2  0
 12 13  1  0
 12 19  1  0
 13 14  1  0
 13 33  1  0
 14 18  1  0
 14 15  1  0
 14 34  1  0
 15 16  1  0
 15 35  1  0
 15 36  1  0
 16 17  2  0
 16 37  1  0
 17 18  1  0
 17 38  1  0
 18 39  1  0
 18 40  1  0
 19 20  1  0
 19 41  1  0
 20 21  1  1
 20 26  1  0
 20 22  1  0
 22 23  1  0
 22 42  1  0
 22 43  1  0
 23 24  1  1
 23 25  1  0
 23 26  1  0
 25 44  1  0
 26 45  1  0
 26 46  1  0
M  CHG  1  10   1
M  END
>  <DOCK_score>  (1) 
-44.339138

>  <SMILES>  (1) 
C[C@@H](O)[C@@H]1C[C@H]1[NH+]=C(NC1CC=CC1)N[C@H]1C[C@@H](O)C1

$$$$
