C[C@@H](C=CCC1Cc2ccccc2C1)[NH2+]Cc1cnn(CC=CCC2CC(=O)C2)c1
     RDKit          3D

 64 67  0  0  1  0  0  0  0  0999 V2000
  133.8877  139.1426  159.2145 C   0  0  0  0  0  0  0  0  0  0  0  0
  133.2883  138.9028  160.6016 C   0  0  1  0  0  0  0  0  0  0  0  0
  134.0761  138.9604  161.3527 H   0  0  0  0  0  0  0  0  0  0  0  0
  132.2451  139.9525  160.8863 C   0  0  0  0  0  0  0  0  0  0  0  0
  132.0216  140.3365  162.1187 C   0  0  0  0  0  0  0  0  0  0  0  0
  130.9784  141.3861  162.4034 C   0  0  0  0  0  0  0  0  0  0  0  0
  129.9064  140.8025  163.3259 C   0  0  0  0  0  0  0  0  0  0  0  0
  129.1027  139.6999  162.6043 C   0  0  0  0  0  0  0  0  0  0  0  0
  127.6879  139.8357  163.1250 C   0  0  0  0  0  0  0  0  0  0  0  0
  126.6266  138.9469  163.0824 C   0  0  0  0  0  0  0  0  0  0  0  0
  125.4077  139.2932  163.6313 C   0  0  0  0  0  0  0  0  0  0  0  0
  125.2451  140.5308  164.2255 C   0  0  0  0  0  0  0  0  0  0  0  0
  126.3022  141.4186  164.2691 C   0  0  0  0  0  0  0  0  0  0  0  0
  127.5255  141.0732  163.7192 C   0  0  0  0  0  0  0  0  0  0  0  0
  128.8200  141.8535  163.6382 C   0  0  0  0  0  0  0  0  0  0  0  0
  132.6680  137.5719  160.6436 N   0  0  0  0  0  0  0  0  0  0  0  0
  132.0061  137.5332  161.4042 H   0  0  0  0  0  0  0  0  0  0  0  0
  132.1902  137.3958  159.7726 H   0  0  0  0  0  0  0  0  0  0  0  0
  133.7074  136.5536  160.8465 C   0  0  0  0  0  0  0  0  0  0  0  0
  133.0710  135.1881  160.8896 C   0  0  0  0  0  0  0  0  0  0  0  0
  132.5917  134.5393  162.0324 C   0  0  0  0  0  0  0  0  0  0  0  0
  132.1122  133.3768  161.6714 N   0  0  0  0  0  0  0  0  0  0  0  0
  132.2714  133.2488  160.2855 N   0  0  0  0  0  0  0  0  0  0  0  0
  131.8678  132.0978  159.4741 C   0  0  0  0  0  0  0  0  0  0  0  0
  130.4523  132.2923  158.9949 C   0  0  0  0  0  0  0  0  0  0  0  0
  129.4503  131.8564  159.7175 C   0  0  0  0  0  0  0  0  0  0  0  0
  128.0350  132.0510  159.2384 C   0  0  0  0  0  0  0  0  0  0  0  0
  127.2601  132.8841  160.2613 C   0  0  0  0  0  0  0  0  0  0  0  0
  126.0343  133.6025  159.6712 C   0  0  0  0  0  0  0  0  0  0  0  0
  126.4331  134.7942  160.5223 C   0  0  0  0  0  0  0  0  0  0  0  0
  125.8611  135.7407  161.0075 O   0  0  0  0  0  0  0  0  0  0  0  0
  127.8591  134.2808  160.5009 C   0  0  0  0  0  0  0  0  0  0  0  0
  132.8571  134.3756  159.8289 C   0  0  0  0  0  0  0  0  0  0  0  0
  134.3479  140.1302  159.1832 H   0  0  0  0  0  0  0  0  0  0  0  0
  134.6424  138.3835  159.0086 H   0  0  0  0  0  0  0  0  0  0  0  0
  133.1000  139.0850  158.4634 H   0  0  0  0  0  0  0  0  0  0  0  0
  131.6817  140.3879  160.0744 H   0  0  0  0  0  0  0  0  0  0  0  0
  132.5851  139.9010  162.9306 H   0  0  0  0  0  0  0  0  0  0  0  0
  130.5186  141.7045  161.4679 H   0  0  0  0  0  0  0  0  0  0  0  0
  131.4474  142.2425  162.8877 H   0  0  0  0  0  0  0  0  0  0  0  0
  130.3508  140.4196  164.2446 H   0  0  0  0  0  0  0  0  0  0  0  0
  129.1258  139.8591  161.5261 H   0  0  0  0  0  0  0  0  0  0  0  0
  129.5036  138.7168  162.8509 H   0  0  0  0  0  0  0  0  0  0  0  0
  126.7528  137.9799  162.6183 H   0  0  0  0  0  0  0  0  0  0  0  0
  124.5819  138.5979  163.5961 H   0  0  0  0  0  0  0  0  0  0  0  0
  124.2924  140.8034  164.6550 H   0  0  0  0  0  0  0  0  0  0  0  0
  126.1747  142.3850  164.7338 H   0  0  0  0  0  0  0  0  0  0  0  0
  129.0281  142.3408  164.5908 H   0  0  0  0  0  0  0  0  0  0  0  0
  128.7683  142.5930  162.8392 H   0  0  0  0  0  0  0  0  0  0  0  0
  134.4223  136.5954  160.0250 H   0  0  0  0  0  0  0  0  0  0  0  0
  134.2236  136.7437  161.7875 H   0  0  0  0  0  0  0  0  0  0  0  0
  132.6141  134.9303  163.0389 H   0  0  0  0  0  0  0  0  0  0  0  0
  132.5330  132.0074  158.6153 H   0  0  0  0  0  0  0  0  0  0  0  0
  131.9261  131.1908  160.0760 H   0  0  0  0  0  0  0  0  0  0  0  0
  130.2640  132.7912  158.0557 H   0  0  0  0  0  0  0  0  0  0  0  0
  129.6387  131.3576  160.6567 H   0  0  0  0  0  0  0  0  0  0  0  0
  128.0439  132.5694  158.2796 H   0  0  0  0  0  0  0  0  0  0  0  0
  127.5540  131.0797  159.1217 H   0  0  0  0  0  0  0  0  0  0  0  0
  127.0463  132.3366  161.1792 H   0  0  0  0  0  0  0  0  0  0  0  0
  126.1087  133.7858  158.5993 H   0  0  0  0  0  0  0  0  0  0  0  0
  125.0835  133.1551  159.9610 H   0  0  0  0  0  0  0  0  0  0  0  0
  128.3735  134.3781  161.4569 H   0  0  0  0  0  0  0  0  0  0  0  0
  128.4464  134.6548  159.6622 H   0  0  0  0  0  0  0  0  0  0  0  0
  133.1120  134.5895  158.8015 H   0  0  0  0  0  0  0  0  0  0  0  0
  1  2  1  0
  1 34  1  0
  1 35  1  0
  1 36  1  0
  2  3  1  1
  2  4  1  0
  2 16  1  0
  4  5  2  0
  4 37  1  0
  5  6  1  0
  5 38  1  0
  6  7  1  0
  6 39  1  0
  6 40  1  0
  7 15  1  0
  7  8  1  0
  7 41  1  0
  8  9  1  0
  8 42  1  0
  8 43  1  0
  9 14  2  0
  9 10  1  0
 10 11  2  0
 10 44  1  0
 11 12  1  0
 11 45  1  0
 12 13  2  0
 12 46  1  0
 13 14  1  0
 13 47  1  0
 14 15  1  0
 15 48  1  0
 15 49  1  0
 16 17  1  0
 16 18  1  0
 16 19  1  0
 19 20  1  0
 19 50  1  0
 19 51  1  0
 20 33  2  0
 20 21  1  0
 21 22  2  0
 21 52  1  0
 22 23  1  0
 23 24  1  0
 23 33  1  0
 24 25  1  0
 24 53  1  0
 24 54  1  0
 25 26  2  0
 25 55  1  0
 26 27  1  0
 26 56  1  0
 27 28  1  0
 27 57  1  0
 27 58  1  0
 28 32  1  0
 28 29  1  0
 28 59  1  0
 29 30  1  0
 29 60  1  0
 29 61  1  0
 30 31  2  0
 30 32  1  0
 32 62  1  0
 32 63  1  0
 33 64  1  0
M  CHG  1  16   1
M  END
>  <DOCK_score>  (1) 
-43.655422

>  <SMILES>  (1) 
C[C@@H](C=CCC1Cc2ccccc2C1)[NH2+]Cc1cnn(CC=CCC2CC(=O)C2)c1

$$$$
