O=C(c1cnn(-c2ccccc2)c1)c1cn[nH]c1C1=CC[C@@H]([NH2+]C2=CCCCC2)C1
     RDKit          3D

 56 60  0  0  1  0  0  0  0  0999 V2000
  127.8339  136.2542  158.1360 O   0  0  0  0  0  0  0  0  0  0  0  0
  127.9843  135.2818  158.8523 C   0  0  0  0  0  0  0  0  0  0  0  0
  128.6326  134.0683  158.3215 C   0  0  0  0  0  0  0  0  0  0  0  0
  128.8805  132.8709  159.0305 C   0  0  0  0  0  0  0  0  0  0  0  0
  129.4651  132.0334  158.2186 N   0  0  0  0  0  0  0  0  0  0  0  0
  129.6270  132.6478  156.9718 N   0  0  0  0  0  0  0  0  0  0  0  0
  130.2208  132.0667  155.8432 C   0  0  0  0  0  0  0  0  0  0  0  0
  130.3150  132.7854  154.6588 C   0  0  0  0  0  0  0  0  0  0  0  0
  130.9050  132.2117  153.5497 C   0  0  0  0  0  0  0  0  0  0  0  0
  131.3927  130.9194  153.6148 C   0  0  0  0  0  0  0  0  0  0  0  0
  131.2952  130.1991  154.7912 C   0  0  0  0  0  0  0  0  0  0  0  0
  130.7110  130.7691  155.9053 C   0  0  0  0  0  0  0  0  0  0  0  0
  129.1167  133.8910  157.0400 C   0  0  0  0  0  0  0  0  0  0  0  0
  127.5194  135.3168  160.2473 C   0  0  0  0  0  0  0  0  0  0  0  0
  126.2431  134.9402  160.7160 C   0  0  0  0  0  0  0  0  0  0  0  0
  126.2105  135.1113  162.0086 N   0  0  0  0  0  0  0  0  0  0  0  0
  127.4490  135.5958  162.4432 N   0  0  0  0  0  0  0  0  0  0  0  0
  127.6881  135.8028  163.3602 H   0  0  0  0  0  0  0  0  0  0  0  0
  128.2584  135.7301  161.3596 C   0  0  0  0  0  0  0  0  0  0  0  0
  129.6468  136.2117  161.3586 C   0  0  0  0  0  0  0  0  0  0  0  0
  130.4964  136.0654  162.3672 C   0  0  0  0  0  0  0  0  0  0  0  0
  131.8375  136.6768  162.0313 C   0  0  0  0  0  0  0  0  0  0  0  0
  131.5601  137.5974  160.8209 C   0  0  1  0  0  0  0  0  0  0  0  0
  131.3497  138.6163  161.1455 H   0  0  0  0  0  0  0  0  0  0  0  0
  132.6816  137.5714  159.8725 N   0  0  0  0  0  0  0  0  0  0  0  0
  132.3661  137.8929  158.9696 H   0  0  0  0  0  0  0  0  0  0  0  0
  133.0310  136.6284  159.7903 H   0  0  0  0  0  0  0  0  0  0  0  0
  133.7020  138.4078  160.3345 C   0  0  0  0  0  0  0  0  0  0  0  0
  133.6837  139.6485  159.9656 C   0  0  0  0  0  0  0  0  0  0  0  0
  134.7139  140.6616  160.3709 C   0  0  0  0  0  0  0  0  0  0  0  0
  135.5097  140.1561  161.5756 C   0  0  0  0  0  0  0  0  0  0  0  0
  135.9771  138.7246  161.2829 C   0  0  0  0  0  0  0  0  0  0  0  0
  134.7502  137.8118  161.2277 C   0  0  0  0  0  0  0  0  0  0  0  0
  130.3020  136.9406  160.2083 C   0  0  0  0  0  0  0  0  0  0  0  0
  128.6278  132.6814  160.0634 H   0  0  0  0  0  0  0  0  0  0  0  0
  129.9306  133.7933  154.6062 H   0  0  0  0  0  0  0  0  0  0  0  0
  130.9822  132.7717  152.6294 H   0  0  0  0  0  0  0  0  0  0  0  0
  131.8501  130.4716  152.7450 H   0  0  0  0  0  0  0  0  0  0  0  0
  131.6767  129.1898  154.8389 H   0  0  0  0  0  0  0  0  0  0  0  0
  130.6359  130.2063  156.8241 H   0  0  0  0  0  0  0  0  0  0  0  0
  129.0902  134.6164  156.2402 H   0  0  0  0  0  0  0  0  0  0  0  0
  125.4307  134.5719  160.1073 H   0  0  0  0  0  0  0  0  0  0  0  0
  130.2617  135.5765  163.3012 H   0  0  0  0  0  0  0  0  0  0  0  0
  132.5519  135.8992  161.7607 H   0  0  0  0  0  0  0  0  0  0  0  0
  132.2109  137.2597  162.8733 H   0  0  0  0  0  0  0  0  0  0  0  0
  132.8770  139.9747  159.3259 H   0  0  0  0  0  0  0  0  0  0  0  0
  135.3960  140.8361  159.5388 H   0  0  0  0  0  0  0  0  0  0  0  0
  134.2181  141.5966  160.6313 H   0  0  0  0  0  0  0  0  0  0  0  0
  134.8722  140.1596  162.4597 H   0  0  0  0  0  0  0  0  0  0  0  0
  136.3753  140.7974  161.7416 H   0  0  0  0  0  0  0  0  0  0  0  0
  136.6482  138.3894  162.0736 H   0  0  0  0  0  0  0  0  0  0  0  0
  136.4971  138.6977  160.3251 H   0  0  0  0  0  0  0  0  0  0  0  0
  135.0431  136.8360  160.8402 H   0  0  0  0  0  0  0  0  0  0  0  0
  134.3437  137.6921  162.2320 H   0  0  0  0  0  0  0  0  0  0  0  0
  129.6317  137.7027  159.8111 H   0  0  0  0  0  0  0  0  0  0  0  0
  130.5843  136.2386  159.4238 H   0  0  0  0  0  0  0  0  0  0  0  0
  1  2  2  0
  2  3  1  0
  2 14  1  0
  3 13  2  0
  3  4  1  0
  4  5  2  0
  4 35  1  0
  5  6  1  0
  6  7  1  0
  6 13  1  0
  7 12  1  0
  7  8  2  0
  8  9  1  0
  8 36  1  0
  9 10  2  0
  9 37  1  0
 10 11  1  0
 10 38  1  0
 11 12  2  0
 11 39  1  0
 12 40  1  0
 13 41  1  0
 14 19  2  0
 14 15  1  0
 15 16  2  0
 15 42  1  0
 16 17  1  0
 17 18  1  0
 17 19  1  0
 19 20  1  0
 20 34  1  0
 20 21  2  0
 21 22  1  0
 21 43  1  0
 22 23  1  0
 22 44  1  0
 22 45  1  0
 23 24  1  1
 23 25  1  0
 23 34  1  0
 25 26  1  0
 25 27  1  0
 25 28  1  0
 28 33  1  0
 28 29  2  0
 29 30  1  0
 29 46  1  0
 30 31  1  0
 30 47  1  0
 30 48  1  0
 31 32  1  0
 31 49  1  0
 31 50  1  0
 32 33  1  0
 32 51  1  0
 32 52  1  0
 33 53  1  0
 33 54  1  0
 34 55  1  0
 34 56  1  0
M  CHG  1  25   1
M  END
>  <DOCK_score>  (1) 
-49.092022

>  <SMILES>  (1) 
O=C(c1cnn(-c2ccccc2)c1)c1cn[nH]c1C1=CC[C@@H]([NH2+]C2=CCCCC2)C1

$$$$
