Cc1ccc(N)cc1C[NH+]=C(NCCc1cccs1)N[C@H]1C[C@@H](O)C1
     RDKit          3D

 52 54  0  0  1  0  0  0  0  0999 V2000
  132.2178  139.2225  159.4688 C   0  0  0  0  0  0  0  0  0  0  0  0
  132.0903  138.8388  160.9206 C   0  0  0  0  0  0  0  0  0  0  0  0
  133.1047  139.1489  161.8080 C   0  0  0  0  0  0  0  0  0  0  0  0
  132.9910  138.7988  163.1388 C   0  0  0  0  0  0  0  0  0  0  0  0
  131.8558  138.1345  163.5861 C   0  0  0  0  0  0  0  0  0  0  0  0
  131.7374  137.7788  164.9317 N   0  0  0  0  0  0  0  0  0  0  0  0
  130.8365  137.8292  162.6933 C   0  0  0  0  0  0  0  0  0  0  0  0
  130.9593  138.1774  161.3623 C   0  0  0  0  0  0  0  0  0  0  0  0
  129.8566  137.8411  160.3917 C   0  0  0  0  0  0  0  0  0  0  0  0
  130.1042  136.5197  159.8100 N   0  0  0  0  0  0  0  0  0  0  0  0
  130.9171  136.3557  159.3070 H   0  0  0  0  0  0  0  0  0  0  0  0
  129.2318  135.5641  159.9682 C   0  0  0  0  0  0  0  0  0  0  0  0
  129.0959  134.5911  159.0064 N   0  0  0  0  0  0  0  0  0  0  0  0
  129.9316  134.6281  157.8038 C   0  0  0  0  0  0  0  0  0  0  0  0
  129.5829  133.4410  156.9036 C   0  0  0  0  0  0  0  0  0  0  0  0
  129.8320  132.1552  157.6490 C   0  0  0  0  0  0  0  0  0  0  0  0
  130.9813  131.4783  157.6516 C   0  0  0  0  0  0  0  0  0  0  0  0
  130.9757  130.3225  158.4134 C   0  0  0  0  0  0  0  0  0  0  0  0
  129.8190  130.0561  159.0222 C   0  0  0  0  0  0  0  0  0  0  0  0
  128.6494  131.3137  158.6424 S   0  0  0  0  0  0  0  0  0  0  0  0
  128.4475  135.5293  161.0968 N   0  0  0  0  0  0  0  0  0  0  0  0
  127.4670  134.4554  161.2747 C   0  0  1  0  0  0  0  0  0  0  0  0
  127.9220  133.4650  161.2883 H   0  0  0  0  0  0  0  0  0  0  0  0
  126.4892  134.7001  162.4361 C   0  0  0  0  0  0  0  0  0  0  0  0
  125.3893  134.1264  161.5272 C   0  0  1  0  0  0  0  0  0  0  0  0
  125.2752  133.0454  161.6090 H   0  0  0  0  0  0  0  0  0  0  0  0
  124.1461  134.8245  161.6224 O   0  0  0  0  0  0  0  0  0  0  0  0
  126.2550  134.5659  160.3347 C   0  0  0  0  0  0  0  0  0  0  0  0
  131.7985  140.2172  159.3177 H   0  0  0  0  0  0  0  0  0  0  0  0
  133.2702  139.2248  159.1848 H   0  0  0  0  0  0  0  0  0  0  0  0
  131.6771  138.5030  158.8539 H   0  0  0  0  0  0  0  0  0  0  0  0
  133.9867  139.6656  161.4596 H   0  0  0  0  0  0  0  0  0  0  0  0
  133.7835  139.0416  163.8313 H   0  0  0  0  0  0  0  0  0  0  0  0
  132.4483  137.9957  165.5549 H   0  0  0  0  0  0  0  0  0  0  0  0
  130.9444  137.3150  165.2428 H   0  0  0  0  0  0  0  0  0  0  0  0
  129.9509  137.3164  163.0386 H   0  0  0  0  0  0  0  0  0  0  0  0
  129.8306  138.5883  159.5984 H   0  0  0  0  0  0  0  0  0  0  0  0
  128.9008  137.8342  160.9157 H   0  0  0  0  0  0  0  0  0  0  0  0
  128.4467  133.8800  159.1243 H   0  0  0  0  0  0  0  0  0  0  0  0
  130.9819  134.5714  158.0893 H   0  0  0  0  0  0  0  0  0  0  0  0
  129.7514  135.5582  157.2646 H   0  0  0  0  0  0  0  0  0  0  0  0
  130.2047  133.4686  156.0088 H   0  0  0  0  0  0  0  0  0  0  0  0
  128.5325  133.4979  156.6181 H   0  0  0  0  0  0  0  0  0  0  0  0
  131.8511  131.8082  157.1030 H   0  0  0  0  0  0  0  0  0  0  0  0
  131.8410  129.6828  158.5048 H   0  0  0  0  0  0  0  0  0  0  0  0
  129.6298  129.1996  159.6521 H   0  0  0  0  0  0  0  0  0  0  0  0
  128.5433  136.2159  161.7755 H   0  0  0  0  0  0  0  0  0  0  0  0
  126.6930  134.0881  163.3147 H   0  0  0  0  0  0  0  0  0  0  0  0
  126.3515  135.7544  162.6761 H   0  0  0  0  0  0  0  0  0  0  0  0
  124.2010  135.7599  161.3836 H   0  0  0  0  0  0  0  0  0  0  0  0
  126.0533  135.5835  160.0001 H   0  0  0  0  0  0  0  0  0  0  0  0
  126.2697  133.8455  159.5168 H   0  0  0  0  0  0  0  0  0  0  0  0
  1  2  1  0
  1 29  1  0
  1 30  1  0
  1 31  1  0
  2  8  2  0
  2  3  1  0
  3  4  2  0
  3 32  1  0
  4  5  1  0
  4 33  1  0
  5  6  1  0
  5  7  2  0
  6 34  1  0
  6 35  1  0
  7  8  1  0
  7 36  1  0
  8  9  1  0
  9 10  1  0
  9 37  1  0
  9 38  1  0
 10 11  1  0
 12 10  2  0
 12 13  1  0
 12 21  1  0
 13 14  1  0
 13 39  1  0
 14 15  1  0
 14 40  1  0
 14 41  1  0
 15 16  1  0
 15 42  1  0
 15 43  1  0
 16 20  1  0
 16 17  2  0
 17 18  1  0
 17 44  1  0
 18 19  2  0
 18 45  1  0
 19 20  1  0
 19 46  1  0
 21 22  1  0
 21 47  1  0
 22 23  1  1
 22 28  1  0
 22 24  1  0
 24 25  1  0
 24 48  1  0
 24 49  1  0
 25 26  1  1
 25 27  1  0
 25 28  1  0
 27 50  1  0
 28 51  1  0
 28 52  1  0
M  CHG  1  10   1
M  END
>  <DOCK_score>  (1) 
-45.574284

>  <SMILES>  (1) 
Cc1ccc(N)cc1C[NH+]=C(NCCc1cccs1)N[C@H]1C[C@@H](O)C1

$$$$
