Cc1cc(C=Cc2ccc(-c3ccccc3)cc2)cc(NCC[N@@H+]2CCc3ccccc3C2)c1
     RDKit          3D

 67 71  0  0  1  0  0  0  0  0999 V2000
  135.4899  140.2878  159.1759 C   0  0  0  0  0  0  0  0  0  0  0  0
  134.7949  139.2806  160.0556 C   0  0  0  0  0  0  0  0  0  0  0  0
  135.3661  138.9045  161.2539 C   0  0  0  0  0  0  0  0  0  0  0  0
  134.7234  137.9707  162.0715 C   0  0  0  0  0  0  0  0  0  0  0  0
  135.3310  137.5663  163.3518 C   0  0  0  0  0  0  0  0  0  0  0  0
  136.6438  137.7576  163.5623 C   0  0  0  0  0  0  0  0  0  0  0  0
  137.2509  137.3535  164.8416 C   0  0  0  0  0  0  0  0  0  0  0  0
  136.4468  137.1691  165.9709 C   0  0  0  0  0  0  0  0  0  0  0  0
  137.0153  136.7868  167.1646 C   0  0  0  0  0  0  0  0  0  0  0  0
  138.3943  136.5929  167.2508 C   0  0  0  0  0  0  0  0  0  0  0  0
  139.0056  136.1861  168.5389 C   0  0  0  0  0  0  0  0  0  0  0  0
  140.3114  136.5667  168.8449 C   0  0  0  0  0  0  0  0  0  0  0  0
  140.8734  136.1893  170.0473 C   0  0  0  0  0  0  0  0  0  0  0  0
  140.1474  135.4256  170.9438 C   0  0  0  0  0  0  0  0  0  0  0  0
  138.8531  135.0406  170.6433 C   0  0  0  0  0  0  0  0  0  0  0  0
  138.2788  135.4166  169.4463 C   0  0  0  0  0  0  0  0  0  0  0  0
  139.1989  136.7821  166.1267 C   0  0  0  0  0  0  0  0  0  0  0  0
  138.6331  137.1593  164.9302 C   0  0  0  0  0  0  0  0  0  0  0  0
  133.5060  137.4179  161.6677 C   0  0  0  0  0  0  0  0  0  0  0  0
  132.9391  137.8074  160.4646 C   0  0  0  0  0  0  0  0  0  0  0  0
  131.7189  137.2616  160.0584 N   0  0  0  0  0  0  0  0  0  0  0  0
  130.8304  136.6401  161.0435 C   0  0  0  0  0  0  0  0  0  0  0  0
  129.5714  136.1265  160.3422 C   0  0  0  0  0  0  0  0  0  0  0  0
  129.9472  135.1337  159.3267 N   0  0  2  0  0  0  0  0  0  0  0  0
  130.7855  135.4357  158.8533 H   0  0  0  0  0  0  0  0  0  0  0  0
  128.8557  134.9900  158.3512 C   0  0  0  0  0  0  0  0  0  0  0  0
  129.3761  134.1996  157.1499 C   0  0  0  0  0  0  0  0  0  0  0  0
  130.0437  132.9335  157.6228 C   0  0  0  0  0  0  0  0  0  0  0  0
  130.2753  131.9210  156.7049 C   0  0  0  0  0  0  0  0  0  0  0  0
  130.8872  130.7485  157.1007 C   0  0  0  0  0  0  0  0  0  0  0  0
  131.2704  130.5836  158.4189 C   0  0  0  0  0  0  0  0  0  0  0  0
  131.0388  131.5909  159.3338 C   0  0  0  0  0  0  0  0  0  0  0  0
  130.4231  132.7691  158.9380 C   0  0  0  0  0  0  0  0  0  0  0  0
  130.1869  133.8394  159.9712 C   0  0  0  0  0  0  0  0  0  0  0  0
  133.5875  138.7369  159.6588 C   0  0  0  0  0  0  0  0  0  0  0  0
  136.1567  139.7693  158.4868 H   0  0  0  0  0  0  0  0  0  0  0  0
  134.7471  140.8493  158.6094 H   0  0  0  0  0  0  0  0  0  0  0  0
  136.0687  140.9730  159.7953 H   0  0  0  0  0  0  0  0  0  0  0  0
  136.3099  139.3312  161.5599 H   0  0  0  0  0  0  0  0  0  0  0  0
  134.7207  137.1160  164.1207 H   0  0  0  0  0  0  0  0  0  0  0  0
  137.2540  138.2078  162.7933 H   0  0  0  0  0  0  0  0  0  0  0  0
  135.3797  137.3230  165.9054 H   0  0  0  0  0  0  0  0  0  0  0  0
  136.3941  136.6407  168.0359 H   0  0  0  0  0  0  0  0  0  0  0  0
  140.8805  137.1594  168.1440 H   0  0  0  0  0  0  0  0  0  0  0  0
  141.8834  136.4870  170.2873 H   0  0  0  0  0  0  0  0  0  0  0  0
  140.5930  135.1286  171.8818 H   0  0  0  0  0  0  0  0  0  0  0  0
  138.2912  134.4442  171.3468 H   0  0  0  0  0  0  0  0  0  0  0  0
  137.2684  135.1151  169.2125 H   0  0  0  0  0  0  0  0  0  0  0  0
  140.2661  136.6320  166.1954 H   0  0  0  0  0  0  0  0  0  0  0  0
  139.2562  137.3055  164.0602 H   0  0  0  0  0  0  0  0  0  0  0  0
  133.0061  136.6928  162.2928 H   0  0  0  0  0  0  0  0  0  0  0  0
  131.4601  137.2940  159.1241 H   0  0  0  0  0  0  0  0  0  0  0  0
  131.3449  135.8073  161.5227 H   0  0  0  0  0  0  0  0  0  0  0  0
  130.5515  137.3768  161.7969 H   0  0  0  0  0  0  0  0  0  0  0  0
  128.9102  135.6641  161.0750 H   0  0  0  0  0  0  0  0  0  0  0  0
  129.0568  136.9594  159.8631 H   0  0  0  0  0  0  0  0  0  0  0  0
  128.0239  134.4546  158.8090 H   0  0  0  0  0  0  0  0  0  0  0  0
  128.5222  135.9759  158.0272 H   0  0  0  0  0  0  0  0  0  0  0  0
  128.5431  133.9469  156.4940 H   0  0  0  0  0  0  0  0  0  0  0  0
  130.0977  134.8058  156.6023 H   0  0  0  0  0  0  0  0  0  0  0  0
  129.9761  132.0502  155.6752 H   0  0  0  0  0  0  0  0  0  0  0  0
  131.0664  129.9620  156.3826 H   0  0  0  0  0  0  0  0  0  0  0  0
  131.7505  129.6684  158.7322 H   0  0  0  0  0  0  0  0  0  0  0  0
  131.3388  131.4610  160.3632 H   0  0  0  0  0  0  0  0  0  0  0  0
  131.0610  133.9162  160.6178 H   0  0  0  0  0  0  0  0  0  0  0  0
  129.3183  133.5709  160.5725 H   0  0  0  0  0  0  0  0  0  0  0  0
  133.1460  139.0353  158.7195 H   0  0  0  0  0  0  0  0  0  0  0  0
  1  2  1  0
  1 36  1  0
  1 37  1  0
  1 38  1  0
  2 35  2  0
  2  3  1  0
  3  4  2  0
  3 39  1  0
  4  5  1  0
  4 19  1  0
  5  6  2  0
  5 40  1  0
  6  7  1  0
  6 41  1  0
  7 18  1  0
  7  8  2  0
  8  9  1  0
  8 42  1  0
  9 10  2  0
  9 43  1  0
 10 11  1  0
 10 17  1  0
 11 16  1  0
 11 12  2  0
 12 13  1  0
 12 44  1  0
 13 14  2  0
 13 45  1  0
 14 15  1  0
 14 46  1  0
 15 16  2  0
 15 47  1  0
 16 48  1  0
 17 18  2  0
 17 49  1  0
 18 50  1  0
 19 20  2  0
 19 51  1  0
 20 21  1  0
 20 35  1  0
 21 22  1  0
 21 52  1  0
 22 23  1  0
 22 53  1  0
 22 54  1  0
 23 24  1  0
 23 55  1  0
 23 56  1  0
 24 25  1  6
 24 34  1  0
 24 26  1  0
 26 27  1  0
 26 57  1  0
 26 58  1  0
 27 28  1  0
 27 59  1  0
 27 60  1  0
 28 33  2  0
 28 29  1  0
 29 30  2  0
 29 61  1  0
 30 31  1  0
 30 62  1  0
 31 32  2  0
 31 63  1  0
 32 33  1  0
 32 64  1  0
 33 34  1  0
 34 65  1  0
 34 66  1  0
 35 67  1  0
M  CHG  1  24   1
M  END
>  <DOCK_score>  (1) 
-57.922886

>  <SMILES>  (1) 
Cc1cc(C=Cc2ccc(-c3ccccc3)cc2)cc(NCC[N@@H+]2CCc3ccccc3C2)c1

$$$$
