O=C1CC[C@@H](NC(N[C@H]2CCC(=O)NC2)=[NH+]C2CC(=C3CC3)C2)CN1
     RDKit          3D

 53 56  0  0  1  0  0  0  0  0999 V2000
  131.6372  130.2187  155.4996 O   0  0  0  0  0  0  0  0  0  0  0  0
  131.0735  131.1008  156.1123 C   0  0  0  0  0  0  0  0  0  0  0  0
  130.1978  132.0504  155.3465 C   0  0  0  0  0  0  0  0  0  0  0  0
  129.2598  132.7843  156.3079 C   0  0  0  0  0  0  0  0  0  0  0  0
  130.0921  133.3310  157.4741 C   0  0  1  0  0  0  0  0  0  0  0  0
  130.9292  133.9109  157.0857 H   0  0  0  0  0  0  0  0  0  0  0  0
  129.2531  134.1844  158.3190 N   0  0  0  0  0  0  0  0  0  0  0  0
  129.7883  134.7885  159.4321 C   0  0  0  0  0  0  0  0  0  0  0  0
  128.9922  135.0495  160.5222 N   0  0  0  0  0  0  0  0  0  0  0  0
  127.5738  134.6841  160.4977 C   0  0  1  0  0  0  0  0  0  0  0  0
  127.2018  134.7307  159.4743 H   0  0  0  0  0  0  0  0  0  0  0  0
  127.3989  133.2634  161.0481 C   0  0  0  0  0  0  0  0  0  0  0  0
  125.9423  132.8407  160.8427 C   0  0  0  0  0  0  0  0  0  0  0  0
  125.0224  133.9209  161.3347 C   0  0  0  0  0  0  0  0  0  0  0  0
  123.8638  133.6342  161.5501 O   0  0  0  0  0  0  0  0  0  0  0  0
  125.4114  135.1785  161.5478 N   0  0  0  0  0  0  0  0  0  0  0  0
  126.7796  135.6510  161.3769 C   0  0  0  0  0  0  0  0  0  0  0  0
  131.0504  135.1135  159.4539 N   0  0  0  0  0  0  0  0  0  0  0  0
  131.5053  135.3472  158.6298 H   0  0  0  0  0  0  0  0  0  0  0  0
  131.7818  135.1256  160.7233 C   0  0  0  0  0  0  0  0  0  0  0  0
  133.2891  135.3826  160.5687 C   0  0  0  0  0  0  0  0  0  0  0  0
  132.9767  136.8611  160.6628 C   0  0  0  0  0  0  0  0  0  0  0  0
  133.5291  137.9743  160.2481 C   0  0  0  0  0  0  0  0  0  0  0  0
  134.6459  138.6768  159.5200 C   0  0  0  0  0  0  0  0  0  0  0  0
  133.5104  139.4785  160.1594 C   0  0  0  0  0  0  0  0  0  0  0  0
  131.7413  136.4789  161.4501 C   0  0  0  0  0  0  0  0  0  0  0  0
  130.6169  132.1528  158.2957 C   0  0  0  0  0  0  0  0  0  0  0  0
  131.2650  131.1756  157.4299 N   0  0  0  0  0  0  0  0  0  0  0  0
  129.6072  131.4923  154.6199 H   0  0  0  0  0  0  0  0  0  0  0  0
  130.8219  132.7760  154.8248 H   0  0  0  0  0  0  0  0  0  0  0  0
  128.5075  132.0924  156.6865 H   0  0  0  0  0  0  0  0  0  0  0  0
  128.7717  133.6083  155.7875 H   0  0  0  0  0  0  0  0  0  0  0  0
  128.3200  134.3233  158.0932 H   0  0  0  0  0  0  0  0  0  0  0  0
  129.3698  135.4756  161.3076 H   0  0  0  0  0  0  0  0  0  0  0  0
  128.0585  132.5794  160.5143 H   0  0  0  0  0  0  0  0  0  0  0  0
  127.6382  133.2498  162.1115 H   0  0  0  0  0  0  0  0  0  0  0  0
  125.7505  131.9217  161.3966 H   0  0  0  0  0  0  0  0  0  0  0  0
  125.7619  132.6668  159.7819 H   0  0  0  0  0  0  0  0  0  0  0  0
  124.7419  135.8189  161.8349 H   0  0  0  0  0  0  0  0  0  0  0  0
  127.2590  135.7271  162.3528 H   0  0  0  0  0  0  0  0  0  0  0  0
  126.7651  136.6349  160.9082 H   0  0  0  0  0  0  0  0  0  0  0  0
  131.5433  134.2753  161.3621 H   0  0  0  0  0  0  0  0  0  0  0  0
  133.6851  135.0818  159.5988 H   0  0  0  0  0  0  0  0  0  0  0  0
  133.8824  135.0086  161.4031 H   0  0  0  0  0  0  0  0  0  0  0  0
  135.6204  138.7138  160.0069 H   0  0  0  0  0  0  0  0  0  0  0  0
  134.6648  138.6014  158.4328 H   0  0  0  0  0  0  0  0  0  0  0  0
  132.7754  139.9353  159.4967 H   0  0  0  0  0  0  0  0  0  0  0  0
  133.7408  140.0398  161.0649 H   0  0  0  0  0  0  0  0  0  0  0  0
  131.9151  136.4023  162.5235 H   0  0  0  0  0  0  0  0  0  0  0  0
  130.8652  137.0793  161.2047 H   0  0  0  0  0  0  0  0  0  0  0  0
  131.3359  132.5171  159.0293 H   0  0  0  0  0  0  0  0  0  0  0  0
  129.7853  131.6776  158.8159 H   0  0  0  0  0  0  0  0  0  0  0  0
  131.8737  130.5400  157.8376 H   0  0  0  0  0  0  0  0  0  0  0  0
  1  2  2  0
  2 28  1  0
  2  3  1  0
  3  4  1  0
  3 29  1  0
  3 30  1  0
  4  5  1  0
  4 31  1  0
  4 32  1  0
  5  6  1  6
  5  7  1  0
  5 27  1  0
  7 33  1  0
  8  7  1  0
  8  9  1  0
  8 18  2  0
  9 10  1  0
  9 34  1  0
 10 11  1  6
 10 17  1  0
 10 12  1  0
 12 13  1  0
 12 35  1  0
 12 36  1  0
 13 14  1  0
 13 37  1  0
 13 38  1  0
 14 15  2  0
 14 16  1  0
 16 17  1  0
 16 39  1  0
 17 40  1  0
 17 41  1  0
 18 19  1  0
 18 20  1  0
 20 26  1  0
 20 21  1  0
 20 42  1  0
 21 22  1  0
 21 43  1  0
 21 44  1  0
 22 23  2  0
 22 26  1  0
 23 25  1  0
 23 24  1  0
 24 25  1  0
 24 45  1  0
 24 46  1  0
 25 47  1  0
 25 48  1  0
 26 49  1  0
 26 50  1  0
 27 28  1  0
 27 51  1  0
 27 52  1  0
 28 53  1  0
M  CHG  1  18   1
M  END
>  <DOCK_score>  (1) 
-46.144424

>  <SMILES>  (1) 
O=C1CC[C@@H](NC(N[C@H]2CCC(=O)NC2)=[NH+]C2CC(=C3CC3)C2)CN1

$$$$
