CCc1ccc(-c2c[nH]c(N[C@H](CCc3ccccc3)C(F)F)[nH+]2)cc1
     RDKit          3D

 50 52  0  0  1  0  0  0  0  0999 V2000
  130.2246  128.4026  151.6469 C   0  0  0  0  0  0  0  0  0  0  0  0
  131.3450  129.4107  151.9069 C   0  0  0  0  0  0  0  0  0  0  0  0
  131.0387  130.1908  153.1593 C   0  0  0  0  0  0  0  0  0  0  0  0
  131.4840  129.7288  154.3850 C   0  0  0  0  0  0  0  0  0  0  0  0
  131.2064  130.4391  155.5352 C   0  0  0  0  0  0  0  0  0  0  0  0
  130.4762  131.6239  155.4604 C   0  0  0  0  0  0  0  0  0  0  0  0
  130.1746  132.3917  156.6931 C   0  0  0  0  0  0  0  0  0  0  0  0
  129.4732  131.9409  157.7625 C   0  0  0  0  0  0  0  0  0  0  0  0
  129.4309  132.9684  158.6734 N   0  0  0  0  0  0  0  0  0  0  0  0
  129.0011  132.9482  159.5428 H   0  0  0  0  0  0  0  0  0  0  0  0
  130.1084  134.0179  158.1334 C   0  0  0  0  0  0  0  0  0  0  0  0
  130.2991  135.2501  158.7352 N   0  0  0  0  0  0  0  0  0  0  0  0
  129.7481  135.5073  160.0680 C   0  0  2  0  0  0  0  0  0  0  0  0
  128.6646  135.3919  160.0418 H   0  0  0  0  0  0  0  0  0  0  0  0
  130.0988  136.9331  160.4983 C   0  0  0  0  0  0  0  0  0  0  0  0
  129.1473  137.3788  161.6105 C   0  0  0  0  0  0  0  0  0  0  0  0
  129.4928  138.7830  162.0343 C   0  0  0  0  0  0  0  0  0  0  0  0
  128.5044  139.6246  162.5094 C   0  0  0  0  0  0  0  0  0  0  0  0
  128.8222  140.9112  162.9027 C   0  0  0  0  0  0  0  0  0  0  0  0
  130.1265  141.3596  162.8111 C   0  0  0  0  0  0  0  0  0  0  0  0
  131.1141  140.5198  162.3311 C   0  0  0  0  0  0  0  0  0  0  0  0
  130.7972  139.2316  161.9428 C   0  0  0  0  0  0  0  0  0  0  0  0
  130.3429  134.5124  161.0665 C   0  0  0  0  0  0  0  0  0  0  0  0
  129.6741  133.2882  160.9597 F   0  0  0  0  0  0  0  0  0  0  0  0
  131.7013  134.3274  160.7875 F   0  0  0  0  0  0  0  0  0  0  0  0
  130.5514  133.6696  156.9501 N   0  0  0  0  0  0  0  0  0  0  0  0
  131.0666  134.2348  156.3535 H   0  0  0  0  0  0  0  0  0  0  0  0
  130.0256  132.0816  154.2234 C   0  0  0  0  0  0  0  0  0  0  0  0
  130.3147  131.3663  153.0789 C   0  0  0  0  0  0  0  0  0  0  0  0
  130.4463  127.8383  150.7410 H   0  0  0  0  0  0  0  0  0  0  0  0
  130.1484  127.7180  152.4918 H   0  0  0  0  0  0  0  0  0  0  0  0
  129.2805  128.9329  151.5227 H   0  0  0  0  0  0  0  0  0  0  0  0
  131.4219  130.0952  151.0621 H   0  0  0  0  0  0  0  0  0  0  0  0
  132.2898  128.8804  152.0310 H   0  0  0  0  0  0  0  0  0  0  0  0
  132.0494  128.8104  154.4419 H   0  0  0  0  0  0  0  0  0  0  0  0
  131.5544  130.0776  156.4916 H   0  0  0  0  0  0  0  0  0  0  0  0
  129.0327  130.9615  157.8766 H   0  0  0  0  0  0  0  0  0  0  0  0
  130.7974  135.9430  158.2742 H   0  0  0  0  0  0  0  0  0  0  0  0
  131.1248  136.9598  160.8654 H   0  0  0  0  0  0  0  0  0  0  0  0
  130.0005  137.6047  159.6453 H   0  0  0  0  0  0  0  0  0  0  0  0
  128.1213  137.3520  161.2434 H   0  0  0  0  0  0  0  0  0  0  0  0
  129.2457  136.7074  162.4635 H   0  0  0  0  0  0  0  0  0  0  0  0
  127.4846  139.2758  162.5768 H   0  0  0  0  0  0  0  0  0  0  0  0
  128.0506  141.5676  163.2773 H   0  0  0  0  0  0  0  0  0  0  0  0
  130.3741  142.3663  163.1142 H   0  0  0  0  0  0  0  0  0  0  0  0
  132.1332  140.8702  162.2593 H   0  0  0  0  0  0  0  0  0  0  0  0
  131.5686  138.5755  161.5675 H   0  0  0  0  0  0  0  0  0  0  0  0
  130.2295  134.9014  162.0784 H   0  0  0  0  0  0  0  0  0  0  0  0
  129.4554  132.9967  154.1600 H   0  0  0  0  0  0  0  0  0  0  0  0
  129.9701  131.7226  152.1193 H   0  0  0  0  0  0  0  0  0  0  0  0
  1  2  1  0
  1 30  1  0
  1 31  1  0
  1 32  1  0
  2  3  1  0
  2 33  1  0
  2 34  1  0
  3 29  2  0
  3  4  1  0
  4  5  2  0
  4 35  1  0
  5  6  1  0
  5 36  1  0
  6  7  1  0
  6 28  2  0
  7 26  1  0
  7  8  2  0
  8  9  1  0
  8 37  1  0
  9 10  1  0
  9 11  1  0
 11 12  1  0
 11 26  2  0
 12 13  1  0
 12 38  1  0
 13 14  1  6
 13 15  1  0
 13 23  1  0
 15 16  1  0
 15 39  1  0
 15 40  1  0
 16 17  1  0
 16 41  1  0
 16 42  1  0
 17 22  1  0
 17 18  2  0
 18 19  1  0
 18 43  1  0
 19 20  2  0
 19 44  1  0
 20 21  1  0
 20 45  1  0
 21 22  2  0
 21 46  1  0
 22 47  1  0
 23 24  1  0
 23 25  1  0
 23 48  1  0
 26 27  1  0
 28 29  1  0
 28 49  1  0
 29 50  1  0
M  CHG  1  26   1
M  END
>  <DOCK_score>  (1) 
-55.97216

>  <SMILES>  (1) 
CCc1ccc(-c2c[nH]c(N[C@H](CCc3ccccc3)C(F)F)[nH+]2)cc1

$$$$
