CCc1ccc(-c2c[nH]c(Nc3cc(O)cc(O)c3)[nH+]2)cc1
     RDKit          3D

 40 42  0  0  1  0  0  0  0  0999 V2000
  130.1230  128.7632  151.4004 C   0  0  0  0  0  0  0  0  0  0  0  0
  131.3053  129.6655  151.7591 C   0  0  0  0  0  0  0  0  0  0  0  0
  131.0139  130.3859  153.0503 C   0  0  0  0  0  0  0  0  0  0  0  0
  131.3815  129.8156  154.2554 C   0  0  0  0  0  0  0  0  0  0  0  0
  131.1217  130.4730  155.4407 C   0  0  0  0  0  0  0  0  0  0  0  0
  130.4781  131.7092  155.4223 C   0  0  0  0  0  0  0  0  0  0  0  0
  130.1914  132.4183  156.6933 C   0  0  0  0  0  0  0  0  0  0  0  0
  129.4320  131.9499  157.7147 C   0  0  0  0  0  0  0  0  0  0  0  0
  129.4308  132.9190  158.6876 N   0  0  0  0  0  0  0  0  0  0  0  0
  128.9730  132.8753  159.5416 H   0  0  0  0  0  0  0  0  0  0  0  0
  130.1905  133.9526  158.2321 C   0  0  0  0  0  0  0  0  0  0  0  0
  130.4430  135.1310  158.9153 N   0  0  0  0  0  0  0  0  0  0  0  0
  129.8973  135.3326  160.1862 C   0  0  0  0  0  0  0  0  0  0  0  0
  130.7325  135.5368  161.2765 C   0  0  0  0  0  0  0  0  0  0  0  0
  130.1902  135.7413  162.5359 C   0  0  0  0  0  0  0  0  0  0  0  0
  131.0074  135.9460  163.6023 O   0  0  0  0  0  0  0  0  0  0  0  0
  128.8145  135.7325  162.7088 C   0  0  0  0  0  0  0  0  0  0  0  0
  127.9792  135.5229  161.6210 C   0  0  0  0  0  0  0  0  0  0  0  0
  126.6310  135.5135  161.7915 O   0  0  0  0  0  0  0  0  0  0  0  0
  128.5196  135.3230  160.3601 C   0  0  0  0  0  0  0  0  0  0  0  0
  130.6473  133.6471  157.0420 N   0  0  0  0  0  0  0  0  0  0  0  0
  131.2185  134.2108  156.4971 H   0  0  0  0  0  0  0  0  0  0  0  0
  130.1052  132.2768  154.2052 C   0  0  0  0  0  0  0  0  0  0  0  0
  130.3749  131.6129  153.0257 C   0  0  0  0  0  0  0  0  0  0  0  0
  129.2250  129.3698  151.2834 H   0  0  0  0  0  0  0  0  0  0  0  0
  130.3338  128.2421  150.4666 H   0  0  0  0  0  0  0  0  0  0  0  0
  129.9681  128.0345  152.1961 H   0  0  0  0  0  0  0  0  0  0  0  0
  132.2033  129.0592  151.8757 H   0  0  0  0  0  0  0  0  0  0  0  0
  131.4602  130.3946  150.9632 H   0  0  0  0  0  0  0  0  0  0  0  0
  131.8766  128.8559  154.2687 H   0  0  0  0  0  0  0  0  0  0  0  0
  131.4128  130.0286  156.3810 H   0  0  0  0  0  0  0  0  0  0  0  0
  128.9246  130.9973  157.7550 H   0  0  0  0  0  0  0  0  0  0  0  0
  130.9984  135.8162  158.5118 H   0  0  0  0  0  0  0  0  0  0  0  0
  131.8042  135.5397  161.1429 H   0  0  0  0  0  0  0  0  0  0  0  0
  131.9494  135.9314  163.3846 H   0  0  0  0  0  0  0  0  0  0  0  0
  128.3923  135.8874  163.6907 H   0  0  0  0  0  0  0  0  0  0  0  0
  126.1327  135.3605  160.9770 H   0  0  0  0  0  0  0  0  0  0  0  0
  127.8694  135.1593  159.5134 H   0  0  0  0  0  0  0  0  0  0  0  0
  129.6061  133.2343  154.1851 H   0  0  0  0  0  0  0  0  0  0  0  0
  130.0868  132.0518  152.0819 H   0  0  0  0  0  0  0  0  0  0  0  0
  1  2  1  0
  1 25  1  0
  1 26  1  0
  1 27  1  0
  2  3  1  0
  2 28  1  0
  2 29  1  0
  3 24  2  0
  3  4  1  0
  4  5  2  0
  4 30  1  0
  5  6  1  0
  5 31  1  0
  6  7  1  0
  6 23  2  0
  7 21  1  0
  7  8  2  0
  8  9  1  0
  8 32  1  0
  9 10  1  0
  9 11  1  0
 11 12  1  0
 11 21  2  0
 12 13  1  0
 12 33  1  0
 13 20  1  0
 13 14  2  0
 14 15  1  0
 14 34  1  0
 15 16  1  0
 15 17  2  0
 16 35  1  0
 17 18  1  0
 17 36  1  0
 18 19  1  0
 18 20  2  0
 19 37  1  0
 20 38  1  0
 21 22  1  0
 23 24  1  0
 23 39  1  0
 24 40  1  0
M  CHG  1  21   1
M  END
>  <DOCK_score>  (1) 
-50.105362

>  <SMILES>  (1) 
CCc1ccc(-c2c[nH]c(Nc3cc(O)cc(O)c3)[nH+]2)cc1

$$$$
