CCc1ccc(-c2ccc(-c3n[nH]cc3C[NH2+][C@@H](C)c3cc4ccccc4[nH]3)cc2)cc1
     RDKit          3D

 61 65  0  0  1  0  0  0  0  0999 V2000
  130.8386  129.3503  151.7155 C   0  0  0  0  0  0  0  0  0  0  0  0
  131.9346  129.6937  152.7263 C   0  0  0  0  0  0  0  0  0  0  0  0
  131.3441  130.5037  153.8516 C   0  0  0  0  0  0  0  0  0  0  0  0
  130.8355  129.8645  154.9679 C   0  0  0  0  0  0  0  0  0  0  0  0
  130.2935  130.6012  156.0013 C   0  0  0  0  0  0  0  0  0  0  0  0
  130.2594  131.9921  155.9188 C   0  0  0  0  0  0  0  0  0  0  0  0
  129.6778  132.7893  157.0260 C   0  0  0  0  0  0  0  0  0  0  0  0
  129.0708  134.0158  156.7581 C   0  0  0  0  0  0  0  0  0  0  0  0
  128.5311  134.7565  157.7865 C   0  0  0  0  0  0  0  0  0  0  0  0
  128.5913  134.2796  159.0955 C   0  0  0  0  0  0  0  0  0  0  0  0
  128.0096  135.0770  160.2028 C   0  0  0  0  0  0  0  0  0  0  0  0
  126.7497  135.4427  160.3154 N   0  0  0  0  0  0  0  0  0  0  0  0
  126.6147  136.1797  161.4989 N   0  0  0  0  0  0  0  0  0  0  0  0
  125.7938  136.5736  161.8334 H   0  0  0  0  0  0  0  0  0  0  0  0
  127.8244  136.2424  162.0958 C   0  0  0  0  0  0  0  0  0  0  0  0
  128.7074  135.5770  161.3198 C   0  0  0  0  0  0  0  0  0  0  0  0
  130.1766  135.3959  161.6021 C   0  0  0  0  0  0  0  0  0  0  0  0
  130.9312  136.5026  160.9990 N   0  0  0  0  0  0  0  0  0  0  0  0
  130.7786  136.5094  160.0015 H   0  0  0  0  0  0  0  0  0  0  0  0
  130.6183  137.3772  161.3930 H   0  0  0  0  0  0  0  0  0  0  0  0
  132.3634  136.3261  161.2742 C   0  0  1  0  0  0  0  0  0  0  0  0
  132.4957  135.9678  162.2951 H   0  0  0  0  0  0  0  0  0  0  0  0
  132.9487  135.3058  160.2958 C   0  0  0  0  0  0  0  0  0  0  0  0
  133.0730  137.6452  161.1088 C   0  0  0  0  0  0  0  0  0  0  0  0
  133.2601  138.5475  162.0850 C   0  0  0  0  0  0  0  0  0  0  0  0
  133.9916  139.6712  161.4951 C   0  0  0  0  0  0  0  0  0  0  0  0
  134.4709  140.8850  161.9918 C   0  0  0  0  0  0  0  0  0  0  0  0
  135.1274  141.7466  161.1592 C   0  0  0  0  0  0  0  0  0  0  0  0
  135.3227  141.4248  159.8229 C   0  0  0  0  0  0  0  0  0  0  0  0
  134.8585  140.2327  159.3122 C   0  0  0  0  0  0  0  0  0  0  0  0
  134.1868  139.3404  160.1419 C   0  0  0  0  0  0  0  0  0  0  0  0
  133.6170  138.1034  159.9398 N   0  0  0  0  0  0  0  0  0  0  0  0
  133.6031  137.6276  159.0947 H   0  0  0  0  0  0  0  0  0  0  0  0
  129.2034  133.0559  159.3642 C   0  0  0  0  0  0  0  0  0  0  0  0
  129.7384  132.3127  158.3351 C   0  0  0  0  0  0  0  0  0  0  0  0
  130.7685  132.6308  154.7894 C   0  0  0  0  0  0  0  0  0  0  0  0
  131.3124  131.8840  153.7641 C   0  0  0  0  0  0  0  0  0  0  0  0
  131.2657  128.7643  150.9016 H   0  0  0  0  0  0  0  0  0  0  0  0
  130.0576  128.7717  152.2088 H   0  0  0  0  0  0  0  0  0  0  0  0
  130.4117  130.2702  151.3158 H   0  0  0  0  0  0  0  0  0  0  0  0
  132.7155  130.2723  152.2330 H   0  0  0  0  0  0  0  0  0  0  0  0
  132.3615  128.7739  153.1260 H   0  0  0  0  0  0  0  0  0  0  0  0
  130.8622  128.7866  155.0305 H   0  0  0  0  0  0  0  0  0  0  0  0
  129.8964  130.1009  156.8722 H   0  0  0  0  0  0  0  0  0  0  0  0
  129.0242  134.3852  155.7443 H   0  0  0  0  0  0  0  0  0  0  0  0
  128.0609  135.7064  157.5790 H   0  0  0  0  0  0  0  0  0  0  0  0
  128.0472  136.7389  163.0285 H   0  0  0  0  0  0  0  0  0  0  0  0
  130.5147  134.4512  161.1764 H   0  0  0  0  0  0  0  0  0  0  0  0
  130.3414  135.3886  162.6796 H   0  0  0  0  0  0  0  0  0  0  0  0
  132.4355  134.3518  160.4154 H   0  0  0  0  0  0  0  0  0  0  0  0
  132.8164  135.6642  159.2749 H   0  0  0  0  0  0  0  0  0  0  0  0
  134.0114  135.1749  160.5000 H   0  0  0  0  0  0  0  0  0  0  0  0
  132.9348  138.4604  163.1112 H   0  0  0  0  0  0  0  0  0  0  0  0
  134.3229  141.1420  163.0302 H   0  0  0  0  0  0  0  0  0  0  0  0
  135.4977  142.6855  161.5437 H   0  0  0  0  0  0  0  0  0  0  0  0
  135.8441  142.1159  159.1773 H   0  0  0  0  0  0  0  0  0  0  0  0
  135.0157  139.9912  158.2714 H   0  0  0  0  0  0  0  0  0  0  0  0
  129.2542  132.6888  160.3786 H   0  0  0  0  0  0  0  0  0  0  0  0
  130.2085  131.3628  158.5427 H   0  0  0  0  0  0  0  0  0  0  0  0
  130.7406  133.7079  154.7182 H   0  0  0  0  0  0  0  0  0  0  0  0
  131.7103  132.3778  152.8900 H   0  0  0  0  0  0  0  0  0  0  0  0
  1  2  1  0
  1 38  1  0
  1 39  1  0
  1 40  1  0
  2  3  1  0
  2 41  1  0
  2 42  1  0
  3 37  2  0
  3  4  1  0
  4  5  2  0
  4 43  1  0
  5  6  1  0
  5 44  1  0
  6  7  1  0
  6 36  2  0
  7 35  1  0
  7  8  2  0
  8  9  1  0
  8 45  1  0
  9 10  2  0
  9 46  1  0
 10 11  1  0
 10 34  1  0
 11 16  1  0
 11 12  2  0
 12 13  1  0
 13 14  1  0
 13 15  1  0
 15 16  2  0
 15 47  1  0
 16 17  1  0
 17 18  1  0
 17 48  1  0
 17 49  1  0
 18 19  1  0
 18 20  1  0
 18 21  1  0
 21 22  1  1
 21 23  1  0
 21 24  1  0
 23 50  1  0
 23 51  1  0
 23 52  1  0
 24 32  1  0
 24 25  2  0
 25 26  1  0
 25 53  1  0
 26 31  2  0
 26 27  1  0
 27 28  2  0
 27 54  1  0
 28 29  1  0
 28 55  1  0
 29 30  2  0
 29 56  1  0
 30 31  1  0
 30 57  1  0
 31 32  1  0
 32 33  1  0
 34 35  2  0
 34 58  1  0
 35 59  1  0
 36 37  1  0
 36 60  1  0
 37 61  1  0
M  CHG  1  18   1
M  END
>  <DOCK_score>  (1) 
-56.368774

>  <SMILES>  (1) 
CCc1ccc(-c2ccc(-c3n[nH]cc3C[NH2+][C@@H](C)c3cc4ccccc4[nH]3)cc2)cc1

$$$$
