Nc1ccc(Nc2ccc(-c3n[nH]cc3C[NH2+]CC3CC(C4CC4)C3)o2)cc1
     RDKit          3D

 56 60  0  0  1  0  0  0  0  0999 V2000
  129.4437  138.9845  166.0331 N   0  0  0  0  0  0  0  0  0  0  0  0
  128.6925  138.3501  165.0369 C   0  0  0  0  0  0  0  0  0  0  0  0
  128.9737  137.0361  164.6860 C   0  0  0  0  0  0  0  0  0  0  0  0
  128.2330  136.4104  163.7032 C   0  0  0  0  0  0  0  0  0  0  0  0
  127.2062  137.0949  163.0657 C   0  0  0  0  0  0  0  0  0  0  0  0
  126.4555  136.4608  162.0688 N   0  0  0  0  0  0  0  0  0  0  0  0
  127.0382  135.4749  161.2813 C   0  0  0  0  0  0  0  0  0  0  0  0
  126.3924  134.4179  160.7277 C   0  0  0  0  0  0  0  0  0  0  0  0
  127.3544  133.6755  160.0155 C   0  0  0  0  0  0  0  0  0  0  0  0
  128.5421  134.3183  160.1706 C   0  0  0  0  0  0  0  0  0  0  0  0
  129.8359  133.8965  159.5952 C   0  0  0  0  0  0  0  0  0  0  0  0
  130.0414  132.8332  158.8429 N   0  0  0  0  0  0  0  0  0  0  0  0
  131.4006  132.7948  158.5069 N   0  0  0  0  0  0  0  0  0  0  0  0
  131.8327  132.1196  157.9607 H   0  0  0  0  0  0  0  0  0  0  0  0
  132.0059  133.8602  159.0753 C   0  0  0  0  0  0  0  0  0  0  0  0
  131.0709  134.5599  159.7531 C   0  0  0  0  0  0  0  0  0  0  0  0
  131.3050  135.8248  160.5382 C   0  0  0  0  0  0  0  0  0  0  0  0
  131.1223  136.9875  159.6593 N   0  0  0  0  0  0  0  0  0  0  0  0
  131.7803  136.9389  158.8960 H   0  0  0  0  0  0  0  0  0  0  0  0
  130.1820  136.9881  159.2933 H   0  0  0  0  0  0  0  0  0  0  0  0
  131.3506  138.2206  160.4247 C   0  0  0  0  0  0  0  0  0  0  0  0
  132.7764  138.2197  160.9795 C   0  0  2  0  0  0  0  0  0  0  0  0
  133.3104  139.6239  161.3080 C   0  0  0  0  0  0  0  0  0  0  0  0
  134.6580  139.1609  160.7296 C   0  0  2  0  0  0  0  0  0  0  0  0
  135.3660  140.2271  159.8914 C   0  0  0  0  0  0  0  0  0  0  0  0
  136.6194  140.8743  160.4838 C   0  0  0  0  0  0  0  0  0  0  0  0
  135.3159  141.6707  160.3959 C   0  0  0  0  0  0  0  0  0  0  0  0
  133.8608  138.1475  159.8916 C   0  0  0  0  0  0  0  0  0  0  0  0
  128.3378  135.4045  160.9449 O   0  0  0  0  0  0  0  0  0  0  0  0
  126.9281  138.4106  163.4134 C   0  0  0  0  0  0  0  0  0  0  0  0
  127.6656  139.0344  164.4000 C   0  0  0  0  0  0  0  0  0  0  0  0
  130.1106  138.4849  166.5297 H   0  0  0  0  0  0  0  0  0  0  0  0
  129.2976  139.9237  166.2266 H   0  0  0  0  0  0  0  0  0  0  0  0
  129.7721  136.5038  165.1815 H   0  0  0  0  0  0  0  0  0  0  0  0
  128.4523  135.3889  163.4297 H   0  0  0  0  0  0  0  0  0  0  0  0
  125.5285  136.7094  161.9277 H   0  0  0  0  0  0  0  0  0  0  0  0
  125.3406  134.1893  160.8164 H   0  0  0  0  0  0  0  0  0  0  0  0
  127.1816  132.7690  159.4544 H   0  0  0  0  0  0  0  0  0  0  0  0
  133.0543  134.1088  159.0007 H   0  0  0  0  0  0  0  0  0  0  0  0
  130.5942  135.8773  161.3629 H   0  0  0  0  0  0  0  0  0  0  0  0
  132.3208  135.8242  160.9338 H   0  0  0  0  0  0  0  0  0  0  0  0
  131.2150  139.0833  159.7724 H   0  0  0  0  0  0  0  0  0  0  0  0
  130.6397  138.2732  161.2493 H   0  0  0  0  0  0  0  0  0  0  0  0
  132.9169  137.4984  161.7847 H   0  0  0  0  0  0  0  0  0  0  0  0
  132.8366  140.4174  160.7300 H   0  0  0  0  0  0  0  0  0  0  0  0
  133.3445  139.8394  162.3759 H   0  0  0  0  0  0  0  0  0  0  0  0
  135.3136  138.6979  161.4671 H   0  0  0  0  0  0  0  0  0  0  0  0
  135.3423  140.0697  158.8131 H   0  0  0  0  0  0  0  0  0  0  0  0
  136.9395  140.5406  161.4708 H   0  0  0  0  0  0  0  0  0  0  0  0
  137.4206  141.1428  159.7953 H   0  0  0  0  0  0  0  0  0  0  0  0
  135.2596  142.4631  159.6493 H   0  0  0  0  0  0  0  0  0  0  0  0
  134.7787  141.8609  161.3249 H   0  0  0  0  0  0  0  0  0  0  0  0
  134.3392  137.1711  159.8160 H   0  0  0  0  0  0  0  0  0  0  0  0
  133.5370  138.5361  158.9260 H   0  0  0  0  0  0  0  0  0  0  0  0
  126.1327  138.9444  162.9146 H   0  0  0  0  0  0  0  0  0  0  0  0
  127.4467  140.0562  164.6733 H   0  0  0  0  0  0  0  0  0  0  0  0
  1  2  1  0
  1 32  1  0
  1 33  1  0
  2 31  2  0
  2  3  1  0
  3  4  2  0
  3 34  1  0
  4  5  1  0
  4 35  1  0
  5  6  1  0
  5 30  2  0
  6  7  1  0
  6 36  1  0
  7 29  1  0
  7  8  2  0
  8  9  1  0
  8 37  1  0
  9 10  2  0
  9 38  1  0
 10 11  1  0
 10 29  1  0
 11 16  1  0
 11 12  2  0
 12 13  1  0
 13 14  1  0
 13 15  1  0
 15 16  2  0
 15 39  1  0
 16 17  1  0
 17 18  1  0
 17 40  1  0
 17 41  1  0
 18 19  1  0
 18 20  1  0
 18 21  1  0
 21 22  1  0
 21 42  1  0
 21 43  1  0
 22 28  1  0
 22 23  1  0
 22 44  1  1
 23 24  1  0
 23 45  1  0
 23 46  1  0
 24 25  1  0
 24 28  1  0
 24 47  1  1
 25 27  1  0
 25 26  1  0
 25 48  1  0
 26 27  1  0
 26 49  1  0
 26 50  1  0
 27 51  1  0
 27 52  1  0
 28 53  1  0
 28 54  1  0
 30 31  1  0
 30 55  1  0
 31 56  1  0
M  CHG  1  18   1
M  END
>  <DOCK_score>  (1) 
-45.515793

>  <SMILES>  (1) 
Nc1ccc(Nc2ccc(-c3n[nH]cc3C[NH2+]CC3CC(C4CC4)C3)o2)cc1

$$$$
