[NH3+][C@@H](Cc1ccccc1Nc1cccc(O)c1)C(=O)N1CC(=O)C1
     RDKit          3D

 44 46  0  0  1  0  0  0  0  0999 V2000
  132.6156  135.5031  159.6503 N   0  0  0  0  0  0  0  0  0  0  0  0
  133.0416  136.4101  159.7688 H   0  0  0  0  0  0  0  0  0  0  0  0
  133.3147  134.7852  159.7680 H   0  0  0  0  0  0  0  0  0  0  0  0
  132.2177  135.4367  158.7255 H   0  0  0  0  0  0  0  0  0  0  0  0
  131.5568  135.3247  160.6528 C   0  0  1  0  0  0  0  0  0  0  0  0
  130.8016  136.1002  160.5257 H   0  0  0  0  0  0  0  0  0  0  0  0
  130.9109  133.9493  160.4732 C   0  0  0  0  0  0  0  0  0  0  0  0
  130.3165  133.8503  159.0919 C   0  0  0  0  0  0  0  0  0  0  0  0
  131.0789  133.3726  158.0439 C   0  0  0  0  0  0  0  0  0  0  0  0
  130.5342  133.2809  156.7763 C   0  0  0  0  0  0  0  0  0  0  0  0
  129.2251  133.6671  156.5529 C   0  0  0  0  0  0  0  0  0  0  0  0
  128.4574  134.1457  157.5961 C   0  0  0  0  0  0  0  0  0  0  0  0
  129.0014  134.2391  158.8712 C   0  0  0  0  0  0  0  0  0  0  0  0
  128.2276  134.7234  159.9289 N   0  0  0  0  0  0  0  0  0  0  0  0
  127.0496  134.0654  160.2911 C   0  0  0  0  0  0  0  0  0  0  0  0
  126.9299  132.6946  160.0957 C   0  0  0  0  0  0  0  0  0  0  0  0
  125.7672  132.0435  160.4588 C   0  0  0  0  0  0  0  0  0  0  0  0
  124.7160  132.7545  161.0065 C   0  0  0  0  0  0  0  0  0  0  0  0
  124.8278  134.1243  161.1991 C   0  0  0  0  0  0  0  0  0  0  0  0
  123.7932  134.8218  161.7377 O   0  0  0  0  0  0  0  0  0  0  0  0
  125.9950  134.7808  160.8415 C   0  0  0  0  0  0  0  0  0  0  0  0
  132.1511  135.4240  162.0342 C   0  0  0  0  0  0  0  0  0  0  0  0
  133.2995  135.0844  162.2261 O   0  0  0  0  0  0  0  0  0  0  0  0
  131.4064  135.8899  163.0562 N   0  0  0  0  0  0  0  0  0  0  0  0
  130.0331  136.3891  163.2280 C   0  0  0  0  0  0  0  0  0  0  0  0
  130.5339  137.1920  164.4046 C   0  0  0  0  0  0  0  0  0  0  0  0
  130.2254  138.2016  164.9907 O   0  0  0  0  0  0  0  0  0  0  0  0
  131.6086  136.1310  164.4935 C   0  0  0  0  0  0  0  0  0  0  0  0
  130.1253  133.8170  161.2171 H   0  0  0  0  0  0  0  0  0  0  0  0
  131.6662  133.1738  160.6002 H   0  0  0  0  0  0  0  0  0  0  0  0
  132.1014  133.0697  158.2149 H   0  0  0  0  0  0  0  0  0  0  0  0
  131.1325  132.9068  155.9586 H   0  0  0  0  0  0  0  0  0  0  0  0
  128.8015  133.5901  155.5625 H   0  0  0  0  0  0  0  0  0  0  0  0
  127.4350  134.4467  157.4211 H   0  0  0  0  0  0  0  0  0  0  0  0
  128.5082  135.5165  160.4116 H   0  0  0  0  0  0  0  0  0  0  0  0
  127.7481  132.1374  159.6638 H   0  0  0  0  0  0  0  0  0  0  0  0
  125.6774  130.9776  160.3100 H   0  0  0  0  0  0  0  0  0  0  0  0
  123.8064  132.2432  161.2853 H   0  0  0  0  0  0  0  0  0  0  0  0
  123.9645  135.7687  161.8329 H   0  0  0  0  0  0  0  0  0  0  0  0
  126.0838  135.8466  160.9910 H   0  0  0  0  0  0  0  0  0  0  0  0
  129.6876  137.0057  162.3983 H   0  0  0  0  0  0  0  0  0  0  0  0
  129.3194  135.6126  163.5034 H   0  0  0  0  0  0  0  0  0  0  0  0
  131.3316  135.2830  165.1198 H   0  0  0  0  0  0  0  0  0  0  0  0
  132.5948  136.5285  164.7333 H   0  0  0  0  0  0  0  0  0  0  0  0
  1  2  1  0
  1  3  1  0
  1  4  1  0
  1  5  1  0
  5  6  1  1
  5  7  1  0
  5 22  1  0
  7  8  1  0
  7 29  1  0
  7 30  1  0
  8 13  1  0
  8  9  2  0
  9 10  1  0
  9 31  1  0
 10 11  2  0
 10 32  1  0
 11 12  1  0
 11 33  1  0
 12 13  2  0
 12 34  1  0
 13 14  1  0
 14 15  1  0
 14 35  1  0
 15 21  1  0
 15 16  2  0
 16 17  1  0
 16 36  1  0
 17 18  2  0
 17 37  1  0
 18 19  1  0
 18 38  1  0
 19 20  1  0
 19 21  2  0
 20 39  1  0
 21 40  1  0
 22 23  2  0
 22 24  1  0
 24 28  1  0
 24 25  1  0
 25 26  1  0
 25 41  1  0
 25 42  1  0
 26 27  2  0
 26 28  1  0
 28 43  1  0
 28 44  1  0
M  CHG  1   1   1
M  END
>  <DOCK_score>  (1) 
-45.453316

>  <SMILES>  (1) 
[NH3+][C@@H](Cc1ccccc1Nc1cccc(O)c1)C(=O)N1CC(=O)C1

$$$$
