C[C@](O)(c1ccccc1)C(Nc1[nH]cc(-c2ccc(N)cc2)[nH+]1)c1ccccc1
     RDKit          3D

 54 57  0  0  1  0  0  0  0  0999 V2000
  132.7994  135.1486  160.7895 C   0  0  0  0  0  0  0  0  0  0  0  0
  131.3321  135.5426  160.6098 C   0  0  2  0  0  0  0  0  0  0  0  0
  131.2524  136.7448  159.8414 O   0  0  0  0  0  0  0  0  0  0  0  0
  130.7032  135.7673  161.9608 C   0  0  0  0  0  0  0  0  0  0  0  0
  131.1588  135.0649  163.0608 C   0  0  0  0  0  0  0  0  0  0  0  0
  130.5823  135.2713  164.3000 C   0  0  0  0  0  0  0  0  0  0  0  0
  129.5507  136.1800  164.4397 C   0  0  0  0  0  0  0  0  0  0  0  0
  129.0912  136.8792  163.3386 C   0  0  0  0  0  0  0  0  0  0  0  0
  129.6705  136.6757  162.1000 C   0  0  0  0  0  0  0  0  0  0  0  0
  130.5884  134.4214  159.8813 C   0  0  2  0  0  0  0  0  0  0  0  0
  131.1997  134.2030  158.5680 N   0  0  0  0  0  0  0  0  0  0  0  0
  130.6935  133.2310  157.7219 C   0  0  0  0  0  0  0  0  0  0  0  0
  129.6411  132.4128  157.9946 N   0  0  0  0  0  0  0  0  0  0  0  0
  129.1150  132.4053  158.8096 H   0  0  0  0  0  0  0  0  0  0  0  0
  129.4590  131.6008  156.9002 C   0  0  0  0  0  0  0  0  0  0  0  0
  130.4104  131.9404  155.9959 C   0  0  0  0  0  0  0  0  0  0  0  0
  130.6051  131.3245  154.6604 C   0  0  0  0  0  0  0  0  0  0  0  0
  131.4511  130.2262  154.5150 C   0  0  0  0  0  0  0  0  0  0  0  0
  131.6260  129.6516  153.2736 C   0  0  0  0  0  0  0  0  0  0  0  0
  130.9685  130.1746  152.1658 C   0  0  0  0  0  0  0  0  0  0  0  0
  131.1526  129.5947  150.9084 N   0  0  0  0  0  0  0  0  0  0  0  0
  130.1292  131.2727  152.3078 C   0  0  0  0  0  0  0  0  0  0  0  0
  129.9469  131.8468  153.5482 C   0  0  0  0  0  0  0  0  0  0  0  0
  131.1528  132.9435  156.5284 N   0  0  0  0  0  0  0  0  0  0  0  0
  131.9037  133.3782  156.0949 H   0  0  0  0  0  0  0  0  0  0  0  0
  129.1430  134.8095  159.7043 C   0  0  0  0  0  0  0  0  0  0  0  0
  128.2143  134.4751  160.6720 C   0  0  0  0  0  0  0  0  0  0  0  0
  126.8892  134.8353  160.5121 C   0  0  0  0  0  0  0  0  0  0  0  0
  126.4911  135.5208  159.3795 C   0  0  0  0  0  0  0  0  0  0  0  0
  127.4191  135.8506  158.4094 C   0  0  0  0  0  0  0  0  0  0  0  0
  128.7450  135.4949  158.5719 C   0  0  0  0  0  0  0  0  0  0  0  0
  132.8603  134.2315  161.3757 H   0  0  0  0  0  0  0  0  0  0  0  0
  133.2543  134.9859  159.8123 H   0  0  0  0  0  0  0  0  0  0  0  0
  133.3293  135.9474  161.3085 H   0  0  0  0  0  0  0  0  0  0  0  0
  131.6389  136.6733  158.9579 H   0  0  0  0  0  0  0  0  0  0  0  0
  131.9655  134.3550  162.9519 H   0  0  0  0  0  0  0  0  0  0  0  0
  130.9381  134.7224  165.1593 H   0  0  0  0  0  0  0  0  0  0  0  0
  129.1003  136.3411  165.4080 H   0  0  0  0  0  0  0  0  0  0  0  0
  128.2823  137.5864  163.4467 H   0  0  0  0  0  0  0  0  0  0  0  0
  129.3143  137.2242  161.2407 H   0  0  0  0  0  0  0  0  0  0  0  0
  130.6492  133.5045  160.4675 H   0  0  0  0  0  0  0  0  0  0  0  0
  131.9591  134.7393  158.2912 H   0  0  0  0  0  0  0  0  0  0  0  0
  128.7050  130.8363  156.7846 H   0  0  0  0  0  0  0  0  0  0  0  0
  131.9659  129.8229  155.3744 H   0  0  0  0  0  0  0  0  0  0  0  0
  132.2778  128.7979  153.1612 H   0  0  0  0  0  0  0  0  0  0  0  0
  130.6943  129.9587  150.1348 H   0  0  0  0  0  0  0  0  0  0  0  0
  131.7387  128.8281  150.8085 H   0  0  0  0  0  0  0  0  0  0  0  0
  129.6194  131.6769  151.4459 H   0  0  0  0  0  0  0  0  0  0  0  0
  129.2941  132.7002  153.6579 H   0  0  0  0  0  0  0  0  0  0  0  0
  128.5244  133.9357  161.5548 H   0  0  0  0  0  0  0  0  0  0  0  0
  126.1643  134.5774  161.2698 H   0  0  0  0  0  0  0  0  0  0  0  0
  125.4553  135.7983  159.2524 H   0  0  0  0  0  0  0  0  0  0  0  0
  127.1082  136.3857  157.5244 H   0  0  0  0  0  0  0  0  0  0  0  0
  129.4699  135.7522  157.8137 H   0  0  0  0  0  0  0  0  0  0  0  0
  1  2  1  0
  1 32  1  0
  1 33  1  0
  1 34  1  0
  2  3  1  6
  2  4  1  0
  2 10  1  0
  3 35  1  0
  4  9  1  0
  4  5  2  0
  5  6  1  0
  5 36  1  0
  6  7  2  0
  6 37  1  0
  7  8  1  0
  7 38  1  0
  8  9  2  0
  8 39  1  0
  9 40  1  0
 10 11  1  0
 10 26  1  0
 10 41  1  1
 11 42  1  0
 12 11  1  0
 12 24  2  0
 12 13  1  0
 13 14  1  0
 13 15  1  0
 15 16  2  0
 15 43  1  0
 16 17  1  0
 16 24  1  0
 17 23  1  0
 17 18  2  0
 18 19  1  0
 18 44  1  0
 19 20  2  0
 19 45  1  0
 20 21  1  0
 20 22  1  0
 21 46  1  0
 21 47  1  0
 22 23  2  0
 22 48  1  0
 23 49  1  0
 24 25  1  0
 26 31  1  0
 26 27  2  0
 27 28  1  0
 27 50  1  0
 28 29  2  0
 28 51  1  0
 29 30  1  0
 29 52  1  0
 30 31  2  0
 30 53  1  0
 31 54  1  0
M  CHG  1  24   1
M  END
>  <DOCK_score>  (1) 
-63.498302

>  <SMILES>  (1) 
C[C@](O)(c1ccccc1)C(Nc1[nH]cc(-c2ccc(N)cc2)[nH+]1)c1ccccc1

$$$$
