Oc1ccccc1CC1=C[C@H](C[NH2+]C2C=C3CCCCC3C2)C=CC1
     RDKit          3D

 55 58  0  0  1  0  0  0  0  0999 V2000
  125.4655  136.0833  160.2123 O   0  0  0  0  0  0  0  0  0  0  0  0
  125.4563  134.7247  160.2402 C   0  0  0  0  0  0  0  0  0  0  0  0
  124.5930  134.0528  161.0937 C   0  0  0  0  0  0  0  0  0  0  0  0
  124.5853  132.6719  161.1198 C   0  0  0  0  0  0  0  0  0  0  0  0
  125.4370  131.9589  160.2960 C   0  0  0  0  0  0  0  0  0  0  0  0
  126.2943  132.6258  159.4408 C   0  0  0  0  0  0  0  0  0  0  0  0
  126.3095  134.0072  159.4147 C   0  0  0  0  0  0  0  0  0  0  0  0
  127.2480  134.7336  158.4860 C   0  0  0  0  0  0  0  0  0  0  0  0
  128.6158  134.1054  158.5618 C   0  0  0  0  0  0  0  0  0  0  0  0
  129.2296  134.0896  159.7057 C   0  0  0  0  0  0  0  0  0  0  0  0
  130.5939  133.4953  159.8881 C   0  0  2  0  0  0  0  0  0  0  0  0
  130.4950  132.5046  160.3317 H   0  0  0  0  0  0  0  0  0  0  0  0
  131.4074  134.3868  160.8286 C   0  0  0  0  0  0  0  0  0  0  0  0
  131.5276  135.7305  160.2473 N   0  0  0  0  0  0  0  0  0  0  0  0
  131.9936  135.6702  159.3542 H   0  0  0  0  0  0  0  0  0  0  0  0
  130.6081  136.1259  160.1207 H   0  0  0  0  0  0  0  0  0  0  0  0
  132.3088  136.5865  161.1502 C   0  0  1  0  0  0  0  0  0  0  0  0
  132.7824  137.8216  160.4194 C   0  0  0  0  0  0  0  0  0  0  0  0
  132.5606  138.8910  161.1098 C   0  0  0  0  0  0  0  0  0  0  0  0
  133.0942  140.2937  160.8715 C   0  0  0  0  0  0  0  0  0  0  0  0
  133.9044  140.6541  162.1147 C   0  0  0  0  0  0  0  0  0  0  0  0
  133.0832  140.4302  163.3810 C   0  0  0  0  0  0  0  0  0  0  0  0
  132.6785  138.9597  163.5457 C   0  0  0  0  0  0  0  0  0  0  0  0
  131.7735  138.5863  162.3737 C   0  0  2  0  0  0  0  0  0  0  0  0
  131.4179  137.1000  162.3025 C   0  0  0  0  0  0  0  0  0  0  0  0
  131.3130  133.3776  158.5780 C   0  0  0  0  0  0  0  0  0  0  0  0
  130.6992  133.3934  157.4342 C   0  0  0  0  0  0  0  0  0  0  0  0
  129.2116  133.5313  157.3116 C   0  0  0  0  0  0  0  0  0  0  0  0
  124.8369  136.4935  160.8220 H   0  0  0  0  0  0  0  0  0  0  0  0
  123.9274  134.6093  161.7371 H   0  0  0  0  0  0  0  0  0  0  0  0
  123.9138  132.1486  161.7844 H   0  0  0  0  0  0  0  0  0  0  0  0
  125.4294  130.8791  160.3179 H   0  0  0  0  0  0  0  0  0  0  0  0
  126.9555  132.0666  158.7955 H   0  0  0  0  0  0  0  0  0  0  0  0
  127.3125  135.7809  158.7808 H   0  0  0  0  0  0  0  0  0  0  0  0
  126.8732  134.6659  157.4647 H   0  0  0  0  0  0  0  0  0  0  0  0
  128.7359  134.5231  160.5629 H   0  0  0  0  0  0  0  0  0  0  0  0
  130.9041  134.4520  161.7931 H   0  0  0  0  0  0  0  0  0  0  0  0
  132.4008  133.9597  160.9652 H   0  0  0  0  0  0  0  0  0  0  0  0
  133.1600  136.0348  161.5491 H   0  0  0  0  0  0  0  0  0  0  0  0
  133.2471  137.8117  159.4446 H   0  0  0  0  0  0  0  0  0  0  0  0
  133.7253  140.3114  159.9830 H   0  0  0  0  0  0  0  0  0  0  0  0
  132.2694  140.9982  160.7644 H   0  0  0  0  0  0  0  0  0  0  0  0
  134.2044  141.7006  162.0614 H   0  0  0  0  0  0  0  0  0  0  0  0
  134.7953  140.0269  162.1487 H   0  0  0  0  0  0  0  0  0  0  0  0
  132.1830  141.0429  163.3334 H   0  0  0  0  0  0  0  0  0  0  0  0
  133.6743  140.7346  164.2447 H   0  0  0  0  0  0  0  0  0  0  0  0
  132.1395  138.8286  164.4840 H   0  0  0  0  0  0  0  0  0  0  0  0
  133.5681  138.3298  163.5399 H   0  0  0  0  0  0  0  0  0  0  0  0
  130.8639  139.1863  162.3999 H   0  0  0  0  0  0  0  0  0  0  0  0
  130.3629  136.9670  162.0629 H   0  0  0  0  0  0  0  0  0  0  0  0
  131.6684  136.5973  163.2368 H   0  0  0  0  0  0  0  0  0  0  0  0
  132.3881  133.2749  158.5862 H   0  0  0  0  0  0  0  0  0  0  0  0
  131.2858  133.3029  156.5319 H   0  0  0  0  0  0  0  0  0  0  0  0
  128.7758  132.5496  157.1264 H   0  0  0  0  0  0  0  0  0  0  0  0
  128.9815  134.1875  156.4722 H   0  0  0  0  0  0  0  0  0  0  0  0
  1  2  1  0
  1 29  1  0
  2  7  2  0
  2  3  1  0
  3  4  2  0
  3 30  1  0
  4  5  1  0
  4 31  1  0
  5  6  2  0
  5 32  1  0
  6  7  1  0
  6 33  1  0
  7  8  1  0
  8  9  1  0
  8 34  1  0
  8 35  1  0
  9 28  1  0
  9 10  2  0
 10 11  1  0
 10 36  1  0
 11 12  1  1
 11 13  1  0
 11 26  1  0
 13 14  1  0
 13 37  1  0
 13 38  1  0
 14 15  1  0
 14 16  1  0
 14 17  1  0
 17 25  1  0
 17 18  1  0
 17 39  1  1
 18 19  2  0
 18 40  1  0
 19 24  1  0
 19 20  1  0
 20 21  1  0
 20 41  1  0
 20 42  1  0
 21 22  1  0
 21 43  1  0
 21 44  1  0
 22 23  1  0
 22 45  1  0
 22 46  1  0
 23 24  1  0
 23 47  1  0
 23 48  1  0
 24 25  1  0
 24 49  1  6
 25 50  1  0
 25 51  1  0
 26 27  2  0
 26 52  1  0
 27 28  1  0
 27 53  1  0
 28 54  1  0
 28 55  1  0
M  CHG  1  14   1
M  END
>  <DOCK_score>  (1) 
-41.7034

>  <SMILES>  (1) 
Oc1ccccc1CC1=C[C@H](C[NH2+]C2C=C3CCCCC3C2)C=CC1

$$$$
