Cc1cccc(N2CC[NH+]([C@@H](c3ccccc3)c3ccccc3Cl)CC2)c1-c1cnn2ccccc12
     RDKit          3D

 66 71  0  0  1  0  0  0  0  0999 V2000
  136.0870  141.3118  162.6061 C   0  0  0  0  0  0  0  0  0  0  0  0
  135.4429  140.6186  161.4333 C   0  0  0  0  0  0  0  0  0  0  0  0
  135.7553  141.0055  160.1448 C   0  0  0  0  0  0  0  0  0  0  0  0
  135.1626  140.3765  159.0647 C   0  0  0  0  0  0  0  0  0  0  0  0
  134.2561  139.3514  159.2646 C   0  0  0  0  0  0  0  0  0  0  0  0
  133.9364  138.9485  160.5517 C   0  0  0  0  0  0  0  0  0  0  0  0
  133.0213  137.9129  160.7555 N   0  0  0  0  0  0  0  0  0  0  0  0
  133.5262  136.6478  160.2033 C   0  0  0  0  0  0  0  0  0  0  0  0
  132.5240  135.5297  160.4989 C   0  0  0  0  0  0  0  0  0  0  0  0
  131.2262  135.8634  159.8972 N   0  0  0  0  0  0  0  0  0  0  0  0
  131.3368  135.9746  158.9005 H   0  0  0  0  0  0  0  0  0  0  0  0
  130.2695  134.7816  160.1659 C   0  0  1  0  0  0  0  0  0  0  0  0
  130.1505  134.6608  161.2426 H   0  0  0  0  0  0  0  0  0  0  0  0
  128.9381  135.1235  159.5485 C   0  0  0  0  0  0  0  0  0  0  0  0
  127.7701  134.6545  160.1205 C   0  0  0  0  0  0  0  0  0  0  0  0
  126.5486  134.9717  159.5567 C   0  0  0  0  0  0  0  0  0  0  0  0
  126.4952  135.7499  158.4155 C   0  0  0  0  0  0  0  0  0  0  0  0
  127.6634  136.2149  157.8408 C   0  0  0  0  0  0  0  0  0  0  0  0
  128.8847  135.9013  158.4071 C   0  0  0  0  0  0  0  0  0  0  0  0
  130.7842  133.4964  159.5703 C   0  0  0  0  0  0  0  0  0  0  0  0
  131.0145  133.4084  158.2101 C   0  0  0  0  0  0  0  0  0  0  0  0
  131.4915  132.2314  157.6645 C   0  0  0  0  0  0  0  0  0  0  0  0
  131.7277  131.1380  158.4770 C   0  0  0  0  0  0  0  0  0  0  0  0
  131.4929  131.2231  159.8361 C   0  0  0  0  0  0  0  0  0  0  0  0
  131.0210  132.4029  160.3838 C   0  0  0  0  0  0  0  0  0  0  0  0
  130.7252  132.5105  162.0910 Cl  0  0  0  0  0  0  0  0  0  0  0  0
  130.7236  137.1161  160.4764 C   0  0  0  0  0  0  0  0  0  0  0  0
  131.7108  138.2473  160.1805 C   0  0  0  0  0  0  0  0  0  0  0  0
  134.5352  139.5837  161.6475 C   0  0  0  0  0  0  0  0  0  0  0  0
  134.2002  139.1612  163.0271 C   0  0  0  0  0  0  0  0  0  0  0  0
  133.1691  139.6680  163.8230 C   0  0  0  0  0  0  0  0  0  0  0  0
  133.1821  139.0490  164.9799 N   0  0  0  0  0  0  0  0  0  0  0  0
  134.2215  138.1110  164.9917 N   0  0  0  0  0  0  0  0  0  0  0  0
  134.6482  137.2249  165.9392 C   0  0  0  0  0  0  0  0  0  0  0  0
  135.7012  136.4150  165.6997 C   0  0  0  0  0  0  0  0  0  0  0  0
  136.3690  136.4641  164.4655 C   0  0  0  0  0  0  0  0  0  0  0  0
  135.9506  137.3397  163.5095 C   0  0  0  0  0  0  0  0  0  0  0  0
  134.8569  138.1782  163.7785 C   0  0  0  0  0  0  0  0  0  0  0  0
  137.0125  140.7990  162.8677 H   0  0  0  0  0  0  0  0  0  0  0  0
  136.3070  142.3459  162.3410 H   0  0  0  0  0  0  0  0  0  0  0  0
  135.4074  141.2918  163.4580 H   0  0  0  0  0  0  0  0  0  0  0  0
  136.4619  141.8054  159.9800 H   0  0  0  0  0  0  0  0  0  0  0  0
  135.4088  140.6878  158.0603 H   0  0  0  0  0  0  0  0  0  0  0  0
  133.7967  138.8647  158.4171 H   0  0  0  0  0  0  0  0  0  0  0  0
  133.6532  136.7465  159.1253 H   0  0  0  0  0  0  0  0  0  0  0  0
  134.4850  136.4075  160.6624 H   0  0  0  0  0  0  0  0  0  0  0  0
  132.4074  135.4222  161.5774 H   0  0  0  0  0  0  0  0  0  0  0  0
  132.8897  134.5933  160.0779 H   0  0  0  0  0  0  0  0  0  0  0  0
  127.8120  134.0430  161.0097 H   0  0  0  0  0  0  0  0  0  0  0  0
  125.6359  134.6087  160.0058 H   0  0  0  0  0  0  0  0  0  0  0  0
  125.5410  135.9950  157.9730 H   0  0  0  0  0  0  0  0  0  0  0  0
  127.6217  136.8230  156.9492 H   0  0  0  0  0  0  0  0  0  0  0  0
  129.7974  136.2643  157.9579 H   0  0  0  0  0  0  0  0  0  0  0  0
  130.8255  134.2605  157.5742 H   0  0  0  0  0  0  0  0  0  0  0  0
  131.6757  132.1645  156.6024 H   0  0  0  0  0  0  0  0  0  0  0  0
  132.0962  130.2171  158.0494 H   0  0  0  0  0  0  0  0  0  0  0  0
  131.6777  130.3690  160.4707 H   0  0  0  0  0  0  0  0  0  0  0  0
  130.6163  137.0004  161.5549 H   0  0  0  0  0  0  0  0  0  0  0  0
  129.7547  137.3558  160.0385 H   0  0  0  0  0  0  0  0  0  0  0  0
  131.3453  139.1740  160.6229 H   0  0  0  0  0  0  0  0  0  0  0  0
  131.8080  138.3724  159.1021 H   0  0  0  0  0  0  0  0  0  0  0  0
  132.4749  140.4429  163.5331 H   0  0  0  0  0  0  0  0  0  0  0  0
  134.1406  137.1743  166.8911 H   0  0  0  0  0  0  0  0  0  0  0  0
  136.0292  135.7219  166.4602 H   0  0  0  0  0  0  0  0  0  0  0  0
  137.2088  135.8120  164.2754 H   0  0  0  0  0  0  0  0  0  0  0  0
  136.4547  137.3889  162.5556 H   0  0  0  0  0  0  0  0  0  0  0  0
  1  2  1  0
  1 39  1  0
  1 40  1  0
  1 41  1  0
  2 29  2  0
  2  3  1  0
  3  4  2  0
  3 42  1  0
  4  5  1  0
  4 43  1  0
  5  6  2  0
  5 44  1  0
  6  7  1  0
  6 29  1  0
  7 28  1  0
  7  8  1  0
  8  9  1  0
  8 45  1  0
  8 46  1  0
  9 10  1  0
  9 47  1  0
  9 48  1  0
 10 11  1  0
 10 12  1  0
 10 27  1  0
 12 13  1  1
 12 14  1  0
 12 20  1  0
 14 19  1  0
 14 15  2  0
 15 16  1  0
 15 49  1  0
 16 17  2  0
 16 50  1  0
 17 18  1  0
 17 51  1  0
 18 19  2  0
 18 52  1  0
 19 53  1  0
 20 25  1  0
 20 21  2  0
 21 22  1  0
 21 54  1  0
 22 23  2  0
 22 55  1  0
 23 24  1  0
 23 56  1  0
 24 25  2  0
 24 57  1  0
 25 26  1  0
 27 28  1  0
 27 58  1  0
 27 59  1  0
 28 60  1  0
 28 61  1  0
 29 30  1  0
 30 38  2  0
 30 31  1  0
 31 32  2  0
 31 62  1  0
 32 33  1  0
 33 38  1  0
 33 34  1  0
 34 35  2  0
 34 63  1  0
 35 36  1  0
 35 64  1  0
 36 37  2  0
 36 65  1  0
 37 38  1  0
 37 66  1  0
M  CHG  1  10   1
M  END
>  <DOCK_score>  (1) 
-59.615936

>  <SMILES>  (1) 
Cc1cccc(N2CC[NH+]([C@@H](c3ccccc3)c3ccccc3Cl)CC2)c1-c1cnn2ccccc12

$$$$
