Cn1nccc1[C@H](Nc1[nH]cc(-c2ccc(-c3ccccc3)cc2)[nH+]1)C(F)F
     RDKit          3D

 48 51  0  0  1  0  0  0  0  0999 V2000
  131.4967  134.8554  164.1915 C   0  0  0  0  0  0  0  0  0  0  0  0
  132.6204  135.0745  163.2773 N   0  0  0  0  0  0  0  0  0  0  0  0
  133.9700  134.8209  163.5546 N   0  0  0  0  0  0  0  0  0  0  0  0
  134.6715  135.1400  162.4972 C   0  0  0  0  0  0  0  0  0  0  0  0
  133.7920  135.6016  161.5125 C   0  0  0  0  0  0  0  0  0  0  0  0
  132.5381  135.5558  162.0194 C   0  0  0  0  0  0  0  0  0  0  0  0
  131.2754  135.9631  161.3046 C   0  0  2  0  0  0  0  0  0  0  0  0
  130.4412  135.3653  161.6718 H   0  0  0  0  0  0  0  0  0  0  0  0
  131.4368  135.7443  159.8651 N   0  0  0  0  0  0  0  0  0  0  0  0
  131.0853  134.5276  159.3063 C   0  0  0  0  0  0  0  0  0  0  0  0
  130.5868  133.4581  159.9846 N   0  0  0  0  0  0  0  0  0  0  0  0
  130.4150  133.4121  160.9383 H   0  0  0  0  0  0  0  0  0  0  0  0
  130.3716  132.4563  159.0701 C   0  0  0  0  0  0  0  0  0  0  0  0
  130.7445  132.9419  157.8594 C   0  0  0  0  0  0  0  0  0  0  0  0
  130.6886  132.2106  156.5711 C   0  0  0  0  0  0  0  0  0  0  0  0
  129.9123  132.7037  155.5222 C   0  0  0  0  0  0  0  0  0  0  0  0
  129.8609  132.0243  154.3252 C   0  0  0  0  0  0  0  0  0  0  0  0
  130.5849  130.8432  154.1620 C   0  0  0  0  0  0  0  0  0  0  0  0
  130.5295  130.1118  152.8730 C   0  0  0  0  0  0  0  0  0  0  0  0
  130.6854  128.7275  152.8468 C   0  0  0  0  0  0  0  0  0  0  0  0
  130.6286  128.0517  151.6450 C   0  0  0  0  0  0  0  0  0  0  0  0
  130.4272  128.7467  150.4666 C   0  0  0  0  0  0  0  0  0  0  0  0
  130.2766  130.1221  150.4854 C   0  0  0  0  0  0  0  0  0  0  0  0
  130.3267  130.8079  151.6819 C   0  0  0  0  0  0  0  0  0  0  0  0
  131.3564  130.3474  155.2123 C   0  0  0  0  0  0  0  0  0  0  0  0
  131.4126  131.0295  156.4075 C   0  0  0  0  0  0  0  0  0  0  0  0
  131.1831  134.2136  158.0376 N   0  0  0  0  0  0  0  0  0  0  0  0
  131.5143  134.7976  157.3375 H   0  0  0  0  0  0  0  0  0  0  0  0
  130.9958  137.4442  161.5672 C   0  0  0  0  0  0  0  0  0  0  0  0
  131.7959  138.2259  160.7268 F   0  0  0  0  0  0  0  0  0  0  0  0
  129.6475  137.7166  161.3130 F   0  0  0  0  0  0  0  0  0  0  0  0
  131.0536  133.8791  163.9950 H   0  0  0  0  0  0  0  0  0  0  0  0
  131.8534  134.8919  165.2209 H   0  0  0  0  0  0  0  0  0  0  0  0
  130.7473  135.6320  164.0389 H   0  0  0  0  0  0  0  0  0  0  0  0
  135.7439  135.0577  162.4003 H   0  0  0  0  0  0  0  0  0  0  0  0
  134.0655  135.9375  160.5232 H   0  0  0  0  0  0  0  0  0  0  0  0
  131.7900  136.4520  159.3036 H   0  0  0  0  0  0  0  0  0  0  0  0
  129.9804  131.4708  159.2754 H   0  0  0  0  0  0  0  0  0  0  0  0
  129.3515  133.6178  155.6489 H   0  0  0  0  0  0  0  0  0  0  0  0
  129.2601  132.4063  153.5130 H   0  0  0  0  0  0  0  0  0  0  0  0
  130.8466  128.1839  153.7661 H   0  0  0  0  0  0  0  0  0  0  0  0
  130.7457  126.9783  151.6240 H   0  0  0  0  0  0  0  0  0  0  0  0
  130.3872  128.2142  149.5278 H   0  0  0  0  0  0  0  0  0  0  0  0
  130.1200  130.6600  149.5620 H   0  0  0  0  0  0  0  0  0  0  0  0
  130.2096  131.8815  151.6956 H   0  0  0  0  0  0  0  0  0  0  0  0
  131.9134  129.4307  155.0870 H   0  0  0  0  0  0  0  0  0  0  0  0
  132.0137  130.6476  157.2195 H   0  0  0  0  0  0  0  0  0  0  0  0
  131.2242  137.6783  162.6071 H   0  0  0  0  0  0  0  0  0  0  0  0
  1  2  1  0
  1 32  1  0
  1 33  1  0
  1 34  1  0
  2  6  1  0
  2  3  1  0
  3  4  2  0
  4  5  1  0
  4 35  1  0
  5  6  2  0
  5 36  1  0
  6  7  1  0
  7  8  1  1
  7  9  1  0
  7 29  1  0
  9 37  1  0
 10  9  1  0
 10 27  2  0
 10 11  1  0
 11 12  1  0
 11 13  1  0
 13 14  2  0
 13 38  1  0
 14 15  1  0
 14 27  1  0
 15 26  1  0
 15 16  2  0
 16 17  1  0
 16 39  1  0
 17 18  2  0
 17 40  1  0
 18 19  1  0
 18 25  1  0
 19 24  1  0
 19 20  2  0
 20 21  1  0
 20 41  1  0
 21 22  2  0
 21 42  1  0
 22 23  1  0
 22 43  1  0
 23 24  2  0
 23 44  1  0
 24 45  1  0
 25 26  2  0
 25 46  1  0
 26 47  1  0
 27 28  1  0
 29 30  1  0
 29 31  1  0
 29 48  1  0
M  CHG  1  27   1
M  END
>  <DOCK_score>  (1) 
-59.077759

>  <SMILES>  (1) 
Cn1nccc1[C@H](Nc1[nH]cc(-c2ccc(-c3ccccc3)cc2)[nH+]1)C(F)F

$$$$
