CC(c1cccc(Br)c1F)[C@H](Nc1[nH]cc(-c2cccnc2)[nH+]1)c1ccnn1C
     RDKit          3D

 50 53  0  0  1  0  0  0  0  0999 V2000
  128.6853  137.4979  161.2166 C   0  0  0  0  0  0  0  0  0  0  0  0
  129.7724  137.0081  160.2578 C   0  0  1  0  0  0  0  0  0  0  0  0
  131.0976  136.9772  160.9746 C   0  0  0  0  0  0  0  0  0  0  0  0
  132.1523  137.7415  160.5115 C   0  0  0  0  0  0  0  0  0  0  0  0
  133.3681  137.7137  161.1682 C   0  0  0  0  0  0  0  0  0  0  0  0
  133.5317  136.9209  162.2891 C   0  0  0  0  0  0  0  0  0  0  0  0
  132.4785  136.1556  162.7547 C   0  0  0  0  0  0  0  0  0  0  0  0
  132.7019  135.0717  164.2880 Br  0  0  0  0  0  0  0  0  0  0  0  0
  131.2609  136.1790  162.0936 C   0  0  0  0  0  0  0  0  0  0  0  0
  130.2327  135.4273  162.5438 F   0  0  0  0  0  0  0  0  0  0  0  0
  129.4244  135.6010  159.7683 C   0  0  2  0  0  0  0  0  0  0  0  0
  129.3605  134.9250  160.6210 H   0  0  0  0  0  0  0  0  0  0  0  0
  130.4653  135.1319  158.8502 N   0  0  0  0  0  0  0  0  0  0  0  0
  130.3666  133.8764  158.2752 C   0  0  0  0  0  0  0  0  0  0  0  0
  129.7680  132.7916  158.8380 N   0  0  0  0  0  0  0  0  0  0  0  0
  129.3373  132.7591  159.7066 H   0  0  0  0  0  0  0  0  0  0  0  0
  129.8836  131.7517  157.9478 C   0  0  0  0  0  0  0  0  0  0  0  0
  130.5565  132.2284  156.8712 C   0  0  0  0  0  0  0  0  0  0  0  0
  130.9193  131.4573  155.6571 C   0  0  0  0  0  0  0  0  0  0  0  0
  131.0203  132.0926  154.4159 C   0  0  0  0  0  0  0  0  0  0  0  0
  131.3679  131.3300  153.3146 C   0  0  0  0  0  0  0  0  0  0  0  0
  131.5906  129.9741  153.4735 C   0  0  0  0  0  0  0  0  0  0  0  0
  131.4824  129.4013  154.6566 N   0  0  0  0  0  0  0  0  0  0  0  0
  131.1596  130.0870  155.7341 C   0  0  0  0  0  0  0  0  0  0  0  0
  130.8394  133.5352  157.1014 N   0  0  0  0  0  0  0  0  0  0  0  0
  131.3152  134.1230  156.4940 H   0  0  0  0  0  0  0  0  0  0  0  0
  128.0991  135.6320  159.0514 C   0  0  0  0  0  0  0  0  0  0  0  0
  127.9123  135.8492  157.7289 C   0  0  0  0  0  0  0  0  0  0  0  0
  126.5382  135.7940  157.4737 C   0  0  0  0  0  0  0  0  0  0  0  0
  125.9216  135.5601  158.6037 N   0  0  0  0  0  0  0  0  0  0  0  0
  126.8856  135.4538  159.6144 N   0  0  0  0  0  0  0  0  0  0  0  0
  126.6230  135.1954  161.0323 C   0  0  0  0  0  0  0  0  0  0  0  0
  127.7268  137.5203  160.6982 H   0  0  0  0  0  0  0  0  0  0  0  0
  128.6215  136.8219  162.0693 H   0  0  0  0  0  0  0  0  0  0  0  0
  128.9333  138.5004  161.5654 H   0  0  0  0  0  0  0  0  0  0  0  0
  129.8362  137.6840  159.4051 H   0  0  0  0  0  0  0  0  0  0  0  0
  132.0260  138.3608  159.6356 H   0  0  0  0  0  0  0  0  0  0  0  0
  134.1911  138.3115  160.8054 H   0  0  0  0  0  0  0  0  0  0  0  0
  134.4823  136.8996  162.8012 H   0  0  0  0  0  0  0  0  0  0  0  0
  131.2235  135.7010  158.6453 H   0  0  0  0  0  0  0  0  0  0  0  0
  129.5132  130.7461  158.0814 H   0  0  0  0  0  0  0  0  0  0  0  0
  130.8360  133.1524  154.3197 H   0  0  0  0  0  0  0  0  0  0  0  0
  131.4597  131.7876  152.3406 H   0  0  0  0  0  0  0  0  0  0  0  0
  131.8576  129.3751  152.6154 H   0  0  0  0  0  0  0  0  0  0  0  0
  131.0808  129.5825  156.6859 H   0  0  0  0  0  0  0  0  0  0  0  0
  128.6874  136.0307  156.9991 H   0  0  0  0  0  0  0  0  0  0  0  0
  126.0673  135.9256  156.5107 H   0  0  0  0  0  0  0  0  0  0  0  0
  126.5581  136.1425  161.5683 H   0  0  0  0  0  0  0  0  0  0  0  0
  125.6821  134.6548  161.1349 H   0  0  0  0  0  0  0  0  0  0  0  0
  127.4332  134.5970  161.4489 H   0  0  0  0  0  0  0  0  0  0  0  0
  1  2  1  0
  1 33  1  0
  1 34  1  0
  1 35  1  0
  2  3  1  0
  2 11  1  0
  2 36  1  6
  3  9  1  0
  3  4  2  0
  4  5  1  0
  4 37  1  0
  5  6  2  0
  5 38  1  0
  6  7  1  0
  6 39  1  0
  7  8  1  0
  7  9  2  0
  9 10  1  0
 11 12  1  1
 11 13  1  0
 11 27  1  0
 13 40  1  0
 14 13  1  0
 14 25  2  0
 14 15  1  0
 15 16  1  0
 15 17  1  0
 17 18  2  0
 17 41  1  0
 18 19  1  0
 18 25  1  0
 19 24  1  0
 19 20  2  0
 20 21  1  0
 20 42  1  0
 21 22  2  0
 21 43  1  0
 22 23  1  0
 22 44  1  0
 23 24  2  0
 24 45  1  0
 25 26  1  0
 27 31  1  0
 27 28  2  0
 28 29  1  0
 28 46  1  0
 29 30  2  0
 29 47  1  0
 30 31  1  0
 31 32  1  0
 32 48  1  0
 32 49  1  0
 32 50  1  0
M  CHG  1  25   1
M  END
>  <DOCK_score>  (1) 
-57.36573

>  <SMILES>  (1) 
CC(c1cccc(Br)c1F)[C@H](Nc1[nH]cc(-c2cccnc2)[nH+]1)c1ccnn1C

$$$$
