CCc1ccc(-c2c[nH]c(N[C@H](CC3CCC3)c3ccccc3)[nH+]2)cc1
     RDKit          3D

 54 57  0  0  1  0  0  0  0  0999 V2000
  130.5883  128.4456  151.8016 C   0  0  0  0  0  0  0  0  0  0  0  0
  131.6612  129.4816  152.1416 C   0  0  0  0  0  0  0  0  0  0  0  0
  131.2615  130.2285  153.3881 C   0  0  0  0  0  0  0  0  0  0  0  0
  131.6518  129.7572  154.6283 C   0  0  0  0  0  0  0  0  0  0  0  0
  131.2936  130.4400  155.7729 C   0  0  0  0  0  0  0  0  0  0  0  0
  130.5273  131.6004  155.6780 C   0  0  0  0  0  0  0  0  0  0  0  0
  130.1345  132.3355  156.9049 C   0  0  0  0  0  0  0  0  0  0  0  0
  129.3991  131.8401  157.9310 C   0  0  0  0  0  0  0  0  0  0  0  0
  129.2711  132.8498  158.8535 N   0  0  0  0  0  0  0  0  0  0  0  0
  128.7970  132.7994  159.6983 H   0  0  0  0  0  0  0  0  0  0  0  0
  129.9326  133.9337  158.3639 C   0  0  0  0  0  0  0  0  0  0  0  0
  130.0436  135.1622  158.9922 N   0  0  0  0  0  0  0  0  0  0  0  0
  128.9772  135.6293  159.8815 C   0  0  2  0  0  0  0  0  0  0  0  0
  128.8542  134.9235  160.7030 H   0  0  0  0  0  0  0  0  0  0  0  0
  127.6675  135.7321  159.0972 C   0  0  0  0  0  0  0  0  0  0  0  0
  126.4878  135.7253  160.0713 C   0  0  0  0  0  0  0  0  0  0  0  0
  126.3723  134.4286  160.8900 C   0  0  0  0  0  0  0  0  0  0  0  0
  124.8508  134.5317  160.6914 C   0  0  0  0  0  0  0  0  0  0  0  0
  125.1509  135.3384  159.4171 C   0  0  0  0  0  0  0  0  0  0  0  0
  129.3402  136.9838  160.4330 C   0  0  0  0  0  0  0  0  0  0  0  0
  128.8856  137.3664  161.6811 C   0  0  0  0  0  0  0  0  0  0  0  0
  129.2224  138.6072  162.1889 C   0  0  0  0  0  0  0  0  0  0  0  0
  130.0059  139.4691  161.4447 C   0  0  0  0  0  0  0  0  0  0  0  0
  130.4562  139.0887  160.1943 C   0  0  0  0  0  0  0  0  0  0  0  0
  130.1232  137.8461  159.6884 C   0  0  0  0  0  0  0  0  0  0  0  0
  130.4521  133.6206  157.2020 N   0  0  0  0  0  0  0  0  0  0  0  0
  130.9776  134.2138  156.6427 H   0  0  0  0  0  0  0  0  0  0  0  0
  130.1321  132.0676  154.4257 C   0  0  0  0  0  0  0  0  0  0  0  0
  130.5009  131.3799  153.2875 C   0  0  0  0  0  0  0  0  0  0  0  0
  129.6364  128.9494  151.6337 H   0  0  0  0  0  0  0  0  0  0  0  0
  130.8774  127.9056  150.8999 H   0  0  0  0  0  0  0  0  0  0  0  0
  130.4868  127.7433  152.6289 H   0  0  0  0  0  0  0  0  0  0  0  0
  132.6130  128.9784  152.3090 H   0  0  0  0  0  0  0  0  0  0  0  0
  131.7627  130.1846  151.3139 H   0  0  0  0  0  0  0  0  0  0  0  0
  132.2416  128.8553  154.7009 H   0  0  0  0  0  0  0  0  0  0  0  0
  131.6029  130.0736  156.7407 H   0  0  0  0  0  0  0  0  0  0  0  0
  128.9917  130.8429  158.0079 H   0  0  0  0  0  0  0  0  0  0  0  0
  130.8276  135.7138  158.8437 H   0  0  0  0  0  0  0  0  0  0  0  0
  127.6596  136.6587  158.5233 H   0  0  0  0  0  0  0  0  0  0  0  0
  127.5830  134.8835  158.4183 H   0  0  0  0  0  0  0  0  0  0  0  0
  126.4325  136.6309  160.6754 H   0  0  0  0  0  0  0  0  0  0  0  0
  126.8188  133.5625  160.4014 H   0  0  0  0  0  0  0  0  0  0  0  0
  126.6856  134.5384  161.9282 H   0  0  0  0  0  0  0  0  0  0  0  0
  124.3477  135.1102  161.4661 H   0  0  0  0  0  0  0  0  0  0  0  0
  124.3699  133.5728  160.4980 H   0  0  0  0  0  0  0  0  0  0  0  0
  124.4782  136.1827  159.2664 H   0  0  0  0  0  0  0  0  0  0  0  0
  125.2635  134.7223  158.5250 H   0  0  0  0  0  0  0  0  0  0  0  0
  128.2702  136.6945  162.2610 H   0  0  0  0  0  0  0  0  0  0  0  0
  128.8708  138.9044  163.1659 H   0  0  0  0  0  0  0  0  0  0  0  0
  130.2667  140.4397  161.8403 H   0  0  0  0  0  0  0  0  0  0  0  0
  131.0684  139.7621  159.6129 H   0  0  0  0  0  0  0  0  0  0  0  0
  130.4750  137.5489  158.7116 H   0  0  0  0  0  0  0  0  0  0  0  0
  129.5381  132.9661  154.3464 H   0  0  0  0  0  0  0  0  0  0  0  0
  130.1950  131.7408  152.3167 H   0  0  0  0  0  0  0  0  0  0  0  0
  1  2  1  0
  1 30  1  0
  1 31  1  0
  1 32  1  0
  2  3  1  0
  2 33  1  0
  2 34  1  0
  3 29  2  0
  3  4  1  0
  4  5  2  0
  4 35  1  0
  5  6  1  0
  5 36  1  0
  6  7  1  0
  6 28  2  0
  7 26  1  0
  7  8  2  0
  8  9  1  0
  8 37  1  0
  9 10  1  0
  9 11  1  0
 11 12  1  0
 11 26  2  0
 12 13  1  0
 12 38  1  0
 13 14  1  1
 13 15  1  0
 13 20  1  0
 15 16  1  0
 15 39  1  0
 15 40  1  0
 16 19  1  0
 16 17  1  0
 16 41  1  0
 17 18  1  0
 17 42  1  0
 17 43  1  0
 18 19  1  0
 18 44  1  0
 18 45  1  0
 19 46  1  0
 19 47  1  0
 20 25  1  0
 20 21  2  0
 21 22  1  0
 21 48  1  0
 22 23  2  0
 22 49  1  0
 23 24  1  0
 23 50  1  0
 24 25  2  0
 24 51  1  0
 25 52  1  0
 26 27  1  0
 28 29  1  0
 28 53  1  0
 29 54  1  0
M  CHG  1  26   1
M  END
>  <DOCK_score>  (1) 
-60.345009

>  <SMILES>  (1) 
CCc1ccc(-c2c[nH]c(N[C@H](CC3CCC3)c3ccccc3)[nH+]2)cc1

$$$$
