CCc1ccc(-c2c[nH]c(N[C@@H](CO)c3cccc(C#N)c3)[nH+]2)cc1
     RDKit          3D

 46 48  0  0  1  0  0  0  0  0999 V2000
  130.3532  128.5452  151.6039 C   0  0  0  0  0  0  0  0  0  0  0  0
  131.4745  129.5213  151.9651 C   0  0  0  0  0  0  0  0  0  0  0  0
  131.1163  130.2506  153.2343 C   0  0  0  0  0  0  0  0  0  0  0  0
  131.4914  129.7278  154.4583 C   0  0  0  0  0  0  0  0  0  0  0  0
  131.1712  130.3940  155.6238 C   0  0  0  0  0  0  0  0  0  0  0  0
  130.4583  131.5902  155.5661 C   0  0  0  0  0  0  0  0  0  0  0  0
  130.1063  132.3081  156.8155 C   0  0  0  0  0  0  0  0  0  0  0  0
  129.3549  131.8183  157.8327 C   0  0  0  0  0  0  0  0  0  0  0  0
  129.2784  132.8068  158.7836 N   0  0  0  0  0  0  0  0  0  0  0  0
  128.8069  132.7549  159.6296 H   0  0  0  0  0  0  0  0  0  0  0  0
  129.9860  133.8726  158.3192 C   0  0  0  0  0  0  0  0  0  0  0  0
  130.1566  135.0770  158.9802 N   0  0  0  0  0  0  0  0  0  0  0  0
  129.5473  135.2828  160.2966 C   0  0  1  0  0  0  0  0  0  0  0  0
  129.9342  134.5415  160.9958 H   0  0  0  0  0  0  0  0  0  0  0  0
  129.8867  136.6866  160.8017 C   0  0  0  0  0  0  0  0  0  0  0  0
  131.3051  136.8251  160.9064 O   0  0  0  0  0  0  0  0  0  0  0  0
  128.0515  135.1367  160.1862 C   0  0  0  0  0  0  0  0  0  0  0  0
  127.3216  134.6736  161.2667 C   0  0  0  0  0  0  0  0  0  0  0  0
  125.9475  134.5409  161.1758 C   0  0  0  0  0  0  0  0  0  0  0  0
  125.2968  134.8602  160.0018 C   0  0  0  0  0  0  0  0  0  0  0  0
  126.0276  135.3230  158.9060 C   0  0  0  0  0  0  0  0  0  0  0  0
  125.3589  135.6557  157.6842 C   0  0  0  0  0  0  0  0  0  0  0  0
  124.8284  135.9197  156.7150 N   0  0  0  0  0  0  0  0  0  0  0  0
  127.4138  135.4594  159.0065 C   0  0  0  0  0  0  0  0  0  0  0  0
  130.4840  133.5686  157.1455 N   0  0  0  0  0  0  0  0  0  0  0  0
  131.0329  134.1526  156.5991 H   0  0  0  0  0  0  0  0  0  0  0  0
  130.0778  132.1097  154.3300 C   0  0  0  0  0  0  0  0  0  0  0  0
  130.4085  131.4379  153.1707 C   0  0  0  0  0  0  0  0  0  0  0  0
  130.6122  128.0179  150.6858 H   0  0  0  0  0  0  0  0  0  0  0  0
  130.2243  127.8254  152.4122 H   0  0  0  0  0  0  0  0  0  0  0  0
  129.4244  129.0964  151.4567 H   0  0  0  0  0  0  0  0  0  0  0  0
  132.4030  128.9708  152.1118 H   0  0  0  0  0  0  0  0  0  0  0  0
  131.6031  130.2417  151.1563 H   0  0  0  0  0  0  0  0  0  0  0  0
  132.0397  128.7983  154.5021 H   0  0  0  0  0  0  0  0  0  0  0  0
  131.4687  129.9871  156.5789 H   0  0  0  0  0  0  0  0  0  0  0  0
  128.9028  130.8389  157.8850 H   0  0  0  0  0  0  0  0  0  0  0  0
  130.6797  135.7845  158.5718 H   0  0  0  0  0  0  0  0  0  0  0  0
  129.4998  137.4278  160.1025 H   0  0  0  0  0  0  0  0  0  0  0  0
  129.4334  136.8397  161.7811 H   0  0  0  0  0  0  0  0  0  0  0  0
  131.7180  136.1958  161.5136 H   0  0  0  0  0  0  0  0  0  0  0  0
  127.8265  134.4180  162.1866 H   0  0  0  0  0  0  0  0  0  0  0  0
  125.3834  134.1828  162.0242 H   0  0  0  0  0  0  0  0  0  0  0  0
  124.2245  134.7519  159.9306 H   0  0  0  0  0  0  0  0  0  0  0  0
  127.9852  135.8166  158.1626 H   0  0  0  0  0  0  0  0  0  0  0  0
  129.5251  133.0363  154.2794 H   0  0  0  0  0  0  0  0  0  0  0  0
  130.1139  131.8394  152.2124 H   0  0  0  0  0  0  0  0  0  0  0  0
  1  2  1  0
  1 29  1  0
  1 30  1  0
  1 31  1  0
  2  3  1  0
  2 32  1  0
  2 33  1  0
  3 28  2  0
  3  4  1  0
  4  5  2  0
  4 34  1  0
  5  6  1  0
  5 35  1  0
  6  7  1  0
  6 27  2  0
  7 25  1  0
  7  8  2  0
  8  9  1  0
  8 36  1  0
  9 10  1  0
  9 11  1  0
 11 12  1  0
 11 25  2  0
 12 13  1  0
 12 37  1  0
 13 14  1  1
 13 15  1  0
 13 17  1  0
 15 16  1  0
 15 38  1  0
 15 39  1  0
 16 40  1  0
 17 24  1  0
 17 18  2  0
 18 19  1  0
 18 41  1  0
 19 20  2  0
 19 42  1  0
 20 21  1  0
 20 43  1  0
 21 22  1  0
 21 24  2  0
 22 23  3  0
 24 44  1  0
 25 26  1  0
 27 28  1  0
 27 45  1  0
 28 46  1  0
M  CHG  1  25   1
M  END
>  <DOCK_score>  (1) 
-57.400028

>  <SMILES>  (1) 
CCc1ccc(-c2c[nH]c(N[C@@H](CO)c3cccc(C#N)c3)[nH+]2)cc1

$$$$
