Nc1ccc(-c2c[nH]c(Nc3ccc(-c4n[nH]cc4C[NH2+]C[C@H]4C=CCCC4)o3)n2)cc1
     RDKit          3D

 60 64  0  0  1  0  0  0  0  0999 V2000
  126.7280  142.4915  168.0976 N   0  0  0  0  0  0  0  0  0  0  0  0
  126.8620  141.4913  167.1316 C   0  0  0  0  0  0  0  0  0  0  0  0
  126.0708  141.5195  165.9892 C   0  0  0  0  0  0  0  0  0  0  0  0
  126.2014  140.5333  165.0344 C   0  0  0  0  0  0  0  0  0  0  0  0
  127.1282  139.5076  165.2153 C   0  0  0  0  0  0  0  0  0  0  0  0
  127.2700  138.4452  164.1897 C   0  0  0  0  0  0  0  0  0  0  0  0
  128.4042  137.7586  163.9037 C   0  0  0  0  0  0  0  0  0  0  0  0
  128.0914  136.8722  162.9011 N   0  0  0  0  0  0  0  0  0  0  0  0
  128.6965  136.2386  162.4848 H   0  0  0  0  0  0  0  0  0  0  0  0
  126.7764  137.0500  162.5982 C   0  0  0  0  0  0  0  0  0  0  0  0
  126.0686  136.3503  161.6347 N   0  0  0  0  0  0  0  0  0  0  0  0
  126.7055  135.3743  160.8756 C   0  0  0  0  0  0  0  0  0  0  0  0
  126.1188  134.2687  160.3529 C   0  0  0  0  0  0  0  0  0  0  0  0
  127.1194  133.5621  159.6575 C   0  0  0  0  0  0  0  0  0  0  0  0
  128.2716  134.2694  159.7990 C   0  0  0  0  0  0  0  0  0  0  0  0
  129.5874  133.9019  159.2362 C   0  0  0  0  0  0  0  0  0  0  0  0
  129.8500  132.8333  158.5098 N   0  0  0  0  0  0  0  0  0  0  0  0
  131.2103  132.8578  158.1769 N   0  0  0  0  0  0  0  0  0  0  0  0
  131.6785  132.1934  157.6473 H   0  0  0  0  0  0  0  0  0  0  0  0
  131.7566  133.9694  158.7158 C   0  0  0  0  0  0  0  0  0  0  0  0
  130.7859  134.6323  159.3802 C   0  0  0  0  0  0  0  0  0  0  0  0
  130.9516  135.9258  160.1357 C   0  0  0  0  0  0  0  0  0  0  0  0
  132.3501  136.3670  160.0502 N   0  0  0  0  0  0  0  0  0  0  0  0
  132.5997  136.5082  159.0828 H   0  0  0  0  0  0  0  0  0  0  0  0
  132.9501  135.6630  160.4530 H   0  0  0  0  0  0  0  0  0  0  0  0
  132.5116  137.6278  160.7866 C   0  0  0  0  0  0  0  0  0  0  0  0
  133.9683  138.0873  160.6975 C   0  0  1  0  0  0  0  0  0  0  0  0
  134.6244  137.2220  160.7913 H   0  0  0  0  0  0  0  0  0  0  0  0
  134.2014  138.7470  159.3699 C   0  0  0  0  0  0  0  0  0  0  0  0
  134.8817  139.8367  159.2111 C   0  0  0  0  0  0  0  0  0  0  0  0
  135.5234  140.5985  160.3335 C   0  0  0  0  0  0  0  0  0  0  0  0
  135.6299  139.7145  161.5832 C   0  0  0  0  0  0  0  0  0  0  0  0
  134.2603  139.0707  161.8331 C   0  0  0  0  0  0  0  0  0  0  0  0
  128.0063  135.3676  160.5367 O   0  0  0  0  0  0  0  0  0  0  0  0
  126.2887  137.9884  163.3729 N   0  0  0  0  0  0  0  0  0  0  0  0
  127.9171  139.4787  166.3642 C   0  0  0  0  0  0  0  0  0  0  0  0
  127.7865  140.4697  167.3141 C   0  0  0  0  0  0  0  0  0  0  0  0
  126.0832  143.2049  167.9708 H   0  0  0  0  0  0  0  0  0  0  0  0
  127.2798  142.4725  168.8952 H   0  0  0  0  0  0  0  0  0  0  0  0
  125.3531  142.3141  165.8495 H   0  0  0  0  0  0  0  0  0  0  0  0
  125.5864  140.5555  164.1470 H   0  0  0  0  0  0  0  0  0  0  0  0
  129.3673  137.8815  164.3765 H   0  0  0  0  0  0  0  0  0  0  0  0
  125.1286  136.5412  161.4893 H   0  0  0  0  0  0  0  0  0  0  0  0
  125.0808  133.9861  160.4482 H   0  0  0  0  0  0  0  0  0  0  0  0
  126.9956  132.6351  159.1176 H   0  0  0  0  0  0  0  0  0  0  0  0
  132.7894  134.2733  158.6324 H   0  0  0  0  0  0  0  0  0  0  0  0
  130.6819  135.7732  161.1806 H   0  0  0  0  0  0  0  0  0  0  0  0
  130.3033  136.6863  159.7005 H   0  0  0  0  0  0  0  0  0  0  0  0
  132.2420  137.4752  161.8316 H   0  0  0  0  0  0  0  0  0  0  0  0
  131.8634  138.3883  160.3515 H   0  0  0  0  0  0  0  0  0  0  0  0
  133.7754  138.2835  158.4924 H   0  0  0  0  0  0  0  0  0  0  0  0
  134.9942  140.2218  158.2083 H   0  0  0  0  0  0  0  0  0  0  0  0
  136.5210  140.9164  160.0305 H   0  0  0  0  0  0  0  0  0  0  0  0
  134.9199  141.4758  160.5661 H   0  0  0  0  0  0  0  0  0  0  0  0
  135.9124  140.3203  162.4442 H   0  0  0  0  0  0  0  0  0  0  0  0
  136.3756  138.9370  161.4179 H   0  0  0  0  0  0  0  0  0  0  0  0
  133.4911  139.8427  161.8562 H   0  0  0  0  0  0  0  0  0  0  0  0
  134.2736  138.5385  162.7843 H   0  0  0  0  0  0  0  0  0  0  0  0
  128.6325  138.6826  166.5086 H   0  0  0  0  0  0  0  0  0  0  0  0
  128.4003  140.4499  168.2026 H   0  0  0  0  0  0  0  0  0  0  0  0
  1  2  1  0
  1 38  1  0
  1 39  1  0
  2 37  2  0
  2  3  1  0
  3  4  2  0
  3 40  1  0
  4  5  1  0
  4 41  1  0
  5  6  1  0
  5 36  2  0
  6 35  1  0
  6  7  2  0
  7  8  1  0
  7 42  1  0
  8  9  1  0
  8 10  1  0
 10 11  1  0
 10 35  2  0
 11 12  1  0
 11 43  1  0
 12 34  1  0
 12 13  2  0
 13 14  1  0
 13 44  1  0
 14 15  2  0
 14 45  1  0
 15 16  1  0
 15 34  1  0
 16 21  1  0
 16 17  2  0
 17 18  1  0
 18 19  1  0
 18 20  1  0
 20 21  2  0
 20 46  1  0
 21 22  1  0
 22 23  1  0
 22 47  1  0
 22 48  1  0
 23 24  1  0
 23 25  1  0
 23 26  1  0
 26 27  1  0
 26 49  1  0
 26 50  1  0
 27 28  1  1
 27 33  1  0
 27 29  1  0
 29 30  2  0
 29 51  1  0
 30 31  1  0
 30 52  1  0
 31 32  1  0
 31 53  1  0
 31 54  1  0
 32 33  1  0
 32 55  1  0
 32 56  1  0
 33 57  1  0
 33 58  1  0
 36 37  1  0
 36 59  1  0
 37 60  1  0
M  CHG  1  23   1
M  END
>  <DOCK_score>  (1) 
-51.823784

>  <SMILES>  (1) 
Nc1ccc(-c2c[nH]c(Nc3ccc(-c4n[nH]cc4C[NH2+]C[C@H]4C=CCCC4)o3)n2)cc1

$$$$
