c1ccc(C[C@H](Cc2ccc(CCc3cccc4ccccc34)cn2)Nc2[nH]c3ccccc3[nH+]2)nc1
     RDKit          3D

 67 72  0  0  1  0  0  0  0  0999 V2000
  126.2701  131.7153  160.1482 C   0  0  0  0  0  0  0  0  0  0  0  0
  125.4945  132.7088  159.5700 C   0  0  0  0  0  0  0  0  0  0  0  0
  125.9442  134.0185  159.6347 C   0  0  0  0  0  0  0  0  0  0  0  0
  127.1473  134.2874  160.2598 C   0  0  0  0  0  0  0  0  0  0  0  0
  127.6487  135.7068  160.3311 C   0  0  0  0  0  0  0  0  0  0  0  0
  129.1786  135.7068  160.3518 C   0  0  2  0  0  0  0  0  0  0  0  0
  129.5335  134.8903  160.9807 H   0  0  0  0  0  0  0  0  0  0  0  0
  129.6809  137.0385  160.9131 C   0  0  0  0  0  0  0  0  0  0  0  0
  131.1009  136.8781  161.3919 C   0  0  0  0  0  0  0  0  0  0  0  0
  131.5593  137.6519  162.4416 C   0  0  0  0  0  0  0  0  0  0  0  0
  132.8672  137.4969  162.8742 C   0  0  0  0  0  0  0  0  0  0  0  0
  133.6688  136.5653  162.2316 C   0  0  0  0  0  0  0  0  0  0  0  0
  135.0975  136.3600  162.6650 C   0  0  0  0  0  0  0  0  0  0  0  0
  135.1530  135.2730  163.7404 C   0  0  0  0  0  0  0  0  0  0  0  0
  136.5817  135.0677  164.1737 C   0  0  0  0  0  0  0  0  0  0  0  0
  137.3656  134.1556  163.5362 C   0  0  0  0  0  0  0  0  0  0  0  0
  138.6886  133.9517  163.9231 C   0  0  0  0  0  0  0  0  0  0  0  0
  139.2356  134.6585  164.9498 C   0  0  0  0  0  0  0  0  0  0  0  0
  138.4572  135.6089  165.6319 C   0  0  0  0  0  0  0  0  0  0  0  0
  138.9870  136.3583  166.6963 C   0  0  0  0  0  0  0  0  0  0  0  0
  138.2030  137.2704  167.3331 C   0  0  0  0  0  0  0  0  0  0  0  0
  136.8797  137.4744  166.9461 C   0  0  0  0  0  0  0  0  0  0  0  0
  136.3329  136.7673  165.9200 C   0  0  0  0  0  0  0  0  0  0  0  0
  137.1113  135.8163  165.2382 C   0  0  0  0  0  0  0  0  0  0  0  0
  133.1428  135.8318  161.1854 C   0  0  0  0  0  0  0  0  0  0  0  0
  131.8916  136.0017  160.8044 N   0  0  0  0  0  0  0  0  0  0  0  0
  129.6853  135.5291  158.9887 N   0  0  0  0  0  0  0  0  0  0  0  0
  129.9211  134.2650  158.5024 C   0  0  0  0  0  0  0  0  0  0  0  0
  129.7293  133.1378  159.1840 N   0  0  0  0  0  0  0  0  0  0  0  0
  129.4043  133.0747  160.0957 H   0  0  0  0  0  0  0  0  0  0  0  0
  130.0660  132.0815  158.3787 C   0  0  0  0  0  0  0  0  0  0  0  0
  130.0665  130.7005  158.5518 C   0  0  0  0  0  0  0  0  0  0  0  0
  130.4807  129.8815  157.5239 C   0  0  0  0  0  0  0  0  0  0  0  0
  130.8975  130.4236  156.3169 C   0  0  0  0  0  0  0  0  0  0  0  0
  130.9032  131.7887  156.1289 C   0  0  0  0  0  0  0  0  0  0  0  0
  130.4880  132.6304  157.1568 C   0  0  0  0  0  0  0  0  0  0  0  0
  130.3797  133.9904  157.2832 N   0  0  0  0  0  0  0  0  0  0  0  0
  130.6002  134.6428  156.6001 H   0  0  0  0  0  0  0  0  0  0  0  0
  127.8589  133.3171  160.7989 N   0  0  0  0  0  0  0  0  0  0  0  0
  127.4597  132.0607  160.7606 C   0  0  0  0  0  0  0  0  0  0  0  0
  125.9482  130.6847  160.1207 H   0  0  0  0  0  0  0  0  0  0  0  0
  124.5603  132.4684  159.0842 H   0  0  0  0  0  0  0  0  0  0  0  0
  125.3635  134.8183  159.1990 H   0  0  0  0  0  0  0  0  0  0  0  0
  127.2730  136.1796  161.2386 H   0  0  0  0  0  0  0  0  0  0  0  0
  127.2970  136.2605  159.4605 H   0  0  0  0  0  0  0  0  0  0  0  0
  129.0485  137.3430  161.7471 H   0  0  0  0  0  0  0  0  0  0  0  0
  129.6444  137.7988  160.1328 H   0  0  0  0  0  0  0  0  0  0  0  0
  130.9067  138.3678  162.9191 H   0  0  0  0  0  0  0  0  0  0  0  0
  133.2529  138.0878  163.6917 H   0  0  0  0  0  0  0  0  0  0  0  0
  135.4920  137.2920  163.0698 H   0  0  0  0  0  0  0  0  0  0  0  0
  135.6969  136.0537  161.8076 H   0  0  0  0  0  0  0  0  0  0  0  0
  134.7585  134.3410  163.3357 H   0  0  0  0  0  0  0  0  0  0  0  0
  134.5538  135.5792  164.5978 H   0  0  0  0  0  0  0  0  0  0  0  0
  136.9563  133.5815  162.7180 H   0  0  0  0  0  0  0  0  0  0  0  0
  139.2892  133.2220  163.4003 H   0  0  0  0  0  0  0  0  0  0  0  0
  140.2638  134.4929  165.2357 H   0  0  0  0  0  0  0  0  0  0  0  0
  140.0107  136.2110  167.0073 H   0  0  0  0  0  0  0  0  0  0  0  0
  138.6125  137.8448  168.1510 H   0  0  0  0  0  0  0  0  0  0  0  0
  136.2791  138.2044  167.4685 H   0  0  0  0  0  0  0  0  0  0  0  0
  135.3061  136.9363  165.6308 H   0  0  0  0  0  0  0  0  0  0  0  0
  133.7620  135.1077  160.6769 H   0  0  0  0  0  0  0  0  0  0  0  0
  129.8546  136.3034  158.4295 H   0  0  0  0  0  0  0  0  0  0  0  0
  129.7429  130.2720  159.4889 H   0  0  0  0  0  0  0  0  0  0  0  0
  130.4805  128.8100  157.6587 H   0  0  0  0  0  0  0  0  0  0  0  0
  131.2194  129.7711  155.5189 H   0  0  0  0  0  0  0  0  0  0  0  0
  131.2286  132.2044  155.1867 H   0  0  0  0  0  0  0  0  0  0  0  0
  128.0695  131.2928  161.2134 H   0  0  0  0  0  0  0  0  0  0  0  0
  1 40  2  0
  1  2  1  0
  1 41  1  0
  2  3  2  0
  2 42  1  0
  3  4  1  0
  3 43  1  0
  4  5  1  0
  4 39  2  0
  5  6  1  0
  5 44  1  0
  5 45  1  0
  6  7  1  1
  6  8  1  0
  6 27  1  0
  8  9  1  0
  8 46  1  0
  8 47  1  0
  9 26  1  0
  9 10  2  0
 10 11  1  0
 10 48  1  0
 11 12  2  0
 11 49  1  0
 12 13  1  0
 12 25  1  0
 13 14  1  0
 13 50  1  0
 13 51  1  0
 14 15  1  0
 14 52  1  0
 14 53  1  0
 15 24  1  0
 15 16  2  0
 16 17  1  0
 16 54  1  0
 17 18  2  0
 17 55  1  0
 18 19  1  0
 18 56  1  0
 19 24  2  0
 19 20  1  0
 20 21  2  0
 20 57  1  0
 21 22  1  0
 21 58  1  0
 22 23  2  0
 22 59  1  0
 23 24  1  0
 23 60  1  0
 25 26  2  0
 25 61  1  0
 27 28  1  0
 27 62  1  0
 28 37  1  0
 28 29  2  0
 29 30  1  0
 29 31  1  0
 31 36  2  0
 31 32  1  0
 32 33  2  0
 32 63  1  0
 33 34  1  0
 33 64  1  0
 34 35  2  0
 34 65  1  0
 35 36  1  0
 35 66  1  0
 36 37  1  0
 37 38  1  0
 39 40  1  0
 40 67  1  0
M  CHG  1  29   1
M  END
>  <DOCK_score>  (1) 
-60.910797

>  <SMILES>  (1) 
c1ccc(C[C@H](Cc2ccc(CCc3cccc4ccccc34)cn2)Nc2[nH]c3ccccc3[nH+]2)nc1

$$$$
