Nc1ccc(-c2c[nH]c(N[C@@H](CNc3ccccc3N)c3ccccc3)[nH+]2)cc1
     RDKit          3D

 54 57  0  0  1  0  0  0  0  0999 V2000
  131.1228  129.9908  151.7142 N   0  0  0  0  0  0  0  0  0  0  0  0
  130.9082  130.5926  152.9565 C   0  0  0  0  0  0  0  0  0  0  0  0
  130.0939  131.7158  153.0512 C   0  0  0  0  0  0  0  0  0  0  0  0
  129.8808  132.3122  154.2760 C   0  0  0  0  0  0  0  0  0  0  0  0
  130.4818  131.7882  155.4195 C   0  0  0  0  0  0  0  0  0  0  0  0
  130.2543  132.4285  156.7382 C   0  0  0  0  0  0  0  0  0  0  0  0
  129.6936  131.8413  157.8241 C   0  0  0  0  0  0  0  0  0  0  0  0
  129.6752  132.7858  158.8231 N   0  0  0  0  0  0  0  0  0  0  0  0
  129.3330  132.6642  159.7226 H   0  0  0  0  0  0  0  0  0  0  0  0
  130.2257  133.9225  158.3167 C   0  0  0  0  0  0  0  0  0  0  0  0
  130.3939  135.1124  159.0041 N   0  0  0  0  0  0  0  0  0  0  0  0
  129.9620  135.2194  160.3999 C   0  0  1  0  0  0  0  0  0  0  0  0
  130.4996  134.4884  161.0036 H   0  0  0  0  0  0  0  0  0  0  0  0
  130.2596  136.6276  160.9193 C   0  0  0  0  0  0  0  0  0  0  0  0
  131.5605  137.0705  160.4117 N   0  0  0  0  0  0  0  0  0  0  0  0
  132.0516  138.3362  160.7542 C   0  0  0  0  0  0  0  0  0  0  0  0
  131.1836  139.3218  161.1990 C   0  0  0  0  0  0  0  0  0  0  0  0
  131.6714  140.5694  161.5418 C   0  0  0  0  0  0  0  0  0  0  0  0
  133.0224  140.8420  161.4315 C   0  0  0  0  0  0  0  0  0  0  0  0
  133.8943  139.8667  160.9839 C   0  0  0  0  0  0  0  0  0  0  0  0
  133.4146  138.6111  160.6435 C   0  0  0  0  0  0  0  0  0  0  0  0
  134.2957  137.6218  160.1904 N   0  0  0  0  0  0  0  0  0  0  0  0
  128.4814  134.9534  160.4894 C   0  0  0  0  0  0  0  0  0  0  0  0
  127.9477  134.3938  161.6351 C   0  0  0  0  0  0  0  0  0  0  0  0
  126.5895  134.1507  161.7175 C   0  0  0  0  0  0  0  0  0  0  0  0
  125.7648  134.4677  160.6544 C   0  0  0  0  0  0  0  0  0  0  0  0
  126.2983  135.0278  159.5088 C   0  0  0  0  0  0  0  0  0  0  0  0
  127.6569  135.2697  159.4259 C   0  0  0  0  0  0  0  0  0  0  0  0
  130.5653  133.7068  157.0692 N   0  0  0  0  0  0  0  0  0  0  0  0
  130.9754  134.3570  156.4776 H   0  0  0  0  0  0  0  0  0  0  0  0
  131.3017  130.6651  155.3209 C   0  0  0  0  0  0  0  0  0  0  0  0
  131.5078  130.0688  154.0948 C   0  0  0  0  0  0  0  0  0  0  0  0
  130.7041  130.3561  150.9190 H   0  0  0  0  0  0  0  0  0  0  0  0
  131.6907  129.2073  151.6470 H   0  0  0  0  0  0  0  0  0  0  0  0
  129.6285  132.1215  152.1652 H   0  0  0  0  0  0  0  0  0  0  0  0
  129.2482  133.1846  154.3495 H   0  0  0  0  0  0  0  0  0  0  0  0
  129.3305  130.8264  157.8914 H   0  0  0  0  0  0  0  0  0  0  0  0
  130.7980  135.8753  158.5616 H   0  0  0  0  0  0  0  0  0  0  0  0
  129.4838  137.3124  160.5772 H   0  0  0  0  0  0  0  0  0  0  0  0
  130.2795  136.6161  162.0090 H   0  0  0  0  0  0  0  0  0  0  0  0
  132.0817  136.4868  159.8384 H   0  0  0  0  0  0  0  0  0  0  0  0
  130.1271  139.1137  161.2821 H   0  0  0  0  0  0  0  0  0  0  0  0
  130.9947  141.3344  161.8925 H   0  0  0  0  0  0  0  0  0  0  0  0
  133.3977  141.8194  161.6962 H   0  0  0  0  0  0  0  0  0  0  0  0
  134.9489  140.0829  160.8991 H   0  0  0  0  0  0  0  0  0  0  0  0
  133.9586  136.7438  159.9530 H   0  0  0  0  0  0  0  0  0  0  0  0
  135.2433  137.8145  160.1140 H   0  0  0  0  0  0  0  0  0  0  0  0
  128.5920  134.1468  162.4661 H   0  0  0  0  0  0  0  0  0  0  0  0
  126.1724  133.7133  162.6126 H   0  0  0  0  0  0  0  0  0  0  0  0
  124.7042  134.2736  160.7170 H   0  0  0  0  0  0  0  0  0  0  0  0
  125.6542  135.2751  158.6780 H   0  0  0  0  0  0  0  0  0  0  0  0
  128.0738  135.7072  158.5309 H   0  0  0  0  0  0  0  0  0  0  0  0
  131.7716  130.2598  156.2048 H   0  0  0  0  0  0  0  0  0  0  0  0
  132.1397  129.1962  154.0187 H   0  0  0  0  0  0  0  0  0  0  0  0
  1  2  1  0
  1 33  1  0
  1 34  1  0
  2 32  2  0
  2  3  1  0
  3  4  2  0
  3 35  1  0
  4  5  1  0
  4 36  1  0
  5  6  1  0
  5 31  2  0
  6 29  1  0
  6  7  2  0
  7  8  1  0
  7 37  1  0
  8  9  1  0
  8 10  1  0
 10 11  1  0
 10 29  2  0
 11 12  1  0
 11 38  1  0
 12 13  1  1
 12 14  1  0
 12 23  1  0
 14 15  1  0
 14 39  1  0
 14 40  1  0
 15 16  1  0
 15 41  1  0
 16 21  1  0
 16 17  2  0
 17 18  1  0
 17 42  1  0
 18 19  2  0
 18 43  1  0
 19 20  1  0
 19 44  1  0
 20 21  2  0
 20 45  1  0
 21 22  1  0
 22 46  1  0
 22 47  1  0
 23 28  1  0
 23 24  2  0
 24 25  1  0
 24 48  1  0
 25 26  2  0
 25 49  1  0
 26 27  1  0
 26 50  1  0
 27 28  2  0
 27 51  1  0
 28 52  1  0
 29 30  1  0
 31 32  1  0
 31 53  1  0
 32 54  1  0
M  CHG  1  29   1
M  END
>  <DOCK_score>  (1) 
-66.217522

>  <SMILES>  (1) 
Nc1ccc(-c2c[nH]c(N[C@@H](CNc3ccccc3N)c3ccccc3)[nH+]2)cc1

$$$$
