C[NH2+]Cc1ccc(C(O)c2ccc(Nc3ccc(N[C@H](C)c4ccnn4C)cc3F)o2)o1
     RDKit          3D

 59 62  0  0  1  0  0  0  0  0999 V2000
  132.6414  135.2638  160.5340 C   0  0  0  0  0  0  0  0  0  0  0  0
  131.5544  134.3678  160.1177 N   0  0  0  0  0  0  0  0  0  0  0  0
  130.7203  134.9087  159.9442 H   0  0  0  0  0  0  0  0  0  0  0  0
  131.3735  133.6961  160.8486 H   0  0  0  0  0  0  0  0  0  0  0  0
  131.9444  133.6620  158.8898 C   0  0  0  0  0  0  0  0  0  0  0  0
  130.8293  132.7429  158.4627 C   0  0  0  0  0  0  0  0  0  0  0  0
  130.8372  131.9474  157.3781 C   0  0  0  0  0  0  0  0  0  0  0  0
  129.5990  131.2652  157.3612 C   0  0  0  0  0  0  0  0  0  0  0  0
  128.9083  131.6847  158.4366 C   0  0  0  0  0  0  0  0  0  0  0  0
  127.5272  131.2279  158.8302 C   0  0  1  0  0  0  0  0  0  0  0  0
  127.6284  130.0894  159.6879 O   0  0  0  0  0  0  0  0  0  0  0  0
  126.8174  132.3418  159.5558 C   0  0  0  0  0  0  0  0  0  0  0  0
  125.5683  132.2858  160.0503 C   0  0  0  0  0  0  0  0  0  0  0  0
  125.3066  133.5387  160.6510 C   0  0  0  0  0  0  0  0  0  0  0  0
  126.4171  134.2940  160.4794 C   0  0  0  0  0  0  0  0  0  0  0  0
  126.5885  135.6041  160.9181 N   0  0  0  0  0  0  0  0  0  0  0  0
  127.7950  136.2732  160.6726 C   0  0  0  0  0  0  0  0  0  0  0  0
  128.5582  136.7404  161.7338 C   0  0  0  0  0  0  0  0  0  0  0  0
  129.7499  137.3956  161.4923 C   0  0  0  0  0  0  0  0  0  0  0  0
  130.1808  137.5963  160.1880 C   0  0  0  0  0  0  0  0  0  0  0  0
  131.3857  138.2655  159.9436 N   0  0  0  0  0  0  0  0  0  0  0  0
  131.8590  139.2873  160.8807 C   0  0  2  0  0  0  0  0  0  0  0  0
  131.6662  138.9606  161.9025 H   0  0  0  0  0  0  0  0  0  0  0  0
  131.1210  140.6015  160.6176 C   0  0  0  0  0  0  0  0  0  0  0  0
  133.3395  139.4956  160.6909 C   0  0  0  0  0  0  0  0  0  0  0  0
  134.1281  138.8508  159.8003 C   0  0  0  0  0  0  0  0  0  0  0  0
  135.4315  139.3357  159.9496 C   0  0  0  0  0  0  0  0  0  0  0  0
  135.4255  140.2394  160.8959 N   0  0  0  0  0  0  0  0  0  0  0  0
  134.1161  140.3582  161.3793 N   0  0  0  0  0  0  0  0  0  0  0  0
  133.6691  141.2595  162.4442 C   0  0  0  0  0  0  0  0  0  0  0  0
  129.4181  137.1304  159.1246 C   0  0  0  0  0  0  0  0  0  0  0  0
  128.2279  136.4697  159.3656 C   0  0  0  0  0  0  0  0  0  0  0  0
  127.4858  136.0149  158.3323 F   0  0  0  0  0  0  0  0  0  0  0  0
  127.3279  133.5597  159.8177 O   0  0  0  0  0  0  0  0  0  0  0  0
  129.6561  132.5840  159.0969 O   0  0  0  0  0  0  0  0  0  0  0  0
  132.3520  135.7874  161.4451 H   0  0  0  0  0  0  0  0  0  0  0  0
  133.5423  134.6794  160.7214 H   0  0  0  0  0  0  0  0  0  0  0  0
  132.8368  135.9893  159.7443 H   0  0  0  0  0  0  0  0  0  0  0  0
  132.8453  133.0777  159.0771 H   0  0  0  0  0  0  0  0  0  0  0  0
  132.1398  134.3876  158.1002 H   0  0  0  0  0  0  0  0  0  0  0  0
  131.6362  131.8489  156.6580 H   0  0  0  0  0  0  0  0  0  0  0  0
  129.2704  130.5459  156.6257 H   0  0  0  0  0  0  0  0  0  0  0  0
  126.9644  130.9602  157.9360 H   0  0  0  0  0  0  0  0  0  0  0  0
  128.1180  130.2549  160.5052 H   0  0  0  0  0  0  0  0  0  0  0  0
  124.8949  131.4429  160.0018 H   0  0  0  0  0  0  0  0  0  0  0  0
  124.3956  133.8366  161.1488 H   0  0  0  0  0  0  0  0  0  0  0  0
  125.8726  136.0537  161.3937 H   0  0  0  0  0  0  0  0  0  0  0  0
  128.2222  136.5878  162.7488 H   0  0  0  0  0  0  0  0  0  0  0  0
  130.3453  137.7550  162.3185 H   0  0  0  0  0  0  0  0  0  0  0  0
  131.9075  138.0521  159.1543 H   0  0  0  0  0  0  0  0  0  0  0  0
  130.0503  140.4508  160.7548 H   0  0  0  0  0  0  0  0  0  0  0  0
  131.4734  141.3618  161.3147 H   0  0  0  0  0  0  0  0  0  0  0  0
  131.3141  140.9283  159.5957 H   0  0  0  0  0  0  0  0  0  0  0  0
  133.8078  138.0954  159.0980 H   0  0  0  0  0  0  0  0  0  0  0  0
  136.2939  139.0194  159.3815 H   0  0  0  0  0  0  0  0  0  0  0  0
  133.3663  142.2124  162.0103 H   0  0  0  0  0  0  0  0  0  0  0  0
  132.8230  140.8130  162.9667 H   0  0  0  0  0  0  0  0  0  0  0  0
  134.4852  141.4235  163.1478 H   0  0  0  0  0  0  0  0  0  0  0  0
  129.7549  137.2837  158.1100 H   0  0  0  0  0  0  0  0  0  0  0  0
  1  2  1  0
  1 36  1  0
  1 37  1  0
  1 38  1  0
  2  3  1  0
  2  4  1  0
  2  5  1  0
  5  6  1  0
  5 39  1  0
  5 40  1  0
  6 35  1  0
  6  7  2  0
  7  8  1  0
  7 41  1  0
  8  9  2  0
  8 42  1  0
  9 10  1  0
  9 35  1  0
 10 11  1  0
 10 12  1  0
 10 43  1  6
 11 44  1  0
 12 34  1  0
 12 13  2  0
 13 14  1  0
 13 45  1  0
 14 15  2  0
 14 46  1  0
 15 16  1  0
 15 34  1  0
 16 17  1  0
 16 47  1  0
 17 32  1  0
 17 18  2  0
 18 19  1  0
 18 48  1  0
 19 20  2  0
 19 49  1  0
 20 21  1  0
 20 31  1  0
 21 22  1  0
 21 50  1  0
 22 23  1  1
 22 24  1  0
 22 25  1  0
 24 51  1  0
 24 52  1  0
 24 53  1  0
 25 29  1  0
 25 26  2  0
 26 27  1  0
 26 54  1  0
 27 28  2  0
 27 55  1  0
 28 29  1  0
 29 30  1  0
 30 56  1  0
 30 57  1  0
 30 58  1  0
 31 32  2  0
 31 59  1  0
 32 33  1  0
M  CHG  1   2   1
M  END
>  <DOCK_score>  (1) 
-51.514145

>  <SMILES>  (1) 
C[NH2+]Cc1ccc(C(O)c2ccc(Nc3ccc(N[C@H](C)c4ccnn4C)cc3F)o2)o1

$$$$
