C[C@@H](Nc1nc2ccccc2[nH]1)C(C)(O)c1ccccc1CNc1[nH]c2ccccc2[nH+]1
     RDKit          3D

 59 63  0  0  1  0  0  0  0  0999 V2000
  133.3069  135.1507  160.2912 C   0  0  0  0  0  0  0  0  0  0  0  0
  131.9129  135.3528  160.8887 C   0  0  1  0  0  0  0  0  0  0  0  0
  131.9848  135.3856  161.9758 H   0  0  0  0  0  0  0  0  0  0  0  0
  131.3494  136.6129  160.3980 N   0  0  0  0  0  0  0  0  0  0  0  0
  131.5657  137.7828  161.0955 C   0  0  0  0  0  0  0  0  0  0  0  0
  132.2526  137.8804  162.2063 N   0  0  0  0  0  0  0  0  0  0  0  0
  132.2692  139.1747  162.6204 C   0  0  0  0  0  0  0  0  0  0  0  0
  132.8430  139.8249  163.7157 C   0  0  0  0  0  0  0  0  0  0  0  0
  132.6737  141.1824  163.8708 C   0  0  0  0  0  0  0  0  0  0  0  0
  131.9371  141.9099  162.9477 C   0  0  0  0  0  0  0  0  0  0  0  0
  131.3643  141.2828  161.8605 C   0  0  0  0  0  0  0  0  0  0  0  0
  131.5243  139.9162  161.6887 C   0  0  0  0  0  0  0  0  0  0  0  0
  131.0906  139.0108  160.7341 N   0  0  0  0  0  0  0  0  0  0  0  0
  130.5499  139.2118  159.9542 H   0  0  0  0  0  0  0  0  0  0  0  0
  131.0066  134.1925  160.4724 C   0  0  2  0  0  0  0  0  0  0  0  0
  131.1026  133.0726  161.5104 C   0  0  0  0  0  0  0  0  0  0  0  0
  131.4217  133.6974  159.1977 O   0  0  0  0  0  0  0  0  0  0  0  0
  129.5816  134.6749  160.3841 C   0  0  0  0  0  0  0  0  0  0  0  0
  129.1494  135.7062  161.1972 C   0  0  0  0  0  0  0  0  0  0  0  0
  127.8436  136.1515  161.1132 C   0  0  0  0  0  0  0  0  0  0  0  0
  126.9672  135.5593  160.2229 C   0  0  0  0  0  0  0  0  0  0  0  0
  127.3981  134.5252  159.4135 C   0  0  0  0  0  0  0  0  0  0  0  0
  128.7054  134.0826  159.4944 C   0  0  0  0  0  0  0  0  0  0  0  0
  129.1751  132.9546  158.6122 C   0  0  0  0  0  0  0  0  0  0  0  0
  129.6956  133.5010  157.3565 N   0  0  0  0  0  0  0  0  0  0  0  0
  130.1839  132.6551  156.3888 C   0  0  0  0  0  0  0  0  0  0  0  0
  130.6734  133.0432  155.2134 N   0  0  0  0  0  0  0  0  0  0  0  0
  130.7427  133.9595  154.9025 H   0  0  0  0  0  0  0  0  0  0  0  0
  131.0654  131.9296  154.5179 C   0  0  0  0  0  0  0  0  0  0  0  0
  131.6357  131.7283  153.2645 C   0  0  0  0  0  0  0  0  0  0  0  0
  131.9134  130.4484  152.8359 C   0  0  0  0  0  0  0  0  0  0  0  0
  131.6287  129.3583  153.6451 C   0  0  0  0  0  0  0  0  0  0  0  0
  131.0640  129.5399  154.8890 C   0  0  0  0  0  0  0  0  0  0  0  0
  130.7771  130.8259  155.3373 C   0  0  0  0  0  0  0  0  0  0  0  0
  130.2306  131.3287  156.4889 N   0  0  0  0  0  0  0  0  0  0  0  0
  129.9285  130.8061  157.2483 H   0  0  0  0  0  0  0  0  0  0  0  0
  133.2350  135.1178  159.2041 H   0  0  0  0  0  0  0  0  0  0  0  0
  133.9527  135.9773  160.5878 H   0  0  0  0  0  0  0  0  0  0  0  0
  133.7263  134.2131  160.6562 H   0  0  0  0  0  0  0  0  0  0  0  0
  130.8275  136.6251  159.5805 H   0  0  0  0  0  0  0  0  0  0  0  0
  133.4181  139.2646  164.4380 H   0  0  0  0  0  0  0  0  0  0  0  0
  133.1172  141.6846  164.7178 H   0  0  0  0  0  0  0  0  0  0  0  0
  131.8116  142.9743  163.0806 H   0  0  0  0  0  0  0  0  0  0  0  0
  130.7923  141.8548  161.1450 H   0  0  0  0  0  0  0  0  0  0  0  0
  130.6511  133.4042  162.4454 H   0  0  0  0  0  0  0  0  0  0  0  0
  130.5750  132.1918  161.1443 H   0  0  0  0  0  0  0  0  0  0  0  0
  132.1500  132.8240  161.6808 H   0  0  0  0  0  0  0  0  0  0  0  0
  132.3311  133.3695  159.1804 H   0  0  0  0  0  0  0  0  0  0  0  0
  129.8329  136.1661  161.8956 H   0  0  0  0  0  0  0  0  0  0  0  0
  127.5070  136.9598  161.7455 H   0  0  0  0  0  0  0  0  0  0  0  0
  125.9460  135.9050  160.1597 H   0  0  0  0  0  0  0  0  0  0  0  0
  126.7135  134.0626  158.7179 H   0  0  0  0  0  0  0  0  0  0  0  0
  129.9630  132.3993  159.1211 H   0  0  0  0  0  0  0  0  0  0  0  0
  128.3397  132.2877  158.3996 H   0  0  0  0  0  0  0  0  0  0  0  0
  129.6956  134.4596  157.2079 H   0  0  0  0  0  0  0  0  0  0  0  0
  131.8602  132.5727  152.6296 H   0  0  0  0  0  0  0  0  0  0  0  0
  132.3564  130.2929  151.8632 H   0  0  0  0  0  0  0  0  0  0  0  0
  131.8514  128.3601  153.2980 H   0  0  0  0  0  0  0  0  0  0  0  0
  130.8451  128.6869  155.5142 H   0  0  0  0  0  0  0  0  0  0  0  0
  1  2  1  0
  1 37  1  0
  1 38  1  0
  1 39  1  0
  2  3  1  1
  2  4  1  0
  2 15  1  0
  4  5  1  0
  4 40  1  0
  5 13  1  0
  5  6  2  0
  6  7  1  0
  7 12  2  0
  7  8  1  0
  8  9  2  0
  8 41  1  0
  9 10  1  0
  9 42  1  0
 10 11  2  0
 10 43  1  0
 11 12  1  0
 11 44  1  0
 12 13  1  0
 13 14  1  0
 15 16  1  0
 15 17  1  6
 15 18  1  0
 16 45  1  0
 16 46  1  0
 16 47  1  0
 17 48  1  0
 18 23  1  0
 18 19  2  0
 19 20  1  0
 19 49  1  0
 20 21  2  0
 20 50  1  0
 21 22  1  0
 21 51  1  0
 22 23  2  0
 22 52  1  0
 23 24  1  0
 24 25  1  0
 24 53  1  0
 24 54  1  0
 25 26  1  0
 25 55  1  0
 26 35  1  0
 26 27  2  0
 27 28  1  0
 27 29  1  0
 29 34  2  0
 29 30  1  0
 30 31  2  0
 30 56  1  0
 31 32  1  0
 31 57  1  0
 32 33  2  0
 32 58  1  0
 33 34  1  0
 33 59  1  0
 34 35  1  0
 35 36  1  0
M  CHG  1  27   1
M  END
>  <DOCK_score>  (1) 
-56.058762

>  <SMILES>  (1) 
C[C@@H](Nc1nc2ccccc2[nH]1)C(C)(O)c1ccccc1CNc1[nH]c2ccccc2[nH+]1

$$$$
