O=C1CC[C@@H](Cc2c(Cl)cccc2N2CC[NH+](C(c3ccccc3)c3ccccc3)CC2)CN1
     RDKit          3D

 67 71  0  0  1  0  0  0  0  0999 V2000
  136.3410  133.9093  164.1777 O   0  0  0  0  0  0  0  0  0  0  0  0
  135.8627  135.0087  163.9949 C   0  0  0  0  0  0  0  0  0  0  0  0
  134.5313  135.3165  164.6174 C   0  0  0  0  0  0  0  0  0  0  0  0
  134.3054  136.8302  164.6456 C   0  0  0  0  0  0  0  0  0  0  0  0
  134.6163  137.3928  163.2535 C   0  0  1  0  0  0  0  0  0  0  0  0
  134.0568  136.8369  162.5010 H   0  0  0  0  0  0  0  0  0  0  0  0
  134.2272  138.8715  163.1986 C   0  0  0  0  0  0  0  0  0  0  0  0
  134.5433  139.4238  161.8326 C   0  0  0  0  0  0  0  0  0  0  0  0
  135.4269  140.4786  161.7000 C   0  0  0  0  0  0  0  0  0  0  0  0
  136.1733  141.1671  163.1080 Cl  0  0  0  0  0  0  0  0  0  0  0  0
  135.7204  140.9830  160.4453 C   0  0  0  0  0  0  0  0  0  0  0  0
  135.1241  140.4403  159.3218 C   0  0  0  0  0  0  0  0  0  0  0  0
  134.2366  139.3899  159.4482 C   0  0  0  0  0  0  0  0  0  0  0  0
  133.9429  138.8775  160.7058 C   0  0  0  0  0  0  0  0  0  0  0  0
  133.0453  137.8155  160.8365 N   0  0  0  0  0  0  0  0  0  0  0  0
  133.5585  136.6075  160.1751 C   0  0  0  0  0  0  0  0  0  0  0  0
  132.5763  135.4543  160.3919 C   0  0  0  0  0  0  0  0  0  0  0  0
  131.2652  135.8171  159.8379 N   0  0  0  0  0  0  0  0  0  0  0  0
  131.3588  136.0111  158.8522 H   0  0  0  0  0  0  0  0  0  0  0  0
  130.3276  134.7027  160.0305 C   0  0  0  0  0  0  0  0  0  0  0  0
  128.9822  135.0742  159.4624 C   0  0  0  0  0  0  0  0  0  0  0  0
  127.8298  134.5428  160.0103 C   0  0  0  0  0  0  0  0  0  0  0  0
  126.5954  134.8871  159.4919 C   0  0  0  0  0  0  0  0  0  0  0  0
  126.5137  135.7556  158.4201 C   0  0  0  0  0  0  0  0  0  0  0  0
  127.6667  136.2831  157.8684 C   0  0  0  0  0  0  0  0  0  0  0  0
  128.9007  135.9423  158.3895 C   0  0  0  0  0  0  0  0  0  0  0  0
  130.8505  133.4786  159.3239 C   0  0  0  0  0  0  0  0  0  0  0  0
  130.4989  133.2363  158.0092 C   0  0  0  0  0  0  0  0  0  0  0  0
  130.9821  132.1158  157.3598 C   0  0  0  0  0  0  0  0  0  0  0  0
  131.8100  131.2329  158.0278 C   0  0  0  0  0  0  0  0  0  0  0  0
  132.1568  131.4721  159.3443 C   0  0  0  0  0  0  0  0  0  0  0  0
  131.6771  132.5950  159.9923 C   0  0  0  0  0  0  0  0  0  0  0  0
  130.7545  137.0105  160.5253 C   0  0  0  0  0  0  0  0  0  0  0  0
  131.7216  138.1767  160.3096 C   0  0  0  0  0  0  0  0  0  0  0  0
  136.1154  137.2467  162.9899 C   0  0  0  0  0  0  0  0  0  0  0  0
  136.5497  135.8811  163.2566 N   0  0  0  0  0  0  0  0  0  0  0  0
  134.5058  134.9276  165.6352 H   0  0  0  0  0  0  0  0  0  0  0  0
  133.7443  134.8440  164.0295 H   0  0  0  0  0  0  0  0  0  0  0  0
  134.9671  137.2863  165.3819 H   0  0  0  0  0  0  0  0  0  0  0  0
  133.2678  137.0422  164.9038 H   0  0  0  0  0  0  0  0  0  0  0  0
  133.1596  138.9737  163.3938 H   0  0  0  0  0  0  0  0  0  0  0  0
  134.7889  139.4231  163.9525 H   0  0  0  0  0  0  0  0  0  0  0  0
  136.4140  141.8047  160.3435 H   0  0  0  0  0  0  0  0  0  0  0  0
  135.3526  140.8387  158.3442 H   0  0  0  0  0  0  0  0  0  0  0  0
  133.7715  138.9670  158.5701 H   0  0  0  0  0  0  0  0  0  0  0  0
  133.6678  136.7962  159.1071 H   0  0  0  0  0  0  0  0  0  0  0  0
  134.5276  136.3445  160.5993 H   0  0  0  0  0  0  0  0  0  0  0  0
  132.4778  135.2569  161.4594 H   0  0  0  0  0  0  0  0  0  0  0  0
  132.9482  134.5611  159.8901 H   0  0  0  0  0  0  0  0  0  0  0  0
  130.2269  134.4925  161.0953 H   0  0  0  0  0  0  0  0  0  0  0  0
  127.8936  133.8611  160.8456 H   0  0  0  0  0  0  0  0  0  0  0  0
  125.6947  134.4753  159.9228 H   0  0  0  0  0  0  0  0  0  0  0  0
  125.5498  136.0225  158.0127 H   0  0  0  0  0  0  0  0  0  0  0  0
  127.6031  136.9618  157.0307 H   0  0  0  0  0  0  0  0  0  0  0  0
  129.8015  136.3544  157.9588 H   0  0  0  0  0  0  0  0  0  0  0  0
  129.8495  133.9244  157.4883 H   0  0  0  0  0  0  0  0  0  0  0  0
  130.7110  131.9288  156.3311 H   0  0  0  0  0  0  0  0  0  0  0  0
  132.1841  130.3557  157.5210 H   0  0  0  0  0  0  0  0  0  0  0  0
  132.8031  130.7822  159.8663 H   0  0  0  0  0  0  0  0  0  0  0  0
  131.9485  132.7821  161.0208 H   0  0  0  0  0  0  0  0  0  0  0  0
  130.6652  136.8051  161.5920 H   0  0  0  0  0  0  0  0  0  0  0  0
  129.7758  137.2709  160.1223 H   0  0  0  0  0  0  0  0  0  0  0  0
  131.3505  139.0583  160.8319 H   0  0  0  0  0  0  0  0  0  0  0  0
  131.8008  138.3916  159.2440 H   0  0  0  0  0  0  0  0  0  0  0  0
  136.6635  137.9316  163.6369 H   0  0  0  0  0  0  0  0  0  0  0  0
  136.3209  137.4931  161.9482 H   0  0  0  0  0  0  0  0  0  0  0  0
  137.3890  135.5871  162.8691 H   0  0  0  0  0  0  0  0  0  0  0  0
  1  2  2  0
  2 36  1  0
  2  3  1  0
  3  4  1  0
  3 37  1  0
  3 38  1  0
  4  5  1  0
  4 39  1  0
  4 40  1  0
  5  6  1  6
  5  7  1  0
  5 35  1  0
  7  8  1  0
  7 41  1  0
  7 42  1  0
  8 14  1  0
  8  9  2  0
  9 10  1  0
  9 11  1  0
 11 12  2  0
 11 43  1  0
 12 13  1  0
 12 44  1  0
 13 14  2  0
 13 45  1  0
 14 15  1  0
 15 34  1  0
 15 16  1  0
 16 17  1  0
 16 46  1  0
 16 47  1  0
 17 18  1  0
 17 48  1  0
 17 49  1  0
 18 19  1  0
 18 20  1  0
 18 33  1  0
 20 21  1  0
 20 27  1  0
 20 50  1  0
 21 26  1  0
 21 22  2  0
 22 23  1  0
 22 51  1  0
 23 24  2  0
 23 52  1  0
 24 25  1  0
 24 53  1  0
 25 26  2  0
 25 54  1  0
 26 55  1  0
 27 32  1  0
 27 28  2  0
 28 29  1  0
 28 56  1  0
 29 30  2  0
 29 57  1  0
 30 31  1  0
 30 58  1  0
 31 32  2  0
 31 59  1  0
 32 60  1  0
 33 34  1  0
 33 61  1  0
 33 62  1  0
 34 63  1  0
 34 64  1  0
 35 36  1  0
 35 65  1  0
 35 66  1  0
 36 67  1  0
M  CHG  1  18   1
M  END
>  <DOCK_score>  (1) 
-58.580734

>  <SMILES>  (1) 
O=C1CC[C@@H](Cc2c(Cl)cccc2N2CC[NH+](C(c3ccccc3)c3ccccc3)CC2)CN1

$$$$
