c1ccc([C@@H](Nc2[nH]cc(C3COc4ccccc4C3)[nH+]2)c2cccc3ccccc23)cc1
     RDKit          3D

 59 64  0  0  1  0  0  0  0  0999 V2000
  130.3718  140.4740  160.3101 C   0  0  0  0  0  0  0  0  0  0  0  0
  130.2161  139.8690  161.5431 C   0  0  0  0  0  0  0  0  0  0  0  0
  130.0146  138.5037  161.6228 C   0  0  0  0  0  0  0  0  0  0  0  0
  129.9680  137.7436  160.4691 C   0  0  0  0  0  0  0  0  0  0  0  0
  129.7483  136.2552  160.5558 C   0  0  1  0  0  0  0  0  0  0  0  0
  128.6799  136.0427  160.5165 H   0  0  0  0  0  0  0  0  0  0  0  0
  130.4190  135.5962  159.4325 N   0  0  0  0  0  0  0  0  0  0  0  0
  129.9089  134.4161  158.9172 C   0  0  0  0  0  0  0  0  0  0  0  0
  128.7947  133.7719  159.3574 N   0  0  0  0  0  0  0  0  0  0  0  0
  128.2159  134.0512  160.0839 H   0  0  0  0  0  0  0  0  0  0  0  0
  128.6446  132.6478  158.5769 C   0  0  0  0  0  0  0  0  0  0  0  0
  129.6600  132.6437  157.6967 C   0  0  0  0  0  0  0  0  0  0  0  0
  129.9062  131.5994  156.6384 C   0  0  2  0  0  0  0  0  0  0  0  0
  131.2872  130.9655  156.8490 C   0  0  0  0  0  0  0  0  0  0  0  0
  131.4495  129.9129  155.8973 O   0  0  0  0  0  0  0  0  0  0  0  0
  131.1667  130.1837  154.5966 C   0  0  0  0  0  0  0  0  0  0  0  0
  131.6467  129.3177  153.6188 C   0  0  0  0  0  0  0  0  0  0  0  0
  131.3729  129.5536  152.2874 C   0  0  0  0  0  0  0  0  0  0  0  0
  130.6192  130.6540  151.9217 C   0  0  0  0  0  0  0  0  0  0  0  0
  130.1431  131.5167  152.8893 C   0  0  0  0  0  0  0  0  0  0  0  0
  130.4158  131.2857  154.2275 C   0  0  0  0  0  0  0  0  0  0  0  0
  129.8818  132.2521  155.2541 C   0  0  0  0  0  0  0  0  0  0  0  0
  130.4153  133.7331  157.9180 N   0  0  0  0  0  0  0  0  0  0  0  0
  131.2111  133.9750  157.4191 H   0  0  0  0  0  0  0  0  0  0  0  0
  130.3156  135.7385  161.8529 C   0  0  0  0  0  0  0  0  0  0  0  0
  131.6095  135.3202  161.9151 C   0  0  0  0  0  0  0  0  0  0  0  0
  132.1519  134.8398  163.1053 C   0  0  0  0  0  0  0  0  0  0  0  0
  131.4033  134.7748  164.2405 C   0  0  0  0  0  0  0  0  0  0  0  0
  130.0636  135.1976  164.2149 C   0  0  0  0  0  0  0  0  0  0  0  0
  129.2596  135.1449  165.3666 C   0  0  0  0  0  0  0  0  0  0  0  0
  127.9659  135.5627  165.3042 C   0  0  0  0  0  0  0  0  0  0  0  0
  127.4234  136.0428  164.1133 C   0  0  0  0  0  0  0  0  0  0  0  0
  128.1718  136.1087  162.9787 C   0  0  0  0  0  0  0  0  0  0  0  0
  129.5121  135.6863  163.0041 C   0  0  0  0  0  0  0  0  0  0  0  0
  130.1284  138.3478  159.2363 C   0  0  0  0  0  0  0  0  0  0  0  0
  130.3257  139.7138  159.1564 C   0  0  0  0  0  0  0  0  0  0  0  0
  130.5293  141.5406  160.2478 H   0  0  0  0  0  0  0  0  0  0  0  0
  130.2522  140.4630  162.4444 H   0  0  0  0  0  0  0  0  0  0  0  0
  129.8933  138.0310  162.5862 H   0  0  0  0  0  0  0  0  0  0  0  0
  131.2203  135.9863  159.0495 H   0  0  0  0  0  0  0  0  0  0  0  0
  127.8601  131.9099  158.6566 H   0  0  0  0  0  0  0  0  0  0  0  0
  129.1362  130.8299  156.6955 H   0  0  0  0  0  0  0  0  0  0  0  0
  132.0627  131.7168  156.7001 H   0  0  0  0  0  0  0  0  0  0  0  0
  131.3557  130.5617  157.8591 H   0  0  0  0  0  0  0  0  0  0  0  0
  132.2353  128.4580  153.9032 H   0  0  0  0  0  0  0  0  0  0  0  0
  131.7470  128.8795  151.5310 H   0  0  0  0  0  0  0  0  0  0  0  0
  130.4030  130.8385  150.8798 H   0  0  0  0  0  0  0  0  0  0  0  0
  129.5548  132.3754  152.6012 H   0  0  0  0  0  0  0  0  0  0  0  0
  128.8573  132.5230  154.9989 H   0  0  0  0  0  0  0  0  0  0  0  0
  130.5020  133.1483  155.2646 H   0  0  0  0  0  0  0  0  0  0  0  0
  132.2251  135.3609  161.0285 H   0  0  0  0  0  0  0  0  0  0  0  0
  133.1813  134.5145  163.1277 H   0  0  0  0  0  0  0  0  0  0  0  0
  131.8357  134.3959  165.1548 H   0  0  0  0  0  0  0  0  0  0  0  0
  129.6662  134.7746  166.2960 H   0  0  0  0  0  0  0  0  0  0  0  0
  127.3501  135.5212  166.1905 H   0  0  0  0  0  0  0  0  0  0  0  0
  126.3936  136.3678  164.0909 H   0  0  0  0  0  0  0  0  0  0  0  0
  127.7381  136.4838  162.0634 H   0  0  0  0  0  0  0  0  0  0  0  0
  130.0964  137.7533  158.3352 H   0  0  0  0  0  0  0  0  0  0  0  0
  130.4469  140.1864  158.1930 H   0  0  0  0  0  0  0  0  0  0  0  0
  1 36  2  0
  1  2  1  0
  1 37  1  0
  2  3  2  0
  2 38  1  0
  3  4  1  0
  3 39  1  0
  4  5  1  0
  4 35  2  0
  5  6  1  1
  5  7  1  0
  5 25  1  0
  7 40  1  0
  8  7  1  0
  8 23  2  0
  8  9  1  0
  9 10  1  0
  9 11  1  0
 11 12  2  0
 11 41  1  0
 12 13  1  0
 12 23  1  0
 13 22  1  0
 13 14  1  0
 13 42  1  6
 14 15  1  0
 14 43  1  0
 14 44  1  0
 15 16  1  0
 16 21  2  0
 16 17  1  0
 17 18  2  0
 17 45  1  0
 18 19  1  0
 18 46  1  0
 19 20  2  0
 19 47  1  0
 20 21  1  0
 20 48  1  0
 21 22  1  0
 22 49  1  0
 22 50  1  0
 23 24  1  0
 25 34  1  0
 25 26  2  0
 26 27  1  0
 26 51  1  0
 27 28  2  0
 27 52  1  0
 28 29  1  0
 28 53  1  0
 29 34  2  0
 29 30  1  0
 30 31  2  0
 30 54  1  0
 31 32  1  0
 31 55  1  0
 32 33  2  0
 32 56  1  0
 33 34  1  0
 33 57  1  0
 35 36  1  0
 35 58  1  0
 36 59  1  0
M  CHG  1  23   1
M  END
>  <DOCK_score>  (1) 
-56.692974

>  <SMILES>  (1) 
c1ccc([C@@H](Nc2[nH]cc(C3COc4ccccc4C3)[nH+]2)c2cccc3ccccc23)cc1

$$$$
