O=C1CC[C@H](NC(N[C@H]2CCCOC2)=[NH+]C2COc3ccc(F)cc3C2)CN1
     RDKit          3D

 56 59  0  0  1  0  0  0  0  0999 V2000
  123.7503  133.7587  161.3488 O   0  0  0  0  0  0  0  0  0  0  0  0
  124.9283  134.0058  161.2000 C   0  0  0  0  0  0  0  0  0  0  0  0
  125.8236  132.9159  160.6845 C   0  0  0  0  0  0  0  0  0  0  0  0
  127.2859  133.2616  160.9761 C   0  0  0  0  0  0  0  0  0  0  0  0
  127.5439  134.7021  160.5181 C   0  0  2  0  0  0  0  0  0  0  0  0
  127.2209  134.8205  159.4838 H   0  0  0  0  0  0  0  0  0  0  0  0
  128.9740  135.0027  160.6238 N   0  0  0  0  0  0  0  0  0  0  0  0
  129.8080  134.7600  159.5581 C   0  0  0  0  0  0  0  0  0  0  0  0
  129.3002  134.2353  158.3934 N   0  0  0  0  0  0  0  0  0  0  0  0
  130.1408  133.3876  157.5443 C   0  0  1  0  0  0  0  0  0  0  0  0
  131.1837  133.6871  157.6491 H   0  0  0  0  0  0  0  0  0  0  0  0
  129.9837  131.9237  157.9669 C   0  0  0  0  0  0  0  0  0  0  0  0
  130.8046  131.0403  157.0224 C   0  0  0  0  0  0  0  0  0  0  0  0
  130.3476  131.2826  155.5815 C   0  0  0  0  0  0  0  0  0  0  0  0
  130.4921  132.6683  155.2640 O   0  0  0  0  0  0  0  0  0  0  0  0
  129.7095  133.5393  156.0832 C   0  0  0  0  0  0  0  0  0  0  0  0
  131.0802  135.0276  159.6522 N   0  0  0  0  0  0  0  0  0  0  0  0
  131.5823  135.2809  158.8617 H   0  0  0  0  0  0  0  0  0  0  0  0
  131.7518  134.9460  160.9516 C   0  0  1  0  0  0  0  0  0  0  0  0
  133.2297  134.5882  160.7484 C   0  0  0  0  0  0  0  0  0  0  0  0
  133.8320  134.4148  162.0317 O   0  0  0  0  0  0  0  0  0  0  0  0
  133.6279  135.3813  162.9650 C   0  0  0  0  0  0  0  0  0  0  0  0
  134.4730  135.4258  164.0694 C   0  0  0  0  0  0  0  0  0  0  0  0
  134.2959  136.3887  165.0417 C   0  0  0  0  0  0  0  0  0  0  0  0
  133.2737  137.3148  164.9191 C   0  0  0  0  0  0  0  0  0  0  0  0
  133.0970  138.2570  165.8710 F   0  0  0  0  0  0  0  0  0  0  0  0
  132.4335  137.2738  163.8215 C   0  0  0  0  0  0  0  0  0  0  0  0
  132.6094  136.3096  162.8426 C   0  0  0  0  0  0  0  0  0  0  0  0
  131.6787  136.3029  161.6564 C   0  0  0  0  0  0  0  0  0  0  0  0
  126.7523  135.6514  161.4184 C   0  0  0  0  0  0  0  0  0  0  0  0
  125.3593  135.2308  161.5034 N   0  0  0  0  0  0  0  0  0  0  0  0
  125.6839  132.8112  159.6086 H   0  0  0  0  0  0  0  0  0  0  0  0
  125.5685  131.9769  161.1758 H   0  0  0  0  0  0  0  0  0  0  0  0
  127.9397  132.5806  160.4312 H   0  0  0  0  0  0  0  0  0  0  0  0
  127.4767  133.1769  162.0459 H   0  0  0  0  0  0  0  0  0  0  0  0
  129.3323  135.3731  161.4456 H   0  0  0  0  0  0  0  0  0  0  0  0
  128.3854  134.4262  158.1337 H   0  0  0  0  0  0  0  0  0  0  0  0
  130.3423  131.7986  158.9886 H   0  0  0  0  0  0  0  0  0  0  0  0
  128.9331  131.6386  157.9105 H   0  0  0  0  0  0  0  0  0  0  0  0
  130.6537  129.9921  157.2809 H   0  0  0  0  0  0  0  0  0  0  0  0
  131.8611  131.2913  157.1166 H   0  0  0  0  0  0  0  0  0  0  0  0
  129.3019  130.9931  155.4782 H   0  0  0  0  0  0  0  0  0  0  0  0
  130.9582  130.6883  154.9016 H   0  0  0  0  0  0  0  0  0  0  0  0
  128.6554  133.2794  155.9865 H   0  0  0  0  0  0  0  0  0  0  0  0
  129.8602  134.5708  155.7649 H   0  0  0  0  0  0  0  0  0  0  0  0
  131.2710  134.1858  161.5672 H   0  0  0  0  0  0  0  0  0  0  0  0
  133.3082  133.6627  160.1780 H   0  0  0  0  0  0  0  0  0  0  0  0
  133.7322  135.3938  160.2129 H   0  0  0  0  0  0  0  0  0  0  0  0
  135.2701  134.7037  164.1663 H   0  0  0  0  0  0  0  0  0  0  0  0
  134.9542  136.4202  165.8974 H   0  0  0  0  0  0  0  0  0  0  0  0
  131.6366  137.9964  163.7272 H   0  0  0  0  0  0  0  0  0  0  0  0
  131.9719  137.0892  160.9608 H   0  0  0  0  0  0  0  0  0  0  0  0
  130.6581  136.4813  161.9950 H   0  0  0  0  0  0  0  0  0  0  0  0
  127.1903  135.6507  162.4164 H   0  0  0  0  0  0  0  0  0  0  0  0
  126.7996  136.6602  161.0082 H   0  0  0  0  0  0  0  0  0  0  0  0
  124.7047  135.8828  161.7992 H   0  0  0  0  0  0  0  0  0  0  0  0
  1  2  2  0
  2 31  1  0
  2  3  1  0
  3  4  1  0
  3 32  1  0
  3 33  1  0
  4  5  1  0
  4 34  1  0
  4 35  1  0
  5  6  1  6
  5  7  1  0
  5 30  1  0
  7 36  1  0
  8  7  1  0
  8  9  1  0
  8 17  2  0
  9 10  1  0
  9 37  1  0
 10 11  1  6
 10 16  1  0
 10 12  1  0
 12 13  1  0
 12 38  1  0
 12 39  1  0
 13 14  1  0
 13 40  1  0
 13 41  1  0
 14 15  1  0
 14 42  1  0
 14 43  1  0
 15 16  1  0
 16 44  1  0
 16 45  1  0
 17 18  1  0
 17 19  1  0
 19 29  1  0
 19 20  1  0
 19 46  1  1
 20 21  1  0
 20 47  1  0
 20 48  1  0
 21 22  1  0
 22 28  2  0
 22 23  1  0
 23 24  2  0
 23 49  1  0
 24 25  1  0
 24 50  1  0
 25 26  1  0
 25 27  2  0
 27 28  1  0
 27 51  1  0
 28 29  1  0
 29 52  1  0
 29 53  1  0
 30 31  1  0
 30 54  1  0
 30 55  1  0
 31 56  1  0
M  CHG  1  17   1
M  END
>  <DOCK_score>  (1) 
-43.463303

>  <SMILES>  (1) 
O=C1CC[C@H](NC(N[C@H]2CCCOC2)=[NH+]C2COc3ccc(F)cc3C2)CN1

$$$$
