CCC1CCC(CNc2ccc(-c3n[nH]cc3C[NH2+]CC3CC3)o2)CC1
     RDKit          3D

 59 62  0  0  1  0  0  0  0  0999 V2000
  127.0749  140.1789  168.5782 C   0  0  0  0  0  0  0  0  0  0  0  0
  126.6090  138.7634  168.2316 C   0  0  0  0  0  0  0  0  0  0  0  0
  127.1125  138.3879  166.8365 C   0  0  2  0  0  0  0  0  0  0  0  0
  126.5532  139.3746  165.8097 C   0  0  0  0  0  0  0  0  0  0  0  0
  127.0567  138.9991  164.4146 C   0  0  0  0  0  0  0  0  0  0  0  0
  126.5907  137.5837  164.0681 C   0  0  1  0  0  0  0  0  0  0  0  0
  127.0943  137.2082  162.6730 C   0  0  0  0  0  0  0  0  0  0  0  0
  126.2898  136.1038  162.1443 N   0  0  0  0  0  0  0  0  0  0  0  0
  126.8568  135.1908  161.2626 C   0  0  0  0  0  0  0  0  0  0  0  0
  126.2243  134.1263  160.7090 C   0  0  0  0  0  0  0  0  0  0  0  0
  127.1612  133.4764  159.8814 C   0  0  0  0  0  0  0  0  0  0  0  0
  128.3235  134.1739  159.9792 C   0  0  0  0  0  0  0  0  0  0  0  0
  129.5869  133.8523  159.2842 C   0  0  0  0  0  0  0  0  0  0  0  0
  129.7867  132.8374  158.4665 N   0  0  0  0  0  0  0  0  0  0  0  0
  131.1134  132.8928  158.0208 N   0  0  0  0  0  0  0  0  0  0  0  0
  131.5340  132.2701  157.4074 H   0  0  0  0  0  0  0  0  0  0  0  0
  131.7079  133.9596  158.5978 C   0  0  0  0  0  0  0  0  0  0  0  0
  130.7960  134.5729  159.3823 C   0  0  0  0  0  0  0  0  0  0  0  0
  131.0281  135.8078  160.2143 C   0  0  0  0  0  0  0  0  0  0  0  0
  132.4166  136.2572  160.0465 N   0  0  0  0  0  0  0  0  0  0  0  0
  133.0450  135.5268  160.3461 H   0  0  0  0  0  0  0  0  0  0  0  0
  132.5864  136.4695  159.0749 H   0  0  0  0  0  0  0  0  0  0  0  0
  132.6430  137.4610  160.8575 C   0  0  0  0  0  0  0  0  0  0  0  0
  134.0891  137.9291  160.6829 C   0  0  0  0  0  0  0  0  0  0  0  0
  134.3624  139.4312  160.7823 C   0  0  0  0  0  0  0  0  0  0  0  0
  134.4250  138.7305  159.4236 C   0  0  0  0  0  0  0  0  0  0  0  0
  128.1255  135.2111  160.8199 O   0  0  0  0  0  0  0  0  0  0  0  0
  127.1501  136.5969  165.0949 C   0  0  0  0  0  0  0  0  0  0  0  0
  126.6466  136.9724  166.4900 C   0  0  0  0  0  0  0  0  0  0  0  0
  128.1642  140.2169  168.5626 H   0  0  0  0  0  0  0  0  0  0  0  0
  126.6764  140.8818  167.8466 H   0  0  0  0  0  0  0  0  0  0  0  0
  126.7162  140.4464  169.5721 H   0  0  0  0  0  0  0  0  0  0  0  0
  125.5198  138.7254  168.2472 H   0  0  0  0  0  0  0  0  0  0  0  0
  127.0076  138.0603  168.9631 H   0  0  0  0  0  0  0  0  0  0  0  0
  128.2017  138.4259  166.8210 H   0  0  0  0  0  0  0  0  0  0  0  0
  126.8850  140.3830  166.0567 H   0  0  0  0  0  0  0  0  0  0  0  0
  125.4639  139.3367  165.8253 H   0  0  0  0  0  0  0  0  0  0  0  0
  128.1460  139.0371  164.3990 H   0  0  0  0  0  0  0  0  0  0  0  0
  126.6582  139.7021  163.6831 H   0  0  0  0  0  0  0  0  0  0  0  0
  125.5016  137.5457  164.0837 H   0  0  0  0  0  0  0  0  0  0  0  0
  127.0076  138.0701  162.0113 H   0  0  0  0  0  0  0  0  0  0  0  0
  128.1381  136.9005  162.7341 H   0  0  0  0  0  0  0  0  0  0  0  0
  125.3615  136.0096  162.4094 H   0  0  0  0  0  0  0  0  0  0  0  0
  125.1973  133.8337  160.8705 H   0  0  0  0  0  0  0  0  0  0  0  0
  126.9898  132.5913  159.2868 H   0  0  0  0  0  0  0  0  0  0  0  0
  132.7332  134.2679  158.4567 H   0  0  0  0  0  0  0  0  0  0  0  0
  130.3492  136.5967  159.8907 H   0  0  0  0  0  0  0  0  0  0  0  0
  130.8447  135.5784  161.2640 H   0  0  0  0  0  0  0  0  0  0  0  0
  131.9641  138.2500  160.5341 H   0  0  0  0  0  0  0  0  0  0  0  0
  132.4596  137.2316  161.9073 H   0  0  0  0  0  0  0  0  0  0  0  0
  134.8521  137.2519  161.0669 H   0  0  0  0  0  0  0  0  0  0  0  0
  133.5118  140.0859  160.9723 H   0  0  0  0  0  0  0  0  0  0  0  0
  135.3053  139.7424  161.2319 H   0  0  0  0  0  0  0  0  0  0  0  0
  135.4090  138.5809  158.9794 H   0  0  0  0  0  0  0  0  0  0  0  0
  133.6157  138.9244  158.7196 H   0  0  0  0  0  0  0  0  0  0  0  0
  126.8182  135.5884  164.8480 H   0  0  0  0  0  0  0  0  0  0  0  0
  128.2393  136.6349  165.0793 H   0  0  0  0  0  0  0  0  0  0  0  0
  125.5573  136.9343  166.5055 H   0  0  0  0  0  0  0  0  0  0  0  0
  127.0451  136.2694  167.2215 H   0  0  0  0  0  0  0  0  0  0  0  0
  1  2  1  0
  1 30  1  0
  1 31  1  0
  1 32  1  0
  2  3  1  0
  2 33  1  0
  2 34  1  0
  3 29  1  0
  3  4  1  0
  3 35  1  1
  4  5  1  0
  4 36  1  0
  4 37  1  0
  5  6  1  0
  5 38  1  0
  5 39  1  0
  6  7  1  0
  6 28  1  0
  6 40  1  6
  7  8  1  0
  7 41  1  0
  7 42  1  0
  8  9  1  0
  8 43  1  0
  9 27  1  0
  9 10  2  0
 10 11  1  0
 10 44  1  0
 11 12  2  0
 11 45  1  0
 12 13  1  0
 12 27  1  0
 13 18  1  0
 13 14  2  0
 14 15  1  0
 15 16  1  0
 15 17  1  0
 17 18  2  0
 17 46  1  0
 18 19  1  0
 19 20  1  0
 19 47  1  0
 19 48  1  0
 20 21  1  0
 20 22  1  0
 20 23  1  0
 23 24  1  0
 23 49  1  0
 23 50  1  0
 24 26  1  0
 24 25  1  0
 24 51  1  0
 25 26  1  0
 25 52  1  0
 25 53  1  0
 26 54  1  0
 26 55  1  0
 28 29  1  0
 28 56  1  0
 28 57  1  0
 29 58  1  0
 29 59  1  0
M  CHG  1  20   1
M  END
>  <DOCK_score>  (1) 
-42.556892

>  <SMILES>  (1) 
CCC1CCC(CNc2ccc(-c3n[nH]cc3C[NH2+]CC3CC3)o2)CC1

$$$$
