CCc1ccc(-c2c[nH]c(NC(Cc3ccnn3C)[C@H](C)c3ccccc3)[nH+]2)cc1
     RDKit          3D

 60 63  0  0  1  0  0  0  0  0999 V2000
  130.1767  128.6784  151.5190 C   0  0  0  0  0  0  0  0  0  0  0  0
  131.3221  129.6241  151.8858 C   0  0  0  0  0  0  0  0  0  0  0  0
  130.9883  130.3441  153.1670 C   0  0  0  0  0  0  0  0  0  0  0  0
  131.3589  129.7964  154.3815 C   0  0  0  0  0  0  0  0  0  0  0  0
  131.0610  130.4539  155.5577 C   0  0  0  0  0  0  0  0  0  0  0  0
  130.3750  131.6666  155.5205 C   0  0  0  0  0  0  0  0  0  0  0  0
  130.0469  132.3753  156.7816 C   0  0  0  0  0  0  0  0  0  0  0  0
  129.2908  131.8891  157.7969 C   0  0  0  0  0  0  0  0  0  0  0  0
  129.2424  132.8662  158.7613 N   0  0  0  0  0  0  0  0  0  0  0  0
  128.7749  132.8135  159.6096 H   0  0  0  0  0  0  0  0  0  0  0  0
  129.9711  133.9218  158.3067 C   0  0  0  0  0  0  0  0  0  0  0  0
  130.1729  135.1131  158.9826 N   0  0  0  0  0  0  0  0  0  0  0  0
  129.5765  135.3149  160.3054 C   0  0  1  0  0  0  0  0  0  0  0  0
  130.5510  134.8349  161.3829 C   0  0  0  0  0  0  0  0  0  0  0  0
  130.8414  133.3699  161.1809 C   0  0  0  0  0  0  0  0  0  0  0  0
  131.8338  132.8506  160.4217 C   0  0  0  0  0  0  0  0  0  0  0  0
  131.7559  131.4567  160.5062 C   0  0  0  0  0  0  0  0  0  0  0  0
  130.7478  131.1500  161.2818 N   0  0  0  0  0  0  0  0  0  0  0  0
  130.1546  132.3410  161.7202 N   0  0  0  0  0  0  0  0  0  0  0  0
  128.9941  132.4502  162.6076 C   0  0  0  0  0  0  0  0  0  0  0  0
  129.2817  136.8022  160.5104 C   0  0  2  0  0  0  0  0  0  0  0  0
  128.5875  137.1441  159.7427 H   0  0  0  0  0  0  0  0  0  0  0  0
  130.5843  137.5986  160.4114 C   0  0  0  0  0  0  0  0  0  0  0  0
  128.6683  137.0099  161.8711 C   0  0  0  0  0  0  0  0  0  0  0  0
  127.2955  136.9592  162.0253 C   0  0  0  0  0  0  0  0  0  0  0  0
  126.7328  137.1459  163.2742 C   0  0  0  0  0  0  0  0  0  0  0  0
  127.5427  137.3916  164.3673 C   0  0  0  0  0  0  0  0  0  0  0  0
  128.9151  137.4474  164.2120 C   0  0  0  0  0  0  0  0  0  0  0  0
  129.4780  137.2568  162.9640 C   0  0  0  0  0  0  0  0  0  0  0  0
  130.4551  133.6226  157.1261 N   0  0  0  0  0  0  0  0  0  0  0  0
  131.0138  134.2012  156.5839 H   0  0  0  0  0  0  0  0  0  0  0  0
  129.9988  132.2112  154.2939 C   0  0  0  0  0  0  0  0  0  0  0  0
  130.3072  131.5477  153.1237 C   0  0  0  0  0  0  0  0  0  0  0  0
  130.0365  127.9510  152.3185 H   0  0  0  0  0  0  0  0  0  0  0  0
  129.2599  129.2525  151.3850 H   0  0  0  0  0  0  0  0  0  0  0  0
  130.4181  128.1578  150.5923 H   0  0  0  0  0  0  0  0  0  0  0  0
  132.2388  129.0506  152.0193 H   0  0  0  0  0  0  0  0  0  0  0  0
  131.4621  130.3520  151.0859 H   0  0  0  0  0  0  0  0  0  0  0  0
  131.8862  128.8544  154.4093 H   0  0  0  0  0  0  0  0  0  0  0  0
  131.3551  130.0276  156.5053 H   0  0  0  0  0  0  0  0  0  0  0  0
  128.8175  130.9193  157.8393 H   0  0  0  0  0  0  0  0  0  0  0  0
  130.7094  135.8140  158.5803 H   0  0  0  0  0  0  0  0  0  0  0  0
  128.6485  134.7475  160.3759 H   0  0  0  0  0  0  0  0  0  0  0  0
  131.4789  135.4023  161.3123 H   0  0  0  0  0  0  0  0  0  0  0  0
  130.1073  134.9850  162.3670 H   0  0  0  0  0  0  0  0  0  0  0  0
  132.5592  133.4131  159.8529 H   0  0  0  0  0  0  0  0  0  0  0  0
  132.4120  130.7547  160.0132 H   0  0  0  0  0  0  0  0  0  0  0  0
  128.0815  132.4668  162.0118 H   0  0  0  0  0  0  0  0  0  0  0  0
  128.9715  131.5952  163.2832 H   0  0  0  0  0  0  0  0  0  0  0  0
  129.0660  133.3701  163.1880 H   0  0  0  0  0  0  0  0  0  0  0  0
  131.0280  137.4484  159.4270 H   0  0  0  0  0  0  0  0  0  0  0  0
  130.3743  138.6581  160.5573 H   0  0  0  0  0  0  0  0  0  0  0  0
  131.2785  137.2567  161.1789 H   0  0  0  0  0  0  0  0  0  0  0  0
  126.6627  136.7706  161.1707 H   0  0  0  0  0  0  0  0  0  0  0  0
  125.6606  137.1026  163.3954 H   0  0  0  0  0  0  0  0  0  0  0  0
  127.1030  137.5400  165.3424 H   0  0  0  0  0  0  0  0  0  0  0  0
  129.5478  137.6397  165.0660 H   0  0  0  0  0  0  0  0  0  0  0  0
  130.5502  137.3007  162.8427 H   0  0  0  0  0  0  0  0  0  0  0  0
  129.4669  133.1504  154.2592 H   0  0  0  0  0  0  0  0  0  0  0  0
  130.0165  131.9689  152.1727 H   0  0  0  0  0  0  0  0  0  0  0  0
  1  2  1  0
  1 34  1  0
  1 35  1  0
  1 36  1  0
  2  3  1  0
  2 37  1  0
  2 38  1  0
  3 33  2  0
  3  4  1  0
  4  5  2  0
  4 39  1  0
  5  6  1  0
  5 40  1  0
  6  7  1  0
  6 32  2  0
  7 30  1  0
  7  8  2  0
  8  9  1  0
  8 41  1  0
  9 10  1  0
  9 11  1  0
 11 12  1  0
 11 30  2  0
 12 13  1  0
 12 42  1  0
 13 14  1  0
 13 21  1  0
 13 43  1  6
 14 15  1  0
 14 44  1  0
 14 45  1  0
 15 19  1  0
 15 16  2  0
 16 17  1  0
 16 46  1  0
 17 18  2  0
 17 47  1  0
 18 19  1  0
 19 20  1  0
 20 48  1  0
 20 49  1  0
 20 50  1  0
 21 22  1  6
 21 23  1  0
 21 24  1  0
 23 51  1  0
 23 52  1  0
 23 53  1  0
 24 29  1  0
 24 25  2  0
 25 26  1  0
 25 54  1  0
 26 27  2  0
 26 55  1  0
 27 28  1  0
 27 56  1  0
 28 29  2  0
 28 57  1  0
 29 58  1  0
 30 31  1  0
 32 33  1  0
 32 59  1  0
 33 60  1  0
M  CHG  1  30   1
M  END
>  <DOCK_score>  (1) 
-62.073181

>  <SMILES>  (1) 
CCc1ccc(-c2c[nH]c(NC(Cc3ccnn3C)[C@H](C)c3ccccc3)[nH+]2)cc1

$$$$
