NC(=O)CNc1cncc([C@H](CCl)[NH+]=C2NCCCN2)c1
     RDKit          3D

 41 42  0  0  1  0  0  0  0  0999 V2000
  126.3649  137.6522  163.6651 N   0  0  0  0  0  0  0  0  0  0  0  0
  126.4857  136.4634  164.2885 C   0  0  0  0  0  0  0  0  0  0  0  0
  126.9538  136.4094  165.4061 O   0  0  0  0  0  0  0  0  0  0  0  0
  126.0391  135.2012  163.5969 C   0  0  0  0  0  0  0  0  0  0  0  0
  125.5151  135.5311  162.2691 N   0  0  0  0  0  0  0  0  0  0  0  0
  126.3721  135.5544  161.1660 C   0  0  0  0  0  0  0  0  0  0  0  0
  125.8642  135.4562  159.8765 C   0  0  0  0  0  0  0  0  0  0  0  0
  126.6701  135.4727  158.8339 N   0  0  0  0  0  0  0  0  0  0  0  0
  127.9771  135.5868  158.9676 C   0  0  0  0  0  0  0  0  0  0  0  0
  128.5568  135.6939  160.2179 C   0  0  0  0  0  0  0  0  0  0  0  0
  130.0520  135.8226  160.3561 C   0  0  2  0  0  0  0  0  0  0  0  0
  130.3692  135.3775  161.2992 H   0  0  0  0  0  0  0  0  0  0  0  0
  130.4406  137.3023  160.3343 C   0  0  0  0  0  0  0  0  0  0  0  0
  132.2294  137.4563  160.4997 Cl  0  0  0  0  0  0  0  0  0  0  0  0
  130.7068  135.1293  159.2441 N   0  0  0  0  0  0  0  0  0  0  0  0
  131.2826  135.6209  158.6378 H   0  0  0  0  0  0  0  0  0  0  0  0
  130.5155  133.8519  159.0693 C   0  0  0  0  0  0  0  0  0  0  0  0
  129.7048  133.1125  159.9170 N   0  0  0  0  0  0  0  0  0  0  0  0
  128.7894  132.1379  159.2935 C   0  0  0  0  0  0  0  0  0  0  0  0
  129.5901  131.2754  158.3112 C   0  0  0  0  0  0  0  0  0  0  0  0
  130.2908  132.1863  157.2965 C   0  0  0  0  0  0  0  0  0  0  0  0
  131.1167  133.1594  158.0294 N   0  0  0  0  0  0  0  0  0  0  0  0
  127.7477  135.6811  161.3423 C   0  0  0  0  0  0  0  0  0  0  0  0
  125.9905  137.6954  162.7715 H   0  0  0  0  0  0  0  0  0  0  0  0
  126.6523  138.4646  164.1103 H   0  0  0  0  0  0  0  0  0  0  0  0
  125.2582  134.7206  164.1865 H   0  0  0  0  0  0  0  0  0  0  0  0
  126.8865  134.5233  163.4949 H   0  0  0  0  0  0  0  0  0  0  0  0
  124.5732  135.7335  162.1559 H   0  0  0  0  0  0  0  0  0  0  0  0
  124.7987  135.3615  159.7273 H   0  0  0  0  0  0  0  0  0  0  0  0
  128.6035  135.5962  158.0877 H   0  0  0  0  0  0  0  0  0  0  0  0
  130.1233  137.7476  159.3914 H   0  0  0  0  0  0  0  0  0  0  0  0
  129.9535  137.8182  161.1619 H   0  0  0  0  0  0  0  0  0  0  0  0
  129.7381  133.2338  160.8787 H   0  0  0  0  0  0  0  0  0  0  0  0
  127.9990  132.6640  158.7581 H   0  0  0  0  0  0  0  0  0  0  0  0
  128.3525  131.5037  160.0650 H   0  0  0  0  0  0  0  0  0  0  0  0
  128.9155  130.5980  157.7876 H   0  0  0  0  0  0  0  0  0  0  0  0
  130.3357  130.6970  158.8570 H   0  0  0  0  0  0  0  0  0  0  0  0
  129.5447  132.7138  156.7023 H   0  0  0  0  0  0  0  0  0  0  0  0
  130.9249  131.5867  156.6435 H   0  0  0  0  0  0  0  0  0  0  0  0
  132.0455  133.3101  157.7943 H   0  0  0  0  0  0  0  0  0  0  0  0
  128.1736  135.7627  162.3314 H   0  0  0  0  0  0  0  0  0  0  0  0
  1  2  1  0
  1 24  1  0
  1 25  1  0
  2  3  2  0
  2  4  1  0
  4  5  1  0
  4 26  1  0
  4 27  1  0
  5  6  1  0
  5 28  1  0
  6 23  2  0
  6  7  1  0
  7  8  2  0
  7 29  1  0
  8  9  1  0
  9 10  2  0
  9 30  1  0
 10 11  1  0
 10 23  1  0
 11 12  1  1
 11 13  1  0
 11 15  1  0
 13 14  1  0
 13 31  1  0
 13 32  1  0
 15 16  1  0
 15 17  2  0
 17 22  1  0
 17 18  1  0
 18 19  1  0
 18 33  1  0
 19 20  1  0
 19 34  1  0
 19 35  1  0
 20 21  1  0
 20 36  1  0
 20 37  1  0
 21 22  1  0
 21 38  1  0
 21 39  1  0
 22 40  1  0
 23 41  1  0
M  CHG  1  15   1
M  END
>  <DOCK_score>  (1) 
-43.301826

>  <SMILES>  (1) 
NC(=O)CNc1cncc([C@H](CCl)[NH+]=C2NCCCN2)c1

$$$$
