c1ccc(C(c2ccccc2)[NH+]2CCN(c3ccc(NC4CC4)cc3)CC2)cc1
     RDKit          3D

 59 63  0  0  0  0  0  0  0  0999 V2000
  131.0897  130.7222  156.2049 C   0  0  0  0  0  0  0  0  0  0  0  0
  130.4223  131.8692  155.8182 C   0  0  0  0  0  0  0  0  0  0  0  0
  129.9650  132.7580  156.7731 C   0  0  0  0  0  0  0  0  0  0  0  0
  130.1841  132.5048  158.1143 C   0  0  0  0  0  0  0  0  0  0  0  0
  129.6903  133.4764  159.1551 C   0  0  0  0  0  0  0  0  0  0  0  0
  128.4505  134.1675  158.6489 C   0  0  0  0  0  0  0  0  0  0  0  0
  127.2050  133.6203  158.8945 C   0  0  0  0  0  0  0  0  0  0  0  0
  126.0673  134.2567  158.4343 C   0  0  0  0  0  0  0  0  0  0  0  0
  126.1759  135.4349  157.7195 C   0  0  0  0  0  0  0  0  0  0  0  0
  127.4217  135.9793  157.4693 C   0  0  0  0  0  0  0  0  0  0  0  0
  128.5589  135.3457  157.9340 C   0  0  0  0  0  0  0  0  0  0  0  0
  130.7323  134.4759  159.4254 N   0  0  0  0  0  0  0  0  0  0  0  0
  130.9484  134.9747  158.5753 H   0  0  0  0  0  0  0  0  0  0  0  0
  131.9409  133.8020  159.9180 C   0  0  0  0  0  0  0  0  0  0  0  0
  133.0331  134.8408  160.1815 C   0  0  0  0  0  0  0  0  0  0  0  0
  132.5526  135.8107  161.1761 N   0  0  0  0  0  0  0  0  0  0  0  0
  133.5462  136.7476  161.4838 C   0  0  0  0  0  0  0  0  0  0  0  0
  134.0699  137.5577  160.4850 C   0  0  0  0  0  0  0  0  0  0  0  0
  135.0473  138.4846  160.7894 C   0  0  0  0  0  0  0  0  0  0  0  0
  135.5127  138.6003  162.0925 C   0  0  0  0  0  0  0  0  0  0  0  0
  136.5071  139.5366  162.4003 N   0  0  0  0  0  0  0  0  0  0  0  0
  136.6060  140.7794  161.6309 C   0  0  0  0  0  0  0  0  0  0  0  0
  136.6580  142.0928  162.4141 C   0  0  0  0  0  0  0  0  0  0  0  0
  135.3941  141.7132  161.6383 C   0  0  0  0  0  0  0  0  0  0  0  0
  134.9924  137.7869  163.0905 C   0  0  0  0  0  0  0  0  0  0  0  0
  134.0120  136.8629  162.7869 C   0  0  0  0  0  0  0  0  0  0  0  0
  131.3285  136.4756  160.7075 C   0  0  0  0  0  0  0  0  0  0  0  0
  130.2505  135.4232  160.4394 C   0  0  0  0  0  0  0  0  0  0  0  0
  130.8567  131.3606  158.5008 C   0  0  0  0  0  0  0  0  0  0  0  0
  131.3093  130.4692  157.5461 C   0  0  0  0  0  0  0  0  0  0  0  0
  131.4437  130.0258  155.4591 H   0  0  0  0  0  0  0  0  0  0  0  0
  130.2545  132.0691  154.7702 H   0  0  0  0  0  0  0  0  0  0  0  0
  129.4398  133.6521  156.4712 H   0  0  0  0  0  0  0  0  0  0  0  0
  129.4567  132.9376  160.0733 H   0  0  0  0  0  0  0  0  0  0  0  0
  127.1206  132.6974  159.4494 H   0  0  0  0  0  0  0  0  0  0  0  0
  125.0943  133.8312  158.6296 H   0  0  0  0  0  0  0  0  0  0  0  0
  125.2874  135.9298  157.3561 H   0  0  0  0  0  0  0  0  0  0  0  0
  127.5064  136.8996  156.9104 H   0  0  0  0  0  0  0  0  0  0  0  0
  129.5323  135.7708  157.7382 H   0  0  0  0  0  0  0  0  0  0  0  0
  131.7107  133.2736  160.8432 H   0  0  0  0  0  0  0  0  0  0  0  0
  132.2900  133.0898  159.1702 H   0  0  0  0  0  0  0  0  0  0  0  0
  133.2729  135.3601  159.2536 H   0  0  0  0  0  0  0  0  0  0  0  0
  133.9254  134.3429  160.5607 H   0  0  0  0  0  0  0  0  0  0  0  0
  133.7109  137.4649  159.4708 H   0  0  0  0  0  0  0  0  0  0  0  0
  135.4523  139.1170  160.0133 H   0  0  0  0  0  0  0  0  0  0  0  0
  137.1304  139.3626  163.1229 H   0  0  0  0  0  0  0  0  0  0  0  0
  137.1888  140.7182  160.7117 H   0  0  0  0  0  0  0  0  0  0  0  0
  136.6184  142.0320  163.5016 H   0  0  0  0  0  0  0  0  0  0  0  0
  137.2744  142.8957  162.0100 H   0  0  0  0  0  0  0  0  0  0  0  0
  135.1796  142.2667  160.7240 H   0  0  0  0  0  0  0  0  0  0  0  0
  134.5229  141.4027  162.2151 H   0  0  0  0  0  0  0  0  0  0  0  0
  135.3547  137.8766  164.1039 H   0  0  0  0  0  0  0  0  0  0  0  0
  133.6072  136.2304  163.5630 H   0  0  0  0  0  0  0  0  0  0  0  0
  131.5402  137.0217  159.7884 H   0  0  0  0  0  0  0  0  0  0  0  0
  130.9768  137.1702  161.4706 H   0  0  0  0  0  0  0  0  0  0  0  0
  129.3463  135.9132  160.0782 H   0  0  0  0  0  0  0  0  0  0  0  0
  130.0292  134.8865  161.3620 H   0  0  0  0  0  0  0  0  0  0  0  0
  131.0282  131.1629  159.5486 H   0  0  0  0  0  0  0  0  0  0  0  0
  131.8348  129.5753  157.8480 H   0  0  0  0  0  0  0  0  0  0  0  0
  1 30  2  0
  1  2  1  0
  1 31  1  0
  2  3  2  0
  2 32  1  0
  3  4  1  0
  3 33  1  0
  4  5  1  0
  4 29  2  0
  5  6  1  0
  5 12  1  0
  5 34  1  0
  6 11  1  0
  6  7  2  0
  7  8  1  0
  7 35  1  0
  8  9  2  0
  8 36  1  0
  9 10  1  0
  9 37  1  0
 10 11  2  0
 10 38  1  0
 11 39  1  0
 12 13  1  0
 12 28  1  0
 12 14  1  0
 14 15  1  0
 14 40  1  0
 14 41  1  0
 15 16  1  0
 15 42  1  0
 15 43  1  0
 16 17  1  0
 16 27  1  0
 17 26  1  0
 17 18  2  0
 18 19  1  0
 18 44  1  0
 19 20  2  0
 19 45  1  0
 20 21  1  0
 20 25  1  0
 21 22  1  0
 21 46  1  0
 22 24  1  0
 22 23  1  0
 22 47  1  0
 23 24  1  0
 23 48  1  0
 23 49  1  0
 24 50  1  0
 24 51  1  0
 25 26  2  0
 25 52  1  0
 26 53  1  0
 27 28  1  0
 27 54  1  0
 27 55  1  0
 28 56  1  0
 28 57  1  0
 29 30  1  0
 29 58  1  0
 30 59  1  0
M  CHG  1  12   1
M  END
>  <DOCK_score>  (1) 
-57.113007

>  <SMILES>  (1) 
c1ccc(C(c2ccccc2)[NH+]2CCN(c3ccc(NC4CC4)cc3)CC2)cc1

$$$$
