C[C@@H](Cc1ccccc1O)Nc1cccc(C([NH3+])C(=O)Nc2cccc(O)c2)c1
     RDKit          3D

 55 57  0  0  1  0  0  0  0  0999 V2000
  129.4757  139.2554  163.6001 C   0  0  0  0  0  0  0  0  0  0  0  0
  130.5641  138.5372  162.7999 C   0  0  1  0  0  0  0  0  0  0  0  0
  130.2910  138.5248  161.7448 H   0  0  0  0  0  0  0  0  0  0  0  0
  131.8944  139.2728  162.9738 C   0  0  0  0  0  0  0  0  0  0  0  0
  132.8260  138.8988  161.8499 C   0  0  0  0  0  0  0  0  0  0  0  0
  134.0398  138.3002  162.1281 C   0  0  0  0  0  0  0  0  0  0  0  0
  134.8924  137.9520  161.0972 C   0  0  0  0  0  0  0  0  0  0  0  0
  134.5382  138.2121  159.7859 C   0  0  0  0  0  0  0  0  0  0  0  0
  133.3282  138.8149  159.5029 C   0  0  0  0  0  0  0  0  0  0  0  0
  132.4680  139.1602  160.5355 C   0  0  0  0  0  0  0  0  0  0  0  0
  131.2767  139.7531  160.2594 O   0  0  0  0  0  0  0  0  0  0  0  0
  130.6998  137.1617  163.2853 N   0  0  0  0  0  0  0  0  0  0  0  0
  131.1057  136.1498  162.4123 C   0  0  0  0  0  0  0  0  0  0  0  0
  132.2657  135.4305  162.6716 C   0  0  0  0  0  0  0  0  0  0  0  0
  132.6615  134.4273  161.8093 C   0  0  0  0  0  0  0  0  0  0  0  0
  131.9069  134.1413  160.6859 C   0  0  0  0  0  0  0  0  0  0  0  0
  130.7551  134.8590  160.4218 C   0  0  0  0  0  0  0  0  0  0  0  0
  129.9362  134.5438  159.1966 C   0  0  2  0  0  0  0  0  0  0  0  0
  129.8607  135.7339  158.3388 N   0  0  0  0  0  0  0  0  0  0  0  0
  129.3123  135.5230  157.5185 H   0  0  0  0  0  0  0  0  0  0  0  0
  129.4267  136.4889  158.8484 H   0  0  0  0  0  0  0  0  0  0  0  0
  130.7911  136.0074  158.0603 H   0  0  0  0  0  0  0  0  0  0  0  0
  128.5466  134.1355  159.6127 C   0  0  0  0  0  0  0  0  0  0  0  0
  127.5876  134.7730  159.2319 O   0  0  0  0  0  0  0  0  0  0  0  0
  128.3694  133.0617  160.4077 N   0  0  0  0  0  0  0  0  0  0  0  0
  127.0791  132.6825  160.7939 C   0  0  0  0  0  0  0  0  0  0  0  0
  126.7909  131.3455  161.0384 C   0  0  0  0  0  0  0  0  0  0  0  0
  125.5185  130.9721  161.4254 C   0  0  0  0  0  0  0  0  0  0  0  0
  124.5265  131.9250  161.5592 C   0  0  0  0  0  0  0  0  0  0  0  0
  124.8072  133.2611  161.3107 C   0  0  0  0  0  0  0  0  0  0  0  0
  123.8306  134.1969  161.4423 O   0  0  0  0  0  0  0  0  0  0  0  0
  126.0843  133.6405  160.9278 C   0  0  0  0  0  0  0  0  0  0  0  0
  130.3538  135.8642  161.2800 C   0  0  0  0  0  0  0  0  0  0  0  0
  129.7489  139.2678  164.6553 H   0  0  0  0  0  0  0  0  0  0  0  0
  129.3748  140.2789  163.2388 H   0  0  0  0  0  0  0  0  0  0  0  0
  128.5281  138.7313  163.4763 H   0  0  0  0  0  0  0  0  0  0  0  0
  131.7194  140.3486  162.9579 H   0  0  0  0  0  0  0  0  0  0  0  0
  132.3432  138.9918  163.9265 H   0  0  0  0  0  0  0  0  0  0  0  0
  134.3207  138.1001  163.1515 H   0  0  0  0  0  0  0  0  0  0  0  0
  135.8391  137.4805  161.3165 H   0  0  0  0  0  0  0  0  0  0  0  0
  135.2080  137.9431  158.9825 H   0  0  0  0  0  0  0  0  0  0  0  0
  133.0519  139.0178  158.4787 H   0  0  0  0  0  0  0  0  0  0  0  0
  131.1168  139.8940  159.3163 H   0  0  0  0  0  0  0  0  0  0  0  0
  130.5077  136.9536  164.2131 H   0  0  0  0  0  0  0  0  0  0  0  0
  132.8550  135.6528  163.5490 H   0  0  0  0  0  0  0  0  0  0  0  0
  133.5609  133.8651  162.0124 H   0  0  0  0  0  0  0  0  0  0  0  0
  132.2185  133.3559  160.0132 H   0  0  0  0  0  0  0  0  0  0  0  0
  130.4051  133.7282  158.6461 H   0  0  0  0  0  0  0  0  0  0  0  0
  129.1362  132.5518  160.7122 H   0  0  0  0  0  0  0  0  0  0  0  0
  127.5632  130.5984  160.9303 H   0  0  0  0  0  0  0  0  0  0  0  0
  125.2973  129.9329  161.6190 H   0  0  0  0  0  0  0  0  0  0  0  0
  123.5315  131.6295  161.8578 H   0  0  0  0  0  0  0  0  0  0  0  0
  124.1212  135.0987  161.2482 H   0  0  0  0  0  0  0  0  0  0  0  0
  126.3048  134.6800  160.7343 H   0  0  0  0  0  0  0  0  0  0  0  0
  129.4539  136.4245  161.0732 H   0  0  0  0  0  0  0  0  0  0  0  0
  1  2  1  0
  1 34  1  0
  1 35  1  0
  1 36  1  0
  2  3  1  6
  2  4  1  0
  2 12  1  0
  4  5  1  0
  4 37  1  0
  4 38  1  0
  5 10  1  0
  5  6  2  0
  6  7  1  0
  6 39  1  0
  7  8  2  0
  7 40  1  0
  8  9  1  0
  8 41  1  0
  9 10  2  0
  9 42  1  0
 10 11  1  0
 11 43  1  0
 12 13  1  0
 12 44  1  0
 13 33  1  0
 13 14  2  0
 14 15  1  0
 14 45  1  0
 15 16  2  0
 15 46  1  0
 16 17  1  0
 16 47  1  0
 17 18  1  0
 17 33  2  0
 18 19  1  0
 18 23  1  0
 18 48  1  6
 19 20  1  0
 19 21  1  0
 19 22  1  0
 23 24  2  0
 23 25  1  0
 25 26  1  0
 25 49  1  0
 26 32  1  0
 26 27  2  0
 27 28  1  0
 27 50  1  0
 28 29  2  0
 28 51  1  0
 29 30  1  0
 29 52  1  0
 30 31  1  0
 30 32  2  0
 31 53  1  0
 32 54  1  0
 33 55  1  0
M  CHG  1  19   1
M  END
>  <DOCK_score>  (1) 
-45.795612

>  <SMILES>  (1) 
C[C@@H](Cc1ccccc1O)Nc1cccc(C([NH3+])C(=O)Nc2cccc(O)c2)c1

$$$$
