CC(C)NC(N[C@H]1CCC(=O)NC1)=[NH+]CC1=COCCO1
     RDKit          3D

 46 47  0  0  1  0  0  0  0  0999 V2000
  132.0019  133.3761  161.2531 C   0  0  0  0  0  0  0  0  0  0  0  0
  131.9319  134.8918  161.0557 C   0  0  0  0  0  0  0  0  0  0  0  0
  133.3477  135.4529  160.9088 C   0  0  0  0  0  0  0  0  0  0  0  0
  131.1600  135.1917  159.8472 N   0  0  0  0  0  0  0  0  0  0  0  0
  129.8510  134.7829  159.7488 C   0  0  0  0  0  0  0  0  0  0  0  0
  129.0784  134.6719  160.8806 N   0  0  0  0  0  0  0  0  0  0  0  0
  127.6835  134.2364  160.7756 C   0  0  1  0  0  0  0  0  0  0  0  0
  127.5696  133.5692  159.9211 H   0  0  0  0  0  0  0  0  0  0  0  0
  127.2756  133.5031  162.0591 C   0  0  0  0  0  0  0  0  0  0  0  0
  125.8829  132.9029  161.8513 C   0  0  0  0  0  0  0  0  0  0  0  0
  124.9560  133.9439  161.2923 C   0  0  0  0  0  0  0  0  0  0  0  0
  123.7614  133.7492  161.3683 O   0  0  0  0  0  0  0  0  0  0  0  0
  125.3764  135.0710  160.7166 N   0  0  0  0  0  0  0  0  0  0  0  0
  126.7773  135.4554  160.5991 C   0  0  0  0  0  0  0  0  0  0  0  0
  129.3424  134.5006  158.5823 N   0  0  0  0  0  0  0  0  0  0  0  0
  128.3958  134.6365  158.4202 H   0  0  0  0  0  0  0  0  0  0  0  0
  130.2006  133.9783  157.5161 C   0  0  0  0  0  0  0  0  0  0  0  0
  130.2300  132.4733  157.5869 C   0  0  0  0  0  0  0  0  0  0  0  0
  130.4007  131.7859  156.4800 C   0  0  0  0  0  0  0  0  0  0  0  0
  130.4286  130.4273  156.4750 O   0  0  0  0  0  0  0  0  0  0  0  0
  130.6390  129.7833  157.7376 C   0  0  0  0  0  0  0  0  0  0  0  0
  129.7424  130.4740  158.7759 C   0  0  0  0  0  0  0  0  0  0  0  0
  130.0847  131.8667  158.7941 O   0  0  0  0  0  0  0  0  0  0  0  0
  132.4860  132.9193  160.3901 H   0  0  0  0  0  0  0  0  0  0  0  0
  132.5762  133.1530  162.1524 H   0  0  0  0  0  0  0  0  0  0  0  0
  130.9932  132.9764  161.3578 H   0  0  0  0  0  0  0  0  0  0  0  0
  131.4477  135.3487  161.9188 H   0  0  0  0  0  0  0  0  0  0  0  0
  133.8005  135.0625  159.9974 H   0  0  0  0  0  0  0  0  0  0  0  0
  133.3037  136.5407  160.8555 H   0  0  0  0  0  0  0  0  0  0  0  0
  133.9475  135.1552  161.7690 H   0  0  0  0  0  0  0  0  0  0  0  0
  131.5723  135.6784  159.1166 H   0  0  0  0  0  0  0  0  0  0  0  0
  129.4569  134.8820  161.7486 H   0  0  0  0  0  0  0  0  0  0  0  0
  127.2518  134.2061  162.8916 H   0  0  0  0  0  0  0  0  0  0  0  0
  127.9901  132.7076  162.2708 H   0  0  0  0  0  0  0  0  0  0  0  0
  125.9491  132.0662  161.1560 H   0  0  0  0  0  0  0  0  0  0  0  0
  125.4952  132.5485  162.8066 H   0  0  0  0  0  0  0  0  0  0  0  0
  124.7078  135.6726  160.3532 H   0  0  0  0  0  0  0  0  0  0  0  0
  127.0137  136.1940  161.3651 H   0  0  0  0  0  0  0  0  0  0  0  0
  126.9469  135.8909  159.6143 H   0  0  0  0  0  0  0  0  0  0  0  0
  129.8073  134.2889  156.5480 H   0  0  0  0  0  0  0  0  0  0  0  0
  131.2112  134.3677  157.6397 H   0  0  0  0  0  0  0  0  0  0  0  0
  130.5220  132.3161  155.5470 H   0  0  0  0  0  0  0  0  0  0  0  0
  130.3718  128.7292  157.6629 H   0  0  0  0  0  0  0  0  0  0  0  0
  131.6845  129.8787  158.0304 H   0  0  0  0  0  0  0  0  0  0  0  0
  128.6954  130.3517  158.4986 H   0  0  0  0  0  0  0  0  0  0  0  0
  129.9161  130.0395  159.7603 H   0  0  0  0  0  0  0  0  0  0  0  0
  1  2  1  0
  1 24  1  0
  1 25  1  0
  1 26  1  0
  2  3  1  0
  2  4  1  0
  2 27  1  0
  3 28  1  0
  3 29  1  0
  3 30  1  0
  4 31  1  0
  5  4  1  0
  5  6  1  0
  5 15  2  0
  6  7  1  0
  6 32  1  0
  7  8  1  6
  7 14  1  0
  7  9  1  0
  9 10  1  0
  9 33  1  0
  9 34  1  0
 10 11  1  0
 10 35  1  0
 10 36  1  0
 11 12  2  0
 11 13  1  0
 13 14  1  0
 13 37  1  0
 14 38  1  0
 14 39  1  0
 15 16  1  0
 15 17  1  0
 17 18  1  0
 17 40  1  0
 17 41  1  0
 18 23  1  0
 18 19  2  0
 19 20  1  0
 19 42  1  0
 20 21  1  0
 21 22  1  0
 21 43  1  0
 21 44  1  0
 22 23  1  0
 22 45  1  0
 22 46  1  0
M  CHG  1  15   1
M  END
>  <DOCK_score>  (1) 
-44.616722

>  <SMILES>  (1) 
CC(C)NC(N[C@H]1CCC(=O)NC1)=[NH+]CC1=COCCO1

$$$$
