C[C@@H](C=C1C=CC(O)C1)[NH2+]Cc1c[nH]nc1C1=Cc2ccccc2C1
     RDKit          3D

 49 52  0  0  1  0  0  0  0  0999 V2000
  128.8385  136.0527  158.9297 C   0  0  0  0  0  0  0  0  0  0  0  0
  128.7981  134.5621  159.2721 C   0  0  1  0  0  0  0  0  0  0  0  0
  129.1678  134.4121  160.2864 H   0  0  0  0  0  0  0  0  0  0  0  0
  127.3796  134.0627  159.1753 C   0  0  0  0  0  0  0  0  0  0  0  0
  126.5873  134.1016  160.2413 C   0  0  0  0  0  0  0  0  0  0  0  0
  126.9492  134.5938  161.5759 C   0  0  0  0  0  0  0  0  0  0  0  0
  125.9457  134.5073  162.4280 C   0  0  0  0  0  0  0  0  0  0  0  0
  124.7303  133.9142  161.7614 C   0  0  1  0  0  0  0  0  0  0  0  0
  123.6435  134.8414  161.7980 O   0  0  0  0  0  0  0  0  0  0  0  0
  125.1466  133.6405  160.3054 C   0  0  0  0  0  0  0  0  0  0  0  0
  129.6441  133.8198  158.3280 N   0  0  0  0  0  0  0  0  0  0  0  0
  129.5270  134.2001  157.4007 H   0  0  0  0  0  0  0  0  0  0  0  0
  129.3756  132.8471  158.3288 H   0  0  0  0  0  0  0  0  0  0  0  0
  131.0511  133.9398  158.7324 C   0  0  0  0  0  0  0  0  0  0  0  0
  131.2260  133.3718  160.1173 C   0  0  0  0  0  0  0  0  0  0  0  0
  130.7128  132.2085  160.5701 C   0  0  0  0  0  0  0  0  0  0  0  0
  131.0938  132.0551  161.8571 N   0  0  0  0  0  0  0  0  0  0  0  0
  130.8677  131.3074  162.4319 H   0  0  0  0  0  0  0  0  0  0  0  0
  131.8720  133.1624  162.2180 N   0  0  0  0  0  0  0  0  0  0  0  0
  131.9560  133.9619  161.1718 C   0  0  0  0  0  0  0  0  0  0  0  0
  132.6823  135.2437  161.1143 C   0  0  0  0  0  0  0  0  0  0  0  0
  133.2575  135.7737  160.0279 C   0  0  0  0  0  0  0  0  0  0  0  0
  133.8872  137.0641  160.3458 C   0  0  0  0  0  0  0  0  0  0  0  0
  134.5937  137.9769  159.5547 C   0  0  0  0  0  0  0  0  0  0  0  0
  135.0927  139.1318  160.1180 C   0  0  0  0  0  0  0  0  0  0  0  0
  134.8990  139.3950  161.4630 C   0  0  0  0  0  0  0  0  0  0  0  0
  134.2015  138.4973  162.2538 C   0  0  0  0  0  0  0  0  0  0  0  0
  133.6991  137.3415  161.7028 C   0  0  0  0  0  0  0  0  0  0  0  0
  132.9134  136.1858  162.2727 C   0  0  0  0  0  0  0  0  0  0  0  0
  129.8645  136.4140  158.9998 H   0  0  0  0  0  0  0  0  0  0  0  0
  128.4688  136.2027  157.9154 H   0  0  0  0  0  0  0  0  0  0  0  0
  128.2107  136.6036  159.6303 H   0  0  0  0  0  0  0  0  0  0  0  0
  127.0069  133.6731  158.2395 H   0  0  0  0  0  0  0  0  0  0  0  0
  127.9235  134.9841  161.8302 H   0  0  0  0  0  0  0  0  0  0  0  0
  125.9903  134.8149  163.4623 H   0  0  0  0  0  0  0  0  0  0  0  0
  124.4474  132.9836  162.2533 H   0  0  0  0  0  0  0  0  0  0  0  0
  123.8450  135.6992  161.3997 H   0  0  0  0  0  0  0  0  0  0  0  0
  124.5299  134.2181  159.6169 H   0  0  0  0  0  0  0  0  0  0  0  0
  125.0758  132.5766  160.0793 H   0  0  0  0  0  0  0  0  0  0  0  0
  131.3411  134.9906  158.7314 H   0  0  0  0  0  0  0  0  0  0  0  0
  131.6789  133.3891  158.0318 H   0  0  0  0  0  0  0  0  0  0  0  0
  130.1003  131.5224  160.0039 H   0  0  0  0  0  0  0  0  0  0  0  0
  133.2572  135.3163  159.0497 H   0  0  0  0  0  0  0  0  0  0  0  0
  134.7481  137.7767  158.5047 H   0  0  0  0  0  0  0  0  0  0  0  0
  135.6375  139.8358  159.5062 H   0  0  0  0  0  0  0  0  0  0  0  0
  135.2931  140.3020  161.8966 H   0  0  0  0  0  0  0  0  0  0  0  0
  134.0518  138.7048  163.3030 H   0  0  0  0  0  0  0  0  0  0  0  0
  131.9606  136.5365  162.6693 H   0  0  0  0  0  0  0  0  0  0  0  0
  133.4865  135.6880  163.0550 H   0  0  0  0  0  0  0  0  0  0  0  0
  1  2  1  0
  1 30  1  0
  1 31  1  0
  1 32  1  0
  2  3  1  1
  2  4  1  0
  2 11  1  0
  4  5  2  0
  4 33  1  0
  5 10  1  0
  5  6  1  0
  6  7  2  0
  6 34  1  0
  7  8  1  0
  7 35  1  0
  8  9  1  0
  8 10  1  0
  8 36  1  1
  9 37  1  0
 10 38  1  0
 10 39  1  0
 11 12  1  0
 11 13  1  0
 11 14  1  0
 14 15  1  0
 14 40  1  0
 14 41  1  0
 15 20  1  0
 15 16  2  0
 16 17  1  0
 16 42  1  0
 17 18  1  0
 17 19  1  0
 19 20  2  0
 20 21  1  0
 21 29  1  0
 21 22  2  0
 22 23  1  0
 22 43  1  0
 23 28  2  0
 23 24  1  0
 24 25  2  0
 24 44  1  0
 25 26  1  0
 25 45  1  0
 26 27  2  0
 26 46  1  0
 27 28  1  0
 27 47  1  0
 28 29  1  0
 29 48  1  0
 29 49  1  0
M  CHG  1  11   1
M  END
>  <DOCK_score>  (1) 
-44.747559

>  <SMILES>  (1) 
C[C@@H](C=C1C=CC(O)C1)[NH2+]Cc1c[nH]nc1C1=Cc2ccccc2C1

$$$$
