Cc1cccc(N2CC[NH+]([C@H](c3ccccc3)c3ccccc3N3CC=CC3)CC2)c1C
     RDKit          3D

 66 70  0  0  1  0  0  0  0  0999 V2000
  135.4918  140.6293  163.5142 C   0  0  0  0  0  0  0  0  0  0  0  0
  135.0089  140.0737  162.1993 C   0  0  0  0  0  0  0  0  0  0  0  0
  135.4695  140.6116  161.0113 C   0  0  0  0  0  0  0  0  0  0  0  0
  135.0288  140.1051  159.8026 C   0  0  0  0  0  0  0  0  0  0  0  0
  134.1268  139.0592  159.7780 C   0  0  0  0  0  0  0  0  0  0  0  0
  133.6623  138.5167  160.9691 C   0  0  0  0  0  0  0  0  0  0  0  0
  132.7499  137.4594  160.9479 N   0  0  0  0  0  0  0  0  0  0  0  0
  131.4795  137.8723  160.3347 C   0  0  0  0  0  0  0  0  0  0  0  0
  130.4898  136.7062  160.3847 C   0  0  0  0  0  0  0  0  0  0  0  0
  131.0506  135.5564  159.6630 N   0  0  0  0  0  0  0  0  0  0  0  0
  131.2312  135.8164  158.7050 H   0  0  0  0  0  0  0  0  0  0  0  0
  130.0925  134.4433  159.6958 C   0  0  2  0  0  0  0  0  0  0  0  0
  129.8970  134.1627  160.7308 H   0  0  0  0  0  0  0  0  0  0  0  0
  130.6678  133.2634  158.9555 C   0  0  0  0  0  0  0  0  0  0  0  0
  130.4320  133.1153  157.6015 C   0  0  0  0  0  0  0  0  0  0  0  0
  130.9630  132.0351  156.9216 C   0  0  0  0  0  0  0  0  0  0  0  0
  131.7224  131.0985  157.5975 C   0  0  0  0  0  0  0  0  0  0  0  0
  131.9541  131.2441  158.9524 C   0  0  0  0  0  0  0  0  0  0  0  0
  131.4265  132.3263  159.6316 C   0  0  0  0  0  0  0  0  0  0  0  0
  128.8049  134.8693  159.0389 C   0  0  0  0  0  0  0  0  0  0  0  0
  128.8231  135.8082  158.0260 C   0  0  0  0  0  0  0  0  0  0  0  0
  127.6416  136.2041  157.4270 C   0  0  0  0  0  0  0  0  0  0  0  0
  126.4392  135.6534  157.8311 C   0  0  0  0  0  0  0  0  0  0  0  0
  126.4136  134.7148  158.8438 C   0  0  0  0  0  0  0  0  0  0  0  0
  127.5985  134.3189  159.4519 C   0  0  0  0  0  0  0  0  0  0  0  0
  127.5764  133.3697  160.4761 N   0  0  0  0  0  0  0  0  0  0  0  0
  126.6378  133.7701  161.5513 C   0  0  0  0  0  0  0  0  0  0  0  0
  126.0336  132.4803  162.0563 C   0  0  0  0  0  0  0  0  0  0  0  0
  126.2399  131.5294  161.1798 C   0  0  0  0  0  0  0  0  0  0  0  0
  127.0026  132.0883  160.0010 C   0  0  0  0  0  0  0  0  0  0  0  0
  132.3062  135.1402  160.3018 C   0  0  0  0  0  0  0  0  0  0  0  0
  133.3111  136.2933  160.2512 C   0  0  0  0  0  0  0  0  0  0  0  0
  134.1029  139.0318  162.1820 C   0  0  0  0  0  0  0  0  0  0  0  0
  133.5969  138.4505  163.4769 C   0  0  0  0  0  0  0  0  0  0  0  0
  134.8299  141.4343  163.8335 H   0  0  0  0  0  0  0  0  0  0  0  0
  135.4909  139.8391  164.2650 H   0  0  0  0  0  0  0  0  0  0  0  0
  136.5038  141.0164  163.3955 H   0  0  0  0  0  0  0  0  0  0  0  0
  136.1748  141.4293  161.0278 H   0  0  0  0  0  0  0  0  0  0  0  0
  135.3904  140.5274  158.8768 H   0  0  0  0  0  0  0  0  0  0  0  0
  133.7829  138.6640  158.8335 H   0  0  0  0  0  0  0  0  0  0  0  0
  131.6525  138.1583  159.2972 H   0  0  0  0  0  0  0  0  0  0  0  0
  131.0700  138.7207  160.8828 H   0  0  0  0  0  0  0  0  0  0  0  0
  129.5516  137.0058  159.9176 H   0  0  0  0  0  0  0  0  0  0  0  0
  130.3066  136.4294  161.4230 H   0  0  0  0  0  0  0  0  0  0  0  0
  129.8356  133.8451  157.0741 H   0  0  0  0  0  0  0  0  0  0  0  0
  130.7816  131.9212  155.8631 H   0  0  0  0  0  0  0  0  0  0  0  0
  132.1343  130.2527  157.0670 H   0  0  0  0  0  0  0  0  0  0  0  0
  132.5470  130.5120  159.4807 H   0  0  0  0  0  0  0  0  0  0  0  0
  131.6071  132.4398  160.6902 H   0  0  0  0  0  0  0  0  0  0  0  0
  129.7610  136.2366  157.7044 H   0  0  0  0  0  0  0  0  0  0  0  0
  127.6581  136.9419  156.6383 H   0  0  0  0  0  0  0  0  0  0  0  0
  125.5182  135.9619  157.3587 H   0  0  0  0  0  0  0  0  0  0  0  0
  125.4737  134.2889  159.1627 H   0  0  0  0  0  0  0  0  0  0  0  0
  127.1760  134.2746  162.3538 H   0  0  0  0  0  0  0  0  0  0  0  0
  125.8598  134.4200  161.1507 H   0  0  0  0  0  0  0  0  0  0  0  0
  125.5129  132.3610  162.9949 H   0  0  0  0  0  0  0  0  0  0  0  0
  125.9152  130.5046  161.2833 H   0  0  0  0  0  0  0  0  0  0  0  0
  126.3273  132.2645  159.1636 H   0  0  0  0  0  0  0  0  0  0  0  0
  127.7985  131.4040  159.7074 H   0  0  0  0  0  0  0  0  0  0  0  0
  132.1138  134.8715  161.3405 H   0  0  0  0  0  0  0  0  0  0  0  0
  132.7146  134.2789  159.7733 H   0  0  0  0  0  0  0  0  0  0  0  0
  133.5142  136.5533  159.2123 H   0  0  0  0  0  0  0  0  0  0  0  0
  134.2377  135.9898  160.7384 H   0  0  0  0  0  0  0  0  0  0  0  0
  134.2528  137.6388  163.7916 H   0  0  0  0  0  0  0  0  0  0  0  0
  133.5847  139.2257  164.2430 H   0  0  0  0  0  0  0  0  0  0  0  0
  132.5870  138.0663  163.3326 H   0  0  0  0  0  0  0  0  0  0  0  0
  1  2  1  0
  1 35  1  0
  1 36  1  0
  1 37  1  0
  2 33  2  0
  2  3  1  0
  3  4  2  0
  3 38  1  0
  4  5  1  0
  4 39  1  0
  5  6  2  0
  5 40  1  0
  6  7  1  0
  6 33  1  0
  7 32  1  0
  7  8  1  0
  8  9  1  0
  8 41  1  0
  8 42  1  0
  9 10  1  0
  9 43  1  0
  9 44  1  0
 10 11  1  0
 10 12  1  0
 10 31  1  0
 12 13  1  1
 12 14  1  0
 12 20  1  0
 14 19  1  0
 14 15  2  0
 15 16  1  0
 15 45  1  0
 16 17  2  0
 16 46  1  0
 17 18  1  0
 17 47  1  0
 18 19  2  0
 18 48  1  0
 19 49  1  0
 20 25  1  0
 20 21  2  0
 21 22  1  0
 21 50  1  0
 22 23  2  0
 22 51  1  0
 23 24  1  0
 23 52  1  0
 24 25  2  0
 24 53  1  0
 25 26  1  0
 26 30  1  0
 26 27  1  0
 27 28  1  0
 27 54  1  0
 27 55  1  0
 28 29  2  0
 28 56  1  0
 29 30  1  0
 29 57  1  0
 30 58  1  0
 30 59  1  0
 31 32  1  0
 31 60  1  0
 31 61  1  0
 32 62  1  0
 32 63  1  0
 33 34  1  0
 34 64  1  0
 34 65  1  0
 34 66  1  0
M  CHG  1  10   1
M  END
>  <DOCK_score>  (1) 
-56.984753

>  <SMILES>  (1) 
Cc1cccc(N2CC[NH+]([C@H](c3ccccc3)c3ccccc3N3CC=CC3)CC2)c1C

$$$$
