CCc1ccc(Nc2cncc([C@H](CCl)[NH+]=C3NCCCN3)c2)cc1
     RDKit          3D

 50 52  0  0  1  0  0  0  0  0999 V2000
  126.3954  136.5238  168.2432 C   0  0  0  0  0  0  0  0  0  0  0  0
  127.6023  136.3485  167.3194 C   0  0  0  0  0  0  0  0  0  0  0  0
  127.1384  136.3245  165.8859 C   0  0  0  0  0  0  0  0  0  0  0  0
  127.0521  137.5037  165.1688 C   0  0  0  0  0  0  0  0  0  0  0  0
  126.6270  137.4853  163.8550 C   0  0  0  0  0  0  0  0  0  0  0  0
  126.2856  136.2802  163.2539 C   0  0  0  0  0  0  0  0  0  0  0  0
  125.8547  136.2580  161.9252 N   0  0  0  0  0  0  0  0  0  0  0  0
  126.7833  136.1068  160.8918 C   0  0  0  0  0  0  0  0  0  0  0  0
  126.3666  136.0891  159.5664 C   0  0  0  0  0  0  0  0  0  0  0  0
  127.2397  135.9473  158.5896 N   0  0  0  0  0  0  0  0  0  0  0  0
  128.5309  135.8174  158.8247 C   0  0  0  0  0  0  0  0  0  0  0  0
  129.0220  135.8253  160.1169 C   0  0  0  0  0  0  0  0  0  0  0  0
  130.4998  135.6754  160.3713 C   0  0  2  0  0  0  0  0  0  0  0  0
  130.6551  135.1868  161.3333 H   0  0  0  0  0  0  0  0  0  0  0  0
  131.1570  137.0571  160.3891 C   0  0  0  0  0  0  0  0  0  0  0  0
  132.9250  136.8777  160.6934 Cl  0  0  0  0  0  0  0  0  0  0  0  0
  131.0985  134.8636  159.3089 N   0  0  0  0  0  0  0  0  0  0  0  0
  131.8006  135.2347  158.7522 H   0  0  0  0  0  0  0  0  0  0  0  0
  130.6875  133.6424  159.1118 C   0  0  0  0  0  0  0  0  0  0  0  0
  129.6906  133.0733  159.8896 N   0  0  0  0  0  0  0  0  0  0  0  0
  128.6611  132.2803  159.1911 C   0  0  0  0  0  0  0  0  0  0  0  0
  129.3613  131.2762  158.2682 C   0  0  0  0  0  0  0  0  0  0  0  0
  130.2950  132.0330  157.3166 C   0  0  0  0  0  0  0  0  0  0  0  0
  131.2281  132.8418  158.1173 N   0  0  0  0  0  0  0  0  0  0  0  0
  128.1409  135.9774  161.1749 C   0  0  0  0  0  0  0  0  0  0  0  0
  126.3684  135.0980  163.9788 C   0  0  0  0  0  0  0  0  0  0  0  0
  126.7994  135.1230  165.2906 C   0  0  0  0  0  0  0  0  0  0  0  0
  125.7039  135.6936  168.0990 H   0  0  0  0  0  0  0  0  0  0  0  0
  126.7309  136.5412  169.2802 H   0  0  0  0  0  0  0  0  0  0  0  0
  125.8913  137.4614  168.0086 H   0  0  0  0  0  0  0  0  0  0  0  0
  128.1064  135.4109  167.5540 H   0  0  0  0  0  0  0  0  0  0  0  0
  128.2937  137.1787  167.4636 H   0  0  0  0  0  0  0  0  0  0  0  0
  127.3173  138.4402  165.6368 H   0  0  0  0  0  0  0  0  0  0  0  0
  126.5595  138.4067  163.2957 H   0  0  0  0  0  0  0  0  0  0  0  0
  124.9113  136.3514  161.7195 H   0  0  0  0  0  0  0  0  0  0  0  0
  125.3169  136.1931  159.3345 H   0  0  0  0  0  0  0  0  0  0  0  0
  129.2141  135.7029  157.9962 H   0  0  0  0  0  0  0  0  0  0  0  0
  131.0016  137.5457  159.4272 H   0  0  0  0  0  0  0  0  0  0  0  0
  130.7115  137.6611  161.1795 H   0  0  0  0  0  0  0  0  0  0  0  0
  129.6716  133.1942  160.8518 H   0  0  0  0  0  0  0  0  0  0  0  0
  128.0259  132.9396  158.5994 H   0  0  0  0  0  0  0  0  0  0  0  0
  128.0560  131.7447  159.9224 H   0  0  0  0  0  0  0  0  0  0  0  0
  128.6151  130.7316  157.6897 H   0  0  0  0  0  0  0  0  0  0  0  0
  129.9421  130.5741  158.8664 H   0  0  0  0  0  0  0  0  0  0  0  0
  129.7079  132.6848  156.6698 H   0  0  0  0  0  0  0  0  0  0  0  0
  130.8553  131.3207  156.7108 H   0  0  0  0  0  0  0  0  0  0  0  0
  132.1841  132.8157  157.9556 H   0  0  0  0  0  0  0  0  0  0  0  0
  128.4973  135.9913  162.1943 H   0  0  0  0  0  0  0  0  0  0  0  0
  126.0999  134.1599  163.5158 H   0  0  0  0  0  0  0  0  0  0  0  0
  126.8679  134.2038  165.8535 H   0  0  0  0  0  0  0  0  0  0  0  0
  1  2  1  0
  1 28  1  0
  1 29  1  0
  1 30  1  0
  2  3  1  0
  2 31  1  0
  2 32  1  0
  3 27  2  0
  3  4  1  0
  4  5  2  0
  4 33  1  0
  5  6  1  0
  5 34  1  0
  6  7  1  0
  6 26  2  0
  7  8  1  0
  7 35  1  0
  8 25  1  0
  8  9  2  0
  9 10  1  0
  9 36  1  0
 10 11  2  0
 11 12  1  0
 11 37  1  0
 12 13  1  0
 12 25  2  0
 13 14  1  1
 13 15  1  0
 13 17  1  0
 15 16  1  0
 15 38  1  0
 15 39  1  0
 17 18  1  0
 17 19  2  0
 19 24  1  0
 19 20  1  0
 20 21  1  0
 20 40  1  0
 21 22  1  0
 21 41  1  0
 21 42  1  0
 22 23  1  0
 22 43  1  0
 22 44  1  0
 23 24  1  0
 23 45  1  0
 23 46  1  0
 24 47  1  0
 25 48  1  0
 26 27  1  0
 26 49  1  0
 27 50  1  0
M  CHG  1  17   1
M  END
>  <DOCK_score>  (1) 
-44.085426

>  <SMILES>  (1) 
CCc1ccc(Nc2cncc([C@H](CCl)[NH+]=C3NCCCN3)c2)cc1

$$$$
