O=C1CCC([NH+]=C(NCc2ccccc2F)NC2CC3C[C@H]3C2)CN1
     RDKit          3D

 51 54  0  0  1  0  0  0  0  0999 V2000
  123.7076  133.6356  161.4197 O   0  0  0  0  0  0  0  0  0  0  0  0
  124.8858  133.8376  161.2150 C   0  0  0  0  0  0  0  0  0  0  0  0
  125.7345  132.6879  160.7535 C   0  0  0  0  0  0  0  0  0  0  0  0
  127.2183  133.0118  160.9689 C   0  0  0  0  0  0  0  0  0  0  0  0
  127.4929  134.4079  160.3969 C   0  0  2  0  0  0  0  0  0  0  0  0
  128.9325  134.6777  160.4293 N   0  0  0  0  0  0  0  0  0  0  0  0
  129.3299  135.0974  161.2083 H   0  0  0  0  0  0  0  0  0  0  0  0
  129.6793  134.3538  159.4112 C   0  0  0  0  0  0  0  0  0  0  0  0
  129.1160  133.7590  158.3072 N   0  0  0  0  0  0  0  0  0  0  0  0
  129.7014  133.9727  156.9813 C   0  0  0  0  0  0  0  0  0  0  0  0
  130.1248  132.6484  156.3998 C   0  0  0  0  0  0  0  0  0  0  0  0
  129.8242  132.3425  155.0858 C   0  0  0  0  0  0  0  0  0  0  0  0
  130.2174  131.1303  154.5505 C   0  0  0  0  0  0  0  0  0  0  0  0
  130.9020  130.2178  155.3320 C   0  0  0  0  0  0  0  0  0  0  0  0
  131.1986  130.5191  156.6475 C   0  0  0  0  0  0  0  0  0  0  0  0
  130.8100  131.7355  157.1832 C   0  0  0  0  0  0  0  0  0  0  0  0
  131.0991  132.0311  158.4693 F   0  0  0  0  0  0  0  0  0  0  0  0
  131.0303  134.6071  159.4415 N   0  0  0  0  0  0  0  0  0  0  0  0
  131.6304  135.2411  160.6179 C   0  0  2  0  0  0  0  0  0  0  0  0
  132.9583  135.9459  160.2442 C   0  0  0  0  0  0  0  0  0  0  0  0
  133.7401  136.0085  161.5727 C   0  0  1  0  0  0  0  0  0  0  0  0
  132.9565  136.3373  162.8744 C   0  0  0  0  0  0  0  0  0  0  0  0
  133.1861  134.8820  162.4624 C   0  0  1  0  0  0  0  0  0  0  0  0
  133.8472  134.2559  163.0616 H   0  0  0  0  0  0  0  0  0  0  0  0
  132.0869  134.1740  161.6437 C   0  0  0  0  0  0  0  0  0  0  0  0
  126.7577  135.4431  161.2489 C   0  0  0  0  0  0  0  0  0  0  0  0
  125.3583  135.0692  161.4114 N   0  0  0  0  0  0  0  0  0  0  0  0
  125.4731  131.7945  161.3207 H   0  0  0  0  0  0  0  0  0  0  0  0
  125.5559  132.5088  159.6933 H   0  0  0  0  0  0  0  0  0  0  0  0
  127.8370  132.2763  160.4548 H   0  0  0  0  0  0  0  0  0  0  0  0
  127.4441  133.0011  162.0352 H   0  0  0  0  0  0  0  0  0  0  0  0
  127.1343  134.4590  159.3690 H   0  0  0  0  0  0  0  0  0  0  0  0
  128.3310  133.1978  158.4060 H   0  0  0  0  0  0  0  0  0  0  0  0
  128.9621  134.4365  156.3283 H   0  0  0  0  0  0  0  0  0  0  0  0
  130.5697  134.6256  157.0685 H   0  0  0  0  0  0  0  0  0  0  0  0
  129.2857  133.0527  154.4759 H   0  0  0  0  0  0  0  0  0  0  0  0
  129.9861  130.8939  153.5225 H   0  0  0  0  0  0  0  0  0  0  0  0
  131.2052  129.2693  154.9139 H   0  0  0  0  0  0  0  0  0  0  0  0
  131.7335  129.8064  157.2576 H   0  0  0  0  0  0  0  0  0  0  0  0
  131.5860  134.3660  158.6839 H   0  0  0  0  0  0  0  0  0  0  0  0
  130.9327  135.9427  161.0750 H   0  0  0  0  0  0  0  0  0  0  0  0
  133.5064  135.3603  159.5063 H   0  0  0  0  0  0  0  0  0  0  0  0
  132.7641  136.9503  159.8681 H   0  0  0  0  0  0  0  0  0  0  0  0
  134.8087  136.2182  161.5234 H   0  0  0  0  0  0  0  0  0  0  0  0
  131.9455  136.7336  162.7781 H   0  0  0  0  0  0  0  0  0  0  0  0
  133.5312  136.7173  163.7191 H   0  0  0  0  0  0  0  0  0  0  0  0
  131.2569  133.8854  162.2887 H   0  0  0  0  0  0  0  0  0  0  0  0
  132.4922  133.3013  161.1316 H   0  0  0  0  0  0  0  0  0  0  0  0
  127.2303  135.5043  162.2293 H   0  0  0  0  0  0  0  0  0  0  0  0
  126.8162  136.4170  160.7629 H   0  0  0  0  0  0  0  0  0  0  0  0
  124.7315  135.7593  161.6789 H   0  0  0  0  0  0  0  0  0  0  0  0
  1  2  2  0
  2 27  1  0
  2  3  1  0
  3  4  1  0
  3 28  1  0
  3 29  1  0
  4  5  1  0
  4 30  1  0
  4 31  1  0
  5  6  1  0
  5 26  1  0
  5 32  1  6
  6  7  1  0
  8  6  2  0
  8  9  1  0
  8 18  1  0
  9 10  1  0
  9 33  1  0
 10 11  1  0
 10 34  1  0
 10 35  1  0
 11 16  1  0
 11 12  2  0
 12 13  1  0
 12 36  1  0
 13 14  2  0
 13 37  1  0
 14 15  1  0
 14 38  1  0
 15 16  2  0
 15 39  1  0
 16 17  1  0
 18 19  1  0
 18 40  1  0
 19 25  1  0
 19 20  1  0
 19 41  1  1
 20 21  1  0
 20 42  1  0
 20 43  1  0
 21 23  1  0
 21 22  1  0
 21 44  1  6
 22 23  1  0
 22 45  1  0
 22 46  1  0
 23 24  1  1
 23 25  1  0
 25 47  1  0
 25 48  1  0
 26 27  1  0
 26 49  1  0
 26 50  1  0
 27 51  1  0
M  CHG  1   6   1
M  END
>  <DOCK_score>  (1) 
-50.465153

>  <SMILES>  (1) 
O=C1CCC([NH+]=C(NCc2ccccc2F)NC2CC3C[C@H]3C2)CN1

$$$$
