CCc1ccc(-c2c[nH]c(Nc3ccc(Nc4ccccc4)cc3)[nH+]2)cc1
     RDKit          3D

 50 53  0  0  1  0  0  0  0  0999 V2000
  130.2726  128.1994  151.3500 C   0  0  0  0  0  0  0  0  0  0  0  0
  131.2509  129.3686  151.4780 C   0  0  0  0  0  0  0  0  0  0  0  0
  130.9670  130.1240  152.7507 C   0  0  0  0  0  0  0  0  0  0  0  0
  131.6056  129.7629  153.9231 C   0  0  0  0  0  0  0  0  0  0  0  0
  131.3539  130.4546  155.0906 C   0  0  0  0  0  0  0  0  0  0  0  0
  130.4457  131.5118  155.0890 C   0  0  0  0  0  0  0  0  0  0  0  0
  130.1668  132.2555  156.3418 C   0  0  0  0  0  0  0  0  0  0  0  0
  129.6714  131.7287  157.4893 C   0  0  0  0  0  0  0  0  0  0  0  0
  129.5696  132.7604  158.3901 N   0  0  0  0  0  0  0  0  0  0  0  0
  129.2466  132.6966  159.3025 H   0  0  0  0  0  0  0  0  0  0  0  0
  130.0061  133.8888  157.7662 C   0  0  0  0  0  0  0  0  0  0  0  0
  130.0644  135.1519  158.3314 N   0  0  0  0  0  0  0  0  0  0  0  0
  129.1471  135.5178  159.3242 C   0  0  0  0  0  0  0  0  0  0  0  0
  129.5138  136.4284  160.3068 C   0  0  0  0  0  0  0  0  0  0  0  0
  128.6077  136.7935  161.2824 C   0  0  0  0  0  0  0  0  0  0  0  0
  127.3332  136.2415  161.2878 C   0  0  0  0  0  0  0  0  0  0  0  0
  126.4162  136.6075  162.2800 N   0  0  0  0  0  0  0  0  0  0  0  0
  126.7128  136.3755  163.6252 C   0  0  0  0  0  0  0  0  0  0  0  0
  126.2064  137.2200  164.6054 C   0  0  0  0  0  0  0  0  0  0  0  0
  126.4983  136.9854  165.9347 C   0  0  0  0  0  0  0  0  0  0  0  0
  127.3010  135.9167  166.2898 C   0  0  0  0  0  0  0  0  0  0  0  0
  127.8107  135.0770  165.3163 C   0  0  0  0  0  0  0  0  0  0  0  0
  127.5193  135.3031  163.9855 C   0  0  0  0  0  0  0  0  0  0  0  0
  126.9684  135.3265  160.3086 C   0  0  0  0  0  0  0  0  0  0  0  0
  127.8728  134.9657  159.3297 C   0  0  0  0  0  0  0  0  0  0  0  0
  130.3675  133.5816  156.5442 N   0  0  0  0  0  0  0  0  0  0  0  0
  130.7198  134.2036  155.8887 H   0  0  0  0  0  0  0  0  0  0  0  0
  129.8008  131.8680  153.9058 C   0  0  0  0  0  0  0  0  0  0  0  0
  130.0644  131.1729  152.7431 C   0  0  0  0  0  0  0  0  0  0  0  0
  130.3921  127.5313  152.2030 H   0  0  0  0  0  0  0  0  0  0  0  0
  129.2516  128.5800  151.3267 H   0  0  0  0  0  0  0  0  0  0  0  0
  130.4780  127.6531  150.4294 H   0  0  0  0  0  0  0  0  0  0  0  0
  132.2715  128.9885  151.5009 H   0  0  0  0  0  0  0  0  0  0  0  0
  131.1311  130.0371  150.6246 H   0  0  0  0  0  0  0  0  0  0  0  0
  132.3058  128.9407  153.9240 H   0  0  0  0  0  0  0  0  0  0  0  0
  131.8565  130.1744  156.0045 H   0  0  0  0  0  0  0  0  0  0  0  0
  129.4082  130.6957  157.6617 H   0  0  0  0  0  0  0  0  0  0  0  0
  130.7406  135.7831  158.0395 H   0  0  0  0  0  0  0  0  0  0  0  0
  130.5063  136.8543  160.3051 H   0  0  0  0  0  0  0  0  0  0  0  0
  128.8915  137.5047  162.0440 H   0  0  0  0  0  0  0  0  0  0  0  0
  125.5748  137.0224  162.0335 H   0  0  0  0  0  0  0  0  0  0  0  0
  125.5826  138.0569  164.3284 H   0  0  0  0  0  0  0  0  0  0  0  0
  126.1026  137.6397  166.6974 H   0  0  0  0  0  0  0  0  0  0  0  0
  127.5308  135.7378  167.3297 H   0  0  0  0  0  0  0  0  0  0  0  0
  128.4374  134.2436  165.5971 H   0  0  0  0  0  0  0  0  0  0  0  0
  127.9181  134.6474  163.2258 H   0  0  0  0  0  0  0  0  0  0  0  0
  125.9775  134.8970  160.3130 H   0  0  0  0  0  0  0  0  0  0  0  0
  127.5893  134.2541  158.5684 H   0  0  0  0  0  0  0  0  0  0  0  0
  129.0959  132.6861  153.8989 H   0  0  0  0  0  0  0  0  0  0  0  0
  129.5656  131.4481  151.8257 H   0  0  0  0  0  0  0  0  0  0  0  0
  1  2  1  0
  1 30  1  0
  1 31  1  0
  1 32  1  0
  2  3  1  0
  2 33  1  0
  2 34  1  0
  3 29  2  0
  3  4  1  0
  4  5  2  0
  4 35  1  0
  5  6  1  0
  5 36  1  0
  6  7  1  0
  6 28  2  0
  7 26  1  0
  7  8  2  0
  8  9  1  0
  8 37  1  0
  9 10  1  0
  9 11  1  0
 11 12  1  0
 11 26  2  0
 12 13  1  0
 12 38  1  0
 13 25  1  0
 13 14  2  0
 14 15  1  0
 14 39  1  0
 15 16  2  0
 15 40  1  0
 16 17  1  0
 16 24  1  0
 17 18  1  0
 17 41  1  0
 18 23  1  0
 18 19  2  0
 19 20  1  0
 19 42  1  0
 20 21  2  0
 20 43  1  0
 21 22  1  0
 21 44  1  0
 22 23  2  0
 22 45  1  0
 23 46  1  0
 24 25  2  0
 24 47  1  0
 25 48  1  0
 26 27  1  0
 28 29  1  0
 28 49  1  0
 29 50  1  0
M  CHG  1  26   1
M  END
>  <DOCK_score>  (1) 
-57.809509

>  <SMILES>  (1) 
CCc1ccc(-c2c[nH]c(Nc3ccc(Nc4ccccc4)cc3)[nH+]2)cc1

$$$$
