CCc1ccc(C(C)[C@@H](Nc2[nH]cc(-c3ccc(N)cc3)[nH+]2)c2ccnn2C)cc1
     RDKit          3D

 59 62  0  0  1  0  0  0  0  0999 V2000
  135.5816  140.2360  161.1405 C   0  0  0  0  0  0  0  0  0  0  0  0
  135.4306  138.7738  160.7161 C   0  0  0  0  0  0  0  0  0  0  0  0
  133.9897  138.3556  160.8579 C   0  0  0  0  0  0  0  0  0  0  0  0
  133.1170  138.5125  159.7973 C   0  0  0  0  0  0  0  0  0  0  0  0
  131.7967  138.1238  159.9256 C   0  0  0  0  0  0  0  0  0  0  0  0
  131.3477  137.5832  161.1160 C   0  0  0  0  0  0  0  0  0  0  0  0
  129.9084  137.1590  161.2555 C   0  0  1  0  0  0  0  0  0  0  0  0
  129.0293  138.0366  160.3622 C   0  0  0  0  0  0  0  0  0  0  0  0
  129.7648  135.6955  160.8326 C   0  0  1  0  0  0  0  0  0  0  0  0
  128.7238  135.3887  160.9335 H   0  0  0  0  0  0  0  0  0  0  0  0
  130.1847  135.5471  159.4370 N   0  0  0  0  0  0  0  0  0  0  0  0
  130.1423  134.3035  158.8299 C   0  0  0  0  0  0  0  0  0  0  0  0
  129.7266  133.1487  159.4172 N   0  0  0  0  0  0  0  0  0  0  0  0
  129.4100  133.0490  160.3287 H   0  0  0  0  0  0  0  0  0  0  0  0
  129.8386  132.1489  158.4802 C   0  0  0  0  0  0  0  0  0  0  0  0
  130.3189  132.7222  157.3492 C   0  0  0  0  0  0  0  0  0  0  0  0
  130.6008  132.0264  156.0696 C   0  0  0  0  0  0  0  0  0  0  0  0
  130.4772  132.7102  154.8612 C   0  0  0  0  0  0  0  0  0  0  0  0
  130.7454  132.0630  153.6735 C   0  0  0  0  0  0  0  0  0  0  0  0
  131.1274  130.7267  153.6798 C   0  0  0  0  0  0  0  0  0  0  0  0
  131.3934  130.0716  152.4750 N   0  0  0  0  0  0  0  0  0  0  0  0
  131.2458  130.0413  154.8831 C   0  0  0  0  0  0  0  0  0  0  0  0
  130.9842  130.6861  156.0737 C   0  0  0  0  0  0  0  0  0  0  0  0
  130.4904  134.0456  157.5928 N   0  0  0  0  0  0  0  0  0  0  0  0
  130.8201  134.6969  156.9539 H   0  0  0  0  0  0  0  0  0  0  0  0
  130.6307  134.8312  161.7124 C   0  0  0  0  0  0  0  0  0  0  0  0
  131.9203  134.4941  161.4787 C   0  0  0  0  0  0  0  0  0  0  0  0
  132.3521  133.6856  162.5354 C   0  0  0  0  0  0  0  0  0  0  0  0
  131.3550  133.5361  163.3693 N   0  0  0  0  0  0  0  0  0  0  0  0
  130.2573  134.2497  162.8716 N   0  0  0  0  0  0  0  0  0  0  0  0
  128.9368  134.3474  163.4984 C   0  0  0  0  0  0  0  0  0  0  0  0
  132.2192  137.4313  162.1782 C   0  0  0  0  0  0  0  0  0  0  0  0
  133.5395  137.8200  162.0500 C   0  0  0  0  0  0  0  0  0  0  0  0
  136.6236  140.5383  161.0379 H   0  0  0  0  0  0  0  0  0  0  0  0
  134.9566  140.8648  160.5063 H   0  0  0  0  0  0  0  0  0  0  0  0
  135.2717  140.3465  162.1796 H   0  0  0  0  0  0  0  0  0  0  0  0
  136.0554  138.1450  161.3503 H   0  0  0  0  0  0  0  0  0  0  0  0
  135.7404  138.6633  159.6768 H   0  0  0  0  0  0  0  0  0  0  0  0
  133.4678  138.9346  158.8671 H   0  0  0  0  0  0  0  0  0  0  0  0
  131.1159  138.2421  159.0955 H   0  0  0  0  0  0  0  0  0  0  0  0
  129.5960  137.2694  162.2939 H   0  0  0  0  0  0  0  0  0  0  0  0
  127.9883  137.7297  160.4630 H   0  0  0  0  0  0  0  0  0  0  0  0
  129.1317  139.0791  160.6635 H   0  0  0  0  0  0  0  0  0  0  0  0
  129.3417  137.9261  159.3238 H   0  0  0  0  0  0  0  0  0  0  0  0
  130.4925  136.3200  158.9383 H   0  0  0  0  0  0  0  0  0  0  0  0
  129.5914  131.1067  158.6184 H   0  0  0  0  0  0  0  0  0  0  0  0
  130.1756  133.7472  154.8555 H   0  0  0  0  0  0  0  0  0  0  0  0
  130.6537  132.5936  152.7372 H   0  0  0  0  0  0  0  0  0  0  0  0
  131.6605  129.1391  152.4786 H   0  0  0  0  0  0  0  0  0  0  0  0
  131.3111  130.5493  151.6346 H   0  0  0  0  0  0  0  0  0  0  0  0
  131.5424  129.0029  154.8857 H   0  0  0  0  0  0  0  0  0  0  0  0
  131.0767  130.1531  157.0085 H   0  0  0  0  0  0  0  0  0  0  0  0
  132.5123  134.7979  160.6280 H   0  0  0  0  0  0  0  0  0  0  0  0
  133.3371  133.2560  162.6423 H   0  0  0  0  0  0  0  0  0  0  0  0
  128.3023  133.5381  163.1369 H   0  0  0  0  0  0  0  0  0  0  0  0
  129.0418  134.2709  164.5806 H   0  0  0  0  0  0  0  0  0  0  0  0
  128.4837  135.3055  163.2442 H   0  0  0  0  0  0  0  0  0  0  0  0
  131.8686  137.0085  163.1082 H   0  0  0  0  0  0  0  0  0  0  0  0
  134.2205  137.7010  162.8799 H   0  0  0  0  0  0  0  0  0  0  0  0
  1  2  1  0
  1 34  1  0
  1 35  1  0
  1 36  1  0
  2  3  1  0
  2 37  1  0
  2 38  1  0
  3 33  2  0
  3  4  1  0
  4  5  2  0
  4 39  1  0
  5  6  1  0
  5 40  1  0
  6  7  1  0
  6 32  2  0
  7  8  1  0
  7  9  1  0
  7 41  1  1
  8 42  1  0
  8 43  1  0
  8 44  1  0
  9 10  1  6
  9 11  1  0
  9 26  1  0
 11 45  1  0
 12 11  1  0
 12 24  2  0
 12 13  1  0
 13 14  1  0
 13 15  1  0
 15 16  2  0
 15 46  1  0
 16 17  1  0
 16 24  1  0
 17 23  1  0
 17 18  2  0
 18 19  1  0
 18 47  1  0
 19 20  2  0
 19 48  1  0
 20 21  1  0
 20 22  1  0
 21 49  1  0
 21 50  1  0
 22 23  2  0
 22 51  1  0
 23 52  1  0
 24 25  1  0
 26 30  1  0
 26 27  2  0
 27 28  1  0
 27 53  1  0
 28 29  2  0
 28 54  1  0
 29 30  1  0
 30 31  1  0
 31 55  1  0
 31 56  1  0
 31 57  1  0
 32 33  1  0
 32 58  1  0
 33 59  1  0
M  CHG  1  24   1
M  END
>  <DOCK_score>  (1) 
-57.306599

>  <SMILES>  (1) 
CCc1ccc(C(C)[C@@H](Nc2[nH]cc(-c3ccc(N)cc3)[nH+]2)c2ccnn2C)cc1

$$$$
