C1=CCC(c2ccc(-c3c[nH]c(NC(c4ccccc4)c4ccccc4)[nH+]3)cc2)C1
     RDKit          3D

 56 60  0  0  1  0  0  0  0  0999 V2000
  129.7730  128.3622  150.8126 C   0  0  0  0  0  0  0  0  0  0  0  0
  130.4376  127.4725  151.4983 C   0  0  0  0  0  0  0  0  0  0  0  0
  131.1224  128.1030  152.6886 C   0  0  0  0  0  0  0  0  0  0  0  0
  131.1142  129.6200  152.3921 C   0  0  0  0  0  0  0  0  0  0  0  0
  130.8857  130.4165  153.6508 C   0  0  0  0  0  0  0  0  0  0  0  0
  131.3184  129.9213  154.8673 C   0  0  0  0  0  0  0  0  0  0  0  0
  131.1170  130.6488  156.0227 C   0  0  0  0  0  0  0  0  0  0  0  0
  130.4657  131.8795  155.9634 C   0  0  0  0  0  0  0  0  0  0  0  0
  130.2412  132.6635  157.2025 C   0  0  0  0  0  0  0  0  0  0  0  0
  129.5292  132.2605  158.2839 C   0  0  0  0  0  0  0  0  0  0  0  0
  129.5784  133.2848  159.1979 N   0  0  0  0  0  0  0  0  0  0  0  0
  129.1635  133.2928  160.0747 H   0  0  0  0  0  0  0  0  0  0  0  0
  130.3127  134.2881  158.6444 C   0  0  0  0  0  0  0  0  0  0  0  0
  130.5971  135.5037  159.2425 N   0  0  0  0  0  0  0  0  0  0  0  0
  130.0921  135.7947  160.5865 C   0  0  0  0  0  0  0  0  0  0  0  0
  130.5387  137.1723  161.0036 C   0  0  0  0  0  0  0  0  0  0  0  0
  131.7360  137.3371  161.6747 C   0  0  0  0  0  0  0  0  0  0  0  0
  132.1480  138.6012  162.0531 C   0  0  0  0  0  0  0  0  0  0  0  0
  131.3573  139.6996  161.7690 C   0  0  0  0  0  0  0  0  0  0  0  0
  130.1580  139.5341  161.1030 C   0  0  0  0  0  0  0  0  0  0  0  0
  129.7485  138.2705  160.7202 C   0  0  0  0  0  0  0  0  0  0  0  0
  128.5863  135.7349  160.5813 C   0  0  0  0  0  0  0  0  0  0  0  0
  127.9059  135.3520  161.7221 C   0  0  0  0  0  0  0  0  0  0  0  0
  126.5244  135.3018  161.7188 C   0  0  0  0  0  0  0  0  0  0  0  0
  125.8239  135.6242  160.5715 C   0  0  0  0  0  0  0  0  0  0  0  0
  126.5046  136.0020  159.4292 C   0  0  0  0  0  0  0  0  0  0  0  0
  127.8857  136.0572  159.4341 C   0  0  0  0  0  0  0  0  0  0  0  0
  130.7071  133.9131  157.4520 N   0  0  0  0  0  0  0  0  0  0  0  0
  131.2457  134.4443  156.8448 H   0  0  0  0  0  0  0  0  0  0  0  0
  130.0265  132.3712  154.7354 C   0  0  0  0  0  0  0  0  0  0  0  0
  130.2385  131.6378  153.5858 C   0  0  0  0  0  0  0  0  0  0  0  0
  129.9036  129.7345  151.4312 C   0  0  0  0  0  0  0  0  0  0  0  0
  129.2047  128.1460  149.9200 H   0  0  0  0  0  0  0  0  0  0  0  0
  130.4915  126.4233  151.2478 H   0  0  0  0  0  0  0  0  0  0  0  0
  130.5667  127.8918  153.6023 H   0  0  0  0  0  0  0  0  0  0  0  0
  132.1460  127.7386  152.7748 H   0  0  0  0  0  0  0  0  0  0  0  0
  132.0361  129.9279  151.8983 H   0  0  0  0  0  0  0  0  0  0  0  0
  131.8191  128.9655  154.9128 H   0  0  0  0  0  0  0  0  0  0  0  0
  131.4595  130.2630  156.9715 H   0  0  0  0  0  0  0  0  0  0  0  0
  129.0223  131.3145  158.4044 H   0  0  0  0  0  0  0  0  0  0  0  0
  131.1307  136.1629  158.7717 H   0  0  0  0  0  0  0  0  0  0  0  0
  130.4826  135.0581  161.2888 H   0  0  0  0  0  0  0  0  0  0  0  0
  132.3512  136.4785  161.9001 H   0  0  0  0  0  0  0  0  0  0  0  0
  133.0853  138.7303  162.5741 H   0  0  0  0  0  0  0  0  0  0  0  0
  131.6776  140.6865  162.0691 H   0  0  0  0  0  0  0  0  0  0  0  0
  129.5405  140.3920  160.8819 H   0  0  0  0  0  0  0  0  0  0  0  0
  128.8110  138.1413  160.1997 H   0  0  0  0  0  0  0  0  0  0  0  0
  128.4535  135.0958  162.6170 H   0  0  0  0  0  0  0  0  0  0  0  0
  125.9927  135.0064  162.6111 H   0  0  0  0  0  0  0  0  0  0  0  0
  124.7447  135.5807  160.5676 H   0  0  0  0  0  0  0  0  0  0  0  0
  125.9572  136.2536  158.5328 H   0  0  0  0  0  0  0  0  0  0  0  0
  128.4175  136.3520  158.5415 H   0  0  0  0  0  0  0  0  0  0  0  0
  129.5215  133.3245  154.6835 H   0  0  0  0  0  0  0  0  0  0  0  0
  129.8988  132.0179  152.6335 H   0  0  0  0  0  0  0  0  0  0  0  0
  130.0993  130.4810  150.6614 H   0  0  0  0  0  0  0  0  0  0  0  0
  128.9998  129.9892  151.9849 H   0  0  0  0  0  0  0  0  0  0  0  0
  1 32  1  0
  1  2  2  0
  1 33  1  0
  2  3  1  0
  2 34  1  0
  3  4  1  0
  3 35  1  0
  3 36  1  0
  4  5  1  0
  4 32  1  0
  4 37  1  0
  5 31  1  0
  5  6  2  0
  6  7  1  0
  6 38  1  0
  7  8  2  0
  7 39  1  0
  8  9  1  0
  8 30  1  0
  9 28  1  0
  9 10  2  0
 10 11  1  0
 10 40  1  0
 11 12  1  0
 11 13  1  0
 13 14  1  0
 13 28  2  0
 14 15  1  0
 14 41  1  0
 15 16  1  0
 15 22  1  0
 15 42  1  0
 16 21  1  0
 16 17  2  0
 17 18  1  0
 17 43  1  0
 18 19  2  0
 18 44  1  0
 19 20  1  0
 19 45  1  0
 20 21  2  0
 20 46  1  0
 21 47  1  0
 22 27  1  0
 22 23  2  0
 23 24  1  0
 23 48  1  0
 24 25  2  0
 24 49  1  0
 25 26  1  0
 25 50  1  0
 26 27  2  0
 26 51  1  0
 27 52  1  0
 28 29  1  0
 30 31  2  0
 30 53  1  0
 31 54  1  0
 32 55  1  0
 32 56  1  0
M  CHG  1  28   1
M  END
>  <DOCK_score>  (1) 
-62.095497

>  <SMILES>  (1) 
C1=CCC(c2ccc(-c3c[nH]c(NC(c4ccccc4)c4ccccc4)[nH+]3)cc2)C1

$$$$
