CCCC=CCc1c(C)cccc1N1CC[NH+](C(c2ccccc2)c2ccccc2)CC1
     RDKit          3D

 69 72  0  0  1  0  0  0  0  0999 V2000
  130.9642  141.1030  165.6942 C   0  0  0  0  0  0  0  0  0  0  0  0
  129.8096  140.7630  164.7495 C   0  0  0  0  0  0  0  0  0  0  0  0
  130.2554  140.9770  163.3016 C   0  0  0  0  0  0  0  0  0  0  0  0
  131.4306  140.0831  163.0004 C   0  0  0  0  0  0  0  0  0  0  0  0
  132.6505  140.5127  163.2087 C   0  0  0  0  0  0  0  0  0  0  0  0
  133.8258  139.6188  162.9075 C   0  0  0  0  0  0  0  0  0  0  0  0
  134.2648  139.8296  161.4813 C   0  0  0  0  0  0  0  0  0  0  0  0
  135.2178  140.7844  161.1852 C   0  0  0  0  0  0  0  0  0  0  0  0
  135.8182  141.6163  162.2891 C   0  0  0  0  0  0  0  0  0  0  0  0
  135.6211  140.9785  159.8770 C   0  0  0  0  0  0  0  0  0  0  0  0
  135.0728  140.2171  158.8608 C   0  0  0  0  0  0  0  0  0  0  0  0
  134.1200  139.2605  159.1499 C   0  0  0  0  0  0  0  0  0  0  0  0
  133.7157  139.0598  160.4639 C   0  0  0  0  0  0  0  0  0  0  0  0
  132.7556  138.0897  160.7605 N   0  0  0  0  0  0  0  0  0  0  0  0
  133.2483  136.7440  160.4340 C   0  0  0  0  0  0  0  0  0  0  0  0
  132.1930  135.7082  160.8281 C   0  0  0  0  0  0  0  0  0  0  0  0
  130.9449  135.9805  160.1033 N   0  0  0  0  0  0  0  0  0  0  0  0
  131.1169  135.9384  159.1099 H   0  0  0  0  0  0  0  0  0  0  0  0
  129.9378  134.9752  160.4683 C   0  0  0  0  0  0  0  0  0  0  0  0
  128.6570  135.2543  159.7248 C   0  0  0  0  0  0  0  0  0  0  0  0
  127.4424  134.9056  160.2851 C   0  0  0  0  0  0  0  0  0  0  0  0
  126.2674  135.1660  159.6051 C   0  0  0  0  0  0  0  0  0  0  0  0
  126.3071  135.7657  158.3610 C   0  0  0  0  0  0  0  0  0  0  0  0
  127.5225  136.1097  157.7977 C   0  0  0  0  0  0  0  0  0  0  0  0
  128.6972  135.8539  158.4799 C   0  0  0  0  0  0  0  0  0  0  0  0
  130.4423  133.6031  160.1023 C   0  0  0  0  0  0  0  0  0  0  0  0
  130.0507  132.5028  160.8418 C   0  0  0  0  0  0  0  0  0  0  0  0
  130.5097  131.2436  160.5030 C   0  0  0  0  0  0  0  0  0  0  0  0
  131.3684  131.0860  159.4314 C   0  0  0  0  0  0  0  0  0  0  0  0
  131.7641  132.1870  158.6952 C   0  0  0  0  0  0  0  0  0  0  0  0
  131.3011  133.4455  159.0306 C   0  0  0  0  0  0  0  0  0  0  0  0
  130.4522  137.3179  160.4584 C   0  0  0  0  0  0  0  0  0  0  0  0
  131.4930  138.3671  160.0612 C   0  0  0  0  0  0  0  0  0  0  0  0
  131.2542  142.1444  165.5533 H   0  0  0  0  0  0  0  0  0  0  0  0
  130.6467  140.9506  166.7256 H   0  0  0  0  0  0  0  0  0  0  0  0
  131.8143  140.4566  165.4763 H   0  0  0  0  0  0  0  0  0  0  0  0
  128.9596  141.4095  164.9673 H   0  0  0  0  0  0  0  0  0  0  0  0
  129.5197  139.7217  164.8904 H   0  0  0  0  0  0  0  0  0  0  0  0
  130.5452  142.0183  163.1608 H   0  0  0  0  0  0  0  0  0  0  0  0
  129.4328  140.7347  162.6288 H   0  0  0  0  0  0  0  0  0  0  0  0
  131.2671  139.0883  162.6130 H   0  0  0  0  0  0  0  0  0  0  0  0
  132.8140  141.5074  163.5961 H   0  0  0  0  0  0  0  0  0  0  0  0
  133.5358  138.5775  163.0482 H   0  0  0  0  0  0  0  0  0  0  0  0
  134.6483  139.8610  163.5804 H   0  0  0  0  0  0  0  0  0  0  0  0
  136.7042  141.1159  162.6802 H   0  0  0  0  0  0  0  0  0  0  0  0
  136.0968  142.5943  161.8968 H   0  0  0  0  0  0  0  0  0  0  0  0
  135.0881  141.7401  163.0890 H   0  0  0  0  0  0  0  0  0  0  0  0
  136.3662  141.7261  159.6482 H   0  0  0  0  0  0  0  0  0  0  0  0
  135.3902  140.3711  157.8401 H   0  0  0  0  0  0  0  0  0  0  0  0
  133.6924  138.6661  158.3560 H   0  0  0  0  0  0  0  0  0  0  0  0
  133.4414  136.6773  159.3633 H   0  0  0  0  0  0  0  0  0  0  0  0
  134.1700  136.5511  160.9829 H   0  0  0  0  0  0  0  0  0  0  0  0
  132.0102  135.7660  161.9011 H   0  0  0  0  0  0  0  0  0  0  0  0
  132.5507  134.7104  160.5737 H   0  0  0  0  0  0  0  0  0  0  0  0
  129.7522  135.0198  161.5413 H   0  0  0  0  0  0  0  0  0  0  0  0
  127.4113  134.4330  161.2558 H   0  0  0  0  0  0  0  0  0  0  0  0
  125.3182  134.8969  160.0445 H   0  0  0  0  0  0  0  0  0  0  0  0
  125.3897  135.9651  157.8272 H   0  0  0  0  0  0  0  0  0  0  0  0
  127.5538  136.5779  156.8250 H   0  0  0  0  0  0  0  0  0  0  0  0
  129.6464  136.1225  158.0402 H   0  0  0  0  0  0  0  0  0  0  0  0
  129.3833  132.6263  161.6818 H   0  0  0  0  0  0  0  0  0  0  0  0
  130.2008  130.3834  161.0786 H   0  0  0  0  0  0  0  0  0  0  0  0
  131.7305  130.1028  159.1695 H   0  0  0  0  0  0  0  0  0  0  0  0
  132.4353  132.0640  157.8581 H   0  0  0  0  0  0  0  0  0  0  0  0
  131.6105  134.3058  158.4555 H   0  0  0  0  0  0  0  0  0  0  0  0
  130.2782  137.3674  161.5333 H   0  0  0  0  0  0  0  0  0  0  0  0
  129.5192  137.5135  159.9299 H   0  0  0  0  0  0  0  0  0  0  0  0
  131.1341  139.3584  160.3381 H   0  0  0  0  0  0  0  0  0  0  0  0
  131.6572  138.3270  158.9844 H   0  0  0  0  0  0  0  0  0  0  0  0
  1  2  1  0
  1 34  1  0
  1 35  1  0
  1 36  1  0
  2  3  1  0
  2 37  1  0
  2 38  1  0
  3  4  1  0
  3 39  1  0
  3 40  1  0
  4  5  2  0
  4 41  1  0
  5  6  1  0
  5 42  1  0
  6  7  1  0
  6 43  1  0
  6 44  1  0
  7 13  2  0
  7  8  1  0
  8  9  1  0
  8 10  2  0
  9 45  1  0
  9 46  1  0
  9 47  1  0
 10 11  1  0
 10 48  1  0
 11 12  2  0
 11 49  1  0
 12 13  1  0
 12 50  1  0
 13 14  1  0
 14 33  1  0
 14 15  1  0
 15 16  1  0
 15 51  1  0
 15 52  1  0
 16 17  1  0
 16 53  1  0
 16 54  1  0
 17 18  1  0
 17 19  1  0
 17 32  1  0
 19 20  1  0
 19 26  1  0
 19 55  1  0
 20 25  1  0
 20 21  2  0
 21 22  1  0
 21 56  1  0
 22 23  2  0
 22 57  1  0
 23 24  1  0
 23 58  1  0
 24 25  2  0
 24 59  1  0
 25 60  1  0
 26 31  1  0
 26 27  2  0
 27 28  1  0
 27 61  1  0
 28 29  2  0
 28 62  1  0
 29 30  1  0
 29 63  1  0
 30 31  2  0
 30 64  1  0
 31 65  1  0
 32 33  1  0
 32 66  1  0
 32 67  1  0
 33 68  1  0
 33 69  1  0
M  CHG  1  17   1
M  END
>  <DOCK_score>  (1) 
-56.322884

>  <SMILES>  (1) 
CCCC=CCc1c(C)cccc1N1CC[NH+](C(c2ccccc2)c2ccccc2)CC1

$$$$
