Nc1ccc(-c2c[nH]c(N[C@H](C3=CC(Br)CC3)c3cccc4c3NC(=O)CO4)[nH+]2)cc1
     RDKit          3D

 54 58  0  0  1  0  0  0  0  0999 V2000
  131.4535  129.7709  151.8726 N   0  0  0  0  0  0  0  0  0  0  0  0
  131.1521  130.4149  153.0752 C   0  0  0  0  0  0  0  0  0  0  0  0
  130.4623  131.6219  153.0619 C   0  0  0  0  0  0  0  0  0  0  0  0
  130.1633  132.2591  154.2477 C   0  0  0  0  0  0  0  0  0  0  0  0
  130.5533  131.6922  155.4600 C   0  0  0  0  0  0  0  0  0  0  0  0
  130.2332  132.3762  156.7370 C   0  0  0  0  0  0  0  0  0  0  0  0
  129.4832  131.8702  157.7469 C   0  0  0  0  0  0  0  0  0  0  0  0
  129.4416  132.8288  158.7315 N   0  0  0  0  0  0  0  0  0  0  0  0
  128.9769  132.7611  159.5801 H   0  0  0  0  0  0  0  0  0  0  0  0
  130.1680  133.8925  158.2928 C   0  0  0  0  0  0  0  0  0  0  0  0
  130.3749  135.0704  158.9903 N   0  0  0  0  0  0  0  0  0  0  0  0
  129.7869  135.2469  160.3206 C   0  0  2  0  0  0  0  0  0  0  0  0
  130.1648  134.4745  160.9903 H   0  0  0  0  0  0  0  0  0  0  0  0
  128.2869  135.1390  160.2250 C   0  0  0  0  0  0  0  0  0  0  0  0
  127.5690  134.2498  160.8556 C   0  0  0  0  0  0  0  0  0  0  0  0
  126.0998  134.4159  160.5433 C   0  0  2  0  0  0  0  0  0  0  0  0
  125.2755  132.6687  160.1788 Br  0  0  0  0  0  0  0  0  0  0  0  0
  126.0651  135.3027  159.2771 C   0  0  0  0  0  0  0  0  0  0  0  0
  127.4157  136.0501  159.3917 C   0  0  0  0  0  0  0  0  0  0  0  0
  130.1597  136.6044  160.8584 C   0  0  0  0  0  0  0  0  0  0  0  0
  130.3713  137.6603  159.9901 C   0  0  0  0  0  0  0  0  0  0  0  0
  130.7081  138.9078  160.4815 C   0  0  0  0  0  0  0  0  0  0  0  0
  130.8465  139.1065  161.8437 C   0  0  0  0  0  0  0  0  0  0  0  0
  130.6415  138.0540  162.7179 C   0  0  0  0  0  0  0  0  0  0  0  0
  130.2969  136.7969  162.2226 C   0  0  0  0  0  0  0  0  0  0  0  0
  130.0941  135.7387  163.1198 N   0  0  0  0  0  0  0  0  0  0  0  0
  129.9240  136.0156  164.4311 C   0  0  0  0  0  0  0  0  0  0  0  0
  129.7775  135.1145  165.2297 O   0  0  0  0  0  0  0  0  0  0  0  0
  129.9172  137.4491  164.8978 C   0  0  0  0  0  0  0  0  0  0  0  0
  130.7720  138.2313  164.0598 O   0  0  0  0  0  0  0  0  0  0  0  0
  130.6394  133.6183  157.1008 N   0  0  0  0  0  0  0  0  0  0  0  0
  131.1902  134.2095  156.5642 H   0  0  0  0  0  0  0  0  0  0  0  0
  131.2495  130.4847  155.4703 C   0  0  0  0  0  0  0  0  0  0  0  0
  131.5418  129.8483  154.2824 C   0  0  0  0  0  0  0  0  0  0  0  0
  131.1813  130.1662  151.0293 H   0  0  0  0  0  0  0  0  0  0  0  0
  131.9346  128.9291  151.8807 H   0  0  0  0  0  0  0  0  0  0  0  0
  130.1606  132.0609  152.1225 H   0  0  0  0  0  0  0  0  0  0  0  0
  129.6270  133.1965  154.2371 H   0  0  0  0  0  0  0  0  0  0  0  0
  129.0091  130.9002  157.7728 H   0  0  0  0  0  0  0  0  0  0  0  0
  130.9091  135.7787  158.5983 H   0  0  0  0  0  0  0  0  0  0  0  0
  127.9720  133.4948  161.5144 H   0  0  0  0  0  0  0  0  0  0  0  0
  125.5896  134.9106  161.3697 H   0  0  0  0  0  0  0  0  0  0  0  0
  126.0258  134.6938  158.3739 H   0  0  0  0  0  0  0  0  0  0  0  0
  125.2291  136.0016  159.3117 H   0  0  0  0  0  0  0  0  0  0  0  0
  127.2808  137.0088  159.8925 H   0  0  0  0  0  0  0  0  0  0  0  0
  127.8533  136.1949  158.4039 H   0  0  0  0  0  0  0  0  0  0  0  0
  130.2694  137.5105  158.9255 H   0  0  0  0  0  0  0  0  0  0  0  0
  130.8684  139.7294  159.7990 H   0  0  0  0  0  0  0  0  0  0  0  0
  131.1142  140.0813  162.2238 H   0  0  0  0  0  0  0  0  0  0  0  0
  130.0764  134.8217  162.8039 H   0  0  0  0  0  0  0  0  0  0  0  0
  130.2744  137.4975  165.9264 H   0  0  0  0  0  0  0  0  0  0  0  0
  128.9017  137.8421  164.8481 H   0  0  0  0  0  0  0  0  0  0  0  0
  131.5566  130.0459  156.4083 H   0  0  0  0  0  0  0  0  0  0  0  0
  132.0779  128.9107  154.2902 H   0  0  0  0  0  0  0  0  0  0  0  0
  1  2  1  0
  1 35  1  0
  1 36  1  0
  2 34  2  0
  2  3  1  0
  3  4  2  0
  3 37  1  0
  4  5  1  0
  4 38  1  0
  5  6  1  0
  5 33  2  0
  6 31  1  0
  6  7  2  0
  7  8  1  0
  7 39  1  0
  8  9  1  0
  8 10  1  0
 10 11  1  0
 10 31  2  0
 11 12  1  0
 11 40  1  0
 12 13  1  1
 12 14  1  0
 12 20  1  0
 14 19  1  0
 14 15  2  0
 15 16  1  0
 15 41  1  0
 16 17  1  0
 16 18  1  0
 16 42  1  1
 18 19  1  0
 18 43  1  0
 18 44  1  0
 19 45  1  0
 19 46  1  0
 20 25  1  0
 20 21  2  0
 21 22  1  0
 21 47  1  0
 22 23  2  0
 22 48  1  0
 23 24  1  0
 23 49  1  0
 24 30  1  0
 24 25  2  0
 25 26  1  0
 26 27  1  0
 26 50  1  0
 27 28  2  0
 27 29  1  0
 29 30  1  0
 29 51  1  0
 29 52  1  0
 31 32  1  0
 33 34  1  0
 33 53  1  0
 34 54  1  0
M  CHG  1  31   1
M  END
>  <DOCK_score>  (1) 
-60.01561

>  <SMILES>  (1) 
Nc1ccc(-c2c[nH]c(N[C@H](C3=CC(Br)CC3)c3cccc4c3NC(=O)CO4)[nH+]2)cc1

$$$$
