C1=CCC(c2c[nH]c(N[C@@H](CNc3ccccc3)c3ccccc3)[nH+]2)=CC1
     RDKit          3D

 52 55  0  0  1  0  0  0  0  0999 V2000
  131.2206  130.5064  153.9799 C   0  0  0  0  0  0  0  0  0  0  0  0
  131.4571  129.9129  155.1092 C   0  0  0  0  0  0  0  0  0  0  0  0
  130.9743  130.4405  156.4265 C   0  0  0  0  0  0  0  0  0  0  0  0
  130.6386  131.8990  156.3346 C   0  0  0  0  0  0  0  0  0  0  0  0
  130.5744  132.6919  157.5794 C   0  0  0  0  0  0  0  0  0  0  0  0
  130.2205  132.2279  158.8062 C   0  0  0  0  0  0  0  0  0  0  0  0
  130.2977  133.2912  159.6713 N   0  0  0  0  0  0  0  0  0  0  0  0
  130.1055  133.2731  160.6220 H   0  0  0  0  0  0  0  0  0  0  0  0
  130.6886  134.3766  158.9487 C   0  0  0  0  0  0  0  0  0  0  0  0
  130.8804  135.6522  159.4507 N   0  0  0  0  0  0  0  0  0  0  0  0
  130.6597  135.9202  160.8740 C   0  0  1  0  0  0  0  0  0  0  0  0
  131.3300  135.2996  161.4689 H   0  0  0  0  0  0  0  0  0  0  0  0
  130.9391  137.3961  161.1645 C   0  0  0  0  0  0  0  0  0  0  0  0
  132.1154  137.8289  160.4060 N   0  0  0  0  0  0  0  0  0  0  0  0
  133.3888  137.7184  160.9693 C   0  0  0  0  0  0  0  0  0  0  0  0
  134.4404  138.4737  160.4663 C   0  0  0  0  0  0  0  0  0  0  0  0
  135.6971  138.3656  161.0287 C   0  0  0  0  0  0  0  0  0  0  0  0
  135.9115  137.4987  162.0846 C   0  0  0  0  0  0  0  0  0  0  0  0
  134.8680  136.7414  162.5845 C   0  0  0  0  0  0  0  0  0  0  0  0
  133.6076  136.8486  162.0301 C   0  0  0  0  0  0  0  0  0  0  0  0
  129.2307  135.5999  161.2296 C   0  0  0  0  0  0  0  0  0  0  0  0
  128.9164  135.1644  162.5034 C   0  0  0  0  0  0  0  0  0  0  0  0
  127.6051  134.8745  162.8308 C   0  0  0  0  0  0  0  0  0  0  0  0
  126.6092  135.0122  161.8820 C   0  0  0  0  0  0  0  0  0  0  0  0
  126.9241  135.4428  160.6067 C   0  0  0  0  0  0  0  0  0  0  0  0
  128.2350  135.7364  160.2805 C   0  0  0  0  0  0  0  0  0  0  0  0
  130.8531  134.0156  157.6998 N   0  0  0  0  0  0  0  0  0  0  0  0
  131.1297  134.6003  156.9770 H   0  0  0  0  0  0  0  0  0  0  0  0
  130.3937  132.4995  155.1900 C   0  0  0  0  0  0  0  0  0  0  0  0
  130.4400  131.7816  153.8745 C   0  0  0  0  0  0  0  0  0  0  0  0
  131.6040  130.0610  153.0739 H   0  0  0  0  0  0  0  0  0  0  0  0
  132.0281  128.9964  155.0997 H   0  0  0  0  0  0  0  0  0  0  0  0
  130.0874  129.8844  156.7305 H   0  0  0  0  0  0  0  0  0  0  0  0
  131.7551  130.3025  157.1744 H   0  0  0  0  0  0  0  0  0  0  0  0
  129.9352  131.2161  159.0538 H   0  0  0  0  0  0  0  0  0  0  0  0
  131.1610  136.3686  158.8601 H   0  0  0  0  0  0  0  0  0  0  0  0
  130.0766  137.9941  160.8696 H   0  0  0  0  0  0  0  0  0  0  0  0
  131.1251  137.5278  162.2303 H   0  0  0  0  0  0  0  0  0  0  0  0
  132.0100  138.1922  159.5129 H   0  0  0  0  0  0  0  0  0  0  0  0
  134.2747  139.1476  159.6388 H   0  0  0  0  0  0  0  0  0  0  0  0
  136.5143  138.9555  160.6408 H   0  0  0  0  0  0  0  0  0  0  0  0
  136.8962  137.4127  162.5197 H   0  0  0  0  0  0  0  0  0  0  0  0
  135.0390  136.0651  163.4090 H   0  0  0  0  0  0  0  0  0  0  0  0
  132.7931  136.2566  162.4208 H   0  0  0  0  0  0  0  0  0  0  0  0
  129.6949  135.0535  163.2436 H   0  0  0  0  0  0  0  0  0  0  0  0
  127.3589  134.5376  163.8271 H   0  0  0  0  0  0  0  0  0  0  0  0
  125.5850  134.7831  162.1370 H   0  0  0  0  0  0  0  0  0  0  0  0
  126.1461  135.5501  159.8654 H   0  0  0  0  0  0  0  0  0  0  0  0
  128.4812  136.0728  159.2842 H   0  0  0  0  0  0  0  0  0  0  0  0
  130.1543  133.5527  155.1978 H   0  0  0  0  0  0  0  0  0  0  0  0
  129.4229  131.5526  153.5565 H   0  0  0  0  0  0  0  0  0  0  0  0
  130.9096  132.4265  153.1319 H   0  0  0  0  0  0  0  0  0  0  0  0
  1 30  1  0
  1  2  2  0
  1 31  1  0
  2  3  1  0
  2 32  1  0
  3  4  1  0
  3 33  1  0
  3 34  1  0
  4  5  1  0
  4 29  2  0
  5 27  1  0
  5  6  2  0
  6  7  1  0
  6 35  1  0
  7  8  1  0
  7  9  1  0
  9 10  1  0
  9 27  2  0
 10 11  1  0
 10 36  1  0
 11 12  1  1
 11 13  1  0
 11 21  1  0
 13 14  1  0
 13 37  1  0
 13 38  1  0
 14 15  1  0
 14 39  1  0
 15 20  1  0
 15 16  2  0
 16 17  1  0
 16 40  1  0
 17 18  2  0
 17 41  1  0
 18 19  1  0
 18 42  1  0
 19 20  2  0
 19 43  1  0
 20 44  1  0
 21 26  1  0
 21 22  2  0
 22 23  1  0
 22 45  1  0
 23 24  2  0
 23 46  1  0
 24 25  1  0
 24 47  1  0
 25 26  2  0
 25 48  1  0
 26 49  1  0
 27 28  1  0
 29 30  1  0
 29 50  1  0
 30 51  1  0
 30 52  1  0
M  CHG  1  27   1
M  END
>  <DOCK_score>  (1) 
-57.920948

>  <SMILES>  (1) 
C1=CCC(c2c[nH]c(N[C@@H](CNc3ccccc3)c3ccccc3)[nH+]2)=CC1

$$$$
