Nc1ccccc1Nc1ccncc1Nc1[nH]c2c(N)cccc2[nH+]1
     RDKit          3D

 43 46  0  0  1  0  0  0  0  0999 V2000
  126.4152  135.9727  161.3529 N   0  0  0  0  0  0  0  0  0  0  0  0
  126.1701  134.6417  160.9953 C   0  0  0  0  0  0  0  0  0  0  0  0
  124.9382  134.0648  161.2644 C   0  0  0  0  0  0  0  0  0  0  0  0
  124.7005  132.7482  160.9157 C   0  0  0  0  0  0  0  0  0  0  0  0
  125.6862  132.0047  160.2934 C   0  0  0  0  0  0  0  0  0  0  0  0
  126.9155  132.5733  160.0160 C   0  0  0  0  0  0  0  0  0  0  0  0
  127.1627  133.8934  160.3621 C   0  0  0  0  0  0  0  0  0  0  0  0
  128.4068  134.4715  160.0822 N   0  0  0  0  0  0  0  0  0  0  0  0
  129.1421  134.0430  158.9778 C   0  0  0  0  0  0  0  0  0  0  0  0
  128.6257  134.1527  157.6888 C   0  0  0  0  0  0  0  0  0  0  0  0
  129.3849  133.7176  156.6214 C   0  0  0  0  0  0  0  0  0  0  0  0
  130.5853  133.2020  156.8070 N   0  0  0  0  0  0  0  0  0  0  0  0
  131.1144  133.0785  158.0100 C   0  0  0  0  0  0  0  0  0  0  0  0
  130.4216  133.4960  159.1344 C   0  0  0  0  0  0  0  0  0  0  0  0
  130.9899  133.3684  160.4085 N   0  0  0  0  0  0  0  0  0  0  0  0
  131.7485  134.3956  160.9318 C   0  0  0  0  0  0  0  0  0  0  0  0
  132.0064  135.5795  160.3032 N   0  0  0  0  0  0  0  0  0  0  0  0
  131.6944  135.8442  159.4237 H   0  0  0  0  0  0  0  0  0  0  0  0
  132.7982  136.3331  161.1567 C   0  0  0  0  0  0  0  0  0  0  0  0
  133.3703  137.6002  161.0761 C   0  0  0  0  0  0  0  0  0  0  0  0
  133.1786  138.3859  159.9352 N   0  0  0  0  0  0  0  0  0  0  0  0
  134.1299  138.0795  162.1315 C   0  0  0  0  0  0  0  0  0  0  0  0
  134.3219  137.3044  163.2651 C   0  0  0  0  0  0  0  0  0  0  0  0
  133.7629  136.0500  163.3583 C   0  0  0  0  0  0  0  0  0  0  0  0
  132.9929  135.5491  162.3030 C   0  0  0  0  0  0  0  0  0  0  0  0
  132.3243  134.3824  162.1084 N   0  0  0  0  0  0  0  0  0  0  0  0
  132.2819  133.6502  162.7431 H   0  0  0  0  0  0  0  0  0  0  0  0
  127.2761  136.3759  161.1606 H   0  0  0  0  0  0  0  0  0  0  0  0
  125.7239  136.4917  161.7931 H   0  0  0  0  0  0  0  0  0  0  0  0
  124.1659  134.6427  161.7501 H   0  0  0  0  0  0  0  0  0  0  0  0
  123.7419  132.2992  161.1298 H   0  0  0  0  0  0  0  0  0  0  0  0
  125.4952  130.9768  160.0227 H   0  0  0  0  0  0  0  0  0  0  0  0
  127.6830  131.9898  159.5294 H   0  0  0  0  0  0  0  0  0  0  0  0
  128.7553  135.1730  160.6544 H   0  0  0  0  0  0  0  0  0  0  0  0
  127.6441  134.5726  157.5267 H   0  0  0  0  0  0  0  0  0  0  0  0
  128.9904  133.7999  155.6194 H   0  0  0  0  0  0  0  0  0  0  0  0
  132.1002  132.6511  158.1184 H   0  0  0  0  0  0  0  0  0  0  0  0
  130.8503  132.5579  160.9229 H   0  0  0  0  0  0  0  0  0  0  0  0
  132.6463  138.0485  159.1978 H   0  0  0  0  0  0  0  0  0  0  0  0
  133.5780  139.2683  159.8812 H   0  0  0  0  0  0  0  0  0  0  0  0
  134.5743  139.0620  162.0708 H   0  0  0  0  0  0  0  0  0  0  0  0
  134.9155  137.6882  164.0818 H   0  0  0  0  0  0  0  0  0  0  0  0
  133.9185  135.4532  164.2449 H   0  0  0  0  0  0  0  0  0  0  0  0
  1  2  1  0
  1 28  1  0
  1 29  1  0
  2  7  2  0
  2  3  1  0
  3  4  2  0
  3 30  1  0
  4  5  1  0
  4 31  1  0
  5  6  2  0
  5 32  1  0
  6  7  1  0
  6 33  1  0
  7  8  1  0
  8  9  1  0
  8 34  1  0
  9 14  1  0
  9 10  2  0
 10 11  1  0
 10 35  1  0
 11 12  2  0
 11 36  1  0
 12 13  1  0
 13 14  2  0
 13 37  1  0
 14 15  1  0
 15 38  1  0
 16 15  1  0
 16 26  2  0
 16 17  1  0
 17 18  1  0
 17 19  1  0
 19 25  2  0
 19 20  1  0
 20 21  1  0
 20 22  2  0
 21 39  1  0
 21 40  1  0
 22 23  1  0
 22 41  1  0
 23 24  2  0
 23 42  1  0
 24 25  1  0
 24 43  1  0
 25 26  1  0
 26 27  1  0
M  CHG  1  26   1
M  END
>  <DOCK_score>  (1) 
-45.294445

>  <SMILES>  (1) 
Nc1ccccc1Nc1ccncc1Nc1[nH]c2c(N)cccc2[nH+]1

$$$$
