Cc1cc(Nc2ccccc2C2=CC[N@H+](C3CCC=CCC3)CC2)ccc1F
     RDKit          3D

 58 61  0  0  1  0  0  0  0  0999 V2000
  130.8268  131.4241  153.1606 C   0  0  0  0  0  0  0  0  0  0  0  0
  130.9485  131.3321  154.6599 C   0  0  0  0  0  0  0  0  0  0  0  0
  130.5838  132.4056  155.4490 C   0  0  0  0  0  0  0  0  0  0  0  0
  130.6962  132.3203  156.8307 C   0  0  0  0  0  0  0  0  0  0  0  0
  130.3282  133.4059  157.6315 N   0  0  0  0  0  0  0  0  0  0  0  0
  129.3174  133.2607  158.5810 C   0  0  0  0  0  0  0  0  0  0  0  0
  128.2824  132.3616  158.3654 C   0  0  0  0  0  0  0  0  0  0  0  0
  127.2852  132.2152  159.3091 C   0  0  0  0  0  0  0  0  0  0  0  0
  127.3032  132.9707  160.4700 C   0  0  0  0  0  0  0  0  0  0  0  0
  128.3219  133.8727  160.6975 C   0  0  0  0  0  0  0  0  0  0  0  0
  129.3389  134.0265  159.7551 C   0  0  0  0  0  0  0  0  0  0  0  0
  130.4323  134.9901  159.9932 C   0  0  0  0  0  0  0  0  0  0  0  0
  131.6696  134.5445  160.0520 C   0  0  0  0  0  0  0  0  0  0  0  0
  132.8501  135.4412  160.2901 C   0  0  0  0  0  0  0  0  0  0  0  0
  132.4942  136.8398  160.0233 N   0  0  2  0  0  0  0  0  0  0  0  0
  132.3174  136.9624  159.0374 H   0  0  0  0  0  0  0  0  0  0  0  0
  133.5984  137.7157  160.4374 C   0  0  0  0  0  0  0  0  0  0  0  0
  133.5867  137.8289  161.9516 C   0  0  0  0  0  0  0  0  0  0  0  0
  134.8287  138.5736  162.4489 C   0  0  0  0  0  0  0  0  0  0  0  0
  134.5444  140.0599  162.4100 C   0  0  0  0  0  0  0  0  0  0  0  0
  134.4746  140.6837  161.2771 C   0  0  0  0  0  0  0  0  0  0  0  0
  134.6757  139.9342  159.9773 C   0  0  0  0  0  0  0  0  0  0  0  0
  133.4515  139.0504  159.7285 C   0  0  0  0  0  0  0  0  0  0  0  0
  131.2831  137.1797  160.7866 C   0  0  0  0  0  0  0  0  0  0  0  0
  130.0921  136.4449  160.1660 C   0  0  0  0  0  0  0  0  0  0  0  0
  131.1801  131.1568  157.4154 C   0  0  0  0  0  0  0  0  0  0  0  0
  131.5380  130.0841  156.6229 C   0  0  0  0  0  0  0  0  0  0  0  0
  131.4251  130.1715  155.2453 C   0  0  0  0  0  0  0  0  0  0  0  0
  131.7803  129.1226  154.4716 F   0  0  0  0  0  0  0  0  0  0  0  0
  131.7561  131.8126  152.7439 H   0  0  0  0  0  0  0  0  0  0  0  0
  130.6308  130.4334  152.7505 H   0  0  0  0  0  0  0  0  0  0  0  0
  130.0055  132.0930  152.9031 H   0  0  0  0  0  0  0  0  0  0  0  0
  130.2120  133.3108  154.9919 H   0  0  0  0  0  0  0  0  0  0  0  0
  130.7731  134.2609  157.5237 H   0  0  0  0  0  0  0  0  0  0  0  0
  128.2591  131.7728  157.4604 H   0  0  0  0  0  0  0  0  0  0  0  0
  126.4833  131.5120  159.1395 H   0  0  0  0  0  0  0  0  0  0  0  0
  126.5167  132.8526  161.2007 H   0  0  0  0  0  0  0  0  0  0  0  0
  128.3323  134.4591  161.6043 H   0  0  0  0  0  0  0  0  0  0  0  0
  131.8439  133.4870  159.9191 H   0  0  0  0  0  0  0  0  0  0  0  0
  133.6684  135.1460  159.6335 H   0  0  0  0  0  0  0  0  0  0  0  0
  133.1702  135.3424  161.3274 H   0  0  0  0  0  0  0  0  0  0  0  0
  134.5388  137.2589  160.1293 H   0  0  0  0  0  0  0  0  0  0  0  0
  132.6928  138.3686  162.2642 H   0  0  0  0  0  0  0  0  0  0  0  0
  133.5718  136.8293  162.3861 H   0  0  0  0  0  0  0  0  0  0  0  0
  135.6765  138.3463  161.8027 H   0  0  0  0  0  0  0  0  0  0  0  0
  135.0563  138.2713  163.4711 H   0  0  0  0  0  0  0  0  0  0  0  0
  134.3995  140.6033  163.3320 H   0  0  0  0  0  0  0  0  0  0  0  0
  134.2720  141.7444  161.2595 H   0  0  0  0  0  0  0  0  0  0  0  0
  135.5679  139.3119  160.0481 H   0  0  0  0  0  0  0  0  0  0  0  0
  134.7865  140.6450  159.1584 H   0  0  0  0  0  0  0  0  0  0  0  0
  133.3451  138.8781  158.6575 H   0  0  0  0  0  0  0  0  0  0  0  0
  132.5611  139.5579  160.0998 H   0  0  0  0  0  0  0  0  0  0  0  0
  131.1126  138.2554  160.7425 H   0  0  0  0  0  0  0  0  0  0  0  0
  131.4030  136.8706  161.8250 H   0  0  0  0  0  0  0  0  0  0  0  0
  129.8622  136.8820  159.1943 H   0  0  0  0  0  0  0  0  0  0  0  0
  129.2259  136.5399  160.8209 H   0  0  0  0  0  0  0  0  0  0  0  0
  131.2721  131.0896  158.4895 H   0  0  0  0  0  0  0  0  0  0  0  0
  131.9104  129.1780  157.0774 H   0  0  0  0  0  0  0  0  0  0  0  0
  1  2  1  0
  1 30  1  0
  1 31  1  0
  1 32  1  0
  2 28  2  0
  2  3  1  0
  3  4  2  0
  3 33  1  0
  4  5  1  0
  4 26  1  0
  5  6  1  0
  5 34  1  0
  6 11  1  0
  6  7  2  0
  7  8  1  0
  7 35  1  0
  8  9  2  0
  8 36  1  0
  9 10  1  0
  9 37  1  0
 10 11  2  0
 10 38  1  0
 11 12  1  0
 12 25  1  0
 12 13  2  0
 13 14  1  0
 13 39  1  0
 14 15  1  0
 14 40  1  0
 14 41  1  0
 15 16  1  6
 15 17  1  0
 15 24  1  0
 17 23  1  0
 17 18  1  0
 17 42  1  0
 18 19  1  0
 18 43  1  0
 18 44  1  0
 19 20  1  0
 19 45  1  0
 19 46  1  0
 20 21  2  0
 20 47  1  0
 21 22  1  0
 21 48  1  0
 22 23  1  0
 22 49  1  0
 22 50  1  0
 23 51  1  0
 23 52  1  0
 24 25  1  0
 24 53  1  0
 24 54  1  0
 25 55  1  0
 25 56  1  0
 26 27  2  0
 26 57  1  0
 27 28  1  0
 27 58  1  0
 28 29  1  0
M  CHG  1  15   1
M  END
>  <DOCK_score>  (1) 
-57.399265

>  <SMILES>  (1) 
Cc1cc(Nc2ccccc2C2=CC[N@H+](C3CCC=CCC3)CC2)ccc1F

$$$$
