Clc1ccccc1[C@H](c1cccc2ccccc12)[NH+]1CCN(c2cccc3cc[nH]c23)CC1
     RDKit          3D

 60 65  0  0  1  0  0  0  0  0999 V2000
  130.5744  129.8484  159.6239 Cl  0  0  0  0  0  0  0  0  0  0  0  0
  130.7967  130.6886  158.1211 C   0  0  0  0  0  0  0  0  0  0  0  0
  131.1869  129.9929  156.9904 C   0  0  0  0  0  0  0  0  0  0  0  0
  131.3632  130.6622  155.7943 C   0  0  0  0  0  0  0  0  0  0  0  0
  131.1502  132.0267  155.7274 C   0  0  0  0  0  0  0  0  0  0  0  0
  130.7550  132.7211  156.8552 C   0  0  0  0  0  0  0  0  0  0  0  0
  130.5833  132.0536  158.0535 C   0  0  0  0  0  0  0  0  0  0  0  0
  130.1578  132.8120  159.2843 C   0  0  2  0  0  0  0  0  0  0  0  0
  130.0707  132.1223  160.1239 H   0  0  0  0  0  0  0  0  0  0  0  0
  128.8250  133.4691  159.0338 C   0  0  0  0  0  0  0  0  0  0  0  0
  128.7690  134.7278  158.5183 C   0  0  0  0  0  0  0  0  0  0  0  0
  127.5461  135.3513  158.2794 C   0  0  0  0  0  0  0  0  0  0  0  0
  126.3719  134.7201  158.5546 C   0  0  0  0  0  0  0  0  0  0  0  0
  126.3897  133.4203  159.0875 C   0  0  0  0  0  0  0  0  0  0  0  0
  125.1981  132.7364  159.3841 C   0  0  0  0  0  0  0  0  0  0  0  0
  125.2541  131.4721  159.8846 C   0  0  0  0  0  0  0  0  0  0  0  0
  126.4774  130.8481  160.1231 C   0  0  0  0  0  0  0  0  0  0  0  0
  127.6514  131.4813  159.8531 C   0  0  0  0  0  0  0  0  0  0  0  0
  127.6337  132.7839  159.3255 C   0  0  0  0  0  0  0  0  0  0  0  0
  131.1596  133.8399  159.5970 N   0  0  0  0  0  0  0  0  0  0  0  0
  131.2401  134.4781  158.8197 H   0  0  0  0  0  0  0  0  0  0  0  0
  130.7442  134.5792  160.7962 C   0  0  0  0  0  0  0  0  0  0  0  0
  131.7780  135.6625  161.1114 C   0  0  0  0  0  0  0  0  0  0  0  0
  133.0890  135.0355  161.3310 N   0  0  0  0  0  0  0  0  0  0  0  0
  134.0502  135.9911  161.6753 C   0  0  0  0  0  0  0  0  0  0  0  0
  134.7122  135.9063  162.8879 C   0  0  0  0  0  0  0  0  0  0  0  0
  135.6636  136.8529  163.2402 C   0  0  0  0  0  0  0  0  0  0  0  0
  135.9717  137.8783  162.3914 C   0  0  0  0  0  0  0  0  0  0  0  0
  135.3212  137.9817  161.1585 C   0  0  0  0  0  0  0  0  0  0  0  0
  135.4042  138.9246  160.0406 C   0  0  0  0  0  0  0  0  0  0  0  0
  134.5259  138.5122  159.1125 C   0  0  0  0  0  0  0  0  0  0  0  0
  133.8876  137.3827  159.5448 N   0  0  0  0  0  0  0  0  0  0  0  0
  133.2091  136.9006  159.0468 H   0  0  0  0  0  0  0  0  0  0  0  0
  134.3523  137.0320  160.7943 C   0  0  0  0  0  0  0  0  0  0  0  0
  133.5068  134.2709  160.1474 C   0  0  0  0  0  0  0  0  0  0  0  0
  132.4587  133.1990  159.8402 C   0  0  0  0  0  0  0  0  0  0  0  0
  131.3538  128.9272  157.0428 H   0  0  0  0  0  0  0  0  0  0  0  0
  131.6677  130.1194  154.9117 H   0  0  0  0  0  0  0  0  0  0  0  0
  131.2881  132.5493  154.7923 H   0  0  0  0  0  0  0  0  0  0  0  0
  130.5841  133.7862  156.8011 H   0  0  0  0  0  0  0  0  0  0  0  0
  129.6861  135.2510  158.2913 H   0  0  0  0  0  0  0  0  0  0  0  0
  127.5295  136.3507  157.8701 H   0  0  0  0  0  0  0  0  0  0  0  0
  125.4315  135.2158  158.3640 H   0  0  0  0  0  0  0  0  0  0  0  0
  124.2429  133.2074  159.2046 H   0  0  0  0  0  0  0  0  0  0  0  0
  124.3370  130.9475  160.1081 H   0  0  0  0  0  0  0  0  0  0  0  0
  126.4939  129.8472  160.5284 H   0  0  0  0  0  0  0  0  0  0  0  0
  128.5918  130.9852  160.0430 H   0  0  0  0  0  0  0  0  0  0  0  0
  130.6696  133.8921  161.6390 H   0  0  0  0  0  0  0  0  0  0  0  0
  129.7740  135.0434  160.6190 H   0  0  0  0  0  0  0  0  0  0  0  0
  131.4776  136.2016  162.0099 H   0  0  0  0  0  0  0  0  0  0  0  0
  131.8431  136.3577  160.2744 H   0  0  0  0  0  0  0  0  0  0  0  0
  134.4828  135.0992  163.5678 H   0  0  0  0  0  0  0  0  0  0  0  0
  136.1681  136.7760  164.1919 H   0  0  0  0  0  0  0  0  0  0  0  0
  136.7165  138.6079  162.6727 H   0  0  0  0  0  0  0  0  0  0  0  0
  136.0498  139.7879  159.9752 H   0  0  0  0  0  0  0  0  0  0  0  0
  134.3499  139.0001  158.1652 H   0  0  0  0  0  0  0  0  0  0  0  0
  133.6002  134.9432  159.2946 H   0  0  0  0  0  0  0  0  0  0  0  0
  134.4676  133.7946  160.3426 H   0  0  0  0  0  0  0  0  0  0  0  0
  132.3754  132.5189  160.6880 H   0  0  0  0  0  0  0  0  0  0  0  0
  132.7596  132.6401  158.9541 H   0  0  0  0  0  0  0  0  0  0  0  0
  1  2  1  0
  2  7  2  0
  2  3  1  0
  3  4  2  0
  3 37  1  0
  4  5  1  0
  4 38  1  0
  5  6  2  0
  5 39  1  0
  6  7  1  0
  6 40  1  0
  7  8  1  0
  8  9  1  1
  8 10  1  0
  8 20  1  0
 10 19  1  0
 10 11  2  0
 11 12  1  0
 11 41  1  0
 12 13  2  0
 12 42  1  0
 13 14  1  0
 13 43  1  0
 14 19  2  0
 14 15  1  0
 15 16  2  0
 15 44  1  0
 16 17  1  0
 16 45  1  0
 17 18  2  0
 17 46  1  0
 18 19  1  0
 18 47  1  0
 20 21  1  0
 20 36  1  0
 20 22  1  0
 22 23  1  0
 22 48  1  0
 22 49  1  0
 23 24  1  0
 23 50  1  0
 23 51  1  0
 24 25  1  0
 24 35  1  0
 25 34  1  0
 25 26  2  0
 26 27  1  0
 26 52  1  0
 27 28  2  0
 27 53  1  0
 28 29  1  0
 28 54  1  0
 29 34  2  0
 29 30  1  0
 30 31  2  0
 30 55  1  0
 31 32  1  0
 31 56  1  0
 32 33  1  0
 32 34  1  0
 35 36  1  0
 35 57  1  0
 35 58  1  0
 36 59  1  0
 36 60  1  0
M  CHG  1  20   1
M  END
>  <DOCK_score>  (1) 
-58.992874

>  <SMILES>  (1) 
Clc1ccccc1[C@H](c1cccc2ccccc12)[NH+]1CCN(c2cccc3cc[nH]c23)CC1

$$$$
