CCc1ccc(-c2c[nH]c(NC3CCC(C4CCCCC4)CC3)[nH+]2)cc1
     RDKit          3D

 60 63  0  0  1  0  0  0  0  0999 V2000
  130.2372  128.3251  151.8171 C   0  0  0  0  0  0  0  0  0  0  0  0
  131.2275  129.4819  151.9615 C   0  0  0  0  0  0  0  0  0  0  0  0
  130.9676  130.2077  153.2564 C   0  0  0  0  0  0  0  0  0  0  0  0
  131.6157  129.8116  154.4118 C   0  0  0  0  0  0  0  0  0  0  0  0
  131.3840  130.4762  155.5988 C   0  0  0  0  0  0  0  0  0  0  0  0
  130.4870  131.5424  155.6339 C   0  0  0  0  0  0  0  0  0  0  0  0
  130.2303  132.2578  156.9077 C   0  0  0  0  0  0  0  0  0  0  0  0
  129.7318  131.7108  158.0439 C   0  0  0  0  0  0  0  0  0  0  0  0
  129.6581  132.7198  158.9731 N   0  0  0  0  0  0  0  0  0  0  0  0
  129.3420  132.6376  159.8865 H   0  0  0  0  0  0  0  0  0  0  0  0
  130.1062  133.8568  158.3744 C   0  0  0  0  0  0  0  0  0  0  0  0
  130.1877  135.1037  158.9704 N   0  0  0  0  0  0  0  0  0  0  0  0
  129.2421  135.4741  160.0264 C   0  0  2  0  0  0  0  0  0  0  0  0
  129.0133  136.9867  159.9985 C   0  0  0  0  0  0  0  0  0  0  0  0
  130.3430  137.7078  160.2287 C   0  0  0  0  0  0  0  0  0  0  0  0
  130.9138  137.3033  161.5893 C   0  0  2  0  0  0  0  0  0  0  0  0
  132.2434  138.0245  161.8194 C   0  0  0  0  0  0  0  0  0  0  0  0
  132.0147  139.5370  161.7915 C   0  0  0  0  0  0  0  0  0  0  0  0
  133.3443  140.2581  162.0216 C   0  0  0  0  0  0  0  0  0  0  0  0
  134.3318  139.8712  160.9188 C   0  0  0  0  0  0  0  0  0  0  0  0
  134.5604  138.3586  160.9467 C   0  0  0  0  0  0  0  0  0  0  0  0
  133.2308  137.6376  160.7167 C   0  0  0  0  0  0  0  0  0  0  0  0
  131.1425  135.7908  161.6171 C   0  0  0  0  0  0  0  0  0  0  0  0
  129.8128  135.0695  161.3870 C   0  0  0  0  0  0  0  0  0  0  0  0
  130.4473  133.5768  157.1403 N   0  0  0  0  0  0  0  0  0  0  0  0
  130.7983  134.2113  156.4960 H   0  0  0  0  0  0  0  0  0  0  0  0
  129.8324  131.9342  154.4674 C   0  0  0  0  0  0  0  0  0  0  0  0
  130.0754  131.2653  153.2850 C   0  0  0  0  0  0  0  0  0  0  0  0
  130.3595  127.6352  152.6521 H   0  0  0  0  0  0  0  0  0  0  0  0
  129.2199  128.7165  151.8153 H   0  0  0  0  0  0  0  0  0  0  0  0
  130.4261  127.7997  150.8810 H   0  0  0  0  0  0  0  0  0  0  0  0
  132.2457  129.0902  151.9637 H   0  0  0  0  0  0  0  0  0  0  0  0
  131.1061  130.1716  151.1268 H   0  0  0  0  0  0  0  0  0  0  0  0
  132.3077  128.9830  154.3842 H   0  0  0  0  0  0  0  0  0  0  0  0
  131.8943  130.1687  156.4996 H   0  0  0  0  0  0  0  0  0  0  0  0
  129.4491  130.6788  158.1908 H   0  0  0  0  0  0  0  0  0  0  0  0
  130.8709  135.7321  158.6888 H   0  0  0  0  0  0  0  0  0  0  0  0
  128.2948  134.9603  159.8624 H   0  0  0  0  0  0  0  0  0  0  0  0
  128.6068  137.2748  159.0290 H   0  0  0  0  0  0  0  0  0  0  0  0
  128.3098  137.2623  160.7840 H   0  0  0  0  0  0  0  0  0  0  0  0
  130.1800  138.7854  160.2088 H   0  0  0  0  0  0  0  0  0  0  0  0
  131.0465  137.4322  159.4430 H   0  0  0  0  0  0  0  0  0  0  0  0
  130.2102  137.5789  162.3749 H   0  0  0  0  0  0  0  0  0  0  0  0
  132.6500  137.7363  162.7888 H   0  0  0  0  0  0  0  0  0  0  0  0
  131.6081  139.8252  160.8222 H   0  0  0  0  0  0  0  0  0  0  0  0
  131.3112  139.8126  162.5771 H   0  0  0  0  0  0  0  0  0  0  0  0
  133.7510  139.9699  162.9910 H   0  0  0  0  0  0  0  0  0  0  0  0
  133.1815  141.3357  162.0016 H   0  0  0  0  0  0  0  0  0  0  0  0
  135.2791  140.3849  161.0827 H   0  0  0  0  0  0  0  0  0  0  0  0
  133.9252  140.1594  159.9494 H   0  0  0  0  0  0  0  0  0  0  0  0
  134.9672  138.0705  161.9161 H   0  0  0  0  0  0  0  0  0  0  0  0
  135.2640  138.0830  160.1611 H   0  0  0  0  0  0  0  0  0  0  0  0
  133.3937  136.5600  160.7365 H   0  0  0  0  0  0  0  0  0  0  0  0
  132.8242  137.9257  159.7473 H   0  0  0  0  0  0  0  0  0  0  0  0
  131.5490  135.5026  162.5864 H   0  0  0  0  0  0  0  0  0  0  0  0
  131.8460  135.5152  160.8315 H   0  0  0  0  0  0  0  0  0  0  0  0
  129.1094  135.3451  162.1725 H   0  0  0  0  0  0  0  0  0  0  0  0
  129.9758  133.9921  161.4068 H   0  0  0  0  0  0  0  0  0  0  0  0
  129.1360  132.7594  154.4889 H   0  0  0  0  0  0  0  0  0  0  0  0
  129.5688  131.5680  152.3806 H   0  0  0  0  0  0  0  0  0  0  0  0
  1  2  1  0
  1 29  1  0
  1 30  1  0
  1 31  1  0
  2  3  1  0
  2 32  1  0
  2 33  1  0
  3 28  2  0
  3  4  1  0
  4  5  2  0
  4 34  1  0
  5  6  1  0
  5 35  1  0
  6  7  1  0
  6 27  2  0
  7 25  1  0
  7  8  2  0
  8  9  1  0
  8 36  1  0
  9 10  1  0
  9 11  1  0
 11 12  1  0
 11 25  2  0
 12 13  1  0
 12 37  1  0
 13 24  1  0
 13 14  1  0
 13 38  1  6
 14 15  1  0
 14 39  1  0
 14 40  1  0
 15 16  1  0
 15 41  1  0
 15 42  1  0
 16 17  1  0
 16 23  1  0
 16 43  1  1
 17 22  1  0
 17 18  1  0
 17 44  1  0
 18 19  1  0
 18 45  1  0
 18 46  1  0
 19 20  1  0
 19 47  1  0
 19 48  1  0
 20 21  1  0
 20 49  1  0
 20 50  1  0
 21 22  1  0
 21 51  1  0
 21 52  1  0
 22 53  1  0
 22 54  1  0
 23 24  1  0
 23 55  1  0
 23 56  1  0
 24 57  1  0
 24 58  1  0
 25 26  1  0
 27 28  1  0
 27 59  1  0
 28 60  1  0
M  CHG  1  25   1
M  END
>  <DOCK_score>  (1) 
-56.341316

>  <SMILES>  (1) 
CCc1ccc(-c2c[nH]c(NC3CCC(C4CCCCC4)CC3)[nH+]2)cc1

$$$$
