Cc1[nH]c(N[C@@H](C)c2ccccc2Nc2cccc(C3CCC(=O)N3)c2)[nH+]c1C
     RDKit          3D

 57 60  0  0  1  0  0  0  0  0999 V2000
  128.5766  131.0419  158.6498 C   0  0  0  0  0  0  0  0  0  0  0  0
  129.6201  132.1018  158.4073 C   0  0  0  0  0  0  0  0  0  0  0  0
  130.0056  133.0674  159.2850 N   0  0  0  0  0  0  0  0  0  0  0  0
  129.6560  133.1943  160.1809 H   0  0  0  0  0  0  0  0  0  0  0  0
  130.9454  133.8068  158.7027 C   0  0  0  0  0  0  0  0  0  0  0  0
  131.5889  134.8881  159.2738 N   0  0  0  0  0  0  0  0  0  0  0  0
  131.2505  135.3059  160.6367 C   0  0  1  0  0  0  0  0  0  0  0  0
  130.1729  135.2309  160.7827 H   0  0  0  0  0  0  0  0  0  0  0  0
  131.9653  134.3990  161.6404 C   0  0  0  0  0  0  0  0  0  0  0  0
  131.6880  136.7323  160.8481 C   0  0  0  0  0  0  0  0  0  0  0  0
  133.0197  137.0739  160.7159 C   0  0  0  0  0  0  0  0  0  0  0  0
  133.4219  138.3826  160.9093 C   0  0  0  0  0  0  0  0  0  0  0  0
  132.4930  139.3539  161.2357 C   0  0  0  0  0  0  0  0  0  0  0  0
  131.1609  139.0184  161.3750 C   0  0  0  0  0  0  0  0  0  0  0  0
  130.7523  137.7053  161.1758 C   0  0  0  0  0  0  0  0  0  0  0  0
  129.4044  137.3633  161.3104 N   0  0  0  0  0  0  0  0  0  0  0  0
  128.7117  136.8139  160.2286 C   0  0  0  0  0  0  0  0  0  0  0  0
  129.0670  137.1544  158.9290 C   0  0  0  0  0  0  0  0  0  0  0  0
  128.3835  136.6059  157.8620 C   0  0  0  0  0  0  0  0  0  0  0  0
  127.3394  135.7267  158.0859 C   0  0  0  0  0  0  0  0  0  0  0  0
  126.9799  135.3899  159.3777 C   0  0  0  0  0  0  0  0  0  0  0  0
  125.8413  134.4319  159.6167 C   0  0  1  0  0  0  0  0  0  0  0  0
  126.3177  133.2388  160.4745 C   0  0  0  0  0  0  0  0  0  0  0  0
  125.0671  132.9517  161.3374 C   0  0  0  0  0  0  0  0  0  0  0  0
  124.3295  134.2720  161.3724 C   0  0  0  0  0  0  0  0  0  0  0  0
  123.4536  134.5577  162.1613 O   0  0  0  0  0  0  0  0  0  0  0  0
  124.7863  135.0827  160.4026 N   0  0  0  0  0  0  0  0  0  0  0  0
  127.6627  135.9307  160.4496 C   0  0  0  0  0  0  0  0  0  0  0  0
  131.1589  133.3360  157.4773 N   0  0  0  0  0  0  0  0  0  0  0  0
  131.7907  133.6921  156.8333 H   0  0  0  0  0  0  0  0  0  0  0  0
  130.3398  132.2667  157.2843 C   0  0  0  0  0  0  0  0  0  0  0  0
  130.2511  131.4253  156.0370 C   0  0  0  0  0  0  0  0  0  0  0  0
  127.6011  131.4140  158.3364 H   0  0  0  0  0  0  0  0  0  0  0  0
  128.8259  130.1487  158.0769 H   0  0  0  0  0  0  0  0  0  0  0  0
  128.5478  130.7965  159.7114 H   0  0  0  0  0  0  0  0  0  0  0  0
  132.2646  135.3707  158.7724 H   0  0  0  0  0  0  0  0  0  0  0  0
  133.0429  134.4739  161.4944 H   0  0  0  0  0  0  0  0  0  0  0  0
  131.7136  134.7097  162.6544 H   0  0  0  0  0  0  0  0  0  0  0  0
  131.6489  133.3671  161.4875 H   0  0  0  0  0  0  0  0  0  0  0  0
  133.7477  136.3180  160.4607 H   0  0  0  0  0  0  0  0  0  0  0  0
  134.4640  138.6469  160.8057 H   0  0  0  0  0  0  0  0  0  0  0  0
  132.8105  140.3751  161.3861 H   0  0  0  0  0  0  0  0  0  0  0  0
  130.4367  139.7765  161.6343 H   0  0  0  0  0  0  0  0  0  0  0  0
  128.9495  137.5072  162.1550 H   0  0  0  0  0  0  0  0  0  0  0  0
  129.8792  137.8442  158.7538 H   0  0  0  0  0  0  0  0  0  0  0  0
  128.6615  136.8671  156.8518 H   0  0  0  0  0  0  0  0  0  0  0  0
  126.8039  135.3021  157.2496 H   0  0  0  0  0  0  0  0  0  0  0  0
  125.4415  134.0776  158.6667 H   0  0  0  0  0  0  0  0  0  0  0  0
  126.5645  132.3818  159.8480 H   0  0  0  0  0  0  0  0  0  0  0  0
  127.1657  133.5211  161.0986 H   0  0  0  0  0  0  0  0  0  0  0  0
  124.4508  132.1825  160.8721 H   0  0  0  0  0  0  0  0  0  0  0  0
  125.3588  132.6510  162.3438 H   0  0  0  0  0  0  0  0  0  0  0  0
  124.4610  135.9824  160.2428 H   0  0  0  0  0  0  0  0  0  0  0  0
  127.3811  135.6674  161.4585 H   0  0  0  0  0  0  0  0  0  0  0  0
  129.5059  131.8501  155.3646 H   0  0  0  0  0  0  0  0  0  0  0  0
  131.2212  131.4086  155.5404 H   0  0  0  0  0  0  0  0  0  0  0  0
  129.9621  130.4089  156.3043 H   0  0  0  0  0  0  0  0  0  0  0  0
  1  2  1  0
  1 33  1  0
  1 34  1  0
  1 35  1  0
  2 31  2  0
  2  3  1  0
  3  4  1  0
  3  5  1  0
  5  6  1  0
  5 29  2  0
  6  7  1  0
  6 36  1  0
  7  8  1  6
  7  9  1  0
  7 10  1  0
  9 37  1  0
  9 38  1  0
  9 39  1  0
 10 15  1  0
 10 11  2  0
 11 12  1  0
 11 40  1  0
 12 13  2  0
 12 41  1  0
 13 14  1  0
 13 42  1  0
 14 15  2  0
 14 43  1  0
 15 16  1  0
 16 17  1  0
 16 44  1  0
 17 28  1  0
 17 18  2  0
 18 19  1  0
 18 45  1  0
 19 20  2  0
 19 46  1  0
 20 21  1  0
 20 47  1  0
 21 22  1  0
 21 28  2  0
 22 27  1  0
 22 23  1  0
 22 48  1  6
 23 24  1  0
 23 49  1  0
 23 50  1  0
 24 25  1  0
 24 51  1  0
 24 52  1  0
 25 26  2  0
 25 27  1  0
 27 53  1  0
 28 54  1  0
 29 30  1  0
 29 31  1  0
 31 32  1  0
 32 55  1  0
 32 56  1  0
 32 57  1  0
M  CHG  1  29   1
M  END
>  <DOCK_score>  (1) 
-53.092529

>  <SMILES>  (1) 
Cc1[nH]c(N[C@@H](C)c2ccccc2Nc2cccc(C3CCC(=O)N3)c2)[nH+]c1C

$$$$
