Nc1ccc(-c2c[nH]c(NCc3cn(-c4ccccc4)nc3-c3ccccc3)[nH+]2)cc1
     RDKit          3D

 54 58  0  0  1  0  0  0  0  0999 V2000
  130.8375  130.0007  152.9369 N   0  0  0  0  0  0  0  0  0  0  0  0
  130.7931  130.7034  154.1435 C   0  0  0  0  0  0  0  0  0  0  0  0
  130.4555  132.0517  154.1495 C   0  0  0  0  0  0  0  0  0  0  0  0
  130.4114  132.7471  155.3394 C   0  0  0  0  0  0  0  0  0  0  0  0
  130.7054  132.0967  156.5369 C   0  0  0  0  0  0  0  0  0  0  0  0
  130.6585  132.8427  157.8184 C   0  0  0  0  0  0  0  0  0  0  0  0
  130.3530  132.3235  159.0331 C   0  0  0  0  0  0  0  0  0  0  0  0
  130.4332  133.3546  159.9389 N   0  0  0  0  0  0  0  0  0  0  0  0
  130.2724  133.2946  160.8936 H   0  0  0  0  0  0  0  0  0  0  0  0
  130.7765  134.4756  159.2482 C   0  0  0  0  0  0  0  0  0  0  0  0
  130.9570  135.7352  159.7935 N   0  0  0  0  0  0  0  0  0  0  0  0
  131.2138  135.8822  161.2283 C   0  0  0  0  0  0  0  0  0  0  0  0
  130.6641  137.2022  161.7044 C   0  0  0  0  0  0  0  0  0  0  0  0
  129.4192  137.4193  162.1815 C   0  0  0  0  0  0  0  0  0  0  0  0
  129.3185  138.7364  162.4992 N   0  0  0  0  0  0  0  0  0  0  0  0
  128.1859  139.3724  163.0247 C   0  0  0  0  0  0  0  0  0  0  0  0
  128.2189  140.7320  163.3051 C   0  0  0  0  0  0  0  0  0  0  0  0
  127.1010  141.3562  163.8226 C   0  0  0  0  0  0  0  0  0  0  0  0
  125.9495  140.6287  164.0616 C   0  0  0  0  0  0  0  0  0  0  0  0
  125.9136  139.2746  163.7834 C   0  0  0  0  0  0  0  0  0  0  0  0
  127.0283  138.6446  163.2657 C   0  0  0  0  0  0  0  0  0  0  0  0
  130.5473  139.3458  162.2149 N   0  0  0  0  0  0  0  0  0  0  0  0
  131.3599  138.4269  161.7366 C   0  0  0  0  0  0  0  0  0  0  0  0
  132.7633  138.6432  161.3065 C   0  0  0  0  0  0  0  0  0  0  0  0
  133.7068  139.1217  162.2134 C   0  0  0  0  0  0  0  0  0  0  0  0
  135.0121  139.3162  161.8093 C   0  0  0  0  0  0  0  0  0  0  0  0
  135.3819  139.0478  160.5037 C   0  0  0  0  0  0  0  0  0  0  0  0
  134.4482  138.5778  159.5978 C   0  0  0  0  0  0  0  0  0  0  0  0
  133.1415  138.3742  159.9926 C   0  0  0  0  0  0  0  0  0  0  0  0
  130.9136  134.1650  157.9821 N   0  0  0  0  0  0  0  0  0  0  0  0
  131.1583  134.7821  157.2750 H   0  0  0  0  0  0  0  0  0  0  0  0
  131.0489  130.7458  156.5277 C   0  0  0  0  0  0  0  0  0  0  0  0
  131.0860  130.0529  155.3360 C   0  0  0  0  0  0  0  0  0  0  0  0
  130.6329  130.4545  152.1039 H   0  0  0  0  0  0  0  0  0  0  0  0
  131.0731  129.0603  152.9315 H   0  0  0  0  0  0  0  0  0  0  0  0
  130.2279  132.5552  153.2215 H   0  0  0  0  0  0  0  0  0  0  0  0
  130.1491  133.7948  155.3437 H   0  0  0  0  0  0  0  0  0  0  0  0
  130.0998  131.2959  159.2485 H   0  0  0  0  0  0  0  0  0  0  0  0
  130.9135  136.5203  159.2257 H   0  0  0  0  0  0  0  0  0  0  0  0
  132.2880  135.8491  161.4106 H   0  0  0  0  0  0  0  0  0  0  0  0
  130.7282  135.0701  161.7695 H   0  0  0  0  0  0  0  0  0  0  0  0
  128.6413  136.6779  162.2895 H   0  0  0  0  0  0  0  0  0  0  0  0
  129.1178  141.3008  163.1183 H   0  0  0  0  0  0  0  0  0  0  0  0
  127.1273  142.4127  164.0452 H   0  0  0  0  0  0  0  0  0  0  0  0
  125.0766  141.1189  164.4666 H   0  0  0  0  0  0  0  0  0  0  0  0
  125.0127  138.7090  163.9711 H   0  0  0  0  0  0  0  0  0  0  0  0
  126.9995  137.5871  163.0483 H   0  0  0  0  0  0  0  0  0  0  0  0
  133.4182  139.3358  163.2318 H   0  0  0  0  0  0  0  0  0  0  0  0
  135.7452  139.6827  162.5126 H   0  0  0  0  0  0  0  0  0  0  0  0
  136.4033  139.2057  160.1904 H   0  0  0  0  0  0  0  0  0  0  0  0
  134.7424  138.3693  158.5798 H   0  0  0  0  0  0  0  0  0  0  0  0
  132.4134  138.0069  159.2845 H   0  0  0  0  0  0  0  0  0  0  0  0
  131.2816  130.2411  157.4537 H   0  0  0  0  0  0  0  0  0  0  0  0
  131.3478  129.0051  155.3290 H   0  0  0  0  0  0  0  0  0  0  0  0
  1  2  1  0
  1 34  1  0
  1 35  1  0
  2 33  2  0
  2  3  1  0
  3  4  2  0
  3 36  1  0
  4  5  1  0
  4 37  1  0
  5  6  1  0
  5 32  2  0
  6 30  1  0
  6  7  2  0
  7  8  1  0
  7 38  1  0
  8  9  1  0
  8 10  1  0
 10 11  1  0
 10 30  2  0
 11 12  1  0
 11 39  1  0
 12 13  1  0
 12 40  1  0
 12 41  1  0
 13 23  1  0
 13 14  2  0
 14 15  1  0
 14 42  1  0
 15 16  1  0
 15 22  1  0
 16 21  1  0
 16 17  2  0
 17 18  1  0
 17 43  1  0
 18 19  2  0
 18 44  1  0
 19 20  1  0
 19 45  1  0
 20 21  2  0
 20 46  1  0
 21 47  1  0
 22 23  2  0
 23 24  1  0
 24 29  1  0
 24 25  2  0
 25 26  1  0
 25 48  1  0
 26 27  2  0
 26 49  1  0
 27 28  1  0
 27 50  1  0
 28 29  2  0
 28 51  1  0
 29 52  1  0
 30 31  1  0
 32 33  1  0
 32 53  1  0
 33 54  1  0
M  CHG  1  30   1
M  END
>  <DOCK_score>  (1) 
-57.818127

>  <SMILES>  (1) 
Nc1ccc(-c2c[nH]c(NCc3cn(-c4ccccc4)nc3-c3ccccc3)[nH+]2)cc1

$$$$
