[NH3+][C@H](Cc1ccc(Oc2nccnc2-c2ccccc2)cc1)C(=O)Nc1cccc(O)c1
     RDKit          3D

 55 58  0  0  1  0  0  0  0  0999 V2000
  130.5327  134.0021  157.0685 N   0  0  0  0  0  0  0  0  0  0  0  0
  131.4532  134.3733  156.8872 H   0  0  0  0  0  0  0  0  0  0  0  0
  130.4597  133.0761  156.6744 H   0  0  0  0  0  0  0  0  0  0  0  0
  129.8391  134.6022  156.6479 H   0  0  0  0  0  0  0  0  0  0  0  0
  130.3083  133.9361  158.5188 C   0  0  2  0  0  0  0  0  0  0  0  0
  130.3871  134.9364  158.9446 H   0  0  0  0  0  0  0  0  0  0  0  0
  131.3601  133.0261  159.1566 C   0  0  0  0  0  0  0  0  0  0  0  0
  131.4577  133.3269  160.6301 C   0  0  0  0  0  0  0  0  0  0  0  0
  130.6577  132.6450  161.5282 C   0  0  0  0  0  0  0  0  0  0  0  0
  130.7492  132.9149  162.8799 C   0  0  0  0  0  0  0  0  0  0  0  0
  131.6366  133.8796  163.3349 C   0  0  0  0  0  0  0  0  0  0  0  0
  131.7246  134.1509  164.6635 O   0  0  0  0  0  0  0  0  0  0  0  0
  132.6056  135.1016  165.0621 C   0  0  0  0  0  0  0  0  0  0  0  0
  133.8505  134.7684  165.3669 N   0  0  0  0  0  0  0  0  0  0  0  0
  134.7094  135.6983  165.7500 C   0  0  0  0  0  0  0  0  0  0  0  0
  134.3110  137.0195  165.8457 C   0  0  0  0  0  0  0  0  0  0  0  0
  133.0708  137.3642  165.5499 N   0  0  0  0  0  0  0  0  0  0  0  0
  132.2007  136.4400  165.1586 C   0  0  0  0  0  0  0  0  0  0  0  0
  130.8077  136.8225  164.8252 C   0  0  0  0  0  0  0  0  0  0  0  0
  130.5591  137.7394  163.8050 C   0  0  0  0  0  0  0  0  0  0  0  0
  129.2602  138.0876  163.4953 C   0  0  0  0  0  0  0  0  0  0  0  0
  128.2064  137.5371  164.2026 C   0  0  0  0  0  0  0  0  0  0  0  0
  128.4473  136.6308  165.2196 C   0  0  0  0  0  0  0  0  0  0  0  0
  129.7419  136.2710  165.5345 C   0  0  0  0  0  0  0  0  0  0  0  0
  132.4343  134.5666  162.4309 C   0  0  0  0  0  0  0  0  0  0  0  0
  132.3431  134.2885  161.0809 C   0  0  0  0  0  0  0  0  0  0  0  0
  128.9335  133.3816  158.7897 C   0  0  0  0  0  0  0  0  0  0  0  0
  128.4320  132.5971  158.0125 O   0  0  0  0  0  0  0  0  0  0  0  0
  128.2613  133.7574  159.8958 N   0  0  0  0  0  0  0  0  0  0  0  0
  126.9848  133.2425  160.1473 C   0  0  0  0  0  0  0  0  0  0  0  0
  126.6462  131.9721  159.6980 C   0  0  0  0  0  0  0  0  0  0  0  0
  125.3864  131.4636  159.9472 C   0  0  0  0  0  0  0  0  0  0  0  0
  124.4613  132.2144  160.6478 C   0  0  0  0  0  0  0  0  0  0  0  0
  124.7921  133.4860  161.0940 C   0  0  0  0  0  0  0  0  0  0  0  0
  123.8797  134.2251  161.7782 O   0  0  0  0  0  0  0  0  0  0  0  0
  126.0556  133.9998  160.8463 C   0  0  0  0  0  0  0  0  0  0  0  0
  131.0719  131.9842  159.0169 H   0  0  0  0  0  0  0  0  0  0  0  0
  132.3270  133.2021  158.6850 H   0  0  0  0  0  0  0  0  0  0  0  0
  129.9635  131.8976  161.1730 H   0  0  0  0  0  0  0  0  0  0  0  0
  130.1273  132.3788  163.5814 H   0  0  0  0  0  0  0  0  0  0  0  0
  135.7252  135.4242  165.9939 H   0  0  0  0  0  0  0  0  0  0  0  0
  135.0172  137.7724  166.1632 H   0  0  0  0  0  0  0  0  0  0  0  0
  131.3812  138.1731  163.2550 H   0  0  0  0  0  0  0  0  0  0  0  0
  129.0661  138.7945  162.7022 H   0  0  0  0  0  0  0  0  0  0  0  0
  127.1916  137.8158  163.9596 H   0  0  0  0  0  0  0  0  0  0  0  0
  127.6208  136.2043  165.7683 H   0  0  0  0  0  0  0  0  0  0  0  0
  129.9287  135.5634  166.3285 H   0  0  0  0  0  0  0  0  0  0  0  0
  133.1259  135.3177  162.7825 H   0  0  0  0  0  0  0  0  0  0  0  0
  132.9638  134.8230  160.3769 H   0  0  0  0  0  0  0  0  0  0  0  0
  128.6623  134.3848  160.5174 H   0  0  0  0  0  0  0  0  0  0  0  0
  127.3686  131.3819  159.1539 H   0  0  0  0  0  0  0  0  0  0  0  0
  125.1251  130.4757  159.5975 H   0  0  0  0  0  0  0  0  0  0  0  0
  123.4786  131.8123  160.8450 H   0  0  0  0  0  0  0  0  0  0  0  0
  124.2014  135.0964  162.0473 H   0  0  0  0  0  0  0  0  0  0  0  0
  126.3162  134.9876  161.1963 H   0  0  0  0  0  0  0  0  0  0  0  0
  1  2  1  0
  1  3  1  0
  1  4  1  0
  1  5  1  0
  5  6  1  1
  5  7  1  0
  5 27  1  0
  7  8  1  0
  7 37  1  0
  7 38  1  0
  8 26  1  0
  8  9  2  0
  9 10  1  0
  9 39  1  0
 10 11  2  0
 10 40  1  0
 11 12  1  0
 11 25  1  0
 12 13  1  0
 13 18  1  0
 13 14  2  0
 14 15  1  0
 15 16  2  0
 15 41  1  0
 16 17  1  0
 16 42  1  0
 17 18  2  0
 18 19  1  0
 19 24  1  0
 19 20  2  0
 20 21  1  0
 20 43  1  0
 21 22  2  0
 21 44  1  0
 22 23  1  0
 22 45  1  0
 23 24  2  0
 23 46  1  0
 24 47  1  0
 25 26  2  0
 25 48  1  0
 26 49  1  0
 27 28  2  0
 27 29  1  0
 29 30  1  0
 29 50  1  0
 30 36  1  0
 30 31  2  0
 31 32  1  0
 31 51  1  0
 32 33  2  0
 32 52  1  0
 33 34  1  0
 33 53  1  0
 34 35  1  0
 34 36  2  0
 35 54  1  0
 36 55  1  0
M  CHG  1   1   1
M  END
>  <DOCK_score>  (1) 
-46.63689

>  <SMILES>  (1) 
[NH3+][C@H](Cc1ccc(Oc2nccnc2-c2ccccc2)cc1)C(=O)Nc1cccc(O)c1

$$$$
