Nc1ccccc1Nc1cccnc1Nc1nc2ccccc2nc1Nc1[nH]c2c(N)cccc2[nH+]1
     RDKit          3D

 59 64  0  0  1  0  0  0  0  0999 V2000
  130.3886  131.7529  159.6376 N   0  0  0  0  0  0  0  0  0  0  0  0
  130.5081  131.4815  158.2695 C   0  0  0  0  0  0  0  0  0  0  0  0
  130.9382  130.2341  157.8431 C   0  0  0  0  0  0  0  0  0  0  0  0
  131.0560  129.9683  156.4913 C   0  0  0  0  0  0  0  0  0  0  0  0
  130.7459  130.9434  155.5612 C   0  0  0  0  0  0  0  0  0  0  0  0
  130.3109  132.1879  155.9771 C   0  0  0  0  0  0  0  0  0  0  0  0
  130.1953  132.4652  157.3312 C   0  0  0  0  0  0  0  0  0  0  0  0
  129.7605  133.7266  157.7550 N   0  0  0  0  0  0  0  0  0  0  0  0
  128.5971  133.8437  158.5235 C   0  0  0  0  0  0  0  0  0  0  0  0
  127.5599  132.9307  158.3771 C   0  0  0  0  0  0  0  0  0  0  0  0
  126.4255  133.0881  159.1611 C   0  0  0  0  0  0  0  0  0  0  0  0
  126.3606  134.1377  160.0557 C   0  0  0  0  0  0  0  0  0  0  0  0
  127.3621  134.9887  160.1794 N   0  0  0  0  0  0  0  0  0  0  0  0
  128.4599  134.8810  159.4496 C   0  0  0  0  0  0  0  0  0  0  0  0
  129.4901  135.8058  159.6094 N   0  0  0  0  0  0  0  0  0  0  0  0
  129.3617  136.8347  160.5316 C   0  0  0  0  0  0  0  0  0  0  0  0
  128.2645  136.9333  161.2538 N   0  0  0  0  0  0  0  0  0  0  0  0
  128.1409  137.9272  162.1450 C   0  0  0  0  0  0  0  0  0  0  0  0
  126.9813  138.0537  162.9270 C   0  0  0  0  0  0  0  0  0  0  0  0
  126.8801  139.0717  163.8263 C   0  0  0  0  0  0  0  0  0  0  0  0
  127.9122  139.9933  163.9825 C   0  0  0  0  0  0  0  0  0  0  0  0
  129.0509  139.9009  163.2408 C   0  0  0  0  0  0  0  0  0  0  0  0
  129.1905  138.8641  162.3042 C   0  0  0  0  0  0  0  0  0  0  0  0
  130.3040  138.7488  161.5661 N   0  0  0  0  0  0  0  0  0  0  0  0
  130.4104  137.7707  160.6908 C   0  0  0  0  0  0  0  0  0  0  0  0
  131.5620  137.6542  159.9230 N   0  0  0  0  0  0  0  0  0  0  0  0
  132.5909  138.5625  160.0789 C   0  0  0  0  0  0  0  0  0  0  0  0
  133.7645  138.5455  159.3822 N   0  0  0  0  0  0  0  0  0  0  0  0
  134.0214  137.9024  158.7032 H   0  0  0  0  0  0  0  0  0  0  0  0
  134.5234  139.6157  159.8311 C   0  0  0  0  0  0  0  0  0  0  0  0
  135.7850  140.1082  159.5069 C   0  0  0  0  0  0  0  0  0  0  0  0
  136.5573  139.4723  158.5296 N   0  0  0  0  0  0  0  0  0  0  0  0
  136.2720  141.2310  160.1568 C   0  0  0  0  0  0  0  0  0  0  0  0
  135.5104  141.8644  161.1272 C   0  0  0  0  0  0  0  0  0  0  0  0
  134.2616  141.3887  161.4578 C   0  0  0  0  0  0  0  0  0  0  0  0
  133.7529  140.2566  160.8121 C   0  0  0  0  0  0  0  0  0  0  0  0
  132.5864  139.5681  160.9179 N   0  0  0  0  0  0  0  0  0  0  0  0
  131.8606  139.7881  161.5225 H   0  0  0  0  0  0  0  0  0  0  0  0
  130.0879  132.6260  159.9345 H   0  0  0  0  0  0  0  0  0  0  0  0
  130.6065  131.0677  160.2888 H   0  0  0  0  0  0  0  0  0  0  0  0
  131.1809  129.4701  158.5667 H   0  0  0  0  0  0  0  0  0  0  0  0
  131.3914  128.9964  156.1609 H   0  0  0  0  0  0  0  0  0  0  0  0
  130.8397  130.7306  154.5066 H   0  0  0  0  0  0  0  0  0  0  0  0
  130.0650  132.9457  155.2479 H   0  0  0  0  0  0  0  0  0  0  0  0
  130.2656  134.5193  157.5158 H   0  0  0  0  0  0  0  0  0  0  0  0
  127.6350  132.1174  157.6705 H   0  0  0  0  0  0  0  0  0  0  0  0
  125.6015  132.3957  159.0724 H   0  0  0  0  0  0  0  0  0  0  0  0
  125.4786  134.2618  160.6666 H   0  0  0  0  0  0  0  0  0  0  0  0
  130.2967  135.7302  159.0760 H   0  0  0  0  0  0  0  0  0  0  0  0
  126.1729  137.3465  162.8157 H   0  0  0  0  0  0  0  0  0  0  0  0
  125.9868  139.1657  164.4260 H   0  0  0  0  0  0  0  0  0  0  0  0
  127.8086  140.7920  164.7020 H   0  0  0  0  0  0  0  0  0  0  0  0
  129.8437  140.6223  163.3730 H   0  0  0  0  0  0  0  0  0  0  0  0
  131.6436  136.9350  159.2773 H   0  0  0  0  0  0  0  0  0  0  0  0
  137.4358  139.8172  158.3055 H   0  0  0  0  0  0  0  0  0  0  0  0
  136.2143  138.6866  158.0759 H   0  0  0  0  0  0  0  0  0  0  0  0
  137.2500  141.6147  159.9065 H   0  0  0  0  0  0  0  0  0  0  0  0
  135.8999  142.7386  161.6276 H   0  0  0  0  0  0  0  0  0  0  0  0
  133.6753  141.8891  162.2143 H   0  0  0  0  0  0  0  0  0  0  0  0
  1  2  1  0
  1 39  1  0
  1 40  1  0
  2  7  2  0
  2  3  1  0
  3  4  2  0
  3 41  1  0
  4  5  1  0
  4 42  1  0
  5  6  2  0
  5 43  1  0
  6  7  1  0
  6 44  1  0
  7  8  1  0
  8  9  1  0
  8 45  1  0
  9 14  1  0
  9 10  2  0
 10 11  1  0
 10 46  1  0
 11 12  2  0
 11 47  1  0
 12 13  1  0
 12 48  1  0
 13 14  2  0
 14 15  1  0
 15 16  1  0
 15 49  1  0
 16 25  1  0
 16 17  2  0
 17 18  1  0
 18 23  2  0
 18 19  1  0
 19 20  2  0
 19 50  1  0
 20 21  1  0
 20 51  1  0
 21 22  2  0
 21 52  1  0
 22 23  1  0
 22 53  1  0
 23 24  1  0
 24 25  2  0
 25 26  1  0
 26 54  1  0
 27 26  1  0
 27 37  2  0
 27 28  1  0
 28 29  1  0
 28 30  1  0
 30 36  2  0
 30 31  1  0
 31 32  1  0
 31 33  2  0
 32 55  1  0
 32 56  1  0
 33 34  1  0
 33 57  1  0
 34 35  2  0
 34 58  1  0
 35 36  1  0
 35 59  1  0
 36 37  1  0
 37 38  1  0
M  CHG  1  37   1
M  END
>  <DOCK_score>  (1) 
-61.799301

>  <SMILES>  (1) 
Nc1ccccc1Nc1cccnc1Nc1nc2ccccc2nc1Nc1[nH]c2c(N)cccc2[nH+]1

$$$$
