Cn1cc(C[C@H](Nc2[nH]c3ccccc3[nH+]2)C(=O)N[C@@H]2C[C@H]2O)cn1
     RDKit          3D

 46 49  0  0  1  0  0  0  0  0999 V2000
  130.8307  131.7151  156.6034 C   0  0  0  0  0  0  0  0  0  0  0  0
  130.8203  132.3145  157.9401 N   0  0  0  0  0  0  0  0  0  0  0  0
  131.4338  133.4611  158.3008 C   0  0  0  0  0  0  0  0  0  0  0  0
  131.1864  133.6653  159.6154 C   0  0  0  0  0  0  0  0  0  0  0  0
  131.6794  134.8259  160.4406 C   0  0  0  0  0  0  0  0  0  0  0  0
  130.6626  135.9671  160.3743 C   0  0  2  0  0  0  0  0  0  0  0  0
  130.5390  136.2841  159.3388 H   0  0  0  0  0  0  0  0  0  0  0  0
  131.1419  137.0954  161.1765 N   0  0  0  0  0  0  0  0  0  0  0  0
  132.3386  137.6985  160.8687 C   0  0  0  0  0  0  0  0  0  0  0  0
  133.1414  138.2928  161.7486 N   0  0  0  0  0  0  0  0  0  0  0  0
  132.9796  138.3701  162.7019 H   0  0  0  0  0  0  0  0  0  0  0  0
  134.2363  138.7743  161.0803 C   0  0  0  0  0  0  0  0  0  0  0  0
  135.3774  139.4671  161.4745 C   0  0  0  0  0  0  0  0  0  0  0  0
  136.3196  139.8257  160.5351 C   0  0  0  0  0  0  0  0  0  0  0  0
  136.1393  139.5014  159.1984 C   0  0  0  0  0  0  0  0  0  0  0  0
  135.0153  138.8158  158.7912 C   0  0  0  0  0  0  0  0  0  0  0  0
  134.0537  138.4459  159.7270 C   0  0  0  0  0  0  0  0  0  0  0  0
  132.8600  137.7781  159.6464 N   0  0  0  0  0  0  0  0  0  0  0  0
  132.4624  137.4231  158.8360 H   0  0  0  0  0  0  0  0  0  0  0  0
  129.3387  135.4924  160.9156 C   0  0  0  0  0  0  0  0  0  0  0  0
  129.0893  135.6097  162.0967 O   0  0  0  0  0  0  0  0  0  0  0  0
  128.4320  134.9374  160.0871 N   0  0  0  0  0  0  0  0  0  0  0  0
  127.1450  134.4758  160.6134 C   0  0  2  0  0  0  0  0  0  0  0  0
  127.2005  133.7035  161.3805 H   0  0  0  0  0  0  0  0  0  0  0  0
  125.9626  134.4247  159.6437 C   0  0  0  0  0  0  0  0  0  0  0  0
  126.0181  135.5045  160.7262 C   0  0  1  0  0  0  0  0  0  0  0  0
  126.2341  136.5246  160.4091 H   0  0  0  0  0  0  0  0  0  0  0  0
  125.1186  135.3794  161.8296 O   0  0  0  0  0  0  0  0  0  0  0  0
  130.3872  132.6118  160.0716 C   0  0  0  0  0  0  0  0  0  0  0  0
  130.1673  131.8016  159.0683 N   0  0  0  0  0  0  0  0  0  0  0  0
  129.9898  132.0993  156.0262 H   0  0  0  0  0  0  0  0  0  0  0  0
  131.7634  131.9679  156.0990 H   0  0  0  0  0  0  0  0  0  0  0  0
  130.7469  130.6317  156.6903 H   0  0  0  0  0  0  0  0  0  0  0  0
  132.0193  134.0999  157.6563 H   0  0  0  0  0  0  0  0  0  0  0  0
  132.6370  135.1693  160.0490 H   0  0  0  0  0  0  0  0  0  0  0  0
  131.8031  134.5090  161.4761 H   0  0  0  0  0  0  0  0  0  0  0  0
  130.6150  137.4171  161.9247 H   0  0  0  0  0  0  0  0  0  0  0  0
  135.5240  139.7224  162.5136 H   0  0  0  0  0  0  0  0  0  0  0  0
  137.2046  140.3636  160.8415 H   0  0  0  0  0  0  0  0  0  0  0  0
  136.8852  139.7878  158.4718 H   0  0  0  0  0  0  0  0  0  0  0  0
  134.8811  138.5661  157.7491 H   0  0  0  0  0  0  0  0  0  0  0  0
  128.6315  134.8435  159.1426 H   0  0  0  0  0  0  0  0  0  0  0  0
  126.1423  134.7346  158.6142 H   0  0  0  0  0  0  0  0  0  0  0  0
  125.2403  133.6188  159.7729 H   0  0  0  0  0  0  0  0  0  0  0  0
  124.4269  136.0548  161.8518 H   0  0  0  0  0  0  0  0  0  0  0  0
  130.0162  132.4886  161.0783 H   0  0  0  0  0  0  0  0  0  0  0  0
  1  2  1  0
  1 31  1  0
  1 32  1  0
  1 33  1  0
  2 30  1  0
  2  3  1  0
  3  4  2  0
  3 34  1  0
  4  5  1  0
  4 29  1  0
  5  6  1  0
  5 35  1  0
  5 36  1  0
  6  7  1  6
  6  8  1  0
  6 20  1  0
  8  9  1  0
  8 37  1  0
  9 18  1  0
  9 10  2  0
 10 11  1  0
 10 12  1  0
 12 17  2  0
 12 13  1  0
 13 14  2  0
 13 38  1  0
 14 15  1  0
 14 39  1  0
 15 16  2  0
 15 40  1  0
 16 17  1  0
 16 41  1  0
 17 18  1  0
 18 19  1  0
 20 21  2  0
 20 22  1  0
 22 23  1  0
 22 42  1  0
 23 24  1  1
 23 26  1  0
 23 25  1  0
 25 26  1  0
 25 43  1  0
 25 44  1  0
 26 27  1  6
 26 28  1  0
 28 45  1  0
 29 30  2  0
 29 46  1  0
M  CHG  1  10   1
M  END
>  <DOCK_score>  (1) 
-49.320148

>  <SMILES>  (1) 
Cn1cc(C[C@H](Nc2[nH]c3ccccc3[nH+]2)C(=O)N[C@@H]2C[C@H]2O)cn1

$$$$
