N#C[C@H](NC1CCC([NH2+]CC2C=CCOC2)CC1)c1ccccc1
     RDKit          3D

 52 54  0  0  1  0  0  0  0  0999 V2000
  126.4493  137.2462  162.7689 N   0  0  0  0  0  0  0  0  0  0  0  0
  127.1089  136.9669  161.8873 C   0  0  0  0  0  0  0  0  0  0  0  0
  127.9637  136.6047  160.7448 C   0  0  2  0  0  0  0  0  0  0  0  0
  127.3796  136.6491  159.8257 H   0  0  0  0  0  0  0  0  0  0  0  0
  128.4798  135.2421  160.9319 N   0  0  0  0  0  0  0  0  0  0  0  0
  129.3390  134.8458  159.8081 C   0  0  1  0  0  0  0  0  0  0  0  0
  129.8562  133.4245  160.0383 C   0  0  0  0  0  0  0  0  0  0  0  0
  130.7511  133.0117  158.8679 C   0  0  0  0  0  0  0  0  0  0  0  0
  129.9446  133.0569  157.5685 C   0  0  2  0  0  0  0  0  0  0  0  0
  130.8038  132.6605  156.4448 N   0  0  0  0  0  0  0  0  0  0  0  0
  131.3954  131.8938  156.7279 H   0  0  0  0  0  0  0  0  0  0  0  0
  131.3771  133.4431  156.1675 H   0  0  0  0  0  0  0  0  0  0  0  0
  129.9670  132.2413  155.3126 C   0  0  0  0  0  0  0  0  0  0  0  0
  130.8618  131.8284  154.1423 C   0  0  1  0  0  0  0  0  0  0  0  0
  131.3723  130.4325  154.3703 C   0  0  0  0  0  0  0  0  0  0  0  0
  131.4092  129.5393  153.4268 C   0  0  0  0  0  0  0  0  0  0  0  0
  130.9389  129.8127  152.0264 C   0  0  0  0  0  0  0  0  0  0  0  0
  130.8119  131.2204  151.8164 O   0  0  0  0  0  0  0  0  0  0  0  0
  130.0541  131.8740  152.8421 C   0  0  0  0  0  0  0  0  0  0  0  0
  129.4274  134.4783  157.3384 C   0  0  0  0  0  0  0  0  0  0  0  0
  128.5325  134.8910  158.5087 C   0  0  0  0  0  0  0  0  0  0  0  0
  129.1169  137.5706  160.6543 C   0  0  0  0  0  0  0  0  0  0  0  0
  129.6824  137.8588  159.4264 C   0  0  0  0  0  0  0  0  0  0  0  0
  130.7378  138.7477  159.3429 C   0  0  0  0  0  0  0  0  0  0  0  0
  131.2329  139.3422  160.4880 C   0  0  0  0  0  0  0  0  0  0  0  0
  130.6709  139.0500  161.7171 C   0  0  0  0  0  0  0  0  0  0  0  0
  129.6131  138.1640  161.8002 C   0  0  0  0  0  0  0  0  0  0  0  0
  128.9707  135.1587  161.8094 H   0  0  0  0  0  0  0  0  0  0  0  0
  130.1827  135.5323  159.7361 H   0  0  0  0  0  0  0  0  0  0  0  0
  129.0126  132.7381  160.1102 H   0  0  0  0  0  0  0  0  0  0  0  0
  130.4308  133.3923  160.9639 H   0  0  0  0  0  0  0  0  0  0  0  0
  131.1197  131.9991  159.0318 H   0  0  0  0  0  0  0  0  0  0  0  0
  131.5947  133.6982  158.7959 H   0  0  0  0  0  0  0  0  0  0  0  0
  129.1010  132.3704  157.6405 H   0  0  0  0  0  0  0  0  0  0  0  0
  129.3279  133.0696  155.0069 H   0  0  0  0  0  0  0  0  0  0  0  0
  129.3474  131.3959  155.6122 H   0  0  0  0  0  0  0  0  0  0  0  0
  131.7048  132.5159  154.0703 H   0  0  0  0  0  0  0  0  0  0  0  0
  131.7212  130.1614  155.3560 H   0  0  0  0  0  0  0  0  0  0  0  0
  131.7951  128.5578  153.6595 H   0  0  0  0  0  0  0  0  0  0  0  0
  131.6594  129.4051  151.3172 H   0  0  0  0  0  0  0  0  0  0  0  0
  129.9704  129.3374  151.8711 H   0  0  0  0  0  0  0  0  0  0  0  0
  129.1042  131.3582  152.9818 H   0  0  0  0  0  0  0  0  0  0  0  0
  129.8716  132.9108  152.5596 H   0  0  0  0  0  0  0  0  0  0  0  0
  130.2710  135.1647  157.2664 H   0  0  0  0  0  0  0  0  0  0  0  0
  128.8528  134.5104  156.4128 H   0  0  0  0  0  0  0  0  0  0  0  0
  127.6888  134.2046  158.5808 H   0  0  0  0  0  0  0  0  0  0  0  0
  128.1639  135.9036  158.3448 H   0  0  0  0  0  0  0  0  0  0  0  0
  129.2978  137.3918  158.5318 H   0  0  0  0  0  0  0  0  0  0  0  0
  131.1772  138.9758  158.3830 H   0  0  0  0  0  0  0  0  0  0  0  0
  132.0593  140.0346  160.4235 H   0  0  0  0  0  0  0  0  0  0  0  0
  131.0581  139.5140  162.6122 H   0  0  0  0  0  0  0  0  0  0  0  0
  129.1739  137.9356  162.7600 H   0  0  0  0  0  0  0  0  0  0  0  0
  1  2  3  0
  2  3  1  0
  3  4  1  6
  3  5  1  0
  3 22  1  0
  5  6  1  0
  5 28  1  0
  6 21  1  0
  6  7  1  0
  6 29  1  6
  7  8  1  0
  7 30  1  0
  7 31  1  0
  8  9  1  0
  8 32  1  0
  8 33  1  0
  9 10  1  0
  9 20  1  0
  9 34  1  1
 10 11  1  0
 10 12  1  0
 10 13  1  0
 13 14  1  0
 13 35  1  0
 13 36  1  0
 14 19  1  0
 14 15  1  0
 14 37  1  6
 15 16  2  0
 15 38  1  0
 16 17  1  0
 16 39  1  0
 17 18  1  0
 17 40  1  0
 17 41  1  0
 18 19  1  0
 19 42  1  0
 19 43  1  0
 20 21  1  0
 20 44  1  0
 20 45  1  0
 21 46  1  0
 21 47  1  0
 22 27  1  0
 22 23  2  0
 23 24  1  0
 23 48  1  0
 24 25  2  0
 24 49  1  0
 25 26  1  0
 25 50  1  0
 26 27  2  0
 26 51  1  0
 27 52  1  0
M  CHG  1  10   1
M  END
>  <DOCK_score>  (1) 
-41.188103

>  <SMILES>  (1) 
N#C[C@H](NC1CCC([NH2+]CC2C=CCOC2)CC1)c1ccccc1

$$$$
