Cc1cccc(N2CC[NH+](C(c3ccccc3)c3ccccc3)CC2)c1C(=O)CC1CCCC[C@H]1C
     RDKit          3D

 77 81  0  0  1  0  0  0  0  0999 V2000
  136.1181  140.9620  162.5653 C   0  0  0  0  0  0  0  0  0  0  0  0
  135.4633  140.2390  161.4166 C   0  0  0  0  0  0  0  0  0  0  0  0
  135.8456  140.5119  160.1225 C   0  0  0  0  0  0  0  0  0  0  0  0
  135.2485  139.8502  159.0604 C   0  0  0  0  0  0  0  0  0  0  0  0
  134.2634  138.9108  159.2855 C   0  0  0  0  0  0  0  0  0  0  0  0
  133.8621  138.6196  160.5831 C   0  0  0  0  0  0  0  0  0  0  0  0
  132.8723  137.6752  160.8119 N   0  0  0  0  0  0  0  0  0  0  0  0
  133.3033  136.3422  160.3673 C   0  0  0  0  0  0  0  0  0  0  0  0
  132.2098  135.3217  160.6909 C   0  0  0  0  0  0  0  0  0  0  0  0
  130.9655  135.7049  160.0113 N   0  0  0  0  0  0  0  0  0  0  0  0
  131.1233  135.7389  159.0153 H   0  0  0  0  0  0  0  0  0  0  0  0
  129.9211  134.7152  160.3077 C   0  0  0  0  0  0  0  0  0  0  0  0
  128.6442  135.1081  159.6105 C   0  0  0  0  0  0  0  0  0  0  0  0
  127.4230  134.7643  160.1596 C   0  0  0  0  0  0  0  0  0  0  0  0
  126.2516  135.1289  159.5225 C   0  0  0  0  0  0  0  0  0  0  0  0
  126.3012  135.8282  158.3318 C   0  0  0  0  0  0  0  0  0  0  0  0
  127.5228  136.1674  157.7793 C   0  0  0  0  0  0  0  0  0  0  0  0
  128.6941  135.8074  158.4191 C   0  0  0  0  0  0  0  0  0  0  0  0
  130.3621  133.3586  159.8214 C   0  0  0  0  0  0  0  0  0  0  0  0
  129.9332  132.2177  160.4735 C   0  0  0  0  0  0  0  0  0  0  0  0
  130.3337  130.9732  160.0244 C   0  0  0  0  0  0  0  0  0  0  0  0
  131.1716  130.8700  158.9297 C   0  0  0  0  0  0  0  0  0  0  0  0
  131.6046  132.0112  158.2810 C   0  0  0  0  0  0  0  0  0  0  0  0
  131.1999  133.2556  158.7267 C   0  0  0  0  0  0  0  0  0  0  0  0
  130.5346  137.0272  160.4837 C   0  0  0  0  0  0  0  0  0  0  0  0
  131.6140  138.0620  160.1584 C   0  0  0  0  0  0  0  0  0  0  0  0
  134.4693  139.2845  161.6641 C   0  0  0  0  0  0  0  0  0  0  0  0
  134.0606  138.9834  163.0400 C   0  0  0  0  0  0  0  0  0  0  0  0
  133.6025  139.8602  163.7424 O   0  0  0  0  0  0  0  0  0  0  0  0
  134.2096  137.5850  163.5815 C   0  0  0  0  0  0  0  0  0  0  0  0
  135.6827  137.1745  163.5353 C   0  0  1  0  0  0  0  0  0  0  0  0
  136.4202  137.7861  164.7281 C   0  0  0  0  0  0  0  0  0  0  0  0
  137.8935  137.3755  164.6819 C   0  0  0  0  0  0  0  0  0  0  0  0
  137.9999  135.8505  164.7440 C   0  0  0  0  0  0  0  0  0  0  0  0
  137.2623  135.2388  163.5512 C   0  0  0  0  0  0  0  0  0  0  0  0
  135.7892  135.6494  163.5974 C   0  0  1  0  0  0  0  0  0  0  0  0
  135.2638  135.2136  162.7477 H   0  0  0  0  0  0  0  0  0  0  0  0
  135.1602  135.1468  164.8985 C   0  0  0  0  0  0  0  0  0  0  0  0
  135.6136  141.9140  162.7303 H   0  0  0  0  0  0  0  0  0  0  0  0
  137.1670  141.1427  162.3303 H   0  0  0  0  0  0  0  0  0  0  0  0
  136.0474  140.3523  163.4661 H   0  0  0  0  0  0  0  0  0  0  0  0
  136.6153  141.2455  159.9336 H   0  0  0  0  0  0  0  0  0  0  0  0
  135.5566  140.0721  158.0493 H   0  0  0  0  0  0  0  0  0  0  0  0
  133.8040  138.4008  158.4517 H   0  0  0  0  0  0  0  0  0  0  0  0
  133.4799  136.3572  159.2918 H   0  0  0  0  0  0  0  0  0  0  0  0
  134.2227  136.0663  160.8835 H   0  0  0  0  0  0  0  0  0  0  0  0
  132.0430  135.2973  161.7678 H   0  0  0  0  0  0  0  0  0  0  0  0
  132.5215  134.3347  160.3491 H   0  0  0  0  0  0  0  0  0  0  0  0
  129.7509  134.6777  161.3837 H   0  0  0  0  0  0  0  0  0  0  0  0
  127.3840  134.2141  161.0880 H   0  0  0  0  0  0  0  0  0  0  0  0
  125.2975  134.8635  159.9532 H   0  0  0  0  0  0  0  0  0  0  0  0
  125.3865  136.1091  157.8309 H   0  0  0  0  0  0  0  0  0  0  0  0
  127.5619  136.7134  156.8484 H   0  0  0  0  0  0  0  0  0  0  0  0
  129.6482  136.0720  157.9879 H   0  0  0  0  0  0  0  0  0  0  0  0
  129.2822  132.2984  161.3315 H   0  0  0  0  0  0  0  0  0  0  0  0
  129.9956  130.0816  160.5316 H   0  0  0  0  0  0  0  0  0  0  0  0
  131.4881  129.8979  158.5817 H   0  0  0  0  0  0  0  0  0  0  0  0
  132.2596  131.9307  157.4258 H   0  0  0  0  0  0  0  0  0  0  0  0
  131.5385  134.1472  158.2200 H   0  0  0  0  0  0  0  0  0  0  0  0
  130.3763  136.9941  161.5617 H   0  0  0  0  0  0  0  0  0  0  0  0
  129.6042  137.3047  159.9883 H   0  0  0  0  0  0  0  0  0  0  0  0
  131.3011  139.0407  160.5222 H   0  0  0  0  0  0  0  0  0  0  0  0
  131.7630  138.1057  159.0795 H   0  0  0  0  0  0  0  0  0  0  0  0
  133.8561  137.5550  164.6123 H   0  0  0  0  0  0  0  0  0  0  0  0
  133.6211  136.8961  162.9755 H   0  0  0  0  0  0  0  0  0  0  0  0
  136.1307  137.5325  162.6085 H   0  0  0  0  0  0  0  0  0  0  0  0
  136.3444  138.8727  164.6839 H   0  0  0  0  0  0  0  0  0  0  0  0
  135.9722  137.4281  165.6550 H   0  0  0  0  0  0  0  0  0  0  0  0
  138.3415  137.7337  163.7551 H   0  0  0  0  0  0  0  0  0  0  0  0
  138.4188  137.8114  165.5316 H   0  0  0  0  0  0  0  0  0  0  0  0
  139.0495  135.5580  164.7110 H   0  0  0  0  0  0  0  0  0  0  0  0
  137.5519  135.4924  165.6708 H   0  0  0  0  0  0  0  0  0  0  0  0
  137.7104  135.5969  162.6244 H   0  0  0  0  0  0  0  0  0  0  0  0
  137.3382  134.1523  163.5954 H   0  0  0  0  0  0  0  0  0  0  0  0
  134.1107  135.4393  164.9314 H   0  0  0  0  0  0  0  0  0  0  0  0
  135.2362  134.0603  164.9426 H   0  0  0  0  0  0  0  0  0  0  0  0
  135.6857  135.5824  165.7482 H   0  0  0  0  0  0  0  0  0  0  0  0
  1  2  1  0
  1 39  1  0
  1 40  1  0
  1 41  1  0
  2 27  2  0
  2  3  1  0
  3  4  2  0
  3 42  1  0
  4  5  1  0
  4 43  1  0
  5  6  2  0
  5 44  1  0
  6  7  1  0
  6 27  1  0
  7 26  1  0
  7  8  1  0
  8  9  1  0
  8 45  1  0
  8 46  1  0
  9 10  1  0
  9 47  1  0
  9 48  1  0
 10 11  1  0
 10 12  1  0
 10 25  1  0
 12 13  1  0
 12 19  1  0
 12 49  1  0
 13 18  1  0
 13 14  2  0
 14 15  1  0
 14 50  1  0
 15 16  2  0
 15 51  1  0
 16 17  1  0
 16 52  1  0
 17 18  2  0
 17 53  1  0
 18 54  1  0
 19 24  1  0
 19 20  2  0
 20 21  1  0
 20 55  1  0
 21 22  2  0
 21 56  1  0
 22 23  1  0
 22 57  1  0
 23 24  2  0
 23 58  1  0
 24 59  1  0
 25 26  1  0
 25 60  1  0
 25 61  1  0
 26 62  1  0
 26 63  1  0
 27 28  1  0
 28 29  2  0
 28 30  1  0
 30 31  1  0
 30 64  1  0
 30 65  1  0
 31 36  1  0
 31 32  1  0
 31 66  1  6
 32 33  1  0
 32 67  1  0
 32 68  1  0
 33 34  1  0
 33 69  1  0
 33 70  1  0
 34 35  1  0
 34 71  1  0
 34 72  1  0
 35 36  1  0
 35 73  1  0
 35 74  1  0
 36 37  1  6
 36 38  1  0
 38 75  1  0
 38 76  1  0
 38 77  1  0
M  CHG  1  10   1
M  END
>  <DOCK_score>  (1) 
-59.362225

>  <SMILES>  (1) 
Cc1cccc(N2CC[NH+](C(c3ccccc3)c3ccccc3)CC2)c1C(=O)CC1CCCC[C@H]1C

$$$$
