Nc1ccc(-c2c[nH]c(N[C@@H](CC(=O)/C=C/c3ccccc3)c3ccccc3)[nH+]2)cc1
     RDKit          3D

 56 59  0  0  1  0  0  0  0  0999 V2000
  131.2791  129.1551  151.2066 N   0  0  0  0  0  0  0  0  0  0  0  0
  131.0579  129.8291  152.4102 C   0  0  0  0  0  0  0  0  0  0  0  0
  130.1820  130.9084  152.4494 C   0  0  0  0  0  0  0  0  0  0  0  0
  129.9621  131.5759  153.6358 C   0  0  0  0  0  0  0  0  0  0  0  0
  130.6183  131.1678  154.7959 C   0  0  0  0  0  0  0  0  0  0  0  0
  130.3836  131.8847  156.0734 C   0  0  0  0  0  0  0  0  0  0  0  0
  129.8827  131.3440  157.2115 C   0  0  0  0  0  0  0  0  0  0  0  0
  129.8319  132.3533  158.1436 N   0  0  0  0  0  0  0  0  0  0  0  0
  129.5177  132.2756  159.0580 H   0  0  0  0  0  0  0  0  0  0  0  0
  130.3036  133.4812  157.5463 C   0  0  0  0  0  0  0  0  0  0  0  0
  130.4178  134.7237  158.1459 N   0  0  0  0  0  0  0  0  0  0  0  0
  130.0120  134.9033  159.5422 C   0  0  1  0  0  0  0  0  0  0  0  0
  130.3225  134.0363  160.1252 H   0  0  0  0  0  0  0  0  0  0  0  0
  130.6736  136.1617  160.1077 C   0  0  0  0  0  0  0  0  0  0  0  0
  132.0970  135.8510  160.4931 C   0  0  0  0  0  0  0  0  0  0  0  0
  132.3970  134.7316  160.8565 O   0  0  0  0  0  0  0  0  0  0  0  0
  133.0805  136.8596  160.4316 C   0  0  0  0  0  0  0  0  0  0  0  0
  134.1331  136.8312  161.2820 C   0  0  0  0  0  0  0  0  0  0  0  0
  135.1586  137.8831  161.2179 C   0  0  0  0  0  0  0  0  0  0  0  0
  135.3002  138.6578  160.0612 C   0  0  0  0  0  0  0  0  0  0  0  0
  136.2607  139.6455  160.0112 C   0  0  0  0  0  0  0  0  0  0  0  0
  137.0910  139.8645  161.0969 C   0  0  0  0  0  0  0  0  0  0  0  0
  136.9612  139.0988  162.2427 C   0  0  0  0  0  0  0  0  0  0  0  0
  136.0019  138.1108  162.3110 C   0  0  0  0  0  0  0  0  0  0  0  0
  128.5137  135.0475  159.6153 C   0  0  0  0  0  0  0  0  0  0  0  0
  127.8317  134.6151  160.7372 C   0  0  0  0  0  0  0  0  0  0  0  0
  126.4577  134.7513  160.8061 C   0  0  0  0  0  0  0  0  0  0  0  0
  125.7649  135.3116  159.7492 C   0  0  0  0  0  0  0  0  0  0  0  0
  126.4464  135.7392  158.6249 C   0  0  0  0  0  0  0  0  0  0  0  0
  127.8207  135.6069  158.5580 C   0  0  0  0  0  0  0  0  0  0  0  0
  130.6270  133.1985  156.3079 N   0  0  0  0  0  0  0  0  0  0  0  0
  130.9851  133.8279  155.6625 H   0  0  0  0  0  0  0  0  0  0  0  0
  131.4997  130.0886  154.7529 C   0  0  0  0  0  0  0  0  0  0  0  0
  131.7125  129.4208  153.5653 C   0  0  0  0  0  0  0  0  0  0  0  0
  130.8222  129.4398  150.3997 H   0  0  0  0  0  0  0  0  0  0  0  0
  131.8901  128.4022  151.1782 H   0  0  0  0  0  0  0  0  0  0  0  0
  129.6738  131.2242  151.5503 H   0  0  0  0  0  0  0  0  0  0  0  0
  129.2816  132.4140  153.6661 H   0  0  0  0  0  0  0  0  0  0  0  0
  129.5810  130.3173  157.3575 H   0  0  0  0  0  0  0  0  0  0  0  0
  130.7664  135.4755  157.6417 H   0  0  0  0  0  0  0  0  0  0  0  0
  130.6650  136.9475  159.3524 H   0  0  0  0  0  0  0  0  0  0  0  0
  130.1240  136.4970  160.9873 H   0  0  0  0  0  0  0  0  0  0  0  0
  132.9937  137.6549  159.7060 H   0  0  0  0  0  0  0  0  0  0  0  0
  134.2200  136.0361  162.0075 H   0  0  0  0  0  0  0  0  0  0  0  0
  134.6562  138.4852  159.2116 H   0  0  0  0  0  0  0  0  0  0  0  0
  136.3681  140.2477  159.1209 H   0  0  0  0  0  0  0  0  0  0  0  0
  137.8438  140.6373  161.0499 H   0  0  0  0  0  0  0  0  0  0  0  0
  137.6128  139.2758  163.0855 H   0  0  0  0  0  0  0  0  0  0  0  0
  135.9014  137.5146  163.2060 H   0  0  0  0  0  0  0  0  0  0  0  0
  128.3726  134.1740  161.5614 H   0  0  0  0  0  0  0  0  0  0  0  0
  125.9254  134.4176  161.6846 H   0  0  0  0  0  0  0  0  0  0  0  0
  124.6912  135.4156  159.8019 H   0  0  0  0  0  0  0  0  0  0  0  0
  125.9052  136.1768  157.7993 H   0  0  0  0  0  0  0  0  0  0  0  0
  128.3531  135.9409  157.6798 H   0  0  0  0  0  0  0  0  0  0  0  0
  132.0122  129.7734  155.6496 H   0  0  0  0  0  0  0  0  0  0  0  0
  132.3921  128.5820  153.5324 H   0  0  0  0  0  0  0  0  0  0  0  0
  1  2  1  0
  1 35  1  0
  1 36  1  0
  2 34  2  0
  2  3  1  0
  3  4  2  0
  3 37  1  0
  4  5  1  0
  4 38  1  0
  5  6  1  0
  5 33  2  0
  6 31  1  0
  6  7  2  0
  7  8  1  0
  7 39  1  0
  8  9  1  0
  8 10  1  0
 10 11  1  0
 10 31  2  0
 11 12  1  0
 11 40  1  0
 12 13  1  1
 12 14  1  0
 12 25  1  0
 14 15  1  0
 14 41  1  0
 14 42  1  0
 15 16  2  0
 15 17  1  0
 17 18  2  0
 17 43  1  0
 18 19  1  0
 18 44  1  0
 19 24  1  0
 19 20  2  0
 20 21  1  0
 20 45  1  0
 21 22  2  0
 21 46  1  0
 22 23  1  0
 22 47  1  0
 23 24  2  0
 23 48  1  0
 24 49  1  0
 25 30  1  0
 25 26  2  0
 26 27  1  0
 26 50  1  0
 27 28  2  0
 27 51  1  0
 28 29  1  0
 28 52  1  0
 29 30  2  0
 29 53  1  0
 30 54  1  0
 31 32  1  0
 33 34  1  0
 33 55  1  0
 34 56  1  0
M  CHG  1  31   1
M  END
>  <DOCK_score>  (1) 
-67.585068

>  <SMILES>  (1) 
Nc1ccc(-c2c[nH]c(N[C@@H](CC(=O)/C=C/c3ccccc3)c3ccccc3)[nH+]2)cc1

$$$$
