C1=CCC(c2c[nH]c(Nc3ccc(NC4=CCCC4)cc3)[nH+]2)=CC1
     RDKit          3D

 47 50  0  0  1  0  0  0  0  0999 V2000
  131.6635  129.8893  152.3256 C   0  0  0  0  0  0  0  0  0  0  0  0
  132.0148  129.4288  153.4865 C   0  0  0  0  0  0  0  0  0  0  0  0
  131.3682  129.8618  154.7674 C   0  0  0  0  0  0  0  0  0  0  0  0
  130.6578  131.1712  154.5988 C   0  0  0  0  0  0  0  0  0  0  0  0
  130.3455  131.9687  155.8026 C   0  0  0  0  0  0  0  0  0  0  0  0
  130.1026  131.4785  157.0462 C   0  0  0  0  0  0  0  0  0  0  0  0
  129.8590  132.5576  157.8588 N   0  0  0  0  0  0  0  0  0  0  0  0
  129.6533  132.5282  158.8063 H   0  0  0  0  0  0  0  0  0  0  0  0
  129.9596  133.6771  157.0903 C   0  0  0  0  0  0  0  0  0  0  0  0
  129.7842  134.9775  157.5330 N   0  0  0  0  0  0  0  0  0  0  0  0
  128.9134  135.2433  158.5969 C   0  0  0  0  0  0  0  0  0  0  0  0
  129.1595  136.3158  159.4443 C   0  0  0  0  0  0  0  0  0  0  0  0
  128.2983  136.5809  160.4902 C   0  0  0  0  0  0  0  0  0  0  0  0
  127.1918  135.7684  160.7018 C   0  0  0  0  0  0  0  0  0  0  0  0
  126.3222  136.0332  161.7659 N   0  0  0  0  0  0  0  0  0  0  0  0
  126.7977  136.0220  163.0711 C   0  0  0  0  0  0  0  0  0  0  0  0
  126.0622  136.2634  164.1354 C   0  0  0  0  0  0  0  0  0  0  0  0
  126.8894  136.1665  165.3963 C   0  0  0  0  0  0  0  0  0  0  0  0
  128.1747  135.4202  164.9706 C   0  0  0  0  0  0  0  0  0  0  0  0
  128.2303  135.7372  163.4583 C   0  0  0  0  0  0  0  0  0  0  0  0
  126.9486  134.6925  159.8574 C   0  0  0  0  0  0  0  0  0  0  0  0
  127.8067  134.4310  158.8079 C   0  0  0  0  0  0  0  0  0  0  0  0
  130.2561  133.3221  155.8640 N   0  0  0  0  0  0  0  0  0  0  0  0
  130.3882  133.9289  155.1189 H   0  0  0  0  0  0  0  0  0  0  0  0
  130.2974  131.6362  153.4222 C   0  0  0  0  0  0  0  0  0  0  0  0
  130.5746  130.9030  152.1439 C   0  0  0  0  0  0  0  0  0  0  0  0
  132.1798  129.5257  151.4494 H   0  0  0  0  0  0  0  0  0  0  0  0
  132.8099  128.6992  153.5320 H   0  0  0  0  0  0  0  0  0  0  0  0
  130.6534  129.1014  155.0817 H   0  0  0  0  0  0  0  0  0  0  0  0
  132.1342  129.9699  155.5355 H   0  0  0  0  0  0  0  0  0  0  0  0
  130.1007  130.4391  157.3392 H   0  0  0  0  0  0  0  0  0  0  0  0
  130.2644  135.7041  157.1062 H   0  0  0  0  0  0  0  0  0  0  0  0
  130.0225  136.9447  159.2827 H   0  0  0  0  0  0  0  0  0  0  0  0
  128.4874  137.4173  161.1467 H   0  0  0  0  0  0  0  0  0  0  0  0
  125.3872  136.2247  161.5920 H   0  0  0  0  0  0  0  0  0  0  0  0
  125.0081  136.4968  164.1111 H   0  0  0  0  0  0  0  0  0  0  0  0
  126.3569  135.5999  166.1601 H   0  0  0  0  0  0  0  0  0  0  0  0
  127.1335  137.1628  165.7651 H   0  0  0  0  0  0  0  0  0  0  0  0
  128.0789  134.3481  165.1418 H   0  0  0  0  0  0  0  0  0  0  0  0
  129.0478  135.8203  165.4861 H   0  0  0  0  0  0  0  0  0  0  0  0
  128.6097  134.8786  162.9043 H   0  0  0  0  0  0  0  0  0  0  0  0
  128.8537  136.6127  163.2768 H   0  0  0  0  0  0  0  0  0  0  0  0
  126.0886  134.0603  160.0219 H   0  0  0  0  0  0  0  0  0  0  0  0
  127.6177  133.5945  158.1514 H   0  0  0  0  0  0  0  0  0  0  0  0
  129.7854  132.5859  153.3746 H   0  0  0  0  0  0  0  0  0  0  0  0
  129.6660  130.3968  151.8181 H   0  0  0  0  0  0  0  0  0  0  0  0
  130.8780  131.6189  151.3801 H   0  0  0  0  0  0  0  0  0  0  0  0
  1 26  1  0
  1  2  2  0
  1 27  1  0
  2  3  1  0
  2 28  1  0
  3  4  1  0
  3 29  1  0
  3 30  1  0
  4  5  1  0
  4 25  2  0
  5 23  1  0
  5  6  2  0
  6  7  1  0
  6 31  1  0
  7  8  1  0
  7  9  1  0
  9 10  1  0
  9 23  2  0
 10 11  1  0
 10 32  1  0
 11 22  1  0
 11 12  2  0
 12 13  1  0
 12 33  1  0
 13 14  2  0
 13 34  1  0
 14 15  1  0
 14 21  1  0
 15 16  1  0
 15 35  1  0
 16 20  1  0
 16 17  2  0
 17 18  1  0
 17 36  1  0
 18 19  1  0
 18 37  1  0
 18 38  1  0
 19 20  1  0
 19 39  1  0
 19 40  1  0
 20 41  1  0
 20 42  1  0
 21 22  2  0
 21 43  1  0
 22 44  1  0
 23 24  1  0
 25 26  1  0
 25 45  1  0
 26 46  1  0
 26 47  1  0
M  CHG  1  23   1
M  END
>  <DOCK_score>  (1) 
-53.054985

>  <SMILES>  (1) 
C1=CCC(c2c[nH]c(Nc3ccc(NC4=CCCC4)cc3)[nH+]2)=CC1

$$$$
