c1ccc(-c2ccc(Sc3ccc(-c4n[nH]cc4CNc4[nH]c5ccccc5[nH+]4)cc3)cc2)cc1
     RDKit          3D

 59 64  0  0  0  0  0  0  0  0999 V2000
  135.3209  142.9574  167.0880 C   0  0  0  0  0  0  0  0  0  0  0  0
  135.7409  141.6562  166.8782 C   0  0  0  0  0  0  0  0  0  0  0  0
  134.8294  140.6205  166.9116 C   0  0  0  0  0  0  0  0  0  0  0  0
  133.4819  140.8886  167.1460 C   0  0  0  0  0  0  0  0  0  0  0  0
  132.4968  139.7803  167.1765 C   0  0  0  0  0  0  0  0  0  0  0  0
  132.7057  138.6391  166.4028 C   0  0  0  0  0  0  0  0  0  0  0  0
  131.7915  137.6084  166.4362 C   0  0  0  0  0  0  0  0  0  0  0  0
  130.6561  137.7099  167.2330 C   0  0  0  0  0  0  0  0  0  0  0  0
  129.4857  136.3933  167.2693 S   0  0  0  0  0  0  0  0  0  0  0  0
  128.9654  136.2803  165.5896 C   0  0  0  0  0  0  0  0  0  0  0  0
  128.3657  137.3722  164.9729 C   0  0  0  0  0  0  0  0  0  0  0  0
  127.9630  137.2868  163.6573 C   0  0  0  0  0  0  0  0  0  0  0  0
  128.1468  136.1004  162.9487 C   0  0  0  0  0  0  0  0  0  0  0  0
  127.7080  136.0045  161.5345 C   0  0  0  0  0  0  0  0  0  0  0  0
  126.4774  136.1582  161.0932 N   0  0  0  0  0  0  0  0  0  0  0  0
  126.4895  135.9915  159.7025 N   0  0  0  0  0  0  0  0  0  0  0  0
  125.7200  136.0528  159.1152 H   0  0  0  0  0  0  0  0  0  0  0  0
  127.7577  135.7259  159.3219 C   0  0  0  0  0  0  0  0  0  0  0  0
  128.5338  135.7268  160.4276 C   0  0  0  0  0  0  0  0  0  0  0  0
  130.0189  135.4745  160.4694 C   0  0  0  0  0  0  0  0  0  0  0  0
  130.5102  135.2243  159.1121 N   0  0  0  0  0  0  0  0  0  0  0  0
  130.5389  133.9420  158.6169 C   0  0  0  0  0  0  0  0  0  0  0  0
  130.9588  133.6039  157.3998 N   0  0  0  0  0  0  0  0  0  0  0  0
  131.2906  134.2157  156.7242 H   0  0  0  0  0  0  0  0  0  0  0  0
  130.8456  132.2452  157.2640 C   0  0  0  0  0  0  0  0  0  0  0  0
  131.1290  131.3535  156.2336 C   0  0  0  0  0  0  0  0  0  0  0  0
  130.8911  130.0073  156.4080 C   0  0  0  0  0  0  0  0  0  0  0  0
  130.3708  129.5340  157.6035 C   0  0  0  0  0  0  0  0  0  0  0  0
  130.0845  130.4033  158.6339 C   0  0  0  0  0  0  0  0  0  0  0  0
  130.3187  131.7660  158.4745 C   0  0  0  0  0  0  0  0  0  0  0  0
  130.1454  132.8587  159.2829 N   0  0  0  0  0  0  0  0  0  0  0  0
  129.7949  132.8450  160.1872 H   0  0  0  0  0  0  0  0  0  0  0  0
  128.7429  135.0043  163.5705 C   0  0  0  0  0  0  0  0  0  0  0  0
  129.1495  135.0952  164.8843 C   0  0  0  0  0  0  0  0  0  0  0  0
  130.4432  138.8499  168.0011 C   0  0  0  0  0  0  0  0  0  0  0  0
  131.3577  139.8805  167.9744 C   0  0  0  0  0  0  0  0  0  0  0  0
  133.0638  142.2022  167.3510 C   0  0  0  0  0  0  0  0  0  0  0  0
  133.9848  143.2296  167.3210 C   0  0  0  0  0  0  0  0  0  0  0  0
  136.0382  143.7644  167.0655 H   0  0  0  0  0  0  0  0  0  0  0  0
  136.7845  141.4501  166.6919 H   0  0  0  0  0  0  0  0  0  0  0  0
  135.1590  139.6044  166.7517 H   0  0  0  0  0  0  0  0  0  0  0  0
  133.5852  138.5615  165.7810 H   0  0  0  0  0  0  0  0  0  0  0  0
  131.9551  136.7227  165.8402 H   0  0  0  0  0  0  0  0  0  0  0  0
  128.2190  138.2895  165.5237 H   0  0  0  0  0  0  0  0  0  0  0  0
  127.5013  138.1369  163.1774 H   0  0  0  0  0  0  0  0  0  0  0  0
  128.0924  135.5448  158.3112 H   0  0  0  0  0  0  0  0  0  0  0  0
  130.5241  136.3471  160.8835 H   0  0  0  0  0  0  0  0  0  0  0  0
  130.2224  134.6058  161.0954 H   0  0  0  0  0  0  0  0  0  0  0  0
  130.8151  135.9634  158.5628 H   0  0  0  0  0  0  0  0  0  0  0  0
  131.5347  131.7154  155.3004 H   0  0  0  0  0  0  0  0  0  0  0  0
  131.1116  129.3159  155.6081 H   0  0  0  0  0  0  0  0  0  0  0  0
  130.1891  128.4767  157.7280 H   0  0  0  0  0  0  0  0  0  0  0  0
  129.6799  130.0282  159.5623 H   0  0  0  0  0  0  0  0  0  0  0  0
  128.8859  134.0844  163.0229 H   0  0  0  0  0  0  0  0  0  0  0  0
  129.6110  134.2461  165.3664 H   0  0  0  0  0  0  0  0  0  0  0  0
  129.5609  138.9271  168.6190 H   0  0  0  0  0  0  0  0  0  0  0  0
  131.1921  140.7655  168.5710 H   0  0  0  0  0  0  0  0  0  0  0  0
  132.0208  142.4158  167.5326 H   0  0  0  0  0  0  0  0  0  0  0  0
  133.6618  144.2477  167.4802 H   0  0  0  0  0  0  0  0  0  0  0  0
  1 38  2  0
  1  2  1  0
  1 39  1  0
  2  3  2  0
  2 40  1  0
  3  4  1  0
  3 41  1  0
  4  5  1  0
  4 37  2  0
  5 36  1  0
  5  6  2  0
  6  7  1  0
  6 42  1  0
  7  8  2  0
  7 43  1  0
  8  9  1  0
  8 35  1  0
  9 10  1  0
 10 34  1  0
 10 11  2  0
 11 12  1  0
 11 44  1  0
 12 13  2  0
 12 45  1  0
 13 14  1  0
 13 33  1  0
 14 19  1  0
 14 15  2  0
 15 16  1  0
 16 17  1  0
 16 18  1  0
 18 19  2  0
 18 46  1  0
 19 20  1  0
 20 21  1  0
 20 47  1  0
 20 48  1  0
 21 22  1  0
 21 49  1  0
 22 31  1  0
 22 23  2  0
 23 24  1  0
 23 25  1  0
 25 30  2  0
 25 26  1  0
 26 27  2  0
 26 50  1  0
 27 28  1  0
 27 51  1  0
 28 29  2  0
 28 52  1  0
 29 30  1  0
 29 53  1  0
 30 31  1  0
 31 32  1  0
 33 34  2  0
 33 54  1  0
 34 55  1  0
 35 36  2  0
 35 56  1  0
 36 57  1  0
 37 38  1  0
 37 58  1  0
 38 59  1  0
M  CHG  1  23   1
M  END
>  <DOCK_score>  (1) 
-50.070137

>  <SMILES>  (1) 
c1ccc(-c2ccc(Sc3ccc(-c4n[nH]cc4CNc4[nH]c5ccccc5[nH+]4)cc3)cc2)cc1

$$$$
