CCc1ccc(-c2c[nH]c(N[C@@H](Cc3ccccc3F)c3ccccc3)[nH+]2)cc1
     RDKit          3D

 54 57  0  0  1  0  0  0  0  0999 V2000
  130.5726  128.2860  151.4225 C   0  0  0  0  0  0  0  0  0  0  0  0
  131.6584  129.3059  151.7710 C   0  0  0  0  0  0  0  0  0  0  0  0
  131.2633  130.0540  153.0182 C   0  0  0  0  0  0  0  0  0  0  0  0
  131.6414  129.5733  154.2584 C   0  0  0  0  0  0  0  0  0  0  0  0
  131.2874  130.2570  155.4038 C   0  0  0  0  0  0  0  0  0  0  0  0
  130.5376  131.4280  155.3094 C   0  0  0  0  0  0  0  0  0  0  0  0
  130.1493  132.1644  156.5372 C   0  0  0  0  0  0  0  0  0  0  0  0
  129.4027  131.6757  157.5584 C   0  0  0  0  0  0  0  0  0  0  0  0
  129.2845  132.6840  158.4838 N   0  0  0  0  0  0  0  0  0  0  0  0
  128.8060  132.6374  159.3263 H   0  0  0  0  0  0  0  0  0  0  0  0
  129.9630  133.7603  158.0006 C   0  0  0  0  0  0  0  0  0  0  0  0
  130.0880  134.9852  158.6335 N   0  0  0  0  0  0  0  0  0  0  0  0
  129.0241  135.4639  159.5196 C   0  0  1  0  0  0  0  0  0  0  0  0
  128.8878  134.7572  160.3382 H   0  0  0  0  0  0  0  0  0  0  0  0
  129.4090  136.8322  160.0857 C   0  0  0  0  0  0  0  0  0  0  0  0
  130.6939  136.7107  160.8636 C   0  0  0  0  0  0  0  0  0  0  0  0
  131.8047  137.4393  160.4820 C   0  0  0  0  0  0  0  0  0  0  0  0
  132.9817  137.3324  161.1989 C   0  0  0  0  0  0  0  0  0  0  0  0
  133.0529  136.4879  162.2913 C   0  0  0  0  0  0  0  0  0  0  0  0
  131.9454  135.7542  162.6711 C   0  0  0  0  0  0  0  0  0  0  0  0
  130.7639  135.8647  161.9572 C   0  0  0  0  0  0  0  0  0  0  0  0
  129.6803  135.1481  162.3279 F   0  0  0  0  0  0  0  0  0  0  0  0
  127.7392  135.5854  158.7417 C   0  0  0  0  0  0  0  0  0  0  0  0
  126.5259  135.3999  159.3777 C   0  0  0  0  0  0  0  0  0  0  0  0
  125.3470  135.5159  158.6650 C   0  0  0  0  0  0  0  0  0  0  0  0
  125.3818  135.8083  157.3144 C   0  0  0  0  0  0  0  0  0  0  0  0
  126.5953  135.9886  156.6772 C   0  0  0  0  0  0  0  0  0  0  0  0
  127.7740  135.8769  157.3909 C   0  0  0  0  0  0  0  0  0  0  0  0
  130.4832  133.4440  156.8399 N   0  0  0  0  0  0  0  0  0  0  0  0
  131.0193  134.0318  156.2849 H   0  0  0  0  0  0  0  0  0  0  0  0
  130.1544  131.9050  154.0572 C   0  0  0  0  0  0  0  0  0  0  0  0
  130.5190  131.2161  152.9182 C   0  0  0  0  0  0  0  0  0  0  0  0
  130.8583  127.7451  150.5203 H   0  0  0  0  0  0  0  0  0  0  0  0
  130.4578  127.5823  152.2469 H   0  0  0  0  0  0  0  0  0  0  0  0
  129.6285  128.8034  151.2523 H   0  0  0  0  0  0  0  0  0  0  0  0
  132.6022  128.7891  151.9406 H   0  0  0  0  0  0  0  0  0  0  0  0
  131.7729  130.0102  150.9460 H   0  0  0  0  0  0  0  0  0  0  0  0
  132.2183  128.6631  154.3306 H   0  0  0  0  0  0  0  0  0  0  0  0
  131.5872  129.8831  156.3717 H   0  0  0  0  0  0  0  0  0  0  0  0
  128.9814  130.6839  157.6301 H   0  0  0  0  0  0  0  0  0  0  0  0
  130.8801  135.5264  158.4903 H   0  0  0  0  0  0  0  0  0  0  0  0
  129.5451  137.5388  159.2671 H   0  0  0  0  0  0  0  0  0  0  0  0
  128.6173  137.1883  160.7451 H   0  0  0  0  0  0  0  0  0  0  0  0
  131.7515  138.0961  159.6262 H   0  0  0  0  0  0  0  0  0  0  0  0
  133.8479  137.9054  160.9025 H   0  0  0  0  0  0  0  0  0  0  0  0
  133.9742  136.4021  162.8481 H   0  0  0  0  0  0  0  0  0  0  0  0
  132.0013  135.0943  163.5242 H   0  0  0  0  0  0  0  0  0  0  0  0
  126.4988  135.1679  160.4321 H   0  0  0  0  0  0  0  0  0  0  0  0
  124.3990  135.3754  159.1630 H   0  0  0  0  0  0  0  0  0  0  0  0
  124.4609  135.8962  156.7572 H   0  0  0  0  0  0  0  0  0  0  0  0
  126.6225  136.2169  155.6221 H   0  0  0  0  0  0  0  0  0  0  0  0
  128.7219  136.0178  156.8932 H   0  0  0  0  0  0  0  0  0  0  0  0
  129.5732  132.8119  153.9782 H   0  0  0  0  0  0  0  0  0  0  0  0
  130.2223  131.5846  151.9473 H   0  0  0  0  0  0  0  0  0  0  0  0
  1  2  1  0
  1 33  1  0
  1 34  1  0
  1 35  1  0
  2  3  1  0
  2 36  1  0
  2 37  1  0
  3 32  2  0
  3  4  1  0
  4  5  2  0
  4 38  1  0
  5  6  1  0
  5 39  1  0
  6  7  1  0
  6 31  2  0
  7 29  1  0
  7  8  2  0
  8  9  1  0
  8 40  1  0
  9 10  1  0
  9 11  1  0
 11 12  1  0
 11 29  2  0
 12 13  1  0
 12 41  1  0
 13 14  1  1
 13 15  1  0
 13 23  1  0
 15 16  1  0
 15 42  1  0
 15 43  1  0
 16 21  1  0
 16 17  2  0
 17 18  1  0
 17 44  1  0
 18 19  2  0
 18 45  1  0
 19 20  1  0
 19 46  1  0
 20 21  2  0
 20 47  1  0
 21 22  1  0
 23 28  1  0
 23 24  2  0
 24 25  1  0
 24 48  1  0
 25 26  2  0
 25 49  1  0
 26 27  1  0
 26 50  1  0
 27 28  2  0
 27 51  1  0
 28 52  1  0
 29 30  1  0
 31 32  1  0
 31 53  1  0
 32 54  1  0
M  CHG  1  29   1
M  END
>  <DOCK_score>  (1) 
-61.512825

>  <SMILES>  (1) 
CCc1ccc(-c2c[nH]c(N[C@@H](Cc3ccccc3F)c3ccccc3)[nH+]2)cc1

$$$$
