Cn1nccc1[C@H](Nc1[nH]cc(-c2ccc(N)cc2)[nH+]1)C(c1ccccc1)c1ccccc1
     RDKit          3D

 60 64  0  0  1  0  0  0  0  0999 V2000
  131.7612  133.0513  161.7431 C   0  0  0  0  0  0  0  0  0  0  0  0
  131.9810  134.4996  161.7689 N   0  0  0  0  0  0  0  0  0  0  0  0
  132.9702  135.1702  162.4999 N   0  0  0  0  0  0  0  0  0  0  0  0
  132.8512  136.4523  162.2679 C   0  0  0  0  0  0  0  0  0  0  0  0
  131.7874  136.6387  161.3793 C   0  0  0  0  0  0  0  0  0  0  0  0
  131.2668  135.4232  161.0922 C   0  0  0  0  0  0  0  0  0  0  0  0
  130.1021  135.1493  160.1759 C   0  0  2  0  0  0  0  0  0  0  0  0
  129.5798  134.2528  160.5104 H   0  0  0  0  0  0  0  0  0  0  0  0
  130.5921  134.9481  158.8101 N   0  0  0  0  0  0  0  0  0  0  0  0
  130.3560  133.7491  158.1595 C   0  0  0  0  0  0  0  0  0  0  0  0
  129.6855  132.6845  158.6781 N   0  0  0  0  0  0  0  0  0  0  0  0
  129.2896  132.6299  159.5620 H   0  0  0  0  0  0  0  0  0  0  0  0
  129.6723  131.7010  157.7176 C   0  0  0  0  0  0  0  0  0  0  0  0
  130.3345  132.1933  156.6417 C   0  0  0  0  0  0  0  0  0  0  0  0
  130.5718  131.4816  155.3618 C   0  0  0  0  0  0  0  0  0  0  0  0
  130.0759  132.0058  154.1691 C   0  0  0  0  0  0  0  0  0  0  0  0
  130.3028  131.3456  152.9801 C   0  0  0  0  0  0  0  0  0  0  0  0
  131.0147  130.1520  152.9714 C   0  0  0  0  0  0  0  0  0  0  0  0
  131.2377  129.4819  151.7662 N   0  0  0  0  0  0  0  0  0  0  0  0
  131.5056  129.6248  154.1602 C   0  0  0  0  0  0  0  0  0  0  0  0
  131.2861  130.2845  155.3508 C   0  0  0  0  0  0  0  0  0  0  0  0
  130.7422  133.4517  156.9427 N   0  0  0  0  0  0  0  0  0  0  0  0
  131.2398  134.0381  156.3516 H   0  0  0  0  0  0  0  0  0  0  0  0
  129.1410  136.3394  160.2030 C   0  0  0  0  0  0  0  0  0  0  0  0
  127.9763  136.0654  159.2867 C   0  0  0  0  0  0  0  0  0  0  0  0
  128.0363  136.4472  157.9594 C   0  0  0  0  0  0  0  0  0  0  0  0
  126.9699  136.1916  157.1179 C   0  0  0  0  0  0  0  0  0  0  0  0
  125.8393  135.5635  157.6060 C   0  0  0  0  0  0  0  0  0  0  0  0
  125.7772  135.1863  158.9343 C   0  0  0  0  0  0  0  0  0  0  0  0
  126.8457  135.4374  159.7747 C   0  0  0  0  0  0  0  0  0  0  0  0
  128.6369  136.5462  161.6080 C   0  0  0  0  0  0  0  0  0  0  0  0
  128.3018  137.8150  162.0423 C   0  0  0  0  0  0  0  0  0  0  0  0
  127.8349  138.0041  163.3297 C   0  0  0  0  0  0  0  0  0  0  0  0
  127.7129  136.9258  164.1860 C   0  0  0  0  0  0  0  0  0  0  0  0
  128.0530  135.6576  163.7532 C   0  0  0  0  0  0  0  0  0  0  0  0
  128.5150  135.4678  162.4643 C   0  0  0  0  0  0  0  0  0  0  0  0
  132.3520  132.6084  160.9412 H   0  0  0  0  0  0  0  0  0  0  0  0
  132.0639  132.6210  162.6977 H   0  0  0  0  0  0  0  0  0  0  0  0
  130.7045  132.8474  161.5712 H   0  0  0  0  0  0  0  0  0  0  0  0
  133.4702  137.2318  162.6874 H   0  0  0  0  0  0  0  0  0  0  0  0
  131.4411  137.5858  160.9923 H   0  0  0  0  0  0  0  0  0  0  0  0
  131.0818  135.6550  158.3616 H   0  0  0  0  0  0  0  0  0  0  0  0
  129.2245  130.7222  157.8050 H   0  0  0  0  0  0  0  0  0  0  0  0
  129.5185  132.9309  154.1759 H   0  0  0  0  0  0  0  0  0  0  0  0
  129.9224  131.7535  152.0553 H   0  0  0  0  0  0  0  0  0  0  0  0
  131.7351  128.6487  151.7597 H   0  0  0  0  0  0  0  0  0  0  0  0
  130.8958  129.8490  150.9365 H   0  0  0  0  0  0  0  0  0  0  0  0
  132.0590  128.6973  154.1511 H   0  0  0  0  0  0  0  0  0  0  0  0
  131.6677  129.8744  156.2742 H   0  0  0  0  0  0  0  0  0  0  0  0
  129.6632  137.2358  159.8687 H   0  0  0  0  0  0  0  0  0  0  0  0
  128.9179  136.9418  157.5793 H   0  0  0  0  0  0  0  0  0  0  0  0
  127.0183  136.4865  156.0801 H   0  0  0  0  0  0  0  0  0  0  0  0
  125.0044  135.3679  156.9494 H   0  0  0  0  0  0  0  0  0  0  0  0
  124.8937  134.6961  159.3159 H   0  0  0  0  0  0  0  0  0  0  0  0
  126.7970  135.1431  160.8129 H   0  0  0  0  0  0  0  0  0  0  0  0
  128.4012  138.6582  161.3748 H   0  0  0  0  0  0  0  0  0  0  0  0
  127.5694  138.9948  163.6678 H   0  0  0  0  0  0  0  0  0  0  0  0
  127.3523  137.0740  165.1931 H   0  0  0  0  0  0  0  0  0  0  0  0
  127.9581  134.8153  164.4223 H   0  0  0  0  0  0  0  0  0  0  0  0
  128.7810  134.4772  162.1264 H   0  0  0  0  0  0  0  0  0  0  0  0
  1  2  1  0
  1 37  1  0
  1 38  1  0
  1 39  1  0
  2  6  1  0
  2  3  1  0
  3  4  2  0
  4  5  1  0
  4 40  1  0
  5  6  2  0
  5 41  1  0
  6  7  1  0
  7  8  1  1
  7  9  1  0
  7 24  1  0
  9 42  1  0
 10  9  1  0
 10 22  2  0
 10 11  1  0
 11 12  1  0
 11 13  1  0
 13 14  2  0
 13 43  1  0
 14 15  1  0
 14 22  1  0
 15 21  1  0
 15 16  2  0
 16 17  1  0
 16 44  1  0
 17 18  2  0
 17 45  1  0
 18 19  1  0
 18 20  1  0
 19 46  1  0
 19 47  1  0
 20 21  2  0
 20 48  1  0
 21 49  1  0
 22 23  1  0
 24 25  1  0
 24 31  1  0
 24 50  1  0
 25 30  1  0
 25 26  2  0
 26 27  1  0
 26 51  1  0
 27 28  2  0
 27 52  1  0
 28 29  1  0
 28 53  1  0
 29 30  2  0
 29 54  1  0
 30 55  1  0
 31 36  1  0
 31 32  2  0
 32 33  1  0
 32 56  1  0
 33 34  2  0
 33 57  1  0
 34 35  1  0
 34 58  1  0
 35 36  2  0
 35 59  1  0
 36 60  1  0
M  CHG  1  22   1
M  END
>  <DOCK_score>  (1) 
-61.435993

>  <SMILES>  (1) 
Cn1nccc1[C@H](Nc1[nH]cc(-c2ccc(N)cc2)[nH+]1)C(c1ccccc1)c1ccccc1

$$$$
