CCc1ccc(-c2c[nH]c(N[C@H](C)Cc3ccc(-c4cnn(-c5ccccc5)c4)cc3)[nH+]2)cc1
     RDKit          3D

 64 68  0  0  1  0  0  0  0  0999 V2000
  130.6732  128.7295  151.9310 C   0  0  0  0  0  0  0  0  0  0  0  0
  131.7929  129.6367  152.4451 C   0  0  0  0  0  0  0  0  0  0  0  0
  131.2951  130.4287  153.6266 C   0  0  0  0  0  0  0  0  0  0  0  0
  131.4343  129.9197  154.9052 C   0  0  0  0  0  0  0  0  0  0  0  0
  130.9854  130.6431  155.9913 C   0  0  0  0  0  0  0  0  0  0  0  0
  130.3806  131.8837  155.7971 C   0  0  0  0  0  0  0  0  0  0  0  0
  129.8911  132.6636  156.9601 C   0  0  0  0  0  0  0  0  0  0  0  0
  129.4391  132.1511  158.1315 C   0  0  0  0  0  0  0  0  0  0  0  0
  129.0887  133.2170  158.9240 N   0  0  0  0  0  0  0  0  0  0  0  0
  128.7302  133.1702  159.8241 H   0  0  0  0  0  0  0  0  0  0  0  0
  129.3371  134.3506  158.2133 C   0  0  0  0  0  0  0  0  0  0  0  0
  129.1192  135.6440  158.6561 N   0  0  0  0  0  0  0  0  0  0  0  0
  128.5759  135.8776  159.9965 C   0  0  2  0  0  0  0  0  0  0  0  0
  129.0288  135.1781  160.6990 H   0  0  0  0  0  0  0  0  0  0  0  0
  127.0602  135.6701  159.9756 C   0  0  0  0  0  0  0  0  0  0  0  0
  128.8885  137.3111  160.4307 C   0  0  0  0  0  0  0  0  0  0  0  0
  130.3108  137.3880  160.9226 C   0  0  0  0  0  0  0  0  0  0  0  0
  131.3318  137.6792  160.0360 C   0  0  0  0  0  0  0  0  0  0  0  0
  132.6357  137.7556  160.4823 C   0  0  0  0  0  0  0  0  0  0  0  0
  132.9238  137.5286  161.8262 C   0  0  0  0  0  0  0  0  0  0  0  0
  134.3252  137.6035  162.3107 C   0  0  0  0  0  0  0  0  0  0  0  0
  135.3463  138.4181  161.7826 C   0  0  0  0  0  0  0  0  0  0  0  0
  136.4349  138.2055  162.4740 N   0  0  0  0  0  0  0  0  0  0  0  0
  136.1555  137.2546  163.4631 N   0  0  0  0  0  0  0  0  0  0  0  0
  137.0646  136.7606  164.4084 C   0  0  0  0  0  0  0  0  0  0  0  0
  136.6540  135.8189  165.3425 C   0  0  0  0  0  0  0  0  0  0  0  0
  137.5534  135.3303  166.2698 C   0  0  0  0  0  0  0  0  0  0  0  0
  138.8591  135.7858  166.2753 C   0  0  0  0  0  0  0  0  0  0  0  0
  139.2698  136.7274  165.3496 C   0  0  0  0  0  0  0  0  0  0  0  0
  138.3763  137.2160  164.4165 C   0  0  0  0  0  0  0  0  0  0  0  0
  134.8567  136.9001  163.3521 C   0  0  0  0  0  0  0  0  0  0  0  0
  131.8923  137.2306  162.7139 C   0  0  0  0  0  0  0  0  0  0  0  0
  130.5913  137.1617  162.2581 C   0  0  0  0  0  0  0  0  0  0  0  0
  129.8220  134.0160  157.0424 N   0  0  0  0  0  0  0  0  0  0  0  0
  130.0868  134.6363  156.3452 H   0  0  0  0  0  0  0  0  0  0  0  0
  130.2380  132.3891  154.5060 C   0  0  0  0  0  0  0  0  0  0  0  0
  130.6957  131.6594  153.4277 C   0  0  0  0  0  0  0  0  0  0  0  0
  131.0334  128.1565  151.0765 H   0  0  0  0  0  0  0  0  0  0  0  0
  130.3665  128.0464  152.7231 H   0  0  0  0  0  0  0  0  0  0  0  0
  129.8223  129.3390  151.6272 H   0  0  0  0  0  0  0  0  0  0  0  0
  132.6439  129.0270  152.7489 H   0  0  0  0  0  0  0  0  0  0  0  0
  132.0997  130.3197  151.6529 H   0  0  0  0  0  0  0  0  0  0  0  0
  131.8988  128.9561  155.0541 H   0  0  0  0  0  0  0  0  0  0  0  0
  131.0988  130.2469  156.9897 H   0  0  0  0  0  0  0  0  0  0  0  0
  129.3679  131.1053  158.3913 H   0  0  0  0  0  0  0  0  0  0  0  0
  129.3265  136.3957  158.0789 H   0  0  0  0  0  0  0  0  0  0  0  0
  126.6073  136.3697  159.2729 H   0  0  0  0  0  0  0  0  0  0  0  0
  126.8375  134.6489  159.6662 H   0  0  0  0  0  0  0  0  0  0  0  0
  126.6559  135.8439  160.9727 H   0  0  0  0  0  0  0  0  0  0  0  0
  128.7602  137.9838  159.5828 H   0  0  0  0  0  0  0  0  0  0  0  0
  128.2104  137.6037  161.2325 H   0  0  0  0  0  0  0  0  0  0  0  0
  131.1079  137.8511  158.9936 H   0  0  0  0  0  0  0  0  0  0  0  0
  133.4317  137.9875  159.7901 H   0  0  0  0  0  0  0  0  0  0  0  0
  135.2467  139.1001  160.9512 H   0  0  0  0  0  0  0  0  0  0  0  0
  135.6334  135.4658  165.3413 H   0  0  0  0  0  0  0  0  0  0  0  0
  137.2358  134.5945  166.9937 H   0  0  0  0  0  0  0  0  0  0  0  0
  139.5596  135.4051  167.0037 H   0  0  0  0  0  0  0  0  0  0  0  0
  140.2901  137.0810  165.3562 H   0  0  0  0  0  0  0  0  0  0  0  0
  138.6977  137.9511  163.6935 H   0  0  0  0  0  0  0  0  0  0  0  0
  134.3346  136.1873  163.9732 H   0  0  0  0  0  0  0  0  0  0  0  0
  132.1102  137.0539  163.7568 H   0  0  0  0  0  0  0  0  0  0  0  0
  129.7909  136.9304  162.9453 H   0  0  0  0  0  0  0  0  0  0  0  0
  129.7699  133.3499  154.3497 H   0  0  0  0  0  0  0  0  0  0  0  0
  130.5854  132.0499  152.4269 H   0  0  0  0  0  0  0  0  0  0  0  0
  1  2  1  0
  1 38  1  0
  1 39  1  0
  1 40  1  0
  2  3  1  0
  2 41  1  0
  2 42  1  0
  3 37  2  0
  3  4  1  0
  4  5  2  0
  4 43  1  0
  5  6  1  0
  5 44  1  0
  6  7  1  0
  6 36  2  0
  7 34  1  0
  7  8  2  0
  8  9  1  0
  8 45  1  0
  9 10  1  0
  9 11  1  0
 11 12  1  0
 11 34  2  0
 12 13  1  0
 12 46  1  0
 13 14  1  1
 13 15  1  0
 13 16  1  0
 15 47  1  0
 15 48  1  0
 15 49  1  0
 16 17  1  0
 16 50  1  0
 16 51  1  0
 17 33  1  0
 17 18  2  0
 18 19  1  0
 18 52  1  0
 19 20  2  0
 19 53  1  0
 20 21  1  0
 20 32  1  0
 21 31  2  0
 21 22  1  0
 22 23  2  0
 22 54  1  0
 23 24  1  0
 24 25  1  0
 24 31  1  0
 25 30  1  0
 25 26  2  0
 26 27  1  0
 26 55  1  0
 27 28  2  0
 27 56  1  0
 28 29  1  0
 28 57  1  0
 29 30  2  0
 29 58  1  0
 30 59  1  0
 31 60  1  0
 32 33  2  0
 32 61  1  0
 33 62  1  0
 34 35  1  0
 36 37  1  0
 36 63  1  0
 37 64  1  0
M  CHG  1  34   1
M  END
>  <DOCK_score>  (1) 
-56.480789

>  <SMILES>  (1) 
CCc1ccc(-c2c[nH]c(N[C@H](C)Cc3ccc(-c4cnn(-c5ccccc5)c4)cc3)[nH+]2)cc1

$$$$
