Brc1ccccc1[C@@H](Nc1[nH]cc(-c2cccnc2)[nH+]1)c1ccccc1
     RDKit          3D

 44 47  0  0  1  0  0  0  0  0999 V2000
  128.7711  135.7910  163.3919 Br  0  0  0  0  0  0  0  0  0  0  0  0
  127.7728  135.7632  161.7862 C   0  0  0  0  0  0  0  0  0  0  0  0
  126.4126  135.5126  161.8212 C   0  0  0  0  0  0  0  0  0  0  0  0
  125.6844  135.4872  160.6470 C   0  0  0  0  0  0  0  0  0  0  0  0
  126.3140  135.7175  159.4377 C   0  0  0  0  0  0  0  0  0  0  0  0
  127.6718  135.9733  159.4027 C   0  0  0  0  0  0  0  0  0  0  0  0
  128.4011  135.9989  160.5768 C   0  0  0  0  0  0  0  0  0  0  0  0
  129.8816  136.2776  160.5385 C   0  0  1  0  0  0  0  0  0  0  0  0
  130.3699  135.7616  161.3653 H   0  0  0  0  0  0  0  0  0  0  0  0
  130.4357  135.7997  159.2693 N   0  0  0  0  0  0  0  0  0  0  0  0
  130.3385  134.4605  158.9320 C   0  0  0  0  0  0  0  0  0  0  0  0
  129.7601  133.4915  159.6927 N   0  0  0  0  0  0  0  0  0  0  0  0
  129.3453  133.6137  160.5610 H   0  0  0  0  0  0  0  0  0  0  0  0
  129.8699  132.3087  159.0027 C   0  0  0  0  0  0  0  0  0  0  0  0
  130.5187  132.5872  157.8450 C   0  0  0  0  0  0  0  0  0  0  0  0
  130.8663  131.6120  156.7826 C   0  0  0  0  0  0  0  0  0  0  0  0
  130.9388  132.0137  155.4456 C   0  0  0  0  0  0  0  0  0  0  0  0
  131.2718  131.0665  154.4929 C   0  0  0  0  0  0  0  0  0  0  0  0
  131.5096  129.7627  154.8890 C   0  0  0  0  0  0  0  0  0  0  0  0
  131.4286  129.4122  156.1579 N   0  0  0  0  0  0  0  0  0  0  0  0
  131.1203  130.2792  157.1006 C   0  0  0  0  0  0  0  0  0  0  0  0
  130.7934  133.9158  157.8301 N   0  0  0  0  0  0  0  0  0  0  0  0
  131.2525  134.3873  157.1176 H   0  0  0  0  0  0  0  0  0  0  0  0
  130.1170  137.7608  160.6626 C   0  0  0  0  0  0  0  0  0  0  0  0
  129.2245  138.5456  161.3687 C   0  0  0  0  0  0  0  0  0  0  0  0
  129.4425  139.9056  161.4858 C   0  0  0  0  0  0  0  0  0  0  0  0
  130.5486  140.4821  160.8898 C   0  0  0  0  0  0  0  0  0  0  0  0
  131.4385  139.6981  160.1797 C   0  0  0  0  0  0  0  0  0  0  0  0
  131.2224  138.3375  160.0658 C   0  0  0  0  0  0  0  0  0  0  0  0
  125.9208  135.3324  162.7657 H   0  0  0  0  0  0  0  0  0  0  0  0
  124.6233  135.2880  160.6739 H   0  0  0  0  0  0  0  0  0  0  0  0
  125.7446  135.6974  158.5203 H   0  0  0  0  0  0  0  0  0  0  0  0
  128.1631  136.1537  158.4580 H   0  0  0  0  0  0  0  0  0  0  0  0
  130.8707  136.4216  158.6652 H   0  0  0  0  0  0  0  0  0  0  0  0
  129.5117  131.3414  159.3229 H   0  0  0  0  0  0  0  0  0  0  0  0
  130.7439  133.0379  155.1639 H   0  0  0  0  0  0  0  0  0  0  0  0
  131.3406  131.3415  153.4507 H   0  0  0  0  0  0  0  0  0  0  0  0
  131.7657  129.0203  154.1478 H   0  0  0  0  0  0  0  0  0  0  0  0
  131.0641  129.9543  158.1290 H   0  0  0  0  0  0  0  0  0  0  0  0
  128.3584  138.0956  161.8312 H   0  0  0  0  0  0  0  0  0  0  0  0
  128.7470  140.5182  162.0403 H   0  0  0  0  0  0  0  0  0  0  0  0
  130.7170  141.5452  160.9786 H   0  0  0  0  0  0  0  0  0  0  0  0
  132.3024  140.1487  159.7138 H   0  0  0  0  0  0  0  0  0  0  0  0
  131.9176  137.7251  159.5108 H   0  0  0  0  0  0  0  0  0  0  0  0
  1  2  1  0
  2  7  2  0
  2  3  1  0
  3  4  2  0
  3 30  1  0
  4  5  1  0
  4 31  1  0
  5  6  2  0
  5 32  1  0
  6  7  1  0
  6 33  1  0
  7  8  1  0
  8  9  1  1
  8 10  1  0
  8 24  1  0
 10 34  1  0
 11 10  1  0
 11 22  2  0
 11 12  1  0
 12 13  1  0
 12 14  1  0
 14 15  2  0
 14 35  1  0
 15 16  1  0
 15 22  1  0
 16 21  1  0
 16 17  2  0
 17 18  1  0
 17 36  1  0
 18 19  2  0
 18 37  1  0
 19 20  1  0
 19 38  1  0
 20 21  2  0
 21 39  1  0
 22 23  1  0
 24 29  1  0
 24 25  2  0
 25 26  1  0
 25 40  1  0
 26 27  2  0
 26 41  1  0
 27 28  1  0
 27 42  1  0
 28 29  2  0
 28 43  1  0
 29 44  1  0
M  CHG  1  22   1
M  END
>  <DOCK_score>  (1) 
-56.780579

>  <SMILES>  (1) 
Brc1ccccc1[C@@H](Nc1[nH]cc(-c2cccnc2)[nH+]1)c1ccccc1

$$$$
