Clc1ccc2c(c1)OC[C@@H](Nc1ccc(-c3n[nH]cc3C[NH2+]CC3CC(C4CC4)C3)o1)C2
     RDKit          3D

 62 67  0  0  1  0  0  0  0  0999 V2000
  128.8344  141.4687  167.5464 Cl  0  0  0  0  0  0  0  0  0  0  0  0
  128.2857  140.5379  166.1877 C   0  0  0  0  0  0  0  0  0  0  0  0
  128.1885  141.1264  164.9387 C   0  0  0  0  0  0  0  0  0  0  0  0
  127.7510  140.3852  163.8590 C   0  0  0  0  0  0  0  0  0  0  0  0
  127.4089  139.0524  164.0180 C   0  0  0  0  0  0  0  0  0  0  0  0
  127.5072  138.4601  165.2650 C   0  0  0  0  0  0  0  0  0  0  0  0
  127.9464  139.2096  166.3516 C   0  0  0  0  0  0  0  0  0  0  0  0
  127.1912  137.1539  165.4640 O   0  0  0  0  0  0  0  0  0  0  0  0
  126.4078  136.4966  164.4671 C   0  0  0  0  0  0  0  0  0  0  0  0
  127.0362  136.7760  163.0959 C   0  0  1  0  0  0  0  0  0  0  0  0
  128.0838  136.4749  163.1036 H   0  0  0  0  0  0  0  0  0  0  0  0
  126.3158  136.0297  162.0613 N   0  0  0  0  0  0  0  0  0  0  0  0
  126.9884  135.0948  161.2831 C   0  0  0  0  0  0  0  0  0  0  0  0
  126.4434  133.9791  160.7372 C   0  0  0  0  0  0  0  0  0  0  0  0
  127.4713  133.3223  160.0321 C   0  0  0  0  0  0  0  0  0  0  0  0
  128.5944  134.0724  160.1840 C   0  0  0  0  0  0  0  0  0  0  0  0
  129.9241  133.7639  159.6187 C   0  0  0  0  0  0  0  0  0  0  0  0
  130.2308  132.7122  158.8849 N   0  0  0  0  0  0  0  0  0  0  0  0
  131.5884  132.7964  158.5508 N   0  0  0  0  0  0  0  0  0  0  0  0
  132.0831  132.1570  158.0146 H   0  0  0  0  0  0  0  0  0  0  0  0
  132.0911  133.9193  159.1082 C   0  0  0  0  0  0  0  0  0  0  0  0
  131.0927  134.5390  159.7733 C   0  0  0  0  0  0  0  0  0  0  0  0
  131.2064  135.8294  160.5433 C   0  0  0  0  0  0  0  0  0  0  0  0
  130.9231  136.9599  159.6491 N   0  0  0  0  0  0  0  0  0  0  0  0
  131.5869  136.9621  158.8892 H   0  0  0  0  0  0  0  0  0  0  0  0
  129.9886  136.8702  159.2792 H   0  0  0  0  0  0  0  0  0  0  0  0
  131.0341  138.2178  160.3997 C   0  0  0  0  0  0  0  0  0  0  0  0
  132.4511  138.3538  160.9605 C   0  0  2  0  0  0  0  0  0  0  0  0
  132.8522  139.8046  161.2758 C   0  0  0  0  0  0  0  0  0  0  0  0
  134.2404  139.4596  160.7066 C   0  0  1  0  0  0  0  0  0  0  0  0
  135.2107  138.9092  161.7536 C   0  0  0  0  0  0  0  0  0  0  0  0
  136.1055  139.9124  162.4840 C   0  0  0  0  0  0  0  0  0  0  0  0
  136.7057  138.9744  161.4349 C   0  0  0  0  0  0  0  0  0  0  0  0
  133.5433  138.3675  159.8781 C   0  0  0  0  0  0  0  0  0  0  0  0
  128.2879  135.1443  160.9446 O   0  0  0  0  0  0  0  0  0  0  0  0
  126.9329  138.2773  162.8156 C   0  0  0  0  0  0  0  0  0  0  0  0
  128.4549  142.1649  164.8086 H   0  0  0  0  0  0  0  0  0  0  0  0
  127.6756  140.8468  162.8855 H   0  0  0  0  0  0  0  0  0  0  0  0
  128.0222  138.7509  167.3265 H   0  0  0  0  0  0  0  0  0  0  0  0
  125.3885  136.8822  164.4892 H   0  0  0  0  0  0  0  0  0  0  0  0
  126.3989  135.4230  164.6551 H   0  0  0  0  0  0  0  0  0  0  0  0
  125.3694  136.1881  161.9195 H   0  0  0  0  0  0  0  0  0  0  0  0
  125.4169  133.6557  160.8262 H   0  0  0  0  0  0  0  0  0  0  0  0
  127.3834  132.3999  159.4772 H   0  0  0  0  0  0  0  0  0  0  0  0
  133.1129  134.2615  159.0350 H   0  0  0  0  0  0  0  0  0  0  0  0
  130.4894  135.8271  161.3644 H   0  0  0  0  0  0  0  0  0  0  0  0
  132.2159  135.9263  160.9429 H   0  0  0  0  0  0  0  0  0  0  0  0
  130.8239  139.0566  159.7362 H   0  0  0  0  0  0  0  0  0  0  0  0
  130.3171  138.2155  161.2207 H   0  0  0  0  0  0  0  0  0  0  0  0
  132.6525  137.6583  161.7752 H   0  0  0  0  0  0  0  0  0  0  0  0
  132.3106  140.5450  160.6873 H   0  0  0  0  0  0  0  0  0  0  0  0
  132.8609  140.0334  162.3415 H   0  0  0  0  0  0  0  0  0  0  0  0
  134.6766  140.2547  160.1018 H   0  0  0  0  0  0  0  0  0  0  0  0
  134.8537  138.0481  162.3186 H   0  0  0  0  0  0  0  0  0  0  0  0
  136.0029  140.9646  162.2187 H   0  0  0  0  0  0  0  0  0  0  0  0
  136.3373  139.7116  163.5300 H   0  0  0  0  0  0  0  0  0  0  0  0
  137.3323  138.1566  161.7905 H   0  0  0  0  0  0  0  0  0  0  0  0
  136.9980  139.4096  160.4792 H   0  0  0  0  0  0  0  0  0  0  0  0
  134.1092  137.4379  159.8170 H   0  0  0  0  0  0  0  0  0  0  0  0
  133.1907  138.7130  158.9063 H   0  0  0  0  0  0  0  0  0  0  0  0
  127.5513  138.5288  161.9539 H   0  0  0  0  0  0  0  0  0  0  0  0
  125.8952  138.5363  162.6054 H   0  0  0  0  0  0  0  0  0  0  0  0
  1  2  1  0
  2  7  2  0
  2  3  1  0
  3  4  2  0
  3 37  1  0
  4  5  1  0
  4 38  1  0
  5 36  1  0
  5  6  2  0
  6  7  1  0
  6  8  1  0
  7 39  1  0
  8  9  1  0
  9 10  1  0
  9 40  1  0
  9 41  1  0
 10 11  1  1
 10 12  1  0
 10 36  1  0
 12 13  1  0
 12 42  1  0
 13 35  1  0
 13 14  2  0
 14 15  1  0
 14 43  1  0
 15 16  2  0
 15 44  1  0
 16 17  1  0
 16 35  1  0
 17 22  1  0
 17 18  2  0
 18 19  1  0
 19 20  1  0
 19 21  1  0
 21 22  2  0
 21 45  1  0
 22 23  1  0
 23 24  1  0
 23 46  1  0
 23 47  1  0
 24 25  1  0
 24 26  1  0
 24 27  1  0
 27 28  1  0
 27 48  1  0
 27 49  1  0
 28 34  1  0
 28 29  1  0
 28 50  1  1
 29 30  1  0
 29 51  1  0
 29 52  1  0
 30 31  1  0
 30 34  1  0
 30 53  1  6
 31 33  1  0
 31 32  1  0
 31 54  1  0
 32 33  1  0
 32 55  1  0
 32 56  1  0
 33 57  1  0
 33 58  1  0
 34 59  1  0
 34 60  1  0
 36 61  1  0
 36 62  1  0
M  CHG  1  24   1
M  END
>  <DOCK_score>  (1) 
-47.263046

>  <SMILES>  (1) 
Clc1ccc2c(c1)OC[C@@H](Nc1ccc(-c3n[nH]cc3C[NH2+]CC3CC(C4CC4)C3)o1)C2

$$$$
