C[C@@H](Nc1[nH]cc(-c2ccccc2)[nH+]1)c1cnn(Cc2ccccc2)c1
     RDKit          3D

 48 51  0  0  1  0  0  0  0  0999 V2000
  128.0448  135.6332  159.2209 C   0  0  0  0  0  0  0  0  0  0  0  0
  129.4669  135.1004  159.4076 C   0  0  1  0  0  0  0  0  0  0  0  0
  129.4325  134.1540  159.9472 H   0  0  0  0  0  0  0  0  0  0  0  0
  130.0865  134.8925  158.0964 N   0  0  0  0  0  0  0  0  0  0  0  0
  129.9609  133.6709  157.4574 C   0  0  0  0  0  0  0  0  0  0  0  0
  129.2860  132.5910  157.9372 N   0  0  0  0  0  0  0  0  0  0  0  0
  128.8105  132.5391  158.7811 H   0  0  0  0  0  0  0  0  0  0  0  0
  129.4024  131.5879  157.0059 C   0  0  0  0  0  0  0  0  0  0  0  0
  130.1445  132.0832  155.9846 C   0  0  0  0  0  0  0  0  0  0  0  0
  130.5296  131.3540  154.7518 C   0  0  0  0  0  0  0  0  0  0  0  0
  130.1303  131.8298  153.5041 C   0  0  0  0  0  0  0  0  0  0  0  0
  130.4973  131.1509  152.3599 C   0  0  0  0  0  0  0  0  0  0  0  0
  131.2492  129.9930  152.4507 C   0  0  0  0  0  0  0  0  0  0  0  0
  131.6427  129.5129  153.6866 C   0  0  0  0  0  0  0  0  0  0  0  0
  131.2873  130.1872  154.8371 C   0  0  0  0  0  0  0  0  0  0  0  0
  130.4678  133.3656  156.2879 N   0  0  0  0  0  0  0  0  0  0  0  0
  130.9925  133.9604  155.7295 H   0  0  0  0  0  0  0  0  0  0  0  0
  130.2778  136.0979  160.1939 C   0  0  0  0  0  0  0  0  0  0  0  0
  130.8980  135.8661  161.4259 C   0  0  0  0  0  0  0  0  0  0  0  0
  131.5053  136.9658  161.7912 N   0  0  0  0  0  0  0  0  0  0  0  0
  131.2905  137.9338  160.8018 N   0  0  0  0  0  0  0  0  0  0  0  0
  131.8014  139.3068  160.8139 C   0  0  0  0  0  0  0  0  0  0  0  0
  133.1497  139.3469  160.1420 C   0  0  0  0  0  0  0  0  0  0  0  0
  134.2993  139.1642  160.8876 C   0  0  0  0  0  0  0  0  0  0  0  0
  135.5358  139.1963  160.2705 C   0  0  0  0  0  0  0  0  0  0  0  0
  135.6234  139.4214  158.9095 C   0  0  0  0  0  0  0  0  0  0  0  0
  134.4741  139.6094  158.1646 C   0  0  0  0  0  0  0  0  0  0  0  0
  133.2373  139.5722  158.7809 C   0  0  0  0  0  0  0  0  0  0  0  0
  130.5345  137.3765  159.8327 C   0  0  0  0  0  0  0  0  0  0  0  0
  128.0793  136.5796  158.6812 H   0  0  0  0  0  0  0  0  0  0  0  0
  127.4583  134.9117  158.6523 H   0  0  0  0  0  0  0  0  0  0  0  0
  127.5839  135.7878  160.1965 H   0  0  0  0  0  0  0  0  0  0  0  0
  130.5847  135.6109  157.6760 H   0  0  0  0  0  0  0  0  0  0  0  0
  128.9829  130.5950  157.0739 H   0  0  0  0  0  0  0  0  0  0  0  0
  129.5391  132.7307  153.4324 H   0  0  0  0  0  0  0  0  0  0  0  0
  130.1928  131.5215  151.3922 H   0  0  0  0  0  0  0  0  0  0  0  0
  131.5300  129.4620  151.5531 H   0  0  0  0  0  0  0  0  0  0  0  0
  132.2300  128.6088  153.7514 H   0  0  0  0  0  0  0  0  0  0  0  0
  131.5960  129.8118  155.8014 H   0  0  0  0  0  0  0  0  0  0  0  0
  130.8792  134.9390  161.9798 H   0  0  0  0  0  0  0  0  0  0  0  0
  131.1093  139.9568  160.2786 H   0  0  0  0  0  0  0  0  0  0  0  0
  131.8985  139.6494  161.8441 H   0  0  0  0  0  0  0  0  0  0  0  0
  134.2311  138.9927  161.9518 H   0  0  0  0  0  0  0  0  0  0  0  0
  136.4337  139.0498  160.8525 H   0  0  0  0  0  0  0  0  0  0  0  0
  136.5897  139.4509  158.4280 H   0  0  0  0  0  0  0  0  0  0  0  0
  134.5425  139.7856  157.1013 H   0  0  0  0  0  0  0  0  0  0  0  0
  132.3394  139.7193  158.1991 H   0  0  0  0  0  0  0  0  0  0  0  0
  130.1956  137.8637  158.9304 H   0  0  0  0  0  0  0  0  0  0  0  0
  1  2  1  0
  1 30  1  0
  1 31  1  0
  1 32  1  0
  2  3  1  1
  2  4  1  0
  2 18  1  0
  4 33  1  0
  5  4  1  0
  5 16  2  0
  5  6  1  0
  6  7  1  0
  6  8  1  0
  8  9  2  0
  8 34  1  0
  9 10  1  0
  9 16  1  0
 10 15  1  0
 10 11  2  0
 11 12  1  0
 11 35  1  0
 12 13  2  0
 12 36  1  0
 13 14  1  0
 13 37  1  0
 14 15  2  0
 14 38  1  0
 15 39  1  0
 16 17  1  0
 18 29  2  0
 18 19  1  0
 19 20  2  0
 19 40  1  0
 20 21  1  0
 21 22  1  0
 21 29  1  0
 22 23  1  0
 22 41  1  0
 22 42  1  0
 23 28  1  0
 23 24  2  0
 24 25  1  0
 24 43  1  0
 25 26  2  0
 25 44  1  0
 26 27  1  0
 26 45  1  0
 27 28  2  0
 27 46  1  0
 28 47  1  0
 29 48  1  0
M  CHG  1  16   1
M  END
>  <DOCK_score>  (1) 
-60.565662

>  <SMILES>  (1) 
C[C@@H](Nc1[nH]cc(-c2ccccc2)[nH+]1)c1cnn(Cc2ccccc2)c1

$$$$
