CCOc1ccc([C@@H](Cc2ccccc2)Nc2[nH]cc(-c3ccc(CC)cc3)[nH+]2)cc1
     RDKit          3D

 61 64  0  0  1  0  0  0  0  0999 V2000
  135.5801  135.7508  165.4656 C   0  0  0  0  0  0  0  0  0  0  0  0
  134.3714  135.3441  164.6203 C   0  0  0  0  0  0  0  0  0  0  0  0
  134.2287  136.2518  163.5256 O   0  0  0  0  0  0  0  0  0  0  0  0
  133.1951  136.0303  162.6715 C   0  0  0  0  0  0  0  0  0  0  0  0
  132.9975  136.8721  161.5866 C   0  0  0  0  0  0  0  0  0  0  0  0
  131.9464  136.6445  160.7196 C   0  0  0  0  0  0  0  0  0  0  0  0
  131.0918  135.5786  160.9322 C   0  0  0  0  0  0  0  0  0  0  0  0
  129.9461  135.3326  159.9848 C   0  0  1  0  0  0  0  0  0  0  0  0
  129.3868  134.4556  160.3108 H   0  0  0  0  0  0  0  0  0  0  0  0
  129.0219  136.5519  159.9746 C   0  0  0  0  0  0  0  0  0  0  0  0
  128.1195  136.5084  161.1808 C   0  0  0  0  0  0  0  0  0  0  0  0
  126.8934  135.8744  161.1042 C   0  0  0  0  0  0  0  0  0  0  0  0
  126.0678  135.8303  162.2121 C   0  0  0  0  0  0  0  0  0  0  0  0
  126.4636  136.4293  163.3933 C   0  0  0  0  0  0  0  0  0  0  0  0
  127.6874  137.0678  163.4684 C   0  0  0  0  0  0  0  0  0  0  0  0
  128.5154  137.1073  162.3621 C   0  0  0  0  0  0  0  0  0  0  0  0
  130.4686  135.1046  158.6352 N   0  0  0  0  0  0  0  0  0  0  0  0
  130.2143  133.9078  157.9874 C   0  0  0  0  0  0  0  0  0  0  0  0
  129.5003  132.8671  158.4965 N   0  0  0  0  0  0  0  0  0  0  0  0
  129.0814  132.8307  159.3706 H   0  0  0  0  0  0  0  0  0  0  0  0
  129.4819  131.8777  157.5437 C   0  0  0  0  0  0  0  0  0  0  0  0
  130.1845  132.3419  156.4807 C   0  0  0  0  0  0  0  0  0  0  0  0
  130.4323  131.6133  155.2126 C   0  0  0  0  0  0  0  0  0  0  0  0
  129.9875  132.1436  154.0029 C   0  0  0  0  0  0  0  0  0  0  0  0
  130.2214  131.4616  152.8261 C   0  0  0  0  0  0  0  0  0  0  0  0
  130.8958  130.2536  152.8460 C   0  0  0  0  0  0  0  0  0  0  0  0
  131.1482  129.5134  151.5578 C   0  0  0  0  0  0  0  0  0  0  0  0
  129.9768  128.5714  151.2729 C   0  0  0  0  0  0  0  0  0  0  0  0
  131.3344  129.7201  154.0440 C   0  0  0  0  0  0  0  0  0  0  0  0
  131.1112  130.3961  155.2263 C   0  0  0  0  0  0  0  0  0  0  0  0
  130.6259  133.5883  156.7848 N   0  0  0  0  0  0  0  0  0  0  0  0
  131.1590  134.1534  156.2040 H   0  0  0  0  0  0  0  0  0  0  0  0
  131.2833  134.7413  162.0158 C   0  0  0  0  0  0  0  0  0  0  0  0
  132.3362  134.9613  162.8826 C   0  0  0  0  0  0  0  0  0  0  0  0
  136.4795  135.7227  164.8506 H   0  0  0  0  0  0  0  0  0  0  0  0
  135.4328  136.7608  165.8480 H   0  0  0  0  0  0  0  0  0  0  0  0
  135.6891  135.0585  166.3005 H   0  0  0  0  0  0  0  0  0  0  0  0
  133.4719  135.3722  165.2352 H   0  0  0  0  0  0  0  0  0  0  0  0
  134.5188  134.3340  164.2379 H   0  0  0  0  0  0  0  0  0  0  0  0
  133.6646  137.7051  161.4204 H   0  0  0  0  0  0  0  0  0  0  0  0
  131.7925  137.2995  159.8748 H   0  0  0  0  0  0  0  0  0  0  0  0
  129.6209  137.4621  160.0017 H   0  0  0  0  0  0  0  0  0  0  0  0
  128.4171  136.5417  159.0678 H   0  0  0  0  0  0  0  0  0  0  0  0
  126.5823  135.4104  160.1800 H   0  0  0  0  0  0  0  0  0  0  0  0
  125.1115  135.3318  162.1534 H   0  0  0  0  0  0  0  0  0  0  0  0
  125.8167  136.3987  164.2576 H   0  0  0  0  0  0  0  0  0  0  0  0
  127.9965  137.5360  164.3912 H   0  0  0  0  0  0  0  0  0  0  0  0
  129.4713  137.6065  162.4206 H   0  0  0  0  0  0  0  0  0  0  0  0
  130.9927  135.7924  158.1956 H   0  0  0  0  0  0  0  0  0  0  0  0
  128.9999  130.9147  157.6253 H   0  0  0  0  0  0  0  0  0  0  0  0
  129.4607  133.0863  153.9864 H   0  0  0  0  0  0  0  0  0  0  0  0
  129.8769  131.8715  151.8881 H   0  0  0  0  0  0  0  0  0  0  0  0
  132.0673  128.9353  151.6448 H   0  0  0  0  0  0  0  0  0  0  0  0
  131.2451  130.2293  150.7406 H   0  0  0  0  0  0  0  0  0  0  0  0
  129.0574  129.1502  151.1855 H   0  0  0  0  0  0  0  0  0  0  0  0
  130.1593  128.0361  150.3410 H   0  0  0  0  0  0  0  0  0  0  0  0
  129.8795  127.8561  152.0897 H   0  0  0  0  0  0  0  0  0  0  0  0
  131.8562  128.7746  154.0540 H   0  0  0  0  0  0  0  0  0  0  0  0
  131.4582  129.9807  156.1609 H   0  0  0  0  0  0  0  0  0  0  0  0
  130.6115  133.9123  162.1823 H   0  0  0  0  0  0  0  0  0  0  0  0
  132.4881  134.3045  163.7262 H   0  0  0  0  0  0  0  0  0  0  0  0
  1  2  1  0
  1 35  1  0
  1 36  1  0
  1 37  1  0
  2  3  1  0
  2 38  1  0
  2 39  1  0
  3  4  1  0
  4 34  2  0
  4  5  1  0
  5  6  2  0
  5 40  1  0
  6  7  1  0
  6 41  1  0
  7  8  1  0
  7 33  2  0
  8  9  1  1
  8 10  1  0
  8 17  1  0
 10 11  1  0
 10 42  1  0
 10 43  1  0
 11 16  1  0
 11 12  2  0
 12 13  1  0
 12 44  1  0
 13 14  2  0
 13 45  1  0
 14 15  1  0
 14 46  1  0
 15 16  2  0
 15 47  1  0
 16 48  1  0
 17 49  1  0
 18 17  1  0
 18 31  2  0
 18 19  1  0
 19 20  1  0
 19 21  1  0
 21 22  2  0
 21 50  1  0
 22 23  1  0
 22 31  1  0
 23 30  1  0
 23 24  2  0
 24 25  1  0
 24 51  1  0
 25 26  2  0
 25 52  1  0
 26 27  1  0
 26 29  1  0
 27 28  1  0
 27 53  1  0
 27 54  1  0
 28 55  1  0
 28 56  1  0
 28 57  1  0
 29 30  2  0
 29 58  1  0
 30 59  1  0
 31 32  1  0
 33 34  1  0
 33 60  1  0
 34 61  1  0
M  CHG  1  31   1
M  END
>  <DOCK_score>  (1) 
-58.542175

>  <SMILES>  (1) 
CCOc1ccc([C@@H](Cc2ccccc2)Nc2[nH]cc(-c3ccc(CC)cc3)[nH+]2)cc1

$$$$
