Nc1ccc(-c2c[nH]c(N[C@@H](CC3=C[C@@H]4C[C@H]3[C@H](O)[C@@H]4O)c3ccccc3)[nH+]2)cc1
     RDKit          3D

 57 61  0  0  1  0  0  0  0  0999 V2000
  131.3232  129.5033  152.1509 N   0  0  0  0  0  0  0  0  0  0  0  0
  131.0144  130.2801  153.2700 C   0  0  0  0  0  0  0  0  0  0  0  0
  130.2570  131.4359  153.1245 C   0  0  0  0  0  0  0  0  0  0  0  0
  129.9556  132.2075  154.2269 C   0  0  0  0  0  0  0  0  0  0  0  0
  130.4017  131.8210  155.4899 C   0  0  0  0  0  0  0  0  0  0  0  0
  130.0736  132.6462  156.6783 C   0  0  0  0  0  0  0  0  0  0  0  0
  129.3685  132.2389  157.7624 C   0  0  0  0  0  0  0  0  0  0  0  0
  129.3014  133.3112  158.6203 N   0  0  0  0  0  0  0  0  0  0  0  0
  128.8620  133.3288  159.4848 H   0  0  0  0  0  0  0  0  0  0  0  0
  129.9610  134.3447  158.0299 C   0  0  0  0  0  0  0  0  0  0  0  0
  130.1199  135.6111  158.5662 N   0  0  0  0  0  0  0  0  0  0  0  0
  129.5520  135.9274  159.8790 C   0  0  1  0  0  0  0  0  0  0  0  0
  129.9846  135.2670  160.6306 H   0  0  0  0  0  0  0  0  0  0  0  0
  129.8683  137.3813  160.2348 C   0  0  0  0  0  0  0  0  0  0  0  0
  131.2812  137.4763  160.7505 C   0  0  0  0  0  0  0  0  0  0  0  0
  132.1237  136.4711  160.8798 C   0  0  0  0  0  0  0  0  0  0  0  0
  133.4448  137.0145  161.4375 C   0  0  2  0  0  0  0  0  0  0  0  0
  134.1044  136.2880  161.9124 H   0  0  0  0  0  0  0  0  0  0  0  0
  132.8944  138.1701  162.3511 C   0  0  0  0  0  0  0  0  0  0  0  0
  131.9847  138.7601  161.2076 C   0  0  1  0  0  0  0  0  0  0  0  0
  131.3387  139.5955  161.4778 H   0  0  0  0  0  0  0  0  0  0  0  0
  133.0543  139.0221  160.0999 C   0  0  2  0  0  0  0  0  0  0  0  0
  133.5616  139.9711  160.2738 H   0  0  0  0  0  0  0  0  0  0  0  0
  132.4505  139.0069  158.8048 O   0  0  0  0  0  0  0  0  0  0  0  0
  134.0412  137.8472  160.2584 C   0  0  2  0  0  0  0  0  0  0  0  0
  135.0368  138.2116  160.5117 H   0  0  0  0  0  0  0  0  0  0  0  0
  134.0799  137.0670  159.0618 O   0  0  0  0  0  0  0  0  0  0  0  0
  128.0580  135.7334  159.8400 C   0  0  0  0  0  0  0  0  0  0  0  0
  127.3803  135.3530  160.9832 C   0  0  0  0  0  0  0  0  0  0  0  0
  126.0092  135.1798  160.9486 C   0  0  0  0  0  0  0  0  0  0  0  0
  125.3173  135.3772  159.7681 C   0  0  0  0  0  0  0  0  0  0  0  0
  125.9958  135.7520  158.6237 C   0  0  0  0  0  0  0  0  0  0  0  0
  127.3661  135.9303  158.6595 C   0  0  0  0  0  0  0  0  0  0  0  0
  130.4208  133.9436  156.8699 N   0  0  0  0  0  0  0  0  0  0  0  0
  130.9287  134.4875  156.2477 H   0  0  0  0  0  0  0  0  0  0  0  0
  131.1612  130.6609  155.6336 C   0  0  0  0  0  0  0  0  0  0  0  0
  131.4647  129.8953  154.5278 C   0  0  0  0  0  0  0  0  0  0  0  0
  131.0088  129.7699  151.2735 H   0  0  0  0  0  0  0  0  0  0  0  0
  131.8514  128.6954  152.2522 H   0  0  0  0  0  0  0  0  0  0  0  0
  129.9081  131.7327  152.1465 H   0  0  0  0  0  0  0  0  0  0  0  0
  129.3712  133.1084  154.1126 H   0  0  0  0  0  0  0  0  0  0  0  0
  128.9432  131.2592  157.9226 H   0  0  0  0  0  0  0  0  0  0  0  0
  130.6074  136.2891  158.0726 H   0  0  0  0  0  0  0  0  0  0  0  0
  129.7632  138.0039  159.3464 H   0  0  0  0  0  0  0  0  0  0  0  0
  129.1770  137.7259  161.0039 H   0  0  0  0  0  0  0  0  0  0  0  0
  131.9182  135.4393  160.6348 H   0  0  0  0  0  0  0  0  0  0  0  0
  132.3174  137.7952  163.1965 H   0  0  0  0  0  0  0  0  0  0  0  0
  133.6754  138.8634  162.6634 H   0  0  0  0  0  0  0  0  0  0  0  0
  132.0217  138.1698  158.5807 H   0  0  0  0  0  0  0  0  0  0  0  0
  133.2133  136.7549  158.7675 H   0  0  0  0  0  0  0  0  0  0  0  0
  127.9215  135.1949  161.9044 H   0  0  0  0  0  0  0  0  0  0  0  0
  125.4793  134.8866  161.8425 H   0  0  0  0  0  0  0  0  0  0  0  0
  124.2467  135.2382  159.7402 H   0  0  0  0  0  0  0  0  0  0  0  0
  125.4552  135.9058  157.7014 H   0  0  0  0  0  0  0  0  0  0  0  0
  127.8962  136.2232  157.7654 H   0  0  0  0  0  0  0  0  0  0  0  0
  131.5119  130.3623  156.6105 H   0  0  0  0  0  0  0  0  0  0  0  0
  132.0529  128.9964  154.6386 H   0  0  0  0  0  0  0  0  0  0  0  0
  1  2  1  0
  1 38  1  0
  1 39  1  0
  2 37  2  0
  2  3  1  0
  3  4  2  0
  3 40  1  0
  4  5  1  0
  4 41  1  0
  5  6  1  0
  5 36  2  0
  6 34  1  0
  6  7  2  0
  7  8  1  0
  7 42  1  0
  8  9  1  0
  8 10  1  0
 10 11  1  0
 10 34  2  0
 11 12  1  0
 11 43  1  0
 12 13  1  1
 12 14  1  0
 12 28  1  0
 14 15  1  0
 14 44  1  0
 14 45  1  0
 15 20  1  0
 15 16  2  0
 16 17  1  0
 16 46  1  0
 17 18  1  1
 17 25  1  0
 17 19  1  0
 19 20  1  0
 19 47  1  0
 19 48  1  0
 20 21  1  1
 20 22  1  0
 22 23  1  1
 22 24  1  0
 22 25  1  0
 24 49  1  0
 25 26  1  1
 25 27  1  0
 27 50  1  0
 28 33  1  0
 28 29  2  0
 29 30  1  0
 29 51  1  0
 30 31  2  0
 30 52  1  0
 31 32  1  0
 31 53  1  0
 32 33  2  0
 32 54  1  0
 33 55  1  0
 34 35  1  0
 36 37  1  0
 36 56  1  0
 37 57  1  0
M  CHG  1  34   1
M  END
>  <DOCK_score>  (1) 
-63.05772

>  <SMILES>  (1) 
Nc1ccc(-c2c[nH]c(N[C@@H](CC3=C[C@@H]4C[C@H]3[C@H](O)[C@@H]4O)c3ccccc3)[nH+]2)cc1

$$$$
