Cn1nccc1[C@H](CNc1[nH]cc(-c2ccc(O)cc2)[nH+]1)Oc1cccc2cc[nH]c12
     RDKit          3D

 54 58  0  0  1  0  0  0  0  0999 V2000
  130.7879  134.9062  163.8266 C   0  0  0  0  0  0  0  0  0  0  0  0
  131.8764  134.9080  162.8462 N   0  0  0  0  0  0  0  0  0  0  0  0
  133.1025  134.2428  162.9748 N   0  0  0  0  0  0  0  0  0  0  0  0
  133.8108  134.4794  161.9004 C   0  0  0  0  0  0  0  0  0  0  0  0
  133.0575  135.2975  161.0522 C   0  0  0  0  0  0  0  0  0  0  0  0
  131.8750  135.5502  161.6593 C   0  0  0  0  0  0  0  0  0  0  0  0
  130.7544  136.3926  161.1064 C   0  0  2  0  0  0  0  0  0  0  0  0
  130.2041  136.8502  161.9286 H   0  0  0  0  0  0  0  0  0  0  0  0
  129.8090  135.5105  160.2884 C   0  0  0  0  0  0  0  0  0  0  0  0
  130.3804  135.2844  158.9586 N   0  0  0  0  0  0  0  0  0  0  0  0
  130.1070  134.1100  158.2782 C   0  0  0  0  0  0  0  0  0  0  0  0
  129.3310  133.0907  158.7368 N   0  0  0  0  0  0  0  0  0  0  0  0
  128.8734  133.0565  159.5914 H   0  0  0  0  0  0  0  0  0  0  0  0
  129.3127  132.1197  157.7640 C   0  0  0  0  0  0  0  0  0  0  0  0
  130.0840  132.5706  156.7440 C   0  0  0  0  0  0  0  0  0  0  0  0
  130.3604  131.8530  155.4753 C   0  0  0  0  0  0  0  0  0  0  0  0
  129.9903  132.4205  154.2571 C   0  0  0  0  0  0  0  0  0  0  0  0
  130.2542  131.7535  153.0788 C   0  0  0  0  0  0  0  0  0  0  0  0
  130.8766  130.5130  153.1063 C   0  0  0  0  0  0  0  0  0  0  0  0
  131.1298  129.8555  151.9440 O   0  0  0  0  0  0  0  0  0  0  0  0
  131.2411  129.9428  154.3180 C   0  0  0  0  0  0  0  0  0  0  0  0
  130.9855  130.6075  155.4994 C   0  0  0  0  0  0  0  0  0  0  0  0
  130.5575  133.7943  157.0885 N   0  0  0  0  0  0  0  0  0  0  0  0
  131.1374  134.3473  156.5417 H   0  0  0  0  0  0  0  0  0  0  0  0
  131.2961  137.4153  160.2682 O   0  0  0  0  0  0  0  0  0  0  0  0
  131.6141  138.5962  160.8623 C   0  0  0  0  0  0  0  0  0  0  0  0
  130.6382  139.3356  161.5041 C   0  0  0  0  0  0  0  0  0  0  0  0
  130.9534  140.5401  162.1171 C   0  0  0  0  0  0  0  0  0  0  0  0
  132.2321  141.0206  162.0888 C   0  0  0  0  0  0  0  0  0  0  0  0
  133.2346  140.2932  161.4418 C   0  0  0  0  0  0  0  0  0  0  0  0
  134.6676  140.5058  161.2261 C   0  0  0  0  0  0  0  0  0  0  0  0
  135.1197  139.4539  160.5249 C   0  0  0  0  0  0  0  0  0  0  0  0
  134.0936  138.5853  160.2741 N   0  0  0  0  0  0  0  0  0  0  0  0
  134.1755  137.7524  159.7836 H   0  0  0  0  0  0  0  0  0  0  0  0
  132.9257  139.0702  160.8222 C   0  0  0  0  0  0  0  0  0  0  0  0
  130.1146  134.0744  163.6204 H   0  0  0  0  0  0  0  0  0  0  0  0
  131.2021  134.7984  164.8291 H   0  0  0  0  0  0  0  0  0  0  0  0
  130.2374  135.8446  163.7599 H   0  0  0  0  0  0  0  0  0  0  0  0
  134.8038  134.1046  161.7012 H   0  0  0  0  0  0  0  0  0  0  0  0
  133.3662  135.6648  160.0845 H   0  0  0  0  0  0  0  0  0  0  0  0
  129.6758  134.5541  160.7941 H   0  0  0  0  0  0  0  0  0  0  0  0
  128.8435  136.0067  160.1895 H   0  0  0  0  0  0  0  0  0  0  0  0
  130.9502  135.9574  158.5546 H   0  0  0  0  0  0  0  0  0  0  0  0
  128.7885  131.1765  157.8059 H   0  0  0  0  0  0  0  0  0  0  0  0
  129.5018  133.3834  154.2355 H   0  0  0  0  0  0  0  0  0  0  0  0
  129.9717  132.1947  152.1345 H   0  0  0  0  0  0  0  0  0  0  0  0
  130.8407  130.3303  151.1525 H   0  0  0  0  0  0  0  0  0  0  0  0
  131.7251  128.9774  154.3360 H   0  0  0  0  0  0  0  0  0  0  0  0
  131.2697  130.1634  156.4419 H   0  0  0  0  0  0  0  0  0  0  0  0
  129.6220  138.9710  161.5314 H   0  0  0  0  0  0  0  0  0  0  0  0
  130.1805  141.1042  162.6180 H   0  0  0  0  0  0  0  0  0  0  0  0
  132.4676  141.9604  162.5659 H   0  0  0  0  0  0  0  0  0  0  0  0
  135.2502  141.3493  161.5660 H   0  0  0  0  0  0  0  0  0  0  0  0
  136.1421  139.3146  160.2058 H   0  0  0  0  0  0  0  0  0  0  0  0
  1  2  1  0
  1 36  1  0
  1 37  1  0
  1 38  1  0
  2  6  1  0
  2  3  1  0
  3  4  2  0
  4  5  1  0
  4 39  1  0
  5  6  2  0
  5 40  1  0
  6  7  1  0
  7  8  1  1
  7  9  1  0
  7 25  1  0
  9 10  1  0
  9 41  1  0
  9 42  1  0
 10 43  1  0
 11 10  1  0
 11 23  2  0
 11 12  1  0
 12 13  1  0
 12 14  1  0
 14 15  2  0
 14 44  1  0
 15 16  1  0
 15 23  1  0
 16 22  1  0
 16 17  2  0
 17 18  1  0
 17 45  1  0
 18 19  2  0
 18 46  1  0
 19 20  1  0
 19 21  1  0
 20 47  1  0
 21 22  2  0
 21 48  1  0
 22 49  1  0
 23 24  1  0
 25 26  1  0
 26 35  1  0
 26 27  2  0
 27 28  1  0
 27 50  1  0
 28 29  2  0
 28 51  1  0
 29 30  1  0
 29 52  1  0
 30 35  2  0
 30 31  1  0
 31 32  2  0
 31 53  1  0
 32 33  1  0
 32 54  1  0
 33 34  1  0
 33 35  1  0
M  CHG  1  23   1
M  END
>  <DOCK_score>  (1) 
-61.88998

>  <SMILES>  (1) 
Cn1nccc1[C@H](CNc1[nH]cc(-c2ccc(O)cc2)[nH+]1)Oc1cccc2cc[nH]c12

$$$$
