O=C1CC[C@H](NC(NC2CCCC2)=[NH+][C@H]2COc3ccc(CCO)cc3C2)CN1
     RDKit          3D

 62 65  0  0  1  0  0  0  0  0999 V2000
  124.3728  133.9986  161.8229 O   0  0  0  0  0  0  0  0  0  0  0  0
  125.5066  134.3025  161.5179 C   0  0  0  0  0  0  0  0  0  0  0  0
  126.3990  133.2376  160.9478 C   0  0  0  0  0  0  0  0  0  0  0  0
  127.8615  133.6801  161.0385 C   0  0  0  0  0  0  0  0  0  0  0  0
  127.9719  135.1054  160.4836 C   0  0  2  0  0  0  0  0  0  0  0  0
  127.5190  135.1483  159.4930 H   0  0  0  0  0  0  0  0  0  0  0  0
  129.3825  135.4909  160.3962 N   0  0  0  0  0  0  0  0  0  0  0  0
  130.2467  134.7636  159.6124 C   0  0  0  0  0  0  0  0  0  0  0  0
  129.7815  134.1232  158.4881 N   0  0  0  0  0  0  0  0  0  0  0  0
  130.7023  133.3482  157.6529 C   0  0  0  0  0  0  0  0  0  0  0  0
  129.9299  132.6737  156.5004 C   0  0  0  0  0  0  0  0  0  0  0  0
  130.6187  131.2962  156.3364 C   0  0  0  0  0  0  0  0  0  0  0  0
  130.9278  130.8923  157.7994 C   0  0  0  0  0  0  0  0  0  0  0  0
  131.3368  132.2155  158.4788 C   0  0  0  0  0  0  0  0  0  0  0  0
  131.5068  134.6812  159.9350 N   0  0  0  0  0  0  0  0  0  0  0  0
  132.1164  134.1680  159.3819 H   0  0  0  0  0  0  0  0  0  0  0  0
  132.0024  135.3636  161.1329 C   0  0  1  0  0  0  0  0  0  0  0  0
  131.2092  135.4198  161.8783 H   0  0  0  0  0  0  0  0  0  0  0  0
  133.1995  134.5956  161.7076 C   0  0  0  0  0  0  0  0  0  0  0  0
  133.5943  135.2244  162.9276 O   0  0  0  0  0  0  0  0  0  0  0  0
  133.7642  136.5721  162.9211 C   0  0  0  0  0  0  0  0  0  0  0  0
  134.4786  137.1561  163.9626 C   0  0  0  0  0  0  0  0  0  0  0  0
  134.6647  138.5228  163.9962 C   0  0  0  0  0  0  0  0  0  0  0  0
  134.1407  139.3159  162.9917 C   0  0  0  0  0  0  0  0  0  0  0  0
  134.3423  140.8090  163.0278 C   0  0  0  0  0  0  0  0  0  0  0  0
  135.6322  141.1675  162.2874 C   0  0  0  0  0  0  0  0  0  0  0  0
  135.5387  140.7323  160.9295 O   0  0  0  0  0  0  0  0  0  0  0  0
  133.4329  138.7395  161.9554 C   0  0  0  0  0  0  0  0  0  0  0  0
  133.2434  137.3681  161.9162 C   0  0  0  0  0  0  0  0  0  0  0  0
  132.4677  136.7753  160.7672 C   0  0  0  0  0  0  0  0  0  0  0  0
  127.2367  136.0596  161.4257 C   0  0  0  0  0  0  0  0  0  0  0  0
  125.8941  135.5645  161.7064 N   0  0  0  0  0  0  0  0  0  0  0  0
  126.1366  133.0660  159.9039 H   0  0  0  0  0  0  0  0  0  0  0  0
  126.2647  132.3136  161.5102 H   0  0  0  0  0  0  0  0  0  0  0  0
  128.4855  133.0077  160.4498 H   0  0  0  0  0  0  0  0  0  0  0  0
  128.1855  133.6653  162.0792 H   0  0  0  0  0  0  0  0  0  0  0  0
  129.7069  136.2594  160.8914 H   0  0  0  0  0  0  0  0  0  0  0  0
  128.8446  134.1879  158.2459 H   0  0  0  0  0  0  0  0  0  0  0  0
  131.4798  133.9985  157.2519 H   0  0  0  0  0  0  0  0  0  0  0  0
  128.8809  132.5464  156.7675 H   0  0  0  0  0  0  0  0  0  0  0  0
  130.0233  133.2582  155.5851 H   0  0  0  0  0  0  0  0  0  0  0  0
  131.5386  131.3905  155.7591 H   0  0  0  0  0  0  0  0  0  0  0  0
  129.9446  130.5770  155.8713 H   0  0  0  0  0  0  0  0  0  0  0  0
  131.7494  130.1768  157.8322 H   0  0  0  0  0  0  0  0  0  0  0  0
  130.0413  130.4760  158.2778 H   0  0  0  0  0  0  0  0  0  0  0  0
  132.4221  132.3157  158.4781 H   0  0  0  0  0  0  0  0  0  0  0  0
  130.9597  132.2426  159.5011 H   0  0  0  0  0  0  0  0  0  0  0  0
  132.9132  133.5621  161.9030 H   0  0  0  0  0  0  0  0  0  0  0  0
  134.0264  134.6199  160.9977 H   0  0  0  0  0  0  0  0  0  0  0  0
  134.8882  136.5378  164.7476 H   0  0  0  0  0  0  0  0  0  0  0  0
  135.2189  138.9731  164.8065 H   0  0  0  0  0  0  0  0  0  0  0  0
  133.4977  141.3014  162.5458 H   0  0  0  0  0  0  0  0  0  0  0  0
  134.4134  141.1410  164.0635 H   0  0  0  0  0  0  0  0  0  0  0  0
  135.7779  142.2476  162.3135 H   0  0  0  0  0  0  0  0  0  0  0  0
  136.4767  140.6753  162.7694 H   0  0  0  0  0  0  0  0  0  0  0  0
  135.4082  139.7793  160.8300 H   0  0  0  0  0  0  0  0  0  0  0  0
  133.0251  139.3610  161.1720 H   0  0  0  0  0  0  0  0  0  0  0  0
  133.1053  136.7297  159.8842 H   0  0  0  0  0  0  0  0  0  0  0  0
  131.5999  137.3997  160.5551 H   0  0  0  0  0  0  0  0  0  0  0  0
  127.7910  136.1411  162.3606 H   0  0  0  0  0  0  0  0  0  0  0  0
  127.1711  137.0440  160.9622 H   0  0  0  0  0  0  0  0  0  0  0  0
  125.2410  136.1941  162.0498 H   0  0  0  0  0  0  0  0  0  0  0  0
  1  2  2  0
  2 32  1  0
  2  3  1  0
  3  4  1  0
  3 33  1  0
  3 34  1  0
  4  5  1  0
  4 35  1  0
  4 36  1  0
  5  6  1  6
  5  7  1  0
  5 31  1  0
  7 37  1  0
  8  7  1  0
  8  9  1  0
  8 15  2  0
  9 10  1  0
  9 38  1  0
 10 14  1  0
 10 11  1  0
 10 39  1  0
 11 12  1  0
 11 40  1  0
 11 41  1  0
 12 13  1  0
 12 42  1  0
 12 43  1  0
 13 14  1  0
 13 44  1  0
 13 45  1  0
 14 46  1  0
 14 47  1  0
 15 16  1  0
 15 17  1  0
 17 18  1  1
 17 30  1  0
 17 19  1  0
 19 20  1  0
 19 48  1  0
 19 49  1  0
 20 21  1  0
 21 29  2  0
 21 22  1  0
 22 23  2  0
 22 50  1  0
 23 24  1  0
 23 51  1  0
 24 25  1  0
 24 28  2  0
 25 26  1  0
 25 52  1  0
 25 53  1  0
 26 27  1  0
 26 54  1  0
 26 55  1  0
 27 56  1  0
 28 29  1  0
 28 57  1  0
 29 30  1  0
 30 58  1  0
 30 59  1  0
 31 32  1  0
 31 60  1  0
 31 61  1  0
 32 62  1  0
M  CHG  1  15   1
M  END
>  <DOCK_score>  (1) 
-42.555092

>  <SMILES>  (1) 
O=C1CC[C@H](NC(NC2CCCC2)=[NH+][C@H]2COc3ccc(CCO)cc3C2)CN1

$$$$
