CC1(c2ccc([C@H](Nc3[nH]cc(-c4ccc(Br)cc4)[nH+]3)c3cccc(F)c3)cc2)CCC1
     RDKit          3D

 58 62  0  0  1  0  0  0  0  0999 V2000
  131.8136  141.4132  161.8590 C   0  0  0  0  0  0  0  0  0  0  0  0
  131.7352  140.3335  162.9404 C   0  0  0  0  0  0  0  0  0  0  0  0
  131.3229  138.9898  162.3967 C   0  0  0  0  0  0  0  0  0  0  0  0
  132.2837  138.0984  161.9564 C   0  0  0  0  0  0  0  0  0  0  0  0
  131.9061  136.8637  161.4626 C   0  0  0  0  0  0  0  0  0  0  0  0
  130.5675  136.5247  161.3986 C   0  0  0  0  0  0  0  0  0  0  0  0
  130.1557  135.1810  160.8546 C   0  0  2  0  0  0  0  0  0  0  0  0
  130.5984  134.3918  161.4623 H   0  0  0  0  0  0  0  0  0  0  0  0
  130.6202  135.0509  159.4714 N   0  0  0  0  0  0  0  0  0  0  0  0
  130.3578  133.8933  158.7589 C   0  0  0  0  0  0  0  0  0  0  0  0
  129.6762  132.8121  159.2267 N   0  0  0  0  0  0  0  0  0  0  0  0
  129.2906  132.7147  160.1114 H   0  0  0  0  0  0  0  0  0  0  0  0
  129.6357  131.8840  158.2145 C   0  0  0  0  0  0  0  0  0  0  0  0
  130.2929  132.4242  157.1586 C   0  0  0  0  0  0  0  0  0  0  0  0
  130.5034  131.7801  155.8391 C   0  0  0  0  0  0  0  0  0  0  0  0
  130.0027  132.3754  154.6825 C   0  0  0  0  0  0  0  0  0  0  0  0
  130.2063  131.7751  153.4568 C   0  0  0  0  0  0  0  0  0  0  0  0
  130.8961  130.5779  153.3759 C   0  0  0  0  0  0  0  0  0  0  0  0
  131.1641  129.7568  151.6936 Br  0  0  0  0  0  0  0  0  0  0  0  0
  131.3910  129.9798  154.5222 C   0  0  0  0  0  0  0  0  0  0  0  0
  131.1979  130.5748  155.7521 C   0  0  0  0  0  0  0  0  0  0  0  0
  130.7197  133.6600  157.5210 N   0  0  0  0  0  0  0  0  0  0  0  0
  131.2158  134.2722  156.9553 H   0  0  0  0  0  0  0  0  0  0  0  0
  128.6538  135.0622  160.8936 C   0  0  0  0  0  0  0  0  0  0  0  0
  127.8997  135.4737  159.8102 C   0  0  0  0  0  0  0  0  0  0  0  0
  126.5222  135.3649  159.8443 C   0  0  0  0  0  0  0  0  0  0  0  0
  125.8969  134.8448  160.9618 C   0  0  0  0  0  0  0  0  0  0  0  0
  126.6509  134.4329  162.0473 C   0  0  0  0  0  0  0  0  0  0  0  0
  126.0409  133.9248  163.1404 F   0  0  0  0  0  0  0  0  0  0  0  0
  128.0314  134.5371  162.0098 C   0  0  0  0  0  0  0  0  0  0  0  0
  129.6068  137.4181  161.8341 C   0  0  0  0  0  0  0  0  0  0  0  0
  129.9845  138.6507  162.3331 C   0  0  0  0  0  0  0  0  0  0  0  0
  132.9764  140.2775  163.8462 C   0  0  0  0  0  0  0  0  0  0  0  0
  132.2685  141.3035  164.7468 C   0  0  0  0  0  0  0  0  0  0  0  0
  130.9410  140.7658  164.1866 C   0  0  0  0  0  0  0  0  0  0  0  0
  132.6752  141.2240  161.2186 H   0  0  0  0  0  0  0  0  0  0  0  0
  130.9037  141.3935  161.2590 H   0  0  0  0  0  0  0  0  0  0  0  0
  131.9179  142.3912  162.3287 H   0  0  0  0  0  0  0  0  0  0  0  0
  133.3292  138.3652  162.0018 H   0  0  0  0  0  0  0  0  0  0  0  0
  132.6568  136.1655  161.1227 H   0  0  0  0  0  0  0  0  0  0  0  0
  131.1116  135.7760  159.0545 H   0  0  0  0  0  0  0  0  0  0  0  0
  129.1691  130.9107  158.2524 H   0  0  0  0  0  0  0  0  0  0  0  0
  129.4600  133.3071  154.7451 H   0  0  0  0  0  0  0  0  0  0  0  0
  129.8223  132.2374  152.5596 H   0  0  0  0  0  0  0  0  0  0  0  0
  131.9290  129.0458  154.4535 H   0  0  0  0  0  0  0  0  0  0  0  0
  131.5843  130.1074  156.6458 H   0  0  0  0  0  0  0  0  0  0  0  0
  128.3874  135.8799  158.9363 H   0  0  0  0  0  0  0  0  0  0  0  0
  125.9342  135.6862  158.9973 H   0  0  0  0  0  0  0  0  0  0  0  0
  124.8207  134.7592  160.9879 H   0  0  0  0  0  0  0  0  0  0  0  0
  128.6209  134.2114  162.8540 H   0  0  0  0  0  0  0  0  0  0  0  0
  128.5609  137.1532  161.7841 H   0  0  0  0  0  0  0  0  0  0  0  0
  129.2339  139.3486  162.6730 H   0  0  0  0  0  0  0  0  0  0  0  0
  133.8800  140.6619  163.3729 H   0  0  0  0  0  0  0  0  0  0  0  0
  133.1273  139.3090  164.3227 H   0  0  0  0  0  0  0  0  0  0  0  0
  132.4013  141.1145  165.8121 H   0  0  0  0  0  0  0  0  0  0  0  0
  132.4709  142.3387  164.4722 H   0  0  0  0  0  0  0  0  0  0  0  0
  130.5333  139.9305  164.7558 H   0  0  0  0  0  0  0  0  0  0  0  0
  130.2040  141.5437  163.9878 H   0  0  0  0  0  0  0  0  0  0  0  0
  1  2  1  0
  1 36  1  0
  1 37  1  0
  1 38  1  0
  2 35  1  0
  2  3  1  0
  2 33  1  0
  3 32  1  0
  3  4  2  0
  4  5  1  0
  4 39  1  0
  5  6  2  0
  5 40  1  0
  6  7  1  0
  6 31  1  0
  7  8  1  1
  7  9  1  0
  7 24  1  0
  9 41  1  0
 10  9  1  0
 10 22  2  0
 10 11  1  0
 11 12  1  0
 11 13  1  0
 13 14  2  0
 13 42  1  0
 14 15  1  0
 14 22  1  0
 15 21  1  0
 15 16  2  0
 16 17  1  0
 16 43  1  0
 17 18  2  0
 17 44  1  0
 18 19  1  0
 18 20  1  0
 20 21  2  0
 20 45  1  0
 21 46  1  0
 22 23  1  0
 24 30  1  0
 24 25  2  0
 25 26  1  0
 25 47  1  0
 26 27  2  0
 26 48  1  0
 27 28  1  0
 27 49  1  0
 28 29  1  0
 28 30  2  0
 30 50  1  0
 31 32  2  0
 31 51  1  0
 32 52  1  0
 33 34  1  0
 33 53  1  0
 33 54  1  0
 34 35  1  0
 34 55  1  0
 34 56  1  0
 35 57  1  0
 35 58  1  0
M  CHG  1  22   1
M  END
>  <DOCK_score>  (1) 
-57.640602

>  <SMILES>  (1) 
CC1(c2ccc([C@H](Nc3[nH]cc(-c4ccc(Br)cc4)[nH+]3)c3cccc(F)c3)cc2)CCC1

$$$$
