Nc1ccc(-c2c[nH]c(N[C@H](c3ccccc3)c3ccc(C4=CCCC4)cc3)[nH+]2)cc1
     RDKit          3D

 58 62  0  0  1  0  0  0  0  0999 V2000
  131.4809  129.5473  151.2446 N   0  0  0  0  0  0  0  0  0  0  0  0
  131.1939  130.1362  152.4785 C   0  0  0  0  0  0  0  0  0  0  0  0
  130.2869  131.1876  152.5507 C   0  0  0  0  0  0  0  0  0  0  0  0
  130.0024  131.7713  153.7671 C   0  0  0  0  0  0  0  0  0  0  0  0
  130.6246  131.3066  154.9246 C   0  0  0  0  0  0  0  0  0  0  0  0
  130.3206  131.9334  156.2345 C   0  0  0  0  0  0  0  0  0  0  0  0
  129.7916  131.3075  157.3147 C   0  0  0  0  0  0  0  0  0  0  0  0
  129.6760  132.2529  158.3062 N   0  0  0  0  0  0  0  0  0  0  0  0
  129.3292  132.1083  159.2005 H   0  0  0  0  0  0  0  0  0  0  0  0
  130.1381  133.4288  157.8012 C   0  0  0  0  0  0  0  0  0  0  0  0
  130.1936  134.6328  158.4826 N   0  0  0  0  0  0  0  0  0  0  0  0
  129.7292  134.7113  159.8698 C   0  0  2  0  0  0  0  0  0  0  0  0
  130.3153  134.0316  160.4882 H   0  0  0  0  0  0  0  0  0  0  0  0
  128.2748  134.3224  159.9354 C   0  0  0  0  0  0  0  0  0  0  0  0
  127.7707  133.7209  161.0733 C   0  0  0  0  0  0  0  0  0  0  0  0
  126.4356  133.3681  161.1350 C   0  0  0  0  0  0  0  0  0  0  0  0
  125.6065  133.6085  160.0554 C   0  0  0  0  0  0  0  0  0  0  0  0
  126.1117  134.2053  158.9154 C   0  0  0  0  0  0  0  0  0  0  0  0
  127.4459  134.5620  158.8552 C   0  0  0  0  0  0  0  0  0  0  0  0
  129.8956  136.1209  160.3762 C   0  0  0  0  0  0  0  0  0  0  0  0
  131.1532  136.6968  160.4097 C   0  0  0  0  0  0  0  0  0  0  0  0
  131.3123  137.9869  160.8722 C   0  0  0  0  0  0  0  0  0  0  0  0
  130.2020  138.7109  161.3066 C   0  0  0  0  0  0  0  0  0  0  0  0
  130.3655  140.0912  161.8097 C   0  0  0  0  0  0  0  0  0  0  0  0
  129.7835  141.1550  161.2840 C   0  0  0  0  0  0  0  0  0  0  0  0
  130.1655  142.4058  162.0410 C   0  0  0  0  0  0  0  0  0  0  0  0
  131.4122  142.0052  162.8626 C   0  0  0  0  0  0  0  0  0  0  0  0
  131.2163  140.4761  162.9976 C   0  0  0  0  0  0  0  0  0  0  0  0
  128.9360  138.1241  161.2713 C   0  0  0  0  0  0  0  0  0  0  0  0
  128.7903  136.8333  160.8058 C   0  0  0  0  0  0  0  0  0  0  0  0
  130.5170  133.2352  156.5614 N   0  0  0  0  0  0  0  0  0  0  0  0
  130.8817  133.9140  155.9722 H   0  0  0  0  0  0  0  0  0  0  0  0
  131.5376  130.2559  154.8488 C   0  0  0  0  0  0  0  0  0  0  0  0
  131.8151  129.6716  153.6310 C   0  0  0  0  0  0  0  0  0  0  0  0
  131.0474  129.8713  150.4396 H   0  0  0  0  0  0  0  0  0  0  0  0
  132.1136  128.8139  151.1931 H   0  0  0  0  0  0  0  0  0  0  0  0
  129.8050  131.5473  151.6536 H   0  0  0  0  0  0  0  0  0  0  0  0
  129.2976  132.5878  153.8229 H   0  0  0  0  0  0  0  0  0  0  0  0
  129.5138  130.2661  157.3831 H   0  0  0  0  0  0  0  0  0  0  0  0
  130.5399  135.4242  158.0415 H   0  0  0  0  0  0  0  0  0  0  0  0
  128.4194  133.5298  161.9154 H   0  0  0  0  0  0  0  0  0  0  0  0
  126.0408  132.9022  162.0259 H   0  0  0  0  0  0  0  0  0  0  0  0
  124.5641  133.3305  160.1027 H   0  0  0  0  0  0  0  0  0  0  0  0
  125.4639  134.3931  158.0719 H   0  0  0  0  0  0  0  0  0  0  0  0
  127.8405  135.0282  157.9647 H   0  0  0  0  0  0  0  0  0  0  0  0
  132.0120  136.1354  160.0727 H   0  0  0  0  0  0  0  0  0  0  0  0
  132.2944  138.4353  160.8979 H   0  0  0  0  0  0  0  0  0  0  0  0
  129.1241  141.1333  160.4289 H   0  0  0  0  0  0  0  0  0  0  0  0
  130.4108  143.2094  161.3466 H   0  0  0  0  0  0  0  0  0  0  0  0
  129.3558  142.7103  162.7041 H   0  0  0  0  0  0  0  0  0  0  0  0
  132.3286  142.2391  162.3208 H   0  0  0  0  0  0  0  0  0  0  0  0
  131.4060  142.4858  163.8409 H   0  0  0  0  0  0  0  0  0  0  0  0
  130.6996  140.2379  163.9274 H   0  0  0  0  0  0  0  0  0  0  0  0
  132.1787  139.9664  162.9562 H   0  0  0  0  0  0  0  0  0  0  0  0
  128.0725  138.6790  161.6068 H   0  0  0  0  0  0  0  0  0  0  0  0
  127.8114  136.3783  160.7769 H   0  0  0  0  0  0  0  0  0  0  0  0
  132.0240  129.8969  155.7438 H   0  0  0  0  0  0  0  0  0  0  0  0
  132.5191  128.8548  153.5724 H   0  0  0  0  0  0  0  0  0  0  0  0
  1  2  1  0
  1 35  1  0
  1 36  1  0
  2 34  2  0
  2  3  1  0
  3  4  2  0
  3 37  1  0
  4  5  1  0
  4 38  1  0
  5  6  1  0
  5 33  2  0
  6 31  1  0
  6  7  2  0
  7  8  1  0
  7 39  1  0
  8  9  1  0
  8 10  1  0
 10 11  1  0
 10 31  2  0
 11 12  1  0
 11 40  1  0
 12 13  1  1
 12 14  1  0
 12 20  1  0
 14 19  1  0
 14 15  2  0
 15 16  1  0
 15 41  1  0
 16 17  2  0
 16 42  1  0
 17 18  1  0
 17 43  1  0
 18 19  2  0
 18 44  1  0
 19 45  1  0
 20 30  1  0
 20 21  2  0
 21 22  1  0
 21 46  1  0
 22 23  2  0
 22 47  1  0
 23 24  1  0
 23 29  1  0
 24 28  1  0
 24 25  2  0
 25 26  1  0
 25 48  1  0
 26 27  1  0
 26 49  1  0
 26 50  1  0
 27 28  1  0
 27 51  1  0
 27 52  1  0
 28 53  1  0
 28 54  1  0
 29 30  2  0
 29 55  1  0
 30 56  1  0
 31 32  1  0
 33 34  1  0
 33 57  1  0
 34 58  1  0
M  CHG  1  31   1
M  END
>  <DOCK_score>  (1) 
-59.174995

>  <SMILES>  (1) 
Nc1ccc(-c2c[nH]c(N[C@H](c3ccccc3)c3ccc(C4=CCCC4)cc3)[nH+]2)cc1

$$$$
