Cn1nccc1[C@H](CC=CCl)Nc1[nH]cc(-c2ccc(N)cc2)[nH+]1
     RDKit          3D

 44 46  0  0  1  0  0  0  0  0999 V2000
  126.6236  135.2376  161.0311 C   0  0  0  0  0  0  0  0  0  0  0  0
  126.7050  135.4616  159.5856 N   0  0  0  0  0  0  0  0  0  0  0  0
  125.6239  135.5016  158.6957 N   0  0  0  0  0  0  0  0  0  0  0  0
  126.0921  135.7173  157.4931 C   0  0  0  0  0  0  0  0  0  0  0  0
  127.4839  135.8265  157.5793 C   0  0  0  0  0  0  0  0  0  0  0  0
  127.8345  135.6685  158.8766 C   0  0  0  0  0  0  0  0  0  0  0  0
  129.2357  135.7098  159.4298 C   0  0  2  0  0  0  0  0  0  0  0  0
  129.3003  135.0625  160.3043 H   0  0  0  0  0  0  0  0  0  0  0  0
  129.5836  137.1448  159.8305 C   0  0  0  0  0  0  0  0  0  0  0  0
  130.9849  137.1862  160.3836 C   0  0  0  0  0  0  0  0  0  0  0  0
  131.7115  138.2696  160.2484 C   0  0  0  0  0  0  0  0  0  0  0  0
  133.3258  138.3172  160.8856 Cl  0  0  0  0  0  0  0  0  0  0  0  0
  130.1777  135.2461  158.4082 N   0  0  0  0  0  0  0  0  0  0  0  0
  130.0611  133.9685  157.8878 C   0  0  0  0  0  0  0  0  0  0  0  0
  129.5660  132.8863  158.5476 N   0  0  0  0  0  0  0  0  0  0  0  0
  129.2344  132.8710  159.4591 H   0  0  0  0  0  0  0  0  0  0  0  0
  129.6229  131.8183  157.6837 C   0  0  0  0  0  0  0  0  0  0  0  0
  130.1507  132.2793  156.5229 C   0  0  0  0  0  0  0  0  0  0  0  0
  130.4016  131.4787  155.2994 C   0  0  0  0  0  0  0  0  0  0  0  0
  129.7719  131.8169  154.1025 C   0  0  0  0  0  0  0  0  0  0  0  0
  130.0108  131.0746  152.9653 C   0  0  0  0  0  0  0  0  0  0  0  0
  130.8696  129.9830  153.0144 C   0  0  0  0  0  0  0  0  0  0  0  0
  131.1056  129.2289  151.8624 N   0  0  0  0  0  0  0  0  0  0  0  0
  131.4945  129.6407  154.2078 C   0  0  0  0  0  0  0  0  0  0  0  0
  131.2629  130.3837  155.3462 C   0  0  0  0  0  0  0  0  0  0  0  0
  130.4041  133.6031  156.6767 N   0  0  0  0  0  0  0  0  0  0  0  0
  130.7813  134.1858  155.9991 H   0  0  0  0  0  0  0  0  0  0  0  0
  126.5131  136.1946  161.5413 H   0  0  0  0  0  0  0  0  0  0  0  0
  125.7635  134.6061  161.2531 H   0  0  0  0  0  0  0  0  0  0  0  0
  127.5337  134.7458  161.3744 H   0  0  0  0  0  0  0  0  0  0  0  0
  125.5052  135.7978  156.5901 H   0  0  0  0  0  0  0  0  0  0  0  0
  128.1593  136.0055  156.7558 H   0  0  0  0  0  0  0  0  0  0  0  0
  129.5190  137.7921  158.9561 H   0  0  0  0  0  0  0  0  0  0  0  0
  128.8827  137.4899  160.5907 H   0  0  0  0  0  0  0  0  0  0  0  0
  131.3907  136.3236  160.8913 H   0  0  0  0  0  0  0  0  0  0  0  0
  131.3057  139.1322  159.7408 H   0  0  0  0  0  0  0  0  0  0  0  0
  130.8833  135.8342  158.0962 H   0  0  0  0  0  0  0  0  0  0  0  0
  129.3077  130.8061  157.8901 H   0  0  0  0  0  0  0  0  0  0  0  0
  129.1007  132.6622  154.0650 H   0  0  0  0  0  0  0  0  0  0  0  0
  129.5266  131.3389  152.0368 H   0  0  0  0  0  0  0  0  0  0  0  0
  131.7050  128.4670  151.8957 H   0  0  0  0  0  0  0  0  0  0  0  0
  130.6699  129.4670  151.0291 H   0  0  0  0  0  0  0  0  0  0  0  0
  132.1614  128.7921  154.2436 H   0  0  0  0  0  0  0  0  0  0  0  0
  131.7490  130.1176  156.2732 H   0  0  0  0  0  0  0  0  0  0  0  0
  1  2  1  0
  1 28  1  0
  1 29  1  0
  1 30  1  0
  2  6  1  0
  2  3  1  0
  3  4  2  0
  4  5  1  0
  4 31  1  0
  5  6  2  0
  5 32  1  0
  6  7  1  0
  7  8  1  1
  7  9  1  0
  7 13  1  0
  9 10  1  0
  9 33  1  0
  9 34  1  0
 10 11  2  0
 10 35  1  0
 11 12  1  0
 11 36  1  0
 13 37  1  0
 14 13  1  0
 14 26  2  0
 14 15  1  0
 15 16  1  0
 15 17  1  0
 17 18  2  0
 17 38  1  0
 18 19  1  0
 18 26  1  0
 19 25  1  0
 19 20  2  0
 20 21  1  0
 20 39  1  0
 21 22  2  0
 21 40  1  0
 22 23  1  0
 22 24  1  0
 23 41  1  0
 23 42  1  0
 24 25  2  0
 24 43  1  0
 25 44  1  0
 26 27  1  0
M  CHG  1  26   1
M  END
>  <DOCK_score>  (1) 
-56.249603

>  <SMILES>  (1) 
Cn1nccc1[C@H](CC=CCl)Nc1[nH]cc(-c2ccc(N)cc2)[nH+]1

$$$$
