c1ccc(C(Nc2[nH]cc(-c3ccc(C4CC4)cc3)[nH+]2)c2ccccc2)cc1
     RDKit          3D

 52 56  0  0  1  0  0  0  0  0999 V2000
  131.1634  140.0614  161.5224 C   0  0  0  0  0  0  0  0  0  0  0  0
  130.0902  139.4697  162.1633 C   0  0  0  0  0  0  0  0  0  0  0  0
  129.7699  138.1509  161.9000 C   0  0  0  0  0  0  0  0  0  0  0  0
  130.5224  137.4241  160.9962 C   0  0  0  0  0  0  0  0  0  0  0  0
  130.1735  135.9864  160.7094 C   0  0  0  0  0  0  0  0  0  0  0  0
  130.5606  135.6547  159.3359 N   0  0  0  0  0  0  0  0  0  0  0  0
  130.3370  134.3808  158.8423 C   0  0  0  0  0  0  0  0  0  0  0  0
  129.7683  133.3529  159.5295 N   0  0  0  0  0  0  0  0  0  0  0  0
  129.4493  133.3808  160.4450 H   0  0  0  0  0  0  0  0  0  0  0  0
  129.7292  132.2686  158.6869 C   0  0  0  0  0  0  0  0  0  0  0  0
  130.2745  132.6647  157.5102 C   0  0  0  0  0  0  0  0  0  0  0  0
  130.4431  131.8243  156.2995 C   0  0  0  0  0  0  0  0  0  0  0  0
  129.8254  132.1878  155.1041 C   0  0  0  0  0  0  0  0  0  0  0  0
  129.9908  131.4056  153.9792 C   0  0  0  0  0  0  0  0  0  0  0  0
  130.7581  130.2561  154.0399 C   0  0  0  0  0  0  0  0  0  0  0  0
  130.9294  129.4023  152.8098 C   0  0  0  0  0  0  0  0  0  0  0  0
  131.0887  130.1199  151.4684 C   0  0  0  0  0  0  0  0  0  0  0  0
  129.7849  129.3875  151.7949 C   0  0  0  0  0  0  0  0  0  0  0  0
  131.3687  129.8873  155.2250 C   0  0  0  0  0  0  0  0  0  0  0  0
  131.2153  130.6654  156.3545 C   0  0  0  0  0  0  0  0  0  0  0  0
  130.6381  133.9657  157.6361 N   0  0  0  0  0  0  0  0  0  0  0  0
  131.0541  134.5030  156.9439 H   0  0  0  0  0  0  0  0  0  0  0  0
  128.6889  135.7872  160.8749 C   0  0  0  0  0  0  0  0  0  0  0  0
  128.1736  135.4196  162.1038 C   0  0  0  0  0  0  0  0  0  0  0  0
  126.8113  135.2415  162.2567 C   0  0  0  0  0  0  0  0  0  0  0  0
  125.9654  135.4208  161.1781 C   0  0  0  0  0  0  0  0  0  0  0  0
  126.4814  135.7830  159.9479 C   0  0  0  0  0  0  0  0  0  0  0  0
  127.8431  135.9662  159.7963 C   0  0  0  0  0  0  0  0  0  0  0  0
  131.5983  138.0145  160.3600 C   0  0  0  0  0  0  0  0  0  0  0  0
  131.9154  139.3347  160.6196 C   0  0  0  0  0  0  0  0  0  0  0  0
  131.4133  141.0917  161.7291 H   0  0  0  0  0  0  0  0  0  0  0  0
  129.5025  140.0373  162.8694 H   0  0  0  0  0  0  0  0  0  0  0  0
  128.9321  137.6884  162.4002 H   0  0  0  0  0  0  0  0  0  0  0  0
  130.7070  135.3375  161.4039 H   0  0  0  0  0  0  0  0  0  0  0  0
  130.9735  136.3276  158.7725 H   0  0  0  0  0  0  0  0  0  0  0  0
  129.3353  131.2895  158.9163 H   0  0  0  0  0  0  0  0  0  0  0  0
  129.2223  133.0825  155.0571 H   0  0  0  0  0  0  0  0  0  0  0  0
  129.5168  131.6890  153.0513 H   0  0  0  0  0  0  0  0  0  0  0  0
  131.4859  128.4759  152.9545 H   0  0  0  0  0  0  0  0  0  0  0  0
  131.0694  131.2098  151.4754 H   0  0  0  0  0  0  0  0  0  0  0  0
  131.7495  129.6660  150.7299 H   0  0  0  0  0  0  0  0  0  0  0  0
  129.5885  128.4520  151.2712 H   0  0  0  0  0  0  0  0  0  0  0  0
  128.9076  129.9953  152.0170 H   0  0  0  0  0  0  0  0  0  0  0  0
  131.9671  128.9893  155.2662 H   0  0  0  0  0  0  0  0  0  0  0  0
  131.6923  130.3764  157.2794 H   0  0  0  0  0  0  0  0  0  0  0  0
  128.8349  135.2752  162.9453 H   0  0  0  0  0  0  0  0  0  0  0  0
  126.4083  134.9580  163.2178 H   0  0  0  0  0  0  0  0  0  0  0  0
  124.9016  135.2771  161.2965 H   0  0  0  0  0  0  0  0  0  0  0  0
  125.8205  135.9228  159.1051 H   0  0  0  0  0  0  0  0  0  0  0  0
  128.2461  136.2491  158.8350 H   0  0  0  0  0  0  0  0  0  0  0  0
  132.1889  137.4453  159.6574 H   0  0  0  0  0  0  0  0  0  0  0  0
  132.7537  139.7970  160.1197 H   0  0  0  0  0  0  0  0  0  0  0  0
  1 30  2  0
  1  2  1  0
  1 31  1  0
  2  3  2  0
  2 32  1  0
  3  4  1  0
  3 33  1  0
  4  5  1  0
  4 29  2  0
  5  6  1  0
  5 23  1  0
  5 34  1  0
  6 35  1  0
  7  6  1  0
  7 21  2  0
  7  8  1  0
  8  9  1  0
  8 10  1  0
 10 11  2  0
 10 36  1  0
 11 12  1  0
 11 21  1  0
 12 20  1  0
 12 13  2  0
 13 14  1  0
 13 37  1  0
 14 15  2  0
 14 38  1  0
 15 16  1  0
 15 19  1  0
 16 18  1  0
 16 17  1  0
 16 39  1  0
 17 18  1  0
 17 40  1  0
 17 41  1  0
 18 42  1  0
 18 43  1  0
 19 20  2  0
 19 44  1  0
 20 45  1  0
 21 22  1  0
 23 28  1  0
 23 24  2  0
 24 25  1  0
 24 46  1  0
 25 26  2  0
 25 47  1  0
 26 27  1  0
 26 48  1  0
 27 28  2  0
 27 49  1  0
 28 50  1  0
 29 30  1  0
 29 51  1  0
 30 52  1  0
M  CHG  1  21   1
M  END
>  <DOCK_score>  (1) 
-58.878887

>  <SMILES>  (1) 
c1ccc(C(Nc2[nH]cc(-c3ccc(C4CC4)cc3)[nH+]2)c2ccccc2)cc1

$$$$
