C[C@H](Cc1ccc(C2=CCC2)cc1)Nc1[nH]cc(-c2ccc(Br)cc2)[nH+]1
     RDKit          3D

 49 52  0  0  1  0  0  0  0  0999 V2000
  129.1216  137.1973  160.9917 C   0  0  0  0  0  0  0  0  0  0  0  0
  129.7269  135.8027  160.8194 C   0  0  2  0  0  0  0  0  0  0  0  0
  128.9793  135.0491  161.0668 H   0  0  0  0  0  0  0  0  0  0  0  0
  130.9314  135.6509  161.7506 C   0  0  0  0  0  0  0  0  0  0  0  0
  131.9651  136.6928  161.4088 C   0  0  0  0  0  0  0  0  0  0  0  0
  131.9308  137.9276  162.0318 C   0  0  0  0  0  0  0  0  0  0  0  0
  132.8745  138.8856  161.7236 C   0  0  0  0  0  0  0  0  0  0  0  0
  133.8651  138.6070  160.7812 C   0  0  0  0  0  0  0  0  0  0  0  0
  134.8790  139.6290  160.4458 C   0  0  0  0  0  0  0  0  0  0  0  0
  135.8971  139.6430  159.6138 C   0  0  0  0  0  0  0  0  0  0  0  0
  136.2999  141.0432  159.9659 C   0  0  0  0  0  0  0  0  0  0  0  0
  135.1171  141.0290  160.9254 C   0  0  0  0  0  0  0  0  0  0  0  0
  133.8909  137.3617  160.1525 C   0  0  0  0  0  0  0  0  0  0  0  0
  132.9445  136.4104  160.4734 C   0  0  0  0  0  0  0  0  0  0  0  0
  130.1580  135.6256  159.4305 N   0  0  0  0  0  0  0  0  0  0  0  0
  130.1485  134.3651  158.8582 C   0  0  0  0  0  0  0  0  0  0  0  0
  129.7572  133.2172  159.4755 N   0  0  0  0  0  0  0  0  0  0  0  0
  129.4379  133.1355  160.3879 H   0  0  0  0  0  0  0  0  0  0  0  0
  129.8981  132.1952  158.5682 C   0  0  0  0  0  0  0  0  0  0  0  0
  130.3708  132.7476  157.4236 C   0  0  0  0  0  0  0  0  0  0  0  0
  130.6764  132.0231  156.1658 C   0  0  0  0  0  0  0  0  0  0  0  0
  130.5436  132.6679  154.9374 C   0  0  0  0  0  0  0  0  0  0  0  0
  130.8352  131.9911  153.7707 C   0  0  0  0  0  0  0  0  0  0  0  0
  131.2467  130.6704  153.8182 C   0  0  0  0  0  0  0  0  0  0  0  0
  131.6363  129.7467  152.2148 Br  0  0  0  0  0  0  0  0  0  0  0  0
  131.3750  130.0238  155.0353 C   0  0  0  0  0  0  0  0  0  0  0  0
  131.0919  130.6933  156.2082 C   0  0  0  0  0  0  0  0  0  0  0  0
  130.5095  134.0813  157.6306 N   0  0  0  0  0  0  0  0  0  0  0  0
  130.8273  134.7221  156.9754 H   0  0  0  0  0  0  0  0  0  0  0  0
  128.2636  137.3055  160.3283 H   0  0  0  0  0  0  0  0  0  0  0  0
  128.8009  137.3291  162.0251 H   0  0  0  0  0  0  0  0  0  0  0  0
  129.8693  137.9509  160.7444 H   0  0  0  0  0  0  0  0  0  0  0  0
  131.3626  134.6574  161.6279 H   0  0  0  0  0  0  0  0  0  0  0  0
  130.6107  135.7827  162.7840 H   0  0  0  0  0  0  0  0  0  0  0  0
  131.1633  138.1420  162.7608 H   0  0  0  0  0  0  0  0  0  0  0  0
  132.8468  139.8490  162.2111 H   0  0  0  0  0  0  0  0  0  0  0  0
  136.2973  138.9121  158.9268 H   0  0  0  0  0  0  0  0  0  0  0  0
  137.2696  141.1109  160.4588 H   0  0  0  0  0  0  0  0  0  0  0  0
  136.1894  141.7519  159.1451 H   0  0  0  0  0  0  0  0  0  0  0  0
  134.3242  141.7267  160.6562 H   0  0  0  0  0  0  0  0  0  0  0  0
  135.4022  141.0913  161.9756 H   0  0  0  0  0  0  0  0  0  0  0  0
  134.6527  137.1414  159.4191 H   0  0  0  0  0  0  0  0  0  0  0  0
  132.9660  135.4446  159.9905 H   0  0  0  0  0  0  0  0  0  0  0  0
  130.4501  136.3915  158.9119 H   0  0  0  0  0  0  0  0  0  0  0  0
  129.6744  131.1518  158.7345 H   0  0  0  0  0  0  0  0  0  0  0  0
  130.2174  133.6966  154.8988 H   0  0  0  0  0  0  0  0  0  0  0  0
  130.7373  132.4913  152.8184 H   0  0  0  0  0  0  0  0  0  0  0  0
  131.6966  128.9932  155.0670 H   0  0  0  0  0  0  0  0  0  0  0  0
  131.1924  130.1879  157.1574 H   0  0  0  0  0  0  0  0  0  0  0  0
  1  2  1  0
  1 30  1  0
  1 31  1  0
  1 32  1  0
  2  3  1  1
  2  4  1  0
  2 15  1  0
  4  5  1  0
  4 33  1  0
  4 34  1  0
  5 14  1  0
  5  6  2  0
  6  7  1  0
  6 35  1  0
  7  8  2  0
  7 36  1  0
  8  9  1  0
  8 13  1  0
  9 12  1  0
  9 10  2  0
 10 11  1  0
 10 37  1  0
 11 12  1  0
 11 38  1  0
 11 39  1  0
 12 40  1  0
 12 41  1  0
 13 14  2  0
 13 42  1  0
 14 43  1  0
 15 44  1  0
 16 15  1  0
 16 28  2  0
 16 17  1  0
 17 18  1  0
 17 19  1  0
 19 20  2  0
 19 45  1  0
 20 21  1  0
 20 28  1  0
 21 27  1  0
 21 22  2  0
 22 23  1  0
 22 46  1  0
 23 24  2  0
 23 47  1  0
 24 25  1  0
 24 26  1  0
 26 27  2  0
 26 48  1  0
 27 49  1  0
 28 29  1  0
M  CHG  1  28   1
M  END
>  <DOCK_score>  (1) 
-56.384583

>  <SMILES>  (1) 
C[C@H](Cc1ccc(C2=CCC2)cc1)Nc1[nH]cc(-c2ccc(Br)cc2)[nH+]1

$$$$
