C/C=C/CNC(N[C@H]1CCC(=O)NC1)=[NH+]C1COc2ccccc2C1
     RDKit          3D

 52 54  0  0  1  0  0  0  0  0999 V2000
  130.0539  129.5814  158.8090 C   0  0  0  0  0  0  0  0  0  0  0  0
  129.6072  130.7926  158.0315 C   0  0  0  0  0  0  0  0  0  0  0  0
  130.3621  131.8625  157.9949 C   0  0  0  0  0  0  0  0  0  0  0  0
  129.9155  133.0737  157.2174 C   0  0  0  0  0  0  0  0  0  0  0  0
  129.1345  133.9536  158.0905 N   0  0  0  0  0  0  0  0  0  0  0  0
  129.7057  134.4794  159.2251 C   0  0  0  0  0  0  0  0  0  0  0  0
  128.9252  134.7571  160.3224 N   0  0  0  0  0  0  0  0  0  0  0  0
  127.4848  134.4928  160.2825 C   0  0  1  0  0  0  0  0  0  0  0  0
  127.1189  134.6006  159.2614 H   0  0  0  0  0  0  0  0  0  0  0  0
  127.2091  133.0689  160.7803 C   0  0  0  0  0  0  0  0  0  0  0  0
  125.7272  132.7567  160.5570 C   0  0  0  0  0  0  0  0  0  0  0  0
  124.8846  133.8813  161.0865 C   0  0  0  0  0  0  0  0  0  0  0  0
  123.7075  133.6706  161.2887 O   0  0  0  0  0  0  0  0  0  0  0  0
  125.3581  135.0986  161.3469 N   0  0  0  0  0  0  0  0  0  0  0  0
  126.7566  135.4801  161.1953 C   0  0  0  0  0  0  0  0  0  0  0  0
  130.9872  134.7146  159.2606 N   0  0  0  0  0  0  0  0  0  0  0  0
  131.4609  134.9449  158.4461 H   0  0  0  0  0  0  0  0  0  0  0  0
  131.7123  134.6315  160.5309 C   0  0  1  0  0  0  0  0  0  0  0  0
  133.1702  134.2324  160.2691 C   0  0  0  0  0  0  0  0  0  0  0  0
  133.8226  134.0589  161.5278 O   0  0  0  0  0  0  0  0  0  0  0  0
  133.6850  135.0419  162.4551 C   0  0  0  0  0  0  0  0  0  0  0  0
  134.5782  135.0788  163.5214 C   0  0  0  0  0  0  0  0  0  0  0  0
  134.4682  136.0595  164.4857 C   0  0  0  0  0  0  0  0  0  0  0  0
  133.4675  137.0095  164.3936 C   0  0  0  0  0  0  0  0  0  0  0  0
  132.5802  136.9769  163.3358 C   0  0  0  0  0  0  0  0  0  0  0  0
  132.6865  135.9958  162.3641 C   0  0  0  0  0  0  0  0  0  0  0  0
  131.7046  135.9984  161.2199 C   0  0  0  0  0  0  0  0  0  0  0  0
  129.3017  128.7971  158.7235 H   0  0  0  0  0  0  0  0  0  0  0  0
  131.0014  129.2215  158.4081 H   0  0  0  0  0  0  0  0  0  0  0  0
  130.1815  129.8497  159.8577 H   0  0  0  0  0  0  0  0  0  0  0  0
  128.6645  130.7786  157.5045 H   0  0  0  0  0  0  0  0  0  0  0  0
  131.3047  131.8766  158.5219 H   0  0  0  0  0  0  0  0  0  0  0  0
  129.2998  132.7581  156.3751 H   0  0  0  0  0  0  0  0  0  0  0  0
  130.7889  133.6107  156.8478 H   0  0  0  0  0  0  0  0  0  0  0  0
  128.2144  134.1653  157.8679 H   0  0  0  0  0  0  0  0  0  0  0  0
  129.3283  135.1280  161.1229 H   0  0  0  0  0  0  0  0  0  0  0  0
  127.4426  132.9998  161.8427 H   0  0  0  0  0  0  0  0  0  0  0  0
  127.8214  132.3598  160.2231 H   0  0  0  0  0  0  0  0  0  0  0  0
  125.5397  132.6350  159.4901 H   0  0  0  0  0  0  0  0  0  0  0  0
  125.4690  131.8346  161.0776 H   0  0  0  0  0  0  0  0  0  0  0  0
  124.7337  135.7734  161.6563 H   0  0  0  0  0  0  0  0  0  0  0  0
  127.2362  135.4871  162.1740 H   0  0  0  0  0  0  0  0  0  0  0  0
  126.8095  136.4785  160.7612 H   0  0  0  0  0  0  0  0  0  0  0  0
  131.2390  133.8914  161.1763 H   0  0  0  0  0  0  0  0  0  0  0  0
  133.2000  133.2983  159.7082 H   0  0  0  0  0  0  0  0  0  0  0  0
  133.6694  135.0176  159.7013 H   0  0  0  0  0  0  0  0  0  0  0  0
  135.3597  134.3372  163.5947 H   0  0  0  0  0  0  0  0  0  0  0  0
  135.1633  136.0852  165.3119 H   0  0  0  0  0  0  0  0  0  0  0  0
  133.3802  137.7769  165.1484 H   0  0  0  0  0  0  0  0  0  0  0  0
  131.7995  137.7198  163.2662 H   0  0  0  0  0  0  0  0  0  0  0  0
  131.9866  136.7682  160.5016 H   0  0  0  0  0  0  0  0  0  0  0  0
  130.7048  136.2070  161.6007 H   0  0  0  0  0  0  0  0  0  0  0  0
  1  2  1  0
  1 28  1  0
  1 29  1  0
  1 30  1  0
  2  3  2  0
  2 31  1  0
  3  4  1  0
  3 32  1  0
  4  5  1  0
  4 33  1  0
  4 34  1  0
  5 35  1  0
  6  5  1  0
  6  7  1  0
  6 16  2  0
  7  8  1  0
  7 36  1  0
  8  9  1  6
  8 15  1  0
  8 10  1  0
 10 11  1  0
 10 37  1  0
 10 38  1  0
 11 12  1  0
 11 39  1  0
 11 40  1  0
 12 13  2  0
 12 14  1  0
 14 15  1  0
 14 41  1  0
 15 42  1  0
 15 43  1  0
 16 17  1  0
 16 18  1  0
 18 27  1  0
 18 19  1  0
 18 44  1  1
 19 20  1  0
 19 45  1  0
 19 46  1  0
 20 21  1  0
 21 26  2  0
 21 22  1  0
 22 23  2  0
 22 47  1  0
 23 24  1  0
 23 48  1  0
 24 25  2  0
 24 49  1  0
 25 26  1  0
 25 50  1  0
 26 27  1  0
 27 51  1  0
 27 52  1  0
M  CHG  1  16   1
M  END
>  <DOCK_score>  (1) 
-46.530632

>  <SMILES>  (1) 
C/C=C/CNC(N[C@H]1CCC(=O)NC1)=[NH+]C1COc2ccccc2C1

$$$$
