FC(F)(F)c1ccc(-c2c[nH]c(N[C@@H](Cc3ccccc3)c3ccccc3)[nH+]2)cc1
     RDKit          3D

 51 54  0  0  1  0  0  0  0  0999 V2000
  131.2478  130.1079  150.9346 F   0  0  0  0  0  0  0  0  0  0  0  0
  131.7633  129.4344  152.0479 C   0  0  0  0  0  0  0  0  0  0  0  0
  133.1590  129.3915  151.9608 F   0  0  0  0  0  0  0  0  0  0  0  0
  131.2572  128.1313  152.0802 F   0  0  0  0  0  0  0  0  0  0  0  0
  131.3606  130.1611  153.3052 C   0  0  0  0  0  0  0  0  0  0  0  0
  131.7585  129.6773  154.5381 C   0  0  0  0  0  0  0  0  0  0  0  0
  131.3926  130.3388  155.6928 C   0  0  0  0  0  0  0  0  0  0  0  0
  130.6206  131.4965  155.6147 C   0  0  0  0  0  0  0  0  0  0  0  0
  130.2242  132.2118  156.8523 C   0  0  0  0  0  0  0  0  0  0  0  0
  129.4820  131.7016  157.8660 C   0  0  0  0  0  0  0  0  0  0  0  0
  129.3531  132.6957  158.8053 N   0  0  0  0  0  0  0  0  0  0  0  0
  128.8743  132.6326  159.6465 H   0  0  0  0  0  0  0  0  0  0  0  0
  130.0210  133.7853  158.3376 C   0  0  0  0  0  0  0  0  0  0  0  0
  130.1335  135.0024  158.9876 N   0  0  0  0  0  0  0  0  0  0  0  0
  129.0645  135.4580  159.8797 C   0  0  1  0  0  0  0  0  0  0  0  0
  128.9349  134.7386  160.6882 H   0  0  0  0  0  0  0  0  0  0  0  0
  129.4354  136.8220  160.4651 C   0  0  0  0  0  0  0  0  0  0  0  0
  130.7212  136.7023  161.2421 C   0  0  0  0  0  0  0  0  0  0  0  0
  130.6887  136.3919  162.5887 C   0  0  0  0  0  0  0  0  0  0  0  0
  131.8681  136.2825  163.3014 C   0  0  0  0  0  0  0  0  0  0  0  0
  133.0799  136.4826  162.6673 C   0  0  0  0  0  0  0  0  0  0  0  0
  133.1123  136.7979  161.3218 C   0  0  0  0  0  0  0  0  0  0  0  0
  131.9330  136.9033  160.6081 C   0  0  0  0  0  0  0  0  0  0  0  0
  127.7787  135.5776  159.1028 C   0  0  0  0  0  0  0  0  0  0  0  0
  126.5670  135.3710  159.7353 C   0  0  0  0  0  0  0  0  0  0  0  0
  125.3876  135.4846  159.0236 C   0  0  0  0  0  0  0  0  0  0  0  0
  125.4200  135.7966  157.6773 C   0  0  0  0  0  0  0  0  0  0  0  0
  126.6318  135.9982  157.0435 C   0  0  0  0  0  0  0  0  0  0  0  0
  127.8113  135.8883  157.7562 C   0  0  0  0  0  0  0  0  0  0  0  0
  130.5355  133.4941  157.1678 N   0  0  0  0  0  0  0  0  0  0  0  0
  131.0576  134.0981  156.6168 H   0  0  0  0  0  0  0  0  0  0  0  0
  130.2174  131.9764  154.3698 C   0  0  0  0  0  0  0  0  0  0  0  0
  130.5944  131.3104  153.2214 C   0  0  0  0  0  0  0  0  0  0  0  0
  132.3568  128.7802  154.5973 H   0  0  0  0  0  0  0  0  0  0  0  0
  131.7038  129.9597  156.6551 H   0  0  0  0  0  0  0  0  0  0  0  0
  129.0703  130.7047  157.9235 H   0  0  0  0  0  0  0  0  0  0  0  0
  130.9202  135.5536  158.8524 H   0  0  0  0  0  0  0  0  0  0  0  0
  128.6401  137.1609  161.1289 H   0  0  0  0  0  0  0  0  0  0  0  0
  129.5649  137.5413  159.6566 H   0  0  0  0  0  0  0  0  0  0  0  0
  129.7418  136.2353  163.0840 H   0  0  0  0  0  0  0  0  0  0  0  0
  131.8426  136.0404  164.3535 H   0  0  0  0  0  0  0  0  0  0  0  0
  134.0014  136.3972  163.2242 H   0  0  0  0  0  0  0  0  0  0  0  0
  134.0589  136.9585  160.8272 H   0  0  0  0  0  0  0  0  0  0  0  0
  131.9584  137.1462  159.5561 H   0  0  0  0  0  0  0  0  0  0  0  0
  126.5419  135.1237  160.7864 H   0  0  0  0  0  0  0  0  0  0  0  0
  124.4408  135.3267  159.5186 H   0  0  0  0  0  0  0  0  0  0  0  0
  124.4985  135.8827  157.1206 H   0  0  0  0  0  0  0  0  0  0  0  0
  126.6572  136.2416  155.9917 H   0  0  0  0  0  0  0  0  0  0  0  0
  128.7580  136.0457  157.2610 H   0  0  0  0  0  0  0  0  0  0  0  0
  129.6149  132.8704  154.3038 H   0  0  0  0  0  0  0  0  0  0  0  0
  130.2867  131.6839  152.2560 H   0  0  0  0  0  0  0  0  0  0  0  0
  1  2  1  0
  2  3  1  0
  2  4  1  0
  2  5  1  0
  5 33  2  0
  5  6  1  0
  6  7  2  0
  6 34  1  0
  7  8  1  0
  7 35  1  0
  8  9  1  0
  8 32  2  0
  9 30  1  0
  9 10  2  0
 10 11  1  0
 10 36  1  0
 11 12  1  0
 11 13  1  0
 13 14  1  0
 13 30  2  0
 14 15  1  0
 14 37  1  0
 15 16  1  1
 15 17  1  0
 15 24  1  0
 17 18  1  0
 17 38  1  0
 17 39  1  0
 18 23  1  0
 18 19  2  0
 19 20  1  0
 19 40  1  0
 20 21  2  0
 20 41  1  0
 21 22  1  0
 21 42  1  0
 22 23  2  0
 22 43  1  0
 23 44  1  0
 24 29  1  0
 24 25  2  0
 25 26  1  0
 25 45  1  0
 26 27  2  0
 26 46  1  0
 27 28  1  0
 27 47  1  0
 28 29  2  0
 28 48  1  0
 29 49  1  0
 30 31  1  0
 32 33  1  0
 32 50  1  0
 33 51  1  0
M  CHG  1  30   1
M  END
>  <DOCK_score>  (1) 
-60.310074

>  <SMILES>  (1) 
FC(F)(F)c1ccc(-c2c[nH]c(N[C@@H](Cc3ccccc3)c3ccccc3)[nH+]2)cc1

$$$$
