C(=Cc1c[nH]c(NC(c2ccccc2)c2ccccc2)[nH+]1)c1ccccc1
     RDKit          3D

 49 52  0  0  1  0  0  0  0  0999 V2000
  130.3596  131.8772  154.7536 C   0  0  0  0  0  0  0  0  0  0  0  0
  130.2898  131.3125  155.9707 C   0  0  0  0  0  0  0  0  0  0  0  0
  129.9690  132.1370  157.1479 C   0  0  0  0  0  0  0  0  0  0  0  0
  129.3161  131.7187  158.2668 C   0  0  0  0  0  0  0  0  0  0  0  0
  129.2334  132.8007  159.1063 N   0  0  0  0  0  0  0  0  0  0  0  0
  128.8229  132.8152  159.9851 H   0  0  0  0  0  0  0  0  0  0  0  0
  129.8283  133.8518  158.4776 C   0  0  0  0  0  0  0  0  0  0  0  0
  129.9505  135.1317  158.9896 N   0  0  0  0  0  0  0  0  0  0  0  0
  128.9386  135.6510  159.9130 C   0  0  0  0  0  0  0  0  0  0  0  0
  129.3031  137.0556  160.3195 C   0  0  0  0  0  0  0  0  0  0  0  0
  128.9294  137.5348  161.5610 C   0  0  0  0  0  0  0  0  0  0  0  0
  129.2679  138.8214  161.9359 C   0  0  0  0  0  0  0  0  0  0  0  0
  129.9710  139.6327  161.0650 C   0  0  0  0  0  0  0  0  0  0  0  0
  130.3402  139.1553  159.8213 C   0  0  0  0  0  0  0  0  0  0  0  0
  130.0062  137.8668  159.4486 C   0  0  0  0  0  0  0  0  0  0  0  0
  127.5939  135.6579  159.2326 C   0  0  0  0  0  0  0  0  0  0  0  0
  126.4417  135.4886  159.9772 C   0  0  0  0  0  0  0  0  0  0  0  0
  125.2080  135.4997  159.3537 C   0  0  0  0  0  0  0  0  0  0  0  0
  125.1272  135.6698  157.9842 C   0  0  0  0  0  0  0  0  0  0  0  0
  126.2798  135.8339  157.2389 C   0  0  0  0  0  0  0  0  0  0  0  0
  127.5131  135.8280  157.8631 C   0  0  0  0  0  0  0  0  0  0  0  0
  130.2666  133.4535  157.3090 N   0  0  0  0  0  0  0  0  0  0  0  0
  130.7291  134.0090  156.6622 H   0  0  0  0  0  0  0  0  0  0  0  0
  130.6747  131.0510  153.5750 C   0  0  0  0  0  0  0  0  0  0  0  0
  131.2996  129.8111  153.7333 C   0  0  0  0  0  0  0  0  0  0  0  0
  131.5879  129.0415  152.6257 C   0  0  0  0  0  0  0  0  0  0  0  0
  131.2681  129.4986  151.3592 C   0  0  0  0  0  0  0  0  0  0  0  0
  130.6535  130.7275  151.1943 C   0  0  0  0  0  0  0  0  0  0  0  0
  130.3551  131.5061  152.2928 C   0  0  0  0  0  0  0  0  0  0  0  0
  130.1804  132.9361  154.6387 H   0  0  0  0  0  0  0  0  0  0  0  0
  130.4690  130.2536  156.0857 H   0  0  0  0  0  0  0  0  0  0  0  0
  128.9381  130.7253  158.4579 H   0  0  0  0  0  0  0  0  0  0  0  0
  130.7062  135.6850  158.7370 H   0  0  0  0  0  0  0  0  0  0  0  0
  128.8946  135.0164  160.7981 H   0  0  0  0  0  0  0  0  0  0  0  0
  128.3761  136.9025  162.2399 H   0  0  0  0  0  0  0  0  0  0  0  0
  128.9791  139.1945  162.9074 H   0  0  0  0  0  0  0  0  0  0  0  0
  130.2316  140.6395  161.3562 H   0  0  0  0  0  0  0  0  0  0  0  0
  130.8892  139.7892  159.1407 H   0  0  0  0  0  0  0  0  0  0  0  0
  130.2943  137.4939  158.4767 H   0  0  0  0  0  0  0  0  0  0  0  0
  126.5051  135.3513  161.0465 H   0  0  0  0  0  0  0  0  0  0  0  0
  124.3075  135.3712  159.9359 H   0  0  0  0  0  0  0  0  0  0  0  0
  124.1636  135.6741  157.4966 H   0  0  0  0  0  0  0  0  0  0  0  0
  126.2167  135.9664  156.1690 H   0  0  0  0  0  0  0  0  0  0  0  0
  128.4137  135.9559  157.2808 H   0  0  0  0  0  0  0  0  0  0  0  0
  131.5533  129.4549  154.7208 H   0  0  0  0  0  0  0  0  0  0  0  0
  132.0676  128.0815  152.7467 H   0  0  0  0  0  0  0  0  0  0  0  0
  131.4996  128.8933  150.4953 H   0  0  0  0  0  0  0  0  0  0  0  0
  130.4071  131.0778  150.2028 H   0  0  0  0  0  0  0  0  0  0  0  0
  129.8761  132.4651  152.1624 H   0  0  0  0  0  0  0  0  0  0  0  0
  1  2  2  0
  1 24  1  0
  1 30  1  0
  2  3  1  0
  2 31  1  0
  3 22  1  0
  3  4  2  0
  4  5  1  0
  4 32  1  0
  5  6  1  0
  5  7  1  0
  7  8  1  0
  7 22  2  0
  8  9  1  0
  8 33  1  0
  9 10  1  0
  9 16  1  0
  9 34  1  0
 10 15  1  0
 10 11  2  0
 11 12  1  0
 11 35  1  0
 12 13  2  0
 12 36  1  0
 13 14  1  0
 13 37  1  0
 14 15  2  0
 14 38  1  0
 15 39  1  0
 16 21  1  0
 16 17  2  0
 17 18  1  0
 17 40  1  0
 18 19  2  0
 18 41  1  0
 19 20  1  0
 19 42  1  0
 20 21  2  0
 20 43  1  0
 21 44  1  0
 22 23  1  0
 24 29  1  0
 24 25  2  0
 25 26  1  0
 25 45  1  0
 26 27  2  0
 26 46  1  0
 27 28  1  0
 27 47  1  0
 28 29  2  0
 28 48  1  0
 29 49  1  0
M  CHG  1  22   1
M  END
>  <DOCK_score>  (1) 
-63.934578

>  <SMILES>  (1) 
C(=Cc1c[nH]c(NC(c2ccccc2)c2ccccc2)[nH+]1)c1ccccc1

$$$$
