Cc1[nH]c(C(=O)Nc2cccc3ccccc23)c(C[NH2+]Cc2cnn(C)c2)c1C
     RDKit          3D

 55 58  0  0  0  0  0  0  0  0999 V2000
  128.9361  134.1886  157.3472 C   0  0  0  0  0  0  0  0  0  0  0  0
  129.3368  134.6722  158.7171 C   0  0  0  0  0  0  0  0  0  0  0  0
  130.4353  135.4138  159.0011 N   0  0  0  0  0  0  0  0  0  0  0  0
  131.0925  135.7210  158.3573 H   0  0  0  0  0  0  0  0  0  0  0  0
  130.4645  135.6560  160.3559 C   0  0  0  0  0  0  0  0  0  0  0  0
  131.4875  136.4189  161.0782 C   0  0  0  0  0  0  0  0  0  0  0  0
  131.4008  136.5634  162.2836 O   0  0  0  0  0  0  0  0  0  0  0  0
  132.5236  136.9599  160.4073 N   0  0  0  0  0  0  0  0  0  0  0  0
  133.4969  137.6856  161.0945 C   0  0  0  0  0  0  0  0  0  0  0  0
  133.7958  137.3805  162.4052 C   0  0  0  0  0  0  0  0  0  0  0  0
  134.7651  138.0980  163.0994 C   0  0  0  0  0  0  0  0  0  0  0  0
  135.4431  139.1192  162.5066 C   0  0  0  0  0  0  0  0  0  0  0  0
  135.1683  139.4625  161.1720 C   0  0  0  0  0  0  0  0  0  0  0  0
  135.8527  140.5117  160.5340 C   0  0  0  0  0  0  0  0  0  0  0  0
  135.5623  140.8165  159.2398 C   0  0  0  0  0  0  0  0  0  0  0  0
  134.5941  140.1042  158.5349 C   0  0  0  0  0  0  0  0  0  0  0  0
  133.9113  139.0822  159.1209 C   0  0  0  0  0  0  0  0  0  0  0  0
  134.1841  138.7389  160.4544 C   0  0  0  0  0  0  0  0  0  0  0  0
  129.3533  135.0554  160.9092 C   0  0  0  0  0  0  0  0  0  0  0  0
  128.9648  135.0594  162.3653 C   0  0  0  0  0  0  0  0  0  0  0  0
  128.1122  136.2234  162.6413 N   0  0  0  0  0  0  0  0  0  0  0  0
  128.6179  137.0695  162.4259 H   0  0  0  0  0  0  0  0  0  0  0  0
  127.2808  136.1741  162.0717 H   0  0  0  0  0  0  0  0  0  0  0  0
  127.7336  136.2274  164.0607 C   0  0  0  0  0  0  0  0  0  0  0  0
  126.8589  137.4214  164.3440 C   0  0  0  0  0  0  0  0  0  0  0  0
  125.4639  137.4604  164.2499 C   0  0  0  0  0  0  0  0  0  0  0  0
  125.0658  138.6632  164.5761 N   0  0  0  0  0  0  0  0  0  0  0  0
  126.1971  139.4317  164.8788 N   0  0  0  0  0  0  0  0  0  0  0  0
  126.1995  140.8391  165.2856 C   0  0  0  0  0  0  0  0  0  0  0  0
  127.2846  138.6468  164.7289 C   0  0  0  0  0  0  0  0  0  0  0  0
  128.6553  134.4414  159.8647 C   0  0  0  0  0  0  0  0  0  0  0  0
  127.3725  133.6609  159.9930 C   0  0  0  0  0  0  0  0  0  0  0  0
  128.3002  134.9346  156.8702 H   0  0  0  0  0  0  0  0  0  0  0  0
  129.8287  134.0314  156.7419 H   0  0  0  0  0  0  0  0  0  0  0  0
  128.3893  133.2502  157.4388 H   0  0  0  0  0  0  0  0  0  0  0  0
  132.5926  136.8447  159.4467 H   0  0  0  0  0  0  0  0  0  0  0  0
  133.2721  136.5751  162.8987 H   0  0  0  0  0  0  0  0  0  0  0  0
  134.9828  137.8411  164.1256 H   0  0  0  0  0  0  0  0  0  0  0  0
  136.1948  139.6623  163.0603 H   0  0  0  0  0  0  0  0  0  0  0  0
  136.6056  141.0724  161.0678 H   0  0  0  0  0  0  0  0  0  0  0  0
  136.0899  141.6229  158.7519 H   0  0  0  0  0  0  0  0  0  0  0  0
  134.3825  140.3660  157.5087 H   0  0  0  0  0  0  0  0  0  0  0  0
  133.1637  138.5384  158.5626 H   0  0  0  0  0  0  0  0  0  0  0  0
  128.4185  134.1454  162.5981 H   0  0  0  0  0  0  0  0  0  0  0  0
  129.8628  135.1127  162.9808 H   0  0  0  0  0  0  0  0  0  0  0  0
  127.1872  135.3134  164.2936 H   0  0  0  0  0  0  0  0  0  0  0  0
  128.6317  136.2806  164.6762 H   0  0  0  0  0  0  0  0  0  0  0  0
  124.8255  136.6385  163.9611 H   0  0  0  0  0  0  0  0  0  0  0  0
  126.2698  141.4727  164.4016 H   0  0  0  0  0  0  0  0  0  0  0  0
  125.2773  141.0639  165.8215 H   0  0  0  0  0  0  0  0  0  0  0  0
  127.0531  141.0276  165.9366 H   0  0  0  0  0  0  0  0  0  0  0  0
  128.3108  138.9436  164.8873 H   0  0  0  0  0  0  0  0  0  0  0  0
  126.5238  134.3350  159.8775 H   0  0  0  0  0  0  0  0  0  0  0  0
  127.3350  132.8938  159.2196 H   0  0  0  0  0  0  0  0  0  0  0  0
  127.3308  133.1893  160.9748 H   0  0  0  0  0  0  0  0  0  0  0  0
  1  2  1  0
  1 33  1  0
  1 34  1  0
  1 35  1  0
  2 31  2  0
  2  3  1  0
  3  4  1  0
  3  5  1  0
  5  6  1  0
  5 19  2  0
  6  7  2  0
  6  8  1  0
  8  9  1  0
  8 36  1  0
  9 18  1  0
  9 10  2  0
 10 11  1  0
 10 37  1  0
 11 12  2  0
 11 38  1  0
 12 13  1  0
 12 39  1  0
 13 18  2  0
 13 14  1  0
 14 15  2  0
 14 40  1  0
 15 16  1  0
 15 41  1  0
 16 17  2  0
 16 42  1  0
 17 18  1  0
 17 43  1  0
 19 20  1  0
 19 31  1  0
 20 21  1  0
 20 44  1  0
 20 45  1  0
 21 22  1  0
 21 23  1  0
 21 24  1  0
 24 25  1  0
 24 46  1  0
 24 47  1  0
 25 30  2  0
 25 26  1  0
 26 27  2  0
 26 48  1  0
 27 28  1  0
 28 29  1  0
 28 30  1  0
 29 49  1  0
 29 50  1  0
 29 51  1  0
 30 52  1  0
 31 32  1  0
 32 53  1  0
 32 54  1  0
 32 55  1  0
M  CHG  1  21   1
M  END
>  <DOCK_score>  (1) 
-49.98497

>  <SMILES>  (1) 
Cc1[nH]c(C(=O)Nc2cccc3ccccc23)c(C[NH2+]Cc2cnn(C)c2)c1C

$$$$
