O=C1CC[C@H](NC(NC2CCC2)=[NH+][C@H]2COc3cc(-c4ccc(Cl)cc4)ccc3C2)CN1
     RDKit          3D

 62 66  0  0  1  0  0  0  0  0999 V2000
  123.8533  133.9422  161.7822 O   0  0  0  0  0  0  0  0  0  0  0  0
  125.0150  134.1420  161.4966 C   0  0  0  0  0  0  0  0  0  0  0  0
  125.8592  132.9680  161.0912 C   0  0  0  0  0  0  0  0  0  0  0  0
  127.3422  133.3316  161.1975 C   0  0  0  0  0  0  0  0  0  0  0  0
  127.5640  134.6745  160.4910 C   0  0  2  0  0  0  0  0  0  0  0  0
  127.1530  134.6294  159.4825 H   0  0  0  0  0  0  0  0  0  0  0  0
  128.9986  134.9641  160.4248 N   0  0  0  0  0  0  0  0  0  0  0  0
  129.7367  134.5381  159.3460 C   0  0  0  0  0  0  0  0  0  0  0  0
  129.1286  133.8403  158.3295 N   0  0  0  0  0  0  0  0  0  0  0  0
  129.9153  133.3862  157.1799 C   0  0  0  0  0  0  0  0  0  0  0  0
  129.2830  132.2021  156.4299 C   0  0  0  0  0  0  0  0  0  0  0  0
  130.7042  131.6305  156.2947 C   0  0  0  0  0  0  0  0  0  0  0  0
  131.0625  132.4337  157.5561 C   0  0  0  0  0  0  0  0  0  0  0  0
  131.0131  134.7956  159.2872 N   0  0  0  0  0  0  0  0  0  0  0  0
  131.4458  134.9090  158.4264 H   0  0  0  0  0  0  0  0  0  0  0  0
  131.7943  134.9139  160.5210 C   0  0  1  0  0  0  0  0  0  0  0  0
  131.1456  134.7572  161.3828 H   0  0  0  0  0  0  0  0  0  0  0  0
  132.9192  133.8708  160.5228 C   0  0  0  0  0  0  0  0  0  0  0  0
  133.5948  133.9402  161.7790 O   0  0  0  0  0  0  0  0  0  0  0  0
  133.9848  135.1635  162.2238 C   0  0  0  0  0  0  0  0  0  0  0  0
  134.9371  135.2263  163.2338 C   0  0  0  0  0  0  0  0  0  0  0  0
  135.3600  136.4592  163.7186 C   0  0  0  0  0  0  0  0  0  0  0  0
  136.3769  136.5272  164.7971 C   0  0  0  0  0  0  0  0  0  0  0  0
  136.3727  137.5922  165.6956 C   0  0  0  0  0  0  0  0  0  0  0  0
  137.3174  137.6483  166.6998 C   0  0  0  0  0  0  0  0  0  0  0  0
  138.2745  136.6541  166.8093 C   0  0  0  0  0  0  0  0  0  0  0  0
  139.4642  136.7335  168.0712 Cl  0  0  0  0  0  0  0  0  0  0  0  0
  138.2863  135.5969  165.9156 C   0  0  0  0  0  0  0  0  0  0  0  0
  137.3425  135.5290  164.9112 C   0  0  0  0  0  0  0  0  0  0  0  0
  134.8237  137.6310  163.1872 C   0  0  0  0  0  0  0  0  0  0  0  0
  133.8801  137.5609  162.1845 C   0  0  0  0  0  0  0  0  0  0  0  0
  133.4593  136.3324  161.6992 C   0  0  0  0  0  0  0  0  0  0  0  0
  132.4286  136.3047  160.5986 C   0  0  0  0  0  0  0  0  0  0  0  0
  126.8551  135.7723  161.2853 C   0  0  0  0  0  0  0  0  0  0  0  0
  125.4742  135.3924  161.5590 N   0  0  0  0  0  0  0  0  0  0  0  0
  125.6267  132.6930  160.0624 H   0  0  0  0  0  0  0  0  0  0  0  0
  125.6452  132.1244  161.7473 H   0  0  0  0  0  0  0  0  0  0  0  0
  127.9445  132.5604  160.7171 H   0  0  0  0  0  0  0  0  0  0  0  0
  127.6246  133.4179  162.2468 H   0  0  0  0  0  0  0  0  0  0  0  0
  129.4275  135.4563  161.1421 H   0  0  0  0  0  0  0  0  0  0  0  0
  128.1788  133.6486  158.3732 H   0  0  0  0  0  0  0  0  0  0  0  0
  130.2226  134.2039  156.5279 H   0  0  0  0  0  0  0  0  0  0  0  0
  128.6249  131.5936  157.0500 H   0  0  0  0  0  0  0  0  0  0  0  0
  128.8315  132.4795  155.4773 H   0  0  0  0  0  0  0  0  0  0  0  0
  131.2270  131.9674  155.3995 H   0  0  0  0  0  0  0  0  0  0  0  0
  130.7559  130.5509  156.4352 H   0  0  0  0  0  0  0  0  0  0  0  0
  132.0476  132.8982  157.5129 H   0  0  0  0  0  0  0  0  0  0  0  0
  130.8915  131.8898  158.4850 H   0  0  0  0  0  0  0  0  0  0  0  0
  132.4968  132.8751  160.3874 H   0  0  0  0  0  0  0  0  0  0  0  0
  133.6203  134.0855  159.7162 H   0  0  0  0  0  0  0  0  0  0  0  0
  135.3498  134.3159  163.6428 H   0  0  0  0  0  0  0  0  0  0  0  0
  135.6288  138.3703  165.6086 H   0  0  0  0  0  0  0  0  0  0  0  0
  137.3125  138.4714  167.3992 H   0  0  0  0  0  0  0  0  0  0  0  0
  139.0351  134.8237  166.0049 H   0  0  0  0  0  0  0  0  0  0  0  0
  137.3520  134.7036  164.2149 H   0  0  0  0  0  0  0  0  0  0  0  0
  135.1470  138.5917  163.5598 H   0  0  0  0  0  0  0  0  0  0  0  0
  133.4658  138.4698  161.7738 H   0  0  0  0  0  0  0  0  0  0  0  0
  132.9070  136.5388  159.6476 H   0  0  0  0  0  0  0  0  0  0  0  0
  131.6557  137.0446  160.8069 H   0  0  0  0  0  0  0  0  0  0  0  0
  127.3774  135.9284  162.2293 H   0  0  0  0  0  0  0  0  0  0  0  0
  126.8699  136.6988  160.7114 H   0  0  0  0  0  0  0  0  0  0  0  0
  124.8496  136.0946  161.7992 H   0  0  0  0  0  0  0  0  0  0  0  0
  1  2  2  0
  2 35  1  0
  2  3  1  0
  3  4  1  0
  3 36  1  0
  3 37  1  0
  4  5  1  0
  4 38  1  0
  4 39  1  0
  5  6  1  6
  5  7  1  0
  5 34  1  0
  7 40  1  0
  8  7  1  0
  8  9  1  0
  8 14  2  0
  9 10  1  0
  9 41  1  0
 10 13  1  0
 10 11  1  0
 10 42  1  0
 11 12  1  0
 11 43  1  0
 11 44  1  0
 12 13  1  0
 12 45  1  0
 12 46  1  0
 13 47  1  0
 13 48  1  0
 14 15  1  0
 14 16  1  0
 16 17  1  1
 16 33  1  0
 16 18  1  0
 18 19  1  0
 18 49  1  0
 18 50  1  0
 19 20  1  0
 20 32  2  0
 20 21  1  0
 21 22  2  0
 21 51  1  0
 22 23  1  0
 22 30  1  0
 23 29  1  0
 23 24  2  0
 24 25  1  0
 24 52  1  0
 25 26  2  0
 25 53  1  0
 26 27  1  0
 26 28  1  0
 28 29  2  0
 28 54  1  0
 29 55  1  0
 30 31  2  0
 30 56  1  0
 31 32  1  0
 31 57  1  0
 32 33  1  0
 33 58  1  0
 33 59  1  0
 34 35  1  0
 34 60  1  0
 34 61  1  0
 35 62  1  0
M  CHG  1  14   1
M  END
>  <DOCK_score>  (1) 
-55.102505

>  <SMILES>  (1) 
O=C1CC[C@H](NC(NC2CCC2)=[NH+][C@H]2COc3cc(-c4ccc(Cl)cc4)ccc3C2)CN1

$$$$
