Cc1nn(C)cc1N[C@H]1C[C@@H](O)C[C@H]1NC1=[NH+]C[C@@H](C)N1
     RDKit          3D

 46 48  0  0  1  0  0  0  0  0999 V2000
  133.0200  138.9672  159.0779 C   0  0  0  0  0  0  0  0  0  0  0  0
  133.1540  137.9854  160.2132 C   0  0  0  0  0  0  0  0  0  0  0  0
  134.2652  137.6776  160.8321 N   0  0  0  0  0  0  0  0  0  0  0  0
  133.9711  136.7314  161.8223 N   0  0  0  0  0  0  0  0  0  0  0  0
  134.9317  136.1212  162.7449 C   0  0  0  0  0  0  0  0  0  0  0  0
  132.6346  136.4842  161.7791 C   0  0  0  0  0  0  0  0  0  0  0  0
  132.1096  137.2462  160.7865 C   0  0  0  0  0  0  0  0  0  0  0  0
  130.7551  137.2910  160.4042 N   0  0  0  0  0  0  0  0  0  0  0  0
  129.7703  136.4573  161.0979 C   0  0  1  0  0  0  0  0  0  0  0  0
  129.9741  136.4387  162.1686 H   0  0  0  0  0  0  0  0  0  0  0  0
  128.3344  136.9718  160.8284 C   0  0  0  0  0  0  0  0  0  0  0  0
  127.4674  135.7135  161.0816 C   0  0  1  0  0  0  0  0  0  0  0  0
  127.2991  135.5748  162.1495 H   0  0  0  0  0  0  0  0  0  0  0  0
  126.2226  135.8160  160.3873 O   0  0  0  0  0  0  0  0  0  0  0  0
  128.3093  134.5531  160.5121 C   0  0  0  0  0  0  0  0  0  0  0  0
  129.7735  135.0261  160.5227 C   0  0  1  0  0  0  0  0  0  0  0  0
  130.3737  134.3711  161.1543 H   0  0  0  0  0  0  0  0  0  0  0  0
  130.3077  135.0346  159.1585 N   0  0  0  0  0  0  0  0  0  0  0  0
  130.4028  133.8602  158.4501 C   0  0  0  0  0  0  0  0  0  0  0  0
  130.8601  133.8045  157.2419 N   0  0  0  0  0  0  0  0  0  0  0  0
  131.1727  134.5670  156.7303 H   0  0  0  0  0  0  0  0  0  0  0  0
  130.8397  132.4171  156.7579 C   0  0  0  0  0  0  0  0  0  0  0  0
  130.2549  131.6182  157.9396 C   0  0  1  0  0  0  0  0  0  0  0  0
  129.3195  131.1373  157.6534 H   0  0  0  0  0  0  0  0  0  0  0  0
  131.2601  130.5816  158.4452 C   0  0  0  0  0  0  0  0  0  0  0  0
  130.0163  132.6516  158.9610 N   0  0  0  0  0  0  0  0  0  0  0  0
  132.8217  139.9614  159.4785 H   0  0  0  0  0  0  0  0  0  0  0  0
  133.9453  138.9855  158.5020 H   0  0  0  0  0  0  0  0  0  0  0  0
  132.1958  138.6650  158.4315 H   0  0  0  0  0  0  0  0  0  0  0  0
  135.0037  136.7276  163.6478 H   0  0  0  0  0  0  0  0  0  0  0  0
  134.5966  135.1176  163.0069 H   0  0  0  0  0  0  0  0  0  0  0  0
  135.9094  136.0645  162.2663 H   0  0  0  0  0  0  0  0  0  0  0  0
  132.0905  135.8038  162.4174 H   0  0  0  0  0  0  0  0  0  0  0  0
  130.4742  137.8739  159.6815 H   0  0  0  0  0  0  0  0  0  0  0  0
  128.0722  137.7681  161.5249 H   0  0  0  0  0  0  0  0  0  0  0  0
  128.2324  137.3100  159.7972 H   0  0  0  0  0  0  0  0  0  0  0  0
  125.6527  136.5298  160.7046 H   0  0  0  0  0  0  0  0  0  0  0  0
  127.9962  134.3300  159.4923 H   0  0  0  0  0  0  0  0  0  0  0  0
  128.1981  133.6685  161.1393 H   0  0  0  0  0  0  0  0  0  0  0  0
  130.5945  135.8688  158.7551 H   0  0  0  0  0  0  0  0  0  0  0  0
  131.8485  132.0747  156.5272 H   0  0  0  0  0  0  0  0  0  0  0  0
  130.1974  132.3286  155.8817 H   0  0  0  0  0  0  0  0  0  0  0  0
  130.8584  130.0868  159.3294 H   0  0  0  0  0  0  0  0  0  0  0  0
  131.4419  129.8414  157.6658 H   0  0  0  0  0  0  0  0  0  0  0  0
  132.1965  131.0777  158.7003 H   0  0  0  0  0  0  0  0  0  0  0  0
  129.6478  132.5010  159.8456 H   0  0  0  0  0  0  0  0  0  0  0  0
  1  2  1  0
  1 27  1  0
  1 28  1  0
  1 29  1  0
  2  7  1  0
  2  3  2  0
  3  4  1  0
  4  5  1  0
  4  6  1  0
  5 30  1  0
  5 31  1  0
  5 32  1  0
  6  7  2  0
  6 33  1  0
  7  8  1  0
  8  9  1  0
  8 34  1  0
  9 10  1  1
  9 16  1  0
  9 11  1  0
 11 12  1  0
 11 35  1  0
 11 36  1  0
 12 13  1  1
 12 14  1  0
 12 15  1  0
 14 37  1  0
 15 16  1  0
 15 38  1  0
 15 39  1  0
 16 17  1  1
 16 18  1  0
 18 40  1  0
 19 18  1  0
 19 26  1  0
 19 20  2  0
 20 21  1  0
 20 22  1  0
 22 23  1  0
 22 41  1  0
 22 42  1  0
 23 24  1  6
 23 25  1  0
 23 26  1  0
 25 43  1  0
 25 44  1  0
 25 45  1  0
 26 46  1  0
M  CHG  1  20   1
M  END
>  <DOCK_score>  (1) 
-42.472916

>  <SMILES>  (1) 
Cc1nn(C)cc1N[C@H]1C[C@@H](O)C[C@H]1NC1=[NH+]C[C@@H](C)N1

$$$$
