COc1ccc(C)c(CNC(N[C@H]2C[C@@H](O)C2)=[NH+]Cc2cccs2)c1
     RDKit          3D

 51 53  0  0  1  0  0  0  0  0999 V2000
  134.9125  135.8757  162.4288 C   0  0  0  0  0  0  0  0  0  0  0  0
  134.8941  137.2052  161.9053 O   0  0  0  0  0  0  0  0  0  0  0  0
  133.7283  137.6358  161.3555 C   0  0  0  0  0  0  0  0  0  0  0  0
  133.6382  138.9180  160.8330 C   0  0  0  0  0  0  0  0  0  0  0  0
  132.4520  139.3534  160.2753 C   0  0  0  0  0  0  0  0  0  0  0  0
  131.3546  138.5129  160.2377 C   0  0  0  0  0  0  0  0  0  0  0  0
  130.0615  138.9907  159.6290 C   0  0  0  0  0  0  0  0  0  0  0  0
  131.4419  137.2347  160.7572 C   0  0  0  0  0  0  0  0  0  0  0  0
  130.2440  136.3212  160.7146 C   0  0  0  0  0  0  0  0  0  0  0  0
  130.2607  135.5518  159.4680 N   0  0  0  0  0  0  0  0  0  0  0  0
  129.2599  134.6465  159.2055 C   0  0  0  0  0  0  0  0  0  0  0  0
  128.2435  134.4631  160.1130 N   0  0  0  0  0  0  0  0  0  0  0  0
  127.1770  133.4983  159.8333 C   0  0  1  0  0  0  0  0  0  0  0  0
  127.5127  132.6624  159.2197 H   0  0  0  0  0  0  0  0  0  0  0  0
  126.3900  133.0704  161.0833 C   0  0  0  0  0  0  0  0  0  0  0  0
  125.4575  134.2618  160.8077 C   0  0  1  0  0  0  0  0  0  0  0  0
  124.4044  134.0412  160.9816 H   0  0  0  0  0  0  0  0  0  0  0  0
  125.8798  135.4773  161.4292 O   0  0  0  0  0  0  0  0  0  0  0  0
  125.8756  134.1466  159.3323 C   0  0  0  0  0  0  0  0  0  0  0  0
  129.2747  133.9621  158.0965 N   0  0  0  0  0  0  0  0  0  0  0  0
  128.4409  133.6762  157.6917 H   0  0  0  0  0  0  0  0  0  0  0  0
  130.5509  133.6246  157.4610 C   0  0  0  0  0  0  0  0  0  0  0  0
  130.6856  132.1264  157.3692 C   0  0  0  0  0  0  0  0  0  0  0  0
  131.2419  131.3460  158.2970 C   0  0  0  0  0  0  0  0  0  0  0  0
  131.2505  129.9953  157.9944 C   0  0  0  0  0  0  0  0  0  0  0  0
  130.7094  129.6798  156.8167 C   0  0  0  0  0  0  0  0  0  0  0  0
  130.1404  131.1403  156.0187 S   0  0  0  0  0  0  0  0  0  0  0  0
  132.6248  136.7960  161.3205 C   0  0  0  0  0  0  0  0  0  0  0  0
  134.6860  135.1681  161.6312 H   0  0  0  0  0  0  0  0  0  0  0  0
  135.8999  135.6594  162.8367 H   0  0  0  0  0  0  0  0  0  0  0  0
  134.1657  135.7854  163.2175 H   0  0  0  0  0  0  0  0  0  0  0  0
  134.4948  139.5753  160.8628 H   0  0  0  0  0  0  0  0  0  0  0  0
  132.3814  140.3514  159.8684 H   0  0  0  0  0  0  0  0  0  0  0  0
  129.4481  139.4581  160.3994 H   0  0  0  0  0  0  0  0  0  0  0  0
  130.2755  139.7169  158.8447 H   0  0  0  0  0  0  0  0  0  0  0  0
  129.5254  138.1428  159.2025 H   0  0  0  0  0  0  0  0  0  0  0  0
  130.2776  135.6384  161.5635 H   0  0  0  0  0  0  0  0  0  0  0  0
  129.3318  136.9159  160.7624 H   0  0  0  0  0  0  0  0  0  0  0  0
  130.9778  135.6813  158.8277 H   0  0  0  0  0  0  0  0  0  0  0  0
  128.2324  134.9725  160.9384 H   0  0  0  0  0  0  0  0  0  0  0  0
  125.9020  132.1012  160.9814 H   0  0  0  0  0  0  0  0  0  0  0  0
  126.9568  133.1648  162.0096 H   0  0  0  0  0  0  0  0  0  0  0  0
  125.5299  136.2754  161.0101 H   0  0  0  0  0  0  0  0  0  0  0  0
  126.0272  135.1098  158.8450 H   0  0  0  0  0  0  0  0  0  0  0  0
  125.2477  133.4720  158.7505 H   0  0  0  0  0  0  0  0  0  0  0  0
  130.5831  134.0543  156.4598 H   0  0  0  0  0  0  0  0  0  0  0  0
  131.3707  134.0273  158.0559 H   0  0  0  0  0  0  0  0  0  0  0  0
  131.6521  131.7382  159.2160 H   0  0  0  0  0  0  0  0  0  0  0  0
  131.6673  129.2536  158.6595 H   0  0  0  0  0  0  0  0  0  0  0  0
  130.6321  128.6804  156.4148 H   0  0  0  0  0  0  0  0  0  0  0  0
  132.6913  135.7989  161.7301 H   0  0  0  0  0  0  0  0  0  0  0  0
  1  2  1  0
  1 29  1  0
  1 30  1  0
  1 31  1  0
  2  3  1  0
  3 28  2  0
  3  4  1  0
  4  5  2  0
  4 32  1  0
  5  6  1  0
  5 33  1  0
  6  7  1  0
  6  8  2  0
  7 34  1  0
  7 35  1  0
  7 36  1  0
  8  9  1  0
  8 28  1  0
  9 10  1  0
  9 37  1  0
  9 38  1  0
 10 39  1  0
 11 10  1  0
 11 12  1  0
 11 20  2  0
 12 13  1  0
 12 40  1  0
 13 14  1  6
 13 19  1  0
 13 15  1  0
 15 16  1  0
 15 41  1  0
 15 42  1  0
 16 17  1  6
 16 18  1  0
 16 19  1  0
 18 43  1  0
 19 44  1  0
 19 45  1  0
 20 21  1  0
 20 22  1  0
 22 23  1  0
 22 46  1  0
 22 47  1  0
 23 27  1  0
 23 24  2  0
 24 25  1  0
 24 48  1  0
 25 26  2  0
 25 49  1  0
 26 27  1  0
 26 50  1  0
 28 51  1  0
M  CHG  1  20   1
M  END
>  <DOCK_score>  (1) 
-46.848759

>  <SMILES>  (1) 
COc1ccc(C)c(CNC(N[C@H]2C[C@@H](O)C2)=[NH+]Cc2cccs2)c1

$$$$
