O=C1CC(Nc2ccc(Nc3[nH]cc(-c4cccnc4)[nH+]3)cc2)CC(=O)N1
     RDKit          3D

 46 49  0  0  1  0  0  0  0  0999 V2000
  126.9544  139.9940  165.5018 O   0  0  0  0  0  0  0  0  0  0  0  0
  126.7686  138.8234  165.2478 C   0  0  0  0  0  0  0  0  0  0  0  0
  126.3892  138.4230  163.8466 C   0  0  0  0  0  0  0  0  0  0  0  0
  126.9000  137.0045  163.5728 C   0  0  0  0  0  0  0  0  0  0  0  0
  126.4412  136.5623  162.2537 N   0  0  0  0  0  0  0  0  0  0  0  0
  127.3728  136.2175  161.2680 C   0  0  0  0  0  0  0  0  0  0  0  0
  128.6187  136.8309  161.2452 C   0  0  0  0  0  0  0  0  0  0  0  0
  129.5378  136.4911  160.2724 C   0  0  0  0  0  0  0  0  0  0  0  0
  129.2144  135.5399  159.3136 C   0  0  0  0  0  0  0  0  0  0  0  0
  130.1445  135.1995  158.3233 N   0  0  0  0  0  0  0  0  0  0  0  0
  130.1461  133.9239  157.7838 C   0  0  0  0  0  0  0  0  0  0  0  0
  129.7628  132.7889  158.4305 N   0  0  0  0  0  0  0  0  0  0  0  0
  129.4431  132.7284  159.3442 H   0  0  0  0  0  0  0  0  0  0  0  0
  129.9131  131.7454  157.5503 C   0  0  0  0  0  0  0  0  0  0  0  0
  130.3834  132.2718  156.3922 C   0  0  0  0  0  0  0  0  0  0  0  0
  130.6970  131.5170  155.1543 C   0  0  0  0  0  0  0  0  0  0  0  0
  130.5637  132.1214  153.9007 C   0  0  0  0  0  0  0  0  0  0  0  0
  130.8736  131.3762  152.7765 C   0  0  0  0  0  0  0  0  0  0  0  0
  131.2904  130.0659  152.9270 C   0  0  0  0  0  0  0  0  0  0  0  0
  131.4019  129.5208  154.1228 N   0  0  0  0  0  0  0  0  0  0  0  0
  131.1237  130.1923  155.2217 C   0  0  0  0  0  0  0  0  0  0  0  0
  130.5116  133.6110  156.5645 N   0  0  0  0  0  0  0  0  0  0  0  0
  130.8256  134.2370  155.8932 H   0  0  0  0  0  0  0  0  0  0  0  0
  127.9706  134.9227  159.3396 C   0  0  0  0  0  0  0  0  0  0  0  0
  127.0515  135.2625  160.3124 C   0  0  0  0  0  0  0  0  0  0  0  0
  126.3436  136.0689  164.6516 C   0  0  0  0  0  0  0  0  0  0  0  0
  126.7261  136.5971  166.0088 C   0  0  0  0  0  0  0  0  0  0  0  0
  126.8747  135.8213  166.9284 O   0  0  0  0  0  0  0  0  0  0  0  0
  126.9056  137.9096  166.2202 N   0  0  0  0  0  0  0  0  0  0  0  0
  126.8390  139.1158  163.1353 H   0  0  0  0  0  0  0  0  0  0  0  0
  125.3043  138.4460  163.7425 H   0  0  0  0  0  0  0  0  0  0  0  0
  127.9895  136.9955  163.6033 H   0  0  0  0  0  0  0  0  0  0  0  0
  125.4914  136.5085  162.0636 H   0  0  0  0  0  0  0  0  0  0  0  0
  128.8684  137.5739  161.9881 H   0  0  0  0  0  0  0  0  0  0  0  0
  130.5064  136.9684  160.2544 H   0  0  0  0  0  0  0  0  0  0  0  0
  130.7876  135.8572  158.0154 H   0  0  0  0  0  0  0  0  0  0  0  0
  129.6979  130.7049  157.7436 H   0  0  0  0  0  0  0  0  0  0  0  0
  130.2315  133.1453  153.8122 H   0  0  0  0  0  0  0  0  0  0  0  0
  130.7865  131.8116  151.7920 H   0  0  0  0  0  0  0  0  0  0  0  0
  131.5288  129.4800  152.0515 H   0  0  0  0  0  0  0  0  0  0  0  0
  131.2274  129.7116  156.1831 H   0  0  0  0  0  0  0  0  0  0  0  0
  127.7206  134.1802  158.5962 H   0  0  0  0  0  0  0  0  0  0  0  0
  126.0829  134.7852  160.3303 H   0  0  0  0  0  0  0  0  0  0  0  0
  125.2577  136.0245  164.5704 H   0  0  0  0  0  0  0  0  0  0  0  0
  126.7610  135.0708  164.5185 H   0  0  0  0  0  0  0  0  0  0  0  0
  127.1435  138.2097  167.1114 H   0  0  0  0  0  0  0  0  0  0  0  0
  1  2  2  0
  2 29  1  0
  2  3  1  0
  3  4  1  0
  3 30  1  0
  3 31  1  0
  4  5  1  0
  4 26  1  0
  4 32  1  0
  5  6  1  0
  5 33  1  0
  6 25  1  0
  6  7  2  0
  7  8  1  0
  7 34  1  0
  8  9  2  0
  8 35  1  0
  9 10  1  0
  9 24  1  0
 10 36  1  0
 11 10  1  0
 11 22  2  0
 11 12  1  0
 12 13  1  0
 12 14  1  0
 14 15  2  0
 14 37  1  0
 15 16  1  0
 15 22  1  0
 16 21  1  0
 16 17  2  0
 17 18  1  0
 17 38  1  0
 18 19  2  0
 18 39  1  0
 19 20  1  0
 19 40  1  0
 20 21  2  0
 21 41  1  0
 22 23  1  0
 24 25  2  0
 24 42  1  0
 25 43  1  0
 26 27  1  0
 26 44  1  0
 26 45  1  0
 27 28  2  0
 27 29  1  0
 29 46  1  0
M  CHG  1  22   1
M  END
>  <DOCK_score>  (1) 
-51.290466

>  <SMILES>  (1) 
O=C1CC(Nc2ccc(Nc3[nH]cc(-c4cccnc4)[nH+]3)cc2)CC(=O)N1

$$$$
