CC(C)NC(N[C@H]1CC[C@H](NC(=O)N2C[C@H]3CC[C@H]3C2)CC1)=[NH+]C1CNC(=O)NC1
     RDKit          3D

 68 71  0  0  1  0  0  0  0  0999 V2000
  129.2085  133.3092  156.2471 C   0  0  0  0  0  0  0  0  0  0  0  0
  130.0716  133.6636  157.4595 C   0  0  0  0  0  0  0  0  0  0  0  0
  131.1078  132.5612  157.6874 C   0  0  0  0  0  0  0  0  0  0  0  0
  129.2206  133.7867  158.6456 N   0  0  0  0  0  0  0  0  0  0  0  0
  129.5737  134.6463  159.6588 C   0  0  0  0  0  0  0  0  0  0  0  0
  130.7255  135.3903  159.5590 N   0  0  0  0  0  0  0  0  0  0  0  0
  131.4590  135.7708  160.7688 C   0  0  1  0  0  0  0  0  0  0  0  0
  130.8136  136.3694  161.4117 H   0  0  0  0  0  0  0  0  0  0  0  0
  131.8969  134.5102  161.5172 C   0  0  0  0  0  0  0  0  0  0  0  0
  132.6630  134.9076  162.7806 C   0  0  0  0  0  0  0  0  0  0  0  0
  133.8968  135.7253  162.3931 C   0  0  2  0  0  0  0  0  0  0  0  0
  134.5420  135.1267  161.7500 H   0  0  0  0  0  0  0  0  0  0  0  0
  134.6301  136.1058  163.6029 N   0  0  0  0  0  0  0  0  0  0  0  0
  135.5954  135.2994  164.0874 C   0  0  0  0  0  0  0  0  0  0  0  0
  135.8575  134.2563  163.5203 O   0  0  0  0  0  0  0  0  0  0  0  0
  136.2700  135.6494  165.2003 N   0  0  0  0  0  0  0  0  0  0  0  0
  137.3337  134.8606  165.8303 C   0  0  0  0  0  0  0  0  0  0  0  0
  137.8467  135.6444  167.0496 C   0  0  1  0  0  0  0  0  0  0  0  0
  137.6584  135.1820  168.0185 H   0  0  0  0  0  0  0  0  0  0  0  0
  139.2498  136.2406  166.8472 C   0  0  0  0  0  0  0  0  0  0  0  0
  138.5778  137.3634  166.0406 C   0  0  0  0  0  0  0  0  0  0  0  0
  137.3019  137.0801  166.8474 C   0  0  1  0  0  0  0  0  0  0  0  0
  137.1457  137.6758  167.7467 H   0  0  0  0  0  0  0  0  0  0  0  0
  136.0508  136.8761  165.9750 C   0  0  0  0  0  0  0  0  0  0  0  0
  133.4587  136.9858  161.6446 C   0  0  0  0  0  0  0  0  0  0  0  0
  132.6927  136.5885  160.3812 C   0  0  0  0  0  0  0  0  0  0  0  0
  128.8164  134.7558  160.7140 N   0  0  0  0  0  0  0  0  0  0  0  0
  129.2098  134.9780  161.5724 H   0  0  0  0  0  0  0  0  0  0  0  0
  127.3712  134.5432  160.6037 C   0  0  0  0  0  0  0  0  0  0  0  0
  126.6457  135.3788  161.6638 C   0  0  0  0  0  0  0  0  0  0  0  0
  125.2149  135.0723  161.6204 N   0  0  0  0  0  0  0  0  0  0  0  0
  124.7707  133.8690  161.2281 C   0  0  0  0  0  0  0  0  0  0  0  0
  123.5724  133.6632  161.2201 O   0  0  0  0  0  0  0  0  0  0  0  0
  125.5962  132.8835  160.8449 N   0  0  0  0  0  0  0  0  0  0  0  0
  127.0488  133.0644  160.8436 C   0  0  0  0  0  0  0  0  0  0  0  0
  128.6986  132.3630  156.4281 H   0  0  0  0  0  0  0  0  0  0  0  0
  128.4703  134.0945  156.0845 H   0  0  0  0  0  0  0  0  0  0  0  0
  129.8417  133.2176  155.3645 H   0  0  0  0  0  0  0  0  0  0  0  0
  130.5816  134.6098  157.2785 H   0  0  0  0  0  0  0  0  0  0  0  0
  130.5979  131.6165  157.8759 H   0  0  0  0  0  0  0  0  0  0  0  0
  131.7365  132.4647  156.8023 H   0  0  0  0  0  0  0  0  0  0  0  0
  131.7275  132.8173  158.5469 H   0  0  0  0  0  0  0  0  0  0  0  0
  128.4080  133.2617  158.7161 H   0  0  0  0  0  0  0  0  0  0  0  0
  131.0524  135.6634  158.6876 H   0  0  0  0  0  0  0  0  0  0  0  0
  131.0180  133.9278  161.7933 H   0  0  0  0  0  0  0  0  0  0  0  0
  132.5423  133.9117  160.8742 H   0  0  0  0  0  0  0  0  0  0  0  0
  132.0176  135.5061  163.4236 H   0  0  0  0  0  0  0  0  0  0  0  0
  132.9750  134.0096  163.3139 H   0  0  0  0  0  0  0  0  0  0  0  0
  134.4210  136.9378  164.0552 H   0  0  0  0  0  0  0  0  0  0  0  0
  136.9382  133.8961  166.1487 H   0  0  0  0  0  0  0  0  0  0  0  0
  138.1488  134.7093  165.1225 H   0  0  0  0  0  0  0  0  0  0  0  0
  139.7146  136.5855  167.7710 H   0  0  0  0  0  0  0  0  0  0  0  0
  139.9096  135.6103  166.2509 H   0  0  0  0  0  0  0  0  0  0  0  0
  138.4808  137.1392  164.9784 H   0  0  0  0  0  0  0  0  0  0  0  0
  139.0025  138.3495  166.2284 H   0  0  0  0  0  0  0  0  0  0  0  0
  135.9230  137.7240  165.3022 H   0  0  0  0  0  0  0  0  0  0  0  0
  135.1696  136.7655  166.6071 H   0  0  0  0  0  0  0  0  0  0  0  0
  132.8134  137.5843  162.2876 H   0  0  0  0  0  0  0  0  0  0  0  0
  134.3377  137.5683  161.3685 H   0  0  0  0  0  0  0  0  0  0  0  0
  133.3380  135.9899  159.7383 H   0  0  0  0  0  0  0  0  0  0  0  0
  132.3806  137.4865  159.8480 H   0  0  0  0  0  0  0  0  0  0  0  0
  127.0331  134.8348  159.6093 H   0  0  0  0  0  0  0  0  0  0  0  0
  127.0402  135.1374  162.6507 H   0  0  0  0  0  0  0  0  0  0  0  0
  126.7976  136.4386  161.4589 H   0  0  0  0  0  0  0  0  0  0  0  0
  124.5750  135.7535  161.8801 H   0  0  0  0  0  0  0  0  0  0  0  0
  125.2228  132.0340  160.5625 H   0  0  0  0  0  0  0  0  0  0  0  0
  127.4902  132.4619  160.0497 H   0  0  0  0  0  0  0  0  0  0  0  0
  127.4562  132.7542  161.8058 H   0  0  0  0  0  0  0  0  0  0  0  0
  1  2  1  0
  1 36  1  0
  1 37  1  0
  1 38  1  0
  2  3  1  0
  2  4  1  0
  2 39  1  0
  3 40  1  0
  3 41  1  0
  3 42  1  0
  4 43  1  0
  5  4  1  0
  5  6  1  0
  5 27  2  0
  6  7  1  0
  6 44  1  0
  7  8  1  1
  7 26  1  0
  7  9  1  0
  9 10  1  0
  9 45  1  0
  9 46  1  0
 10 11  1  0
 10 47  1  0
 10 48  1  0
 11 12  1  6
 11 13  1  0
 11 25  1  0
 13 14  1  0
 13 49  1  0
 14 15  2  0
 14 16  1  0
 16 24  1  0
 16 17  1  0
 17 18  1  0
 17 50  1  0
 17 51  1  0
 18 19  1  1
 18 22  1  0
 18 20  1  0
 20 21  1  0
 20 52  1  0
 20 53  1  0
 21 22  1  0
 21 54  1  0
 21 55  1  0
 22 23  1  1
 22 24  1  0
 24 56  1  0
 24 57  1  0
 25 26  1  0
 25 58  1  0
 25 59  1  0
 26 60  1  0
 26 61  1  0
 27 28  1  0
 27 29  1  0
 29 35  1  0
 29 30  1  0
 29 62  1  0
 30 31  1  0
 30 63  1  0
 30 64  1  0
 31 32  1  0
 31 65  1  0
 32 33  2  0
 32 34  1  0
 34 35  1  0
 34 66  1  0
 35 67  1  0
 35 68  1  0
M  CHG  1  27   1
M  END
>  <DOCK_score>  (1) 
-47.008896

>  <SMILES>  (1) 
CC(C)NC(N[C@H]1CC[C@H](NC(=O)N2C[C@H]3CC[C@H]3C2)CC1)=[NH+]C1CNC(=O)NC1

$$$$
