CCCC=C(C[C@H](Nc1[nH]cc(-c2ccc(N)cc2)[nH+]1)c1ccccc1)c1ccccc1
     RDKit          3D

 63 66  0  0  1  0  0  0  0  0999 V2000
  135.4887  138.6003  160.2741 C   0  0  0  0  0  0  0  0  0  0  0  0
  134.0625  138.3852  159.7635 C   0  0  0  0  0  0  0  0  0  0  0  0
  133.1585  137.9825  160.9304 C   0  0  0  0  0  0  0  0  0  0  0  0
  131.7537  137.7706  160.4275 C   0  0  0  0  0  0  0  0  0  0  0  0
  130.7947  137.4140  161.2705 C   0  0  0  0  0  0  0  0  0  0  0  0
  129.3899  137.2022  160.7676 C   0  0  0  0  0  0  0  0  0  0  0  0
  129.2129  135.7411  160.3493 C   0  0  2  0  0  0  0  0  0  0  0  0
  129.7207  135.0943  161.0646 H   0  0  0  0  0  0  0  0  0  0  0  0
  129.7880  135.5417  159.0167 N   0  0  0  0  0  0  0  0  0  0  0  0
  129.7462  134.2908  158.4249 C   0  0  0  0  0  0  0  0  0  0  0  0
  129.1965  133.1729  158.9724 N   0  0  0  0  0  0  0  0  0  0  0  0
  128.7677  133.1094  159.8402 H   0  0  0  0  0  0  0  0  0  0  0  0
  129.3617  132.1502  158.0687 C   0  0  0  0  0  0  0  0  0  0  0  0
  130.0068  132.6730  156.9968 C   0  0  0  0  0  0  0  0  0  0  0  0
  130.3992  131.9373  155.7698 C   0  0  0  0  0  0  0  0  0  0  0  0
  129.8993  132.3313  154.5296 C   0  0  0  0  0  0  0  0  0  0  0  0
  130.2700  131.6496  153.3898 C   0  0  0  0  0  0  0  0  0  0  0  0
  131.1321  130.5631  153.4780 C   0  0  0  0  0  0  0  0  0  0  0  0
  131.5018  129.8701  152.3228 N   0  0  0  0  0  0  0  0  0  0  0  0
  131.6273  130.1649  154.7141 C   0  0  0  0  0  0  0  0  0  0  0  0
  131.2640  130.8473  155.8559 C   0  0  0  0  0  0  0  0  0  0  0  0
  130.2247  133.9893  157.2423 N   0  0  0  0  0  0  0  0  0  0  0  0
  130.6661  134.6082  156.6398 H   0  0  0  0  0  0  0  0  0  0  0  0
  127.7450  135.4017  160.3188 C   0  0  0  0  0  0  0  0  0  0  0  0
  127.1261  134.9082  161.4522 C   0  0  0  0  0  0  0  0  0  0  0  0
  125.7796  134.5964  161.4242 C   0  0  0  0  0  0  0  0  0  0  0  0
  125.0524  134.7768  160.2625 C   0  0  0  0  0  0  0  0  0  0  0  0
  125.6715  135.2690  159.1289 C   0  0  0  0  0  0  0  0  0  0  0  0
  127.0179  135.5812  159.1569 C   0  0  0  0  0  0  0  0  0  0  0  0
  131.1032  137.2243  162.7036 C   0  0  0  0  0  0  0  0  0  0  0  0
  131.4936  135.9708  163.1762 C   0  0  0  0  0  0  0  0  0  0  0  0
  131.7853  135.8018  164.5142 C   0  0  0  0  0  0  0  0  0  0  0  0
  131.6812  136.8690  165.3882 C   0  0  0  0  0  0  0  0  0  0  0  0
  131.2892  138.1130  164.9268 C   0  0  0  0  0  0  0  0  0  0  0  0
  130.9998  138.2966  163.5904 C   0  0  0  0  0  0  0  0  0  0  0  0
  135.4905  139.3907  161.0246 H   0  0  0  0  0  0  0  0  0  0  0  0
  135.8588  137.6763  160.7184 H   0  0  0  0  0  0  0  0  0  0  0  0
  136.1328  138.8871  159.4427 H   0  0  0  0  0  0  0  0  0  0  0  0
  134.0607  137.5947  159.0130 H   0  0  0  0  0  0  0  0  0  0  0  0
  133.6924  139.3091  159.3191 H   0  0  0  0  0  0  0  0  0  0  0  0
  133.1603  138.7729  161.6808 H   0  0  0  0  0  0  0  0  0  0  0  0
  133.5286  137.0586  161.3748 H   0  0  0  0  0  0  0  0  0  0  0  0
  131.5282  137.9091  159.3804 H   0  0  0  0  0  0  0  0  0  0  0  0
  129.2094  137.8502  159.9100 H   0  0  0  0  0  0  0  0  0  0  0  0
  128.6806  137.4418  161.5597 H   0  0  0  0  0  0  0  0  0  0  0  0
  130.1980  136.2860  158.5490 H   0  0  0  0  0  0  0  0  0  0  0  0
  129.0394  131.1265  158.1893 H   0  0  0  0  0  0  0  0  0  0  0  0
  129.2254  133.1725  154.4612 H   0  0  0  0  0  0  0  0  0  0  0  0
  129.8862  131.9570  152.4282 H   0  0  0  0  0  0  0  0  0  0  0  0
  132.1042  129.1124  152.3833 H   0  0  0  0  0  0  0  0  0  0  0  0
  131.1569  130.1478  151.4595 H   0  0  0  0  0  0  0  0  0  0  0  0
  132.2971  129.3201  154.7806 H   0  0  0  0  0  0  0  0  0  0  0  0
  131.6493  130.5377  156.8162 H   0  0  0  0  0  0  0  0  0  0  0  0
  127.6942  134.7675  162.3599 H   0  0  0  0  0  0  0  0  0  0  0  0
  125.2949  134.2161  162.3112 H   0  0  0  0  0  0  0  0  0  0  0  0
  124.0006  134.5328  160.2406 H   0  0  0  0  0  0  0  0  0  0  0  0
  125.1036  135.4092  158.2210 H   0  0  0  0  0  0  0  0  0  0  0  0
  127.5019  135.9651  158.2710 H   0  0  0  0  0  0  0  0  0  0  0  0
  131.5712  135.1360  162.4956 H   0  0  0  0  0  0  0  0  0  0  0  0
  132.0916  134.8330  164.8806 H   0  0  0  0  0  0  0  0  0  0  0  0
  131.9068  136.7304  166.4353 H   0  0  0  0  0  0  0  0  0  0  0  0
  131.2093  138.9420  165.6144 H   0  0  0  0  0  0  0  0  0  0  0  0
  130.6935  139.2681  163.2316 H   0  0  0  0  0  0  0  0  0  0  0  0
  1  2  1  0
  1 36  1  0
  1 37  1  0
  1 38  1  0
  2  3  1  0
  2 39  1  0
  2 40  1  0
  3  4  1  0
  3 41  1  0
  3 42  1  0
  4  5  2  0
  4 43  1  0
  5  6  1  0
  5 30  1  0
  6  7  1  0
  6 44  1  0
  6 45  1  0
  7  8  1  1
  7  9  1  0
  7 24  1  0
  9 46  1  0
 10  9  1  0
 10 22  2  0
 10 11  1  0
 11 12  1  0
 11 13  1  0
 13 14  2  0
 13 47  1  0
 14 15  1  0
 14 22  1  0
 15 21  1  0
 15 16  2  0
 16 17  1  0
 16 48  1  0
 17 18  2  0
 17 49  1  0
 18 19  1  0
 18 20  1  0
 19 50  1  0
 19 51  1  0
 20 21  2  0
 20 52  1  0
 21 53  1  0
 22 23  1  0
 24 29  1  0
 24 25  2  0
 25 26  1  0
 25 54  1  0
 26 27  2  0
 26 55  1  0
 27 28  1  0
 27 56  1  0
 28 29  2  0
 28 57  1  0
 29 58  1  0
 30 35  1  0
 30 31  2  0
 31 32  1  0
 31 59  1  0
 32 33  2  0
 32 60  1  0
 33 34  1  0
 33 61  1  0
 34 35  2  0
 34 62  1  0
 35 63  1  0
M  CHG  1  22   1
M  END
>  <DOCK_score>  (1) 
-55.961388

>  <SMILES>  (1) 
CCCC=C(C[C@H](Nc1[nH]cc(-c2ccc(N)cc2)[nH+]1)c1ccccc1)c1ccccc1

$$$$
