C=CCC[C@H](Nc1[nH]cc(-c2ccc(N)cc2)[nH+]1)c1ccccc1
     RDKit          3D

 47 49  0  0  1  0  0  0  0  0999 V2000
  131.6682  134.1803  161.7774 C   0  0  0  0  0  0  0  0  0  0  0  0
  130.9534  135.2778  161.8028 C   0  0  0  0  0  0  0  0  0  0  0  0
  131.1394  136.3232  160.7332 C   0  0  0  0  0  0  0  0  0  0  0  0
  129.8194  136.5308  159.9880 C   0  0  0  0  0  0  0  0  0  0  0  0
  129.3851  135.2130  159.3433 C   0  0  2  0  0  0  0  0  0  0  0  0
  129.2505  134.4570  160.1168 H   0  0  0  0  0  0  0  0  0  0  0  0
  130.4139  134.7686  158.3998 N   0  0  0  0  0  0  0  0  0  0  0  0
  130.2413  133.5919  157.6910 C   0  0  0  0  0  0  0  0  0  0  0  0
  129.5423  132.5051  158.1174 N   0  0  0  0  0  0  0  0  0  0  0  0
  129.0798  132.4158  158.9653 H   0  0  0  0  0  0  0  0  0  0  0  0
  129.6132  131.5568  157.1245 C   0  0  0  0  0  0  0  0  0  0  0  0
  130.3527  132.0919  156.1218 C   0  0  0  0  0  0  0  0  0  0  0  0
  130.6947  131.4288  154.8396 C   0  0  0  0  0  0  0  0  0  0  0  0
  130.2884  131.9934  153.6315 C   0  0  0  0  0  0  0  0  0  0  0  0
  130.6124  131.3784  152.4407 C   0  0  0  0  0  0  0  0  0  0  0  0
  131.3334  130.1902  152.4446 C   0  0  0  0  0  0  0  0  0  0  0  0
  131.6556  129.5655  151.2374 N   0  0  0  0  0  0  0  0  0  0  0  0
  131.7347  129.6224  153.6482 C   0  0  0  0  0  0  0  0  0  0  0  0
  131.4180  130.2371  154.8412 C   0  0  0  0  0  0  0  0  0  0  0  0
  130.7197  133.3432  156.4962 N   0  0  0  0  0  0  0  0  0  0  0  0
  131.2527  133.9554  155.9651 H   0  0  0  0  0  0  0  0  0  0  0  0
  128.0849  135.4176  158.6091 C   0  0  0  0  0  0  0  0  0  0  0  0
  126.8833  135.2226  159.2642 C   0  0  0  0  0  0  0  0  0  0  0  0
  125.6907  135.4099  158.5907 C   0  0  0  0  0  0  0  0  0  0  0  0
  125.6997  135.7906  157.2618 C   0  0  0  0  0  0  0  0  0  0  0  0
  126.9013  135.9842  156.6064 C   0  0  0  0  0  0  0  0  0  0  0  0
  128.0939  135.7974  157.2801 C   0  0  0  0  0  0  0  0  0  0  0  0
  132.3906  134.0246  160.9898 H   0  0  0  0  0  0  0  0  0  0  0  0
  131.5348  133.4312  162.5439 H   0  0  0  0  0  0  0  0  0  0  0  0
  130.2309  135.4337  162.5903 H   0  0  0  0  0  0  0  0  0  0  0  0
  131.9048  135.9924  160.0312 H   0  0  0  0  0  0  0  0  0  0  0  0
  131.4488  137.2619  161.1926 H   0  0  0  0  0  0  0  0  0  0  0  0
  129.9539  137.2869  159.2144 H   0  0  0  0  0  0  0  0  0  0  0  0
  129.0540  136.8614  160.6901 H   0  0  0  0  0  0  0  0  0  0  0  0
  131.2161  135.2988  158.2716 H   0  0  0  0  0  0  0  0  0  0  0  0
  129.1656  130.5741  157.1400 H   0  0  0  0  0  0  0  0  0  0  0  0
  129.7238  132.9141  153.6283 H   0  0  0  0  0  0  0  0  0  0  0  0
  130.3013  131.8174  151.5044 H   0  0  0  0  0  0  0  0  0  0  0  0
  132.1596  128.7369  151.2393 H   0  0  0  0  0  0  0  0  0  0  0  0
  131.3763  129.9615  150.3970 H   0  0  0  0  0  0  0  0  0  0  0  0
  132.2948  128.6989  153.6491 H   0  0  0  0  0  0  0  0  0  0  0  0
  131.7303  129.7957  155.7761 H   0  0  0  0  0  0  0  0  0  0  0  0
  126.8763  134.9255  160.3024 H   0  0  0  0  0  0  0  0  0  0  0  0
  124.7519  135.2629  159.1040 H   0  0  0  0  0  0  0  0  0  0  0  0
  124.7679  135.9365  156.7357 H   0  0  0  0  0  0  0  0  0  0  0  0
  126.9084  136.2810  155.5681 H   0  0  0  0  0  0  0  0  0  0  0  0
  129.0328  135.9480  156.7679 H   0  0  0  0  0  0  0  0  0  0  0  0
  1  2  2  0
  1 28  1  0
  1 29  1  0
  2  3  1  0
  2 30  1  0
  3  4  1  0
  3 31  1  0
  3 32  1  0
  4  5  1  0
  4 33  1  0
  4 34  1  0
  5  6  1  1
  5  7  1  0
  5 22  1  0
  7 35  1  0
  8  7  1  0
  8 20  2  0
  8  9  1  0
  9 10  1  0
  9 11  1  0
 11 12  2  0
 11 36  1  0
 12 13  1  0
 12 20  1  0
 13 19  1  0
 13 14  2  0
 14 15  1  0
 14 37  1  0
 15 16  2  0
 15 38  1  0
 16 17  1  0
 16 18  1  0
 17 39  1  0
 17 40  1  0
 18 19  2  0
 18 41  1  0
 19 42  1  0
 20 21  1  0
 22 27  1  0
 22 23  2  0
 23 24  1  0
 23 43  1  0
 24 25  2  0
 24 44  1  0
 25 26  1  0
 25 45  1  0
 26 27  2  0
 26 46  1  0
 27 47  1  0
M  CHG  1  20   1
M  END
>  <DOCK_score>  (1) 
-59.082787

>  <SMILES>  (1) 
C=CCC[C@H](Nc1[nH]cc(-c2ccc(N)cc2)[nH+]1)c1ccccc1

$$$$
