CCc1ccc(-c2c[nH]c(N[C@H](c3cccc4cc[nH]c34)C(O)c3ccnn3C)[nH+]2)cc1
     RDKit          3D

 59 63  0  0  1  0  0  0  0  0999 V2000
  130.7475  128.7159  151.8412 C   0  0  0  0  0  0  0  0  0  0  0  0
  131.9036  129.5991  152.3147 C   0  0  0  0  0  0  0  0  0  0  0  0
  131.5094  130.3023  153.5881 C   0  0  0  0  0  0  0  0  0  0  0  0
  131.7660  129.7086  154.8109 C   0  0  0  0  0  0  0  0  0  0  0  0
  131.4115  130.3502  155.9803 C   0  0  0  0  0  0  0  0  0  0  0  0
  130.7845  131.5939  155.9272 C   0  0  0  0  0  0  0  0  0  0  0  0
  130.3965  132.2861  157.1804 C   0  0  0  0  0  0  0  0  0  0  0  0
  129.5472  131.8109  158.1246 C   0  0  0  0  0  0  0  0  0  0  0  0
  129.4722  132.7650  159.1100 N   0  0  0  0  0  0  0  0  0  0  0  0
  128.9419  132.7132  159.9206 H   0  0  0  0  0  0  0  0  0  0  0  0
  130.2787  133.7964  158.7388 C   0  0  0  0  0  0  0  0  0  0  0  0
  130.4832  134.9601  159.4603 N   0  0  0  0  0  0  0  0  0  0  0  0
  129.8007  135.1570  160.7415 C   0  0  2  0  0  0  0  0  0  0  0  0
  130.0891  134.3648  161.4324 H   0  0  0  0  0  0  0  0  0  0  0  0
  128.3094  135.1187  160.5274 C   0  0  0  0  0  0  0  0  0  0  0  0
  127.4785  134.6687  161.5301 C   0  0  0  0  0  0  0  0  0  0  0  0
  126.1036  134.6289  161.3456 C   0  0  0  0  0  0  0  0  0  0  0  0
  125.5495  135.0364  160.1646 C   0  0  0  0  0  0  0  0  0  0  0  0
  126.3727  135.4960  159.1352 C   0  0  0  0  0  0  0  0  0  0  0  0
  126.1263  135.9946  157.7800 C   0  0  0  0  0  0  0  0  0  0  0  0
  127.3209  136.3074  157.2536 C   0  0  0  0  0  0  0  0  0  0  0  0
  128.3134  136.0379  158.1563 N   0  0  0  0  0  0  0  0  0  0  0  0
  129.2610  136.1750  158.0000 H   0  0  0  0  0  0  0  0  0  0  0  0
  127.7669  135.5429  159.3190 C   0  0  0  0  0  0  0  0  0  0  0  0
  130.1971  136.5139  161.3272 C   0  0  1  0  0  0  0  0  0  0  0  0
  129.9329  136.5219  162.7315 O   0  0  0  0  0  0  0  0  0  0  0  0
  131.6661  136.7530  161.0910 C   0  0  0  0  0  0  0  0  0  0  0  0
  132.6825  135.9810  161.5404 C   0  0  0  0  0  0  0  0  0  0  0  0
  133.8823  136.5507  161.1018 C   0  0  0  0  0  0  0  0  0  0  0  0
  133.5964  137.6263  160.4138 N   0  0  0  0  0  0  0  0  0  0  0  0
  132.2033  137.7724  160.3887 N   0  0  0  0  0  0  0  0  0  0  0  0
  131.4611  138.8442  159.7203 C   0  0  0  0  0  0  0  0  0  0  0  0
  130.8332  133.5045  157.5876 N   0  0  0  0  0  0  0  0  0  0  0  0
  131.4551  134.0699  157.1034 H   0  0  0  0  0  0  0  0  0  0  0  0
  130.5238  132.1849  154.6922 C   0  0  0  0  0  0  0  0  0  0  0  0
  130.8873  131.5365  153.5293 C   0  0  0  0  0  0  0  0  0  0  0  0
  131.0327  128.2073  150.9201 H   0  0  0  0  0  0  0  0  0  0  0  0
  130.5172  127.9765  152.6082 H   0  0  0  0  0  0  0  0  0  0  0  0
  129.8691  129.3347  151.6575 H   0  0  0  0  0  0  0  0  0  0  0  0
  132.7820  128.9804  152.4983 H   0  0  0  0  0  0  0  0  0  0  0  0
  132.1339  130.3386  151.5477 H   0  0  0  0  0  0  0  0  0  0  0  0
  132.2479  128.7430  154.8506 H   0  0  0  0  0  0  0  0  0  0  0  0
  131.6164  129.8879  156.9345 H   0  0  0  0  0  0  0  0  0  0  0  0
  129.0285  130.8636  158.1053 H   0  0  0  0  0  0  0  0  0  0  0  0
  131.0784  135.6451  159.1175 H   0  0  0  0  0  0  0  0  0  0  0  0
  127.9014  134.3440  162.4694 H   0  0  0  0  0  0  0  0  0  0  0  0
  125.4662  134.2735  162.1418 H   0  0  0  0  0  0  0  0  0  0  0  0
  124.4787  135.0027  160.0282 H   0  0  0  0  0  0  0  0  0  0  0  0
  125.1649  136.1015  157.2997 H   0  0  0  0  0  0  0  0  0  0  0  0
  127.4764  136.7047  156.2615 H   0  0  0  0  0  0  0  0  0  0  0  0
  129.6185  137.3012  160.8441 H   0  0  0  0  0  0  0  0  0  0  0  0
  130.4152  135.8455  163.2264 H   0  0  0  0  0  0  0  0  0  0  0  0
  132.5846  135.0832  162.1327 H   0  0  0  0  0  0  0  0  0  0  0  0
  134.8732  136.1685  161.2968 H   0  0  0  0  0  0  0  0  0  0  0  0
  131.3230  139.6759  160.4111 H   0  0  0  0  0  0  0  0  0  0  0  0
  132.0202  139.1846  158.8489 H   0  0  0  0  0  0  0  0  0  0  0  0
  130.4877  138.4693  159.4038 H   0  0  0  0  0  0  0  0  0  0  0  0
  130.0377  133.1481  154.6451 H   0  0  0  0  0  0  0  0  0  0  0  0
  130.6854  131.9933  152.5718 H   0  0  0  0  0  0  0  0  0  0  0  0
  1  2  1  0
  1 37  1  0
  1 38  1  0
  1 39  1  0
  2  3  1  0
  2 40  1  0
  2 41  1  0
  3 36  2  0
  3  4  1  0
  4  5  2  0
  4 42  1  0
  5  6  1  0
  5 43  1  0
  6  7  1  0
  6 35  2  0
  7 33  1  0
  7  8  2  0
  8  9  1  0
  8 44  1  0
  9 10  1  0
  9 11  1  0
 11 12  1  0
 11 33  2  0
 12 13  1  0
 12 45  1  0
 13 14  1  1
 13 15  1  0
 13 25  1  0
 15 24  1  0
 15 16  2  0
 16 17  1  0
 16 46  1  0
 17 18  2  0
 17 47  1  0
 18 19  1  0
 18 48  1  0
 19 24  2  0
 19 20  1  0
 20 21  2  0
 20 49  1  0
 21 22  1  0
 21 50  1  0
 22 23  1  0
 22 24  1  0
 25 26  1  0
 25 27  1  0
 25 51  1  6
 26 52  1  0
 27 31  1  0
 27 28  2  0
 28 29  1  0
 28 53  1  0
 29 30  2  0
 29 54  1  0
 30 31  1  0
 31 32  1  0
 32 55  1  0
 32 56  1  0
 32 57  1  0
 33 34  1  0
 35 36  1  0
 35 58  1  0
 36 59  1  0
M  CHG  1  33   1
M  END
>  <DOCK_score>  (1) 
-63.708244

>  <SMILES>  (1) 
CCc1ccc(-c2c[nH]c(N[C@H](c3cccc4cc[nH]c34)C(O)c3ccnn3C)[nH+]2)cc1

$$$$
