c1ccc(-c2ccc(-c3c[nH]c(NCC(c4ccccc4)c4ccccc4)[nH+]3)cc2)cc1
     RDKit          3D

 58 62  0  0  1  0  0  0  0  0999 V2000
  130.3293  129.1247  150.4120 C   0  0  0  0  0  0  0  0  0  0  0  0
  130.3045  130.5058  150.4852 C   0  0  0  0  0  0  0  0  0  0  0  0
  130.4089  131.1366  151.7081 C   0  0  0  0  0  0  0  0  0  0  0  0
  130.5391  130.3795  152.8712 C   0  0  0  0  0  0  0  0  0  0  0  0
  130.6519  131.0511  154.1885 C   0  0  0  0  0  0  0  0  0  0  0  0
  130.0323  132.2835  154.3976 C   0  0  0  0  0  0  0  0  0  0  0  0
  130.1371  132.9081  155.6207 C   0  0  0  0  0  0  0  0  0  0  0  0
  130.8626  132.3083  156.6502 C   0  0  0  0  0  0  0  0  0  0  0  0
  130.9759  132.9806  157.9665 C   0  0  0  0  0  0  0  0  0  0  0  0
  130.5556  132.4825  159.1564 C   0  0  0  0  0  0  0  0  0  0  0  0
  130.8569  133.4231  160.1109 N   0  0  0  0  0  0  0  0  0  0  0  0
  130.6810  133.3530  161.0621 H   0  0  0  0  0  0  0  0  0  0  0  0
  131.4456  134.4728  159.4753 C   0  0  0  0  0  0  0  0  0  0  0  0
  131.8990  135.6314  160.0823 N   0  0  0  0  0  0  0  0  0  0  0  0
  131.7614  135.8014  161.5309 C   0  0  0  0  0  0  0  0  0  0  0  0
  130.4199  136.4685  161.8409 C   0  0  0  0  0  0  0  0  0  0  0  0
  129.2979  135.6030  161.3280 C   0  0  0  0  0  0  0  0  0  0  0  0
  128.8201  135.7804  160.0429 C   0  0  0  0  0  0  0  0  0  0  0  0
  127.7943  134.9832  159.5708 C   0  0  0  0  0  0  0  0  0  0  0  0
  127.2391  134.0158  160.3870 C   0  0  0  0  0  0  0  0  0  0  0  0
  127.7132  133.8418  161.6740 C   0  0  0  0  0  0  0  0  0  0  0  0
  128.7427  134.6354  162.1443 C   0  0  0  0  0  0  0  0  0  0  0  0
  130.2782  136.6433  163.3311 C   0  0  0  0  0  0  0  0  0  0  0  0
  129.5472  137.7021  163.8363 C   0  0  0  0  0  0  0  0  0  0  0  0
  129.4132  137.8598  165.2032 C   0  0  0  0  0  0  0  0  0  0  0  0
  130.0191  136.9646  166.0647 C   0  0  0  0  0  0  0  0  0  0  0  0
  130.7546  135.9088  165.5596 C   0  0  0  0  0  0  0  0  0  0  0  0
  130.8842  135.7481  164.1926 C   0  0  0  0  0  0  0  0  0  0  0  0
  131.5178  134.2036  158.1946 N   0  0  0  0  0  0  0  0  0  0  0  0
  131.8978  134.7855  157.5180 H   0  0  0  0  0  0  0  0  0  0  0  0
  131.4864  131.0786  156.4389 C   0  0  0  0  0  0  0  0  0  0  0  0
  131.3771  130.4518  155.2174 C   0  0  0  0  0  0  0  0  0  0  0  0
  130.5688  128.9882  152.7909 C   0  0  0  0  0  0  0  0  0  0  0  0
  130.4583  128.3680  151.5629 C   0  0  0  0  0  0  0  0  0  0  0  0
  130.2478  128.6358  149.4525 H   0  0  0  0  0  0  0  0  0  0  0  0
  130.2036  131.0915  149.5834 H   0  0  0  0  0  0  0  0  0  0  0  0
  130.3902  132.2150  151.7639 H   0  0  0  0  0  0  0  0  0  0  0  0
  129.4709  132.7480  153.6004 H   0  0  0  0  0  0  0  0  0  0  0  0
  129.6572  133.8619  155.7828 H   0  0  0  0  0  0  0  0  0  0  0  0
  130.0786  131.5278  159.3219 H   0  0  0  0  0  0  0  0  0  0  0  0
  132.3076  136.3307  159.5486 H   0  0  0  0  0  0  0  0  0  0  0  0
  132.5729  136.4274  161.9020 H   0  0  0  0  0  0  0  0  0  0  0  0
  131.8033  134.8266  162.0168 H   0  0  0  0  0  0  0  0  0  0  0  0
  130.3780  137.4433  161.3551 H   0  0  0  0  0  0  0  0  0  0  0  0
  129.2509  136.5393  159.4067 H   0  0  0  0  0  0  0  0  0  0  0  0
  127.4235  135.1193  158.5655 H   0  0  0  0  0  0  0  0  0  0  0  0
  126.4345  133.3959  160.0197 H   0  0  0  0  0  0  0  0  0  0  0  0
  127.2793  133.0861  162.3119 H   0  0  0  0  0  0  0  0  0  0  0  0
  129.1129  134.4998  163.1498 H   0  0  0  0  0  0  0  0  0  0  0  0
  129.0774  138.4040  163.1632 H   0  0  0  0  0  0  0  0  0  0  0  0
  128.8389  138.6848  165.5978 H   0  0  0  0  0  0  0  0  0  0  0  0
  129.9182  137.0903  167.1327 H   0  0  0  0  0  0  0  0  0  0  0  0
  131.2283  135.2095  166.2327 H   0  0  0  0  0  0  0  0  0  0  0  0
  131.4591  134.9235  163.7980 H   0  0  0  0  0  0  0  0  0  0  0  0
  132.0516  130.6160  157.2346 H   0  0  0  0  0  0  0  0  0  0  0  0
  131.8565  129.4978  155.0550 H   0  0  0  0  0  0  0  0  0  0  0  0
  130.6744  128.3967  153.6883 H   0  0  0  0  0  0  0  0  0  0  0  0
  130.4771  127.2900  151.5000 H   0  0  0  0  0  0  0  0  0  0  0  0
  1 34  2  0
  1  2  1  0
  1 35  1  0
  2  3  2  0
  2 36  1  0
  3  4  1  0
  3 37  1  0
  4  5  1  0
  4 33  2  0
  5 32  1  0
  5  6  2  0
  6  7  1  0
  6 38  1  0
  7  8  2  0
  7 39  1  0
  8  9  1  0
  8 31  1  0
  9 29  1  0
  9 10  2  0
 10 11  1  0
 10 40  1  0
 11 12  1  0
 11 13  1  0
 13 14  1  0
 13 29  2  0
 14 15  1  0
 14 41  1  0
 15 16  1  0
 15 42  1  0
 15 43  1  0
 16 17  1  0
 16 23  1  0
 16 44  1  0
 17 22  1  0
 17 18  2  0
 18 19  1  0
 18 45  1  0
 19 20  2  0
 19 46  1  0
 20 21  1  0
 20 47  1  0
 21 22  2  0
 21 48  1  0
 22 49  1  0
 23 28  1  0
 23 24  2  0
 24 25  1  0
 24 50  1  0
 25 26  2  0
 25 51  1  0
 26 27  1  0
 26 52  1  0
 27 28  2  0
 27 53  1  0
 28 54  1  0
 29 30  1  0
 31 32  2  0
 31 55  1  0
 32 56  1  0
 33 34  1  0
 33 57  1  0
 34 58  1  0
M  CHG  1  29   1
M  END
>  <DOCK_score>  (1) 
-59.293289

>  <SMILES>  (1) 
c1ccc(-c2ccc(-c3c[nH]c(NCC(c4ccccc4)c4ccccc4)[nH+]3)cc2)cc1

$$$$
