CCc1ccc(-c2c[nH]c(N[C@@H](Cc3ccnn3C)c3ccnn3-c3ccc(F)cc3)[nH+]2)cc1
     RDKit          3D

 61 65  0  0  1  0  0  0  0  0999 V2000
  130.4274  129.1876  151.9897 C   0  0  0  0  0  0  0  0  0  0  0  0
  131.7113  129.7919  152.5617 C   0  0  0  0  0  0  0  0  0  0  0  0
  131.3936  130.5345  153.8339 C   0  0  0  0  0  0  0  0  0  0  0  0
  131.4382  129.8725  155.0477 C   0  0  0  0  0  0  0  0  0  0  0  0
  131.1538  130.5488  156.2166 C   0  0  0  0  0  0  0  0  0  0  0  0
  130.8099  131.8987  156.1714 C   0  0  0  0  0  0  0  0  0  0  0  0
  130.4977  132.6297  157.4237 C   0  0  0  0  0  0  0  0  0  0  0  0
  129.9618  132.0937  158.5481 C   0  0  0  0  0  0  0  0  0  0  0  0
  129.8402  133.1157  159.4581 N   0  0  0  0  0  0  0  0  0  0  0  0
  129.4872  133.0441  160.3587 H   0  0  0  0  0  0  0  0  0  0  0  0
  130.3059  134.2473  158.8625 C   0  0  0  0  0  0  0  0  0  0  0  0
  130.3571  135.5024  159.4444 N   0  0  0  0  0  0  0  0  0  0  0  0
  129.8836  135.6929  160.8177 C   0  0  1  0  0  0  0  0  0  0  0  0
  130.1922  134.8450  161.4293 H   0  0  0  0  0  0  0  0  0  0  0  0
  130.4826  136.9792  161.3899 C   0  0  0  0  0  0  0  0  0  0  0  0
  131.9861  136.8782  161.3864 C   0  0  0  0  0  0  0  0  0  0  0  0
  132.8093  137.2639  160.3840 C   0  0  0  0  0  0  0  0  0  0  0  0
  134.1241  137.0001  160.7812 C   0  0  0  0  0  0  0  0  0  0  0  0
  134.0916  136.4749  161.9790 N   0  0  0  0  0  0  0  0  0  0  0  0
  132.7532  136.3925  162.3846 N   0  0  0  0  0  0  0  0  0  0  0  0
  132.2713  135.8686  163.6650 C   0  0  0  0  0  0  0  0  0  0  0  0
  128.3799  135.7939  160.8212 C   0  0  0  0  0  0  0  0  0  0  0  0
  127.5727  135.7226  159.7374 C   0  0  0  0  0  0  0  0  0  0  0  0
  126.2510  135.8616  160.1748 C   0  0  0  0  0  0  0  0  0  0  0  0
  126.2634  136.0111  161.4750 N   0  0  0  0  0  0  0  0  0  0  0  0
  127.5949  135.9661  161.9085 N   0  0  0  0  0  0  0  0  0  0  0  0
  128.0355  136.0826  163.2347 C   0  0  0  0  0  0  0  0  0  0  0  0
  127.7590  137.2332  163.9605 C   0  0  0  0  0  0  0  0  0  0  0  0
  128.1898  137.3440  165.2681 C   0  0  0  0  0  0  0  0  0  0  0  0
  128.9065  136.3128  165.8517 C   0  0  0  0  0  0  0  0  0  0  0  0
  129.3318  136.4253  167.1290 F   0  0  0  0  0  0  0  0  0  0  0  0
  129.1875  135.1661  165.1276 C   0  0  0  0  0  0  0  0  0  0  0  0
  128.7538  135.0496  163.8216 C   0  0  0  0  0  0  0  0  0  0  0  0
  130.7034  133.9518  157.6490 N   0  0  0  0  0  0  0  0  0  0  0  0
  131.0817  134.5786  157.0128 H   0  0  0  0  0  0  0  0  0  0  0  0
  130.7610  132.5593  154.9450 C   0  0  0  0  0  0  0  0  0  0  0  0
  131.0529  131.8743  153.7831 C   0  0  0  0  0  0  0  0  0  0  0  0
  129.9960  128.4977  152.7150 H   0  0  0  0  0  0  0  0  0  0  0  0
  129.7143  129.9841  151.7772 H   0  0  0  0  0  0  0  0  0  0  0  0
  130.6573  128.6505  151.0694 H   0  0  0  0  0  0  0  0  0  0  0  0
  132.4246  128.9955  152.7742 H   0  0  0  0  0  0  0  0  0  0  0  0
  132.1427  130.4819  151.8364 H   0  0  0  0  0  0  0  0  0  0  0  0
  131.7002  128.8251  155.0811 H   0  0  0  0  0  0  0  0  0  0  0  0
  131.1936  130.0321  157.1642 H   0  0  0  0  0  0  0  0  0  0  0  0
  129.6834  131.0613  158.6993 H   0  0  0  0  0  0  0  0  0  0  0  0
  130.7063  136.2557  158.9431 H   0  0  0  0  0  0  0  0  0  0  0  0
  130.1738  137.8271  160.7784 H   0  0  0  0  0  0  0  0  0  0  0  0
  130.1303  137.1209  162.4117 H   0  0  0  0  0  0  0  0  0  0  0  0
  132.5048  137.6989  159.4435 H   0  0  0  0  0  0  0  0  0  0  0  0
  135.0128  137.1966  160.1997 H   0  0  0  0  0  0  0  0  0  0  0  0
  132.0882  134.7979  163.5737 H   0  0  0  0  0  0  0  0  0  0  0  0
  133.0223  136.0442  164.4352 H   0  0  0  0  0  0  0  0  0  0  0  0
  131.3450  136.3735  163.9387 H   0  0  0  0  0  0  0  0  0  0  0  0
  127.8923  135.5833  158.7152 H   0  0  0  0  0  0  0  0  0  0  0  0
  125.3720  135.8476  159.5477 H   0  0  0  0  0  0  0  0  0  0  0  0
  127.2039  138.0395  163.5043 H   0  0  0  0  0  0  0  0  0  0  0  0
  127.9712  138.2373  165.8343 H   0  0  0  0  0  0  0  0  0  0  0  0
  129.7462  134.3627  165.5845 H   0  0  0  0  0  0  0  0  0  0  0  0
  128.9731  134.1552  163.2573 H   0  0  0  0  0  0  0  0  0  0  0  0
  130.4948  133.6052  154.9042 H   0  0  0  0  0  0  0  0  0  0  0  0
  131.0151  132.3850  152.8323 H   0  0  0  0  0  0  0  0  0  0  0  0
  1  2  1  0
  1 38  1  0
  1 39  1  0
  1 40  1  0
  2  3  1  0
  2 41  1  0
  2 42  1  0
  3 37  2  0
  3  4  1  0
  4  5  2  0
  4 43  1  0
  5  6  1  0
  5 44  1  0
  6  7  1  0
  6 36  2  0
  7 34  1  0
  7  8  2  0
  8  9  1  0
  8 45  1  0
  9 10  1  0
  9 11  1  0
 11 12  1  0
 11 34  2  0
 12 13  1  0
 12 46  1  0
 13 14  1  1
 13 15  1  0
 13 22  1  0
 15 16  1  0
 15 47  1  0
 15 48  1  0
 16 20  1  0
 16 17  2  0
 17 18  1  0
 17 49  1  0
 18 19  2  0
 18 50  1  0
 19 20  1  0
 20 21  1  0
 21 51  1  0
 21 52  1  0
 21 53  1  0
 22 26  1  0
 22 23  2  0
 23 24  1  0
 23 54  1  0
 24 25  2  0
 24 55  1  0
 25 26  1  0
 26 27  1  0
 27 33  1  0
 27 28  2  0
 28 29  1  0
 28 56  1  0
 29 30  2  0
 29 57  1  0
 30 31  1  0
 30 32  1  0
 32 33  2  0
 32 58  1  0
 33 59  1  0
 34 35  1  0
 36 37  1  0
 36 60  1  0
 37 61  1  0
M  CHG  1  34   1
M  END
>  <DOCK_score>  (1) 
-56.463657

>  <SMILES>  (1) 
CCc1ccc(-c2c[nH]c(N[C@@H](Cc3ccnn3C)c3ccnn3-c3ccc(F)cc3)[nH+]2)cc1

$$$$
