Oc1ccc2ccc(Nc3[nH]c4ccc(NC[C@H]5CC5(F)F)cc4[nH+]3)cc2c1
     RDKit          3D

 47 51  0  0  1  0  0  0  0  0999 V2000
  123.9307  134.4854  161.4011 O   0  0  0  0  0  0  0  0  0  0  0  0
  124.9036  133.7736  160.7737 C   0  0  0  0  0  0  0  0  0  0  0  0
  124.6538  132.4521  160.3903 C   0  0  0  0  0  0  0  0  0  0  0  0
  125.6075  131.7143  159.7614 C   0  0  0  0  0  0  0  0  0  0  0  0
  126.8642  132.2831  159.4903 C   0  0  0  0  0  0  0  0  0  0  0  0
  127.8698  131.5455  158.8412 C   0  0  0  0  0  0  0  0  0  0  0  0
  129.0762  132.1188  158.5902 C   0  0  0  0  0  0  0  0  0  0  0  0
  129.3374  133.4412  158.9695 C   0  0  0  0  0  0  0  0  0  0  0  0
  130.5873  134.0045  158.6984 N   0  0  0  0  0  0  0  0  0  0  0  0
  131.3767  134.4634  159.7334 C   0  0  0  0  0  0  0  0  0  0  0  0
  132.2729  135.4893  159.6411 N   0  0  0  0  0  0  0  0  0  0  0  0
  132.4643  136.0167  158.8499 H   0  0  0  0  0  0  0  0  0  0  0  0
  132.8563  135.6386  160.8909 C   0  0  0  0  0  0  0  0  0  0  0  0
  133.8165  136.4966  161.4057 C   0  0  0  0  0  0  0  0  0  0  0  0
  134.2006  136.3875  162.7255 C   0  0  0  0  0  0  0  0  0  0  0  0
  133.6289  135.4189  163.5474 C   0  0  0  0  0  0  0  0  0  0  0  0
  134.0264  135.3187  164.8855 N   0  0  0  0  0  0  0  0  0  0  0  0
  135.3039  135.8927  165.3150 C   0  0  0  0  0  0  0  0  0  0  0  0
  135.8588  135.0816  166.4877 C   0  0  1  0  0  0  0  0  0  0  0  0
  136.0493  134.0282  166.2822 H   0  0  0  0  0  0  0  0  0  0  0  0
  136.8056  135.7950  167.4550 C   0  0  0  0  0  0  0  0  0  0  0  0
  135.3793  135.4519  167.8925 C   0  0  0  0  0  0  0  0  0  0  0  0
  134.4669  136.5062  168.0067 F   0  0  0  0  0  0  0  0  0  0  0  0
  135.2194  134.4127  168.8153 F   0  0  0  0  0  0  0  0  0  0  0  0
  132.6707  134.5561  163.0480 C   0  0  0  0  0  0  0  0  0  0  0  0
  132.2749  134.6588  161.7121 C   0  0  0  0  0  0  0  0  0  0  0  0
  131.3820  133.9756  160.9491 N   0  0  0  0  0  0  0  0  0  0  0  0
  130.8320  133.2385  161.2577 H   0  0  0  0  0  0  0  0  0  0  0  0
  128.3750  134.1922  159.6076 C   0  0  0  0  0  0  0  0  0  0  0  0
  127.1217  133.6208  159.8831 C   0  0  0  0  0  0  0  0  0  0  0  0
  126.1129  134.3578  160.5262 C   0  0  0  0  0  0  0  0  0  0  0  0
  124.1898  135.3885  161.6300 H   0  0  0  0  0  0  0  0  0  0  0  0
  123.6899  132.0111  160.5969 H   0  0  0  0  0  0  0  0  0  0  0  0
  125.4000  130.6951  159.4708 H   0  0  0  0  0  0  0  0  0  0  0  0
  127.6836  130.5246  158.5421 H   0  0  0  0  0  0  0  0  0  0  0  0
  129.8444  131.5463  158.0916 H   0  0  0  0  0  0  0  0  0  0  0  0
  130.9000  134.0732  157.7827 H   0  0  0  0  0  0  0  0  0  0  0  0
  134.2628  137.2499  160.7735 H   0  0  0  0  0  0  0  0  0  0  0  0
  134.9485  137.0567  163.1242 H   0  0  0  0  0  0  0  0  0  0  0  0
  133.4560  134.8691  165.5284 H   0  0  0  0  0  0  0  0  0  0  0  0
  136.0118  135.8648  164.4866 H   0  0  0  0  0  0  0  0  0  0  0  0
  135.1513  136.9256  165.6278 H   0  0  0  0  0  0  0  0  0  0  0  0
  137.6185  135.2110  167.8863 H   0  0  0  0  0  0  0  0  0  0  0  0
  137.0333  136.8422  167.2558 H   0  0  0  0  0  0  0  0  0  0  0  0
  132.2296  133.8065  163.6882 H   0  0  0  0  0  0  0  0  0  0  0  0
  128.5840  135.2113  159.8978 H   0  0  0  0  0  0  0  0  0  0  0  0
  126.2944  135.3790  160.8272 H   0  0  0  0  0  0  0  0  0  0  0  0
  1  2  1  0
  1 32  1  0
  2 31  2  0
  2  3  1  0
  3  4  2  0
  3 33  1  0
  4  5  1  0
  4 34  1  0
  5 30  2  0
  5  6  1  0
  6  7  2  0
  6 35  1  0
  7  8  1  0
  7 36  1  0
  8  9  1  0
  8 29  2  0
  9 37  1  0
 10  9  1  0
 10 27  2  0
 10 11  1  0
 11 12  1  0
 11 13  1  0
 13 26  2  0
 13 14  1  0
 14 15  2  0
 14 38  1  0
 15 16  1  0
 15 39  1  0
 16 17  1  0
 16 25  2  0
 17 18  1  0
 17 40  1  0
 18 19  1  0
 18 41  1  0
 18 42  1  0
 19 20  1  6
 19 22  1  0
 19 21  1  0
 21 22  1  0
 21 43  1  0
 21 44  1  0
 22 23  1  0
 22 24  1  0
 25 26  1  0
 25 45  1  0
 26 27  1  0
 27 28  1  0
 29 30  1  0
 29 46  1  0
 30 31  1  0
 31 47  1  0
M  CHG  1  27   1
M  END
>  <DOCK_score>  (1) 
-45.177391

>  <SMILES>  (1) 
Oc1ccc2ccc(Nc3[nH]c4ccc(NC[C@H]5CC5(F)F)cc4[nH+]3)cc2c1

$$$$
