OCc1ccc(-c2c[nH]c(Nc3ccc(Nc4ccccc4)cc3)[nH+]2)cc1
     RDKit          3D

 48 51  0  0  1  0  0  0  0  0999 V2000
  131.1731  127.7823  152.2095 O   0  0  0  0  0  0  0  0  0  0  0  0
  131.2291  129.1712  151.8756 C   0  0  0  0  0  0  0  0  0  0  0  0
  130.9517  129.9951  153.1066 C   0  0  0  0  0  0  0  0  0  0  0  0
  130.0913  131.0753  153.0331 C   0  0  0  0  0  0  0  0  0  0  0  0
  129.8290  131.8300  154.1583 C   0  0  0  0  0  0  0  0  0  0  0  0
  130.4420  131.5085  155.3681 C   0  0  0  0  0  0  0  0  0  0  0  0
  130.1684  132.3193  156.5798 C   0  0  0  0  0  0  0  0  0  0  0  0
  129.6363  131.8640  157.7414 C   0  0  0  0  0  0  0  0  0  0  0  0
  129.5554  132.9397  158.5914 N   0  0  0  0  0  0  0  0  0  0  0  0
  129.2154  132.9298  159.4998 H   0  0  0  0  0  0  0  0  0  0  0  0
  130.0409  134.0222  157.9238 C   0  0  0  0  0  0  0  0  0  0  0  0
  130.1336  135.3078  158.4308 N   0  0  0  0  0  0  0  0  0  0  0  0
  129.2133  135.7507  159.3889 C   0  0  0  0  0  0  0  0  0  0  0  0
  129.5950  136.6935  160.3346 C   0  0  0  0  0  0  0  0  0  0  0  0
  128.6861  137.1344  161.2757 C   0  0  0  0  0  0  0  0  0  0  0  0
  127.3934  136.6267  161.2837 C   0  0  0  0  0  0  0  0  0  0  0  0
  126.4734  137.0697  162.2411 N   0  0  0  0  0  0  0  0  0  0  0  0
  126.9187  137.4826  163.4991 C   0  0  0  0  0  0  0  0  0  0  0  0
  126.6782  138.7810  163.9310 C   0  0  0  0  0  0  0  0  0  0  0  0
  127.1163  139.1847  165.1770 C   0  0  0  0  0  0  0  0  0  0  0  0
  127.8015  138.3009  165.9906 C   0  0  0  0  0  0  0  0  0  0  0  0
  128.0466  137.0092  165.5619 C   0  0  0  0  0  0  0  0  0  0  0  0
  127.6077  136.5975  164.3190 C   0  0  0  0  0  0  0  0  0  0  0  0
  127.0134  135.6795  160.3415 C   0  0  0  0  0  0  0  0  0  0  0  0
  127.9207  135.2428  159.3969 C   0  0  0  0  0  0  0  0  0  0  0  0
  130.4115  133.6459  156.7241 N   0  0  0  0  0  0  0  0  0  0  0  0
  130.7959  134.2242  156.0469 H   0  0  0  0  0  0  0  0  0  0  0  0
  131.3125  130.4222  155.4353 C   0  0  0  0  0  0  0  0  0  0  0  0
  131.5631  129.6711  154.3049 C   0  0  0  0  0  0  0  0  0  0  0  0
  130.3177  127.4958  152.5577 H   0  0  0  0  0  0  0  0  0  0  0  0
  132.2208  129.4124  151.4929 H   0  0  0  0  0  0  0  0  0  0  0  0
  130.4817  129.3920  151.1144 H   0  0  0  0  0  0  0  0  0  0  0  0
  129.6204  131.3261  152.0941 H   0  0  0  0  0  0  0  0  0  0  0  0
  129.1535  132.6706  154.1006 H   0  0  0  0  0  0  0  0  0  0  0  0
  129.3347  130.8497  157.9567 H   0  0  0  0  0  0  0  0  0  0  0  0
  130.8359  135.9014  158.1222 H   0  0  0  0  0  0  0  0  0  0  0  0
  130.6016  137.0850  160.3311 H   0  0  0  0  0  0  0  0  0  0  0  0
  128.9818  137.8706  162.0085 H   0  0  0  0  0  0  0  0  0  0  0  0
  125.5266  137.0900  162.0310 H   0  0  0  0  0  0  0  0  0  0  0  0
  126.1465  139.4729  163.2946 H   0  0  0  0  0  0  0  0  0  0  0  0
  126.9272  140.1929  165.5147 H   0  0  0  0  0  0  0  0  0  0  0  0
  128.1463  138.6203  166.9629 H   0  0  0  0  0  0  0  0  0  0  0  0
  128.5823  136.3217  166.1996 H   0  0  0  0  0  0  0  0  0  0  0  0
  127.8001  135.5888  163.9844 H   0  0  0  0  0  0  0  0  0  0  0  0
  126.0082  135.2845  160.3479 H   0  0  0  0  0  0  0  0  0  0  0  0
  127.6254  134.5062  158.6645 H   0  0  0  0  0  0  0  0  0  0  0  0
  131.7905  130.1688  156.3700 H   0  0  0  0  0  0  0  0  0  0  0  0
  132.2372  128.8289  154.3558 H   0  0  0  0  0  0  0  0  0  0  0  0
  1  2  1  0
  1 30  1  0
  2  3  1  0
  2 31  1  0
  2 32  1  0
  3 29  2  0
  3  4  1  0
  4  5  2  0
  4 33  1  0
  5  6  1  0
  5 34  1  0
  6  7  1  0
  6 28  2  0
  7 26  1  0
  7  8  2  0
  8  9  1  0
  8 35  1  0
  9 10  1  0
  9 11  1  0
 11 12  1  0
 11 26  2  0
 12 13  1  0
 12 36  1  0
 13 25  1  0
 13 14  2  0
 14 15  1  0
 14 37  1  0
 15 16  2  0
 15 38  1  0
 16 17  1  0
 16 24  1  0
 17 18  1  0
 17 39  1  0
 18 23  1  0
 18 19  2  0
 19 20  1  0
 19 40  1  0
 20 21  2  0
 20 41  1  0
 21 22  1  0
 21 42  1  0
 22 23  2  0
 22 43  1  0
 23 44  1  0
 24 25  2  0
 24 45  1  0
 25 46  1  0
 26 27  1  0
 28 29  1  0
 28 47  1  0
 29 48  1  0
M  CHG  1  26   1
M  END
>  <DOCK_score>  (1) 
-52.692337

>  <SMILES>  (1) 
OCc1ccc(-c2c[nH]c(Nc3ccc(Nc4ccccc4)cc3)[nH+]2)cc1

$$$$
