O=C1CC[C@H](NC(NC2CC2)=[NH+][C@H]2COc3cc(-c4ccccc4)ccc3C2)CN1
     RDKit          3D

 59 63  0  0  1  0  0  0  0  0999 V2000
  123.9041  133.7189  161.8086 O   0  0  0  0  0  0  0  0  0  0  0  0
  125.0581  133.9475  161.5138 C   0  0  0  0  0  0  0  0  0  0  0  0
  125.9183  132.8003  161.0675 C   0  0  0  0  0  0  0  0  0  0  0  0
  127.3957  133.1886  161.1646 C   0  0  0  0  0  0  0  0  0  0  0  0
  127.5836  134.5530  160.4906 C   0  0  2  0  0  0  0  0  0  0  0  0
  127.1604  134.5263  159.4864 H   0  0  0  0  0  0  0  0  0  0  0  0
  129.0117  134.8708  160.4138 N   0  0  0  0  0  0  0  0  0  0  0  0
  129.7433  134.4865  159.3151 C   0  0  0  0  0  0  0  0  0  0  0  0
  129.1348  133.8040  158.2885 N   0  0  0  0  0  0  0  0  0  0  0  0
  129.9145  133.3944  157.1176 C   0  0  0  0  0  0  0  0  0  0  0  0
  129.3636  132.2474  156.2681 C   0  0  0  0  0  0  0  0  0  0  0  0
  130.5850  132.0199  157.1610 C   0  0  0  0  0  0  0  0  0  0  0  0
  131.0140  134.7691  159.2468 N   0  0  0  0  0  0  0  0  0  0  0  0
  131.4332  134.9127  158.3839 H   0  0  0  0  0  0  0  0  0  0  0  0
  131.8088  134.8699  160.4733 C   0  0  1  0  0  0  0  0  0  0  0  0
  131.1750  134.6791  161.3393 H   0  0  0  0  0  0  0  0  0  0  0  0
  132.9521  133.8477  160.4340 C   0  0  0  0  0  0  0  0  0  0  0  0
  133.6434  133.8976  161.6827 O   0  0  0  0  0  0  0  0  0  0  0  0
  134.0176  135.1160  162.1537 C   0  0  0  0  0  0  0  0  0  0  0  0
  134.9812  135.1704  163.1532 C   0  0  0  0  0  0  0  0  0  0  0  0
  135.3871  136.3980  163.6654 C   0  0  0  0  0  0  0  0  0  0  0  0
  136.4165  136.4567  164.7327 C   0  0  0  0  0  0  0  0  0  0  0  0
  136.4007  137.4939  165.6629 C   0  0  0  0  0  0  0  0  0  0  0  0
  137.3603  137.5435  166.6537 C   0  0  0  0  0  0  0  0  0  0  0  0
  138.3394  136.5689  166.7211 C   0  0  0  0  0  0  0  0  0  0  0  0
  138.3567  135.5341  165.8034 C   0  0  0  0  0  0  0  0  0  0  0  0
  137.4021  135.4747  164.8083 C   0  0  0  0  0  0  0  0  0  0  0  0
  134.8185  137.5724  163.1756 C   0  0  0  0  0  0  0  0  0  0  0  0
  133.8671  137.5111  162.1796 C   0  0  0  0  0  0  0  0  0  0  0  0
  133.4629  136.2881  161.6673 C   0  0  0  0  0  0  0  0  0  0  0  0
  132.4192  136.2696  160.5790 C   0  0  0  0  0  0  0  0  0  0  0  0
  126.8653  135.6167  161.3219 C   0  0  0  0  0  0  0  0  0  0  0  0
  125.4951  135.2043  161.6028 N   0  0  0  0  0  0  0  0  0  0  0  0
  125.6775  132.5475  160.0349 H   0  0  0  0  0  0  0  0  0  0  0  0
  125.7283  131.9362  161.7041 H   0  0  0  0  0  0  0  0  0  0  0  0
  128.0057  132.4413  160.6569 H   0  0  0  0  0  0  0  0  0  0  0  0
  127.6901  133.2531  162.2121 H   0  0  0  0  0  0  0  0  0  0  0  0
  129.4410  135.3523  161.1381 H   0  0  0  0  0  0  0  0  0  0  0  0
  128.1894  133.5934  158.3393 H   0  0  0  0  0  0  0  0  0  0  0  0
  130.4421  134.1957  156.6005 H   0  0  0  0  0  0  0  0  0  0  0  0
  128.4211  131.7975  156.5803 H   0  0  0  0  0  0  0  0  0  0  0  0
  129.5286  132.2940  155.1918 H   0  0  0  0  0  0  0  0  0  0  0  0
  131.5536  131.9168  156.6720 H   0  0  0  0  0  0  0  0  0  0  0  0
  130.4462  131.4203  158.0606 H   0  0  0  0  0  0  0  0  0  0  0  0
  133.6385  134.0956  159.6243 H   0  0  0  0  0  0  0  0  0  0  0  0
  132.5465  132.8482  160.2785 H   0  0  0  0  0  0  0  0  0  0  0  0
  135.4156  134.2576  163.5333 H   0  0  0  0  0  0  0  0  0  0  0  0
  135.6392  138.2580  165.6086 H   0  0  0  0  0  0  0  0  0  0  0  0
  137.3490  138.3471  167.3751 H   0  0  0  0  0  0  0  0  0  0  0  0
  139.0908  136.6137  167.4955 H   0  0  0  0  0  0  0  0  0  0  0  0
  139.1214  134.7737  165.8628 H   0  0  0  0  0  0  0  0  0  0  0  0
  137.4187  134.6684  164.0900 H   0  0  0  0  0  0  0  0  0  0  0  0
  135.1251  138.5288  163.5728 H   0  0  0  0  0  0  0  0  0  0  0  0
  133.4305  138.4225  161.7986 H   0  0  0  0  0  0  0  0  0  0  0  0
  132.8814  136.5364  159.6286 H   0  0  0  0  0  0  0  0  0  0  0  0
  131.6361  136.9897  160.8161 H   0  0  0  0  0  0  0  0  0  0  0  0
  127.3968  135.7582  162.2628 H   0  0  0  0  0  0  0  0  0  0  0  0
  126.8557  136.5579  160.7720 H   0  0  0  0  0  0  0  0  0  0  0  0
  124.8610  135.8883  161.8690 H   0  0  0  0  0  0  0  0  0  0  0  0
  1  2  2  0
  2 33  1  0
  2  3  1  0
  3  4  1  0
  3 34  1  0
  3 35  1  0
  4  5  1  0
  4 36  1  0
  4 37  1  0
  5  6  1  6
  5  7  1  0
  5 32  1  0
  7 38  1  0
  8  7  1  0
  8  9  1  0
  8 13  2  0
  9 10  1  0
  9 39  1  0
 10 12  1  0
 10 11  1  0
 10 40  1  0
 11 12  1  0
 11 41  1  0
 11 42  1  0
 12 43  1  0
 12 44  1  0
 13 14  1  0
 13 15  1  0
 15 16  1  1
 15 31  1  0
 15 17  1  0
 17 18  1  0
 17 45  1  0
 17 46  1  0
 18 19  1  0
 19 30  2  0
 19 20  1  0
 20 21  2  0
 20 47  1  0
 21 22  1  0
 21 28  1  0
 22 27  1  0
 22 23  2  0
 23 24  1  0
 23 48  1  0
 24 25  2  0
 24 49  1  0
 25 26  1  0
 25 50  1  0
 26 27  2  0
 26 51  1  0
 27 52  1  0
 28 29  2  0
 28 53  1  0
 29 30  1  0
 29 54  1  0
 30 31  1  0
 31 55  1  0
 31 56  1  0
 32 33  1  0
 32 57  1  0
 32 58  1  0
 33 59  1  0
M  CHG  1  13   1
M  END
>  <DOCK_score>  (1) 
-51.65723

>  <SMILES>  (1) 
O=C1CC[C@H](NC(NC2CC2)=[NH+][C@H]2COc3cc(-c4ccccc4)ccc3C2)CN1

$$$$
