CC[C@H](Nc1[nH]c2ccccc2[nH+]1)c1cccc(C2(O)CC3CC=CCC3C2)c1
     RDKit          3D

 59 63  0  0  1  0  0  0  0  0999 V2000
  131.2104  129.8365  158.4189 C   0  0  0  0  0  0  0  0  0  0  0  0
  130.1998  130.6115  159.2670 C   0  0  0  0  0  0  0  0  0  0  0  0
  129.2855  131.4281  158.3514 C   0  0  2  0  0  0  0  0  0  0  0  0
  128.7545  130.7572  157.6761 H   0  0  0  0  0  0  0  0  0  0  0  0
  130.0914  132.3698  157.5705 N   0  0  0  0  0  0  0  0  0  0  0  0
  130.0860  132.3050  156.1972 C   0  0  0  0  0  0  0  0  0  0  0  0
  130.7744  133.1125  155.3931 N   0  0  0  0  0  0  0  0  0  0  0  0
  131.3551  133.8354  155.6774 H   0  0  0  0  0  0  0  0  0  0  0  0
  130.5257  132.7476  154.0961 C   0  0  0  0  0  0  0  0  0  0  0  0
  130.9605  133.2222  152.8619 C   0  0  0  0  0  0  0  0  0  0  0  0
  130.5099  132.6290  151.7026 C   0  0  0  0  0  0  0  0  0  0  0  0
  129.6255  131.5615  151.7563 C   0  0  0  0  0  0  0  0  0  0  0  0
  129.1852  131.0793  152.9698 C   0  0  0  0  0  0  0  0  0  0  0  0
  129.6304  131.6669  154.1505 C   0  0  0  0  0  0  0  0  0  0  0  0
  129.3875  131.4294  155.4779 N   0  0  0  0  0  0  0  0  0  0  0  0
  128.8046  130.7403  155.8333 H   0  0  0  0  0  0  0  0  0  0  0  0
  128.2901  132.1912  159.1867 C   0  0  0  0  0  0  0  0  0  0  0  0
  127.0728  131.6187  159.5064 C   0  0  0  0  0  0  0  0  0  0  0  0
  126.1622  132.3164  160.2773 C   0  0  0  0  0  0  0  0  0  0  0  0
  126.4639  133.5912  160.7191 C   0  0  0  0  0  0  0  0  0  0  0  0
  127.6804  134.1637  160.3992 C   0  0  0  0  0  0  0  0  0  0  0  0
  128.0117  135.5510  160.8861 C   0  0  0  0  0  0  0  0  0  0  0  0
  126.9118  136.0867  161.6246 O   0  0  0  0  0  0  0  0  0  0  0  0
  128.3446  136.4690  159.6864 C   0  0  0  0  0  0  0  0  0  0  0  0
  129.8068  136.8733  159.8707 C   0  0  1  0  0  0  0  0  0  0  0  0
  130.1403  138.2929  159.4392 C   0  0  0  0  0  0  0  0  0  0  0  0
  131.5143  138.6255  159.9711 C   0  0  0  0  0  0  0  0  0  0  0  0
  132.1057  137.9754  160.9252 C   0  0  0  0  0  0  0  0  0  0  0  0
  131.5030  136.8000  161.6571 C   0  0  0  0  0  0  0  0  0  0  0  0
  130.0012  136.8214  161.4143 C   0  0  2  0  0  0  0  0  0  0  0  0
  129.2820  135.5137  161.7753 C   0  0  0  0  0  0  0  0  0  0  0  0
  128.5937  133.4636  159.6328 C   0  0  0  0  0  0  0  0  0  0  0  0
  131.8617  129.2547  159.0711 H   0  0  0  0  0  0  0  0  0  0  0  0
  130.6793  129.1657  157.7435 H   0  0  0  0  0  0  0  0  0  0  0  0
  131.8101  130.5373  157.8378 H   0  0  0  0  0  0  0  0  0  0  0  0
  130.7308  131.2823  159.9423 H   0  0  0  0  0  0  0  0  0  0  0  0
  129.6001  129.9108  159.8480 H   0  0  0  0  0  0  0  0  0  0  0  0
  130.6291  133.0390  158.0223 H   0  0  0  0  0  0  0  0  0  0  0  0
  131.6492  134.0526  152.8131 H   0  0  0  0  0  0  0  0  0  0  0  0
  130.8480  132.9974  150.7453 H   0  0  0  0  0  0  0  0  0  0  0  0
  129.2795  131.1053  150.8407 H   0  0  0  0  0  0  0  0  0  0  0  0
  128.4970  130.2478  153.0047 H   0  0  0  0  0  0  0  0  0  0  0  0
  126.8354  130.6246  159.1575 H   0  0  0  0  0  0  0  0  0  0  0  0
  125.2134  131.8673  160.5310 H   0  0  0  0  0  0  0  0  0  0  0  0
  125.7505  134.1381  161.3180 H   0  0  0  0  0  0  0  0  0  0  0  0
  126.0902  136.1468  161.1182 H   0  0  0  0  0  0  0  0  0  0  0  0
  128.2192  135.9256  158.7500 H   0  0  0  0  0  0  0  0  0  0  0  0
  127.7052  137.3519  159.6989 H   0  0  0  0  0  0  0  0  0  0  0  0
  130.4714  136.1622  159.3801 H   0  0  0  0  0  0  0  0  0  0  0  0
  129.4072  138.9863  159.8512 H   0  0  0  0  0  0  0  0  0  0  0  0
  130.1398  138.3586  158.3511 H   0  0  0  0  0  0  0  0  0  0  0  0
  132.0385  139.4595  159.5284 H   0  0  0  0  0  0  0  0  0  0  0  0
  133.0951  138.2963  161.2158 H   0  0  0  0  0  0  0  0  0  0  0  0
  131.7056  136.8866  162.7247 H   0  0  0  0  0  0  0  0  0  0  0  0
  131.9255  135.8705  161.2755 H   0  0  0  0  0  0  0  0  0  0  0  0
  129.5371  137.6736  161.9108 H   0  0  0  0  0  0  0  0  0  0  0  0
  129.0123  135.5016  162.8313 H   0  0  0  0  0  0  0  0  0  0  0  0
  129.9000  134.6506  161.5274 H   0  0  0  0  0  0  0  0  0  0  0  0
  129.5445  133.9108  159.3831 H   0  0  0  0  0  0  0  0  0  0  0  0
  1  2  1  0
  1 33  1  0
  1 34  1  0
  1 35  1  0
  2  3  1  0
  2 36  1  0
  2 37  1  0
  3  4  1  6
  3  5  1  0
  3 17  1  0
  5  6  1  0
  5 38  1  0
  6 15  1  0
  6  7  2  0
  7  8  1  0
  7  9  1  0
  9 14  2  0
  9 10  1  0
 10 11  2  0
 10 39  1  0
 11 12  1  0
 11 40  1  0
 12 13  2  0
 12 41  1  0
 13 14  1  0
 13 42  1  0
 14 15  1  0
 15 16  1  0
 17 32  1  0
 17 18  2  0
 18 19  1  0
 18 43  1  0
 19 20  2  0
 19 44  1  0
 20 21  1  0
 20 45  1  0
 21 22  1  0
 21 32  2  0
 22 31  1  0
 22 23  1  0
 22 24  1  0
 23 46  1  0
 24 25  1  0
 24 47  1  0
 24 48  1  0
 25 30  1  0
 25 26  1  0
 25 49  1  6
 26 27  1  0
 26 50  1  0
 26 51  1  0
 27 28  2  0
 27 52  1  0
 28 29  1  0
 28 53  1  0
 29 30  1  0
 29 54  1  0
 29 55  1  0
 30 31  1  0
 30 56  1  1
 31 57  1  0
 31 58  1  0
 32 59  1  0
M  CHG  1   7   1
M  END
>  <DOCK_score>  (1) 
-50.575928

>  <SMILES>  (1) 
CC[C@H](Nc1[nH]c2ccccc2[nH+]1)c1cccc(C2(O)CC3CC=CCC3C2)c1

$$$$
