Cc1c(CSCCc2ccccn2)cccc1N1CC[NH+](C(c2ccccc2)c2ccccc2)CC1
     RDKit          3D

 72 76  0  0  0  0  0  0  0  0999 V2000
  134.4551  135.7696  163.8208 C   0  0  0  0  0  0  0  0  0  0  0  0
  134.8044  136.7340  162.7167 C   0  0  0  0  0  0  0  0  0  0  0  0
  135.8516  137.6202  162.8785 C   0  0  0  0  0  0  0  0  0  0  0  0
  136.6449  137.6221  164.1597 C   0  0  0  0  0  0  0  0  0  0  0  0
  138.0397  136.4721  164.0088 S   0  0  0  0  0  0  0  0  0  0  0  0
  138.4840  136.1406  165.7361 C   0  0  0  0  0  0  0  0  0  0  0  0
  138.8739  137.4510  166.4229 C   0  0  0  0  0  0  0  0  0  0  0  0
  139.2430  137.1755  167.8578 C   0  0  0  0  0  0  0  0  0  0  0  0
  140.1692  137.9822  168.4919 C   0  0  0  0  0  0  0  0  0  0  0  0
  140.5013  137.7205  169.8121 C   0  0  0  0  0  0  0  0  0  0  0  0
  139.8865  136.6526  170.4481 C   0  0  0  0  0  0  0  0  0  0  0  0
  138.9699  135.8900  169.7498 C   0  0  0  0  0  0  0  0  0  0  0  0
  138.6744  136.1712  168.4955 N   0  0  0  0  0  0  0  0  0  0  0  0
  136.1763  138.5015  161.8638 C   0  0  0  0  0  0  0  0  0  0  0  0
  135.4505  138.5034  160.6865 C   0  0  0  0  0  0  0  0  0  0  0  0
  134.3988  137.6241  160.5206 C   0  0  0  0  0  0  0  0  0  0  0  0
  134.0702  136.7368  161.5378 C   0  0  0  0  0  0  0  0  0  0  0  0
  133.0070  135.8459  161.3732 N   0  0  0  0  0  0  0  0  0  0  0  0
  133.2725  134.9061  160.2749 C   0  0  0  0  0  0  0  0  0  0  0  0
  132.1139  133.9124  160.1666 C   0  0  0  0  0  0  0  0  0  0  0  0
  130.8640  134.6427  159.9177 N   0  0  0  0  0  0  0  0  0  0  0  0
  130.9478  135.1709  159.0620 H   0  0  0  0  0  0  0  0  0  0  0  0
  129.7548  133.6872  159.7957 C   0  0  0  0  0  0  0  0  0  0  0  0
  128.4723  134.4361  159.5403 C   0  0  0  0  0  0  0  0  0  0  0  0
  127.6889  134.8474  160.6024 C   0  0  0  0  0  0  0  0  0  0  0  0
  126.5149  135.5386  160.3683 C   0  0  0  0  0  0  0  0  0  0  0  0
  126.1190  135.8094  159.0717 C   0  0  0  0  0  0  0  0  0  0  0  0
  126.8998  135.3935  158.0096 C   0  0  0  0  0  0  0  0  0  0  0  0
  128.0765  134.7068  158.2438 C   0  0  0  0  0  0  0  0  0  0  0  0
  130.0249  132.7477  158.6488 C   0  0  0  0  0  0  0  0  0  0  0  0
  129.5390  131.4541  158.6859 C   0  0  0  0  0  0  0  0  0  0  0  0
  129.7826  130.5938  157.6318 C   0  0  0  0  0  0  0  0  0  0  0  0
  130.5210  131.0237  156.5451 C   0  0  0  0  0  0  0  0  0  0  0  0
  131.0114  132.3158  156.5104 C   0  0  0  0  0  0  0  0  0  0  0  0
  130.7633  133.1777  157.5622 C   0  0  0  0  0  0  0  0  0  0  0  0
  130.5996  135.5593  161.0347 C   0  0  0  0  0  0  0  0  0  0  0  0
  131.7457  136.5666  161.1502 C   0  0  0  0  0  0  0  0  0  0  0  0
  133.7241  136.2284  164.4865 H   0  0  0  0  0  0  0  0  0  0  0  0
  134.0341  134.8611  163.3899 H   0  0  0  0  0  0  0  0  0  0  0  0
  135.3544  135.5214  164.3845 H   0  0  0  0  0  0  0  0  0  0  0  0
  136.0042  137.3098  164.9843 H   0  0  0  0  0  0  0  0  0  0  0  0
  137.0215  138.6266  164.3525 H   0  0  0  0  0  0  0  0  0  0  0  0
  139.3258  135.4490  165.7683 H   0  0  0  0  0  0  0  0  0  0  0  0
  137.6314  135.6995  166.2523 H   0  0  0  0  0  0  0  0  0  0  0  0
  139.7266  137.8921  165.9067 H   0  0  0  0  0  0  0  0  0  0  0  0
  138.0321  138.1427  166.3905 H   0  0  0  0  0  0  0  0  0  0  0  0
  140.6285  138.8057  167.9654 H   0  0  0  0  0  0  0  0  0  0  0  0
  141.2212  138.3342  170.3331 H   0  0  0  0  0  0  0  0  0  0  0  0
  140.1210  136.4199  171.4764 H   0  0  0  0  0  0  0  0  0  0  0  0
  138.4868  135.0565  170.2379 H   0  0  0  0  0  0  0  0  0  0  0  0
  136.9984  139.1903  161.9911 H   0  0  0  0  0  0  0  0  0  0  0  0
  135.7063  139.1936  159.8962 H   0  0  0  0  0  0  0  0  0  0  0  0
  133.8328  137.6258  159.6009 H   0  0  0  0  0  0  0  0  0  0  0  0
  133.3674  135.4575  159.3395 H   0  0  0  0  0  0  0  0  0  0  0  0
  134.1977  134.3657  160.4745 H   0  0  0  0  0  0  0  0  0  0  0  0
  132.0278  133.3517  161.0974 H   0  0  0  0  0  0  0  0  0  0  0  0
  132.3020  133.2233  159.3433 H   0  0  0  0  0  0  0  0  0  0  0  0
  129.6642  133.1160  160.7197 H   0  0  0  0  0  0  0  0  0  0  0  0
  127.9958  134.6320  161.6151 H   0  0  0  0  0  0  0  0  0  0  0  0
  125.9046  135.8631  161.1981 H   0  0  0  0  0  0  0  0  0  0  0  0
  125.1995  136.3455  158.8887 H   0  0  0  0  0  0  0  0  0  0  0  0
  126.5903  135.6048  156.9966 H   0  0  0  0  0  0  0  0  0  0  0  0
  128.6863  134.3816  157.4139 H   0  0  0  0  0  0  0  0  0  0  0  0
  128.9658  131.1168  159.5369 H   0  0  0  0  0  0  0  0  0  0  0  0
  129.3998  129.5843  157.6590 H   0  0  0  0  0  0  0  0  0  0  0  0
  130.7152  130.3503  155.7235 H   0  0  0  0  0  0  0  0  0  0  0  0
  131.5885  132.6517  155.6616 H   0  0  0  0  0  0  0  0  0  0  0  0
  131.1467  134.1871  157.5352 H   0  0  0  0  0  0  0  0  0  0  0  0
  130.5214  134.9902  161.9610 H   0  0  0  0  0  0  0  0  0  0  0  0
  129.6652  136.0910  160.8550 H   0  0  0  0  0  0  0  0  0  0  0  0
  131.5570  137.2376  161.9883 H   0  0  0  0  0  0  0  0  0  0  0  0
  131.8154  137.1454  160.2292 H   0  0  0  0  0  0  0  0  0  0  0  0
  1  2  1  0
  1 38  1  0
  1 39  1  0
  1 40  1  0
  2 17  2  0
  2  3  1  0
  3  4  1  0
  3 14  2  0
  4  5  1  0
  4 41  1  0
  4 42  1  0
  5  6  1  0
  6  7  1  0
  6 43  1  0
  6 44  1  0
  7  8  1  0
  7 45  1  0
  7 46  1  0
  8 13  1  0
  8  9  2  0
  9 10  1  0
  9 47  1  0
 10 11  2  0
 10 48  1  0
 11 12  1  0
 11 49  1  0
 12 13  2  0
 12 50  1  0
 14 15  1  0
 14 51  1  0
 15 16  2  0
 15 52  1  0
 16 17  1  0
 16 53  1  0
 17 18  1  0
 18 37  1  0
 18 19  1  0
 19 20  1  0
 19 54  1  0
 19 55  1  0
 20 21  1  0
 20 56  1  0
 20 57  1  0
 21 22  1  0
 21 23  1  0
 21 36  1  0
 23 24  1  0
 23 30  1  0
 23 58  1  0
 24 29  1  0
 24 25  2  0
 25 26  1  0
 25 59  1  0
 26 27  2  0
 26 60  1  0
 27 28  1  0
 27 61  1  0
 28 29  2  0
 28 62  1  0
 29 63  1  0
 30 35  1  0
 30 31  2  0
 31 32  1  0
 31 64  1  0
 32 33  2  0
 32 65  1  0
 33 34  1  0
 33 66  1  0
 34 35  2  0
 34 67  1  0
 35 68  1  0
 36 37  1  0
 36 69  1  0
 36 70  1  0
 37 71  1  0
 37 72  1  0
M  CHG  1  21   1
M  END
>  <DOCK_score>  (1) 
-57.507103

>  <SMILES>  (1) 
Cc1c(CSCCc2ccccn2)cccc1N1CC[NH+](C(c2ccccc2)c2ccccc2)CC1

$$$$
