Nc1ccc(-c2c[nH]c(NC(c3ccccc3Cl)[C@@H]3CCCc4ccc(N)cc43)[nH+]2)cc1
     RDKit          3D

 59 63  0  0  1  0  0  0  0  0999 V2000
  131.1519  129.7132  152.4569 N   0  0  0  0  0  0  0  0  0  0  0  0
  130.9179  130.4348  153.6300 C   0  0  0  0  0  0  0  0  0  0  0  0
  130.2195  131.6355  153.5788 C   0  0  0  0  0  0  0  0  0  0  0  0
  129.9878  132.3491  154.7358 C   0  0  0  0  0  0  0  0  0  0  0  0
  130.4543  131.8654  155.9571 C   0  0  0  0  0  0  0  0  0  0  0  0
  130.2061  132.6314  157.2031 C   0  0  0  0  0  0  0  0  0  0  0  0
  129.5170  132.1929  158.2854 C   0  0  0  0  0  0  0  0  0  0  0  0
  129.5283  133.2142  159.2058 N   0  0  0  0  0  0  0  0  0  0  0  0
  129.1163  133.2011  160.0838 H   0  0  0  0  0  0  0  0  0  0  0  0
  130.2245  134.2468  158.6573 C   0  0  0  0  0  0  0  0  0  0  0  0
  130.4663  135.4680  159.2630 N   0  0  0  0  0  0  0  0  0  0  0  0
  129.9545  135.7317  160.6101 C   0  0  2  0  0  0  0  0  0  0  0  0
  128.4519  135.6178  160.6079 C   0  0  0  0  0  0  0  0  0  0  0  0
  127.7372  135.9222  159.4644 C   0  0  0  0  0  0  0  0  0  0  0  0
  126.3589  135.8182  159.4624 C   0  0  0  0  0  0  0  0  0  0  0  0
  125.6942  135.4098  160.6039 C   0  0  0  0  0  0  0  0  0  0  0  0
  126.4076  135.1048  161.7475 C   0  0  0  0  0  0  0  0  0  0  0  0
  127.7879  135.2032  161.7484 C   0  0  0  0  0  0  0  0  0  0  0  0
  128.6852  134.8134  163.1824 Cl  0  0  0  0  0  0  0  0  0  0  0  0
  130.3584  137.1429  161.0419 C   0  0  2  0  0  0  0  0  0  0  0  0
  129.9756  137.3347  162.0443 H   0  0  0  0  0  0  0  0  0  0  0  0
  129.7582  138.1576  160.0710 C   0  0  0  0  0  0  0  0  0  0  0  0
  130.3465  139.5375  160.3884 C   0  0  0  0  0  0  0  0  0  0  0  0
  131.8191  139.5377  159.9835 C   0  0  0  0  0  0  0  0  0  0  0  0
  132.5321  138.3508  160.5776 C   0  0  0  0  0  0  0  0  0  0  0  0
  133.9199  138.3951  160.6375 C   0  0  0  0  0  0  0  0  0  0  0  0
  134.6347  137.3379  161.1570 C   0  0  0  0  0  0  0  0  0  0  0  0
  133.9612  136.2208  161.6357 C   0  0  0  0  0  0  0  0  0  0  0  0
  134.6751  135.1445  162.1674 N   0  0  0  0  0  0  0  0  0  0  0  0
  132.5767  136.1808  161.5826 C   0  0  0  0  0  0  0  0  0  0  0  0
  131.8613  137.2470  161.0557 C   0  0  0  0  0  0  0  0  0  0  0  0
  130.6237  133.8965  157.4590 N   0  0  0  0  0  0  0  0  0  0  0  0
  131.1375  134.4526  156.8525 H   0  0  0  0  0  0  0  0  0  0  0  0
  131.1593  130.6638  156.0052 C   0  0  0  0  0  0  0  0  0  0  0  0
  131.3839  129.9506  154.8465 C   0  0  0  0  0  0  0  0  0  0  0  0
  130.8271  130.0511  151.6070 H   0  0  0  0  0  0  0  0  0  0  0  0
  131.6391  128.8757  152.4913 H   0  0  0  0  0  0  0  0  0  0  0  0
  129.8586  132.0100  152.6324 H   0  0  0  0  0  0  0  0  0  0  0  0
  129.4455  133.2822  154.6956 H   0  0  0  0  0  0  0  0  0  0  0  0
  129.0493  131.2265  158.4023 H   0  0  0  0  0  0  0  0  0  0  0  0
  130.9746  136.1490  158.7953 H   0  0  0  0  0  0  0  0  0  0  0  0
  130.3730  135.0049  161.3065 H   0  0  0  0  0  0  0  0  0  0  0  0
  128.2558  136.2416  158.5725 H   0  0  0  0  0  0  0  0  0  0  0  0
  125.8010  136.0564  158.5689 H   0  0  0  0  0  0  0  0  0  0  0  0
  124.6171  135.3294  160.6019 H   0  0  0  0  0  0  0  0  0  0  0  0
  125.8883  134.7854  162.6389 H   0  0  0  0  0  0  0  0  0  0  0  0
  128.6751  138.1841  160.1909 H   0  0  0  0  0  0  0  0  0  0  0  0
  130.0075  137.8789  159.0472 H   0  0  0  0  0  0  0  0  0  0  0  0
  130.2595  139.7369  161.4565 H   0  0  0  0  0  0  0  0  0  0  0  0
  129.8114  140.3033  159.8272 H   0  0  0  0  0  0  0  0  0  0  0  0
  132.2896  140.4544  160.3389 H   0  0  0  0  0  0  0  0  0  0  0  0
  131.8931  139.4944  158.8969 H   0  0  0  0  0  0  0  0  0  0  0  0
  134.4435  139.2649  160.2690 H   0  0  0  0  0  0  0  0  0  0  0  0
  135.7132  137.3791  161.1963 H   0  0  0  0  0  0  0  0  0  0  0  0
  135.6446  135.1431  162.1370 H   0  0  0  0  0  0  0  0  0  0  0  0
  134.2014  134.3984  162.5672 H   0  0  0  0  0  0  0  0  0  0  0  0
  132.0509  135.3136  161.9538 H   0  0  0  0  0  0  0  0  0  0  0  0
  131.5259  130.2897  156.9496 H   0  0  0  0  0  0  0  0  0  0  0  0
  131.9259  129.0173  154.8838 H   0  0  0  0  0  0  0  0  0  0  0  0
  1  2  1  0
  1 36  1  0
  1 37  1  0
  2 35  2  0
  2  3  1  0
  3  4  2  0
  3 38  1  0
  4  5  1  0
  4 39  1  0
  5  6  1  0
  5 34  2  0
  6 32  1  0
  6  7  2  0
  7  8  1  0
  7 40  1  0
  8  9  1  0
  8 10  1  0
 10 11  1  0
 10 32  2  0
 11 12  1  0
 11 41  1  0
 12 13  1  0
 12 20  1  0
 12 42  1  1
 13 18  1  0
 13 14  2  0
 14 15  1  0
 14 43  1  0
 15 16  2  0
 15 44  1  0
 16 17  1  0
 16 45  1  0
 17 18  2  0
 17 46  1  0
 18 19  1  0
 20 21  1  1
 20 31  1  0
 20 22  1  0
 22 23  1  0
 22 47  1  0
 22 48  1  0
 23 24  1  0
 23 49  1  0
 23 50  1  0
 24 25  1  0
 24 51  1  0
 24 52  1  0
 25 31  2  0
 25 26  1  0
 26 27  2  0
 26 53  1  0
 27 28  1  0
 27 54  1  0
 28 29  1  0
 28 30  2  0
 29 55  1  0
 29 56  1  0
 30 31  1  0
 30 57  1  0
 32 33  1  0
 34 35  1  0
 34 58  1  0
 35 59  1  0
M  CHG  1  32   1
M  END
>  <DOCK_score>  (1) 
-61.286434

>  <SMILES>  (1) 
Nc1ccc(-c2c[nH]c(NC(c3ccccc3Cl)[C@@H]3CCCc4ccc(N)cc43)[nH+]2)cc1

$$$$
