Cn1nccc1-c1cccc([C@H](Nc2[nH]cc(-c3ccc(N)cc3)[nH+]2)c2cccc(F)c2)c1
     RDKit          3D

 57 61  0  0  1  0  0  0  0  0999 V2000
  133.5238  140.1600  162.9460 C   0  0  0  0  0  0  0  0  0  0  0  0
  133.9876  139.9572  161.5711 N   0  0  0  0  0  0  0  0  0  0  0  0
  135.2549  140.2819  161.0705 N   0  0  0  0  0  0  0  0  0  0  0  0
  135.2974  139.9552  159.8036 C   0  0  0  0  0  0  0  0  0  0  0  0
  134.0648  139.4105  159.4432 C   0  0  0  0  0  0  0  0  0  0  0  0
  133.2656  139.4131  160.5512 C   0  0  0  0  0  0  0  0  0  0  0  0
  131.8728  138.9194  160.6291 C   0  0  0  0  0  0  0  0  0  0  0  0
  130.8421  139.7849  160.9971 C   0  0  0  0  0  0  0  0  0  0  0  0
  129.5452  139.3196  161.0636 C   0  0  0  0  0  0  0  0  0  0  0  0
  129.2667  137.9952  160.7759 C   0  0  0  0  0  0  0  0  0  0  0  0
  130.2847  137.1309  160.4151 C   0  0  0  0  0  0  0  0  0  0  0  0
  129.9724  135.6899  160.1034 C   0  0  2  0  0  0  0  0  0  0  0  0
  130.5181  135.0431  160.7903 H   0  0  0  0  0  0  0  0  0  0  0  0
  130.3741  135.3898  158.7269 N   0  0  0  0  0  0  0  0  0  0  0  0
  130.1841  134.1188  158.2119 C   0  0  0  0  0  0  0  0  0  0  0  0
  129.6322  133.0682  158.8776 N   0  0  0  0  0  0  0  0  0  0  0  0
  129.3044  133.0746  159.7905 H   0  0  0  0  0  0  0  0  0  0  0  0
  129.6255  131.9959  158.0173 C   0  0  0  0  0  0  0  0  0  0  0  0
  130.1729  132.4227  156.8526 C   0  0  0  0  0  0  0  0  0  0  0  0
  130.3718  131.6057  155.6304 C   0  0  0  0  0  0  0  0  0  0  0  0
  129.7565  131.9758  154.4355 C   0  0  0  0  0  0  0  0  0  0  0  0
  129.9475  131.2182  153.2994 C   0  0  0  0  0  0  0  0  0  0  0  0
  130.7433  130.0797  153.3477 C   0  0  0  0  0  0  0  0  0  0  0  0
  130.9311  129.3106  152.1968 N   0  0  0  0  0  0  0  0  0  0  0  0
  131.3531  129.7056  154.5392 C   0  0  0  0  0  0  0  0  0  0  0  0
  131.1696  130.4634  155.6765 C   0  0  0  0  0  0  0  0  0  0  0  0
  130.5012  133.7306  157.0006 N   0  0  0  0  0  0  0  0  0  0  0  0
  130.9075  134.2891  156.3195 H   0  0  0  0  0  0  0  0  0  0  0  0
  128.4924  135.4518  160.2580 C   0  0  0  0  0  0  0  0  0  0  0  0
  127.9797  135.0577  161.4803 C   0  0  0  0  0  0  0  0  0  0  0  0
  126.6225  134.8394  161.6237 C   0  0  0  0  0  0  0  0  0  0  0  0
  125.7760  135.0149  160.5451 C   0  0  0  0  0  0  0  0  0  0  0  0
  126.2880  135.4091  159.3209 C   0  0  0  0  0  0  0  0  0  0  0  0
  125.4617  135.5805  158.2659 F   0  0  0  0  0  0  0  0  0  0  0  0
  127.6474  135.6329  159.1798 C   0  0  0  0  0  0  0  0  0  0  0  0
  131.5856  137.5854  160.3403 C   0  0  0  0  0  0  0  0  0  0  0  0
  132.9758  141.1002  163.0096 H   0  0  0  0  0  0  0  0  0  0  0  0
  132.8689  139.3375  163.2336 H   0  0  0  0  0  0  0  0  0  0  0  0
  134.3817  140.1933  163.6176 H   0  0  0  0  0  0  0  0  0  0  0  0
  136.1451  140.0855  159.1473 H   0  0  0  0  0  0  0  0  0  0  0  0
  133.7922  139.0470  158.4634 H   0  0  0  0  0  0  0  0  0  0  0  0
  131.0590  140.8180  161.2258 H   0  0  0  0  0  0  0  0  0  0  0  0
  128.7461  139.9896  161.3447 H   0  0  0  0  0  0  0  0  0  0  0  0
  128.2502  137.6348  160.8330 H   0  0  0  0  0  0  0  0  0  0  0  0
  130.7732  136.0815  158.1764 H   0  0  0  0  0  0  0  0  0  0  0  0
  129.2550  131.0036  158.2287 H   0  0  0  0  0  0  0  0  0  0  0  0
  129.1342  132.8578  154.3988 H   0  0  0  0  0  0  0  0  0  0  0  0
  129.4749  131.5073  152.3723 H   0  0  0  0  0  0  0  0  0  0  0  0
  131.4865  128.5163  152.2294 H   0  0  0  0  0  0  0  0  0  0  0  0
  130.5058  129.5713  151.3645 H   0  0  0  0  0  0  0  0  0  0  0  0
  131.9708  128.8205  154.5745 H   0  0  0  0  0  0  0  0  0  0  0  0
  131.6438  130.1725  156.6021 H   0  0  0  0  0  0  0  0  0  0  0  0
  128.6404  134.9207  162.3235 H   0  0  0  0  0  0  0  0  0  0  0  0
  126.2231  134.5320  162.5789 H   0  0  0  0  0  0  0  0  0  0  0  0
  124.7153  134.8450  160.6576 H   0  0  0  0  0  0  0  0  0  0  0  0
  128.0474  135.9454  158.2267 H   0  0  0  0  0  0  0  0  0  0  0  0
  132.3794  136.9095  160.0585 H   0  0  0  0  0  0  0  0  0  0  0  0
  1  2  1  0
  1 37  1  0
  1 38  1  0
  1 39  1  0
  2  6  1  0
  2  3  1  0
  3  4  2  0
  4  5  1  0
  4 40  1  0
  5  6  2  0
  5 41  1  0
  6  7  1  0
  7 36  1  0
  7  8  2  0
  8  9  1  0
  8 42  1  0
  9 10  2  0
  9 43  1  0
 10 11  1  0
 10 44  1  0
 11 12  1  0
 11 36  2  0
 12 13  1  1
 12 14  1  0
 12 29  1  0
 14 45  1  0
 15 14  1  0
 15 27  2  0
 15 16  1  0
 16 17  1  0
 16 18  1  0
 18 19  2  0
 18 46  1  0
 19 20  1  0
 19 27  1  0
 20 26  1  0
 20 21  2  0
 21 22  1  0
 21 47  1  0
 22 23  2  0
 22 48  1  0
 23 24  1  0
 23 25  1  0
 24 49  1  0
 24 50  1  0
 25 26  2  0
 25 51  1  0
 26 52  1  0
 27 28  1  0
 29 35  1  0
 29 30  2  0
 30 31  1  0
 30 53  1  0
 31 32  2  0
 31 54  1  0
 32 33  1  0
 32 55  1  0
 33 34  1  0
 33 35  2  0
 35 56  1  0
 36 57  1  0
M  CHG  1  27   1
M  END
>  <DOCK_score>  (1) 
-62.153519

>  <SMILES>  (1) 
Cn1nccc1-c1cccc([C@H](Nc2[nH]cc(-c3ccc(N)cc3)[nH+]2)c2cccc(F)c2)c1

$$$$
