O[C@@H]1[C@H]2C[C@H](CN(C=C[NH+]3CC[C@H](c4c[nH]c5ccccc45)C3)C2)[C@@H]1O
     RDKit          3D

 54 58  0  0  1  0  0  0  0  0999 V2000
  128.5755  132.9019  159.4957 O   0  0  0  0  0  0  0  0  0  0  0  0
  128.6578  131.5942  158.9252 C   0  0  2  0  0  0  0  0  0  0  0  0
  127.7306  131.0491  159.1023 H   0  0  0  0  0  0  0  0  0  0  0  0
  129.8512  130.8237  159.5340 C   0  0  1  0  0  0  0  0  0  0  0  0
  129.5636  130.2139  160.3905 H   0  0  0  0  0  0  0  0  0  0  0  0
  130.3855  129.9759  158.3493 C   0  0  0  0  0  0  0  0  0  0  0  0
  130.2805  130.9783  157.1696 C   0  0  2  0  0  0  0  0  0  0  0  0
  130.3377  130.4896  156.1969 H   0  0  0  0  0  0  0  0  0  0  0  0
  131.3982  132.0186  157.3739 C   0  0  0  0  0  0  0  0  0  0  0  0
  131.1825  132.6761  158.6706 N   0  0  0  0  0  0  0  0  0  0  0  0
  131.2023  134.0620  158.7648 C   0  0  0  0  0  0  0  0  0  0  0  0
  131.5976  134.6418  159.8826 C   0  0  0  0  0  0  0  0  0  0  0  0
  131.5053  136.0299  160.0205 N   0  0  2  0  0  0  0  0  0  0  0  0
  132.0545  136.4922  159.3115 H   0  0  0  0  0  0  0  0  0  0  0  0
  131.9481  136.4480  161.3756 C   0  0  0  0  0  0  0  0  0  0  0  0
  131.2910  137.8283  161.5909 C   0  0  0  0  0  0  0  0  0  0  0  0
  130.0666  137.8401  160.6526 C   0  0  2  0  0  0  0  0  0  0  0  0
  130.1590  138.6418  159.9199 H   0  0  0  0  0  0  0  0  0  0  0  0
  128.7981  138.0040  161.4494 C   0  0  0  0  0  0  0  0  0  0  0  0
  127.7676  137.1451  161.4957 C   0  0  0  0  0  0  0  0  0  0  0  0
  126.7946  137.6284  162.3274 N   0  0  0  0  0  0  0  0  0  0  0  0
  125.9556  137.1821  162.5220 H   0  0  0  0  0  0  0  0  0  0  0  0
  127.1812  138.8454  162.8427 C   0  0  0  0  0  0  0  0  0  0  0  0
  126.5827  139.7508  163.7130 C   0  0  0  0  0  0  0  0  0  0  0  0
  127.2393  140.9146  164.0473 C   0  0  0  0  0  0  0  0  0  0  0  0
  128.4944  141.1949  163.5242 C   0  0  0  0  0  0  0  0  0  0  0  0
  129.1006  140.3196  162.6681 C   0  0  0  0  0  0  0  0  0  0  0  0
  128.4530  139.1339  162.3156 C   0  0  0  0  0  0  0  0  0  0  0  0
  130.0870  136.4660  159.9493 C   0  0  0  0  0  0  0  0  0  0  0  0
  130.9514  131.8555  159.8678 C   0  0  0  0  0  0  0  0  0  0  0  0
  128.9323  131.6931  157.4141 C   0  0  2  0  0  0  0  0  0  0  0  0
  128.1385  131.1961  156.8562 H   0  0  0  0  0  0  0  0  0  0  0  0
  129.0251  133.0638  157.0209 O   0  0  0  0  0  0  0  0  0  0  0  0
  127.8452  133.4351  159.1532 H   0  0  0  0  0  0  0  0  0  0  0  0
  129.7544  129.1041  158.1777 H   0  0  0  0  0  0  0  0  0  0  0  0
  131.4207  129.6791  158.5179 H   0  0  0  0  0  0  0  0  0  0  0  0
  131.3613  132.7596  156.5753 H   0  0  0  0  0  0  0  0  0  0  0  0
  132.3682  131.5217  157.3705 H   0  0  0  0  0  0  0  0  0  0  0  0
  130.8941  134.6648  157.9234 H   0  0  0  0  0  0  0  0  0  0  0  0
  131.9922  134.0439  160.6908 H   0  0  0  0  0  0  0  0  0  0  0  0
  133.0341  136.5343  161.4108 H   0  0  0  0  0  0  0  0  0  0  0  0
  131.5993  135.7395  162.1269 H   0  0  0  0  0  0  0  0  0  0  0  0
  131.9843  138.6242  161.3186 H   0  0  0  0  0  0  0  0  0  0  0  0
  130.9744  137.9392  162.6280 H   0  0  0  0  0  0  0  0  0  0  0  0
  127.7152  136.2101  160.9578 H   0  0  0  0  0  0  0  0  0  0  0  0
  125.6067  139.5417  164.1256 H   0  0  0  0  0  0  0  0  0  0  0  0
  126.7731  141.6161  164.7234 H   0  0  0  0  0  0  0  0  0  0  0  0
  128.9958  142.1119  163.7968 H   0  0  0  0  0  0  0  0  0  0  0  0
  130.0772  140.5442  162.2653 H   0  0  0  0  0  0  0  0  0  0  0  0
  129.4453  135.7598  160.4762 H   0  0  0  0  0  0  0  0  0  0  0  0
  129.7716  136.5658  158.9106 H   0  0  0  0  0  0  0  0  0  0  0  0
  131.8715  131.3402  160.1435 H   0  0  0  0  0  0  0  0  0  0  0  0
  130.6241  132.4903  160.6912 H   0  0  0  0  0  0  0  0  0  0  0  0
  129.2443  133.1913  156.0878 H   0  0  0  0  0  0  0  0  0  0  0  0
  1  2  1  0
  1 34  1  0
  2  3  1  6
  2 31  1  0
  2  4  1  0
  4  5  1  1
  4 30  1  0
  4  6  1  0
  6  7  1  0
  6 35  1  0
  6 36  1  0
  7  8  1  6
  7  9  1  0
  7 31  1  0
  9 10  1  0
  9 37  1  0
  9 38  1  0
 10 11  1  0
 10 30  1  0
 11 12  2  0
 11 39  1  0
 12 13  1  0
 12 40  1  0
 13 14  1  6
 13 29  1  0
 13 15  1  0
 15 16  1  0
 15 41  1  0
 15 42  1  0
 16 17  1  0
 16 43  1  0
 16 44  1  0
 17 18  1  6
 17 19  1  0
 17 29  1  0
 19 28  1  0
 19 20  2  0
 20 21  1  0
 20 45  1  0
 21 22  1  0
 21 23  1  0
 23 28  2  0
 23 24  1  0
 24 25  2  0
 24 46  1  0
 25 26  1  0
 25 47  1  0
 26 27  2  0
 26 48  1  0
 27 28  1  0
 27 49  1  0
 29 50  1  0
 29 51  1  0
 30 52  1  0
 30 53  1  0
 31 32  1  6
 31 33  1  0
 33 54  1  0
M  CHG  1  13   1
M  END
>  <DOCK_score>  (1) 
-45.510601

>  <SMILES>  (1) 
O[C@@H]1[C@H]2C[C@H](CN(C=C[NH+]3CC[C@H](c4c[nH]c5ccccc45)C3)C2)[C@@H]1O

$$$$
