CCc1ccc(-c2c[nH]c(N[C@H](c3ccccc3)c3c(F)c(F)c(F)c(F)c3F)[nH+]2)cc1
     RDKit          3D

 51 54  0  0  1  0  0  0  0  0999 V2000
  130.6752  128.3466  152.0888 C   0  0  0  0  0  0  0  0  0  0  0  0
  131.6935  129.4452  152.4003 C   0  0  0  0  0  0  0  0  0  0  0  0
  131.2439  130.2176  153.6136 C   0  0  0  0  0  0  0  0  0  0  0  0
  131.6417  129.8123  154.8744 C   0  0  0  0  0  0  0  0  0  0  0  0
  131.2378  130.5191  155.9890 C   0  0  0  0  0  0  0  0  0  0  0  0
  130.4180  131.6367  155.8427 C   0  0  0  0  0  0  0  0  0  0  0  0
  129.9761  132.3972  157.0371 C   0  0  0  0  0  0  0  0  0  0  0  0
  129.2534  131.9054  158.0739 C   0  0  0  0  0  0  0  0  0  0  0  0
  129.0666  132.9415  158.9564 N   0  0  0  0  0  0  0  0  0  0  0  0
  128.5856  132.8998  159.7978 H   0  0  0  0  0  0  0  0  0  0  0  0
  129.6811  134.0370  158.4326 C   0  0  0  0  0  0  0  0  0  0  0  0
  129.7258  135.2921  159.0150 N   0  0  0  0  0  0  0  0  0  0  0  0
  128.6279  135.7399  159.8755 C   0  0  2  0  0  0  0  0  0  0  0  0
  128.5293  135.0602  160.7218 H   0  0  0  0  0  0  0  0  0  0  0  0
  127.3437  135.7500  159.0869 C   0  0  0  0  0  0  0  0  0  0  0  0
  126.1395  135.5160  159.7241 C   0  0  0  0  0  0  0  0  0  0  0  0
  124.9611  135.5297  159.0015 C   0  0  0  0  0  0  0  0  0  0  0  0
  124.9879  135.7678  157.6401 C   0  0  0  0  0  0  0  0  0  0  0  0
  126.1926  135.9970  157.0020 C   0  0  0  0  0  0  0  0  0  0  0  0
  127.3706  135.9876  157.7255 C   0  0  0  0  0  0  0  0  0  0  0  0
  128.9192  137.1302  160.3789 C   0  0  0  0  0  0  0  0  0  0  0  0
  129.6694  138.0017  159.6086 C   0  0  0  0  0  0  0  0  0  0  0  0
  130.1408  137.6055  158.4060 F   0  0  0  0  0  0  0  0  0  0  0  0
  129.9330  139.2823  160.0683 C   0  0  0  0  0  0  0  0  0  0  0  0
  130.6608  140.1346  159.3140 F   0  0  0  0  0  0  0  0  0  0  0  0
  129.4546  139.6864  161.3045 C   0  0  0  0  0  0  0  0  0  0  0  0
  129.7153  140.9328  161.7556 F   0  0  0  0  0  0  0  0  0  0  0  0
  128.7083  138.8113  162.0775 C   0  0  0  0  0  0  0  0  0  0  0  0
  128.2418  139.2041  163.2830 F   0  0  0  0  0  0  0  0  0  0  0  0
  128.4410  137.5329  161.6137 C   0  0  0  0  0  0  0  0  0  0  0  0
  127.7130  136.6798  162.3670 F   0  0  0  0  0  0  0  0  0  0  0  0
  130.2284  133.7063  157.2885 N   0  0  0  0  0  0  0  0  0  0  0  0
  130.7314  134.3029  156.7123 H   0  0  0  0  0  0  0  0  0  0  0  0
  130.0155  132.0375  154.5699 C   0  0  0  0  0  0  0  0  0  0  0  0
  130.4302  131.3265  153.4621 C   0  0  0  0  0  0  0  0  0  0  0  0
  129.7023  128.7974  151.8928 H   0  0  0  0  0  0  0  0  0  0  0  0
  131.0003  127.7881  151.2111 H   0  0  0  0  0  0  0  0  0  0  0  0
  130.5978  127.6715  152.9410 H   0  0  0  0  0  0  0  0  0  0  0  0
  132.6661  128.9949  152.5957 H   0  0  0  0  0  0  0  0  0  0  0  0
  131.7706  130.1209  151.5475 H   0  0  0  0  0  0  0  0  0  0  0  0
  132.2729  128.9433  154.9869 H   0  0  0  0  0  0  0  0  0  0  0  0
  131.5528  130.2042  156.9728 H   0  0  0  0  0  0  0  0  0  0  0  0
  128.8934  130.8932  158.1845 H   0  0  0  0  0  0  0  0  0  0  0  0
  130.4842  135.8749  158.8535 H   0  0  0  0  0  0  0  0  0  0  0  0
  126.1189  135.3260  160.7870 H   0  0  0  0  0  0  0  0  0  0  0  0
  124.0199  135.3510  159.5001 H   0  0  0  0  0  0  0  0  0  0  0  0
  124.0676  135.7751  157.0750 H   0  0  0  0  0  0  0  0  0  0  0  0
  126.2134  136.1831  155.9384 H   0  0  0  0  0  0  0  0  0  0  0  0
  128.3117  136.1664  157.2270 H   0  0  0  0  0  0  0  0  0  0  0  0
  129.3802  132.9028  154.4508 H   0  0  0  0  0  0  0  0  0  0  0  0
  130.1193  131.6365  152.4754 H   0  0  0  0  0  0  0  0  0  0  0  0
  1  2  1  0
  1 36  1  0
  1 37  1  0
  1 38  1  0
  2  3  1  0
  2 39  1  0
  2 40  1  0
  3 35  2  0
  3  4  1  0
  4  5  2  0
  4 41  1  0
  5  6  1  0
  5 42  1  0
  6  7  1  0
  6 34  2  0
  7 32  1  0
  7  8  2  0
  8  9  1  0
  8 43  1  0
  9 10  1  0
  9 11  1  0
 11 12  1  0
 11 32  2  0
 12 13  1  0
 12 44  1  0
 13 14  1  1
 13 15  1  0
 13 21  1  0
 15 20  1  0
 15 16  2  0
 16 17  1  0
 16 45  1  0
 17 18  2  0
 17 46  1  0
 18 19  1  0
 18 47  1  0
 19 20  2  0
 19 48  1  0
 20 49  1  0
 21 30  1  0
 21 22  2  0
 22 23  1  0
 22 24  1  0
 24 25  1  0
 24 26  2  0
 26 27  1  0
 26 28  1  0
 28 29  1  0
 28 30  2  0
 30 31  1  0
 32 33  1  0
 34 35  1  0
 34 50  1  0
 35 51  1  0
M  CHG  1  32   1
M  END
>  <DOCK_score>  (1) 
-57.829155

>  <SMILES>  (1) 
CCc1ccc(-c2c[nH]c(N[C@H](c3ccccc3)c3c(F)c(F)c(F)c(F)c3F)[nH+]2)cc1

$$$$
