COc1cc(CC[NH+]=C2NCCCN2)cc(Sc2cnn(-c3ccccc3)c2)c1
     RDKit          3D

 55 58  0  0  0  0  0  0  0  0999 V2000
  125.6079  138.1016  164.5058 C   0  0  0  0  0  0  0  0  0  0  0  0
  126.1243  137.2548  163.4768 O   0  0  0  0  0  0  0  0  0  0  0  0
  127.1189  137.7619  162.7020 C   0  0  0  0  0  0  0  0  0  0  0  0
  127.6663  136.9933  161.6837 C   0  0  0  0  0  0  0  0  0  0  0  0
  128.6777  137.5071  160.8943 C   0  0  0  0  0  0  0  0  0  0  0  0
  129.2694  136.6691  159.7903 C   0  0  0  0  0  0  0  0  0  0  0  0
  130.4556  135.8714  160.3354 C   0  0  0  0  0  0  0  0  0  0  0  0
  131.0308  135.0567  159.2622 N   0  0  0  0  0  0  0  0  0  0  0  0
  131.7382  135.4178  158.7052 H   0  0  0  0  0  0  0  0  0  0  0  0
  130.5923  133.8468  159.0560 C   0  0  0  0  0  0  0  0  0  0  0  0
  129.5873  133.2922  159.8337 N   0  0  0  0  0  0  0  0  0  0  0  0
  128.5371  132.5284  159.1333 C   0  0  0  0  0  0  0  0  0  0  0  0
  129.2105  131.5181  158.1974 C   0  0  0  0  0  0  0  0  0  0  0  0
  130.1556  132.2633  157.2479 C   0  0  0  0  0  0  0  0  0  0  0  0
  131.1102  133.0440  158.0510 N   0  0  0  0  0  0  0  0  0  0  0  0
  129.1436  138.7892  161.1117 C   0  0  0  0  0  0  0  0  0  0  0  0
  128.6035  139.5616  162.1334 C   0  0  0  0  0  0  0  0  0  0  0  0
  129.2025  141.1944  162.4162 S   0  0  0  0  0  0  0  0  0  0  0  0
  128.9645  141.4095  164.1487 C   0  0  0  0  0  0  0  0  0  0  0  0
  129.5362  140.6282  165.1646 C   0  0  0  0  0  0  0  0  0  0  0  0
  129.1278  141.0889  166.3193 N   0  0  0  0  0  0  0  0  0  0  0  0
  128.2812  142.1802  166.0852 N   0  0  0  0  0  0  0  0  0  0  0  0
  127.6369  142.9494  167.0636 C   0  0  0  0  0  0  0  0  0  0  0  0
  126.8207  144.0087  166.6896 C   0  0  0  0  0  0  0  0  0  0  0  0
  126.1868  144.7647  167.6562 C   0  0  0  0  0  0  0  0  0  0  0  0
  126.3644  144.4678  168.9951 C   0  0  0  0  0  0  0  0  0  0  0  0
  127.1766  143.4136  169.3705 C   0  0  0  0  0  0  0  0  0  0  0  0
  127.8133  142.6538  168.4087 C   0  0  0  0  0  0  0  0  0  0  0  0
  128.1908  142.3569  164.7379 C   0  0  0  0  0  0  0  0  0  0  0  0
  127.5870  139.0464  162.9277 C   0  0  0  0  0  0  0  0  0  0  0  0
  124.8216  137.5763  165.0479 H   0  0  0  0  0  0  0  0  0  0  0  0
  126.4097  138.3665  165.1949 H   0  0  0  0  0  0  0  0  0  0  0  0
  125.1984  139.0077  164.0592 H   0  0  0  0  0  0  0  0  0  0  0  0
  127.3016  135.9920  161.5083 H   0  0  0  0  0  0  0  0  0  0  0  0
  128.5131  135.9821  159.4106 H   0  0  0  0  0  0  0  0  0  0  0  0
  129.6084  137.3185  158.9832 H   0  0  0  0  0  0  0  0  0  0  0  0
  131.2118  136.5584  160.7151 H   0  0  0  0  0  0  0  0  0  0  0  0
  130.1165  135.2220  161.1426 H   0  0  0  0  0  0  0  0  0  0  0  0
  129.5758  133.4043  160.7971 H   0  0  0  0  0  0  0  0  0  0  0  0
  127.9134  133.2069  158.5513 H   0  0  0  0  0  0  0  0  0  0  0  0
  127.9219  131.9993  159.8610 H   0  0  0  0  0  0  0  0  0  0  0  0
  128.4496  130.9954  157.6179 H   0  0  0  0  0  0  0  0  0  0  0  0
  129.7791  130.7986  158.7866 H   0  0  0  0  0  0  0  0  0  0  0  0
  129.5796  132.9339  156.6103 H   0  0  0  0  0  0  0  0  0  0  0  0
  130.6971  131.5448  156.6324 H   0  0  0  0  0  0  0  0  0  0  0  0
  132.0646  132.9992  157.8836 H   0  0  0  0  0  0  0  0  0  0  0  0
  129.9309  139.1899  160.4905 H   0  0  0  0  0  0  0  0  0  0  0  0
  130.2007  139.7894  165.0184 H   0  0  0  0  0  0  0  0  0  0  0  0
  126.6818  144.2411  165.6443 H   0  0  0  0  0  0  0  0  0  0  0  0
  125.5482  145.5858  167.3658 H   0  0  0  0  0  0  0  0  0  0  0  0
  125.8679  145.0606  169.7489 H   0  0  0  0  0  0  0  0  0  0  0  0
  127.3136  143.1842  170.4170 H   0  0  0  0  0  0  0  0  0  0  0  0
  128.4477  141.8308  168.7027 H   0  0  0  0  0  0  0  0  0  0  0  0
  127.6113  143.1141  164.2308 H   0  0  0  0  0  0  0  0  0  0  0  0
  127.1624  139.6455  163.7197 H   0  0  0  0  0  0  0  0  0  0  0  0
  1  2  1  0
  1 31  1  0
  1 32  1  0
  1 33  1  0
  2  3  1  0
  3 30  2  0
  3  4  1  0
  4  5  2  0
  4 34  1  0
  5  6  1  0
  5 16  1  0
  6  7  1  0
  6 35  1  0
  6 36  1  0
  7  8  1  0
  7 37  1  0
  7 38  1  0
  8  9  1  0
  8 10  2  0
 10 15  1  0
 10 11  1  0
 11 12  1  0
 11 39  1  0
 12 13  1  0
 12 40  1  0
 12 41  1  0
 13 14  1  0
 13 42  1  0
 13 43  1  0
 14 15  1  0
 14 44  1  0
 14 45  1  0
 15 46  1  0
 16 17  2  0
 16 47  1  0
 17 18  1  0
 17 30  1  0
 18 19  1  0
 19 29  2  0
 19 20  1  0
 20 21  2  0
 20 48  1  0
 21 22  1  0
 22 23  1  0
 22 29  1  0
 23 28  1  0
 23 24  2  0
 24 25  1  0
 24 49  1  0
 25 26  2  0
 25 50  1  0
 26 27  1  0
 26 51  1  0
 27 28  2  0
 27 52  1  0
 28 53  1  0
 29 54  1  0
 30 55  1  0
M  CHG  1   8   1
M  END
>  <DOCK_score>  (1) 
-45.450825

>  <SMILES>  (1) 
COc1cc(CC[NH+]=C2NCCCN2)cc(Sc2cnn(-c3ccccc3)c2)c1

$$$$
