Oc1ccc2c(c1)C([NH2+][C@H]1CC(O)C13CCC3)c1cc(O)ccc1-2
     RDKit          3D

 46 50  0  0  1  0  0  0  0  0999 V2000
  123.5763  134.9380  161.4670 O   0  0  0  0  0  0  0  0  0  0  0  0
  124.6053  134.2942  160.8562 C   0  0  0  0  0  0  0  0  0  0  0  0
  124.4979  132.9435  160.5541 C   0  0  0  0  0  0  0  0  0  0  0  0
  125.5392  132.2866  159.9346 C   0  0  0  0  0  0  0  0  0  0  0  0
  126.7096  132.9777  159.6139 C   0  0  0  0  0  0  0  0  0  0  0  0
  126.8083  134.3339  159.9152 C   0  0  0  0  0  0  0  0  0  0  0  0
  125.7649  134.9871  160.5341 C   0  0  0  0  0  0  0  0  0  0  0  0
  128.1647  134.8054  159.4511 C   0  0  0  0  0  0  0  0  0  0  0  0
  128.9441  135.3048  160.5918 N   0  0  0  0  0  0  0  0  0  0  0  0
  128.3406  135.8283  161.2081 H   0  0  0  0  0  0  0  0  0  0  0  0
  129.3430  134.5256  161.0936 H   0  0  0  0  0  0  0  0  0  0  0  0
  130.0215  136.1766  160.1046 C   0  0  1  0  0  0  0  0  0  0  0  0
  130.7090  135.6647  159.4312 H   0  0  0  0  0  0  0  0  0  0  0  0
  129.5250  137.5314  159.5681 C   0  0  0  0  0  0  0  0  0  0  0  0
  130.7401  138.1698  160.2698 C   0  0  2  0  0  0  0  0  0  0  0  0
  131.9074  138.2361  159.4481 O   0  0  0  0  0  0  0  0  0  0  0  0
  130.7206  136.9656  161.2121 C   0  0  0  0  0  0  0  0  0  0  0  0
  132.0049  136.4489  161.8613 C   0  0  0  0  0  0  0  0  0  0  0  0
  131.5594  137.1942  163.1326 C   0  0  0  0  0  0  0  0  0  0  0  0
  130.1159  137.0676  162.6128 C   0  0  0  0  0  0  0  0  0  0  0  0
  128.8415  133.5990  158.8477 C   0  0  0  0  0  0  0  0  0  0  0  0
  130.0797  133.4274  158.2683 C   0  0  0  0  0  0  0  0  0  0  0  0
  130.4533  132.1803  157.7849 C   0  0  0  0  0  0  0  0  0  0  0  0
  131.6746  132.0108  157.2138 O   0  0  0  0  0  0  0  0  0  0  0  0
  129.5788  131.1069  157.8856 C   0  0  0  0  0  0  0  0  0  0  0  0
  128.3392  131.2744  158.4645 C   0  0  0  0  0  0  0  0  0  0  0  0
  127.9590  132.5267  158.9522 C   0  0  0  0  0  0  0  0  0  0  0  0
  123.7439  135.8752  161.6365 H   0  0  0  0  0  0  0  0  0  0  0  0
  123.5954  132.4059  160.8052 H   0  0  0  0  0  0  0  0  0  0  0  0
  125.4517  131.2358  159.7009 H   0  0  0  0  0  0  0  0  0  0  0  0
  125.8488  136.0380  160.7687 H   0  0  0  0  0  0  0  0  0  0  0  0
  128.0535  135.5879  158.7005 H   0  0  0  0  0  0  0  0  0  0  0  0
  129.5577  137.6085  158.4813 H   0  0  0  0  0  0  0  0  0  0  0  0
  128.5674  137.8415  159.9863 H   0  0  0  0  0  0  0  0  0  0  0  0
  130.5147  139.1151  160.7632 H   0  0  0  0  0  0  0  0  0  0  0  0
  132.0262  137.4691  158.8712 H   0  0  0  0  0  0  0  0  0  0  0  0
  132.0316  135.3652  161.9761 H   0  0  0  0  0  0  0  0  0  0  0  0
  132.9138  136.8514  161.4140 H   0  0  0  0  0  0  0  0  0  0  0  0
  131.9162  138.2229  163.1825 H   0  0  0  0  0  0  0  0  0  0  0  0
  131.7420  136.6380  164.0521 H   0  0  0  0  0  0  0  0  0  0  0  0
  129.5155  137.9645  162.7659 H   0  0  0  0  0  0  0  0  0  0  0  0
  129.6102  136.1584  162.9382 H   0  0  0  0  0  0  0  0  0  0  0  0
  130.7599  134.2627  158.1905 H   0  0  0  0  0  0  0  0  0  0  0  0
  132.2122  132.8143  157.1892 H   0  0  0  0  0  0  0  0  0  0  0  0
  129.8705  130.1377  157.5089 H   0  0  0  0  0  0  0  0  0  0  0  0
  127.6618  130.4368  158.5414 H   0  0  0  0  0  0  0  0  0  0  0  0
  1  2  1  0
  1 28  1  0
  2  7  2  0
  2  3  1  0
  3  4  2  0
  3 29  1  0
  4  5  1  0
  4 30  1  0
  5 27  1  0
  5  6  2  0
  6  7  1  0
  6  8  1  0
  7 31  1  0
  8  9  1  0
  8 21  1  0
  8 32  1  0
  9 10  1  0
  9 11  1  0
  9 12  1  0
 12 13  1  6
 12 17  1  0
 12 14  1  0
 14 15  1  0
 14 33  1  0
 14 34  1  0
 15 16  1  0
 15 17  1  0
 15 35  1  1
 16 36  1  0
 17 20  1  0
 17 18  1  0
 18 19  1  0
 18 37  1  0
 18 38  1  0
 19 20  1  0
 19 39  1  0
 19 40  1  0
 20 41  1  0
 20 42  1  0
 21 27  2  0
 21 22  1  0
 22 23  2  0
 22 43  1  0
 23 24  1  0
 23 25  1  0
 24 44  1  0
 25 26  2  0
 25 45  1  0
 26 27  1  0
 26 46  1  0
M  CHG  1   9   1
M  END
>  <DOCK_score>  (1) 
-42.845787

>  <SMILES>  (1) 
Oc1ccc2c(c1)C([NH2+][C@H]1CC(O)C13CCC3)c1cc(O)ccc1-2

$$$$
