O=C1CC([N@H+]2CCCC(n3cccn3)C2)C(=O)N1c1ccccc1
     RDKit          3D

 45 48  0  0  1  0  0  0  0  0999 V2000
  127.2367  137.2533  162.1246 O   0  0  0  0  0  0  0  0  0  0  0  0
  128.0868  137.3493  161.2658 C   0  0  0  0  0  0  0  0  0  0  0  0
  128.3124  136.3621  160.1415 C   0  0  0  0  0  0  0  0  0  0  0  0
  129.4979  136.9666  159.3620 C   0  0  2  0  0  0  0  0  0  0  0  0
  130.6461  136.0505  159.3747 N   0  0  1  0  0  0  0  0  0  0  0  0
  131.4094  136.4640  158.8604 H   0  0  0  0  0  0  0  0  0  0  0  0
  131.0648  135.8123  160.7613 C   0  0  0  0  0  0  0  0  0  0  0  0
  132.3103  134.9235  160.7765 C   0  0  0  0  0  0  0  0  0  0  0  0
  131.9855  133.5872  160.1030 C   0  0  0  0  0  0  0  0  0  0  0  0
  131.4792  133.8527  158.6822 C   0  0  1  0  0  0  0  0  0  0  0  0
  131.0949  132.5856  158.0551 N   0  0  0  0  0  0  0  0  0  0  0  0
  130.6053  132.4341  156.8067 C   0  0  0  0  0  0  0  0  0  0  0  0
  130.3773  131.1148  156.6105 C   0  0  0  0  0  0  0  0  0  0  0  0
  130.7399  130.4369  157.7789 C   0  0  0  0  0  0  0  0  0  0  0  0
  131.1701  131.3176  158.6456 N   0  0  0  0  0  0  0  0  0  0  0  0
  130.2644  134.7810  158.7446 C   0  0  0  0  0  0  0  0  0  0  0  0
  129.8175  138.2320  160.1276 C   0  0  0  0  0  0  0  0  0  0  0  0
  130.6970  139.0182  159.8487 O   0  0  0  0  0  0  0  0  0  0  0  0
  128.9754  138.3454  161.1621 N   0  0  0  0  0  0  0  0  0  0  0  0
  129.0199  139.4192  162.0626 C   0  0  0  0  0  0  0  0  0  0  0  0
  129.4636  140.6643  161.6386 C   0  0  0  0  0  0  0  0  0  0  0  0
  129.5015  141.7215  162.5267 C   0  0  0  0  0  0  0  0  0  0  0  0
  129.1090  141.5378  163.8396 C   0  0  0  0  0  0  0  0  0  0  0  0
  128.6716  140.2973  164.2662 C   0  0  0  0  0  0  0  0  0  0  0  0
  128.6260  139.2377  163.3813 C   0  0  0  0  0  0  0  0  0  0  0  0
  127.4292  136.2958  159.5063 H   0  0  0  0  0  0  0  0  0  0  0  0
  128.5747  135.3815  160.5389 H   0  0  0  0  0  0  0  0  0  0  0  0
  129.2051  137.1986  158.3379 H   0  0  0  0  0  0  0  0  0  0  0  0
  131.2925  136.7645  161.2403 H   0  0  0  0  0  0  0  0  0  0  0  0
  130.2593  135.3168  161.3035 H   0  0  0  0  0  0  0  0  0  0  0  0
  133.1167  135.4178  160.2347 H   0  0  0  0  0  0  0  0  0  0  0  0
  132.6189  134.7470  161.8069 H   0  0  0  0  0  0  0  0  0  0  0  0
  131.2147  133.0692  160.6736 H   0  0  0  0  0  0  0  0  0  0  0  0
  132.8844  132.9723  160.0606 H   0  0  0  0  0  0  0  0  0  0  0  0
  132.2681  134.3242  158.0962 H   0  0  0  0  0  0  0  0  0  0  0  0
  130.4236  133.2247  156.0936 H   0  0  0  0  0  0  0  0  0  0  0  0
  129.9847  130.6648  155.7106 H   0  0  0  0  0  0  0  0  0  0  0  0
  130.6758  129.3706  157.9382 H   0  0  0  0  0  0  0  0  0  0  0  0
  129.9013  134.9719  157.7347 H   0  0  0  0  0  0  0  0  0  0  0  0
  129.4759  134.3081  159.3299 H   0  0  0  0  0  0  0  0  0  0  0  0
  129.7747  140.8075  160.6142 H   0  0  0  0  0  0  0  0  0  0  0  0
  129.8424  142.6916  162.1962 H   0  0  0  0  0  0  0  0  0  0  0  0
  129.1437  142.3648  164.5334 H   0  0  0  0  0  0  0  0  0  0  0  0
  128.3655  140.1568  165.2923 H   0  0  0  0  0  0  0  0  0  0  0  0
  128.2845  138.2689  163.7152 H   0  0  0  0  0  0  0  0  0  0  0  0
  1  2  2  0
  2 19  1  0
  2  3  1  0
  3  4  1  0
  3 26  1  0
  3 27  1  0
  4  5  1  0
  4 17  1  0
  4 28  1  6
  5  6  1  6
  5 16  1  0
  5  7  1  0
  7  8  1  0
  7 29  1  0
  7 30  1  0
  8  9  1  0
  8 31  1  0
  8 32  1  0
  9 10  1  0
  9 33  1  0
  9 34  1  0
 10 11  1  0
 10 16  1  0
 10 35  1  6
 11 15  1  0
 11 12  1  0
 12 13  2  0
 12 36  1  0
 13 14  1  0
 13 37  1  0
 14 15  2  0
 14 38  1  0
 16 39  1  0
 16 40  1  0
 17 18  2  0
 17 19  1  0
 19 20  1  0
 20 25  1  0
 20 21  2  0
 21 22  1  0
 21 41  1  0
 22 23  2  0
 22 42  1  0
 23 24  1  0
 23 43  1  0
 24 25  2  0
 24 44  1  0
 25 45  1  0
M  CHG  1   5   1
M  END
>  <DOCK_score>  (1) 
-44.198608

>  <SMILES>  (1) 
O=C1CC([N@H+]2CCCC(n3cccn3)C2)C(=O)N1c1ccccc1

$$$$
