CCc1ccc(Sc2ccc(C#N)cc2Nc2[nH]cc(-c3ccccc3)[nH+]2)cc1
     RDKit          3D

 50 53  0  0  1  0  0  0  0  0999 V2000
  129.6240  142.1273  163.7646 C   0  0  0  0  0  0  0  0  0  0  0  0
  130.8212  142.1492  162.8123 C   0  0  0  0  0  0  0  0  0  0  0  0
  130.9769  140.7949  162.1698 C   0  0  0  0  0  0  0  0  0  0  0  0
  130.3292  140.5173  160.9797 C   0  0  0  0  0  0  0  0  0  0  0  0
  130.4734  139.2793  160.3856 C   0  0  0  0  0  0  0  0  0  0  0  0
  131.2624  138.3081  160.9902 C   0  0  0  0  0  0  0  0  0  0  0  0
  131.4448  136.7248  160.2388 S   0  0  0  0  0  0  0  0  0  0  0  0
  129.7903  136.1217  160.1783 C   0  0  0  0  0  0  0  0  0  0  0  0
  128.8726  136.5140  161.1463 C   0  0  0  0  0  0  0  0  0  0  0  0
  127.5781  136.0454  161.1028 C   0  0  0  0  0  0  0  0  0  0  0  0
  127.1831  135.1735  160.0837 C   0  0  0  0  0  0  0  0  0  0  0  0
  125.8369  134.6872  160.0380 C   0  0  0  0  0  0  0  0  0  0  0  0
  124.7690  134.3014  160.0018 N   0  0  0  0  0  0  0  0  0  0  0  0
  128.1040  134.7775  159.1091 C   0  0  0  0  0  0  0  0  0  0  0  0
  129.4007  135.2540  159.1537 C   0  0  0  0  0  0  0  0  0  0  0  0
  130.3248  134.8641  158.1764 N   0  0  0  0  0  0  0  0  0  0  0  0
  130.2098  133.6240  157.5703 C   0  0  0  0  0  0  0  0  0  0  0  0
  129.6946  132.5040  158.1474 N   0  0  0  0  0  0  0  0  0  0  0  0
  129.3448  132.4313  159.0492 H   0  0  0  0  0  0  0  0  0  0  0  0
  129.7587  131.4967  157.2161 C   0  0  0  0  0  0  0  0  0  0  0  0
  130.3184  132.0272  156.1004 C   0  0  0  0  0  0  0  0  0  0  0  0
  130.5918  131.3057  154.8334 C   0  0  0  0  0  0  0  0  0  0  0  0
  129.9950  131.7263  153.6462 C   0  0  0  0  0  0  0  0  0  0  0  0
  130.2572  131.0543  152.4695 C   0  0  0  0  0  0  0  0  0  0  0  0
  131.1011  129.9588  152.4688 C   0  0  0  0  0  0  0  0  0  0  0  0
  131.6923  129.5335  153.6454 C   0  0  0  0  0  0  0  0  0  0  0  0
  131.4419  130.2012  154.8269 C   0  0  0  0  0  0  0  0  0  0  0  0
  130.5844  133.3340  156.3480 N   0  0  0  0  0  0  0  0  0  0  0  0
  130.9872  133.9547  155.7209 H   0  0  0  0  0  0  0  0  0  0  0  0
  131.9074  138.5886  162.1887 C   0  0  0  0  0  0  0  0  0  0  0  0
  131.7625  139.8306  162.7746 C   0  0  0  0  0  0  0  0  0  0  0  0
  128.7199  141.8838  163.2062 H   0  0  0  0  0  0  0  0  0  0  0  0
  129.7876  141.3755  164.5368 H   0  0  0  0  0  0  0  0  0  0  0  0
  129.5114  143.1068  164.2292 H   0  0  0  0  0  0  0  0  0  0  0  0
  130.6575  142.9009  162.0401 H   0  0  0  0  0  0  0  0  0  0  0  0
  131.7251  142.3926  163.3705 H   0  0  0  0  0  0  0  0  0  0  0  0
  129.7132  141.2715  160.5123 H   0  0  0  0  0  0  0  0  0  0  0  0
  129.9706  139.0646  159.4541 H   0  0  0  0  0  0  0  0  0  0  0  0
  129.1754  137.1880  161.9340 H   0  0  0  0  0  0  0  0  0  0  0  0
  126.8677  136.3521  161.8562 H   0  0  0  0  0  0  0  0  0  0  0  0
  127.8016  134.1041  158.3205 H   0  0  0  0  0  0  0  0  0  0  0  0
  131.0453  135.4623  157.9240 H   0  0  0  0  0  0  0  0  0  0  0  0
  129.4301  130.4765  157.3483 H   0  0  0  0  0  0  0  0  0  0  0  0
  129.3323  132.5790  153.6463 H   0  0  0  0  0  0  0  0  0  0  0  0
  129.7989  131.3821  151.5482 H   0  0  0  0  0  0  0  0  0  0  0  0
  131.2999  129.4335  151.5464 H   0  0  0  0  0  0  0  0  0  0  0  0
  132.3511  128.6777  153.6390 H   0  0  0  0  0  0  0  0  0  0  0  0
  131.9040  129.8687  155.7446 H   0  0  0  0  0  0  0  0  0  0  0  0
  132.5210  137.8362  162.6617 H   0  0  0  0  0  0  0  0  0  0  0  0
  132.2635  140.0494  163.7059 H   0  0  0  0  0  0  0  0  0  0  0  0
  1  2  1  0
  1 32  1  0
  1 33  1  0
  1 34  1  0
  2  3  1  0
  2 35  1  0
  2 36  1  0
  3 31  2  0
  3  4  1  0
  4  5  2  0
  4 37  1  0
  5  6  1  0
  5 38  1  0
  6  7  1  0
  6 30  2  0
  7  8  1  0
  8 15  1  0
  8  9  2  0
  9 10  1  0
  9 39  1  0
 10 11  2  0
 10 40  1  0
 11 12  1  0
 11 14  1  0
 12 13  3  0
 14 15  2  0
 14 41  1  0
 15 16  1  0
 16 42  1  0
 17 16  1  0
 17 28  2  0
 17 18  1  0
 18 19  1  0
 18 20  1  0
 20 21  2  0
 20 43  1  0
 21 22  1  0
 21 28  1  0
 22 27  1  0
 22 23  2  0
 23 24  1  0
 23 44  1  0
 24 25  2  0
 24 45  1  0
 25 26  1  0
 25 46  1  0
 26 27  2  0
 26 47  1  0
 27 48  1  0
 28 29  1  0
 30 31  1  0
 30 49  1  0
 31 50  1  0
M  CHG  1  28   1
M  END
>  <DOCK_score>  (1) 
-57.830986

>  <SMILES>  (1) 
CCc1ccc(Sc2ccc(C#N)cc2Nc2[nH]cc(-c3ccccc3)[nH+]2)cc1

$$$$
