Nc1ccc(-c2c[nH]c(Nc3ccc(Nc4ccc(O)cc4)cc3)[nH+]2)cc1
     RDKit          3D

 47 50  0  0  1  0  0  0  0  0999 V2000
  131.2653  129.5190  151.7669 N   0  0  0  0  0  0  0  0  0  0  0  0
  131.0093  130.2001  152.9593 C   0  0  0  0  0  0  0  0  0  0  0  0
  130.1025  131.2534  152.9762 C   0  0  0  0  0  0  0  0  0  0  0  0
  129.8486  131.9272  154.1521 C   0  0  0  0  0  0  0  0  0  0  0  0
  130.5021  131.5512  155.3246 C   0  0  0  0  0  0  0  0  0  0  0  0
  130.2306  132.2747  156.5911 C   0  0  0  0  0  0  0  0  0  0  0  0
  129.7365  131.7307  157.7308 C   0  0  0  0  0  0  0  0  0  0  0  0
  129.6469  132.7471  158.6516 N   0  0  0  0  0  0  0  0  0  0  0  0
  129.3304  132.6688  159.5651 H   0  0  0  0  0  0  0  0  0  0  0  0
  130.0815  133.8847  158.0436 C   0  0  0  0  0  0  0  0  0  0  0  0
  130.1479  135.1378  158.6296 N   0  0  0  0  0  0  0  0  0  0  0  0
  129.2397  135.4892  159.6359 C   0  0  0  0  0  0  0  0  0  0  0  0
  129.6147  136.3866  160.6274 C   0  0  0  0  0  0  0  0  0  0  0  0
  128.7212  136.7292  161.6224 C   0  0  0  0  0  0  0  0  0  0  0  0
  127.4433  136.1845  161.6259 C   0  0  0  0  0  0  0  0  0  0  0  0
  126.5357  136.5358  162.6316 N   0  0  0  0  0  0  0  0  0  0  0  0
  126.8409  136.2743  163.9721 C   0  0  0  0  0  0  0  0  0  0  0  0
  126.3465  137.1022  164.9716 C   0  0  0  0  0  0  0  0  0  0  0  0
  126.6447  136.8409  166.2944 C   0  0  0  0  0  0  0  0  0  0  0  0
  127.4462  135.7580  166.6243 C   0  0  0  0  0  0  0  0  0  0  0  0
  127.7442  135.5047  167.9267 O   0  0  0  0  0  0  0  0  0  0  0  0
  127.9446  134.9335  165.6262 C   0  0  0  0  0  0  0  0  0  0  0  0
  127.6435  135.1903  164.3033 C   0  0  0  0  0  0  0  0  0  0  0  0
  127.0683  135.2869  160.6343 C   0  0  0  0  0  0  0  0  0  0  0  0
  127.9637  134.9406  159.6423 C   0  0  0  0  0  0  0  0  0  0  0  0
  130.4324  133.5973  156.8135 N   0  0  0  0  0  0  0  0  0  0  0  0
  130.7810  134.2297  156.1658 H   0  0  0  0  0  0  0  0  0  0  0  0
  131.4150  130.4980  155.3042 C   0  0  0  0  0  0  0  0  0  0  0  0
  131.6614  129.8232  154.1273 C   0  0  0  0  0  0  0  0  0  0  0  0
  130.8100  129.7814  150.9512 H   0  0  0  0  0  0  0  0  0  0  0  0
  131.8977  128.7840  151.7542 H   0  0  0  0  0  0  0  0  0  0  0  0
  129.5964  131.5444  152.0675 H   0  0  0  0  0  0  0  0  0  0  0  0
  129.1439  132.7456  154.1647 H   0  0  0  0  0  0  0  0  0  0  0  0
  129.4691  130.6959  157.8865 H   0  0  0  0  0  0  0  0  0  0  0  0
  130.8235  135.7721  158.3429 H   0  0  0  0  0  0  0  0  0  0  0  0
  130.6069  136.8133  160.6223 H   0  0  0  0  0  0  0  0  0  0  0  0
  129.0143  137.4237  162.3958 H   0  0  0  0  0  0  0  0  0  0  0  0
  125.6950  136.9604  162.3996 H   0  0  0  0  0  0  0  0  0  0  0  0
  125.7257  137.9478  164.7146 H   0  0  0  0  0  0  0  0  0  0  0  0
  126.2575  137.4825  167.0720 H   0  0  0  0  0  0  0  0  0  0  0  0
  127.3527  136.1327  168.5491 H   0  0  0  0  0  0  0  0  0  0  0  0
  128.5687  134.0905  165.8840 H   0  0  0  0  0  0  0  0  0  0  0  0
  128.0322  134.5486  163.5264 H   0  0  0  0  0  0  0  0  0  0  0  0
  126.0762  134.8603  160.6393 H   0  0  0  0  0  0  0  0  0  0  0  0
  127.6721  134.2427  158.8713 H   0  0  0  0  0  0  0  0  0  0  0  0
  131.9259  130.2081  156.2106 H   0  0  0  0  0  0  0  0  0  0  0  0
  132.3654  129.0042  154.1120 H   0  0  0  0  0  0  0  0  0  0  0  0
  1  2  1  0
  1 30  1  0
  1 31  1  0
  2 29  2  0
  2  3  1  0
  3  4  2  0
  3 32  1  0
  4  5  1  0
  4 33  1  0
  5  6  1  0
  5 28  2  0
  6 26  1  0
  6  7  2  0
  7  8  1  0
  7 34  1  0
  8  9  1  0
  8 10  1  0
 10 11  1  0
 10 26  2  0
 11 12  1  0
 11 35  1  0
 12 25  1  0
 12 13  2  0
 13 14  1  0
 13 36  1  0
 14 15  2  0
 14 37  1  0
 15 16  1  0
 15 24  1  0
 16 17  1  0
 16 38  1  0
 17 23  1  0
 17 18  2  0
 18 19  1  0
 18 39  1  0
 19 20  2  0
 19 40  1  0
 20 21  1  0
 20 22  1  0
 21 41  1  0
 22 23  2  0
 22 42  1  0
 23 43  1  0
 24 25  2  0
 24 44  1  0
 25 45  1  0
 26 27  1  0
 28 29  1  0
 28 46  1  0
 29 47  1  0
M  CHG  1  26   1
M  END
>  <DOCK_score>  (1) 
-55.591309

>  <SMILES>  (1) 
Nc1ccc(-c2c[nH]c(Nc3ccc(Nc4ccc(O)cc4)cc3)[nH+]2)cc1

$$$$
