CCc1ccc(-c2c[nH]c(N[C@H](CC[C@@H]3CC=CC[C@@H]3CBr)c3ccnn3C)[nH+]2)cc1
     RDKit          3D

 64 67  0  0  1  0  0  0  0  0999 V2000
  130.3303  128.2789  151.9934 C   0  0  0  0  0  0  0  0  0  0  0  0
  131.3031  129.4542  152.1103 C   0  0  0  0  0  0  0  0  0  0  0  0
  131.0256  130.2122  153.3831 C   0  0  0  0  0  0  0  0  0  0  0  0
  131.6736  129.8569  154.5524 C   0  0  0  0  0  0  0  0  0  0  0  0
  131.4218  130.5468  155.7209 C   0  0  0  0  0  0  0  0  0  0  0  0
  130.5125  131.6031  155.7211 C   0  0  0  0  0  0  0  0  0  0  0  0
  130.2378  132.3485  156.9737 C   0  0  0  0  0  0  0  0  0  0  0  0
  129.7420  131.8243  158.1219 C   0  0  0  0  0  0  0  0  0  0  0  0
  129.6498  132.8562  159.0241 N   0  0  0  0  0  0  0  0  0  0  0  0
  129.3315  132.7935  159.9382 H   0  0  0  0  0  0  0  0  0  0  0  0
  130.0847  133.9834  158.3975 C   0  0  0  0  0  0  0  0  0  0  0  0
  130.1489  135.2459  158.9619 N   0  0  0  0  0  0  0  0  0  0  0  0
  129.7264  135.4502  160.3497 C   0  0  2  0  0  0  0  0  0  0  0  0
  128.6791  135.1672  160.4561 H   0  0  0  0  0  0  0  0  0  0  0  0
  129.8969  136.9242  160.7230 C   0  0  0  0  0  0  0  0  0  0  0  0
  131.3669  137.3213  160.5737 C   0  0  0  0  0  0  0  0  0  0  0  0
  131.5375  138.7952  160.9470 C   0  0  2  0  0  0  0  0  0  0  0  0
  130.9180  139.0278  161.8132 H   0  0  0  0  0  0  0  0  0  0  0  0
  131.1278  139.6759  159.7646 C   0  0  0  0  0  0  0  0  0  0  0  0
  132.1332  139.5549  158.6572 C   0  0  0  0  0  0  0  0  0  0  0  0
  133.3271  139.0786  158.8102 C   0  0  0  0  0  0  0  0  0  0  0  0
  133.8690  138.5715  160.1145 C   0  0  0  0  0  0  0  0  0  0  0  0
  133.0091  139.0771  161.2749 C   0  0  2  0  0  0  0  0  0  0  0  0
  133.1568  140.1493  161.4045 H   0  0  0  0  0  0  0  0  0  0  0  0
  133.3988  138.3453  162.5608 C   0  0  0  0  0  0  0  0  0  0  0  0
  135.0090  139.1751  163.3250 Br  0  0  0  0  0  0  0  0  0  0  0  0
  130.5718  134.5997  161.2626 C   0  0  0  0  0  0  0  0  0  0  0  0
  131.8554  134.2301  161.0463 C   0  0  0  0  0  0  0  0  0  0  0  0
  132.2667  133.4485  162.1308 C   0  0  0  0  0  0  0  0  0  0  0  0
  131.2678  133.3570  162.9708 N   0  0  0  0  0  0  0  0  0  0  0  0
  130.1847  134.0710  162.4422 N   0  0  0  0  0  0  0  0  0  0  0  0
  128.8664  134.2220  163.0632 C   0  0  0  0  0  0  0  0  0  0  0  0
  130.4380  133.6755  157.1736 N   0  0  0  0  0  0  0  0  0  0  0  0
  130.7870  134.2969  156.5157 H   0  0  0  0  0  0  0  0  0  0  0  0
  129.8581  131.9528  154.5413 C   0  0  0  0  0  0  0  0  0  0  0  0
  130.1217  131.2592  153.3776 C   0  0  0  0  0  0  0  0  0  0  0  0
  129.3074  128.6550  151.9760 H   0  0  0  0  0  0  0  0  0  0  0  0
  130.5317  127.7308  151.0731 H   0  0  0  0  0  0  0  0  0  0  0  0
  130.4586  127.6143  152.8478 H   0  0  0  0  0  0  0  0  0  0  0  0
  131.1752  130.1185  151.2564 H   0  0  0  0  0  0  0  0  0  0  0  0
  132.3264  129.0778  152.1281 H   0  0  0  0  0  0  0  0  0  0  0  0
  132.3779  129.0383  154.5510 H   0  0  0  0  0  0  0  0  0  0  0  0
  131.9281  130.2686  156.6333 H   0  0  0  0  0  0  0  0  0  0  0  0
  129.4744  130.7925  158.2952 H   0  0  0  0  0  0  0  0  0  0  0  0
  130.4736  135.9952  158.4386 H   0  0  0  0  0  0  0  0  0  0  0  0
  129.2854  137.5392  160.0627 H   0  0  0  0  0  0  0  0  0  0  0  0
  129.5825  137.0763  161.7555 H   0  0  0  0  0  0  0  0  0  0  0  0
  131.9783  136.7062  161.2340 H   0  0  0  0  0  0  0  0  0  0  0  0
  131.6813  137.1693  159.5412 H   0  0  0  0  0  0  0  0  0  0  0  0
  130.1499  139.3605  159.4008 H   0  0  0  0  0  0  0  0  0  0  0  0
  131.0719  140.7148  160.0901 H   0  0  0  0  0  0  0  0  0  0  0  0
  131.8426  139.8856  157.6709 H   0  0  0  0  0  0  0  0  0  0  0  0
  133.9733  139.0443  157.9457 H   0  0  0  0  0  0  0  0  0  0  0  0
  134.8923  138.9247  160.2424 H   0  0  0  0  0  0  0  0  0  0  0  0
  133.8633  137.4815  160.1088 H   0  0  0  0  0  0  0  0  0  0  0  0
  132.5809  138.4108  163.2783 H   0  0  0  0  0  0  0  0  0  0  0  0
  133.6017  137.2982  162.3357 H   0  0  0  0  0  0  0  0  0  0  0  0
  132.4561  134.4921  160.1879 H   0  0  0  0  0  0  0  0  0  0  0  0
  133.2420  133.0015  162.2556 H   0  0  0  0  0  0  0  0  0  0  0  0
  128.2137  133.4144  162.7314 H   0  0  0  0  0  0  0  0  0  0  0  0
  128.4355  135.1801  162.7724 H   0  0  0  0  0  0  0  0  0  0  0  0
  128.9691  134.1839  164.1476 H   0  0  0  0  0  0  0  0  0  0  0  0
  129.1490  132.7673  154.5369 H   0  0  0  0  0  0  0  0  0  0  0  0
  129.6182  131.5319  152.4618 H   0  0  0  0  0  0  0  0  0  0  0  0
  1  2  1  0
  1 37  1  0
  1 38  1  0
  1 39  1  0
  2  3  1  0
  2 40  1  0
  2 41  1  0
  3 36  2  0
  3  4  1  0
  4  5  2  0
  4 42  1  0
  5  6  1  0
  5 43  1  0
  6  7  1  0
  6 35  2  0
  7 33  1  0
  7  8  2  0
  8  9  1  0
  8 44  1  0
  9 10  1  0
  9 11  1  0
 11 12  1  0
 11 33  2  0
 12 13  1  0
 12 45  1  0
 13 14  1  6
 13 15  1  0
 13 27  1  0
 15 16  1  0
 15 46  1  0
 15 47  1  0
 16 17  1  0
 16 48  1  0
 16 49  1  0
 17 18  1  1
 17 23  1  0
 17 19  1  0
 19 20  1  0
 19 50  1  0
 19 51  1  0
 20 21  2  0
 20 52  1  0
 21 22  1  0
 21 53  1  0
 22 23  1  0
 22 54  1  0
 22 55  1  0
 23 24  1  1
 23 25  1  0
 25 26  1  0
 25 56  1  0
 25 57  1  0
 27 31  1  0
 27 28  2  0
 28 29  1  0
 28 58  1  0
 29 30  2  0
 29 59  1  0
 30 31  1  0
 31 32  1  0
 32 60  1  0
 32 61  1  0
 32 62  1  0
 33 34  1  0
 35 36  1  0
 35 63  1  0
 36 64  1  0
M  CHG  1  33   1
M  END
>  <DOCK_score>  (1) 
-60.983639

>  <SMILES>  (1) 
CCc1ccc(-c2c[nH]c(N[C@H](CC[C@@H]3CC=CC[C@@H]3CBr)c3ccnn3C)[nH+]2)cc1

$$$$
