CCC=CC[C@H](Nc1[nH]cc(-c2ccc(CC)cc2)[nH+]1)c1ccccc1
     RDKit          3D

 54 56  0  0  1  0  0  0  0  0999 V2000
  133.4232  135.6441  162.4503 C   0  0  0  0  0  0  0  0  0  0  0  0
  132.5999  136.9095  162.6991 C   0  0  0  0  0  0  0  0  0  0  0  0
  131.6382  137.1158  161.5573 C   0  0  0  0  0  0  0  0  0  0  0  0
  130.4394  136.5901  161.6077 C   0  0  0  0  0  0  0  0  0  0  0  0
  129.4777  136.7963  160.4659 C   0  0  0  0  0  0  0  0  0  0  0  0
  129.0869  135.4394  159.8769 C   0  0  2  0  0  0  0  0  0  0  0  0
  128.9481  134.7195  160.6835 H   0  0  0  0  0  0  0  0  0  0  0  0
  130.1482  134.9716  158.9819 N   0  0  0  0  0  0  0  0  0  0  0  0
  130.0178  133.7582  158.3285 C   0  0  0  0  0  0  0  0  0  0  0  0
  129.3393  132.6749  158.7960 N   0  0  0  0  0  0  0  0  0  0  0  0
  128.8645  132.6147  159.6397 H   0  0  0  0  0  0  0  0  0  0  0  0
  129.4507  131.6829  157.8524 C   0  0  0  0  0  0  0  0  0  0  0  0
  130.1934  132.1878  156.8363 C   0  0  0  0  0  0  0  0  0  0  0  0
  130.5742  131.4722  155.5941 C   0  0  0  0  0  0  0  0  0  0  0  0
  130.1804  131.9683  154.3524 C   0  0  0  0  0  0  0  0  0  0  0  0
  130.5380  131.2986  153.1999 C   0  0  0  0  0  0  0  0  0  0  0  0
  131.2855  130.1365  153.2757 C   0  0  0  0  0  0  0  0  0  0  0  0
  131.6725  129.4096  152.0136 C   0  0  0  0  0  0  0  0  0  0  0  0
  130.5864  128.3928  151.6573 C   0  0  0  0  0  0  0  0  0  0  0  0
  131.6742  129.6372  154.5051 C   0  0  0  0  0  0  0  0  0  0  0  0
  131.3276  130.3018  155.6639 C   0  0  0  0  0  0  0  0  0  0  0  0
  130.5312  133.4614  157.1596 N   0  0  0  0  0  0  0  0  0  0  0  0
  131.0653  134.0579  156.6120 H   0  0  0  0  0  0  0  0  0  0  0  0
  127.8019  135.5795  159.1021 C   0  0  0  0  0  0  0  0  0  0  0  0
  126.5884  135.3880  159.7359 C   0  0  0  0  0  0  0  0  0  0  0  0
  125.4094  135.5207  159.0262 C   0  0  0  0  0  0  0  0  0  0  0  0
  125.4445  135.8358  157.6807 C   0  0  0  0  0  0  0  0  0  0  0  0
  126.6582  136.0221  157.0457 C   0  0  0  0  0  0  0  0  0  0  0  0
  127.8369  135.8937  157.7564 C   0  0  0  0  0  0  0  0  0  0  0  0
  132.7559  134.7852  162.3775 H   0  0  0  0  0  0  0  0  0  0  0  0
  133.9811  135.7506  161.5200 H   0  0  0  0  0  0  0  0  0  0  0  0
  134.1188  135.4950  163.2762 H   0  0  0  0  0  0  0  0  0  0  0  0
  133.2671  137.7685  162.7718 H   0  0  0  0  0  0  0  0  0  0  0  0
  132.0421  136.8031  163.6294 H   0  0  0  0  0  0  0  0  0  0  0  0
  131.9373  137.6971  160.6976 H   0  0  0  0  0  0  0  0  0  0  0  0
  130.1402  136.0090  162.4674 H   0  0  0  0  0  0  0  0  0  0  0  0
  129.9530  137.4034  159.6955 H   0  0  0  0  0  0  0  0  0  0  0  0
  128.5851  137.3049  160.8300 H   0  0  0  0  0  0  0  0  0  0  0  0
  130.9424  135.5120  158.8473 H   0  0  0  0  0  0  0  0  0  0  0  0
  129.0278  130.6907  157.9090 H   0  0  0  0  0  0  0  0  0  0  0  0
  129.5964  132.8747  154.2924 H   0  0  0  0  0  0  0  0  0  0  0  0
  130.2334  131.6820  152.2373 H   0  0  0  0  0  0  0  0  0  0  0  0
  132.6188  128.8922  152.1679 H   0  0  0  0  0  0  0  0  0  0  0  0
  131.7793  130.1271  151.1992 H   0  0  0  0  0  0  0  0  0  0  0  0
  130.8662  127.8669  150.7445 H   0  0  0  0  0  0  0  0  0  0  0  0
  130.4794  127.6758  152.4713 H   0  0  0  0  0  0  0  0  0  0  0  0
  129.6399  128.9107  151.5027 H   0  0  0  0  0  0  0  0  0  0  0  0
  132.2537  128.7273  154.5584 H   0  0  0  0  0  0  0  0  0  0  0  0
  131.6357  129.9132  156.6234 H   0  0  0  0  0  0  0  0  0  0  0  0
  126.5612  135.1380  160.7861 H   0  0  0  0  0  0  0  0  0  0  0  0
  124.4613  135.3755  159.5222 H   0  0  0  0  0  0  0  0  0  0  0  0
  124.5235  135.9369  157.1257 H   0  0  0  0  0  0  0  0  0  0  0  0
  126.6855  136.2683  155.9945 H   0  0  0  0  0  0  0  0  0  0  0  0
  128.7851  136.0393  157.2603 H   0  0  0  0  0  0  0  0  0  0  0  0
  1  2  1  0
  1 30  1  0
  1 31  1  0
  1 32  1  0
  2  3  1  0
  2 33  1  0
  2 34  1  0
  3  4  2  0
  3 35  1  0
  4  5  1  0
  4 36  1  0
  5  6  1  0
  5 37  1  0
  5 38  1  0
  6  7  1  1
  6  8  1  0
  6 24  1  0
  8 39  1  0
  9  8  1  0
  9 22  2  0
  9 10  1  0
 10 11  1  0
 10 12  1  0
 12 13  2  0
 12 40  1  0
 13 14  1  0
 13 22  1  0
 14 21  1  0
 14 15  2  0
 15 16  1  0
 15 41  1  0
 16 17  2  0
 16 42  1  0
 17 18  1  0
 17 20  1  0
 18 19  1  0
 18 43  1  0
 18 44  1  0
 19 45  1  0
 19 46  1  0
 19 47  1  0
 20 21  2  0
 20 48  1  0
 21 49  1  0
 22 23  1  0
 24 29  1  0
 24 25  2  0
 25 26  1  0
 25 50  1  0
 26 27  2  0
 26 51  1  0
 27 28  1  0
 27 52  1  0
 28 29  2  0
 28 53  1  0
 29 54  1  0
M  CHG  1  22   1
M  END
>  <DOCK_score>  (1) 
-60.053936

>  <SMILES>  (1) 
CCC=CC[C@H](Nc1[nH]cc(-c2ccc(CC)cc2)[nH+]1)c1ccccc1

$$$$
