C=C(C)[C@@H](Nc1[nH]cc(-c2ccc(C(F)(F)F)cc2)[nH+]1)c1ccc(O)cc1
     RDKit          3D

 46 48  0  0  1  0  0  0  0  0999 V2000
  127.9146  136.0921  157.8330 C   0  0  0  0  0  0  0  0  0  0  0  0
  127.8729  135.7874  159.1064 C   0  0  0  0  0  0  0  0  0  0  0  0
  126.5444  135.6252  159.7993 C   0  0  0  0  0  0  0  0  0  0  0  0
  129.1533  135.5990  159.8784 C   0  0  1  0  0  0  0  0  0  0  0  0
  128.9913  134.8789  160.6806 H   0  0  0  0  0  0  0  0  0  0  0  0
  130.1973  135.1015  158.9790 N   0  0  0  0  0  0  0  0  0  0  0  0
  130.0252  133.8974  158.3178 C   0  0  0  0  0  0  0  0  0  0  0  0
  129.3115  132.8345  158.7793 N   0  0  0  0  0  0  0  0  0  0  0  0
  128.8359  132.7848  159.6232 H   0  0  0  0  0  0  0  0  0  0  0  0
  129.3887  131.8453  157.8294 C   0  0  0  0  0  0  0  0  0  0  0  0
  130.1467  132.3316  156.8156 C   0  0  0  0  0  0  0  0  0  0  0  0
  130.5025  131.6115  155.5685 C   0  0  0  0  0  0  0  0  0  0  0  0
  130.1242  132.1279  154.3303 C   0  0  0  0  0  0  0  0  0  0  0  0
  130.4584  131.4538  153.1734 C   0  0  0  0  0  0  0  0  0  0  0  0
  131.1675  130.2675  153.2412 C   0  0  0  0  0  0  0  0  0  0  0  0
  131.5295  129.5360  151.9743 C   0  0  0  0  0  0  0  0  0  0  0  0
  131.0435  130.2467  150.8707 F   0  0  0  0  0  0  0  0  0  0  0  0
  132.9208  129.4254  151.8809 F   0  0  0  0  0  0  0  0  0  0  0  0
  130.9597  128.2591  151.9939 F   0  0  0  0  0  0  0  0  0  0  0  0
  131.5406  129.7479  154.4673 C   0  0  0  0  0  0  0  0  0  0  0  0
  131.2168  130.4163  155.6304 C   0  0  0  0  0  0  0  0  0  0  0  0
  130.5270  133.5913  157.1464 N   0  0  0  0  0  0  0  0  0  0  0  0
  131.0800  134.1731  156.6019 H   0  0  0  0  0  0  0  0  0  0  0  0
  129.5838  136.9179  160.4668 C   0  0  0  0  0  0  0  0  0  0  0  0
  129.8487  137.9907  159.6357 C   0  0  0  0  0  0  0  0  0  0  0  0
  130.2381  139.2025  160.1729 C   0  0  0  0  0  0  0  0  0  0  0  0
  130.3740  139.3391  161.5468 C   0  0  0  0  0  0  0  0  0  0  0  0
  130.7617  140.5287  162.0774 O   0  0  0  0  0  0  0  0  0  0  0  0
  130.1129  138.2596  162.3781 C   0  0  0  0  0  0  0  0  0  0  0  0
  129.7185  137.0517  161.8364 C   0  0  0  0  0  0  0  0  0  0  0  0
  128.8665  136.2083  157.3364 H   0  0  0  0  0  0  0  0  0  0  0  0
  126.9969  136.2273  157.2798 H   0  0  0  0  0  0  0  0  0  0  0  0
  126.2270  136.5856  160.2057 H   0  0  0  0  0  0  0  0  0  0  0  0
  125.8025  135.2703  159.0841 H   0  0  0  0  0  0  0  0  0  0  0  0
  126.6430  134.9026  160.6094 H   0  0  0  0  0  0  0  0  0  0  0  0
  131.0090  135.6157  158.8468 H   0  0  0  0  0  0  0  0  0  0  0  0
  128.9328  130.8676  157.8801 H   0  0  0  0  0  0  0  0  0  0  0  0
  129.5702  133.0534  154.2766 H   0  0  0  0  0  0  0  0  0  0  0  0
  130.1661  131.8531  152.2135 H   0  0  0  0  0  0  0  0  0  0  0  0
  132.0899  128.8193  154.5142 H   0  0  0  0  0  0  0  0  0  0  0  0
  131.5122  130.0115  156.5871 H   0  0  0  0  0  0  0  0  0  0  0  0
  129.7471  137.8825  158.5660 H   0  0  0  0  0  0  0  0  0  0  0  0
  130.4407  140.0414  159.5237 H   0  0  0  0  0  0  0  0  0  0  0  0
  130.8281  140.5261  163.0422 H   0  0  0  0  0  0  0  0  0  0  0  0
  130.2184  138.3634  163.4480 H   0  0  0  0  0  0  0  0  0  0  0  0
  129.5148  136.2109  162.4831 H   0  0  0  0  0  0  0  0  0  0  0  0
  1  2  2  0
  1 31  1  0
  1 32  1  0
  2  3  1  0
  2  4  1  0
  3 33  1  0
  3 34  1  0
  3 35  1  0
  4  5  1  1
  4  6  1  0
  4 24  1  0
  6 36  1  0
  7  6  1  0
  7 22  2  0
  7  8  1  0
  8  9  1  0
  8 10  1  0
 10 11  2  0
 10 37  1  0
 11 12  1  0
 11 22  1  0
 12 21  1  0
 12 13  2  0
 13 14  1  0
 13 38  1  0
 14 15  2  0
 14 39  1  0
 15 16  1  0
 15 20  1  0
 16 17  1  0
 16 18  1  0
 16 19  1  0
 20 21  2  0
 20 40  1  0
 21 41  1  0
 22 23  1  0
 24 30  1  0
 24 25  2  0
 25 26  1  0
 25 42  1  0
 26 27  2  0
 26 43  1  0
 27 28  1  0
 27 29  1  0
 28 44  1  0
 29 30  2  0
 29 45  1  0
 30 46  1  0
M  CHG  1  22   1
M  END
>  <DOCK_score>  (1) 
-56.557346

>  <SMILES>  (1) 
C=C(C)[C@@H](Nc1[nH]cc(-c2ccc(C(F)(F)F)cc2)[nH+]1)c1ccc(O)cc1

$$$$
