Nc1ccc(-c2c[nH]c(N[C@@H](c3ccccc3)c3cccc4c3NC(=O)CO4)[nH+]2)cc1
     RDKit          3D

 53 57  0  0  1  0  0  0  0  0999 V2000
  131.0219  129.4783  150.6912 N   0  0  0  0  0  0  0  0  0  0  0  0
  130.9388  130.0291  151.9724 C   0  0  0  0  0  0  0  0  0  0  0  0
  130.2760  131.2350  152.1674 C   0  0  0  0  0  0  0  0  0  0  0  0
  130.1927  131.7807  153.4310 C   0  0  0  0  0  0  0  0  0  0  0  0
  130.7739  131.1217  154.5133 C   0  0  0  0  0  0  0  0  0  0  0  0
  130.6856  131.7066  155.8738 C   0  0  0  0  0  0  0  0  0  0  0  0
  130.1044  131.1294  156.9542 C   0  0  0  0  0  0  0  0  0  0  0  0
  130.2468  132.0092  158.0010 N   0  0  0  0  0  0  0  0  0  0  0  0
  129.9317  131.8778  158.9090 H   0  0  0  0  0  0  0  0  0  0  0  0
  130.9113  133.0984  157.5280 C   0  0  0  0  0  0  0  0  0  0  0  0
  131.2556  134.2170  158.2676 N   0  0  0  0  0  0  0  0  0  0  0  0
  130.9017  134.2940  159.6872 C   0  0  1  0  0  0  0  0  0  0  0  0
  131.0537  133.3203  160.1528 H   0  0  0  0  0  0  0  0  0  0  0  0
  131.7735  135.3178  160.3674 C   0  0  0  0  0  0  0  0  0  0  0  0
  132.9766  134.9362  160.9313 C   0  0  0  0  0  0  0  0  0  0  0  0
  133.7783  135.8761  161.5513 C   0  0  0  0  0  0  0  0  0  0  0  0
  133.3725  137.1960  161.6159 C   0  0  0  0  0  0  0  0  0  0  0  0
  132.1672  137.5768  161.0563 C   0  0  0  0  0  0  0  0  0  0  0  0
  131.3675  136.6376  160.4324 C   0  0  0  0  0  0  0  0  0  0  0  0
  129.4556  134.6956  159.8231 C   0  0  0  0  0  0  0  0  0  0  0  0
  128.6906  134.9265  158.6939 C   0  0  0  0  0  0  0  0  0  0  0  0
  127.3641  135.2955  158.8162 C   0  0  0  0  0  0  0  0  0  0  0  0
  126.7917  135.4352  160.0681 C   0  0  0  0  0  0  0  0  0  0  0  0
  127.5502  135.2051  161.2021 C   0  0  0  0  0  0  0  0  0  0  0  0
  128.8871  134.8289  161.0786 C   0  0  0  0  0  0  0  0  0  0  0  0
  129.6465  134.6063  162.2361 N   0  0  0  0  0  0  0  0  0  0  0  0
  129.0074  134.4397  163.4147 C   0  0  0  0  0  0  0  0  0  0  0  0
  129.6434  134.2719  164.4338 O   0  0  0  0  0  0  0  0  0  0  0  0
  127.5007  134.4627  163.4579 C   0  0  0  0  0  0  0  0  0  0  0  0
  127.0038  135.3359  162.4405 O   0  0  0  0  0  0  0  0  0  0  0  0
  131.1668  132.9163  156.2553 N   0  0  0  0  0  0  0  0  0  0  0  0
  131.6285  133.5451  155.6789 H   0  0  0  0  0  0  0  0  0  0  0  0
  131.4431  129.9150  154.3143 C   0  0  0  0  0  0  0  0  0  0  0  0
  131.5185  129.3700  153.0499 C   0  0  0  0  0  0  0  0  0  0  0  0
  130.6172  129.9374  149.9387 H   0  0  0  0  0  0  0  0  0  0  0  0
  131.4843  128.6366  150.5542 H   0  0  0  0  0  0  0  0  0  0  0  0
  129.8262  131.7454  151.3286 H   0  0  0  0  0  0  0  0  0  0  0  0
  129.6773  132.7175  153.5822 H   0  0  0  0  0  0  0  0  0  0  0  0
  129.6221  130.1637  156.9864 H   0  0  0  0  0  0  0  0  0  0  0  0
  131.7311  134.9497  157.8458 H   0  0  0  0  0  0  0  0  0  0  0  0
  133.2916  133.9042  160.8843 H   0  0  0  0  0  0  0  0  0  0  0  0
  134.7200  135.5787  161.9884 H   0  0  0  0  0  0  0  0  0  0  0  0
  133.9972  137.9297  162.1035 H   0  0  0  0  0  0  0  0  0  0  0  0
  131.8501  138.6080  161.1069 H   0  0  0  0  0  0  0  0  0  0  0  0
  130.4257  136.9349  159.9954 H   0  0  0  0  0  0  0  0  0  0  0  0
  129.1314  134.8186  157.7138 H   0  0  0  0  0  0  0  0  0  0  0  0
  126.7719  135.4749  157.9310 H   0  0  0  0  0  0  0  0  0  0  0  0
  125.7549  135.7230  160.1599 H   0  0  0  0  0  0  0  0  0  0  0  0
  130.6147  134.5692  162.1915 H   0  0  0  0  0  0  0  0  0  0  0  0
  127.1711  134.8184  164.4341 H   0  0  0  0  0  0  0  0  0  0  0  0
  127.1175  133.4559  163.2908 H   0  0  0  0  0  0  0  0  0  0  0  0
  131.8983  129.4053  155.1505 H   0  0  0  0  0  0  0  0  0  0  0  0
  132.0328  128.4329  152.8960 H   0  0  0  0  0  0  0  0  0  0  0  0
  1  2  1  0
  1 35  1  0
  1 36  1  0
  2 34  2  0
  2  3  1  0
  3  4  2  0
  3 37  1  0
  4  5  1  0
  4 38  1  0
  5  6  1  0
  5 33  2  0
  6 31  1  0
  6  7  2  0
  7  8  1  0
  7 39  1  0
  8  9  1  0
  8 10  1  0
 10 11  1  0
 10 31  2  0
 11 12  1  0
 11 40  1  0
 12 13  1  1
 12 14  1  0
 12 20  1  0
 14 19  1  0
 14 15  2  0
 15 16  1  0
 15 41  1  0
 16 17  2  0
 16 42  1  0
 17 18  1  0
 17 43  1  0
 18 19  2  0
 18 44  1  0
 19 45  1  0
 20 25  1  0
 20 21  2  0
 21 22  1  0
 21 46  1  0
 22 23  2  0
 22 47  1  0
 23 24  1  0
 23 48  1  0
 24 30  1  0
 24 25  2  0
 25 26  1  0
 26 27  1  0
 26 49  1  0
 27 28  2  0
 27 29  1  0
 29 30  1  0
 29 50  1  0
 29 51  1  0
 31 32  1  0
 33 34  1  0
 33 52  1  0
 34 53  1  0
M  CHG  1  31   1
M  END
>  <DOCK_score>  (1) 
-59.785118

>  <SMILES>  (1) 
Nc1ccc(-c2c[nH]c(N[C@@H](c3ccccc3)c3cccc4c3NC(=O)CO4)[nH+]2)cc1

$$$$
