C1=CCC(Cc2cccc(C3=CC[N@H+](Cc4ccc(-c5ccccc5)[nH]4)CC3)c2)C1
     RDKit          3D

 61 65  0  0  1  0  0  0  0  0999 V2000
  136.0347  140.8447  165.4911 C   0  0  0  0  0  0  0  0  0  0  0  0
  136.8609  141.8529  165.4234 C   0  0  0  0  0  0  0  0  0  0  0  0
  137.0218  142.3299  163.9988 C   0  0  0  0  0  0  0  0  0  0  0  0
  136.4742  141.1736  163.1302 C   0  0  0  0  0  0  0  0  0  0  0  0
  135.7219  141.7111  161.9111 C   0  0  0  0  0  0  0  0  0  0  0  0
  135.5481  140.6065  160.9010 C   0  0  0  0  0  0  0  0  0  0  0  0
  136.5108  140.4027  159.9283 C   0  0  0  0  0  0  0  0  0  0  0  0
  136.3592  139.3904  158.9978 C   0  0  0  0  0  0  0  0  0  0  0  0
  135.2453  138.5767  159.0346 C   0  0  0  0  0  0  0  0  0  0  0  0
  134.2706  138.7771  160.0126 C   0  0  0  0  0  0  0  0  0  0  0  0
  133.0753  137.9088  160.0581 C   0  0  0  0  0  0  0  0  0  0  0  0
  131.8869  138.4588  159.9320 C   0  0  0  0  0  0  0  0  0  0  0  0
  130.6124  137.6657  159.9643 C   0  0  0  0  0  0  0  0  0  0  0  0
  130.8867  136.2434  159.7285 N   0  0  2  0  0  0  0  0  0  0  0  0
  131.2060  136.1138  158.7802 H   0  0  0  0  0  0  0  0  0  0  0  0
  129.6621  135.4618  159.9461 C   0  0  0  0  0  0  0  0  0  0  0  0
  129.7873  134.1289  159.2539 C   0  0  0  0  0  0  0  0  0  0  0  0
  129.4480  132.9319  159.7792 C   0  0  0  0  0  0  0  0  0  0  0  0
  129.7199  131.9495  158.8132 C   0  0  0  0  0  0  0  0  0  0  0  0
  130.2218  132.5853  157.7178 C   0  0  0  0  0  0  0  0  0  0  0  0
  130.6474  131.9413  156.4565 C   0  0  0  0  0  0  0  0  0  0  0  0
  130.5424  132.6306  155.2476 C   0  0  0  0  0  0  0  0  0  0  0  0
  130.9462  132.0258  154.0751 C   0  0  0  0  0  0  0  0  0  0  0  0
  131.4445  130.7353  154.0947 C   0  0  0  0  0  0  0  0  0  0  0  0
  131.5458  130.0445  155.2892 C   0  0  0  0  0  0  0  0  0  0  0  0
  131.1505  130.6396  156.4694 C   0  0  0  0  0  0  0  0  0  0  0  0
  130.2567  133.9289  157.9900 N   0  0  0  0  0  0  0  0  0  0  0  0
  130.5662  134.6211  157.3849 H   0  0  0  0  0  0  0  0  0  0  0  0
  131.9297  135.7953  160.6648 C   0  0  0  0  0  0  0  0  0  0  0  0
  133.2608  136.4291  160.2528 C   0  0  0  0  0  0  0  0  0  0  0  0
  134.4322  139.7969  160.9515 C   0  0  0  0  0  0  0  0  0  0  0  0
  135.5068  140.4812  164.1228 C   0  0  0  0  0  0  0  0  0  0  0  0
  135.7642  140.3368  166.4050 H   0  0  0  0  0  0  0  0  0  0  0  0
  137.3639  142.2887  166.2740 H   0  0  0  0  0  0  0  0  0  0  0  0
  136.4402  143.2370  163.8340 H   0  0  0  0  0  0  0  0  0  0  0  0
  138.0735  142.5081  163.7745 H   0  0  0  0  0  0  0  0  0  0  0  0
  137.2746  140.4985  162.8276 H   0  0  0  0  0  0  0  0  0  0  0  0
  134.7431  142.0778  162.2207 H   0  0  0  0  0  0  0  0  0  0  0  0
  136.2905  142.5265  161.4638 H   0  0  0  0  0  0  0  0  0  0  0  0
  137.3846  141.0367  159.8954 H   0  0  0  0  0  0  0  0  0  0  0  0
  137.1143  139.2363  158.2414 H   0  0  0  0  0  0  0  0  0  0  0  0
  135.1281  137.7866  158.3078 H   0  0  0  0  0  0  0  0  0  0  0  0
  131.8255  139.5283  159.7949 H   0  0  0  0  0  0  0  0  0  0  0  0
  129.9355  138.0349  159.1938 H   0  0  0  0  0  0  0  0  0  0  0  0
  130.1423  137.7851  160.9405 H   0  0  0  0  0  0  0  0  0  0  0  0
  129.5168  135.3040  161.0147 H   0  0  0  0  0  0  0  0  0  0  0  0
  128.8082  136.0035  159.5393 H   0  0  0  0  0  0  0  0  0  0  0  0
  129.0413  132.7608  160.7650 H   0  0  0  0  0  0  0  0  0  0  0  0
  129.5610  130.8865  158.9193 H   0  0  0  0  0  0  0  0  0  0  0  0
  130.1493  133.6363  155.2304 H   0  0  0  0  0  0  0  0  0  0  0  0
  130.8693  132.5597  153.1393 H   0  0  0  0  0  0  0  0  0  0  0  0
  131.7555  130.2649  153.1736 H   0  0  0  0  0  0  0  0  0  0  0  0
  131.9357  129.0374  155.2977 H   0  0  0  0  0  0  0  0  0  0  0  0
  131.2298  130.0991  157.4011 H   0  0  0  0  0  0  0  0  0  0  0  0
  132.0141  134.7093  160.6261 H   0  0  0  0  0  0  0  0  0  0  0  0
  131.6726  136.1092  161.6765 H   0  0  0  0  0  0  0  0  0  0  0  0
  133.6035  135.9804  159.3204 H   0  0  0  0  0  0  0  0  0  0  0  0
  134.0023  136.2558  161.0327 H   0  0  0  0  0  0  0  0  0  0  0  0
  133.6836  139.9542  161.7138 H   0  0  0  0  0  0  0  0  0  0  0  0
  135.5286  139.4005  163.9822 H   0  0  0  0  0  0  0  0  0  0  0  0
  134.4927  140.8597  163.9941 H   0  0  0  0  0  0  0  0  0  0  0  0
  1 32  1  0
  1  2  2  0
  1 33  1  0
  2  3  1  0
  2 34  1  0
  3  4  1  0
  3 35  1  0
  3 36  1  0
  4  5  1  0
  4 32  1  0
  4 37  1  0
  5  6  1  0
  5 38  1  0
  5 39  1  0
  6 31  1  0
  6  7  2  0
  7  8  1  0
  7 40  1  0
  8  9  2  0
  8 41  1  0
  9 10  1  0
  9 42  1  0
 10 11  1  0
 10 31  2  0
 11 30  1  0
 11 12  2  0
 12 13  1  0
 12 43  1  0
 13 14  1  0
 13 44  1  0
 13 45  1  0
 14 15  1  6
 14 16  1  0
 14 29  1  0
 16 17  1  0
 16 46  1  0
 16 47  1  0
 17 27  1  0
 17 18  2  0
 18 19  1  0
 18 48  1  0
 19 20  2  0
 19 49  1  0
 20 21  1  0
 20 27  1  0
 21 26  1  0
 21 22  2  0
 22 23  1  0
 22 50  1  0
 23 24  2  0
 23 51  1  0
 24 25  1  0
 24 52  1  0
 25 26  2  0
 25 53  1  0
 26 54  1  0
 27 28  1  0
 29 30  1  0
 29 55  1  0
 29 56  1  0
 30 57  1  0
 30 58  1  0
 31 59  1  0
 32 60  1  0
 32 61  1  0
M  CHG  1  14   1
M  END
>  <DOCK_score>  (1) 
-61.652802

>  <SMILES>  (1) 
C1=CCC(Cc2cccc(C3=CC[N@H+](Cc4ccc(-c5ccccc5)[nH]4)CC3)c2)C1

$$$$
