CCc1ccc(-c2c[nH]c(N[C@H](c3ccc(CC)cc3)C3CCC(=O)NC3)[nH+]2)cc1
     RDKit          3D

 61 64  0  0  1  0  0  0  0  0999 V2000
  132.0711  129.6734  152.4981 C   0  0  0  0  0  0  0  0  0  0  0  0
  130.6626  129.6501  153.0958 C   0  0  0  0  0  0  0  0  0  0  0  0
  130.6310  130.4986  154.3409 C   0  0  0  0  0  0  0  0  0  0  0  0
  130.3223  131.8440  154.2509 C   0  0  0  0  0  0  0  0  0  0  0  0
  130.2928  132.6253  155.3881 C   0  0  0  0  0  0  0  0  0  0  0  0
  130.5748  132.0565  156.6289 C   0  0  0  0  0  0  0  0  0  0  0  0
  130.5445  132.8912  157.8547 C   0  0  0  0  0  0  0  0  0  0  0  0
  130.2256  132.4659  159.1021 C   0  0  0  0  0  0  0  0  0  0  0  0
  130.3238  133.5561  159.9322 N   0  0  0  0  0  0  0  0  0  0  0  0
  130.1563  133.5676  160.8876 H   0  0  0  0  0  0  0  0  0  0  0  0
  130.7001  134.6167  159.1669 C   0  0  0  0  0  0  0  0  0  0  0  0
  130.9094  135.9066  159.6237 N   0  0  0  0  0  0  0  0  0  0  0  0
  130.1558  136.4069  160.7761 C   0  0  2  0  0  0  0  0  0  0  0  0
  130.7049  136.1886  161.6919 H   0  0  0  0  0  0  0  0  0  0  0  0
  128.8083  135.7339  160.8259 C   0  0  0  0  0  0  0  0  0  0  0  0
  127.9290  135.8687  159.7678 C   0  0  0  0  0  0  0  0  0  0  0  0
  126.6928  135.2518  159.8136 C   0  0  0  0  0  0  0  0  0  0  0  0
  126.3360  134.4999  160.9174 C   0  0  0  0  0  0  0  0  0  0  0  0
  124.9882  133.8276  160.9676 C   0  0  0  0  0  0  0  0  0  0  0  0
  125.0967  132.4223  160.3724 C   0  0  0  0  0  0  0  0  0  0  0  0
  127.2133  134.3694  161.9777 C   0  0  0  0  0  0  0  0  0  0  0  0
  128.4516  134.9821  161.9296 C   0  0  0  0  0  0  0  0  0  0  0  0
  129.9659  137.9193  160.6436 C   0  0  2  0  0  0  0  0  0  0  0  0
  131.2385  138.6400  161.1047 C   0  0  0  0  0  0  0  0  0  0  0  0
  131.0903  140.1310  160.7912 C   0  0  0  0  0  0  0  0  0  0  0  0
  129.7628  140.6278  161.2871 C   0  0  0  0  0  0  0  0  0  0  0  0
  129.6101  141.8238  161.4181 O   0  0  0  0  0  0  0  0  0  0  0  0
  128.7430  139.8243  161.5915 N   0  0  0  0  0  0  0  0  0  0  0  0
  128.8013  138.3694  161.5265 C   0  0  0  0  0  0  0  0  0  0  0  0
  130.8264  134.2165  157.9252 N   0  0  0  0  0  0  0  0  0  0  0  0
  131.0821  134.7779  157.1766 H   0  0  0  0  0  0  0  0  0  0  0  0
  130.8909  130.7016  156.7128 C   0  0  0  0  0  0  0  0  0  0  0  0
  130.9118  129.9285  155.5697 C   0  0  0  0  0  0  0  0  0  0  0  0
  132.7804  129.2776  153.2250 H   0  0  0  0  0  0  0  0  0  0  0  0
  132.0936  129.0601  151.5973 H   0  0  0  0  0  0  0  0  0  0  0  0
  132.3427  130.6986  152.2466 H   0  0  0  0  0  0  0  0  0  0  0  0
  130.3912  128.6256  153.3469 H   0  0  0  0  0  0  0  0  0  0  0  0
  129.9534  130.0466  152.3685 H   0  0  0  0  0  0  0  0  0  0  0  0
  130.1040  132.2837  153.2890 H   0  0  0  0  0  0  0  0  0  0  0  0
  130.0513  133.6756  155.3168 H   0  0  0  0  0  0  0  0  0  0  0  0
  129.9483  131.4622  159.3884 H   0  0  0  0  0  0  0  0  0  0  0  0
  131.5550  136.4793  159.1806 H   0  0  0  0  0  0  0  0  0  0  0  0
  128.2076  136.4565  158.9057 H   0  0  0  0  0  0  0  0  0  0  0  0
  126.0057  135.3573  158.9872 H   0  0  0  0  0  0  0  0  0  0  0  0
  124.2695  134.4114  160.3925 H   0  0  0  0  0  0  0  0  0  0  0  0
  124.6548  133.7590  162.0029 H   0  0  0  0  0  0  0  0  0  0  0  0
  124.1218  131.9361  160.4085 H   0  0  0  0  0  0  0  0  0  0  0  0
  125.8155  131.8388  160.9475 H   0  0  0  0  0  0  0  0  0  0  0  0
  125.4302  132.4911  159.3368 H   0  0  0  0  0  0  0  0  0  0  0  0
  126.9328  133.7856  162.8420 H   0  0  0  0  0  0  0  0  0  0  0  0
  129.1384  134.8771  162.7565 H   0  0  0  0  0  0  0  0  0  0  0  0
  129.7558  138.1719  159.6043 H   0  0  0  0  0  0  0  0  0  0  0  0
  131.3703  138.5016  162.1777 H   0  0  0  0  0  0  0  0  0  0  0  0
  132.1010  138.2374  160.5736 H   0  0  0  0  0  0  0  0  0  0  0  0
  131.1542  140.2825  159.7136 H   0  0  0  0  0  0  0  0  0  0  0  0
  131.8906  140.6843  161.2827 H   0  0  0  0  0  0  0  0  0  0  0  0
  127.9101  140.2339  161.8738 H   0  0  0  0  0  0  0  0  0  0  0  0
  127.8673  137.9897  161.1121 H   0  0  0  0  0  0  0  0  0  0  0  0
  128.9351  137.9689  162.5313 H   0  0  0  0  0  0  0  0  0  0  0  0
  131.1150  130.2567  157.6710 H   0  0  0  0  0  0  0  0  0  0  0  0
  131.1524  128.8778  155.6341 H   0  0  0  0  0  0  0  0  0  0  0  0
  1  2  1  0
  1 34  1  0
  1 35  1  0
  1 36  1  0
  2  3  1  0
  2 37  1  0
  2 38  1  0
  3 33  2  0
  3  4  1  0
  4  5  2  0
  4 39  1  0
  5  6  1  0
  5 40  1  0
  6  7  1  0
  6 32  2  0
  7 30  1  0
  7  8  2  0
  8  9  1  0
  8 41  1  0
  9 10  1  0
  9 11  1  0
 11 12  1  0
 11 30  2  0
 12 13  1  0
 12 42  1  0
 13 14  1  1
 13 15  1  0
 13 23  1  0
 15 22  1  0
 15 16  2  0
 16 17  1  0
 16 43  1  0
 17 18  2  0
 17 44  1  0
 18 19  1  0
 18 21  1  0
 19 20  1  0
 19 45  1  0
 19 46  1  0
 20 47  1  0
 20 48  1  0
 20 49  1  0
 21 22  2  0
 21 50  1  0
 22 51  1  0
 23 29  1  0
 23 24  1  0
 23 52  1  6
 24 25  1  0
 24 53  1  0
 24 54  1  0
 25 26  1  0
 25 55  1  0
 25 56  1  0
 26 27  2  0
 26 28  1  0
 28 29  1  0
 28 57  1  0
 29 58  1  0
 29 59  1  0
 30 31  1  0
 32 33  1  0
 32 60  1  0
 33 61  1  0
M  CHG  1  30   1
M  END
>  <DOCK_score>  (1) 
-56.165592

>  <SMILES>  (1) 
CCc1ccc(-c2c[nH]c(N[C@H](c3ccc(CC)cc3)C3CCC(=O)NC3)[nH+]2)cc1

$$$$
