C[C@H]([NH+]=C(NC1CCCC1)N[C@H]1CCC(=O)NC1)c1cnn(-c2ccccc2)c1
     RDKit          3D

 60 63  0  0  1  0  0  0  0  0999 V2000
  133.0586  133.9955  161.8593 C   0  0  0  0  0  0  0  0  0  0  0  0
  131.9570  134.9162  161.3306 C   0  0  2  0  0  0  0  0  0  0  0  0
  131.1390  134.9544  162.0498 H   0  0  0  0  0  0  0  0  0  0  0  0
  131.4601  134.3994  160.0529 N   0  0  0  0  0  0  0  0  0  0  0  0
  132.0520  133.9008  159.4683 H   0  0  0  0  0  0  0  0  0  0  0  0
  130.2225  134.6095  159.7020 C   0  0  0  0  0  0  0  0  0  0  0  0
  129.7563  134.1245  158.5030 N   0  0  0  0  0  0  0  0  0  0  0  0
  130.6504  133.3716  157.6199 C   0  0  0  0  0  0  0  0  0  0  0  0
  129.8769  132.8800  156.3790 C   0  0  0  0  0  0  0  0  0  0  0  0
  130.4703  131.4772  156.0936 C   0  0  0  0  0  0  0  0  0  0  0  0
  130.6926  130.9035  157.5151 C   0  0  0  0  0  0  0  0  0  0  0  0
  131.1693  132.1156  158.3419 C   0  0  0  0  0  0  0  0  0  0  0  0
  129.3835  135.3162  160.5306 N   0  0  0  0  0  0  0  0  0  0  0  0
  127.9465  135.0316  160.5336 C   0  0  1  0  0  0  0  0  0  0  0  0
  127.5375  135.2042  159.5380 H   0  0  0  0  0  0  0  0  0  0  0  0
  127.7083  133.5728  160.9418 C   0  0  0  0  0  0  0  0  0  0  0  0
  126.2224  133.2551  160.7579 C   0  0  0  0  0  0  0  0  0  0  0  0
  125.3876  134.3267  161.3982 C   0  0  0  0  0  0  0  0  0  0  0  0
  124.2230  134.0833  161.6334 O   0  0  0  0  0  0  0  0  0  0  0  0
  125.8585  135.5315  161.7225 N   0  0  0  0  0  0  0  0  0  0  0  0
  127.2449  135.9429  161.5415 C   0  0  0  0  0  0  0  0  0  0  0  0
  132.5141  136.3019  161.1293 C   0  0  0  0  0  0  0  0  0  0  0  0
  131.8063  137.4131  160.6580 C   0  0  0  0  0  0  0  0  0  0  0  0
  132.6236  138.4348  160.6230 N   0  0  0  0  0  0  0  0  0  0  0  0
  133.8824  138.0040  161.0620 N   0  0  0  0  0  0  0  0  0  0  0  0
  135.0349  138.7948  161.1662 C   0  0  0  0  0  0  0  0  0  0  0  0
  136.2215  138.2381  161.6240 C   0  0  0  0  0  0  0  0  0  0  0  0
  137.3568  139.0188  161.7209 C   0  0  0  0  0  0  0  0  0  0  0  0
  137.3098  140.3561  161.3720 C   0  0  0  0  0  0  0  0  0  0  0  0
  136.1282  140.9147  160.9208 C   0  0  0  0  0  0  0  0  0  0  0  0
  134.9908  140.1379  160.8171 C   0  0  0  0  0  0  0  0  0  0  0  0
  133.7886  136.6898  161.3670 C   0  0  0  0  0  0  0  0  0  0  0  0
  133.4283  134.3801  162.8099 H   0  0  0  0  0  0  0  0  0  0  0  0
  132.6557  132.9932  162.0049 H   0  0  0  0  0  0  0  0  0  0  0  0
  133.8767  133.9573  161.1401 H   0  0  0  0  0  0  0  0  0  0  0  0
  128.8354  134.2811  158.2416 H   0  0  0  0  0  0  0  0  0  0  0  0
  131.4876  133.9989  157.3138 H   0  0  0  0  0  0  0  0  0  0  0  0
  128.8117  132.8061  156.5981 H   0  0  0  0  0  0  0  0  0  0  0  0
  130.0483  133.5467  155.5339 H   0  0  0  0  0  0  0  0  0  0  0  0
  131.4162  131.5601  155.5583 H   0  0  0  0  0  0  0  0  0  0  0  0
  129.7646  130.8623  155.5350 H   0  0  0  0  0  0  0  0  0  0  0  0
  131.4586  130.1283  157.4981 H   0  0  0  0  0  0  0  0  0  0  0  0
  129.7605  130.5087  157.9193 H   0  0  0  0  0  0  0  0  0  0  0  0
  132.2583  132.1330  158.3853 H   0  0  0  0  0  0  0  0  0  0  0  0
  130.7563  132.0668  159.3495 H   0  0  0  0  0  0  0  0  0  0  0  0
  129.7431  136.0031  161.1134 H   0  0  0  0  0  0  0  0  0  0  0  0
  128.3053  132.9133  160.3119 H   0  0  0  0  0  0  0  0  0  0  0  0
  127.9863  133.4341  161.9866 H   0  0  0  0  0  0  0  0  0  0  0  0
  125.9973  132.2950  161.2220 H   0  0  0  0  0  0  0  0  0  0  0  0
  125.9931  133.2053  159.6933 H   0  0  0  0  0  0  0  0  0  0  0  0
  125.2396  136.1741  162.1031 H   0  0  0  0  0  0  0  0  0  0  0  0
  127.7646  135.8893  162.4982 H   0  0  0  0  0  0  0  0  0  0  0  0
  127.2682  136.9696  161.1760 H   0  0  0  0  0  0  0  0  0  0  0  0
  130.7642  137.4262  160.3746 H   0  0  0  0  0  0  0  0  0  0  0  0
  136.2576  137.1949  161.9007 H   0  0  0  0  0  0  0  0  0  0  0  0
  138.2811  138.5854  162.0734 H   0  0  0  0  0  0  0  0  0  0  0  0
  138.1979  140.9655  161.4526 H   0  0  0  0  0  0  0  0  0  0  0  0
  136.0945  141.9595  160.6494 H   0  0  0  0  0  0  0  0  0  0  0  0
  134.0680  140.5750  160.4652 H   0  0  0  0  0  0  0  0  0  0  0  0
  134.5872  136.0626  161.7347 H   0  0  0  0  0  0  0  0  0  0  0  0
  1  2  1  0
  1 33  1  0
  1 34  1  0
  1 35  1  0
  2  3  1  1
  2  4  1  0
  2 22  1  0
  4  5  1  0
  6  4  2  0
  6  7  1  0
  6 13  1  0
  7  8  1  0
  7 36  1  0
  8 12  1  0
  8  9  1  0
  8 37  1  0
  9 10  1  0
  9 38  1  0
  9 39  1  0
 10 11  1  0
 10 40  1  0
 10 41  1  0
 11 12  1  0
 11 42  1  0
 11 43  1  0
 12 44  1  0
 12 45  1  0
 13 14  1  0
 13 46  1  0
 14 15  1  6
 14 21  1  0
 14 16  1  0
 16 17  1  0
 16 47  1  0
 16 48  1  0
 17 18  1  0
 17 49  1  0
 17 50  1  0
 18 19  2  0
 18 20  1  0
 20 21  1  0
 20 51  1  0
 21 52  1  0
 21 53  1  0
 22 32  2  0
 22 23  1  0
 23 24  2  0
 23 54  1  0
 24 25  1  0
 25 26  1  0
 25 32  1  0
 26 31  1  0
 26 27  2  0
 27 28  1  0
 27 55  1  0
 28 29  2  0
 28 56  1  0
 29 30  1  0
 29 57  1  0
 30 31  2  0
 30 58  1  0
 31 59  1  0
 32 60  1  0
M  CHG  1   4   1
M  END
>  <DOCK_score>  (1) 
-47.071655

>  <SMILES>  (1) 
C[C@H]([NH+]=C(NC1CCCC1)N[C@H]1CCC(=O)NC1)c1cnn(-c2ccccc2)c1

$$$$
