OC[C@@H](Cc1ccc(F)cc1)Nc1[nH]cc(C2=CCCC2)[nH+]1
     RDKit          3D

 43 45  0  0  1  0  0  0  0  0999 V2000
  131.8066  137.0009  160.3553 O   0  0  0  0  0  0  0  0  0  0  0  0
  131.5938  135.6983  160.9029 C   0  0  0  0  0  0  0  0  0  0  0  0
  130.2474  135.1557  160.4197 C   0  0  1  0  0  0  0  0  0  0  0  0
  130.0850  134.1621  160.8374 H   0  0  0  0  0  0  0  0  0  0  0  0
  129.1264  136.0909  160.8781 C   0  0  0  0  0  0  0  0  0  0  0  0
  127.8133  135.3521  160.8512 C   0  0  0  0  0  0  0  0  0  0  0  0
  127.0390  135.3613  159.7060 C   0  0  0  0  0  0  0  0  0  0  0  0
  125.8346  134.6841  159.6800 C   0  0  0  0  0  0  0  0  0  0  0  0
  125.4012  134.0002  160.8033 C   0  0  0  0  0  0  0  0  0  0  0  0
  124.2213  133.3425  160.7809 F   0  0  0  0  0  0  0  0  0  0  0  0
  126.1803  133.9869  161.9479 C   0  0  0  0  0  0  0  0  0  0  0  0
  127.3841  134.6652  161.9715 C   0  0  0  0  0  0  0  0  0  0  0  0
  130.2494  135.0762  158.9569 N   0  0  0  0  0  0  0  0  0  0  0  0
  130.0616  133.8565  158.3298 C   0  0  0  0  0  0  0  0  0  0  0  0
  129.3358  132.8158  158.8224 N   0  0  0  0  0  0  0  0  0  0  0  0
  128.8617  132.7959  159.6684 H   0  0  0  0  0  0  0  0  0  0  0  0
  129.3954  131.8005  157.9000 C   0  0  0  0  0  0  0  0  0  0  0  0
  130.1643  132.2464  156.8727 C   0  0  0  0  0  0  0  0  0  0  0  0
  130.5109  131.4888  155.6527 C   0  0  0  0  0  0  0  0  0  0  0  0
  131.1625  130.3380  155.6434 C   0  0  0  0  0  0  0  0  0  0  0  0
  131.3488  129.8379  154.2296 C   0  0  0  0  0  0  0  0  0  0  0  0
  131.0799  131.0700  153.3356 C   0  0  0  0  0  0  0  0  0  0  0  0
  130.1631  131.9206  154.2470 C   0  0  0  0  0  0  0  0  0  0  0  0
  130.5580  133.5124  157.1669 N   0  0  0  0  0  0  0  0  0  0  0  0
  131.1176  134.0721  156.6062 H   0  0  0  0  0  0  0  0  0  0  0  0
  131.8199  137.0238  159.3886 H   0  0  0  0  0  0  0  0  0  0  0  0
  131.5923  135.7575  161.9913 H   0  0  0  0  0  0  0  0  0  0  0  0
  132.3923  135.0320  160.5764 H   0  0  0  0  0  0  0  0  0  0  0  0
  129.0737  136.9500  160.2093 H   0  0  0  0  0  0  0  0  0  0  0  0
  129.3305  136.4324  161.8929 H   0  0  0  0  0  0  0  0  0  0  0  0
  127.3752  135.8983  158.8313 H   0  0  0  0  0  0  0  0  0  0  0  0
  125.2294  134.6921  158.7855 H   0  0  0  0  0  0  0  0  0  0  0  0
  125.8452  133.4504  162.8232 H   0  0  0  0  0  0  0  0  0  0  0  0
  127.9897  134.6590  162.8657 H   0  0  0  0  0  0  0  0  0  0  0  0
  130.3824  135.8783  158.4277 H   0  0  0  0  0  0  0  0  0  0  0  0
  128.9249  130.8315  157.9782 H   0  0  0  0  0  0  0  0  0  0  0  0
  131.5142  129.8255  156.5265 H   0  0  0  0  0  0  0  0  0  0  0  0
  132.3681  129.4796  154.0853 H   0  0  0  0  0  0  0  0  0  0  0  0
  130.6328  129.0461  154.0099 H   0  0  0  0  0  0  0  0  0  0  0  0
  132.0065  131.5966  153.1074 H   0  0  0  0  0  0  0  0  0  0  0  0
  130.5603  130.7831  152.4215 H   0  0  0  0  0  0  0  0  0  0  0  0
  129.1145  131.7123  154.0347 H   0  0  0  0  0  0  0  0  0  0  0  0
  130.3749  132.9812  154.1125 H   0  0  0  0  0  0  0  0  0  0  0  0
  1  2  1  0
  1 26  1  0
  2  3  1  0
  2 27  1  0
  2 28  1  0
  3  4  1  1
  3  5  1  0
  3 13  1  0
  5  6  1  0
  5 29  1  0
  5 30  1  0
  6 12  1  0
  6  7  2  0
  7  8  1  0
  7 31  1  0
  8  9  2  0
  8 32  1  0
  9 10  1  0
  9 11  1  0
 11 12  2  0
 11 33  1  0
 12 34  1  0
 13 35  1  0
 14 13  1  0
 14 24  2  0
 14 15  1  0
 15 16  1  0
 15 17  1  0
 17 18  2  0
 17 36  1  0
 18 19  1  0
 18 24  1  0
 19 23  1  0
 19 20  2  0
 20 21  1  0
 20 37  1  0
 21 22  1  0
 21 38  1  0
 21 39  1  0
 22 23  1  0
 22 40  1  0
 22 41  1  0
 23 42  1  0
 23 43  1  0
 24 25  1  0
M  CHG  1  24   1
M  END
>  <DOCK_score>  (1) 
-56.805473

>  <SMILES>  (1) 
OC[C@@H](Cc1ccc(F)cc1)Nc1[nH]cc(C2=CCCC2)[nH+]1

$$$$
