Clc1ccc(Nc2ccc(Nc3[nH]cc(-c4ccccc4)[nH+]3)cc2)cc1
     RDKit          3D

 44 47  0  0  1  0  0  0  0  0999 V2000
  127.6347  135.2329  167.2905 Cl  0  0  0  0  0  0  0  0  0  0  0  0
  127.2647  135.4917  165.6142 C   0  0  0  0  0  0  0  0  0  0  0  0
  127.8202  134.6695  164.6495 C   0  0  0  0  0  0  0  0  0  0  0  0
  127.5232  134.8693  163.3157 C   0  0  0  0  0  0  0  0  0  0  0  0
  126.6749  135.9041  162.9418 C   0  0  0  0  0  0  0  0  0  0  0  0
  126.3767  136.1121  161.5924 N   0  0  0  0  0  0  0  0  0  0  0  0
  127.3140  135.7758  160.6088 C   0  0  0  0  0  0  0  0  0  0  0  0
  126.9956  134.8334  159.6394 C   0  0  0  0  0  0  0  0  0  0  0  0
  127.9180  134.5059  158.6659 C   0  0  0  0  0  0  0  0  0  0  0  0
  129.1686  135.1101  158.6628 C   0  0  0  0  0  0  0  0  0  0  0  0
  130.1065  134.7733  157.6790 N   0  0  0  0  0  0  0  0  0  0  0  0
  130.1040  133.5037  157.1255 C   0  0  0  0  0  0  0  0  0  0  0  0
  129.7162  132.3631  157.7593 N   0  0  0  0  0  0  0  0  0  0  0  0
  129.3946  132.2938  158.6719 H   0  0  0  0  0  0  0  0  0  0  0  0
  129.8609  131.3292  156.8671 C   0  0  0  0  0  0  0  0  0  0  0  0
  130.3412  131.8653  155.7176 C   0  0  0  0  0  0  0  0  0  0  0  0
  130.6583  131.1222  154.4735 C   0  0  0  0  0  0  0  0  0  0  0  0
  129.9976  131.4320  153.2861 C   0  0  0  0  0  0  0  0  0  0  0  0
  130.3000  130.7405  152.1307 C   0  0  0  0  0  0  0  0  0  0  0  0
  131.2490  129.7349  152.1516 C   0  0  0  0  0  0  0  0  0  0  0  0
  131.9044  129.4194  153.3288 C   0  0  0  0  0  0  0  0  0  0  0  0
  131.6138  130.1077  154.4891 C   0  0  0  0  0  0  0  0  0  0  0  0
  130.4801  133.2012  155.9068 N   0  0  0  0  0  0  0  0  0  0  0  0
  130.8060  133.8320  155.2457 H   0  0  0  0  0  0  0  0  0  0  0  0
  129.4890  136.0485  159.6351 C   0  0  0  0  0  0  0  0  0  0  0  0
  128.5645  136.3803  160.6055 C   0  0  0  0  0  0  0  0  0  0  0  0
  126.1232  136.7313  163.9120 C   0  0  0  0  0  0  0  0  0  0  0  0
  126.4193  136.5231  165.2447 C   0  0  0  0  0  0  0  0  0  0  0  0
  128.4834  133.8683  164.9403 H   0  0  0  0  0  0  0  0  0  0  0  0
  127.9537  134.2249  162.5636 H   0  0  0  0  0  0  0  0  0  0  0  0
  125.5202  136.4893  161.3376 H   0  0  0  0  0  0  0  0  0  0  0  0
  126.0250  134.3598  159.6449 H   0  0  0  0  0  0  0  0  0  0  0  0
  127.6691  133.7762  157.9096 H   0  0  0  0  0  0  0  0  0  0  0  0
  130.7579  135.4293  157.3850 H   0  0  0  0  0  0  0  0  0  0  0  0
  129.6389  130.2877  157.0477 H   0  0  0  0  0  0  0  0  0  0  0  0
  129.2534  132.2144  153.2693 H   0  0  0  0  0  0  0  0  0  0  0  0
  129.7916  130.9826  151.2090 H   0  0  0  0  0  0  0  0  0  0  0  0
  131.4798  129.1939  151.2458 H   0  0  0  0  0  0  0  0  0  0  0  0
  132.6449  128.6333  153.3395 H   0  0  0  0  0  0  0  0  0  0  0  0
  132.1262  129.8610  155.4072 H   0  0  0  0  0  0  0  0  0  0  0  0
  130.4612  136.5186  159.6325 H   0  0  0  0  0  0  0  0  0  0  0  0
  128.8135  137.1101  161.3617 H   0  0  0  0  0  0  0  0  0  0  0  0
  125.4638  137.5367  163.6242 H   0  0  0  0  0  0  0  0  0  0  0  0
  125.9911  137.1661  165.9994 H   0  0  0  0  0  0  0  0  0  0  0  0
  1  2  1  0
  2 28  2  0
  2  3  1  0
  3  4  2  0
  3 29  1  0
  4  5  1  0
  4 30  1  0
  5  6  1  0
  5 27  2  0
  6  7  1  0
  6 31  1  0
  7 26  1  0
  7  8  2  0
  8  9  1  0
  8 32  1  0
  9 10  2  0
  9 33  1  0
 10 11  1  0
 10 25  1  0
 11 34  1  0
 12 11  1  0
 12 23  2  0
 12 13  1  0
 13 14  1  0
 13 15  1  0
 15 16  2  0
 15 35  1  0
 16 17  1  0
 16 23  1  0
 17 22  1  0
 17 18  2  0
 18 19  1  0
 18 36  1  0
 19 20  2  0
 19 37  1  0
 20 21  1  0
 20 38  1  0
 21 22  2  0
 21 39  1  0
 22 40  1  0
 23 24  1  0
 25 26  2  0
 25 41  1  0
 26 42  1  0
 27 28  1  0
 27 43  1  0
 28 44  1  0
M  CHG  1  23   1
M  END
>  <DOCK_score>  (1) 
-58.741253

>  <SMILES>  (1) 
Clc1ccc(Nc2ccc(Nc3[nH]cc(-c4ccccc4)[nH+]3)cc2)cc1

$$$$
