CC1=C(c2ccc(C[NH+]3CCN([C@@H](Cc4ccc(F)cc4)C(F)Br)CC3)cc2)CCC1
     RDKit          3D

 63 66  0  0  1  0  0  0  0  0999 V2000
  134.8633  140.1181  162.8363 C   0  0  0  0  0  0  0  0  0  0  0  0
  135.4943  140.2027  161.4704 C   0  0  0  0  0  0  0  0  0  0  0  0
  135.0106  139.6269  160.3835 C   0  0  0  0  0  0  0  0  0  0  0  0
  133.7776  138.8125  160.3433 C   0  0  0  0  0  0  0  0  0  0  0  0
  132.7121  139.1945  159.5274 C   0  0  0  0  0  0  0  0  0  0  0  0
  131.5619  138.4329  159.4984 C   0  0  0  0  0  0  0  0  0  0  0  0
  131.4680  137.2869  160.2677 C   0  0  0  0  0  0  0  0  0  0  0  0
  130.2107  136.4570  160.2271 C   0  0  0  0  0  0  0  0  0  0  0  0
  130.3269  135.4436  159.1700 N   0  0  0  0  0  0  0  0  0  0  0  0
  130.7738  135.8504  158.3620 H   0  0  0  0  0  0  0  0  0  0  0  0
  128.9879  134.9664  158.8003 C   0  0  0  0  0  0  0  0  0  0  0  0
  129.1072  133.9245  157.6858 C   0  0  0  0  0  0  0  0  0  0  0  0
  129.9335  132.8029  158.1543 N   0  0  0  0  0  0  0  0  0  0  0  0
  130.0252  131.7532  157.1308 C   0  0  1  0  0  0  0  0  0  0  0  0
  129.0554  131.6299  156.6489 H   0  0  0  0  0  0  0  0  0  0  0  0
  131.0679  132.1510  156.0843 C   0  0  0  0  0  0  0  0  0  0  0  0
  130.8317  131.3695  154.8176 C   0  0  0  0  0  0  0  0  0  0  0  0
  131.4559  130.1501  154.6315 C   0  0  0  0  0  0  0  0  0  0  0  0
  131.2357  129.4301  153.4728 C   0  0  0  0  0  0  0  0  0  0  0  0
  130.3984  129.9357  152.4928 C   0  0  0  0  0  0  0  0  0  0  0  0
  130.1872  129.2356  151.3568 F   0  0  0  0  0  0  0  0  0  0  0  0
  129.7781  131.1597  152.6777 C   0  0  0  0  0  0  0  0  0  0  0  0
  129.9952  131.8752  153.8399 C   0  0  0  0  0  0  0  0  0  0  0  0
  130.4394  130.4350  157.7880 C   0  0  1  0  0  0  0  0  0  0  0  0
  131.6842  130.5933  158.4066 F   0  0  0  0  0  0  0  0  0  0  0  0
  129.0996  129.9237  159.1328 Br  0  0  0  0  0  0  0  0  0  0  0  0
  131.2693  133.2692  158.5518 C   0  0  0  0  0  0  0  0  0  0  0  0
  131.1322  134.3167  159.6590 C   0  0  0  0  0  0  0  0  0  0  0  0
  132.5210  136.9027  161.0786 C   0  0  0  0  0  0  0  0  0  0  0  0
  133.6745  137.6587  161.1209 C   0  0  0  0  0  0  0  0  0  0  0  0
  135.8919  139.9083  159.1886 C   0  0  0  0  0  0  0  0  0  0  0  0
  136.7672  141.1096  159.6196 C   0  0  0  0  0  0  0  0  0  0  0  0
  136.7655  140.9577  161.1581 C   0  0  0  0  0  0  0  0  0  0  0  0
  135.2615  139.2537  163.3676 H   0  0  0  0  0  0  0  0  0  0  0  0
  135.0884  141.0250  163.3972 H   0  0  0  0  0  0  0  0  0  0  0  0
  133.7832  140.0143  162.7317 H   0  0  0  0  0  0  0  0  0  0  0  0
  132.7858  140.0866  158.9230 H   0  0  0  0  0  0  0  0  0  0  0  0
  130.7346  138.7299  158.8709 H   0  0  0  0  0  0  0  0  0  0  0  0
  130.0696  135.9642  161.1891 H   0  0  0  0  0  0  0  0  0  0  0  0
  129.3565  137.1016  160.0201 H   0  0  0  0  0  0  0  0  0  0  0  0
  128.5100  134.5152  159.6699 H   0  0  0  0  0  0  0  0  0  0  0  0
  128.3870  135.8056  158.4501 H   0  0  0  0  0  0  0  0  0  0  0  0
  129.5729  134.3789  156.8113 H   0  0  0  0  0  0  0  0  0  0  0  0
  128.1148  133.5594  157.4210 H   0  0  0  0  0  0  0  0  0  0  0  0
  130.9837  133.2173  155.8744 H   0  0  0  0  0  0  0  0  0  0  0  0
  132.0659  131.9332  156.4646 H   0  0  0  0  0  0  0  0  0  0  0  0
  132.1130  129.7583  155.3940 H   0  0  0  0  0  0  0  0  0  0  0  0
  131.7202  128.4756  153.3296 H   0  0  0  0  0  0  0  0  0  0  0  0
  129.1252  131.5554  151.9138 H   0  0  0  0  0  0  0  0  0  0  0  0
  129.5115  132.8300  153.9843 H   0  0  0  0  0  0  0  0  0  0  0  0
  130.5075  129.6561  157.0285 H   0  0  0  0  0  0  0  0  0  0  0  0
  131.7707  133.7128  157.6916 H   0  0  0  0  0  0  0  0  0  0  0  0
  131.8544  132.4261  158.9193 H   0  0  0  0  0  0  0  0  0  0  0  0
  132.1213  134.6741  159.9454 H   0  0  0  0  0  0  0  0  0  0  0  0
  130.6431  133.8690  160.5241 H   0  0  0  0  0  0  0  0  0  0  0  0
  132.4399  136.0093  161.6799 H   0  0  0  0  0  0  0  0  0  0  0  0
  134.4956  137.3579  161.7548 H   0  0  0  0  0  0  0  0  0  0  0  0
  136.5149  139.0425  158.9644 H   0  0  0  0  0  0  0  0  0  0  0  0
  135.2845  140.1741  158.3235 H   0  0  0  0  0  0  0  0  0  0  0  0
  136.3150  142.0551  159.3201 H   0  0  0  0  0  0  0  0  0  0  0  0
  137.7770  141.0180  159.2194 H   0  0  0  0  0  0  0  0  0  0  0  0
  136.7521  141.9371  161.6361 H   0  0  0  0  0  0  0  0  0  0  0  0
  137.6353  140.3873  161.4841 H   0  0  0  0  0  0  0  0  0  0  0  0
  1  2  1  0
  1 34  1  0
  1 35  1  0
  1 36  1  0
  2 33  1  0
  2  3  2  0
  3  4  1  0
  3 31  1  0
  4 30  1  0
  4  5  2  0
  5  6  1  0
  5 37  1  0
  6  7  2  0
  6 38  1  0
  7  8  1  0
  7 29  1  0
  8  9  1  0
  8 39  1  0
  8 40  1  0
  9 10  1  0
  9 28  1  0
  9 11  1  0
 11 12  1  0
 11 41  1  0
 11 42  1  0
 12 13  1  0
 12 43  1  0
 12 44  1  0
 13 14  1  0
 13 27  1  0
 14 15  1  6
 14 16  1  0
 14 24  1  0
 16 17  1  0
 16 45  1  0
 16 46  1  0
 17 23  1  0
 17 18  2  0
 18 19  1  0
 18 47  1  0
 19 20  2  0
 19 48  1  0
 20 21  1  0
 20 22  1  0
 22 23  2  0
 22 49  1  0
 23 50  1  0
 24 25  1  0
 24 26  1  0
 24 51  1  6
 27 28  1  0
 27 52  1  0
 27 53  1  0
 28 54  1  0
 28 55  1  0
 29 30  2  0
 29 56  1  0
 30 57  1  0
 31 32  1  0
 31 58  1  0
 31 59  1  0
 32 33  1  0
 32 60  1  0
 32 61  1  0
 33 62  1  0
 33 63  1  0
M  CHG  1   9   1
M  END
>  <DOCK_score>  (1) 
-58.180012

>  <SMILES>  (1) 
CC1=C(c2ccc(C[NH+]3CCN([C@@H](Cc4ccc(F)cc4)C(F)Br)CC3)cc2)CCC1

$$$$
