C[C@H]([NH2+]CC[C@@H]1CCC=C1c1cc(CO)ccc1O)c1nc2ccccc2[nH]1
     RDKit          3D

 56 59  0  0  1  0  0  0  0  0999 V2000
  133.6711  135.8023  162.4158 C   0  0  0  0  0  0  0  0  0  0  0  0
  132.8502  136.6303  161.4251 C   0  0  2  0  0  0  0  0  0  0  0  0
  131.9300  136.9635  161.9050 H   0  0  0  0  0  0  0  0  0  0  0  0
  132.5213  135.8071  160.2536 N   0  0  0  0  0  0  0  0  0  0  0  0
  133.3183  135.2396  160.0069 H   0  0  0  0  0  0  0  0  0  0  0  0
  132.2822  136.4065  159.4779 H   0  0  0  0  0  0  0  0  0  0  0  0
  131.3804  134.9379  160.5707 C   0  0  0  0  0  0  0  0  0  0  0  0
  131.0379  134.0806  159.3506 C   0  0  0  0  0  0  0  0  0  0  0  0
  129.8496  133.1752  159.6808 C   0  0  2  0  0  0  0  0  0  0  0  0
  129.9396  132.7873  160.6955 H   0  0  0  0  0  0  0  0  0  0  0  0
  129.7608  132.0123  158.6662 C   0  0  0  0  0  0  0  0  0  0  0  0
  128.7726  132.5830  157.6234 C   0  0  0  0  0  0  0  0  0  0  0  0
  127.9570  133.6041  158.3823 C   0  0  0  0  0  0  0  0  0  0  0  0
  128.5538  133.9346  159.5148 C   0  0  0  0  0  0  0  0  0  0  0  0
  128.0240  134.9120  160.4878 C   0  0  0  0  0  0  0  0  0  0  0  0
  127.1766  134.4916  161.5132 C   0  0  0  0  0  0  0  0  0  0  0  0
  126.6900  135.4079  162.4225 C   0  0  0  0  0  0  0  0  0  0  0  0
  125.7804  134.9517  163.5342 C   0  0  0  0  0  0  0  0  0  0  0  0
  124.4219  135.0212  163.0969 O   0  0  0  0  0  0  0  0  0  0  0  0
  127.0300  136.7456  162.3147 C   0  0  0  0  0  0  0  0  0  0  0  0
  127.8631  137.1746  161.2994 C   0  0  0  0  0  0  0  0  0  0  0  0
  128.3651  136.2657  160.3820 C   0  0  0  0  0  0  0  0  0  0  0  0
  129.1851  136.6862  159.3842 O   0  0  0  0  0  0  0  0  0  0  0  0
  133.6512  137.8294  160.9876 C   0  0  0  0  0  0  0  0  0  0  0  0
  133.5508  138.4100  159.8275 N   0  0  0  0  0  0  0  0  0  0  0  0
  134.4139  139.4563  159.7645 C   0  0  0  0  0  0  0  0  0  0  0  0
  134.7141  140.3999  158.7785 C   0  0  0  0  0  0  0  0  0  0  0  0
  135.6580  141.3579  159.0180 C   0  0  0  0  0  0  0  0  0  0  0  0
  136.3249  141.4062  160.2340 C   0  0  0  0  0  0  0  0  0  0  0  0
  136.0453  140.4856  161.2213 C   0  0  0  0  0  0  0  0  0  0  0  0
  135.0893  139.5045  160.9957 C   0  0  0  0  0  0  0  0  0  0  0  0
  134.5807  138.4661  161.7501 N   0  0  0  0  0  0  0  0  0  0  0  0
  134.8398  138.2324  162.6552 H   0  0  0  0  0  0  0  0  0  0  0  0
  133.0917  134.9351  162.7323 H   0  0  0  0  0  0  0  0  0  0  0  0
  134.5914  135.4693  161.9360 H   0  0  0  0  0  0  0  0  0  0  0  0
  133.9152  136.4131  163.2851 H   0  0  0  0  0  0  0  0  0  0  0  0
  130.5195  135.5510  160.8372 H   0  0  0  0  0  0  0  0  0  0  0  0
  131.6387  134.2905  161.4086 H   0  0  0  0  0  0  0  0  0  0  0  0
  131.8987  133.4675  159.0840 H   0  0  0  0  0  0  0  0  0  0  0  0
  130.7796  134.7280  158.5126 H   0  0  0  0  0  0  0  0  0  0  0  0
  129.3582  131.1146  159.1353 H   0  0  0  0  0  0  0  0  0  0  0  0
  130.7327  131.8128  158.2148 H   0  0  0  0  0  0  0  0  0  0  0  0
  128.1281  131.7925  157.2390 H   0  0  0  0  0  0  0  0  0  0  0  0
  129.3140  133.0609  156.8069 H   0  0  0  0  0  0  0  0  0  0  0  0
  127.0163  134.0121  158.0431 H   0  0  0  0  0  0  0  0  0  0  0  0
  126.9058  133.4495  161.5980 H   0  0  0  0  0  0  0  0  0  0  0  0
  126.0233  133.9238  163.8036 H   0  0  0  0  0  0  0  0  0  0  0  0
  125.9162  135.5966  164.4023 H   0  0  0  0  0  0  0  0  0  0  0  0
  124.1362  135.9087  162.8406 H   0  0  0  0  0  0  0  0  0  0  0  0
  126.6406  137.4575  163.0273 H   0  0  0  0  0  0  0  0  0  0  0  0
  128.1239  138.2197  161.2210 H   0  0  0  0  0  0  0  0  0  0  0  0
  129.4834  135.9791  158.7958 H   0  0  0  0  0  0  0  0  0  0  0  0
  134.2008  140.3718  157.8287 H   0  0  0  0  0  0  0  0  0  0  0  0
  135.8873  142.0853  158.2532 H   0  0  0  0  0  0  0  0  0  0  0  0
  137.0684  142.1699  160.4080 H   0  0  0  0  0  0  0  0  0  0  0  0
  136.5672  140.5276  162.1658 H   0  0  0  0  0  0  0  0  0  0  0  0
  1  2  1  0
  1 34  1  0
  1 35  1  0
  1 36  1  0
  2  3  1  1
  2  4  1  0
  2 24  1  0
  4  5  1  0
  4  6  1  0
  4  7  1  0
  7  8  1  0
  7 37  1  0
  7 38  1  0
  8  9  1  0
  8 39  1  0
  8 40  1  0
  9 10  1  1
  9 14  1  0
  9 11  1  0
 11 12  1  0
 11 41  1  0
 11 42  1  0
 12 13  1  0
 12 43  1  0
 12 44  1  0
 13 14  2  0
 13 45  1  0
 14 15  1  0
 15 22  1  0
 15 16  2  0
 16 17  1  0
 16 46  1  0
 17 18  1  0
 17 20  2  0
 18 19  1  0
 18 47  1  0
 18 48  1  0
 19 49  1  0
 20 21  1  0
 20 50  1  0
 21 22  2  0
 21 51  1  0
 22 23  1  0
 23 52  1  0
 24 32  1  0
 24 25  2  0
 25 26  1  0
 26 31  2  0
 26 27  1  0
 27 28  2  0
 27 53  1  0
 28 29  1  0
 28 54  1  0
 29 30  2  0
 29 55  1  0
 30 31  1  0
 30 56  1  0
 31 32  1  0
 32 33  1  0
M  CHG  1   4   1
M  END
>  <DOCK_score>  (1) 
-45.691788

>  <SMILES>  (1) 
C[C@H]([NH2+]CC[C@@H]1CCC=C1c1cc(CO)ccc1O)c1nc2ccccc2[nH]1

$$$$
