COc1ccc([N+](=O)[O-])cc1CNC(=O)C1=CC[N@@H+](Cc2ccccc2)C1
     RDKit          3D

 49 51  0  0  1  0  0  0  0  0999 V2000
  131.3648  138.5201  162.3217 C   0  0  0  0  0  0  0  0  0  0  0  0
  130.2888  137.6038  162.5322 O   0  0  0  0  0  0  0  0  0  0  0  0
  129.0702  138.1368  162.8113 C   0  0  0  0  0  0  0  0  0  0  0  0
  128.9134  139.5137  162.8806 C   0  0  0  0  0  0  0  0  0  0  0  0
  127.6736  140.0528  163.1640 C   0  0  0  0  0  0  0  0  0  0  0  0
  126.5893  139.2217  163.3781 C   0  0  0  0  0  0  0  0  0  0  0  0
  125.2619  139.8022  163.6805 N   0  0  0  0  0  0  0  0  0  0  0  0
  125.1252  141.0110  163.7408 O   0  0  0  0  0  0  0  0  0  0  0  0
  124.3063  139.0711  163.8693 O   0  0  0  0  0  0  0  0  0  0  0  0
  126.7421  137.8496  163.3048 C   0  0  0  0  0  0  0  0  0  0  0  0
  127.9812  137.3052  163.0269 C   0  0  0  0  0  0  0  0  0  0  0  0
  128.1479  135.8093  162.9519 C   0  0  0  0  0  0  0  0  0  0  0  0
  128.9426  135.4651  161.7702 N   0  0  0  0  0  0  0  0  0  0  0  0
  129.2212  134.1749  161.4980 C   0  0  0  0  0  0  0  0  0  0  0  0
  128.8131  133.2964  162.2332 O   0  0  0  0  0  0  0  0  0  0  0  0
  130.0192  133.8293  160.3115 C   0  0  0  0  0  0  0  0  0  0  0  0
  130.8215  132.7737  160.2019 C   0  0  0  0  0  0  0  0  0  0  0  0
  131.4578  132.7757  158.8310 C   0  0  0  0  0  0  0  0  0  0  0  0
  130.6316  133.6948  158.0135 N   0  0  1  0  0  0  0  0  0  0  0  0
  131.2055  134.1994  157.3547 H   0  0  0  0  0  0  0  0  0  0  0  0
  129.5669  132.9576  157.3201 C   0  0  0  0  0  0  0  0  0  0  0  0
  130.1344  132.2907  156.0935 C   0  0  0  0  0  0  0  0  0  0  0  0
  130.1361  132.9574  154.8826 C   0  0  0  0  0  0  0  0  0  0  0  0
  130.6614  132.3477  153.7588 C   0  0  0  0  0  0  0  0  0  0  0  0
  131.1751  131.0671  153.8435 C   0  0  0  0  0  0  0  0  0  0  0  0
  131.1682  130.3983  155.0533 C   0  0  0  0  0  0  0  0  0  0  0  0
  130.6480  131.0102  156.1784 C   0  0  0  0  0  0  0  0  0  0  0  0
  130.0587  134.6169  159.0220 C   0  0  0  0  0  0  0  0  0  0  0  0
  131.1293  139.1696  161.4786 H   0  0  0  0  0  0  0  0  0  0  0  0
  131.5078  139.1247  163.2173 H   0  0  0  0  0  0  0  0  0  0  0  0
  132.2784  137.9650  162.1085 H   0  0  0  0  0  0  0  0  0  0  0  0
  129.7596  140.1632  162.7127 H   0  0  0  0  0  0  0  0  0  0  0  0
  127.5509  141.1245  163.2180 H   0  0  0  0  0  0  0  0  0  0  0  0
  125.8930  137.2027  163.4688 H   0  0  0  0  0  0  0  0  0  0  0  0
  127.1680  135.3375  162.8808 H   0  0  0  0  0  0  0  0  0  0  0  0
  128.6575  135.4552  163.8481 H   0  0  0  0  0  0  0  0  0  0  0  0
  129.2682  136.1658  161.1837 H   0  0  0  0  0  0  0  0  0  0  0  0
  130.9909  132.0335  160.9699 H   0  0  0  0  0  0  0  0  0  0  0  0
  132.4826  133.1423  158.8912 H   0  0  0  0  0  0  0  0  0  0  0  0
  131.4396  131.7726  158.4052 H   0  0  0  0  0  0  0  0  0  0  0  0
  129.1550  132.2007  157.9876 H   0  0  0  0  0  0  0  0  0  0  0  0
  128.7784  133.6500  157.0252 H   0  0  0  0  0  0  0  0  0  0  0  0
  129.7307  133.9562  154.8155 H   0  0  0  0  0  0  0  0  0  0  0  0
  130.6671  132.8703  152.8137 H   0  0  0  0  0  0  0  0  0  0  0  0
  131.5822  130.5893  152.9646 H   0  0  0  0  0  0  0  0  0  0  0  0
  131.5695  129.3977  155.1195 H   0  0  0  0  0  0  0  0  0  0  0  0
  130.6427  130.4876  157.1235 H   0  0  0  0  0  0  0  0  0  0  0  0
  129.0513  134.9153  158.7312 H   0  0  0  0  0  0  0  0  0  0  0  0
  130.6937  135.4955  159.1358 H   0  0  0  0  0  0  0  0  0  0  0  0
  1  2  1  0
  1 29  1  0
  1 30  1  0
  1 31  1  0
  2  3  1  0
  3 11  2  0
  3  4  1  0
  4  5  2  0
  4 32  1  0
  5  6  1  0
  5 33  1  0
  6  7  1  0
  6 10  2  0
  7  8  2  0
  7  9  1  0
 10 11  1  0
 10 34  1  0
 11 12  1  0
 12 13  1  0
 12 35  1  0
 12 36  1  0
 13 14  1  0
 13 37  1  0
 14 15  2  0
 14 16  1  0
 16 28  1  0
 16 17  2  0
 17 18  1  0
 17 38  1  0
 18 19  1  0
 18 39  1  0
 18 40  1  0
 19 20  1  6
 19 21  1  0
 19 28  1  0
 21 22  1  0
 21 41  1  0
 21 42  1  0
 22 27  1  0
 22 23  2  0
 23 24  1  0
 23 43  1  0
 24 25  2  0
 24 44  1  0
 25 26  1  0
 25 45  1  0
 26 27  2  0
 26 46  1  0
 27 47  1  0
 28 48  1  0
 28 49  1  0
M  CHG  3   7   1   9  -1  19   1
M  END
>  <DOCK_score>  (1) 
-42.097378

>  <SMILES>  (1) 
COc1ccc([N+](=O)[O-])cc1CNC(=O)C1=CC[N@@H+](Cc2ccccc2)C1

$$$$
