Fc1cccc(Nc2ccccc2Nc2ccccc2)c1NC1=[NH+]CCN1
     RDKit          3D

 48 51  0  0  0  0  0  0  0  0999 V2000
  131.2272  132.5707  160.8198 F   0  0  0  0  0  0  0  0  0  0  0  0
  131.3937  133.8119  161.3270 C   0  0  0  0  0  0  0  0  0  0  0  0
  131.7200  133.9763  162.6625 C   0  0  0  0  0  0  0  0  0  0  0  0
  131.8904  135.2449  163.1850 C   0  0  0  0  0  0  0  0  0  0  0  0
  131.7310  136.3565  162.3789 C   0  0  0  0  0  0  0  0  0  0  0  0
  131.4101  136.2013  161.0379 C   0  0  0  0  0  0  0  0  0  0  0  0
  131.2540  137.3253  160.2193 N   0  0  0  0  0  0  0  0  0  0  0  0
  131.4217  138.6082  160.7529 C   0  0  0  0  0  0  0  0  0  0  0  0
  130.3387  139.2818  161.2983 C   0  0  0  0  0  0  0  0  0  0  0  0
  130.5067  140.5489  161.8249 C   0  0  0  0  0  0  0  0  0  0  0  0
  131.7524  141.1490  161.8096 C   0  0  0  0  0  0  0  0  0  0  0  0
  132.8376  140.4853  161.2681 C   0  0  0  0  0  0  0  0  0  0  0  0
  132.6798  139.2112  160.7432 C   0  0  0  0  0  0  0  0  0  0  0  0
  133.7783  138.5348  160.1997 N   0  0  0  0  0  0  0  0  0  0  0  0
  135.0614  138.7731  160.6976 C   0  0  0  0  0  0  0  0  0  0  0  0
  135.8503  139.7716  160.1398 C   0  0  0  0  0  0  0  0  0  0  0  0
  137.1161  140.0086  160.6385 C   0  0  0  0  0  0  0  0  0  0  0  0
  137.6031  139.2457  161.6840 C   0  0  0  0  0  0  0  0  0  0  0  0
  136.8230  138.2469  162.2375 C   0  0  0  0  0  0  0  0  0  0  0  0
  135.5540  138.0085  161.7479 C   0  0  0  0  0  0  0  0  0  0  0  0
  131.2374  134.9226  160.5096 C   0  0  0  0  0  0  0  0  0  0  0  0
  130.9073  134.7593  159.1556 N   0  0  0  0  0  0  0  0  0  0  0  0
  130.1638  133.6809  158.7576 C   0  0  0  0  0  0  0  0  0  0  0  0
  130.2789  133.1371  157.5567 N   0  0  0  0  0  0  0  0  0  0  0  0
  130.8826  133.4379  156.8595 H   0  0  0  0  0  0  0  0  0  0  0  0
  129.3491  132.0021  157.4473 C   0  0  0  0  0  0  0  0  0  0  0  0
  128.6467  131.9799  158.8200 C   0  0  0  0  0  0  0  0  0  0  0  0
  129.2681  133.1017  159.5409 N   0  0  0  0  0  0  0  0  0  0  0  0
  131.8412  133.1114  163.2977 H   0  0  0  0  0  0  0  0  0  0  0  0
  132.1445  135.3680  164.2275 H   0  0  0  0  0  0  0  0  0  0  0  0
  131.8605  137.3459  162.7920 H   0  0  0  0  0  0  0  0  0  0  0  0
  131.0298  137.2153  159.2820 H   0  0  0  0  0  0  0  0  0  0  0  0
  129.3644  138.8162  161.3121 H   0  0  0  0  0  0  0  0  0  0  0  0
  129.6624  141.0718  162.2491 H   0  0  0  0  0  0  0  0  0  0  0  0
  131.8781  142.1391  162.2223 H   0  0  0  0  0  0  0  0  0  0  0  0
  133.8090  140.9570  161.2578 H   0  0  0  0  0  0  0  0  0  0  0  0
  133.6484  137.9004  159.4774 H   0  0  0  0  0  0  0  0  0  0  0  0
  135.4724  140.3647  159.3201 H   0  0  0  0  0  0  0  0  0  0  0  0
  137.7280  140.7879  160.2087 H   0  0  0  0  0  0  0  0  0  0  0  0
  138.5952  139.4301  162.0689 H   0  0  0  0  0  0  0  0  0  0  0  0
  137.2064  137.6529  163.0538 H   0  0  0  0  0  0  0  0  0  0  0  0
  134.9451  137.2284  162.1805 H   0  0  0  0  0  0  0  0  0  0  0  0
  131.2060  135.4105  158.5016 H   0  0  0  0  0  0  0  0  0  0  0  0
  129.8918  131.0720  157.2786 H   0  0  0  0  0  0  0  0  0  0  0  0
  128.6269  132.1741  156.6492 H   0  0  0  0  0  0  0  0  0  0  0  0
  128.8396  131.0386  159.3347 H   0  0  0  0  0  0  0  0  0  0  0  0
  127.5747  132.1422  158.7080 H   0  0  0  0  0  0  0  0  0  0  0  0
  129.0547  133.3741  160.4472 H   0  0  0  0  0  0  0  0  0  0  0  0
  1  2  1  0
  2 21  2  0
  2  3  1  0
  3  4  2  0
  3 29  1  0
  4  5  1  0
  4 30  1  0
  5  6  2  0
  5 31  1  0
  6  7  1  0
  6 21  1  0
  7  8  1  0
  7 32  1  0
  8 13  1  0
  8  9  2  0
  9 10  1  0
  9 33  1  0
 10 11  2  0
 10 34  1  0
 11 12  1  0
 11 35  1  0
 12 13  2  0
 12 36  1  0
 13 14  1  0
 14 15  1  0
 14 37  1  0
 15 20  1  0
 15 16  2  0
 16 17  1  0
 16 38  1  0
 17 18  2  0
 17 39  1  0
 18 19  1  0
 18 40  1  0
 19 20  2  0
 19 41  1  0
 20 42  1  0
 21 22  1  0
 22 23  1  0
 22 43  1  0
 23 28  2  0
 23 24  1  0
 24 25  1  0
 24 26  1  0
 26 27  1  0
 26 44  1  0
 26 45  1  0
 27 28  1  0
 27 46  1  0
 27 47  1  0
 28 48  1  0
M  CHG  1  28   1
M  END
>  <DOCK_score>  (1) 
-57.515263

>  <SMILES>  (1) 
Fc1cccc(Nc2ccccc2Nc2ccccc2)c1NC1=[NH+]CCN1

$$$$
