Nc1ccc(-c2c[nH]c(N[C@@H](c3ccccc3)c3cccnc3)[nH+]2)cc1
     RDKit          3D

 46 49  0  0  1  0  0  0  0  0999 V2000
  131.3865  129.4582  152.0956 N   0  0  0  0  0  0  0  0  0  0  0  0
  131.0692  130.2045  153.2331 C   0  0  0  0  0  0  0  0  0  0  0  0
  130.3942  131.4132  153.1031 C   0  0  0  0  0  0  0  0  0  0  0  0
  130.0801  132.1524  154.2239 C   0  0  0  0  0  0  0  0  0  0  0  0
  130.4396  131.6869  155.4878 C   0  0  0  0  0  0  0  0  0  0  0  0
  130.1033  132.4806  156.6952 C   0  0  0  0  0  0  0  0  0  0  0  0
  129.3229  132.0727  157.7263 C   0  0  0  0  0  0  0  0  0  0  0  0
  129.2757  133.1114  158.6257 N   0  0  0  0  0  0  0  0  0  0  0  0
  128.7941  133.1210  159.4677 H   0  0  0  0  0  0  0  0  0  0  0  0
  130.0294  134.1234  158.1165 C   0  0  0  0  0  0  0  0  0  0  0  0
  130.2410  135.3524  158.7176 N   0  0  0  0  0  0  0  0  0  0  0  0
  129.6272  135.6490  160.0144 C   0  0  1  0  0  0  0  0  0  0  0  0
  129.9774  134.9300  160.7550 H   0  0  0  0  0  0  0  0  0  0  0  0
  130.0110  137.0412  160.4451 C   0  0  0  0  0  0  0  0  0  0  0  0
  130.1099  137.3461  161.7898 C   0  0  0  0  0  0  0  0  0  0  0  0
  130.4661  138.6220  162.1849 C   0  0  0  0  0  0  0  0  0  0  0  0
  130.7140  139.5956  161.2354 C   0  0  0  0  0  0  0  0  0  0  0  0
  130.6106  139.2919  159.8908 C   0  0  0  0  0  0  0  0  0  0  0  0
  130.2585  138.0148  159.4957 C   0  0  0  0  0  0  0  0  0  0  0  0
  128.1280  135.5560  159.8936 C   0  0  0  0  0  0  0  0  0  0  0  0
  127.5009  135.8473  158.6917 C   0  0  0  0  0  0  0  0  0  0  0  0
  126.1197  135.7478  158.6269 C   0  0  0  0  0  0  0  0  0  0  0  0
  125.4185  135.3642  159.7547 C   0  0  0  0  0  0  0  0  0  0  0  0
  126.0483  135.0947  160.8813 N   0  0  0  0  0  0  0  0  0  0  0  0
  127.3608  135.1787  160.9793 C   0  0  0  0  0  0  0  0  0  0  0  0
  130.5175  133.7448  156.9604 N   0  0  0  0  0  0  0  0  0  0  0  0
  131.0861  134.2822  156.3869 H   0  0  0  0  0  0  0  0  0  0  0  0
  131.1205  130.4771  155.6150 C   0  0  0  0  0  0  0  0  0  0  0  0
  131.4279  129.7387  154.4918 C   0  0  0  0  0  0  0  0  0  0  0  0
  131.1362  129.7828  151.2166 H   0  0  0  0  0  0  0  0  0  0  0  0
  131.8575  128.6148  152.1852 H   0  0  0  0  0  0  0  0  0  0  0  0
  130.1160  131.7735  152.1236 H   0  0  0  0  0  0  0  0  0  0  0  0
  129.5558  133.0911  154.1227 H   0  0  0  0  0  0  0  0  0  0  0  0
  128.8320  131.1155  157.8222 H   0  0  0  0  0  0  0  0  0  0  0  0
  130.7955  136.0173  158.2802 H   0  0  0  0  0  0  0  0  0  0  0  0
  129.9121  136.5865  162.5316 H   0  0  0  0  0  0  0  0  0  0  0  0
  130.5473  138.8591  163.2353 H   0  0  0  0  0  0  0  0  0  0  0  0
  130.9890  140.5933  161.5441 H   0  0  0  0  0  0  0  0  0  0  0  0
  130.8043  140.0527  159.1489 H   0  0  0  0  0  0  0  0  0  0  0  0
  130.1774  137.7778  158.4451 H   0  0  0  0  0  0  0  0  0  0  0  0
  128.0749  136.1451  157.8266 H   0  0  0  0  0  0  0  0  0  0  0  0
  125.5982  135.9669  157.7068 H   0  0  0  0  0  0  0  0  0  0  0  0
  124.3423  135.2846  159.7125 H   0  0  0  0  0  0  0  0  0  0  0  0
  127.8419  134.9458  161.9177 H   0  0  0  0  0  0  0  0  0  0  0  0
  131.4035  130.1167  156.5929 H   0  0  0  0  0  0  0  0  0  0  0  0
  131.9519  128.7996  154.5901 H   0  0  0  0  0  0  0  0  0  0  0  0
  1  2  1  0
  1 30  1  0
  1 31  1  0
  2 29  2  0
  2  3  1  0
  3  4  2  0
  3 32  1  0
  4  5  1  0
  4 33  1  0
  5  6  1  0
  5 28  2  0
  6 26  1  0
  6  7  2  0
  7  8  1  0
  7 34  1  0
  8  9  1  0
  8 10  1  0
 10 11  1  0
 10 26  2  0
 11 12  1  0
 11 35  1  0
 12 13  1  1
 12 14  1  0
 12 20  1  0
 14 19  1  0
 14 15  2  0
 15 16  1  0
 15 36  1  0
 16 17  2  0
 16 37  1  0
 17 18  1  0
 17 38  1  0
 18 19  2  0
 18 39  1  0
 19 40  1  0
 20 25  1  0
 20 21  2  0
 21 22  1  0
 21 41  1  0
 22 23  2  0
 22 42  1  0
 23 24  1  0
 23 43  1  0
 24 25  2  0
 25 44  1  0
 26 27  1  0
 28 29  1  0
 28 45  1  0
 29 46  1  0
M  CHG  1  26   1
M  END
>  <DOCK_score>  (1) 
-59.175636

>  <SMILES>  (1) 
Nc1ccc(-c2c[nH]c(N[C@@H](c3ccccc3)c3cccnc3)[nH+]2)cc1

$$$$
