Oc1cc(F)cc(C[NH+]=C(NCc2c[nH]c3ccc(F)cc23)NC2CC=CC2)c1
     RDKit          3D

 52 55  0  0  1  0  0  0  0  0999 V2000
  124.6555  135.7786  163.3046 O   0  0  0  0  0  0  0  0  0  0  0  0
  125.8870  135.8336  163.8765 C   0  0  0  0  0  0  0  0  0  0  0  0
  126.0540  135.4625  165.2027 C   0  0  0  0  0  0  0  0  0  0  0  0
  127.3087  135.5200  165.7825 C   0  0  0  0  0  0  0  0  0  0  0  0
  127.4731  135.1593  167.0740 F   0  0  0  0  0  0  0  0  0  0  0  0
  128.3974  135.9424  165.0375 C   0  0  0  0  0  0  0  0  0  0  0  0
  128.2303  136.3176  163.7179 C   0  0  0  0  0  0  0  0  0  0  0  0
  129.4156  136.7826  162.9118 C   0  0  0  0  0  0  0  0  0  0  0  0
  129.3890  136.1461  161.5925 N   0  0  0  0  0  0  0  0  0  0  0  0
  128.6742  135.5314  161.3650 H   0  0  0  0  0  0  0  0  0  0  0  0
  130.3262  136.4059  160.7247 C   0  0  0  0  0  0  0  0  0  0  0  0
  131.3394  137.2774  161.0474 N   0  0  0  0  0  0  0  0  0  0  0  0
  132.3927  137.5695  160.0719 C   0  0  0  0  0  0  0  0  0  0  0  0
  133.3732  138.5461  160.6686 C   0  0  0  0  0  0  0  0  0  0  0  0
  133.3083  139.8851  160.6003 C   0  0  0  0  0  0  0  0  0  0  0  0
  134.3725  140.4379  161.2590 N   0  0  0  0  0  0  0  0  0  0  0  0
  134.5411  141.3891  161.3456 H   0  0  0  0  0  0  0  0  0  0  0  0
  135.1721  139.4414  161.7756 C   0  0  0  0  0  0  0  0  0  0  0  0
  136.3532  139.4487  162.5103 C   0  0  0  0  0  0  0  0  0  0  0  0
  136.9321  138.2591  162.8931 C   0  0  0  0  0  0  0  0  0  0  0  0
  136.3477  137.0445  162.5522 C   0  0  0  0  0  0  0  0  0  0  0  0
  136.9300  135.8874  162.9361 F   0  0  0  0  0  0  0  0  0  0  0  0
  135.1729  137.0151  161.8327 C   0  0  0  0  0  0  0  0  0  0  0  0
  134.5776  138.2139  161.4334 C   0  0  0  0  0  0  0  0  0  0  0  0
  130.3013  135.8088  159.4865 N   0  0  0  0  0  0  0  0  0  0  0  0
  129.2215  134.8804  159.1426 C   0  0  0  0  0  0  0  0  0  0  0  0
  129.3176  133.5831  159.9785 C   0  0  0  0  0  0  0  0  0  0  0  0
  128.9084  132.4822  159.0277 C   0  0  0  0  0  0  0  0  0  0  0  0
  128.9514  132.8912  157.7889 C   0  0  0  0  0  0  0  0  0  0  0  0
  129.3964  134.3329  157.7070 C   0  0  0  0  0  0  0  0  0  0  0  0
  126.9786  136.2616  163.1351 C   0  0  0  0  0  0  0  0  0  0  0  0
  124.6391  136.0568  162.3786 H   0  0  0  0  0  0  0  0  0  0  0  0
  125.2055  135.1294  165.7817 H   0  0  0  0  0  0  0  0  0  0  0  0
  129.3774  135.9827  165.4896 H   0  0  0  0  0  0  0  0  0  0  0  0
  130.3358  136.5099  163.4284 H   0  0  0  0  0  0  0  0  0  0  0  0
  129.3724  137.8654  162.7937 H   0  0  0  0  0  0  0  0  0  0  0  0
  131.3570  137.6987  161.9208 H   0  0  0  0  0  0  0  0  0  0  0  0
  131.9481  138.0028  159.1759 H   0  0  0  0  0  0  0  0  0  0  0  0
  132.9118  136.6475  159.8103 H   0  0  0  0  0  0  0  0  0  0  0  0
  132.5313  140.4435  160.0994 H   0  0  0  0  0  0  0  0  0  0  0  0
  136.8163  140.3865  162.7799 H   0  0  0  0  0  0  0  0  0  0  0  0
  137.8492  138.2700  163.4634 H   0  0  0  0  0  0  0  0  0  0  0  0
  134.7216  136.0702  161.5683 H   0  0  0  0  0  0  0  0  0  0  0  0
  130.9986  136.0023  158.8407 H   0  0  0  0  0  0  0  0  0  0  0  0
  128.2474  135.3540  159.2647 H   0  0  0  0  0  0  0  0  0  0  0  0
  130.3403  133.4275  160.3220 H   0  0  0  0  0  0  0  0  0  0  0  0
  128.6339  133.6260  160.8263 H   0  0  0  0  0  0  0  0  0  0  0  0
  128.6182  131.4878  159.3330 H   0  0  0  0  0  0  0  0  0  0  0  0
  128.7014  132.2795  156.9346 H   0  0  0  0  0  0  0  0  0  0  0  0
  128.7662  134.8858  157.0103 H   0  0  0  0  0  0  0  0  0  0  0  0
  130.4412  134.3928  157.4024 H   0  0  0  0  0  0  0  0  0  0  0  0
  126.8501  136.5512  162.1027 H   0  0  0  0  0  0  0  0  0  0  0  0
  1  2  1  0
  1 32  1  0
  2 31  2  0
  2  3  1  0
  3  4  2  0
  3 33  1  0
  4  5  1  0
  4  6  1  0
  6  7  2  0
  6 34  1  0
  7  8  1  0
  7 31  1  0
  8  9  1  0
  8 35  1  0
  8 36  1  0
  9 10  1  0
 11  9  2  0
 11 12  1  0
 11 25  1  0
 12 13  1  0
 12 37  1  0
 13 14  1  0
 13 38  1  0
 13 39  1  0
 14 24  1  0
 14 15  2  0
 15 16  1  0
 15 40  1  0
 16 17  1  0
 16 18  1  0
 18 24  2  0
 18 19  1  0
 19 20  2  0
 19 41  1  0
 20 21  1  0
 20 42  1  0
 21 22  1  0
 21 23  2  0
 23 24  1  0
 23 43  1  0
 25 26  1  0
 25 44  1  0
 26 30  1  0
 26 27  1  0
 26 45  1  0
 27 28  1  0
 27 46  1  0
 27 47  1  0
 28 29  2  0
 28 48  1  0
 29 30  1  0
 29 49  1  0
 30 50  1  0
 30 51  1  0
 31 52  1  0
M  CHG  1   9   1
M  END
>  <DOCK_score>  (1) 
-45.02906

>  <SMILES>  (1) 
Oc1cc(F)cc(C[NH+]=C(NCc2c[nH]c3ccc(F)cc23)NC2CC=CC2)c1

$$$$
