Cc1c[nH]c(Nc2ccc(Nc3ccc(CF)cc3)cc2)[nH+]1
     RDKit          3D

 40 42  0  0  1  0  0  0  0  0999 V2000
  130.4853  131.6037  154.8494 C   0  0  0  0  0  0  0  0  0  0  0  0
  130.1587  132.3134  156.1381 C   0  0  0  0  0  0  0  0  0  0  0  0
  129.5526  131.7665  157.2058 C   0  0  0  0  0  0  0  0  0  0  0  0
  129.4477  132.7551  158.1577 N   0  0  0  0  0  0  0  0  0  0  0  0
  129.0538  132.6671  159.0397 H   0  0  0  0  0  0  0  0  0  0  0  0
  130.0005  133.8792  157.6266 C   0  0  0  0  0  0  0  0  0  0  0  0
  130.1005  135.1088  158.2573 N   0  0  0  0  0  0  0  0  0  0  0  0
  129.1396  135.4918  159.2011 C   0  0  0  0  0  0  0  0  0  0  0  0
  129.5213  135.7690  160.5074 C   0  0  0  0  0  0  0  0  0  0  0  0
  128.5739  136.1472  161.4379 C   0  0  0  0  0  0  0  0  0  0  0  0
  127.2389  136.2500  161.0673 C   0  0  0  0  0  0  0  0  0  0  0  0
  126.2786  136.6327  162.0108 N   0  0  0  0  0  0  0  0  0  0  0  0
  126.6624  136.9111  163.3248 C   0  0  0  0  0  0  0  0  0  0  0  0
  126.1349  136.1715  164.3761 C   0  0  0  0  0  0  0  0  0  0  0  0
  126.5170  136.4493  165.6738 C   0  0  0  0  0  0  0  0  0  0  0  0
  127.4237  137.4620  165.9277 C   0  0  0  0  0  0  0  0  0  0  0  0
  127.8382  137.7622  167.3452 C   0  0  0  0  0  0  0  0  0  0  0  0
  126.7067  137.7831  168.1674 F   0  0  0  0  0  0  0  0  0  0  0  0
  127.9466  138.2040  164.8843 C   0  0  0  0  0  0  0  0  0  0  0  0
  127.5733  137.9282  163.5837 C   0  0  0  0  0  0  0  0  0  0  0  0
  126.8568  135.9676  159.7626 C   0  0  0  0  0  0  0  0  0  0  0  0
  127.8050  135.5946  158.8307 C   0  0  0  0  0  0  0  0  0  0  0  0
  130.4177  133.6026  156.4136 N   0  0  0  0  0  0  0  0  0  0  0  0
  130.8480  134.2297  155.8115 H   0  0  0  0  0  0  0  0  0  0  0  0
  129.6486  131.7029  154.1579 H   0  0  0  0  0  0  0  0  0  0  0  0
  131.3772  132.0471  154.4065 H   0  0  0  0  0  0  0  0  0  0  0  0
  130.6664  130.5481  155.0517 H   0  0  0  0  0  0  0  0  0  0  0  0
  129.2126  130.7457  157.2991 H   0  0  0  0  0  0  0  0  0  0  0  0
  130.8361  135.7043  158.0451 H   0  0  0  0  0  0  0  0  0  0  0  0
  130.5590  135.6887  160.7954 H   0  0  0  0  0  0  0  0  0  0  0  0
  128.8709  136.3631  162.4536 H   0  0  0  0  0  0  0  0  0  0  0  0
  125.3464  136.7047  161.7524 H   0  0  0  0  0  0  0  0  0  0  0  0
  125.4271  135.3802  164.1785 H   0  0  0  0  0  0  0  0  0  0  0  0
  126.1069  135.8749  166.4914 H   0  0  0  0  0  0  0  0  0  0  0  0
  128.3318  138.7334  167.3815 H   0  0  0  0  0  0  0  0  0  0  0  0
  128.5263  136.9918  167.6933 H   0  0  0  0  0  0  0  0  0  0  0  0
  128.6508  138.9974  165.0866 H   0  0  0  0  0  0  0  0  0  0  0  0
  127.9855  138.5050  162.7690 H   0  0  0  0  0  0  0  0  0  0  0  0
  125.8185  136.0436  159.4756 H   0  0  0  0  0  0  0  0  0  0  0  0
  127.5082  135.3791  157.8150 H   0  0  0  0  0  0  0  0  0  0  0  0
  1  2  1  0
  1 25  1  0
  1 26  1  0
  1 27  1  0
  2 23  1  0
  2  3  2  0
  3  4  1  0
  3 28  1  0
  4  5  1  0
  4  6  1  0
  6  7  1  0
  6 23  2  0
  7  8  1  0
  7 29  1  0
  8 22  1  0
  8  9  2  0
  9 10  1  0
  9 30  1  0
 10 11  2  0
 10 31  1  0
 11 12  1  0
 11 21  1  0
 12 13  1  0
 12 32  1  0
 13 20  1  0
 13 14  2  0
 14 15  1  0
 14 33  1  0
 15 16  2  0
 15 34  1  0
 16 17  1  0
 16 19  1  0
 17 18  1  0
 17 35  1  0
 17 36  1  0
 19 20  2  0
 19 37  1  0
 20 38  1  0
 21 22  2  0
 21 39  1  0
 22 40  1  0
 23 24  1  0
M  CHG  1  23   1
M  END
>  <DOCK_score>  (1) 
-47.37516

>  <SMILES>  (1) 
Cc1c[nH]c(Nc2ccc(Nc3ccc(CF)cc3)cc2)[nH+]1

$$$$
