O=C1CC[C@H](NC(NC2CC=CC2)=[NH+]CCCc2cccc3ccccc23)CN1
     RDKit          3D

 60 63  0  0  1  0  0  0  0  0999 V2000
  124.0415  133.9913  161.4965 O   0  0  0  0  0  0  0  0  0  0  0  0
  125.2277  134.2087  161.3679 C   0  0  0  0  0  0  0  0  0  0  0  0
  126.1071  133.0907  160.8865 C   0  0  0  0  0  0  0  0  0  0  0  0
  127.5712  133.4071  161.2013 C   0  0  0  0  0  0  0  0  0  0  0  0
  127.8717  134.8340  160.7271 C   0  0  2  0  0  0  0  0  0  0  0  0
  127.5710  134.9468  159.6854 H   0  0  0  0  0  0  0  0  0  0  0  0
  129.3059  135.1033  160.8566 N   0  0  0  0  0  0  0  0  0  0  0  0
  130.1547  134.8251  159.8114 C   0  0  0  0  0  0  0  0  0  0  0  0
  129.6576  134.2942  158.6447 N   0  0  0  0  0  0  0  0  0  0  0  0
  130.4945  133.4145  157.8252 C   0  0  0  0  0  0  0  0  0  0  0  0
  130.7603  132.0721  158.5453 C   0  0  0  0  0  0  0  0  0  0  0  0
  130.7362  131.0334  157.4482 C   0  0  0  0  0  0  0  0  0  0  0  0
  130.1762  131.5043  156.3674 C   0  0  0  0  0  0  0  0  0  0  0  0
  129.7337  132.9357  156.5634 C   0  0  0  0  0  0  0  0  0  0  0  0
  131.4307  135.0648  159.9266 N   0  0  0  0  0  0  0  0  0  0  0  0
  132.0295  134.8685  159.1891 H   0  0  0  0  0  0  0  0  0  0  0  0
  131.9605  135.6306  161.1696 C   0  0  0  0  0  0  0  0  0  0  0  0
  133.4743  135.8123  161.0429 C   0  0  0  0  0  0  0  0  0  0  0  0
  134.0276  136.4033  162.3412 C   0  0  0  0  0  0  0  0  0  0  0  0
  133.3813  137.7397  162.6002 C   0  0  0  0  0  0  0  0  0  0  0  0
  132.2284  137.8142  163.3201 C   0  0  0  0  0  0  0  0  0  0  0  0
  131.6201  139.0414  163.5754 C   0  0  0  0  0  0  0  0  0  0  0  0
  132.1540  140.2005  163.1015 C   0  0  0  0  0  0  0  0  0  0  0  0
  133.3398  140.1628  162.3490 C   0  0  0  0  0  0  0  0  0  0  0  0
  133.9209  141.3384  161.8431 C   0  0  0  0  0  0  0  0  0  0  0  0
  135.0699  141.2634  161.1178 C   0  0  0  0  0  0  0  0  0  0  0  0
  135.6818  140.0363  160.8676 C   0  0  0  0  0  0  0  0  0  0  0  0
  135.1483  138.8775  161.3416 C   0  0  0  0  0  0  0  0  0  0  0  0
  133.9625  138.9150  162.0949 C   0  0  0  0  0  0  0  0  0  0  0  0
  127.0850  135.8152  161.5973 C   0  0  0  0  0  0  0  0  0  0  0  0
  125.6813  135.4280  161.6609 N   0  0  0  0  0  0  0  0  0  0  0  0
  125.8215  132.1648  161.3857 H   0  0  0  0  0  0  0  0  0  0  0  0
  125.9857  132.9723  159.8098 H   0  0  0  0  0  0  0  0  0  0  0  0
  128.2193  132.7029  160.6797 H   0  0  0  0  0  0  0  0  0  0  0  0
  127.7392  133.3345  162.2759 H   0  0  0  0  0  0  0  0  0  0  0  0
  129.6568  135.4776  161.6798 H   0  0  0  0  0  0  0  0  0  0  0  0
  128.7525  134.5022  158.3641 H   0  0  0  0  0  0  0  0  0  0  0  0
  131.4296  133.9060  157.5560 H   0  0  0  0  0  0  0  0  0  0  0  0
  129.9765  131.8713  159.2758 H   0  0  0  0  0  0  0  0  0  0  0  0
  131.7359  132.0885  159.0312 H   0  0  0  0  0  0  0  0  0  0  0  0
  131.1301  130.0326  157.5457 H   0  0  0  0  0  0  0  0  0  0  0  0
  130.0460  130.9445  155.4530 H   0  0  0  0  0  0  0  0  0  0  0  0
  130.0117  133.5407  155.7003 H   0  0  0  0  0  0  0  0  0  0  0  0
  128.6569  132.9814  156.7270 H   0  0  0  0  0  0  0  0  0  0  0  0
  131.4929  136.5973  161.3571 H   0  0  0  0  0  0  0  0  0  0  0  0
  131.7436  134.9556  161.9975 H   0  0  0  0  0  0  0  0  0  0  0  0
  133.9419  134.8456  160.8556 H   0  0  0  0  0  0  0  0  0  0  0  0
  133.6912  136.4872  160.2149 H   0  0  0  0  0  0  0  0  0  0  0  0
  133.8107  135.7283  163.1691 H   0  0  0  0  0  0  0  0  0  0  0  0
  135.1062  136.5327  162.2509 H   0  0  0  0  0  0  0  0  0  0  0  0
  131.7813  136.9089  163.7036 H   0  0  0  0  0  0  0  0  0  0  0  0
  130.7084  139.0732  164.1537 H   0  0  0  0  0  0  0  0  0  0  0  0
  131.6688  141.1440  163.3033 H   0  0  0  0  0  0  0  0  0  0  0  0
  133.4582  142.2963  162.0295 H   0  0  0  0  0  0  0  0  0  0  0  0
  135.5146  142.1683  160.7307 H   0  0  0  0  0  0  0  0  0  0  0  0
  136.5931  140.0047  160.2889 H   0  0  0  0  0  0  0  0  0  0  0  0
  135.6339  137.9340  161.1403 H   0  0  0  0  0  0  0  0  0  0  0  0
  127.5035  135.8197  162.6037 H   0  0  0  0  0  0  0  0  0  0  0  0
  127.1639  136.8161  161.1731 H   0  0  0  0  0  0  0  0  0  0  0  0
  125.0365  136.0995  161.9340 H   0  0  0  0  0  0  0  0  0  0  0  0
  1  2  2  0
  2 31  1  0
  2  3  1  0
  3  4  1  0
  3 32  1  0
  3 33  1  0
  4  5  1  0
  4 34  1  0
  4 35  1  0
  5  6  1  6
  5  7  1  0
  5 30  1  0
  7 36  1  0
  8  7  1  0
  8  9  1  0
  8 15  2  0
  9 10  1  0
  9 37  1  0
 10 14  1  0
 10 11  1  0
 10 38  1  0
 11 12  1  0
 11 39  1  0
 11 40  1  0
 12 13  2  0
 12 41  1  0
 13 14  1  0
 13 42  1  0
 14 43  1  0
 14 44  1  0
 15 16  1  0
 15 17  1  0
 17 18  1  0
 17 45  1  0
 17 46  1  0
 18 19  1  0
 18 47  1  0
 18 48  1  0
 19 20  1  0
 19 49  1  0
 19 50  1  0
 20 29  1  0
 20 21  2  0
 21 22  1  0
 21 51  1  0
 22 23  2  0
 22 52  1  0
 23 24  1  0
 23 53  1  0
 24 29  2  0
 24 25  1  0
 25 26  2  0
 25 54  1  0
 26 27  1  0
 26 55  1  0
 27 28  2  0
 27 56  1  0
 28 29  1  0
 28 57  1  0
 30 31  1  0
 30 58  1  0
 30 59  1  0
 31 60  1  0
M  CHG  1  15   1
M  END
>  <DOCK_score>  (1) 
-49.321793

>  <SMILES>  (1) 
O=C1CC[C@H](NC(NC2CC=CC2)=[NH+]CCCc2cccc3ccccc23)CN1

$$$$
