OC[C@H](Cc1ccc(-c2ccccc2)cc1)Nc1[nH]cc(-c2ccc(F)cc2)[nH+]1
     RDKit          3D

 52 55  0  0  1  0  0  0  0  0999 V2000
  127.5076  134.5484  158.7529 O   0  0  0  0  0  0  0  0  0  0  0  0
  127.8323  135.8937  159.1091 C   0  0  0  0  0  0  0  0  0  0  0  0
  129.2545  135.9434  159.6709 C   0  0  2  0  0  0  0  0  0  0  0  0
  129.3185  135.3081  160.5543 H   0  0  0  0  0  0  0  0  0  0  0  0
  129.6023  137.3837  160.0523 C   0  0  0  0  0  0  0  0  0  0  0  0
  131.0031  137.4325  160.6057 C   0  0  0  0  0  0  0  0  0  0  0  0
  131.5198  136.3354  161.2708 C   0  0  0  0  0  0  0  0  0  0  0  0
  132.8024  136.3744  161.7793 C   0  0  0  0  0  0  0  0  0  0  0  0
  133.5769  137.5219  161.6215 C   0  0  0  0  0  0  0  0  0  0  0  0
  134.9563  137.5700  162.1665 C   0  0  0  0  0  0  0  0  0  0  0  0
  135.9276  138.3506  161.5432 C   0  0  0  0  0  0  0  0  0  0  0  0
  137.2090  138.3913  162.0541 C   0  0  0  0  0  0  0  0  0  0  0  0
  137.5299  137.6588  163.1828 C   0  0  0  0  0  0  0  0  0  0  0  0
  136.5710  136.8779  163.8025 C   0  0  0  0  0  0  0  0  0  0  0  0
  135.2850  136.8342  163.3032 C   0  0  0  0  0  0  0  0  0  0  0  0
  133.0494  138.6261  160.9551 C   0  0  0  0  0  0  0  0  0  0  0  0
  131.7677  138.5741  160.4462 C   0  0  0  0  0  0  0  0  0  0  0  0
  130.1973  135.4657  158.6564 N   0  0  0  0  0  0  0  0  0  0  0  0
  130.0810  134.1810  158.1536 C   0  0  0  0  0  0  0  0  0  0  0  0
  129.5855  133.1078  158.8278 N   0  0  0  0  0  0  0  0  0  0  0  0
  129.2536  133.1051  159.7393 H   0  0  0  0  0  0  0  0  0  0  0  0
  129.6430  132.0284  157.9793 C   0  0  0  0  0  0  0  0  0  0  0  0
  130.1715  132.4732  156.8124 C   0  0  0  0  0  0  0  0  0  0  0  0
  130.4229  131.6558  155.6003 C   0  0  0  0  0  0  0  0  0  0  0  0
  129.7945  131.9765  154.3983 C   0  0  0  0  0  0  0  0  0  0  0  0
  130.0357  131.2168  153.2719 C   0  0  0  0  0  0  0  0  0  0  0  0
  130.8923  130.1297  153.3375 C   0  0  0  0  0  0  0  0  0  0  0  0
  131.1214  129.3849  152.2338 F   0  0  0  0  0  0  0  0  0  0  0  0
  131.5145  129.8039  154.5315 C   0  0  0  0  0  0  0  0  0  0  0  0
  131.2836  130.5613  155.6615 C   0  0  0  0  0  0  0  0  0  0  0  0
  130.4249  133.7991  156.9479 N   0  0  0  0  0  0  0  0  0  0  0  0
  130.8026  134.3724  156.2627 H   0  0  0  0  0  0  0  0  0  0  0  0
  127.5444  133.9260  159.4921 H   0  0  0  0  0  0  0  0  0  0  0  0
  127.1309  136.2492  159.8638 H   0  0  0  0  0  0  0  0  0  0  0  0
  127.7683  136.5289  158.2256 H   0  0  0  0  0  0  0  0  0  0  0  0
  128.9008  137.7390  160.8072 H   0  0  0  0  0  0  0  0  0  0  0  0
  129.5381  138.0191  159.1690 H   0  0  0  0  0  0  0  0  0  0  0  0
  130.9187  135.4464  161.3923 H   0  0  0  0  0  0  0  0  0  0  0  0
  133.2048  135.5171  162.2982 H   0  0  0  0  0  0  0  0  0  0  0  0
  135.6781  138.9225  160.6616 H   0  0  0  0  0  0  0  0  0  0  0  0
  137.9626  138.9963  161.5720 H   0  0  0  0  0  0  0  0  0  0  0  0
  138.5340  137.6933  163.5790 H   0  0  0  0  0  0  0  0  0  0  0  0
  136.8279  136.3050  164.6811 H   0  0  0  0  0  0  0  0  0  0  0  0
  134.5361  136.2271  163.7901 H   0  0  0  0  0  0  0  0  0  0  0  0
  133.6440  139.5194  160.8336 H   0  0  0  0  0  0  0  0  0  0  0  0
  131.3593  139.4280  159.9258 H   0  0  0  0  0  0  0  0  0  0  0  0
  130.9030  136.0494  158.3371 H   0  0  0  0  0  0  0  0  0  0  0  0
  129.3272  131.0194  158.1994 H   0  0  0  0  0  0  0  0  0  0  0  0
  129.1233  132.8210  154.3474 H   0  0  0  0  0  0  0  0  0  0  0  0
  129.5524  131.4670  152.3391 H   0  0  0  0  0  0  0  0  0  0  0  0
  132.1812  128.9554  154.5780 H   0  0  0  0  0  0  0  0  0  0  0  0
  131.7695  130.3067  156.5918 H   0  0  0  0  0  0  0  0  0  0  0  0
  1  2  1  0
  1 33  1  0
  2  3  1  0
  2 34  1  0
  2 35  1  0
  3  4  1  1
  3  5  1  0
  3 18  1  0
  5  6  1  0
  5 36  1  0
  5 37  1  0
  6 17  1  0
  6  7  2  0
  7  8  1  0
  7 38  1  0
  8  9  2  0
  8 39  1  0
  9 10  1  0
  9 16  1  0
 10 15  1  0
 10 11  2  0
 11 12  1  0
 11 40  1  0
 12 13  2  0
 12 41  1  0
 13 14  1  0
 13 42  1  0
 14 15  2  0
 14 43  1  0
 15 44  1  0
 16 17  2  0
 16 45  1  0
 17 46  1  0
 18 47  1  0
 19 18  1  0
 19 31  2  0
 19 20  1  0
 20 21  1  0
 20 22  1  0
 22 23  2  0
 22 48  1  0
 23 24  1  0
 23 31  1  0
 24 30  1  0
 24 25  2  0
 25 26  1  0
 25 49  1  0
 26 27  2  0
 26 50  1  0
 27 28  1  0
 27 29  1  0
 29 30  2  0
 29 51  1  0
 30 52  1  0
 31 32  1  0
M  CHG  1  31   1
M  END
>  <DOCK_score>  (1) 
-56.98838

>  <SMILES>  (1) 
OC[C@H](Cc1ccc(-c2ccccc2)cc1)Nc1[nH]cc(-c2ccc(F)cc2)[nH+]1

$$$$
