Cc1ccc([C@@H](Nc2[nH]cc(-c3ccc(-c4ccccc4)cc3)[nH+]2)c2ccccc2)cc1
     RDKit          3D

 58 62  0  0  1  0  0  0  0  0999 V2000
  126.1869  135.4846  162.7128 C   0  0  0  0  0  0  0  0  0  0  0  0
  127.6458  135.5383  162.3389 C   0  0  0  0  0  0  0  0  0  0  0  0
  128.5347  134.6360  162.8934 C   0  0  0  0  0  0  0  0  0  0  0  0
  129.8727  134.6843  162.5501 C   0  0  0  0  0  0  0  0  0  0  0  0
  130.3221  135.6345  161.6522 C   0  0  0  0  0  0  0  0  0  0  0  0
  131.7811  135.6871  161.2780 C   0  0  1  0  0  0  0  0  0  0  0  0
  132.3213  134.9048  161.8112 H   0  0  0  0  0  0  0  0  0  0  0  0
  131.9226  135.4815  159.8345 N   0  0  0  0  0  0  0  0  0  0  0  0
  131.4708  134.3084  159.2548 C   0  0  0  0  0  0  0  0  0  0  0  0
  130.8811  133.2743  159.9144 N   0  0  0  0  0  0  0  0  0  0  0  0
  130.7030  133.2272  160.8668 H   0  0  0  0  0  0  0  0  0  0  0  0
  130.5848  132.3095  158.9829 C   0  0  0  0  0  0  0  0  0  0  0  0
  130.9973  132.7833  157.7804 C   0  0  0  0  0  0  0  0  0  0  0  0
  130.8773  132.0836  156.4790 C   0  0  0  0  0  0  0  0  0  0  0  0
  130.1407  132.6584  155.4433 C   0  0  0  0  0  0  0  0  0  0  0  0
  130.0338  132.0107  154.2325 C   0  0  0  0  0  0  0  0  0  0  0  0
  130.6530  130.7752  154.0455 C   0  0  0  0  0  0  0  0  0  0  0  0
  130.5330  130.0752  152.7436 C   0  0  0  0  0  0  0  0  0  0  0  0
  130.5690  128.6828  152.6921 C   0  0  0  0  0  0  0  0  0  0  0  0
  130.4521  128.0367  151.4781 C   0  0  0  0  0  0  0  0  0  0  0  0
  130.3098  128.7689  150.3127 C   0  0  0  0  0  0  0  0  0  0  0  0
  130.2789  130.1507  150.3576 C   0  0  0  0  0  0  0  0  0  0  0  0
  130.3895  130.8074  151.5662 C   0  0  0  0  0  0  0  0  0  0  0  0
  131.3848  130.1976  155.0829 C   0  0  0  0  0  0  0  0  0  0  0  0
  131.4963  130.8475  156.2920 C   0  0  0  0  0  0  0  0  0  0  0  0
  131.5414  134.0102  157.9805 N   0  0  0  0  0  0  0  0  0  0  0  0
  131.9184  134.5777  157.2900 H   0  0  0  0  0  0  0  0  0  0  0  0
  132.3472  137.0327  161.6517 C   0  0  0  0  0  0  0  0  0  0  0  0
  131.8225  137.7298  162.7239 C   0  0  0  0  0  0  0  0  0  0  0  0
  132.3449  138.9622  163.0695 C   0  0  0  0  0  0  0  0  0  0  0  0
  133.3857  139.5015  162.3373 C   0  0  0  0  0  0  0  0  0  0  0  0
  133.9068  138.8071  161.2614 C   0  0  0  0  0  0  0  0  0  0  0  0
  133.3875  137.5727  160.9186 C   0  0  0  0  0  0  0  0  0  0  0  0
  129.4344  136.5399  161.1019 C   0  0  0  0  0  0  0  0  0  0  0  0
  128.0954  136.4888  161.4419 C   0  0  0  0  0  0  0  0  0  0  0  0
  126.0101  136.1216  163.5793 H   0  0  0  0  0  0  0  0  0  0  0  0
  125.5843  135.8360  161.8747 H   0  0  0  0  0  0  0  0  0  0  0  0
  125.9107  134.4582  162.9535 H   0  0  0  0  0  0  0  0  0  0  0  0
  128.1834  133.8932  163.5942 H   0  0  0  0  0  0  0  0  0  0  0  0
  130.5671  133.9796  162.9831 H   0  0  0  0  0  0  0  0  0  0  0  0
  132.3329  136.1674  159.2848 H   0  0  0  0  0  0  0  0  0  0  0  0
  130.1106  131.3575  159.1711 H   0  0  0  0  0  0  0  0  0  0  0  0
  129.6577  133.6134  155.5896 H   0  0  0  0  0  0  0  0  0  0  0  0
  129.4671  132.4579  153.4291 H   0  0  0  0  0  0  0  0  0  0  0  0
  130.6841  128.1105  153.6008 H   0  0  0  0  0  0  0  0  0  0  0  0
  130.4755  126.9577  151.4375 H   0  0  0  0  0  0  0  0  0  0  0  0
  130.2230  128.2595  149.3644 H   0  0  0  0  0  0  0  0  0  0  0  0
  130.1681  130.7171  149.4446 H   0  0  0  0  0  0  0  0  0  0  0  0
  130.3655  131.8866  151.5998 H   0  0  0  0  0  0  0  0  0  0  0  0
  131.8637  129.2405  154.9380 H   0  0  0  0  0  0  0  0  0  0  0  0
  132.0632  130.4004  157.0951 H   0  0  0  0  0  0  0  0  0  0  0  0
  131.0070  137.3100  163.2939 H   0  0  0  0  0  0  0  0  0  0  0  0
  131.9379  139.5048  163.9099 H   0  0  0  0  0  0  0  0  0  0  0  0
  133.7921  140.4658  162.6048 H   0  0  0  0  0  0  0  0  0  0  0  0
  134.7201  139.2285  160.6891 H   0  0  0  0  0  0  0  0  0  0  0  0
  133.7947  137.0300  160.0783 H   0  0  0  0  0  0  0  0  0  0  0  0
  129.7862  137.2851  160.4038 H   0  0  0  0  0  0  0  0  0  0  0  0
  127.4010  137.1935  161.0085 H   0  0  0  0  0  0  0  0  0  0  0  0
  1  2  1  0
  1 36  1  0
  1 37  1  0
  1 38  1  0
  2 35  2  0
  2  3  1  0
  3  4  2  0
  3 39  1  0
  4  5  1  0
  4 40  1  0
  5  6  1  0
  5 34  2  0
  6  7  1  1
  6  8  1  0
  6 28  1  0
  8 41  1  0
  9  8  1  0
  9 26  2  0
  9 10  1  0
 10 11  1  0
 10 12  1  0
 12 13  2  0
 12 42  1  0
 13 14  1  0
 13 26  1  0
 14 25  1  0
 14 15  2  0
 15 16  1  0
 15 43  1  0
 16 17  2  0
 16 44  1  0
 17 18  1  0
 17 24  1  0
 18 23  1  0
 18 19  2  0
 19 20  1  0
 19 45  1  0
 20 21  2  0
 20 46  1  0
 21 22  1  0
 21 47  1  0
 22 23  2  0
 22 48  1  0
 23 49  1  0
 24 25  2  0
 24 50  1  0
 25 51  1  0
 26 27  1  0
 28 33  1  0
 28 29  2  0
 29 30  1  0
 29 52  1  0
 30 31  2  0
 30 53  1  0
 31 32  1  0
 31 54  1  0
 32 33  2  0
 32 55  1  0
 33 56  1  0
 34 35  1  0
 34 57  1  0
 35 58  1  0
M  CHG  1  26   1
M  END
>  <DOCK_score>  (1) 
-60.327045

>  <SMILES>  (1) 
Cc1ccc([C@@H](Nc2[nH]cc(-c3ccc(-c4ccccc4)cc3)[nH+]2)c2ccccc2)cc1

$$$$
