CCc1ccc(-c2c[nH]c(Nc3ccncc3O)[nH+]2)cc1
     RDKit          3D

 38 40  0  0  1  0  0  0  0  0999 V2000
  130.3078  128.6049  151.4533 C   0  0  0  0  0  0  0  0  0  0  0  0
  131.4357  129.5719  151.8189 C   0  0  0  0  0  0  0  0  0  0  0  0
  131.0842  130.2943  153.0941 C   0  0  0  0  0  0  0  0  0  0  0  0
  131.4579  129.7604  154.3140 C   0  0  0  0  0  0  0  0  0  0  0  0
  131.1429  130.4201  155.4846 C   0  0  0  0  0  0  0  0  0  0  0  0
  130.4373  131.6211  155.4362 C   0  0  0  0  0  0  0  0  0  0  0  0
  130.0909  132.3321  156.6911 C   0  0  0  0  0  0  0  0  0  0  0  0
  129.3374  131.8396  157.7057 C   0  0  0  0  0  0  0  0  0  0  0  0
  129.2678  132.8212  158.6633 N   0  0  0  0  0  0  0  0  0  0  0  0
  128.7965  132.7661  159.5094 H   0  0  0  0  0  0  0  0  0  0  0  0
  129.9815  133.8862  158.2060 C   0  0  0  0  0  0  0  0  0  0  0  0
  130.1599  135.0858  158.8758 N   0  0  0  0  0  0  0  0  0  0  0  0
  129.1736  135.5526  159.7458 C   0  0  0  0  0  0  0  0  0  0  0  0
  129.4516  135.7639  161.0942 C   0  0  0  0  0  0  0  0  0  0  0  0
  128.4501  136.2303  161.9215 C   0  0  0  0  0  0  0  0  0  0  0  0
  127.2392  136.4670  161.4539 N   0  0  0  0  0  0  0  0  0  0  0  0
  126.9311  136.2762  160.1846 C   0  0  0  0  0  0  0  0  0  0  0  0
  127.8785  135.8148  159.2880 C   0  0  0  0  0  0  0  0  0  0  0  0
  127.5554  135.6201  157.9813 O   0  0  0  0  0  0  0  0  0  0  0  0
  130.4766  133.5876  157.0296 N   0  0  0  0  0  0  0  0  0  0  0  0
  131.0283  134.1721  156.4867 H   0  0  0  0  0  0  0  0  0  0  0  0
  130.0587  132.1519  154.2043 C   0  0  0  0  0  0  0  0  0  0  0  0
  130.3840  131.4863  153.0399 C   0  0  0  0  0  0  0  0  0  0  0  0
  130.1754  127.8804  152.2567 H   0  0  0  0  0  0  0  0  0  0  0  0
  129.3823  129.1632  151.3112 H   0  0  0  0  0  0  0  0  0  0  0  0
  130.5620  128.0823  150.5310 H   0  0  0  0  0  0  0  0  0  0  0  0
  132.3610  129.0137  151.9609 H   0  0  0  0  0  0  0  0  0  0  0  0
  131.5679  130.2964  151.0153 H   0  0  0  0  0  0  0  0  0  0  0  0
  132.0009  128.8276  154.3504 H   0  0  0  0  0  0  0  0  0  0  0  0
  131.4389  130.0045  156.4364 H   0  0  0  0  0  0  0  0  0  0  0  0
  128.8794  130.8626  157.7513 H   0  0  0  0  0  0  0  0  0  0  0  0
  130.9703  135.6011  158.7402 H   0  0  0  0  0  0  0  0  0  0  0  0
  130.4386  135.5686  161.4867 H   0  0  0  0  0  0  0  0  0  0  0  0
  128.6595  136.4000  162.9674 H   0  0  0  0  0  0  0  0  0  0  0  0
  125.9277  136.4819  159.8421 H   0  0  0  0  0  0  0  0  0  0  0  0
  128.2878  135.2969  157.4390 H   0  0  0  0  0  0  0  0  0  0  0  0
  129.5114  133.0818  154.1610 H   0  0  0  0  0  0  0  0  0  0  0  0
  130.0912  131.8965  152.0848 H   0  0  0  0  0  0  0  0  0  0  0  0
  1  2  1  0
  1 24  1  0
  1 25  1  0
  1 26  1  0
  2  3  1  0
  2 27  1  0
  2 28  1  0
  3 23  2  0
  3  4  1  0
  4  5  2  0
  4 29  1  0
  5  6  1  0
  5 30  1  0
  6  7  1  0
  6 22  2  0
  7 20  1  0
  7  8  2  0
  8  9  1  0
  8 31  1  0
  9 10  1  0
  9 11  1  0
 11 12  1  0
 11 20  2  0
 12 13  1  0
 12 32  1  0
 13 18  1  0
 13 14  2  0
 14 15  1  0
 14 33  1  0
 15 16  2  0
 15 34  1  0
 16 17  1  0
 17 18  2  0
 17 35  1  0
 18 19  1  0
 19 36  1  0
 20 21  1  0
 22 23  1  0
 22 37  1  0
 23 38  1  0
M  CHG  1  20   1
M  END
>  <DOCK_score>  (1) 
-52.108635

>  <SMILES>  (1) 
CCc1ccc(-c2c[nH]c(Nc3ccncc3O)[nH+]2)cc1

$$$$
