FC1(F)C[C@H]1CNc1cc2c(c(Nc3[nH]c4ccccc4[nH+]3)c1)CCC2
     RDKit          3D

 47 51  0  0  1  0  0  0  0  0999 V2000
  123.1612  131.7365  160.7373 F   0  0  0  0  0  0  0  0  0  0  0  0
  124.4586  132.1513  161.0567 C   0  0  0  0  0  0  0  0  0  0  0  0
  125.4907  131.4069  160.4754 F   0  0  0  0  0  0  0  0  0  0  0  0
  124.6956  132.7119  162.4613 C   0  0  0  0  0  0  0  0  0  0  0  0
  124.6929  133.6504  161.2530 C   0  0  1  0  0  0  0  0  0  0  0  0
  123.8362  134.3137  161.1327 H   0  0  0  0  0  0  0  0  0  0  0  0
  126.0378  134.2207  160.7984 C   0  0  0  0  0  0  0  0  0  0  0  0
  126.2778  135.5004  161.4701 N   0  0  0  0  0  0  0  0  0  0  0  0
  127.4500  136.2150  161.2130 C   0  0  0  0  0  0  0  0  0  0  0  0
  127.6762  137.4310  161.8444 C   0  0  0  0  0  0  0  0  0  0  0  0
  128.8382  138.1410  161.5969 C   0  0  0  0  0  0  0  0  0  0  0  0
  129.7744  137.6450  160.7097 C   0  0  0  0  0  0  0  0  0  0  0  0
  129.5494  136.4292  160.0705 C   0  0  0  0  0  0  0  0  0  0  0  0
  130.4971  135.9272  159.1730 N   0  0  0  0  0  0  0  0  0  0  0  0
  130.6405  134.5677  159.0126 C   0  0  0  0  0  0  0  0  0  0  0  0
  131.0241  133.9691  157.8870 N   0  0  0  0  0  0  0  0  0  0  0  0
  131.2457  134.4151  157.0546 H   0  0  0  0  0  0  0  0  0  0  0  0
  131.0561  132.6170  158.1044 C   0  0  0  0  0  0  0  0  0  0  0  0
  131.3780  131.5211  157.3088 C   0  0  0  0  0  0  0  0  0  0  0  0
  131.3035  130.2488  157.8330 C   0  0  0  0  0  0  0  0  0  0  0  0
  130.9094  130.0518  159.1484 C   0  0  0  0  0  0  0  0  0  0  0  0
  130.5877  131.1257  159.9498 C   0  0  0  0  0  0  0  0  0  0  0  0
  130.6576  132.4176  159.4363 C   0  0  0  0  0  0  0  0  0  0  0  0
  130.4102  133.6597  159.9584 N   0  0  0  0  0  0  0  0  0  0  0  0
  130.1168  133.8460  160.8640 H   0  0  0  0  0  0  0  0  0  0  0  0
  128.3881  135.7144  160.3217 C   0  0  0  0  0  0  0  0  0  0  0  0
  130.9425  138.6029  160.6095 C   0  0  0  0  0  0  0  0  0  0  0  0
  130.4229  139.9354  161.1895 C   0  0  0  0  0  0  0  0  0  0  0  0
  129.3131  139.4663  162.1539 C   0  0  0  0  0  0  0  0  0  0  0  0
  125.6555  132.5007  162.9323 H   0  0  0  0  0  0  0  0  0  0  0  0
  123.8407  132.7576  163.1360 H   0  0  0  0  0  0  0  0  0  0  0  0
  126.8340  133.5215  161.0539 H   0  0  0  0  0  0  0  0  0  0  0  0
  126.0214  134.3743  159.7194 H   0  0  0  0  0  0  0  0  0  0  0  0
  125.6227  135.8512  162.0935 H   0  0  0  0  0  0  0  0  0  0  0  0
  126.9440  137.8225  162.5350 H   0  0  0  0  0  0  0  0  0  0  0  0
  131.0535  136.5370  158.6637 H   0  0  0  0  0  0  0  0  0  0  0  0
  131.6856  131.6674  156.2839 H   0  0  0  0  0  0  0  0  0  0  0  0
  131.5534  129.3990  157.2151 H   0  0  0  0  0  0  0  0  0  0  0  0
  130.8546  129.0498  159.5474 H   0  0  0  0  0  0  0  0  0  0  0  0
  130.2823  130.9654  160.9732 H   0  0  0  0  0  0  0  0  0  0  0  0
  128.2144  134.7713  159.8250 H   0  0  0  0  0  0  0  0  0  0  0  0
  131.7836  138.2365  161.1981 H   0  0  0  0  0  0  0  0  0  0  0  0
  131.2367  138.7328  159.5680 H   0  0  0  0  0  0  0  0  0  0  0  0
  130.0107  140.5662  160.4020 H   0  0  0  0  0  0  0  0  0  0  0  0
  131.2124  140.4561  161.7313 H   0  0  0  0  0  0  0  0  0  0  0  0
  128.4946  140.1859  162.1673 H   0  0  0  0  0  0  0  0  0  0  0  0
  129.7145  139.3324  163.1584 H   0  0  0  0  0  0  0  0  0  0  0  0
  1  2  1  0
  2  5  1  0
  2  3  1  0
  2  4  1  0
  4  5  1  0
  4 30  1  0
  4 31  1  0
  5  6  1  1
  5  7  1  0
  7  8  1  0
  7 32  1  0
  7 33  1  0
  8  9  1  0
  8 34  1  0
  9 26  1  0
  9 10  2  0
 10 11  1  0
 10 35  1  0
 11 29  1  0
 11 12  2  0
 12 13  1  0
 12 27  1  0
 13 14  1  0
 13 26  2  0
 14 15  1  0
 14 36  1  0
 15 24  1  0
 15 16  2  0
 16 17  1  0
 16 18  1  0
 18 23  2  0
 18 19  1  0
 19 20  2  0
 19 37  1  0
 20 21  1  0
 20 38  1  0
 21 22  2  0
 21 39  1  0
 22 23  1  0
 22 40  1  0
 23 24  1  0
 24 25  1  0
 26 41  1  0
 27 28  1  0
 27 42  1  0
 27 43  1  0
 28 29  1  0
 28 44  1  0
 28 45  1  0
 29 46  1  0
 29 47  1  0
M  CHG  1  16   1
M  END
>  <DOCK_score>  (1) 
-48.020557

>  <SMILES>  (1) 
FC1(F)C[C@H]1CNc1cc2c(c(Nc3[nH]c4ccccc4[nH+]3)c1)CCC2

$$$$
