OC(c1cccc(-c2ccccc2)c1)[C@@H]1C[C@@H]([NH2+][C@@H]2C=C(c3ccccc3)C2)[C@H]1O
     RDKit          3D

 58 62  0  0  1  0  0  0  0  0999 V2000
  128.8147  132.8681  161.1303 O   0  0  0  0  0  0  0  0  0  0  0  0
  129.0370  133.1977  159.7577 C   0  0  2  0  0  0  0  0  0  0  0  0
  129.4937  131.9694  159.0137 C   0  0  0  0  0  0  0  0  0  0  0  0
  129.6337  130.7678  159.6848 C   0  0  0  0  0  0  0  0  0  0  0  0
  130.0522  129.6366  159.0081 C   0  0  0  0  0  0  0  0  0  0  0  0
  130.3284  129.7000  157.6572 C   0  0  0  0  0  0  0  0  0  0  0  0
  130.1949  130.9088  156.9776 C   0  0  0  0  0  0  0  0  0  0  0  0
  130.4958  130.9845  155.5264 C   0  0  0  0  0  0  0  0  0  0  0  0
  129.8252  131.9021  154.7202 C   0  0  0  0  0  0  0  0  0  0  0  0
  130.1094  131.9687  153.3713 C   0  0  0  0  0  0  0  0  0  0  0  0
  131.0580  131.1267  152.8194 C   0  0  0  0  0  0  0  0  0  0  0  0
  131.7267  130.2140  153.6150 C   0  0  0  0  0  0  0  0  0  0  0  0
  131.4498  130.1383  154.9649 C   0  0  0  0  0  0  0  0  0  0  0  0
  129.7721  132.0454  157.6642 C   0  0  0  0  0  0  0  0  0  0  0  0
  130.1124  134.2818  159.6613 C   0  0  2  0  0  0  0  0  0  0  0  0
  130.3260  134.5759  158.6337 H   0  0  0  0  0  0  0  0  0  0  0  0
  131.3708  133.9767  160.4909 C   0  0  0  0  0  0  0  0  0  0  0  0
  131.3896  135.4681  160.8655 C   0  0  1  0  0  0  0  0  0  0  0  0
  131.6547  135.6549  161.9061 H   0  0  0  0  0  0  0  0  0  0  0  0
  132.1500  136.3016  159.9247 N   0  0  0  0  0  0  0  0  0  0  0  0
  132.9860  135.8124  159.6420 H   0  0  0  0  0  0  0  0  0  0  0  0
  131.5829  136.4954  159.1130 H   0  0  0  0  0  0  0  0  0  0  0  0
  132.5191  137.5647  160.5775 C   0  0  2  0  0  0  0  0  0  0  0  0
  131.6496  138.1353  160.9041 H   0  0  0  0  0  0  0  0  0  0  0  0
  133.4981  138.3833  159.7747 C   0  0  0  0  0  0  0  0  0  0  0  0
  134.4036  138.2255  160.7313 C   0  0  0  0  0  0  0  0  0  0  0  0
  135.7937  138.7156  160.8398 C   0  0  0  0  0  0  0  0  0  0  0  0
  136.5562  138.4155  161.9693 C   0  0  0  0  0  0  0  0  0  0  0  0
  137.8553  138.8712  162.0618 C   0  0  0  0  0  0  0  0  0  0  0  0
  138.3982  139.6341  161.0434 C   0  0  0  0  0  0  0  0  0  0  0  0
  137.6458  139.9394  159.9233 C   0  0  0  0  0  0  0  0  0  0  0  0
  136.3474  139.4852  159.8159 C   0  0  0  0  0  0  0  0  0  0  0  0
  133.5734  137.3909  161.6731 C   0  0  0  0  0  0  0  0  0  0  0  0
  129.8739  135.4718  160.6056 C   0  0  1  0  0  0  0  0  0  0  0  0
  129.2796  135.2199  161.4840 H   0  0  0  0  0  0  0  0  0  0  0  0
  129.4085  136.6471  159.9393 O   0  0  0  0  0  0  0  0  0  0  0  0
  128.1434  132.1855  161.2671 H   0  0  0  0  0  0  0  0  0  0  0  0
  128.1100  133.5654  159.3177 H   0  0  0  0  0  0  0  0  0  0  0  0
  129.4147  130.7128  160.7409 H   0  0  0  0  0  0  0  0  0  0  0  0
  130.1591  128.7009  159.5367 H   0  0  0  0  0  0  0  0  0  0  0  0
  130.6511  128.8151  157.1287 H   0  0  0  0  0  0  0  0  0  0  0  0
  129.0878  132.5632  155.1510 H   0  0  0  0  0  0  0  0  0  0  0  0
  129.5902  132.6795  152.7454 H   0  0  0  0  0  0  0  0  0  0  0  0
  131.2772  131.1821  151.7633 H   0  0  0  0  0  0  0  0  0  0  0  0
  132.4665  129.5591  153.1788 H   0  0  0  0  0  0  0  0  0  0  0  0
  131.9725  129.4253  155.5853 H   0  0  0  0  0  0  0  0  0  0  0  0
  129.6630  132.9841  157.1413 H   0  0  0  0  0  0  0  0  0  0  0  0
  131.1857  133.3161  161.3379 H   0  0  0  0  0  0  0  0  0  0  0  0
  132.2255  133.6666  159.8898 H   0  0  0  0  0  0  0  0  0  0  0  0
  133.4729  138.8874  158.8199 H   0  0  0  0  0  0  0  0  0  0  0  0
  136.1320  137.8244  162.7673 H   0  0  0  0  0  0  0  0  0  0  0  0
  138.4481  138.6358  162.9334 H   0  0  0  0  0  0  0  0  0  0  0  0
  139.4139  139.9924  161.1227 H   0  0  0  0  0  0  0  0  0  0  0  0
  138.0753  140.5352  159.1315 H   0  0  0  0  0  0  0  0  0  0  0  0
  135.7610  139.7243  158.9410 H   0  0  0  0  0  0  0  0  0  0  0  0
  133.3294  137.8832  162.6145 H   0  0  0  0  0  0  0  0  0  0  0  0
  133.9275  136.3676  161.7984 H   0  0  0  0  0  0  0  0  0  0  0  0
  128.4639  136.6344  159.7332 H   0  0  0  0  0  0  0  0  0  0  0  0
  1  2  1  0
  1 37  1  0
  2  3  1  0
  2 15  1  0
  2 38  1  6
  3 14  1  0
  3  4  2  0
  4  5  1  0
  4 39  1  0
  5  6  2  0
  5 40  1  0
  6  7  1  0
  6 41  1  0
  7  8  1  0
  7 14  2  0
  8 13  1  0
  8  9  2  0
  9 10  1  0
  9 42  1  0
 10 11  2  0
 10 43  1  0
 11 12  1  0
 11 44  1  0
 12 13  2  0
 12 45  1  0
 13 46  1  0
 14 47  1  0
 15 16  1  6
 15 34  1  0
 15 17  1  0
 17 18  1  0
 17 48  1  0
 17 49  1  0
 18 19  1  1
 18 20  1  0
 18 34  1  0
 20 21  1  0
 20 22  1  0
 20 23  1  0
 23 24  1  1
 23 33  1  0
 23 25  1  0
 25 26  2  0
 25 50  1  0
 26 27  1  0
 26 33  1  0
 27 32  1  0
 27 28  2  0
 28 29  1  0
 28 51  1  0
 29 30  2  0
 29 52  1  0
 30 31  1  0
 30 53  1  0
 31 32  2  0
 31 54  1  0
 32 55  1  0
 33 56  1  0
 33 57  1  0
 34 35  1  1
 34 36  1  0
 36 58  1  0
M  CHG  1  20   1
M  END
>  <DOCK_score>  (1) 
-56.879105

>  <SMILES>  (1) 
OC(c1cccc(-c2ccccc2)c1)[C@@H]1C[C@@H]([NH2+][C@@H]2C=C(c3ccccc3)C2)[C@H]1O

$$$$
