C[C@@H](Nc1[nH]cc(-c2ccccc2)[nH+]1)c1cccc(NCc2cccc3c2NC(=O)CO3)c1
     RDKit          3D

 59 63  0  0  1  0  0  0  0  0999 V2000
  129.0123  136.4436  159.3136 C   0  0  0  0  0  0  0  0  0  0  0  0
  129.4337  134.9807  159.1609 C   0  0  1  0  0  0  0  0  0  0  0  0
  128.5568  134.3391  159.2477 H   0  0  0  0  0  0  0  0  0  0  0  0
  130.0536  134.7856  157.8479 N   0  0  0  0  0  0  0  0  0  0  0  0
  129.9580  133.5593  157.2127 C   0  0  0  0  0  0  0  0  0  0  0  0
  129.3135  132.4632  157.6981 N   0  0  0  0  0  0  0  0  0  0  0  0
  128.8427  132.4012  158.5438 H   0  0  0  0  0  0  0  0  0  0  0  0
  129.4529  131.4609  156.7691 C   0  0  0  0  0  0  0  0  0  0  0  0
  130.1777  131.9727  155.7437 C   0  0  0  0  0  0  0  0  0  0  0  0
  130.5775  131.2504  154.5114 C   0  0  0  0  0  0  0  0  0  0  0  0
  130.1611  131.7118  153.2639 C   0  0  0  0  0  0  0  0  0  0  0  0
  130.5416  131.0395  152.1202 C   0  0  0  0  0  0  0  0  0  0  0  0
  131.3239  129.9019  152.2115 C   0  0  0  0  0  0  0  0  0  0  0  0
  131.7352  129.4364  153.4471 C   0  0  0  0  0  0  0  0  0  0  0  0
  131.3663  130.1044  154.5969 C   0  0  0  0  0  0  0  0  0  0  0  0
  130.4682  133.2640  156.0422 N   0  0  0  0  0  0  0  0  0  0  0  0
  130.9750  133.8709  155.4802 H   0  0  0  0  0  0  0  0  0  0  0  0
  130.4232  134.6276  160.2411 C   0  0  0  0  0  0  0  0  0  0  0  0
  130.1327  133.6184  161.1411 C   0  0  0  0  0  0  0  0  0  0  0  0
  131.0403  133.2874  162.1302 C   0  0  0  0  0  0  0  0  0  0  0  0
  132.2359  133.9718  162.2297 C   0  0  0  0  0  0  0  0  0  0  0  0
  132.5285  134.9896  161.3311 C   0  0  0  0  0  0  0  0  0  0  0  0
  133.7364  135.6840  161.4291 N   0  0  0  0  0  0  0  0  0  0  0  0
  134.4895  135.6698  162.6855 C   0  0  0  0  0  0  0  0  0  0  0  0
  135.2610  136.9570  162.8234 C   0  0  0  0  0  0  0  0  0  0  0  0
  136.5812  136.9338  163.2359 C   0  0  0  0  0  0  0  0  0  0  0  0
  137.2925  138.1128  163.3580 C   0  0  0  0  0  0  0  0  0  0  0  0
  136.6864  139.3247  163.0787 C   0  0  0  0  0  0  0  0  0  0  0  0
  135.3649  139.3565  162.6705 C   0  0  0  0  0  0  0  0  0  0  0  0
  134.6488  138.1668  162.5427 C   0  0  0  0  0  0  0  0  0  0  0  0
  133.3096  138.2137  162.1300 N   0  0  0  0  0  0  0  0  0  0  0  0
  132.8371  139.3478  161.5683 C   0  0  0  0  0  0  0  0  0  0  0  0
  131.6741  139.4219  161.2319 O   0  0  0  0  0  0  0  0  0  0  0  0
  133.7610  140.5210  161.3615 C   0  0  0  0  0  0  0  0  0  0  0  0
  134.7534  140.5385  162.3908 O   0  0  0  0  0  0  0  0  0  0  0  0
  131.6167  135.3157  160.3348 C   0  0  0  0  0  0  0  0  0  0  0  0
  128.2965  136.6990  158.5323 H   0  0  0  0  0  0  0  0  0  0  0  0
  128.5512  136.5887  160.2905 H   0  0  0  0  0  0  0  0  0  0  0  0
  129.8893  137.0853  159.2269 H   0  0  0  0  0  0  0  0  0  0  0  0
  130.5275  135.5168  157.4219 H   0  0  0  0  0  0  0  0  0  0  0  0
  129.0601  130.4575  156.8414 H   0  0  0  0  0  0  0  0  0  0  0  0
  129.5459  132.5966  153.1921 H   0  0  0  0  0  0  0  0  0  0  0  0
  130.2238  131.3991  151.1527 H   0  0  0  0  0  0  0  0  0  0  0  0
  131.6154  129.3767  151.3139 H   0  0  0  0  0  0  0  0  0  0  0  0
  132.3463  128.5483  153.5123 H   0  0  0  0  0  0  0  0  0  0  0  0
  131.6883  129.7401  155.5612 H   0  0  0  0  0  0  0  0  0  0  0  0
  129.1964  133.0849  161.0686 H   0  0  0  0  0  0  0  0  0  0  0  0
  130.8121  132.4958  162.8287 H   0  0  0  0  0  0  0  0  0  0  0  0
  132.9423  133.7159  163.0055 H   0  0  0  0  0  0  0  0  0  0  0  0
  134.0766  136.1755  160.6652 H   0  0  0  0  0  0  0  0  0  0  0  0
  133.7984  135.5692  163.5223 H   0  0  0  0  0  0  0  0  0  0  0  0
  135.1832  134.8290  162.6840 H   0  0  0  0  0  0  0  0  0  0  0  0
  137.0587  135.9913  163.4597 H   0  0  0  0  0  0  0  0  0  0  0  0
  138.3240  138.0881  163.6769 H   0  0  0  0  0  0  0  0  0  0  0  0
  137.2440  140.2443  163.1788 H   0  0  0  0  0  0  0  0  0  0  0  0
  132.7313  137.4436  162.2459 H   0  0  0  0  0  0  0  0  0  0  0  0
  133.1858  141.4463  161.3963 H   0  0  0  0  0  0  0  0  0  0  0  0
  134.2473  140.4324  160.3900 H   0  0  0  0  0  0  0  0  0  0  0  0
  131.8410  136.1069  159.6348 H   0  0  0  0  0  0  0  0  0  0  0  0
  1  2  1  0
  1 37  1  0
  1 38  1  0
  1 39  1  0
  2  3  1  6
  2  4  1  0
  2 18  1  0
  4 40  1  0
  5  4  1  0
  5 16  2  0
  5  6  1  0
  6  7  1  0
  6  8  1  0
  8  9  2  0
  8 41  1  0
  9 10  1  0
  9 16  1  0
 10 15  1  0
 10 11  2  0
 11 12  1  0
 11 42  1  0
 12 13  2  0
 12 43  1  0
 13 14  1  0
 13 44  1  0
 14 15  2  0
 14 45  1  0
 15 46  1  0
 16 17  1  0
 18 36  1  0
 18 19  2  0
 19 20  1  0
 19 47  1  0
 20 21  2  0
 20 48  1  0
 21 22  1  0
 21 49  1  0
 22 23  1  0
 22 36  2  0
 23 24  1  0
 23 50  1  0
 24 25  1  0
 24 51  1  0
 24 52  1  0
 25 30  1  0
 25 26  2  0
 26 27  1  0
 26 53  1  0
 27 28  2  0
 27 54  1  0
 28 29  1  0
 28 55  1  0
 29 35  1  0
 29 30  2  0
 30 31  1  0
 31 32  1  0
 31 56  1  0
 32 33  2  0
 32 34  1  0
 34 35  1  0
 34 57  1  0
 34 58  1  0
 36 59  1  0
M  CHG  1  16   1
M  END
>  <DOCK_score>  (1) 
-60.326645

>  <SMILES>  (1) 
C[C@@H](Nc1[nH]cc(-c2ccccc2)[nH+]1)c1cccc(NCc2cccc3c2NC(=O)CO3)c1

$$$$
