CC1=CC[NH+]([C@@H](Cc2ccccc2-c2cccnc2)c2ccc(C)cc2)C1
     RDKit          3D

 54 57  0  0  1  0  0  0  0  0999 V2000
  132.3068  138.6179  161.2635 C   0  0  0  0  0  0  0  0  0  0  0  0
  132.0940  137.2200  160.7422 C   0  0  0  0  0  0  0  0  0  0  0  0
  133.0448  136.3633  160.4651 C   0  0  0  0  0  0  0  0  0  0  0  0
  132.4321  135.0744  159.9680 C   0  0  0  0  0  0  0  0  0  0  0  0
  131.0397  135.4199  159.5951 N   0  0  1  0  0  0  0  0  0  0  0  0
  130.9802  135.6716  158.6199 H   0  0  0  0  0  0  0  0  0  0  0  0
  130.1283  134.3093  159.9015 C   0  0  1  0  0  0  0  0  0  0  0  0
  130.1636  134.0944  160.9696 H   0  0  0  0  0  0  0  0  0  0  0  0
  128.7019  134.6961  159.5060 C   0  0  0  0  0  0  0  0  0  0  0  0
  127.7670  133.5567  159.8202 C   0  0  0  0  0  0  0  0  0  0  0  0
  127.5184  132.5847  158.8722 C   0  0  0  0  0  0  0  0  0  0  0  0
  126.6603  131.5388  159.1590 C   0  0  0  0  0  0  0  0  0  0  0  0
  126.0464  131.4604  160.3964 C   0  0  0  0  0  0  0  0  0  0  0  0
  126.2876  132.4267  161.3515 C   0  0  0  0  0  0  0  0  0  0  0  0
  127.1514  133.4829  161.0677 C   0  0  0  0  0  0  0  0  0  0  0  0
  127.4150  134.5248  162.0910 C   0  0  0  0  0  0  0  0  0  0  0  0
  128.4706  134.3808  162.9956 C   0  0  0  0  0  0  0  0  0  0  0  0
  128.6750  135.3808  163.9304 C   0  0  0  0  0  0  0  0  0  0  0  0
  127.8360  136.4803  163.9396 C   0  0  0  0  0  0  0  0  0  0  0  0
  126.8474  136.5882  163.0732 N   0  0  0  0  0  0  0  0  0  0  0  0
  126.6178  135.6649  162.1619 C   0  0  0  0  0  0  0  0  0  0  0  0
  130.5497  133.0860  159.1287 C   0  0  0  0  0  0  0  0  0  0  0  0
  130.5835  133.1189  157.7472 C   0  0  0  0  0  0  0  0  0  0  0  0
  130.9741  131.9981  157.0386 C   0  0  0  0  0  0  0  0  0  0  0  0
  131.3218  130.8415  157.7112 C   0  0  0  0  0  0  0  0  0  0  0  0
  131.7432  129.6182  156.9384 C   0  0  0  0  0  0  0  0  0  0  0  0
  131.2834  130.8072  159.0926 C   0  0  0  0  0  0  0  0  0  0  0  0
  130.8969  131.9293  159.8014 C   0  0  0  0  0  0  0  0  0  0  0  0
  130.7502  136.5899  160.4579 C   0  0  0  0  0  0  0  0  0  0  0  0
  132.3202  138.6012  162.3533 H   0  0  0  0  0  0  0  0  0  0  0  0
  133.2576  139.0025  160.8943 H   0  0  0  0  0  0  0  0  0  0  0  0
  131.4967  139.2612  160.9200 H   0  0  0  0  0  0  0  0  0  0  0  0
  134.1031  136.5490  160.5746 H   0  0  0  0  0  0  0  0  0  0  0  0
  132.4362  134.3247  160.7591 H   0  0  0  0  0  0  0  0  0  0  0  0
  132.9765  134.7087  159.0974 H   0  0  0  0  0  0  0  0  0  0  0  0
  128.6666  134.9112  158.4379 H   0  0  0  0  0  0  0  0  0  0  0  0
  128.3971  135.5809  160.0649 H   0  0  0  0  0  0  0  0  0  0  0  0
  127.9948  132.6411  157.9046 H   0  0  0  0  0  0  0  0  0  0  0  0
  126.4690  130.7800  158.4146 H   0  0  0  0  0  0  0  0  0  0  0  0
  125.3738  130.6439  160.6136 H   0  0  0  0  0  0  0  0  0  0  0  0
  125.8075  132.3649  162.3169 H   0  0  0  0  0  0  0  0  0  0  0  0
  129.1108  133.5116  162.9655 H   0  0  0  0  0  0  0  0  0  0  0  0
  129.4813  135.3035  164.6449 H   0  0  0  0  0  0  0  0  0  0  0  0
  127.9926  137.2624  164.6676 H   0  0  0  0  0  0  0  0  0  0  0  0
  125.8012  135.7910  161.4664 H   0  0  0  0  0  0  0  0  0  0  0  0
  130.3080  134.0212  157.2216 H   0  0  0  0  0  0  0  0  0  0  0  0
  131.0045  132.0250  155.9593 H   0  0  0  0  0  0  0  0  0  0  0  0
  130.8671  129.0086  156.7171 H   0  0  0  0  0  0  0  0  0  0  0  0
  132.2185  129.9233  156.0062 H   0  0  0  0  0  0  0  0  0  0  0  0
  132.4487  129.0379  157.5332 H   0  0  0  0  0  0  0  0  0  0  0  0
  131.5550  129.9035  159.6180 H   0  0  0  0  0  0  0  0  0  0  0  0
  130.8665  131.9023  160.8806 H   0  0  0  0  0  0  0  0  0  0  0  0
  130.1056  137.2955  159.9337 H   0  0  0  0  0  0  0  0  0  0  0  0
  130.2807  136.2668  161.3871 H   0  0  0  0  0  0  0  0  0  0  0  0
  1  2  1  0
  1 30  1  0
  1 31  1  0
  1 32  1  0
  2 29  1  0
  2  3  2  0
  3  4  1  0
  3 33  1  0
  4  5  1  0
  4 34  1  0
  4 35  1  0
  5  6  1  6
  5  7  1  0
  5 29  1  0
  7  8  1  1
  7  9  1  0
  7 22  1  0
  9 10  1  0
  9 36  1  0
  9 37  1  0
 10 15  1  0
 10 11  2  0
 11 12  1  0
 11 38  1  0
 12 13  2  0
 12 39  1  0
 13 14  1  0
 13 40  1  0
 14 15  2  0
 14 41  1  0
 15 16  1  0
 16 21  1  0
 16 17  2  0
 17 18  1  0
 17 42  1  0
 18 19  2  0
 18 43  1  0
 19 20  1  0
 19 44  1  0
 20 21  2  0
 21 45  1  0
 22 28  1  0
 22 23  2  0
 23 24  1  0
 23 46  1  0
 24 25  2  0
 24 47  1  0
 25 26  1  0
 25 27  1  0
 26 48  1  0
 26 49  1  0
 26 50  1  0
 27 28  2  0
 27 51  1  0
 28 52  1  0
 29 53  1  0
 29 54  1  0
M  CHG  1   5   1
M  END
>  <DOCK_score>  (1) 
-47.833412

>  <SMILES>  (1) 
CC1=CC[NH+]([C@@H](Cc2ccccc2-c2cccnc2)c2ccc(C)cc2)C1

$$$$
