Cc1[nH]c(N[C@H]2C[C@@H](C(=O)c3cccc(-c4ccccc4)n3)C[C@H]2O)[nH+]c1-c1ccccc1
     RDKit          3D

 60 64  0  0  1  0  0  0  0  0999 V2000
  129.1667  131.0485  159.1057 C   0  0  0  0  0  0  0  0  0  0  0  0
  129.8879  132.3499  158.8666 C   0  0  0  0  0  0  0  0  0  0  0  0
  130.0599  133.3685  159.7721 N   0  0  0  0  0  0  0  0  0  0  0  0
  129.7382  133.3842  160.6871 H   0  0  0  0  0  0  0  0  0  0  0  0
  130.7620  134.3529  159.1474 C   0  0  0  0  0  0  0  0  0  0  0  0
  131.1419  135.5570  159.7153 N   0  0  0  0  0  0  0  0  0  0  0  0
  130.7873  135.8558  161.1050 C   0  0  1  0  0  0  0  0  0  0  0  0
  129.7039  135.8463  161.2239 H   0  0  0  0  0  0  0  0  0  0  0  0
  131.4300  134.8226  162.0469 C   0  0  0  0  0  0  0  0  0  0  0  0
  132.3632  135.6079  162.9915 C   0  0  1  0  0  0  0  0  0  0  0  0
  131.8507  135.8449  163.9239 H   0  0  0  0  0  0  0  0  0  0  0  0
  133.6188  134.8213  163.2663 C   0  0  0  0  0  0  0  0  0  0  0  0
  134.0509  134.0577  162.4301 O   0  0  0  0  0  0  0  0  0  0  0  0
  134.3224  134.9807  164.5537 C   0  0  0  0  0  0  0  0  0  0  0  0
  135.7058  134.8055  164.6116 C   0  0  0  0  0  0  0  0  0  0  0  0
  136.3577  134.9574  165.8261 C   0  0  0  0  0  0  0  0  0  0  0  0
  135.6086  135.2794  166.9442 C   0  0  0  0  0  0  0  0  0  0  0  0
  134.2265  135.4414  166.8179 C   0  0  0  0  0  0  0  0  0  0  0  0
  133.4159  135.7871  168.0116 C   0  0  0  0  0  0  0  0  0  0  0  0
  132.2528  136.5417  167.8723 C   0  0  0  0  0  0  0  0  0  0  0  0
  131.4991  136.8548  168.9854 C   0  0  0  0  0  0  0  0  0  0  0  0
  131.9038  136.4319  170.2392 C   0  0  0  0  0  0  0  0  0  0  0  0
  133.0602  135.6877  170.3836 C   0  0  0  0  0  0  0  0  0  0  0  0
  133.8180  135.3632  169.2766 C   0  0  0  0  0  0  0  0  0  0  0  0
  133.6331  135.2899  165.6458 N   0  0  0  0  0  0  0  0  0  0  0  0
  132.6950  136.9023  162.2080 C   0  0  0  0  0  0  0  0  0  0  0  0
  131.3523  137.2328  161.5101 C   0  0  1  0  0  0  0  0  0  0  0  0
  130.6758  137.7342  162.2023 H   0  0  0  0  0  0  0  0  0  0  0  0
  131.5731  138.0428  160.3536 O   0  0  0  0  0  0  0  0  0  0  0  0
  131.0239  133.9706  157.9215 N   0  0  0  0  0  0  0  0  0  0  0  0
  131.5162  134.4872  157.2643 H   0  0  0  0  0  0  0  0  0  0  0  0
  130.4966  132.7371  157.7184 C   0  0  0  0  0  0  0  0  0  0  0  0
  130.5720  131.9516  156.4625 C   0  0  0  0  0  0  0  0  0  0  0  0
  130.0236  132.4591  155.2860 C   0  0  0  0  0  0  0  0  0  0  0  0
  130.1019  131.7265  154.1191 C   0  0  0  0  0  0  0  0  0  0  0  0
  130.7126  130.4854  154.1183 C   0  0  0  0  0  0  0  0  0  0  0  0
  131.2536  129.9741  155.2842 C   0  0  0  0  0  0  0  0  0  0  0  0
  131.1865  130.7004  156.4556 C   0  0  0  0  0  0  0  0  0  0  0  0
  129.8705  130.3073  159.4844 H   0  0  0  0  0  0  0  0  0  0  0  0
  128.3725  131.2020  159.8362 H   0  0  0  0  0  0  0  0  0  0  0  0
  128.7355  130.6947  158.1692 H   0  0  0  0  0  0  0  0  0  0  0  0
  131.6431  136.2028  159.1930 H   0  0  0  0  0  0  0  0  0  0  0  0
  132.0058  134.0988  161.4701 H   0  0  0  0  0  0  0  0  0  0  0  0
  130.6591  134.3116  162.6235 H   0  0  0  0  0  0  0  0  0  0  0  0
  136.2623  134.5540  163.7207 H   0  0  0  0  0  0  0  0  0  0  0  0
  137.4269  134.8229  165.8987 H   0  0  0  0  0  0  0  0  0  0  0  0
  136.0873  135.4041  167.9044 H   0  0  0  0  0  0  0  0  0  0  0  0
  131.9391  136.8769  166.8948 H   0  0  0  0  0  0  0  0  0  0  0  0
  130.5945  137.4349  168.8781 H   0  0  0  0  0  0  0  0  0  0  0  0
  131.3130  136.6830  171.1076 H   0  0  0  0  0  0  0  0  0  0  0  0
  133.3709  135.3596  171.3645 H   0  0  0  0  0  0  0  0  0  0  0  0
  134.7213  134.7822  169.3908 H   0  0  0  0  0  0  0  0  0  0  0  0
  132.9836  137.7028  162.8891 H   0  0  0  0  0  0  0  0  0  0  0  0
  133.4779  136.7185  161.4723 H   0  0  0  0  0  0  0  0  0  0  0  0
  130.7752  138.2135  159.8347 H   0  0  0  0  0  0  0  0  0  0  0  0
  129.5423  133.4259  155.2865 H   0  0  0  0  0  0  0  0  0  0  0  0
  129.6813  132.1208  153.2058 H   0  0  0  0  0  0  0  0  0  0  0  0
  130.7674  129.9133  153.2037 H   0  0  0  0  0  0  0  0  0  0  0  0
  131.7298  129.0048  155.2777 H   0  0  0  0  0  0  0  0  0  0  0  0
  131.6094  130.3006  157.3653 H   0  0  0  0  0  0  0  0  0  0  0  0
  1  2  1  0
  1 39  1  0
  1 40  1  0
  1 41  1  0
  2 32  2  0
  2  3  1  0
  3  4  1  0
  3  5  1  0
  5  6  1  0
  5 30  2  0
  6  7  1  0
  6 42  1  0
  7  8  1  6
  7 27  1  0
  7  9  1  0
  9 10  1  0
  9 43  1  0
  9 44  1  0
 10 11  1  1
 10 12  1  0
 10 26  1  0
 12 13  2  0
 12 14  1  0
 14 25  1  0
 14 15  2  0
 15 16  1  0
 15 45  1  0
 16 17  2  0
 16 46  1  0
 17 18  1  0
 17 47  1  0
 18 19  1  0
 18 25  2  0
 19 24  1  0
 19 20  2  0
 20 21  1  0
 20 48  1  0
 21 22  2  0
 21 49  1  0
 22 23  1  0
 22 50  1  0
 23 24  2  0
 23 51  1  0
 24 52  1  0
 26 27  1  0
 26 53  1  0
 26 54  1  0
 27 28  1  1
 27 29  1  0
 29 55  1  0
 30 31  1  0
 30 32  1  0
 32 33  1  0
 33 38  1  0
 33 34  2  0
 34 35  1  0
 34 56  1  0
 35 36  2  0
 35 57  1  0
 36 37  1  0
 36 58  1  0
 37 38  2  0
 37 59  1  0
 38 60  1  0
M  CHG  1  30   1
M  END
>  <DOCK_score>  (1) 
-56.706249

>  <SMILES>  (1) 
Cc1[nH]c(N[C@H]2C[C@@H](C(=O)c3cccc(-c4ccccc4)n3)C[C@H]2O)[nH+]c1-c1ccccc1

$$$$
