Oc1ccccc1[C@H](c1ccccc1)[NH+]1CCN(c2cccc3cc[nH]c23)CC1
     RDKit          3D

 55 59  0  0  1  0  0  0  0  0999 V2000
  129.9974  130.6631  159.7050 O   0  0  0  0  0  0  0  0  0  0  0  0
  130.3405  131.0940  158.4627 C   0  0  0  0  0  0  0  0  0  0  0  0
  130.7734  130.1858  157.5071 C   0  0  0  0  0  0  0  0  0  0  0  0
  131.1217  130.6264  156.2452 C   0  0  0  0  0  0  0  0  0  0  0  0
  131.0389  131.9711  155.9336 C   0  0  0  0  0  0  0  0  0  0  0  0
  130.6079  132.8780  156.8840 C   0  0  0  0  0  0  0  0  0  0  0  0
  130.2588  132.4424  158.1479 C   0  0  0  0  0  0  0  0  0  0  0  0
  129.7892  133.4316  159.1834 C   0  0  2  0  0  0  0  0  0  0  0  0
  129.5607  132.9060  160.1105 H   0  0  0  0  0  0  0  0  0  0  0  0
  128.5512  134.1312  158.6846 C   0  0  0  0  0  0  0  0  0  0  0  0
  127.3028  133.6013  158.9518 C   0  0  0  0  0  0  0  0  0  0  0  0
  126.1670  134.2454  158.4978 C   0  0  0  0  0  0  0  0  0  0  0  0
  126.2800  135.4142  157.7687 C   0  0  0  0  0  0  0  0  0  0  0  0
  127.5287  135.9416  157.4974 C   0  0  0  0  0  0  0  0  0  0  0  0
  128.6643  135.2999  157.9549 C   0  0  0  0  0  0  0  0  0  0  0  0
  130.8460  134.4218  159.4294 N   0  0  0  0  0  0  0  0  0  0  0  0
  131.0573  134.9082  158.5709 H   0  0  0  0  0  0  0  0  0  0  0  0
  132.0526  133.7394  159.9150 C   0  0  0  0  0  0  0  0  0  0  0  0
  133.1599  134.7685  160.1532 C   0  0  0  0  0  0  0  0  0  0  0  0
  132.7029  135.7551  161.1422 N   0  0  0  0  0  0  0  0  0  0  0  0
  133.7098  136.6828  161.4266 C   0  0  0  0  0  0  0  0  0  0  0  0
  134.1901  136.8143  162.7180 C   0  0  0  0  0  0  0  0  0  0  0  0
  135.1938  137.7271  163.0083 C   0  0  0  0  0  0  0  0  0  0  0  0
  135.7162  138.5215  162.0269 C   0  0  0  0  0  0  0  0  0  0  0  0
  135.2431  138.4118  160.7163 C   0  0  0  0  0  0  0  0  0  0  0  0
  135.5695  139.0860  159.4574 C   0  0  0  0  0  0  0  0  0  0  0  0
  134.7778  138.5563  158.5111 C   0  0  0  0  0  0  0  0  0  0  0  0
  133.9715  137.5984  159.0611 N   0  0  0  0  0  0  0  0  0  0  0  0
  133.3148  137.0760  158.5746 H   0  0  0  0  0  0  0  0  0  0  0  0
  134.2320  137.4859  160.4100 C   0  0  0  0  0  0  0  0  0  0  0  0
  131.4809  136.4290  160.6810 C   0  0  0  0  0  0  0  0  0  0  0  0
  130.3875  135.3862  160.4381 C   0  0  0  0  0  0  0  0  0  0  0  0
  130.0873  129.7083  159.8288 H   0  0  0  0  0  0  0  0  0  0  0  0
  130.8379  129.1354  157.7498 H   0  0  0  0  0  0  0  0  0  0  0  0
  131.4548  129.9193  155.4998 H   0  0  0  0  0  0  0  0  0  0  0  0
  131.3117  132.3136  154.9464 H   0  0  0  0  0  0  0  0  0  0  0  0
  130.5446  133.9277  156.6384 H   0  0  0  0  0  0  0  0  0  0  0  0
  127.2146  132.6858  159.5181 H   0  0  0  0  0  0  0  0  0  0  0  0
  125.1914  133.8336  158.7102 H   0  0  0  0  0  0  0  0  0  0  0  0
  125.3927  135.9157  157.4112 H   0  0  0  0  0  0  0  0  0  0  0  0
  127.6170  136.8549  156.9276 H   0  0  0  0  0  0  0  0  0  0  0  0
  129.6399  135.7116  157.7427 H   0  0  0  0  0  0  0  0  0  0  0  0
  131.8278  133.2246  160.8491 H   0  0  0  0  0  0  0  0  0  0  0  0
  132.3843  133.0147  159.1714 H   0  0  0  0  0  0  0  0  0  0  0  0
  133.3943  135.2743  159.2164 H   0  0  0  0  0  0  0  0  0  0  0  0
  134.0508  134.2642  160.5275 H   0  0  0  0  0  0  0  0  0  0  0  0
  133.7836  136.1972  163.5057 H   0  0  0  0  0  0  0  0  0  0  0  0
  135.5616  137.8144  164.0199 H   0  0  0  0  0  0  0  0  0  0  0  0
  136.4937  139.2327  162.2636 H   0  0  0  0  0  0  0  0  0  0  0  0
  136.3068  139.8626  159.3172 H   0  0  0  0  0  0  0  0  0  0  0  0
  134.7774  138.8444  157.4703 H   0  0  0  0  0  0  0  0  0  0  0  0
  131.6876  136.9620  159.7530 H   0  0  0  0  0  0  0  0  0  0  0  0
  131.1468  137.1361  161.4404 H   0  0  0  0  0  0  0  0  0  0  0  0
  129.4847  135.8824  160.0824 H   0  0  0  0  0  0  0  0  0  0  0  0
  130.1715  134.8627  161.3694 H   0  0  0  0  0  0  0  0  0  0  0  0
  1  2  1  0
  1 33  1  0
  2  7  2  0
  2  3  1  0
  3  4  2  0
  3 34  1  0
  4  5  1  0
  4 35  1  0
  5  6  2  0
  5 36  1  0
  6  7  1  0
  6 37  1  0
  7  8  1  0
  8  9  1  1
  8 10  1  0
  8 16  1  0
 10 15  1  0
 10 11  2  0
 11 12  1  0
 11 38  1  0
 12 13  2  0
 12 39  1  0
 13 14  1  0
 13 40  1  0
 14 15  2  0
 14 41  1  0
 15 42  1  0
 16 17  1  0
 16 32  1  0
 16 18  1  0
 18 19  1  0
 18 43  1  0
 18 44  1  0
 19 20  1  0
 19 45  1  0
 19 46  1  0
 20 21  1  0
 20 31  1  0
 21 30  1  0
 21 22  2  0
 22 23  1  0
 22 47  1  0
 23 24  2  0
 23 48  1  0
 24 25  1  0
 24 49  1  0
 25 30  2  0
 25 26  1  0
 26 27  2  0
 26 50  1  0
 27 28  1  0
 27 51  1  0
 28 29  1  0
 28 30  1  0
 31 32  1  0
 31 52  1  0
 31 53  1  0
 32 54  1  0
 32 55  1  0
M  CHG  1  16   1
M  END
>  <DOCK_score>  (1) 
-59.351021

>  <SMILES>  (1) 
Oc1ccccc1[C@H](c1ccccc1)[NH+]1CCN(c2cccc3cc[nH]c23)CC1

$$$$
