CNC(=[NH2+])N[C@@H]1C[C@@H]1N[C@H]1C(=Cc2cnn3ccccc23)C(=O)c2ccc(O)cc21
     RDKit          3D

 53 57  0  0  1  0  0  0  0  0999 V2000
  131.3594  132.8043  153.0248 C   0  0  0  0  0  0  0  0  0  0  0  0
  131.5400  133.1626  154.4338 N   0  0  0  0  0  0  0  0  0  0  0  0
  130.7012  132.6392  155.3891 C   0  0  0  0  0  0  0  0  0  0  0  0
  129.7453  131.8242  155.0413 N   0  0  0  0  0  0  0  0  0  0  0  0
  129.6258  131.5869  154.1083 H   0  0  0  0  0  0  0  0  0  0  0  0
  129.1535  131.4550  155.7153 H   0  0  0  0  0  0  0  0  0  0  0  0
  130.8707  132.9754  156.7114 N   0  0  0  0  0  0  0  0  0  0  0  0
  129.9769  132.4178  157.7294 C   0  0  2  0  0  0  0  0  0  0  0  0
  129.9740  131.3306  157.8079 H   0  0  0  0  0  0  0  0  0  0  0  0
  128.6573  133.1489  157.9889 C   0  0  0  0  0  0  0  0  0  0  0  0
  129.7869  133.2197  159.0184 C   0  0  2  0  0  0  0  0  0  0  0  0
  129.6591  132.6600  159.9451 H   0  0  0  0  0  0  0  0  0  0  0  0
  130.5147  134.4898  159.1407 N   0  0  0  0  0  0  0  0  0  0  0  0
  130.6250  134.9003  160.5468 C   0  0  1  0  0  0  0  0  0  0  0  0
  130.8264  134.0334  161.1764 H   0  0  0  0  0  0  0  0  0  0  0  0
  131.7243  135.9241  160.7048 C   0  0  0  0  0  0  0  0  0  0  0  0
  133.0426  135.7448  160.4214 C   0  0  0  0  0  0  0  0  0  0  0  0
  133.9305  136.8462  160.4581 C   0  0  0  0  0  0  0  0  0  0  0  0
  134.2500  137.7043  159.3874 C   0  0  0  0  0  0  0  0  0  0  0  0
  135.1033  138.6001  159.8082 N   0  0  0  0  0  0  0  0  0  0  0  0
  135.3880  138.3826  161.1615 N   0  0  0  0  0  0  0  0  0  0  0  0
  136.2022  139.0351  162.0378 C   0  0  0  0  0  0  0  0  0  0  0  0
  136.3077  138.6217  163.3212 C   0  0  0  0  0  0  0  0  0  0  0  0
  135.5783  137.5125  163.7689 C   0  0  0  0  0  0  0  0  0  0  0  0
  134.7595  136.8521  162.8976 C   0  0  0  0  0  0  0  0  0  0  0  0
  134.6667  137.2981  161.5750 C   0  0  0  0  0  0  0  0  0  0  0  0
  131.1261  137.1016  161.1952 C   0  0  0  0  0  0  0  0  0  0  0  0
  131.7151  138.1410  161.4377 O   0  0  0  0  0  0  0  0  0  0  0  0
  129.6763  136.8837  161.3700 C   0  0  0  0  0  0  0  0  0  0  0  0
  128.6649  137.7388  161.8241 C   0  0  0  0  0  0  0  0  0  0  0  0
  127.3658  137.2911  161.8979 C   0  0  0  0  0  0  0  0  0  0  0  0
  127.0521  135.9902  161.5220 C   0  0  0  0  0  0  0  0  0  0  0  0
  125.7691  135.5530  161.5965 O   0  0  0  0  0  0  0  0  0  0  0  0
  128.0517  135.1371  161.0694 C   0  0  0  0  0  0  0  0  0  0  0  0
  129.3533  135.5788  160.9943 C   0  0  0  0  0  0  0  0  0  0  0  0
  132.1117  133.3123  152.4214 H   0  0  0  0  0  0  0  0  0  0  0  0
  131.4669  131.7260  152.9074 H   0  0  0  0  0  0  0  0  0  0  0  0
  130.3652  133.1082  152.6972 H   0  0  0  0  0  0  0  0  0  0  0  0
  132.2513  133.7691  154.6927 H   0  0  0  0  0  0  0  0  0  0  0  0
  131.5820  133.5820  156.9703 H   0  0  0  0  0  0  0  0  0  0  0  0
  127.7865  132.5425  158.2380 H   0  0  0  0  0  0  0  0  0  0  0  0
  128.4542  134.0448  157.4022 H   0  0  0  0  0  0  0  0  0  0  0  0
  130.0784  135.2113  158.5866 H   0  0  0  0  0  0  0  0  0  0  0  0
  133.4118  134.7618  160.1683 H   0  0  0  0  0  0  0  0  0  0  0  0
  133.8547  137.6338  158.3849 H   0  0  0  0  0  0  0  0  0  0  0  0
  136.7690  139.8916  161.7040 H   0  0  0  0  0  0  0  0  0  0  0  0
  136.9537  139.1519  164.0053 H   0  0  0  0  0  0  0  0  0  0  0  0
  135.6624  137.1826  164.7940 H   0  0  0  0  0  0  0  0  0  0  0  0
  134.1905  135.9950  163.2259 H   0  0  0  0  0  0  0  0  0  0  0  0
  128.9044  138.7503  162.1173 H   0  0  0  0  0  0  0  0  0  0  0  0
  126.5874  137.9526  162.2487 H   0  0  0  0  0  0  0  0  0  0  0  0
  125.1457  136.2168  161.9218 H   0  0  0  0  0  0  0  0  0  0  0  0
  127.8071  134.1265  160.7770 H   0  0  0  0  0  0  0  0  0  0  0  0
  1  2  1  0
  1 36  1  0
  1 37  1  0
  1 38  1  0
  2  3  1  0
  2 39  1  0
  3  4  2  0
  3  7  1  0
  4  5  1  0
  4  6  1  0
  7  8  1  0
  7 40  1  0
  8  9  1  1
  8 11  1  0
  8 10  1  0
 10 11  1  0
 10 41  1  0
 10 42  1  0
 11 12  1  1
 11 13  1  0
 13 14  1  0
 13 43  1  0
 14 15  1  1
 14 35  1  0
 14 16  1  0
 16 17  2  0
 16 27  1  0
 17 18  1  0
 17 44  1  0
 18 26  2  0
 18 19  1  0
 19 20  2  0
 19 45  1  0
 20 21  1  0
 21 26  1  0
 21 22  1  0
 22 23  2  0
 22 46  1  0
 23 24  1  0
 23 47  1  0
 24 25  2  0
 24 48  1  0
 25 26  1  0
 25 49  1  0
 27 28  2  0
 27 29  1  0
 29 35  2  0
 29 30  1  0
 30 31  2  0
 30 50  1  0
 31 32  1  0
 31 51  1  0
 32 33  1  0
 32 34  2  0
 33 52  1  0
 34 35  1  0
 34 53  1  0
M  CHG  1   4   1
M  END
>  <DOCK_score>  (1) 
-49.195412

>  <SMILES>  (1) 
CNC(=[NH2+])N[C@@H]1C[C@@H]1N[C@H]1C(=Cc2cnn3ccccc23)C(=O)c2ccc(O)cc21

$$$$
