Nc1ccc(Nc2[nH]cc(-c3ccc(C(F)(F)F)cc3)[nH+]2)cc1-c1ccc(Br)cc1
     RDKit          3D

 47 50  0  0  1  0  0  0  0  0999 V2000
  126.2603  136.9803  162.8588 N   0  0  0  0  0  0  0  0  0  0  0  0
  127.1881  136.6214  161.8774 C   0  0  0  0  0  0  0  0  0  0  0  0
  126.7532  136.2374  160.6171 C   0  0  0  0  0  0  0  0  0  0  0  0
  127.6689  135.8824  159.6464 C   0  0  0  0  0  0  0  0  0  0  0  0
  129.0303  135.9065  159.9257 C   0  0  0  0  0  0  0  0  0  0  0  0
  129.9534  135.5447  158.9363 N   0  0  0  0  0  0  0  0  0  0  0  0
  129.9119  134.2764  158.3811 C   0  0  0  0  0  0  0  0  0  0  0  0
  129.4961  133.1461  159.0156 N   0  0  0  0  0  0  0  0  0  0  0  0
  129.1777  133.0846  159.9298 H   0  0  0  0  0  0  0  0  0  0  0  0
  129.6104  132.1092  158.1224 C   0  0  0  0  0  0  0  0  0  0  0  0
  130.0924  132.6347  156.9687 C   0  0  0  0  0  0  0  0  0  0  0  0
  130.3776  131.8856  155.7206 C   0  0  0  0  0  0  0  0  0  0  0  0
  130.2621  132.5174  154.4836 C   0  0  0  0  0  0  0  0  0  0  0  0
  130.5291  131.8156  153.3258 C   0  0  0  0  0  0  0  0  0  0  0  0
  130.9105  130.4875  153.3911 C   0  0  0  0  0  0  0  0  0  0  0  0
  131.1998  129.7264  152.1230 C   0  0  0  0  0  0  0  0  0  0  0  0
  131.0155  130.5685  151.0212 F   0  0  0  0  0  0  0  0  0  0  0  0
  132.5219  129.2696  152.1447 F   0  0  0  0  0  0  0  0  0  0  0  0
  130.3306  128.6344  152.0259 F   0  0  0  0  0  0  0  0  0  0  0  0
  131.0217  129.8539  154.6156 C   0  0  0  0  0  0  0  0  0  0  0  0
  130.7627  130.5473  155.7804 C   0  0  0  0  0  0  0  0  0  0  0  0
  130.2730  133.9653  157.1599 N   0  0  0  0  0  0  0  0  0  0  0  0
  130.6127  134.5877  156.4979 H   0  0  0  0  0  0  0  0  0  0  0  0
  129.4760  136.2825  161.1831 C   0  0  0  0  0  0  0  0  0  0  0  0
  128.5574  136.6479  162.1640 C   0  0  0  0  0  0  0  0  0  0  0  0
  129.0286  137.0574  163.5094 C   0  0  0  0  0  0  0  0  0  0  0  0
  129.3109  138.3964  163.7737 C   0  0  0  0  0  0  0  0  0  0  0  0
  129.7439  138.7730  165.0287 C   0  0  0  0  0  0  0  0  0  0  0  0
  129.9089  137.8219  166.0208 C   0  0  0  0  0  0  0  0  0  0  0  0
  130.5102  138.3440  167.7359 Br  0  0  0  0  0  0  0  0  0  0  0  0
  129.6348  136.4900  165.7618 C   0  0  0  0  0  0  0  0  0  0  0  0
  129.1959  136.1037  164.5120 C   0  0  0  0  0  0  0  0  0  0  0  0
  125.3113  136.9613  162.6592 H   0  0  0  0  0  0  0  0  0  0  0  0
  126.5654  137.2487  163.7396 H   0  0  0  0  0  0  0  0  0  0  0  0
  125.6965  136.2164  160.3946 H   0  0  0  0  0  0  0  0  0  0  0  0
  127.3260  135.5845  158.6665 H   0  0  0  0  0  0  0  0  0  0  0  0
  130.6217  136.1821  158.6400 H   0  0  0  0  0  0  0  0  0  0  0  0
  129.3637  131.0736  158.3040 H   0  0  0  0  0  0  0  0  0  0  0  0
  129.9644  133.5542  154.4314 H   0  0  0  0  0  0  0  0  0  0  0  0
  130.4399  132.3042  152.3666 H   0  0  0  0  0  0  0  0  0  0  0  0
  131.3158  128.8157  154.6606 H   0  0  0  0  0  0  0  0  0  0  0  0
  130.8539  130.0528  156.7362 H   0  0  0  0  0  0  0  0  0  0  0  0
  130.5338  136.2966  161.4004 H   0  0  0  0  0  0  0  0  0  0  0  0
  129.1869  139.1387  162.9990 H   0  0  0  0  0  0  0  0  0  0  0  0
  129.9591  139.8109  165.2358 H   0  0  0  0  0  0  0  0  0  0  0  0
  129.7652  135.7518  166.5393 H   0  0  0  0  0  0  0  0  0  0  0  0
  128.9819  135.0644  164.3110 H   0  0  0  0  0  0  0  0  0  0  0  0
  1  2  1  0
  1 33  1  0
  1 34  1  0
  2 25  2  0
  2  3  1  0
  3  4  2  0
  3 35  1  0
  4  5  1  0
  4 36  1  0
  5  6  1  0
  5 24  2  0
  6 37  1  0
  7  6  1  0
  7 22  2  0
  7  8  1  0
  8  9  1  0
  8 10  1  0
 10 11  2  0
 10 38  1  0
 11 12  1  0
 11 22  1  0
 12 21  1  0
 12 13  2  0
 13 14  1  0
 13 39  1  0
 14 15  2  0
 14 40  1  0
 15 16  1  0
 15 20  1  0
 16 17  1  0
 16 18  1  0
 16 19  1  0
 20 21  2  0
 20 41  1  0
 21 42  1  0
 22 23  1  0
 24 25  1  0
 24 43  1  0
 25 26  1  0
 26 32  1  0
 26 27  2  0
 27 28  1  0
 27 44  1  0
 28 29  2  0
 28 45  1  0
 29 30  1  0
 29 31  1  0
 31 32  2  0
 31 46  1  0
 32 47  1  0
M  CHG  1  22   1
M  END
>  <DOCK_score>  (1) 
-50.808273

>  <SMILES>  (1) 
Nc1ccc(Nc2[nH]cc(-c3ccc(C(F)(F)F)cc3)[nH+]2)cc1-c1ccc(Br)cc1

$$$$
