Oc1ccc(-c2c[nH]c(Nc3ccc(Nc4ccccc4)cc3)[nH+]2)cc1
     RDKit          3D

 45 48  0  0  1  0  0  0  0  0999 V2000
  131.1801  129.3988  152.1225 O   0  0  0  0  0  0  0  0  0  0  0  0
  130.9383  130.0776  153.2750 C   0  0  0  0  0  0  0  0  0  0  0  0
  130.0490  131.1432  153.2776 C   0  0  0  0  0  0  0  0  0  0  0  0
  129.7972  131.8304  154.4468 C   0  0  0  0  0  0  0  0  0  0  0  0
  130.4411  131.4572  155.6253 C   0  0  0  0  0  0  0  0  0  0  0  0
  130.1729  132.1945  156.8845 C   0  0  0  0  0  0  0  0  0  0  0  0
  129.6738  131.6644  158.0286 C   0  0  0  0  0  0  0  0  0  0  0  0
  129.5851  132.6908  158.9381 N   0  0  0  0  0  0  0  0  0  0  0  0
  129.2631  132.6237  159.8506 H   0  0  0  0  0  0  0  0  0  0  0  0
  130.0333  133.8186  158.3218 C   0  0  0  0  0  0  0  0  0  0  0  0
  130.1076  135.0767  158.8964 N   0  0  0  0  0  0  0  0  0  0  0  0
  129.1969  135.4456  159.8941 C   0  0  0  0  0  0  0  0  0  0  0  0
  129.5763  136.3444  160.8827 C   0  0  0  0  0  0  0  0  0  0  0  0
  128.6770  136.7118  161.8636 C   0  0  0  0  0  0  0  0  0  0  0  0
  127.3962  136.1742  161.8682 C   0  0  0  0  0  0  0  0  0  0  0  0
  126.4861  136.5427  162.8657 N   0  0  0  0  0  0  0  0  0  0  0  0
  126.7835  136.2964  164.2082 C   0  0  0  0  0  0  0  0  0  0  0  0
  126.2896  137.1385  165.1966 C   0  0  0  0  0  0  0  0  0  0  0  0
  126.5817  136.8893  166.5231 C   0  0  0  0  0  0  0  0  0  0  0  0
  127.3732  135.8087  166.8674 C   0  0  0  0  0  0  0  0  0  0  0  0
  127.8708  134.9715  165.8856 C   0  0  0  0  0  0  0  0  0  0  0  0
  127.5788  135.2120  164.5575 C   0  0  0  0  0  0  0  0  0  0  0  0
  127.0185  135.2714  160.8825 C   0  0  0  0  0  0  0  0  0  0  0  0
  127.9161  134.9084  159.8984 C   0  0  0  0  0  0  0  0  0  0  0  0
  130.3890  133.5163  157.0967 N   0  0  0  0  0  0  0  0  0  0  0  0
  130.7472  134.1393  156.4453 H   0  0  0  0  0  0  0  0  0  0  0  0
  131.3380  130.3903  155.6183 C   0  0  0  0  0  0  0  0  0  0  0  0
  131.5855  129.7071  154.4458 C   0  0  0  0  0  0  0  0  0  0  0  0
  130.6842  129.7285  151.3606 H   0  0  0  0  0  0  0  0  0  0  0  0
  129.5502  131.4319  152.3642 H   0  0  0  0  0  0  0  0  0  0  0  0
  129.1014  132.6565  154.4493 H   0  0  0  0  0  0  0  0  0  0  0  0
  129.3986  130.6331  158.1935 H   0  0  0  0  0  0  0  0  0  0  0  0
  130.7903  135.7022  158.6075 H   0  0  0  0  0  0  0  0  0  0  0  0
  130.5737  136.7586  160.8820 H   0  0  0  0  0  0  0  0  0  0  0  0
  128.9707  137.4139  162.6300 H   0  0  0  0  0  0  0  0  0  0  0  0
  125.6488  136.9691  162.6248 H   0  0  0  0  0  0  0  0  0  0  0  0
  125.6749  137.9850  164.9281 H   0  0  0  0  0  0  0  0  0  0  0  0
  126.1953  137.5417  167.2924 H   0  0  0  0  0  0  0  0  0  0  0  0
  127.6034  135.6186  167.9053 H   0  0  0  0  0  0  0  0  0  0  0  0
  128.4888  134.1287  166.1579 H   0  0  0  0  0  0  0  0  0  0  0  0
  127.9684  134.5582  163.7913 H   0  0  0  0  0  0  0  0  0  0  0  0
  126.0228  134.8531  160.8862 H   0  0  0  0  0  0  0  0  0  0  0  0
  127.6224  134.2064  159.1321 H   0  0  0  0  0  0  0  0  0  0  0  0
  131.8387  130.0990  156.5298 H   0  0  0  0  0  0  0  0  0  0  0  0
  132.2804  128.8803  154.4397 H   0  0  0  0  0  0  0  0  0  0  0  0
  1  2  1  0
  1 29  1  0
  2 28  2  0
  2  3  1  0
  3  4  2  0
  3 30  1  0
  4  5  1  0
  4 31  1  0
  5  6  1  0
  5 27  2  0
  6 25  1  0
  6  7  2  0
  7  8  1  0
  7 32  1  0
  8  9  1  0
  8 10  1  0
 10 11  1  0
 10 25  2  0
 11 12  1  0
 11 33  1  0
 12 24  1  0
 12 13  2  0
 13 14  1  0
 13 34  1  0
 14 15  2  0
 14 35  1  0
 15 16  1  0
 15 23  1  0
 16 17  1  0
 16 36  1  0
 17 22  1  0
 17 18  2  0
 18 19  1  0
 18 37  1  0
 19 20  2  0
 19 38  1  0
 20 21  1  0
 20 39  1  0
 21 22  2  0
 21 40  1  0
 22 41  1  0
 23 24  2  0
 23 42  1  0
 24 43  1  0
 25 26  1  0
 27 28  1  0
 27 44  1  0
 28 45  1  0
M  CHG  1  25   1
M  END
>  <DOCK_score>  (1) 
-51.924519

>  <SMILES>  (1) 
Oc1ccc(-c2c[nH]c(Nc3ccc(Nc4ccccc4)cc3)[nH+]2)cc1

$$$$
