Nc1ccc(Sc2ccccc2)c(Nc2[nH]cc(C3=CCCCC3)[nH+]2)c1
     RDKit          3D

 49 52  0  0  1  0  0  0  0  0999 V2000
  127.3498  133.4428  161.3346 N   0  0  0  0  0  0  0  0  0  0  0  0
  128.3251  132.8358  160.5351 C   0  0  0  0  0  0  0  0  0  0  0  0
  128.1310  131.5434  160.0650 C   0  0  0  0  0  0  0  0  0  0  0  0
  129.0919  130.9408  159.2754 C   0  0  0  0  0  0  0  0  0  0  0  0
  130.2511  131.6277  158.9457 C   0  0  0  0  0  0  0  0  0  0  0  0
  131.4727  130.8612  157.9334 S   0  0  0  0  0  0  0  0  0  0  0  0
  130.9782  131.3139  156.3039 C   0  0  0  0  0  0  0  0  0  0  0  0
  130.3135  132.5149  156.0861 C   0  0  0  0  0  0  0  0  0  0  0  0
  129.9315  132.8684  154.8071 C   0  0  0  0  0  0  0  0  0  0  0  0
  130.2008  132.0246  153.7450 C   0  0  0  0  0  0  0  0  0  0  0  0
  130.8574  130.8261  153.9587 C   0  0  0  0  0  0  0  0  0  0  0  0
  131.2468  130.4682  155.2341 C   0  0  0  0  0  0  0  0  0  0  0  0
  130.4511  132.9242  159.4204 C   0  0  0  0  0  0  0  0  0  0  0  0
  131.6220  133.6182  159.0928 N   0  0  0  0  0  0  0  0  0  0  0  0
  132.1379  134.5583  159.9691 C   0  0  0  0  0  0  0  0  0  0  0  0
  132.0154  134.5293  161.3248 N   0  0  0  0  0  0  0  0  0  0  0  0
  131.5552  133.8526  161.8454 H   0  0  0  0  0  0  0  0  0  0  0  0
  132.6628  135.6341  161.8192 C   0  0  0  0  0  0  0  0  0  0  0  0
  133.1678  136.3055  160.7514 C   0  0  0  0  0  0  0  0  0  0  0  0
  133.9493  137.5582  160.8015 C   0  0  0  0  0  0  0  0  0  0  0  0
  133.8572  138.3846  159.7870 C   0  0  0  0  0  0  0  0  0  0  0  0
  134.5998  139.6859  159.6987 C   0  0  0  0  0  0  0  0  0  0  0  0
  135.1080  140.0971  161.0821 C   0  0  0  0  0  0  0  0  0  0  0  0
  135.8332  138.9003  161.7096 C   0  0  0  0  0  0  0  0  0  0  0  0
  134.7976  137.8135  162.0132 C   0  0  0  0  0  0  0  0  0  0  0  0
  132.8241  135.6220  159.6298 N   0  0  0  0  0  0  0  0  0  0  0  0
  133.0534  135.8778  158.7226 H   0  0  0  0  0  0  0  0  0  0  0  0
  129.4854  133.5263  160.2124 C   0  0  0  0  0  0  0  0  0  0  0  0
  127.4847  134.3456  161.6628 H   0  0  0  0  0  0  0  0  0  0  0  0
  126.5389  132.9608  161.5604 H   0  0  0  0  0  0  0  0  0  0  0  0
  127.2276  131.0081  160.3173 H   0  0  0  0  0  0  0  0  0  0  0  0
  128.9382  129.9359  158.9109 H   0  0  0  0  0  0  0  0  0  0  0  0
  130.0992  133.1724  156.9156 H   0  0  0  0  0  0  0  0  0  0  0  0
  129.4183  133.8033  154.6366 H   0  0  0  0  0  0  0  0  0  0  0  0
  129.8975  132.3018  152.7462 H   0  0  0  0  0  0  0  0  0  0  0  0
  131.0661  130.1696  153.1269 H   0  0  0  0  0  0  0  0  0  0  0  0
  131.7590  129.5322  155.4003 H   0  0  0  0  0  0  0  0  0  0  0  0
  132.0721  133.4406  158.2521 H   0  0  0  0  0  0  0  0  0  0  0  0
  132.7560  135.9141  162.8581 H   0  0  0  0  0  0  0  0  0  0  0  0
  133.2092  138.1124  158.9669 H   0  0  0  0  0  0  0  0  0  0  0  0
  135.4462  139.5736  159.0214 H   0  0  0  0  0  0  0  0  0  0  0  0
  133.9324  140.4575  159.3148 H   0  0  0  0  0  0  0  0  0  0  0  0
  135.7994  140.9342  160.9844 H   0  0  0  0  0  0  0  0  0  0  0  0
  134.2657  140.3859  161.7108 H   0  0  0  0  0  0  0  0  0  0  0  0
  136.5778  138.5166  161.0124 H   0  0  0  0  0  0  0  0  0  0  0  0
  136.3191  139.2104  162.6349 H   0  0  0  0  0  0  0  0  0  0  0  0
  134.1617  138.1358  162.8378 H   0  0  0  0  0  0  0  0  0  0  0  0
  135.3123  136.8948  162.2941 H   0  0  0  0  0  0  0  0  0  0  0  0
  129.6358  134.5313  160.5781 H   0  0  0  0  0  0  0  0  0  0  0  0
  1  2  1  0
  1 29  1  0
  1 30  1  0
  2 28  2  0
  2  3  1  0
  3  4  2  0
  3 31  1  0
  4  5  1  0
  4 32  1  0
  5  6  1  0
  5 13  2  0
  6  7  1  0
  7 12  1  0
  7  8  2  0
  8  9  1  0
  8 33  1  0
  9 10  2  0
  9 34  1  0
 10 11  1  0
 10 35  1  0
 11 12  2  0
 11 36  1  0
 12 37  1  0
 13 14  1  0
 13 28  1  0
 14 38  1  0
 15 14  1  0
 15 26  2  0
 15 16  1  0
 16 17  1  0
 16 18  1  0
 18 19  2  0
 18 39  1  0
 19 20  1  0
 19 26  1  0
 20 25  1  0
 20 21  2  0
 21 22  1  0
 21 40  1  0
 22 23  1  0
 22 41  1  0
 22 42  1  0
 23 24  1  0
 23 43  1  0
 23 44  1  0
 24 25  1  0
 24 45  1  0
 24 46  1  0
 25 47  1  0
 25 48  1  0
 26 27  1  0
 28 49  1  0
M  CHG  1  26   1
M  END
>  <DOCK_score>  (1) 
-57.607224

>  <SMILES>  (1) 
Nc1ccc(Sc2ccccc2)c(Nc2[nH]cc(C3=CCCCC3)[nH+]2)c1

$$$$
