O=C1CC[C@H](NC(NC2CC2)=[NH+][C@@H]2COc3ccc(C(=O)C4=COCCC4)cc3C2)CN1
     RDKit          3D

 63 67  0  0  1  0  0  0  0  0999 V2000
  125.2934  136.3314  164.1738 O   0  0  0  0  0  0  0  0  0  0  0  0
  126.3852  136.0300  163.7400 C   0  0  0  0  0  0  0  0  0  0  0  0
  127.2842  135.1888  164.5997 C   0  0  0  0  0  0  0  0  0  0  0  0
  128.7256  135.2785  164.0945 C   0  0  0  0  0  0  0  0  0  0  0  0
  128.7246  135.0443  162.5789 C   0  0  2  0  0  0  0  0  0  0  0  0
  128.1974  134.1175  162.3526 H   0  0  0  0  0  0  0  0  0  0  0  0
  130.1044  134.9559  162.0943 N   0  0  0  0  0  0  0  0  0  0  0  0
  130.3514  134.7471  160.7581 C   0  0  0  0  0  0  0  0  0  0  0  0
  129.4549  134.0358  159.9963 N   0  0  0  0  0  0  0  0  0  0  0  0
  129.7181  133.8132  158.5724 C   0  0  0  0  0  0  0  0  0  0  0  0
  129.3707  134.9458  157.6042 C   0  0  0  0  0  0  0  0  0  0  0  0
  128.5100  133.6814  157.6428 C   0  0  0  0  0  0  0  0  0  0  0  0
  131.4357  135.2233  160.2136 N   0  0  0  0  0  0  0  0  0  0  0  0
  131.6101  135.0760  159.2709 H   0  0  0  0  0  0  0  0  0  0  0  0
  132.3910  135.9812  161.0255 C   0  0  2  0  0  0  0  0  0  0  0  0
  131.8635  136.4962  161.8284 H   0  0  0  0  0  0  0  0  0  0  0  0
  133.1206  137.0042  160.1455 C   0  0  0  0  0  0  0  0  0  0  0  0
  133.9659  137.7961  160.9809 O   0  0  0  0  0  0  0  0  0  0  0  0
  134.7822  137.1507  161.8521 C   0  0  0  0  0  0  0  0  0  0  0  0
  135.8506  137.8560  162.4051 C   0  0  0  0  0  0  0  0  0  0  0  0
  136.6981  137.2466  163.3003 C   0  0  0  0  0  0  0  0  0  0  0  0
  136.4880  135.9122  163.6581 C   0  0  0  0  0  0  0  0  0  0  0  0
  137.3932  135.2502  164.6202 C   0  0  0  0  0  0  0  0  0  0  0  0
  137.5915  134.0510  164.5436 O   0  0  0  0  0  0  0  0  0  0  0  0
  138.0303  136.0105  165.6317 C   0  0  0  0  0  0  0  0  0  0  0  0
  139.3664  136.0454  165.6662 C   0  0  0  0  0  0  0  0  0  0  0  0
  140.0573  136.7311  166.5916 O   0  0  0  0  0  0  0  0  0  0  0  0
  139.3405  137.7416  167.3517 C   0  0  0  0  0  0  0  0  0  0  0  0
  138.0235  137.1279  167.8462 C   0  0  0  0  0  0  0  0  0  0  0  0
  137.1789  136.7538  166.6242 C   0  0  0  0  0  0  0  0  0  0  0  0
  135.4226  135.2061  163.0979 C   0  0  0  0  0  0  0  0  0  0  0  0
  134.5730  135.8253  162.2026 C   0  0  0  0  0  0  0  0  0  0  0  0
  133.4324  135.0296  161.6197 C   0  0  0  0  0  0  0  0  0  0  0  0
  128.0162  136.2169  161.8994 C   0  0  0  0  0  0  0  0  0  0  0  0
  126.7228  136.4631  162.5247 N   0  0  0  0  0  0  0  0  0  0  0  0
  127.2378  135.5447  165.6288 H   0  0  0  0  0  0  0  0  0  0  0  0
  126.9549  134.1505  164.5605 H   0  0  0  0  0  0  0  0  0  0  0  0
  129.3360  134.5188  164.5828 H   0  0  0  0  0  0  0  0  0  0  0  0
  129.1270  136.2682  164.3125 H   0  0  0  0  0  0  0  0  0  0  0  0
  130.8434  135.0448  162.7161 H   0  0  0  0  0  0  0  0  0  0  0  0
  128.6481  133.6813  160.4016 H   0  0  0  0  0  0  0  0  0  0  0  0
  130.5960  133.2082  158.3456 H   0  0  0  0  0  0  0  0  0  0  0  0
  128.9464  135.8566  158.0266 H   0  0  0  0  0  0  0  0  0  0  0  0
  130.0202  135.0862  156.7402 H   0  0  0  0  0  0  0  0  0  0  0  0
  128.5932  132.9901  156.8042 H   0  0  0  0  0  0  0  0  0  0  0  0
  127.5194  133.7600  158.0907 H   0  0  0  0  0  0  0  0  0  0  0  0
  133.7233  136.4842  159.4008 H   0  0  0  0  0  0  0  0  0  0  0  0
  132.3930  137.6444  159.6467 H   0  0  0  0  0  0  0  0  0  0  0  0
  136.0135  138.8872  162.1284 H   0  0  0  0  0  0  0  0  0  0  0  0
  137.5235  137.7979  163.7260 H   0  0  0  0  0  0  0  0  0  0  0  0
  139.9155  135.4967  164.9154 H   0  0  0  0  0  0  0  0  0  0  0  0
  139.9424  138.0559  168.2043 H   0  0  0  0  0  0  0  0  0  0  0  0
  139.1299  138.6003  166.7142 H   0  0  0  0  0  0  0  0  0  0  0  0
  138.2325  136.2350  168.4353 H   0  0  0  0  0  0  0  0  0  0  0  0
  137.4865  137.8537  168.4569 H   0  0  0  0  0  0  0  0  0  0  0  0
  136.7889  137.6603  166.1611 H   0  0  0  0  0  0  0  0  0  0  0  0
  136.3488  136.1204  166.9370 H   0  0  0  0  0  0  0  0  0  0  0  0
  135.2596  134.1734  163.3686 H   0  0  0  0  0  0  0  0  0  0  0  0
  133.8114  134.3723  160.8370 H   0  0  0  0  0  0  0  0  0  0  0  0
  132.9698  134.4305  162.4041 H   0  0  0  0  0  0  0  0  0  0  0  0
  128.6344  137.1104  161.9862 H   0  0  0  0  0  0  0  0  0  0  0  0
  127.8683  135.9859  160.8445 H   0  0  0  0  0  0  0  0  0  0  0  0
  126.0666  136.9744  162.0257 H   0  0  0  0  0  0  0  0  0  0  0  0
  1  2  2  0
  2 35  1  0
  2  3  1  0
  3  4  1  0
  3 36  1  0
  3 37  1  0
  4  5  1  0
  4 38  1  0
  4 39  1  0
  5  6  1  1
  5  7  1  0
  5 34  1  0
  7 40  1  0
  8  7  1  0
  8  9  1  0
  8 13  2  0
  9 10  1  0
  9 41  1  0
 10 12  1  0
 10 11  1  0
 10 42  1  0
 11 12  1  0
 11 43  1  0
 11 44  1  0
 12 45  1  0
 12 46  1  0
 13 14  1  0
 13 15  1  0
 15 16  1  1
 15 33  1  0
 15 17  1  0
 17 18  1  0
 17 47  1  0
 17 48  1  0
 18 19  1  0
 19 32  2  0
 19 20  1  0
 20 21  2  0
 20 49  1  0
 21 22  1  0
 21 50  1  0
 22 23  1  0
 22 31  2  0
 23 24  2  0
 23 25  1  0
 25 30  1  0
 25 26  2  0
 26 27  1  0
 26 51  1  0
 27 28  1  0
 28 29  1  0
 28 52  1  0
 28 53  1  0
 29 30  1  0
 29 54  1  0
 29 55  1  0
 30 56  1  0
 30 57  1  0
 31 32  1  0
 31 58  1  0
 32 33  1  0
 33 59  1  0
 33 60  1  0
 34 35  1  0
 34 61  1  0
 34 62  1  0
 35 63  1  0
M  CHG  1  13   1
M  END
>  <DOCK_score>  (1) 
-42.202961

>  <SMILES>  (1) 
O=C1CC[C@H](NC(NC2CC2)=[NH+][C@@H]2COc3ccc(C(=O)C4=COCCC4)cc3C2)CN1

$$$$
