C[C@@H](CO)[NH+]=C(N[C@H]1CCC(=O)NC1)N[C@H]1[C@@H]2CC=CC[C@@H]21
     RDKit          3D

 49 51  0  0  1  0  0  0  0  0999 V2000
  133.0820  134.9330  161.6864 C   0  0  0  0  0  0  0  0  0  0  0  0
  131.8382  135.6591  161.1698 C   0  0  1  0  0  0  0  0  0  0  0  0
  131.0475  135.6025  161.9180 H   0  0  0  0  0  0  0  0  0  0  0  0
  132.1797  137.1257  160.8985 C   0  0  0  0  0  0  0  0  0  0  0  0
  131.0180  137.8038  160.4161 O   0  0  0  0  0  0  0  0  0  0  0  0
  131.3833  135.0263  159.9294 N   0  0  0  0  0  0  0  0  0  0  0  0
  132.0239  134.5993  159.3394 H   0  0  0  0  0  0  0  0  0  0  0  0
  130.1174  135.0367  159.6186 C   0  0  0  0  0  0  0  0  0  0  0  0
  129.2094  135.6418  160.4548 N   0  0  0  0  0  0  0  0  0  0  0  0
  127.8320  135.1472  160.5214 C   0  0  1  0  0  0  0  0  0  0  0  0
  127.3675  135.2183  159.5379 H   0  0  0  0  0  0  0  0  0  0  0  0
  127.8319  133.6857  160.9858 C   0  0  0  0  0  0  0  0  0  0  0  0
  126.4057  133.1417  160.8711 C   0  0  0  0  0  0  0  0  0  0  0  0
  125.4407  134.0991  161.5092 C   0  0  0  0  0  0  0  0  0  0  0  0
  124.3349  133.6929  161.7972 O   0  0  0  0  0  0  0  0  0  0  0  0
  125.7346  135.3724  161.7757 N   0  0  0  0  0  0  0  0  0  0  0  0
  127.0356  135.9803  161.5264 C   0  0  0  0  0  0  0  0  0  0  0  0
  129.6904  134.4427  158.4545 N   0  0  0  0  0  0  0  0  0  0  0  0
  130.4175  133.2940  157.9090 C   0  0  1  0  0  0  0  0  0  0  0  0
  131.4858  133.2692  158.1235 H   0  0  0  0  0  0  0  0  0  0  0  0
  129.6793  131.9551  157.8499 C   0  0  2  0  0  0  0  0  0  0  0  0
  128.6550  131.9148  158.2206 H   0  0  0  0  0  0  0  0  0  0  0  0
  130.5230  130.6827  158.0277 C   0  0  0  0  0  0  0  0  0  0  0  0
  130.6032  129.9711  156.6994 C   0  0  0  0  0  0  0  0  0  0  0  0
  130.8388  130.6427  155.5998 C   0  0  0  0  0  0  0  0  0  0  0  0
  131.0343  132.1384  155.6444 C   0  0  0  0  0  0  0  0  0  0  0  0
  129.9566  132.7445  156.5574 C   0  0  2  0  0  0  0  0  0  0  0  0
  129.1183  133.2337  156.0613 H   0  0  0  0  0  0  0  0  0  0  0  0
  133.8727  134.9897  160.9382 H   0  0  0  0  0  0  0  0  0  0  0  0
  133.4206  135.4040  162.6093 H   0  0  0  0  0  0  0  0  0  0  0  0
  132.8388  133.8882  161.8796 H   0  0  0  0  0  0  0  0  0  0  0  0
  132.5182  137.5966  161.8214 H   0  0  0  0  0  0  0  0  0  0  0  0
  132.9703  137.1823  160.1503 H   0  0  0  0  0  0  0  0  0  0  0  0
  130.6611  137.4374  159.5955 H   0  0  0  0  0  0  0  0  0  0  0  0
  129.4806  136.3962  161.0010 H   0  0  0  0  0  0  0  0  0  0  0  0
  128.1636  133.6302  162.0226 H   0  0  0  0  0  0  0  0  0  0  0  0
  128.5001  133.0996  160.3549 H   0  0  0  0  0  0  0  0  0  0  0  0
  126.3447  132.1768  161.3745 H   0  0  0  0  0  0  0  0  0  0  0  0
  126.1504  133.0178  159.8187 H   0  0  0  0  0  0  0  0  0  0  0  0
  125.0389  135.9286  162.1599 H   0  0  0  0  0  0  0  0  0  0  0  0
  126.8933  136.9852  161.1288 H   0  0  0  0  0  0  0  0  0  0  0  0
  127.5899  136.0418  162.4629 H   0  0  0  0  0  0  0  0  0  0  0  0
  128.9076  134.7843  157.9946 H   0  0  0  0  0  0  0  0  0  0  0  0
  131.5256  130.9518  158.3602 H   0  0  0  0  0  0  0  0  0  0  0  0
  130.0543  130.0330  158.7668 H   0  0  0  0  0  0  0  0  0  0  0  0
  130.4653  128.9008  156.6552 H   0  0  0  0  0  0  0  0  0  0  0  0
  130.8936  130.1225  154.6549 H   0  0  0  0  0  0  0  0  0  0  0  0
  130.9373  132.5504  154.6400 H   0  0  0  0  0  0  0  0  0  0  0  0
  132.0227  132.3669  156.0432 H   0  0  0  0  0  0  0  0  0  0  0  0
  1  2  1  0
  1 29  1  0
  1 30  1  0
  1 31  1  0
  2  3  1  1
  2  4  1  0
  2  6  1  0
  4  5  1  0
  4 32  1  0
  4 33  1  0
  5 34  1  0
  6  7  1  0
  8  6  2  0
  8  9  1  0
  8 18  1  0
  9 10  1  0
  9 35  1  0
 10 11  1  6
 10 17  1  0
 10 12  1  0
 12 13  1  0
 12 36  1  0
 12 37  1  0
 13 14  1  0
 13 38  1  0
 13 39  1  0
 14 15  2  0
 14 16  1  0
 16 17  1  0
 16 40  1  0
 17 41  1  0
 17 42  1  0
 18 19  1  0
 18 43  1  0
 19 20  1  6
 19 27  1  0
 19 21  1  0
 21 22  1  1
 21 27  1  0
 21 23  1  0
 23 24  1  0
 23 44  1  0
 23 45  1  0
 24 25  2  0
 24 46  1  0
 25 26  1  0
 25 47  1  0
 26 27  1  0
 26 48  1  0
 26 49  1  0
 27 28  1  6
M  CHG  1   6   1
M  END
>  <DOCK_score>  (1) 
-43.984959

>  <SMILES>  (1) 
C[C@@H](CO)[NH+]=C(N[C@H]1CCC(=O)NC1)N[C@H]1[C@@H]2CC=CC[C@@H]21

$$$$
