Cc1n[nH]cc1C[NH2+]Cc1c[nH]nc1-c1ccc(NCC2=CCCC2)o1
     RDKit          3D

 51 54  0  0  0  0  0  0  0  0999 V2000
  135.3626  139.4749  161.8217 C   0  0  0  0  0  0  0  0  0  0  0  0
  134.8433  139.5293  160.4081 C   0  0  0  0  0  0  0  0  0  0  0  0
  135.3712  140.2089  159.4224 N   0  0  0  0  0  0  0  0  0  0  0  0
  134.5927  139.9957  158.2775 N   0  0  0  0  0  0  0  0  0  0  0  0
  134.7522  140.3769  157.3999 H   0  0  0  0  0  0  0  0  0  0  0  0
  133.5851  139.1617  158.6096 C   0  0  0  0  0  0  0  0  0  0  0  0
  133.7135  138.8624  159.9231 C   0  0  0  0  0  0  0  0  0  0  0  0
  132.8037  137.9640  160.7208 C   0  0  0  0  0  0  0  0  0  0  0  0
  132.5161  136.7480  159.9483 N   0  0  0  0  0  0  0  0  0  0  0  0
  133.3786  136.2632  159.7506 H   0  0  0  0  0  0  0  0  0  0  0  0
  132.0650  136.9993  159.0813 H   0  0  0  0  0  0  0  0  0  0  0  0
  131.6291  135.8725  160.7258 C   0  0  0  0  0  0  0  0  0  0  0  0
  131.3339  134.6250  159.9333 C   0  0  0  0  0  0  0  0  0  0  0  0
  132.2331  133.8874  159.2471 C   0  0  0  0  0  0  0  0  0  0  0  0
  131.5777  132.8532  158.6769 N   0  0  0  0  0  0  0  0  0  0  0  0
  131.9764  132.1614  158.1261 H   0  0  0  0  0  0  0  0  0  0  0  0
  130.2218  132.9560  159.0130 N   0  0  0  0  0  0  0  0  0  0  0  0
  130.0680  134.0236  159.7714 C   0  0  0  0  0  0  0  0  0  0  0  0
  128.7961  134.5043  160.3494 C   0  0  0  0  0  0  0  0  0  0  0  0
  127.5797  133.9180  160.1952 C   0  0  0  0  0  0  0  0  0  0  0  0
  126.6544  134.7038  160.9104 C   0  0  0  0  0  0  0  0  0  0  0  0
  127.3498  135.7281  161.4642 C   0  0  0  0  0  0  0  0  0  0  0  0
  126.8149  136.7393  162.2541 N   0  0  0  0  0  0  0  0  0  0  0  0
  127.6859  137.7885  162.7897 C   0  0  0  0  0  0  0  0  0  0  0  0
  126.8656  138.7542  163.6057 C   0  0  0  0  0  0  0  0  0  0  0  0
  126.7550  140.0293  163.3491 C   0  0  0  0  0  0  0  0  0  0  0  0
  125.8583  140.7111  164.3561 C   0  0  0  0  0  0  0  0  0  0  0  0
  125.0975  139.5581  165.0512 C   0  0  0  0  0  0  0  0  0  0  0  0
  126.0687  138.3749  164.8321 C   0  0  0  0  0  0  0  0  0  0  0  0
  128.6438  135.5978  161.1258 O   0  0  0  0  0  0  0  0  0  0  0  0
  136.0710  138.6521  161.9171 H   0  0  0  0  0  0  0  0  0  0  0  0
  135.8616  140.4138  162.0618 H   0  0  0  0  0  0  0  0  0  0  0  0
  134.5307  139.3195  162.5086 H   0  0  0  0  0  0  0  0  0  0  0  0
  132.8131  138.8002  157.9467 H   0  0  0  0  0  0  0  0  0  0  0  0
  131.8720  138.4877  160.9344 H   0  0  0  0  0  0  0  0  0  0  0  0
  133.2910  137.6926  161.6573 H   0  0  0  0  0  0  0  0  0  0  0  0
  130.6974  136.3961  160.9393 H   0  0  0  0  0  0  0  0  0  0  0  0
  132.1163  135.6012  161.6624 H   0  0  0  0  0  0  0  0  0  0  0  0
  133.2914  134.0882  159.1696 H   0  0  0  0  0  0  0  0  0  0  0  0
  127.3638  133.0216  159.6329 H   0  0  0  0  0  0  0  0  0  0  0  0
  125.5932  134.5243  161.0007 H   0  0  0  0  0  0  0  0  0  0  0  0
  125.8651  136.7502  162.4505 H   0  0  0  0  0  0  0  0  0  0  0  0
  128.4513  137.3379  163.4215 H   0  0  0  0  0  0  0  0  0  0  0  0
  128.1617  138.3213  161.9664 H   0  0  0  0  0  0  0  0  0  0  0  0
  127.2394  140.5305  162.5241 H   0  0  0  0  0  0  0  0  0  0  0  0
  125.1587  141.3794  163.8540 H   0  0  0  0  0  0  0  0  0  0  0  0
  126.4557  141.2633  165.0815 H   0  0  0  0  0  0  0  0  0  0  0  0
  124.1393  139.3728  164.5656 H   0  0  0  0  0  0  0  0  0  0  0  0
  124.9630  139.7625  166.1133 H   0  0  0  0  0  0  0  0  0  0  0  0
  125.5121  137.4549  164.6537 H   0  0  0  0  0  0  0  0  0  0  0  0
  126.7279  138.2583  165.6923 H   0  0  0  0  0  0  0  0  0  0  0  0
  1  2  1  0
  1 31  1  0
  1 32  1  0
  1 33  1  0
  2  7  1  0
  2  3  2  0
  3  4  1  0
  4  5  1  0
  4  6  1  0
  6  7  2  0
  6 34  1  0
  7  8  1  0
  8  9  1  0
  8 35  1  0
  8 36  1  0
  9 10  1  0
  9 11  1  0
  9 12  1  0
 12 13  1  0
 12 37  1  0
 12 38  1  0
 13 18  1  0
 13 14  2  0
 14 15  1  0
 14 39  1  0
 15 16  1  0
 15 17  1  0
 17 18  2  0
 18 19  1  0
 19 30  1  0
 19 20  2  0
 20 21  1  0
 20 40  1  0
 21 22  2  0
 21 41  1  0
 22 23  1  0
 22 30  1  0
 23 24  1  0
 23 42  1  0
 24 25  1  0
 24 43  1  0
 24 44  1  0
 25 29  1  0
 25 26  2  0
 26 27  1  0
 26 45  1  0
 27 28  1  0
 27 46  1  0
 27 47  1  0
 28 29  1  0
 28 48  1  0
 28 49  1  0
 29 50  1  0
 29 51  1  0
M  CHG  1   9   1
M  END
>  <DOCK_score>  (1) 
-48.957432

>  <SMILES>  (1) 
Cc1n[nH]cc1C[NH2+]Cc1c[nH]nc1-c1ccc(NCC2=CCCC2)o1

$$$$
