CCc1ccc(-c2c[nH]c(N[C@H](CCc3cnn(C)c3)c3ccc(CC)cc3)[nH+]2)cc1
     RDKit          3D

 63 66  0  0  1  0  0  0  0  0999 V2000
  130.3308  128.3793  151.5443 C   0  0  0  0  0  0  0  0  0  0  0  0
  131.4508  129.3705  151.8664 C   0  0  0  0  0  0  0  0  0  0  0  0
  131.0700  130.1828  153.0773 C   0  0  0  0  0  0  0  0  0  0  0  0
  131.4146  129.7385  154.3407 C   0  0  0  0  0  0  0  0  0  0  0  0
  131.0736  130.4809  155.4531 C   0  0  0  0  0  0  0  0  0  0  0  0
  130.3706  131.6748  155.3020 C   0  0  0  0  0  0  0  0  0  0  0  0
  129.9964  132.4744  156.4940 C   0  0  0  0  0  0  0  0  0  0  0  0
  129.2195  132.0561  157.5239 C   0  0  0  0  0  0  0  0  0  0  0  0
  129.1292  133.1047  158.4066 N   0  0  0  0  0  0  0  0  0  0  0  0
  128.6389  133.1105  159.2435 H   0  0  0  0  0  0  0  0  0  0  0  0
  129.8543  134.1340  157.8900 C   0  0  0  0  0  0  0  0  0  0  0  0
  130.0189  135.3778  158.4751 N   0  0  0  0  0  0  0  0  0  0  0  0
  129.3824  135.6722  159.7614 C   0  0  2  0  0  0  0  0  0  0  0  0
  129.4561  134.8002  160.4112 H   0  0  0  0  0  0  0  0  0  0  0  0
  127.9090  136.0163  159.5345 C   0  0  0  0  0  0  0  0  0  0  0  0
  127.1358  135.8360  160.8425 C   0  0  0  0  0  0  0  0  0  0  0  0
  127.2527  134.4055  161.3019 C   0  0  0  0  0  0  0  0  0  0  0  0
  128.2469  133.8889  162.1392 C   0  0  0  0  0  0  0  0  0  0  0  0
  128.0117  132.6137  162.3145 N   0  0  0  0  0  0  0  0  0  0  0  0
  126.8644  132.2762  161.5850 N   0  0  0  0  0  0  0  0  0  0  0  0
  126.2570  130.9456  161.5011 C   0  0  0  0  0  0  0  0  0  0  0  0
  126.4178  133.3928  160.9729 C   0  0  0  0  0  0  0  0  0  0  0  0
  130.0772  136.8419  160.4096 C   0  0  0  0  0  0  0  0  0  0  0  0
  130.1149  138.0656  159.7678 C   0  0  0  0  0  0  0  0  0  0  0  0
  130.7489  139.1395  160.3642 C   0  0  0  0  0  0  0  0  0  0  0  0
  131.3526  138.9875  161.5984 C   0  0  0  0  0  0  0  0  0  0  0  0
  132.0479  140.1570  162.2465 C   0  0  0  0  0  0  0  0  0  0  0  0
  133.5159  140.1798  161.8162 C   0  0  0  0  0  0  0  0  0  0  0  0
  131.3190  137.7624  162.2381 C   0  0  0  0  0  0  0  0  0  0  0  0
  130.6817  136.6895  161.6434 C   0  0  0  0  0  0  0  0  0  0  0  0
  130.3757  133.7516  156.7499 N   0  0  0  0  0  0  0  0  0  0  0  0
  130.9406  134.2957  156.1791 H   0  0  0  0  0  0  0  0  0  0  0  0
  130.0210  132.1151  154.0266 C   0  0  0  0  0  0  0  0  0  0  0  0
  130.3722  131.3674  152.9211 C   0  0  0  0  0  0  0  0  0  0  0  0
  130.6061  127.7920  150.6684 H   0  0  0  0  0  0  0  0  0  0  0  0
  130.1792  127.7143  152.3946 H   0  0  0  0  0  0  0  0  0  0  0  0
  129.4094  128.9250  151.3410 H   0  0  0  0  0  0  0  0  0  0  0  0
  132.3719  128.8254  152.0691 H   0  0  0  0  0  0  0  0  0  0  0  0
  131.6021  130.0361  151.0156 H   0  0  0  0  0  0  0  0  0  0  0  0
  131.9552  128.8108  154.4569 H   0  0  0  0  0  0  0  0  0  0  0  0
  131.3472  130.1353  156.4390 H   0  0  0  0  0  0  0  0  0  0  0  0
  128.7595  131.0847  157.6295 H   0  0  0  0  0  0  0  0  0  0  0  0
  130.5558  136.0544  158.0335 H   0  0  0  0  0  0  0  0  0  0  0  0
  127.8245  137.0509  159.2021 H   0  0  0  0  0  0  0  0  0  0  0  0
  127.4946  135.3552  158.7733 H   0  0  0  0  0  0  0  0  0  0  0  0
  127.5503  136.4971  161.6035 H   0  0  0  0  0  0  0  0  0  0  0  0
  126.0862  136.0811  160.6807 H   0  0  0  0  0  0  0  0  0  0  0  0
  129.0655  134.4467  162.5693 H   0  0  0  0  0  0  0  0  0  0  0  0
  126.6900  130.4008  160.6623 H   0  0  0  0  0  0  0  0  0  0  0  0
  126.4470  130.4005  162.4256 H   0  0  0  0  0  0  0  0  0  0  0  0
  125.1817  131.0458  161.3529 H   0  0  0  0  0  0  0  0  0  0  0  0
  125.5498  133.4652  160.3343 H   0  0  0  0  0  0  0  0  0  0  0  0
  129.6466  138.1836  158.8019 H   0  0  0  0  0  0  0  0  0  0  0  0
  130.7756  140.0966  159.8643 H   0  0  0  0  0  0  0  0  0  0  0  0
  131.5643  141.0838  161.9377 H   0  0  0  0  0  0  0  0  0  0  0  0
  131.9884  140.0599  163.3306 H   0  0  0  0  0  0  0  0  0  0  0  0
  134.0188  141.0258  162.2851 H   0  0  0  0  0  0  0  0  0  0  0  0
  133.9996  139.2530  162.1251 H   0  0  0  0  0  0  0  0  0  0  0  0
  133.5755  140.2770  160.7322 H   0  0  0  0  0  0  0  0  0  0  0  0
  131.7910  137.6435  163.2022 H   0  0  0  0  0  0  0  0  0  0  0  0
  130.6557  135.7324  162.1430 H   0  0  0  0  0  0  0  0  0  0  0  0
  129.4760  133.0394  153.9037 H   0  0  0  0  0  0  0  0  0  0  0  0
  130.1015  131.7074  151.9323 H   0  0  0  0  0  0  0  0  0  0  0  0
  1  2  1  0
  1 35  1  0
  1 36  1  0
  1 37  1  0
  2  3  1  0
  2 38  1  0
  2 39  1  0
  3 34  2  0
  3  4  1  0
  4  5  2  0
  4 40  1  0
  5  6  1  0
  5 41  1  0
  6  7  1  0
  6 33  2  0
  7 31  1  0
  7  8  2  0
  8  9  1  0
  8 42  1  0
  9 10  1  0
  9 11  1  0
 11 12  1  0
 11 31  2  0
 12 13  1  0
 12 43  1  0
 13 14  1  1
 13 15  1  0
 13 23  1  0
 15 16  1  0
 15 44  1  0
 15 45  1  0
 16 17  1  0
 16 46  1  0
 16 47  1  0
 17 22  2  0
 17 18  1  0
 18 19  2  0
 18 48  1  0
 19 20  1  0
 20 21  1  0
 20 22  1  0
 21 49  1  0
 21 50  1  0
 21 51  1  0
 22 52  1  0
 23 30  1  0
 23 24  2  0
 24 25  1  0
 24 53  1  0
 25 26  2  0
 25 54  1  0
 26 27  1  0
 26 29  1  0
 27 28  1  0
 27 55  1  0
 27 56  1  0
 28 57  1  0
 28 58  1  0
 28 59  1  0
 29 30  2  0
 29 60  1  0
 30 61  1  0
 31 32  1  0
 33 34  1  0
 33 62  1  0
 34 63  1  0
M  CHG  1  31   1
M  END
>  <DOCK_score>  (1) 
-58.585785

>  <SMILES>  (1) 
CCc1ccc(-c2c[nH]c(N[C@H](CCc3cnn(C)c3)c3ccc(CC)cc3)[nH+]2)cc1

$$$$
