CN(O)c1cc(CNc2[nH]cc(CCC(=O)Nc3ccccc3)[nH+]2)c2ncccc2c1
     RDKit          3D

 56 59  0  0  1  0  0  0  0  0999 V2000
  134.0007  140.8777  161.4184 C   0  0  0  0  0  0  0  0  0  0  0  0
  133.4577  139.6955  160.7449 N   0  0  0  0  0  0  0  0  0  0  0  0
  132.6250  139.8474  159.6097 O   0  0  0  0  0  0  0  0  0  0  0  0
  133.7615  138.4189  161.2222 C   0  0  0  0  0  0  0  0  0  0  0  0
  132.8406  137.3775  161.0537 C   0  0  0  0  0  0  0  0  0  0  0  0
  133.1099  136.1251  161.5071 C   0  0  0  0  0  0  0  0  0  0  0  0
  132.1027  135.0210  161.3138 C   0  0  0  0  0  0  0  0  0  0  0  0
  131.5850  135.0664  159.9441 N   0  0  0  0  0  0  0  0  0  0  0  0
  130.2954  134.6378  159.6766 C   0  0  0  0  0  0  0  0  0  0  0  0
  129.6983  134.6262  158.4544 N   0  0  0  0  0  0  0  0  0  0  0  0
  130.0938  134.9132  157.6165 H   0  0  0  0  0  0  0  0  0  0  0  0
  128.4250  134.1345  158.6329 C   0  0  0  0  0  0  0  0  0  0  0  0
  128.2906  133.8610  159.9417 C   0  0  0  0  0  0  0  0  0  0  0  0
  127.0581  133.3014  160.6042 C   0  0  0  0  0  0  0  0  0  0  0  0
  126.1565  134.4512  161.0580 C   0  0  0  0  0  0  0  0  0  0  0  0
  126.9035  135.3187  162.0380 C   0  0  0  0  0  0  0  0  0  0  0  0
  128.0449  135.0443  162.3434 O   0  0  0  0  0  0  0  0  0  0  0  0
  126.3034  136.3994  162.5751 N   0  0  0  0  0  0  0  0  0  0  0  0
  126.9972  137.2048  163.4851 C   0  0  0  0  0  0  0  0  0  0  0  0
  126.3056  137.8897  164.4758 C   0  0  0  0  0  0  0  0  0  0  0  0
  126.9937  138.6804  165.3752 C   0  0  0  0  0  0  0  0  0  0  0  0
  128.3685  138.7985  165.2837 C   0  0  0  0  0  0  0  0  0  0  0  0
  129.0592  138.1217  164.2954 C   0  0  0  0  0  0  0  0  0  0  0  0
  128.3776  137.3255  163.3959 C   0  0  0  0  0  0  0  0  0  0  0  0
  129.4431  134.1721  160.5587 N   0  0  0  0  0  0  0  0  0  0  0  0
  129.6164  134.0720  161.5079 H   0  0  0  0  0  0  0  0  0  0  0  0
  134.3262  135.8608  162.1622 C   0  0  0  0  0  0  0  0  0  0  0  0
  134.6078  134.6369  162.6208 N   0  0  0  0  0  0  0  0  0  0  0  0
  135.7383  134.3812  163.2328 C   0  0  0  0  0  0  0  0  0  0  0  0
  136.7014  135.3673  163.4367 C   0  0  0  0  0  0  0  0  0  0  0  0
  136.4827  136.6370  162.9836 C   0  0  0  0  0  0  0  0  0  0  0  0
  135.2645  136.9092  162.3316 C   0  0  0  0  0  0  0  0  0  0  0  0
  134.9647  138.1945  161.8546 C   0  0  0  0  0  0  0  0  0  0  0  0
  134.5399  140.5699  162.3143 H   0  0  0  0  0  0  0  0  0  0  0  0
  134.6817  141.3988  160.7454 H   0  0  0  0  0  0  0  0  0  0  0  0
  133.1845  141.5443  161.6968 H   0  0  0  0  0  0  0  0  0  0  0  0
  132.4719  140.7675  159.3544 H   0  0  0  0  0  0  0  0  0  0  0  0
  131.9024  137.5725  160.5554 H   0  0  0  0  0  0  0  0  0  0  0  0
  131.2806  135.1516  162.0174 H   0  0  0  0  0  0  0  0  0  0  0  0
  132.5815  134.0576  161.4895 H   0  0  0  0  0  0  0  0  0  0  0  0
  132.1454  135.3967  159.2245 H   0  0  0  0  0  0  0  0  0  0  0  0
  127.6765  133.9948  157.8669 H   0  0  0  0  0  0  0  0  0  0  0  0
  126.5177  132.6740  159.8954 H   0  0  0  0  0  0  0  0  0  0  0  0
  127.3494  132.7050  161.4689 H   0  0  0  0  0  0  0  0  0  0  0  0
  125.8651  135.0475  160.1933 H   0  0  0  0  0  0  0  0  0  0  0  0
  125.2651  134.0464  161.5372 H   0  0  0  0  0  0  0  0  0  0  0  0
  125.3907  136.6188  162.3308 H   0  0  0  0  0  0  0  0  0  0  0  0
  125.2316  137.8010  164.5453 H   0  0  0  0  0  0  0  0  0  0  0  0
  126.4571  139.2103  166.1482 H   0  0  0  0  0  0  0  0  0  0  0  0
  128.9037  139.4210  165.9855 H   0  0  0  0  0  0  0  0  0  0  0  0
  130.1330  138.2160  164.2265 H   0  0  0  0  0  0  0  0  0  0  0  0
  128.9176  136.7977  162.6237 H   0  0  0  0  0  0  0  0  0  0  0  0
  135.9286  133.3793  163.5883 H   0  0  0  0  0  0  0  0  0  0  0  0
  137.6234  135.1258  163.9446 H   0  0  0  0  0  0  0  0  0  0  0  0
  137.2180  137.4138  163.1324 H   0  0  0  0  0  0  0  0  0  0  0  0
  135.6713  139.0011  161.9823 H   0  0  0  0  0  0  0  0  0  0  0  0
  1  2  1  0
  1 34  1  0
  1 35  1  0
  1 36  1  0
  2  3  1  0
  2  4  1  0
  3 37  1  0
  4 33  2  0
  4  5  1  0
  5  6  2  0
  5 38  1  0
  6  7  1  0
  6 27  1  0
  7  8  1  0
  7 39  1  0
  7 40  1  0
  8 41  1  0
  9  8  1  0
  9 25  2  0
  9 10  1  0
 10 11  1  0
 10 12  1  0
 12 13  2  0
 12 42  1  0
 13 14  1  0
 13 25  1  0
 14 15  1  0
 14 43  1  0
 14 44  1  0
 15 16  1  0
 15 45  1  0
 15 46  1  0
 16 17  2  0
 16 18  1  0
 18 19  1  0
 18 47  1  0
 19 24  1  0
 19 20  2  0
 20 21  1  0
 20 48  1  0
 21 22  2  0
 21 49  1  0
 22 23  1  0
 22 50  1  0
 23 24  2  0
 23 51  1  0
 24 52  1  0
 25 26  1  0
 27 32  2  0
 27 28  1  0
 28 29  2  0
 29 30  1  0
 29 53  1  0
 30 31  2  0
 30 54  1  0
 31 32  1  0
 31 55  1  0
 32 33  1  0
 33 56  1  0
M  CHG  1  25   1
M  END
>  <DOCK_score>  (1) 
-41.140892

>  <SMILES>  (1) 
CN(O)c1cc(CNc2[nH]cc(CCC(=O)Nc3ccccc3)[nH+]2)c2ncccc2c1

$$$$
