Nc1ccc(N[C@H]2C=CCC2)c(C[NH+]=C(NC2CC=CC2)NC2CC=CC2)n1
     RDKit          3D

 59 62  0  0  1  0  0  0  0  0999 V2000
  126.7126  138.1827  162.8235 N   0  0  0  0  0  0  0  0  0  0  0  0
  127.3968  137.4801  161.8340 C   0  0  0  0  0  0  0  0  0  0  0  0
  126.7957  136.3803  161.2310 C   0  0  0  0  0  0  0  0  0  0  0  0
  127.4811  135.6930  160.2462 C   0  0  0  0  0  0  0  0  0  0  0  0
  128.7604  136.1268  159.9016 C   0  0  0  0  0  0  0  0  0  0  0  0
  129.4933  135.4583  158.9131 N   0  0  0  0  0  0  0  0  0  0  0  0
  128.9188  134.2917  158.2384 C   0  0  1  0  0  0  0  0  0  0  0  0
  127.8601  134.4529  158.0349 H   0  0  0  0  0  0  0  0  0  0  0  0
  129.6637  134.0059  156.9552 C   0  0  0  0  0  0  0  0  0  0  0  0
  129.9140  132.7309  156.8310 C   0  0  0  0  0  0  0  0  0  0  0  0
  129.3776  131.9538  158.0107 C   0  0  0  0  0  0  0  0  0  0  0  0
  129.1149  133.0214  159.0981 C   0  0  0  0  0  0  0  0  0  0  0  0
  129.2959  137.2316  160.5455 C   0  0  0  0  0  0  0  0  0  0  0  0
  130.6758  137.7124  160.1768 C   0  0  0  0  0  0  0  0  0  0  0  0
  131.6682  137.0424  161.0208 N   0  0  0  0  0  0  0  0  0  0  0  0
  131.3821  136.4005  161.6893 H   0  0  0  0  0  0  0  0  0  0  0  0
  132.9356  137.3089  160.8734 C   0  0  0  0  0  0  0  0  0  0  0  0
  133.3411  138.2189  159.9259 N   0  0  0  0  0  0  0  0  0  0  0  0
  134.5552  139.0095  160.1421 C   0  0  0  0  0  0  0  0  0  0  0  0
  134.3647  140.0132  161.3030 C   0  0  0  0  0  0  0  0  0  0  0  0
  135.1104  141.2528  160.8645 C   0  0  0  0  0  0  0  0  0  0  0  0
  135.3569  141.2248  159.5831 C   0  0  0  0  0  0  0  0  0  0  0  0
  134.8163  139.9624  158.9525 C   0  0  0  0  0  0  0  0  0  0  0  0
  133.8667  136.6799  161.6655 N   0  0  0  0  0  0  0  0  0  0  0  0
  133.4344  135.7103  162.6751 C   0  0  0  0  0  0  0  0  0  0  0  0
  132.6521  136.4056  163.8134 C   0  0  0  0  0  0  0  0  0  0  0  0
  133.0746  135.6779  165.0692 C   0  0  0  0  0  0  0  0  0  0  0  0
  134.1611  134.9832  164.8672 C   0  0  0  0  0  0  0  0  0  0  0  0
  134.6452  135.1320  163.4436 C   0  0  0  0  0  0  0  0  0  0  0  0
  128.6112  137.8668  161.4781 N   0  0  0  0  0  0  0  0  0  0  0  0
  127.1267  138.9507  163.2473 H   0  0  0  0  0  0  0  0  0  0  0  0
  125.8222  137.9039  163.0885 H   0  0  0  0  0  0  0  0  0  0  0  0
  125.8043  136.0693  161.5258 H   0  0  0  0  0  0  0  0  0  0  0  0
  127.0373  134.8380  159.7580 H   0  0  0  0  0  0  0  0  0  0  0  0
  130.3813  135.7676  158.6751 H   0  0  0  0  0  0  0  0  0  0  0  0
  129.9478  134.7573  156.2333 H   0  0  0  0  0  0  0  0  0  0  0  0
  130.4356  132.2893  155.9947 H   0  0  0  0  0  0  0  0  0  0  0  0
  130.1171  131.2321  158.3579 H   0  0  0  0  0  0  0  0  0  0  0  0
  128.4497  131.4487  157.7424 H   0  0  0  0  0  0  0  0  0  0  0  0
  129.9748  133.1257  159.7597 H   0  0  0  0  0  0  0  0  0  0  0  0
  128.2134  132.7897  159.6650 H   0  0  0  0  0  0  0  0  0  0  0  0
  130.8735  137.4811  159.1301 H   0  0  0  0  0  0  0  0  0  0  0  0
  130.7377  138.7900  160.3287 H   0  0  0  0  0  0  0  0  0  0  0  0
  132.8234  138.3373  159.1143 H   0  0  0  0  0  0  0  0  0  0  0  0
  135.4141  138.3627  160.3211 H   0  0  0  0  0  0  0  0  0  0  0  0
  133.3069  140.2359  161.4426 H   0  0  0  0  0  0  0  0  0  0  0  0
  134.7947  139.6161  162.2227 H   0  0  0  0  0  0  0  0  0  0  0  0
  135.4017  142.0559  161.5252 H   0  0  0  0  0  0  0  0  0  0  0  0
  135.8784  142.0019  159.0441 H   0  0  0  0  0  0  0  0  0  0  0  0
  135.5531  139.5308  158.2749 H   0  0  0  0  0  0  0  0  0  0  0  0
  133.8872  140.1708  158.4219 H   0  0  0  0  0  0  0  0  0  0  0  0
  134.8099  136.8781  161.5558 H   0  0  0  0  0  0  0  0  0  0  0  0
  132.8422  134.9150  162.2222 H   0  0  0  0  0  0  0  0  0  0  0  0
  132.9265  137.4588  163.8745 H   0  0  0  0  0  0  0  0  0  0  0  0
  131.5788  136.3006  163.6558 H   0  0  0  0  0  0  0  0  0  0  0  0
  132.5463  135.7258  166.0098 H   0  0  0  0  0  0  0  0  0  0  0  0
  134.6501  134.3813  165.6190 H   0  0  0  0  0  0  0  0  0  0  0  0
  134.9262  134.1614  163.0346 H   0  0  0  0  0  0  0  0  0  0  0  0
  135.4879  135.8220  163.3992 H   0  0  0  0  0  0  0  0  0  0  0  0
  1  2  1  0
  1 31  1  0
  1 32  1  0
  2 30  2  0
  2  3  1  0
  3  4  2  0
  3 33  1  0
  4  5  1  0
  4 34  1  0
  5  6  1  0
  5 13  2  0
  6  7  1  0
  6 35  1  0
  7  8  1  6
  7 12  1  0
  7  9  1  0
  9 10  2  0
  9 36  1  0
 10 11  1  0
 10 37  1  0
 11 12  1  0
 11 38  1  0
 11 39  1  0
 12 40  1  0
 12 41  1  0
 13 14  1  0
 13 30  1  0
 14 15  1  0
 14 42  1  0
 14 43  1  0
 15 16  1  0
 17 15  2  0
 17 18  1  0
 17 24  1  1
 18 19  1  0
 18 44  1  0
 19 23  1  0
 19 20  1  0
 19 45  1  0
 20 21  1  0
 20 46  1  0
 20 47  1  0
 21 22  2  0
 21 48  1  0
 22 23  1  0
 22 49  1  0
 23 50  1  0
 23 51  1  0
 24 25  1  0
 24 52  1  0
 25 29  1  0
 25 26  1  0
 25 53  1  0
 26 27  1  0
 26 54  1  0
 26 55  1  0
 27 28  2  0
 27 56  1  0
 28 29  1  0
 28 57  1  0
 29 58  1  0
 29 59  1  0
M  CHG  1  15   1
M  END
>  <DOCK_score>  (1) 
-48.531837

>  <SMILES>  (1) 
Nc1ccc(N[C@H]2C=CCC2)c(C[NH+]=C(NC2CC=CC2)NC2CC=CC2)n1

$$$$
