O[C@@H]1CCc2cccc(OCC[NH+]=C(NC3CCCCC3)NC3CCCCC3)c2C1
     RDKit          3D

 70 73  0  0  1  0  0  0  0  0999 V2000
  123.8722  134.0229  161.8347 O   0  0  0  0  0  0  0  0  0  0  0  0
  124.6490  133.1599  161.0017 C   0  0  2  0  0  0  0  0  0  0  0  0
  124.1612  133.0462  160.0338 H   0  0  0  0  0  0  0  0  0  0  0  0
  124.7933  131.7883  161.6716 C   0  0  0  0  0  0  0  0  0  0  0  0
  125.4149  130.8231  160.6641 C   0  0  0  0  0  0  0  0  0  0  0  0
  126.6643  131.4145  160.0652 C   0  0  0  0  0  0  0  0  0  0  0  0
  127.5490  130.5506  159.4314 C   0  0  0  0  0  0  0  0  0  0  0  0
  128.7093  131.0280  158.8576 C   0  0  0  0  0  0  0  0  0  0  0  0
  128.9975  132.3782  158.9112 C   0  0  0  0  0  0  0  0  0  0  0  0
  128.1199  133.2426  159.5431 C   0  0  0  0  0  0  0  0  0  0  0  0
  128.4017  134.5710  159.5963 O   0  0  0  0  0  0  0  0  0  0  0  0
  128.5409  135.2551  158.3494 C   0  0  0  0  0  0  0  0  0  0  0  0
  128.8545  136.7299  158.6091 C   0  0  0  0  0  0  0  0  0  0  0  0
  130.1036  136.8373  159.3673 N   0  0  0  0  0  0  0  0  0  0  0  0
  130.9504  136.9073  158.8994 H   0  0  0  0  0  0  0  0  0  0  0  0
  130.0769  136.8387  160.6705 C   0  0  0  0  0  0  0  0  0  0  0  0
  129.0856  136.1595  161.3384 N   0  0  0  0  0  0  0  0  0  0  0  0
  128.6267  136.6331  162.6465 C   0  0  0  0  0  0  0  0  0  0  0  0
  128.8596  135.5428  163.6943 C   0  0  0  0  0  0  0  0  0  0  0  0
  128.3803  136.0374  165.0604 C   0  0  0  0  0  0  0  0  0  0  0  0
  126.8877  136.3655  164.9891 C   0  0  0  0  0  0  0  0  0  0  0  0
  126.6546  137.4559  163.9414 C   0  0  0  0  0  0  0  0  0  0  0  0
  127.1339  136.9613  162.5751 C   0  0  0  0  0  0  0  0  0  0  0  0
  131.0401  137.5193  161.3770 N   0  0  0  0  0  0  0  0  0  0  0  0
  132.0964  138.2429  160.6651 C   0  0  0  0  0  0  0  0  0  0  0  0
  133.2876  137.3107  160.4354 C   0  0  0  0  0  0  0  0  0  0  0  0
  134.3907  138.0664  159.6919 C   0  0  0  0  0  0  0  0  0  0  0  0
  134.8373  139.2684  160.5267 C   0  0  0  0  0  0  0  0  0  0  0  0
  133.6460  140.2007  160.7565 C   0  0  0  0  0  0  0  0  0  0  0  0
  132.5429  139.4448  161.5000 C   0  0  0  0  0  0  0  0  0  0  0  0
  126.9491  132.7590  160.1249 C   0  0  0  0  0  0  0  0  0  0  0  0
  126.0441  133.7505  160.8082 C   0  0  0  0  0  0  0  0  0  0  0  0
  123.7420  134.9089  161.4701 H   0  0  0  0  0  0  0  0  0  0  0  0
  123.8120  131.4220  161.9734 H   0  0  0  0  0  0  0  0  0  0  0  0
  125.4391  131.8727  162.5457 H   0  0  0  0  0  0  0  0  0  0  0  0
  125.6651  129.8895  161.1680 H   0  0  0  0  0  0  0  0  0  0  0  0
  124.6968  130.6213  159.8695 H   0  0  0  0  0  0  0  0  0  0  0  0
  127.3263  129.4947  159.3876 H   0  0  0  0  0  0  0  0  0  0  0  0
  129.3904  130.3480  158.3676 H   0  0  0  0  0  0  0  0  0  0  0  0
  129.9033  132.7577  158.4618 H   0  0  0  0  0  0  0  0  0  0  0  0
  129.3528  134.8062  157.7773 H   0  0  0  0  0  0  0  0  0  0  0  0
  127.6116  135.1751  157.7854 H   0  0  0  0  0  0  0  0  0  0  0  0
  128.9609  137.2517  157.6581 H   0  0  0  0  0  0  0  0  0  0  0  0
  128.0426  137.1789  159.1812 H   0  0  0  0  0  0  0  0  0  0  0  0
  128.6899  135.3669  160.9434 H   0  0  0  0  0  0  0  0  0  0  0  0
  129.1827  137.5286  162.9243 H   0  0  0  0  0  0  0  0  0  0  0  0
  128.3036  134.6474  163.4164 H   0  0  0  0  0  0  0  0  0  0  0  0
  129.9230  135.3090  163.7451 H   0  0  0  0  0  0  0  0  0  0  0  0
  128.9362  136.9329  165.3381 H   0  0  0  0  0  0  0  0  0  0  0  0
  128.5463  135.2606  165.8069 H   0  0  0  0  0  0  0  0  0  0  0  0
  126.5461  136.7180  165.9624 H   0  0  0  0  0  0  0  0  0  0  0  0
  126.3316  135.4701  164.7113 H   0  0  0  0  0  0  0  0  0  0  0  0
  127.2106  138.3515  164.2192 H   0  0  0  0  0  0  0  0  0  0  0  0
  125.5912  137.6897  163.8906 H   0  0  0  0  0  0  0  0  0  0  0  0
  126.9680  137.7382  161.8288 H   0  0  0  0  0  0  0  0  0  0  0  0
  126.5780  136.0659  162.2974 H   0  0  0  0  0  0  0  0  0  0  0  0
  131.0202  137.5203  162.3467 H   0  0  0  0  0  0  0  0  0  0  0  0
  131.7155  138.5893  159.7043 H   0  0  0  0  0  0  0  0  0  0  0  0
  133.6685  136.9643  161.3961 H   0  0  0  0  0  0  0  0  0  0  0  0
  132.9693  136.4545  159.8406 H   0  0  0  0  0  0  0  0  0  0  0  0
  134.0099  138.4129  158.7311 H   0  0  0  0  0  0  0  0  0  0  0  0
  135.2394  137.4023  159.5282 H   0  0  0  0  0  0  0  0  0  0  0  0
  135.6233  139.8068  159.9971 H   0  0  0  0  0  0  0  0  0  0  0  0
  135.2181  138.9219  161.4875 H   0  0  0  0  0  0  0  0  0  0  0  0
  133.2653  140.5470  159.7957 H   0  0  0  0  0  0  0  0  0  0  0  0
  133.9643  141.0568  161.3513 H   0  0  0  0  0  0  0  0  0  0  0  0
  131.6944  140.1090  161.6637 H   0  0  0  0  0  0  0  0  0  0  0  0
  132.9238  139.0984  162.4608 H   0  0  0  0  0  0  0  0  0  0  0  0
  126.4631  134.0088  161.7807 H   0  0  0  0  0  0  0  0  0  0  0  0
  125.9712  134.6506  160.1978 H   0  0  0  0  0  0  0  0  0  0  0  0
  1  2  1  0
  1 33  1  0
  2  3  1  6
  2 32  1  0
  2  4  1  0
  4  5  1  0
  4 34  1  0
  4 35  1  0
  5  6  1  0
  5 36  1  0
  5 37  1  0
  6 31  2  0
  6  7  1  0
  7  8  2  0
  7 38  1  0
  8  9  1  0
  8 39  1  0
  9 10  2  0
  9 40  1  0
 10 11  1  0
 10 31  1  0
 11 12  1  0
 12 13  1  0
 12 41  1  0
 12 42  1  0
 13 14  1  0
 13 43  1  0
 13 44  1  0
 14 15  1  0
 14 16  2  0
 16 17  1  0
 16 24  1  0
 17 18  1  0
 17 45  1  0
 18 23  1  0
 18 19  1  0
 18 46  1  0
 19 20  1  0
 19 47  1  0
 19 48  1  0
 20 21  1  0
 20 49  1  0
 20 50  1  0
 21 22  1  0
 21 51  1  0
 21 52  1  0
 22 23  1  0
 22 53  1  0
 22 54  1  0
 23 55  1  0
 23 56  1  0
 24 25  1  0
 24 57  1  0
 25 30  1  0
 25 26  1  0
 25 58  1  0
 26 27  1  0
 26 59  1  0
 26 60  1  0
 27 28  1  0
 27 61  1  0
 27 62  1  0
 28 29  1  0
 28 63  1  0
 28 64  1  0
 29 30  1  0
 29 65  1  0
 29 66  1  0
 30 67  1  0
 30 68  1  0
 31 32  1  0
 32 69  1  0
 32 70  1  0
M  CHG  1  14   1
M  END
>  <DOCK_score>  (1) 
-42.967617

>  <SMILES>  (1) 
O[C@@H]1CCc2cccc(OCC[NH+]=C(NC3CCCCC3)NC3CCCCC3)c2C1

$$$$
