O[C@H]1C[C@@H]([NH+]=C(NC2CC=CC2)N[C@@H]2CC[C@@H]2c2ccccc2)C1
     RDKit          3D

 52 55  0  0  1  0  0  0  0  0999 V2000
  124.2265  134.9906  161.2344 O   0  0  0  0  0  0  0  0  0  0  0  0
  125.3759  134.1505  161.1125 C   0  0  1  0  0  0  0  0  0  0  0  0
  125.1278  133.0892  161.1245 H   0  0  0  0  0  0  0  0  0  0  0  0
  126.3124  134.5511  159.9604 C   0  0  0  0  0  0  0  0  0  0  0  0
  127.4829  134.2357  160.9066 C   0  0  1  0  0  0  0  0  0  0  0  0
  127.8128  133.1979  160.8621 H   0  0  0  0  0  0  0  0  0  0  0  0
  128.5905  135.1895  160.8081 N   0  0  0  0  0  0  0  0  0  0  0  0
  128.6026  135.9787  161.3721 H   0  0  0  0  0  0  0  0  0  0  0  0
  129.5598  134.9776  159.9628 C   0  0  0  0  0  0  0  0  0  0  0  0
  130.5992  135.8727  159.8703 N   0  0  0  0  0  0  0  0  0  0  0  0
  130.6175  137.0646  160.7220 C   0  0  0  0  0  0  0  0  0  0  0  0
  129.4865  138.0439  160.3306 C   0  0  0  0  0  0  0  0  0  0  0  0
  130.0931  139.4176  160.4977 C   0  0  0  0  0  0  0  0  0  0  0  0
  131.3952  139.3519  160.5618 C   0  0  0  0  0  0  0  0  0  0  0  0
  131.8740  137.9232  160.4483 C   0  0  0  0  0  0  0  0  0  0  0  0
  129.5427  133.8591  159.1635 N   0  0  0  0  0  0  0  0  0  0  0  0
  130.1675  133.8956  157.8390 C   0  0  2  0  0  0  0  0  0  0  0  0
  131.0098  134.5856  157.7873 H   0  0  0  0  0  0  0  0  0  0  0  0
  129.1618  134.0639  156.6879 C   0  0  0  0  0  0  0  0  0  0  0  0
  129.0631  132.5268  156.6576 C   0  0  0  0  0  0  0  0  0  0  0  0
  130.4759  132.5028  157.2647 C   0  0  2  0  0  0  0  0  0  0  0  0
  131.2714  132.5041  156.5197 H   0  0  0  0  0  0  0  0  0  0  0  0
  130.6617  131.4426  158.3195 C   0  0  0  0  0  0  0  0  0  0  0  0
  130.3270  130.1296  158.0462 C   0  0  0  0  0  0  0  0  0  0  0  0
  130.5012  129.1564  159.0124 C   0  0  0  0  0  0  0  0  0  0  0  0
  131.0019  129.4978  160.2549 C   0  0  0  0  0  0  0  0  0  0  0  0
  131.3321  130.8117  160.5297 C   0  0  0  0  0  0  0  0  0  0  0  0
  131.1616  131.7842  159.5621 C   0  0  0  0  0  0  0  0  0  0  0  0
  126.5194  134.5285  162.0689 C   0  0  0  0  0  0  0  0  0  0  0  0
  124.4346  135.9208  161.3972 H   0  0  0  0  0  0  0  0  0  0  0  0
  126.2553  133.8851  159.0995 H   0  0  0  0  0  0  0  0  0  0  0  0
  126.2421  135.6039  159.6865 H   0  0  0  0  0  0  0  0  0  0  0  0
  131.3206  135.7151  159.2413 H   0  0  0  0  0  0  0  0  0  0  0  0
  130.5522  136.7914  161.7752 H   0  0  0  0  0  0  0  0  0  0  0  0
  129.1877  137.8842  159.2946 H   0  0  0  0  0  0  0  0  0  0  0  0
  128.6319  137.9226  160.9962 H   0  0  0  0  0  0  0  0  0  0  0  0
  129.5241  140.3336  160.5567 H   0  0  0  0  0  0  0  0  0  0  0  0
  132.0449  140.2064  160.6808 H   0  0  0  0  0  0  0  0  0  0  0  0
  132.6427  137.7200  161.1939 H   0  0  0  0  0  0  0  0  0  0  0  0
  132.2567  137.7278  159.4465 H   0  0  0  0  0  0  0  0  0  0  0  0
  129.1168  133.0458  159.4766 H   0  0  0  0  0  0  0  0  0  0  0  0
  128.2362  134.5565  156.9853 H   0  0  0  0  0  0  0  0  0  0  0  0
  129.5988  134.4912  155.7854 H   0  0  0  0  0  0  0  0  0  0  0  0
  129.0135  132.1121  155.6509 H   0  0  0  0  0  0  0  0  0  0  0  0
  128.2965  132.1241  157.3195 H   0  0  0  0  0  0  0  0  0  0  0  0
  129.9323  129.8634  157.0768 H   0  0  0  0  0  0  0  0  0  0  0  0
  130.2429  128.1301  158.7977 H   0  0  0  0  0  0  0  0  0  0  0  0
  131.1348  128.7381  161.0108 H   0  0  0  0  0  0  0  0  0  0  0  0
  131.7230  131.0785  161.5005 H   0  0  0  0  0  0  0  0  0  0  0  0
  131.4192  132.8108  159.7771 H   0  0  0  0  0  0  0  0  0  0  0  0
  126.5067  135.5754  162.3723 H   0  0  0  0  0  0  0  0  0  0  0  0
  126.6293  133.8441  162.9101 H   0  0  0  0  0  0  0  0  0  0  0  0
  1  2  1  0
  1 30  1  0
  2  3  1  6
  2 29  1  0
  2  4  1  0
  4  5  1  0
  4 31  1  0
  4 32  1  0
  5  6  1  1
  5  7  1  0
  5 29  1  0
  7  8  1  0
  9  7  2  0
  9 10  1  0
  9 16  1  0
 10 11  1  0
 10 33  1  0
 11 15  1  0
 11 12  1  0
 11 34  1  0
 12 13  1  0
 12 35  1  0
 12 36  1  0
 13 14  2  0
 13 37  1  0
 14 15  1  0
 14 38  1  0
 15 39  1  0
 15 40  1  0
 16 17  1  0
 16 41  1  0
 17 18  1  1
 17 21  1  0
 17 19  1  0
 19 20  1  0
 19 42  1  0
 19 43  1  0
 20 21  1  0
 20 44  1  0
 20 45  1  0
 21 22  1  6
 21 23  1  0
 23 28  1  0
 23 24  2  0
 24 25  1  0
 24 46  1  0
 25 26  2  0
 25 47  1  0
 26 27  1  0
 26 48  1  0
 27 28  2  0
 27 49  1  0
 28 50  1  0
 29 51  1  0
 29 52  1  0
M  CHG  1   7   1
M  END
>  <DOCK_score>  (1) 
-48.042664

>  <SMILES>  (1) 
O[C@H]1C[C@@H]([NH+]=C(NC2CC=CC2)N[C@@H]2CC[C@@H]2c2ccccc2)C1

$$$$
