O=C1C=CC(O)(c2ccc(Nc3[nH]cc(CCO)[nH+]3)c(Nc3ccccc3)c2)C=C1
     RDKit          3D

 53 56  0  0  1  0  0  0  0  0999 V2000
  128.4233  137.2162  166.9268 O   0  0  0  0  0  0  0  0  0  0  0  0
  127.5909  136.9382  166.0839 C   0  0  0  0  0  0  0  0  0  0  0  0
  127.1587  135.5444  165.8699 C   0  0  0  0  0  0  0  0  0  0  0  0
  126.5186  135.2252  164.7529 C   0  0  0  0  0  0  0  0  0  0  0  0
  126.2184  136.2165  163.6733 C   0  0  0  0  0  0  0  0  0  0  0  0
  124.8843  136.0008  163.2087 O   0  0  0  0  0  0  0  0  0  0  0  0
  127.1722  135.9907  162.5286 C   0  0  0  0  0  0  0  0  0  0  0  0
  126.6821  135.6695  161.2760 C   0  0  0  0  0  0  0  0  0  0  0  0
  127.5518  135.4555  160.2228 C   0  0  0  0  0  0  0  0  0  0  0  0
  128.9197  135.5739  160.4181 C   0  0  0  0  0  0  0  0  0  0  0  0
  129.8021  135.3638  159.3514 N   0  0  0  0  0  0  0  0  0  0  0  0
  129.8265  134.1394  158.7035 C   0  0  0  0  0  0  0  0  0  0  0  0
  129.0530  133.0623  159.0081 N   0  0  0  0  0  0  0  0  0  0  0  0
  128.3883  133.0101  159.7127 H   0  0  0  0  0  0  0  0  0  0  0  0
  129.3898  132.0620  158.1248 C   0  0  0  0  0  0  0  0  0  0  0  0
  130.3528  132.5527  157.3258 C   0  0  0  0  0  0  0  0  0  0  0  0
  131.0349  131.8088  156.2067 C   0  0  0  0  0  0  0  0  0  0  0  0
  130.2614  132.0256  154.9046 C   0  0  0  0  0  0  0  0  0  0  0  0
  130.2269  133.4209  154.5976 O   0  0  0  0  0  0  0  0  0  0  0  0
  130.6037  133.8198  157.6957 N   0  0  0  0  0  0  0  0  0  0  0  0
  131.2567  134.4062  157.2826 H   0  0  0  0  0  0  0  0  0  0  0  0
  129.4142  135.8984  161.6815 C   0  0  0  0  0  0  0  0  0  0  0  0
  130.7939  136.0141  161.8870 N   0  0  0  0  0  0  0  0  0  0  0  0
  131.5310  136.9562  161.1657 C   0  0  0  0  0  0  0  0  0  0  0  0
  132.8663  136.7149  160.8668 C   0  0  0  0  0  0  0  0  0  0  0  0
  133.5903  137.6457  160.1482 C   0  0  0  0  0  0  0  0  0  0  0  0
  132.9911  138.8221  159.7364 C   0  0  0  0  0  0  0  0  0  0  0  0
  131.6639  139.0682  160.0374 C   0  0  0  0  0  0  0  0  0  0  0  0
  130.9322  138.1391  160.7504 C   0  0  0  0  0  0  0  0  0  0  0  0
  128.5345  136.1059  162.7337 C   0  0  0  0  0  0  0  0  0  0  0  0
  126.3431  137.6354  164.1313 C   0  0  0  0  0  0  0  0  0  0  0  0
  126.9806  137.9834  165.2412 C   0  0  0  0  0  0  0  0  0  0  0  0
  127.3618  134.7904  166.6160 H   0  0  0  0  0  0  0  0  0  0  0  0
  126.1997  134.2025  164.6163 H   0  0  0  0  0  0  0  0  0  0  0  0
  124.6192  136.5882  162.4876 H   0  0  0  0  0  0  0  0  0  0  0  0
  125.6170  135.5812  161.1212 H   0  0  0  0  0  0  0  0  0  0  0  0
  127.1655  135.2004  159.2470 H   0  0  0  0  0  0  0  0  0  0  0  0
  130.3962  136.0755  159.0660 H   0  0  0  0  0  0  0  0  0  0  0  0
  128.9645  131.0701  158.0844 H   0  0  0  0  0  0  0  0  0  0  0  0
  132.0529  132.1807  156.0908 H   0  0  0  0  0  0  0  0  0  0  0  0
  131.0612  130.7446  156.4409 H   0  0  0  0  0  0  0  0  0  0  0  0
  130.7546  131.4875  154.0950 H   0  0  0  0  0  0  0  0  0  0  0  0
  129.2433  131.6539  155.0205 H   0  0  0  0  0  0  0  0  0  0  0  0
  131.1000  133.8195  154.4806 H   0  0  0  0  0  0  0  0  0  0  0  0
  131.2383  135.4401  162.5304 H   0  0  0  0  0  0  0  0  0  0  0  0
  133.3361  135.7986  161.1922 H   0  0  0  0  0  0  0  0  0  0  0  0
  134.6269  137.4566  159.9113 H   0  0  0  0  0  0  0  0  0  0  0  0
  133.5610  139.5504  159.1786 H   0  0  0  0  0  0  0  0  0  0  0  0
  131.1991  139.9880  159.7143 H   0  0  0  0  0  0  0  0  0  0  0  0
  129.8958  138.3320  160.9851 H   0  0  0  0  0  0  0  0  0  0  0  0
  128.9137  136.3576  163.7131 H   0  0  0  0  0  0  0  0  0  0  0  0
  125.8931  138.4118  163.5304 H   0  0  0  0  0  0  0  0  0  0  0  0
  127.0522  139.0230  165.5253 H   0  0  0  0  0  0  0  0  0  0  0  0
  1  2  2  0
  2 32  1  0
  2  3  1  0
  3  4  2  0
  3 33  1  0
  4  5  1  0
  4 34  1  0
  5  6  1  0
  5  7  1  0
  5 31  1  0
  6 35  1  0
  7 30  1  0
  7  8  2  0
  8  9  1  0
  8 36  1  0
  9 10  2  0
  9 37  1  0
 10 11  1  0
 10 22  1  0
 11 38  1  0
 12 11  1  0
 12 20  2  0
 12 13  1  0
 13 14  1  0
 13 15  1  0
 15 16  2  0
 15 39  1  0
 16 17  1  0
 16 20  1  0
 17 18  1  0
 17 40  1  0
 17 41  1  0
 18 19  1  0
 18 42  1  0
 18 43  1  0
 19 44  1  0
 20 21  1  0
 22 23  1  0
 22 30  2  0
 23 24  1  0
 23 45  1  0
 24 29  1  0
 24 25  2  0
 25 26  1  0
 25 46  1  0
 26 27  2  0
 26 47  1  0
 27 28  1  0
 27 48  1  0
 28 29  2  0
 28 49  1  0
 29 50  1  0
 30 51  1  0
 31 32  2  0
 31 52  1  0
 32 53  1  0
M  CHG  1  20   1
M  END
>  <DOCK_score>  (1) 
-49.305389

>  <SMILES>  (1) 
O=C1C=CC(O)(c2ccc(Nc3[nH]cc(CCO)[nH+]3)c(Nc3ccccc3)c2)C=C1

$$$$
