c1ccc(C(Nc2[nH]cc(-c3ccc(NC4CC4)cc3)[nH+]2)c2ccccc2)cc1
     RDKit          3D

 54 58  0  0  1  0  0  0  0  0999 V2000
  131.1836  139.6713  161.6171 C   0  0  0  0  0  0  0  0  0  0  0  0
  131.9911  138.5936  161.9260 C   0  0  0  0  0  0  0  0  0  0  0  0
  131.6042  137.3152  161.5700 C   0  0  0  0  0  0  0  0  0  0  0  0
  130.4093  137.1145  160.9048 C   0  0  0  0  0  0  0  0  0  0  0  0
  129.9878  135.7208  160.5163 C   0  0  0  0  0  0  0  0  0  0  0  0
  130.5071  135.4073  159.1828 N   0  0  0  0  0  0  0  0  0  0  0  0
  130.2464  134.1737  158.6110 C   0  0  0  0  0  0  0  0  0  0  0  0
  129.5292  133.1699  159.1847 N   0  0  0  0  0  0  0  0  0  0  0  0
  129.1121  133.1893  160.0602 H   0  0  0  0  0  0  0  0  0  0  0  0
  129.5018  132.1241  158.2926 C   0  0  0  0  0  0  0  0  0  0  0  0
  130.2103  132.5164  157.2051 C   0  0  0  0  0  0  0  0  0  0  0  0
  130.4565  131.7083  155.9856 C   0  0  0  0  0  0  0  0  0  0  0  0
  130.0122  132.1635  154.7451 C   0  0  0  0  0  0  0  0  0  0  0  0
  130.2476  131.4137  153.6121 C   0  0  0  0  0  0  0  0  0  0  0  0
  130.9169  130.1991  153.7079 C   0  0  0  0  0  0  0  0  0  0  0  0
  131.1495  129.4382  152.5597 N   0  0  0  0  0  0  0  0  0  0  0  0
  130.6879  129.9215  151.2553 C   0  0  0  0  0  0  0  0  0  0  0  0
  129.2190  129.6901  150.8956 C   0  0  0  0  0  0  0  0  0  0  0  0
  130.3132  128.8728  150.2060 C   0  0  0  0  0  0  0  0  0  0  0  0
  131.3551  129.7405  154.9443 C   0  0  0  0  0  0  0  0  0  0  0  0
  131.1273  130.4899  156.0793 C   0  0  0  0  0  0  0  0  0  0  0  0
  130.6546  133.7782  157.4298 N   0  0  0  0  0  0  0  0  0  0  0  0
  131.1895  134.3040  156.8145 H   0  0  0  0  0  0  0  0  0  0  0  0
  128.4831  135.6368  160.5021 C   0  0  0  0  0  0  0  0  0  0  0  0
  127.8006  135.2696  161.6467 C   0  0  0  0  0  0  0  0  0  0  0  0
  126.4202  135.1973  161.6350 C   0  0  0  0  0  0  0  0  0  0  0  0
  125.7229  135.4821  160.4758 C   0  0  0  0  0  0  0  0  0  0  0  0
  126.4059  135.8441  159.3297 C   0  0  0  0  0  0  0  0  0  0  0  0
  127.7859  135.9216  159.3429 C   0  0  0  0  0  0  0  0  0  0  0  0
  129.6037  138.1931  160.5905 C   0  0  0  0  0  0  0  0  0  0  0  0
  129.9879  139.4710  160.9511 C   0  0  0  0  0  0  0  0  0  0  0  0
  131.4854  140.6706  161.8941 H   0  0  0  0  0  0  0  0  0  0  0  0
  132.9249  138.7504  162.4455 H   0  0  0  0  0  0  0  0  0  0  0  0
  132.2358  136.4729  161.8116 H   0  0  0  0  0  0  0  0  0  0  0  0
  130.3847  135.0069  161.2380 H   0  0  0  0  0  0  0  0  0  0  0  0
  131.0302  136.0655  158.6990 H   0  0  0  0  0  0  0  0  0  0  0  0
  129.0140  131.1709  158.4332 H   0  0  0  0  0  0  0  0  0  0  0  0
  129.4884  133.1050  154.6709 H   0  0  0  0  0  0  0  0  0  0  0  0
  129.9078  131.7682  152.6502 H   0  0  0  0  0  0  0  0  0  0  0  0
  131.6163  128.5911  152.6252 H   0  0  0  0  0  0  0  0  0  0  0  0
  131.1538  130.8417  150.9030 H   0  0  0  0  0  0  0  0  0  0  0  0
  128.5957  129.1786  151.6292 H   0  0  0  0  0  0  0  0  0  0  0  0
  128.7179  130.4584  150.3068 H   0  0  0  0  0  0  0  0  0  0  0  0
  130.5322  129.1034  149.1634 H   0  0  0  0  0  0  0  0  0  0  0  0
  130.4099  127.8238  150.4859 H   0  0  0  0  0  0  0  0  0  0  0  0
  131.8748  128.7965  155.0163 H   0  0  0  0  0  0  0  0  0  0  0  0
  131.4688  130.1334  157.0397 H   0  0  0  0  0  0  0  0  0  0  0  0
  128.3456  135.0429  162.5511 H   0  0  0  0  0  0  0  0  0  0  0  0
  125.8867  134.9141  162.5302 H   0  0  0  0  0  0  0  0  0  0  0  0
  124.6448  135.4212  160.4654 H   0  0  0  0  0  0  0  0  0  0  0  0
  125.8611  136.0662  158.4240 H   0  0  0  0  0  0  0  0  0  0  0  0
  128.3194  136.2042  158.4474 H   0  0  0  0  0  0  0  0  0  0  0  0
  128.6722  138.0369  160.0668 H   0  0  0  0  0  0  0  0  0  0  0  0
  129.3568  140.3133  160.7089 H   0  0  0  0  0  0  0  0  0  0  0  0
  1 31  2  0
  1  2  1  0
  1 32  1  0
  2  3  2  0
  2 33  1  0
  3  4  1  0
  3 34  1  0
  4  5  1  0
  4 30  2  0
  5  6  1  0
  5 24  1  0
  5 35  1  0
  6 36  1  0
  7  6  1  0
  7 22  2  0
  7  8  1  0
  8  9  1  0
  8 10  1  0
 10 11  2  0
 10 37  1  0
 11 12  1  0
 11 22  1  0
 12 21  1  0
 12 13  2  0
 13 14  1  0
 13 38  1  0
 14 15  2  0
 14 39  1  0
 15 16  1  0
 15 20  1  0
 16 17  1  0
 16 40  1  0
 17 19  1  0
 17 18  1  0
 17 41  1  0
 18 19  1  0
 18 42  1  0
 18 43  1  0
 19 44  1  0
 19 45  1  0
 20 21  2  0
 20 46  1  0
 21 47  1  0
 22 23  1  0
 24 29  1  0
 24 25  2  0
 25 26  1  0
 25 48  1  0
 26 27  2  0
 26 49  1  0
 27 28  1  0
 27 50  1  0
 28 29  2  0
 28 51  1  0
 29 52  1  0
 30 31  1  0
 30 53  1  0
 31 54  1  0
M  CHG  1  22   1
M  END
>  <DOCK_score>  (1) 
-59.925777

>  <SMILES>  (1) 
c1ccc(C(Nc2[nH]cc(-c3ccc(NC4CC4)cc3)[nH+]2)c2ccccc2)cc1

$$$$
