Nc1ccc(C#C[C@H](Nc2[nH]cc(-c3ccc(N)cc3)[nH+]2)c2ccc(F)cc2)cc1
     RDKit          3D

 51 54  0  0  1  0  0  0  0  0999 V2000
  131.6941  142.6163  163.1319 N   0  0  0  0  0  0  0  0  0  0  0  0
  131.3962  141.3414  162.6494 C   0  0  0  0  0  0  0  0  0  0  0  0
  132.4200  140.5081  162.2123 C   0  0  0  0  0  0  0  0  0  0  0  0
  132.1289  139.2486  161.7353 C   0  0  0  0  0  0  0  0  0  0  0  0
  130.8045  138.8095  161.6906 C   0  0  0  0  0  0  0  0  0  0  0  0
  130.4989  137.5010  161.1953 C   0  0  0  0  0  0  0  0  0  0  0  0
  130.2482  136.4284  160.7894 C   0  0  0  0  0  0  0  0  0  0  0  0
  129.9339  135.0834  160.2803 C   0  0  2  0  0  0  0  0  0  0  0  0
  130.4379  134.3360  160.8931 H   0  0  0  0  0  0  0  0  0  0  0  0
  130.3914  134.9670  158.8935 N   0  0  0  0  0  0  0  0  0  0  0  0
  130.2037  133.7837  158.1997 C   0  0  0  0  0  0  0  0  0  0  0  0
  129.6054  132.6641  158.6896 N   0  0  0  0  0  0  0  0  0  0  0  0
  129.2373  132.5520  159.5800 H   0  0  0  0  0  0  0  0  0  0  0  0
  129.6198  131.7207  157.6895 C   0  0  0  0  0  0  0  0  0  0  0  0
  130.2257  132.2915  156.6192 C   0  0  0  0  0  0  0  0  0  0  0  0
  130.4671  131.6458  155.3056 C   0  0  0  0  0  0  0  0  0  0  0  0
  129.9121  132.1894  154.1481 C   0  0  0  0  0  0  0  0  0  0  0  0
  130.1422  131.5906  152.9275 C   0  0  0  0  0  0  0  0  0  0  0  0
  130.9171  130.4394  152.8522 C   0  0  0  0  0  0  0  0  0  0  0  0
  131.1440  129.8310  151.6153 N   0  0  0  0  0  0  0  0  0  0  0  0
  131.4671  129.8927  154.0055 C   0  0  0  0  0  0  0  0  0  0  0  0
  131.2444  130.4914  155.2277 C   0  0  0  0  0  0  0  0  0  0  0  0
  130.5678  133.5592  156.9606 N   0  0  0  0  0  0  0  0  0  0  0  0
  131.0131  134.1969  156.3810 H   0  0  0  0  0  0  0  0  0  0  0  0
  128.4447  134.8595  160.3384 C   0  0  0  0  0  0  0  0  0  0  0  0
  127.8731  134.3071  161.4694 C   0  0  0  0  0  0  0  0  0  0  0  0
  126.5068  134.1067  161.5261 C   0  0  0  0  0  0  0  0  0  0  0  0
  125.7120  134.4492  160.4453 C   0  0  0  0  0  0  0  0  0  0  0  0
  124.3769  134.2486  160.4974 F   0  0  0  0  0  0  0  0  0  0  0  0
  126.2864  134.9972  159.3110 C   0  0  0  0  0  0  0  0  0  0  0  0
  127.6522  135.2015  159.2586 C   0  0  0  0  0  0  0  0  0  0  0  0
  129.7781  139.6505  162.1243 C   0  0  0  0  0  0  0  0  0  0  0  0
  130.0761  140.9068  162.6062 C   0  0  0  0  0  0  0  0  0  0  0  0
  132.6145  142.9205  163.1623 H   0  0  0  0  0  0  0  0  0  0  0  0
  130.9806  143.1982  163.4372 H   0  0  0  0  0  0  0  0  0  0  0  0
  133.4445  140.8485  162.2471 H   0  0  0  0  0  0  0  0  0  0  0  0
  132.9246  138.6018  161.3959 H   0  0  0  0  0  0  0  0  0  0  0  0
  130.8259  135.7189  158.4613 H   0  0  0  0  0  0  0  0  0  0  0  0
  129.2242  130.7173  157.7457 H   0  0  0  0  0  0  0  0  0  0  0  0
  129.3058  133.0814  154.2068 H   0  0  0  0  0  0  0  0  0  0  0  0
  129.7160  132.0140  152.0299 H   0  0  0  0  0  0  0  0  0  0  0  0
  131.6850  129.0277  151.5618 H   0  0  0  0  0  0  0  0  0  0  0  0
  130.7605  130.2120  150.8099 H   0  0  0  0  0  0  0  0  0  0  0  0
  132.0690  128.9979  153.9447 H   0  0  0  0  0  0  0  0  0  0  0  0
  131.6723  130.0664  156.1236 H   0  0  0  0  0  0  0  0  0  0  0  0
  128.4938  134.0359  162.3106 H   0  0  0  0  0  0  0  0  0  0  0  0
  126.0598  133.6795  162.4116 H   0  0  0  0  0  0  0  0  0  0  0  0
  125.6675  135.2644  158.4672 H   0  0  0  0  0  0  0  0  0  0  0  0
  128.1005  135.6290  158.3739 H   0  0  0  0  0  0  0  0  0  0  0  0
  128.7521  139.3154  162.0864 H   0  0  0  0  0  0  0  0  0  0  0  0
  129.2829  141.5563  162.9460 H   0  0  0  0  0  0  0  0  0  0  0  0
  1  2  1  0
  1 34  1  0
  1 35  1  0
  2 33  2  0
  2  3  1  0
  3  4  2  0
  3 36  1  0
  4  5  1  0
  4 37  1  0
  5  6  1  0
  5 32  2  0
  6  7  3  0
  7  8  1  0
  8  9  1  1
  8 10  1  0
  8 25  1  0
 10 38  1  0
 11 10  1  0
 11 23  2  0
 11 12  1  0
 12 13  1  0
 12 14  1  0
 14 15  2  0
 14 39  1  0
 15 16  1  0
 15 23  1  0
 16 22  1  0
 16 17  2  0
 17 18  1  0
 17 40  1  0
 18 19  2  0
 18 41  1  0
 19 20  1  0
 19 21  1  0
 20 42  1  0
 20 43  1  0
 21 22  2  0
 21 44  1  0
 22 45  1  0
 23 24  1  0
 25 31  1  0
 25 26  2  0
 26 27  1  0
 26 46  1  0
 27 28  2  0
 27 47  1  0
 28 29  1  0
 28 30  1  0
 30 31  2  0
 30 48  1  0
 31 49  1  0
 32 33  1  0
 32 50  1  0
 33 51  1  0
M  CHG  1  23   1
M  END
>  <DOCK_score>  (1) 
-56.859959

>  <SMILES>  (1) 
Nc1ccc(C#C[C@H](Nc2[nH]cc(-c3ccc(N)cc3)[nH+]2)c2ccc(F)cc2)cc1

$$$$
