Brc1ccc(C[C@@H](Nc2[nH]cc(-c3ccc(Br)cc3)[nH+]2)C2CCC2)cc1
     RDKit          3D

 48 51  0  0  1  0  0  0  0  0999 V2000
  135.1345  140.1545  160.5117 Br  0  0  0  0  0  0  0  0  0  0  0  0
  133.4630  139.2803  160.6450 C   0  0  0  0  0  0  0  0  0  0  0  0
  133.0107  138.8360  161.8743 C   0  0  0  0  0  0  0  0  0  0  0  0
  131.7868  138.2012  161.9721 C   0  0  0  0  0  0  0  0  0  0  0  0
  131.0194  138.0011  160.8397 C   0  0  0  0  0  0  0  0  0  0  0  0
  129.6874  137.3043  160.9459 C   0  0  0  0  0  0  0  0  0  0  0  0
  129.8842  135.7976  160.7670 C   0  0  1  0  0  0  0  0  0  0  0  0
  128.9208  135.2938  160.8439 H   0  0  0  0  0  0  0  0  0  0  0  0
  130.4692  135.5345  159.4499 N   0  0  0  0  0  0  0  0  0  0  0  0
  130.1911  134.3478  158.7935 C   0  0  0  0  0  0  0  0  0  0  0  0
  129.3888  133.3528  159.2607 N   0  0  0  0  0  0  0  0  0  0  0  0
  128.9133  133.3473  160.1061 H   0  0  0  0  0  0  0  0  0  0  0  0
  129.3770  132.3572  158.3139 C   0  0  0  0  0  0  0  0  0  0  0  0
  130.1717  132.7722  157.2966 C   0  0  0  0  0  0  0  0  0  0  0  0
  130.4600  132.0196  156.0513 C   0  0  0  0  0  0  0  0  0  0  0  0
  130.1187  132.5601  154.8126 C   0  0  0  0  0  0  0  0  0  0  0  0
  130.3945  131.8582  153.6569 C   0  0  0  0  0  0  0  0  0  0  0  0
  130.9978  130.6147  153.7267 C   0  0  0  0  0  0  0  0  0  0  0  0
  131.3649  129.6553  152.1390 Br  0  0  0  0  0  0  0  0  0  0  0  0
  131.3339  130.0709  154.9546 C   0  0  0  0  0  0  0  0  0  0  0  0
  131.0678  130.7670  156.1161 C   0  0  0  0  0  0  0  0  0  0  0  0
  130.6525  133.9997  157.6171 N   0  0  0  0  0  0  0  0  0  0  0  0
  131.2452  134.5334  157.0650 H   0  0  0  0  0  0  0  0  0  0  0  0
  130.8225  135.2730  161.8559 C   0  0  0  0  0  0  0  0  0  0  0  0
  130.6738  133.7660  162.1237 C   0  0  0  0  0  0  0  0  0  0  0  0
  130.8305  134.0980  163.6188 C   0  0  0  0  0  0  0  0  0  0  0  0
  130.2979  135.5011  163.2834 C   0  0  0  0  0  0  0  0  0  0  0  0
  131.4734  138.4403  159.6100 C   0  0  0  0  0  0  0  0  0  0  0  0
  132.6948  139.0798  159.5123 C   0  0  0  0  0  0  0  0  0  0  0  0
  133.6121  138.9885  162.7584 H   0  0  0  0  0  0  0  0  0  0  0  0
  131.4317  137.8580  162.9325 H   0  0  0  0  0  0  0  0  0  0  0  0
  129.2521  137.5001  161.9259 H   0  0  0  0  0  0  0  0  0  0  0  0
  129.0190  137.6781  160.1702 H   0  0  0  0  0  0  0  0  0  0  0  0
  131.0514  136.1919  159.0377 H   0  0  0  0  0  0  0  0  0  0  0  0
  128.8376  131.4231  158.3692 H   0  0  0  0  0  0  0  0  0  0  0  0
  129.6435  133.5283  154.7573 H   0  0  0  0  0  0  0  0  0  0  0  0
  130.1342  132.2780  152.6964 H   0  0  0  0  0  0  0  0  0  0  0  0
  131.8049  129.1003  155.0037 H   0  0  0  0  0  0  0  0  0  0  0  0
  131.3304  130.3421  157.0735 H   0  0  0  0  0  0  0  0  0  0  0  0
  131.8552  135.5914  161.7140 H   0  0  0  0  0  0  0  0  0  0  0  0
  129.6912  133.3715  161.8648 H   0  0  0  0  0  0  0  0  0  0  0  0
  131.4909  133.1680  161.7201 H   0  0  0  0  0  0  0  0  0  0  0  0
  131.8659  134.0938  163.9593 H   0  0  0  0  0  0  0  0  0  0  0  0
  130.1693  133.5236  164.2675 H   0  0  0  0  0  0  0  0  0  0  0  0
  130.8123  136.3019  163.8147 H   0  0  0  0  0  0  0  0  0  0  0  0
  129.2126  135.5818  163.3419 H   0  0  0  0  0  0  0  0  0  0  0  0
  130.8734  138.2841  158.7257 H   0  0  0  0  0  0  0  0  0  0  0  0
  133.0495  139.4227  158.5515 H   0  0  0  0  0  0  0  0  0  0  0  0
  1  2  1  0
  2 29  2  0
  2  3  1  0
  3  4  2  0
  3 30  1  0
  4  5  1  0
  4 31  1  0
  5  6  1  0
  5 28  2  0
  6  7  1  0
  6 32  1  0
  6 33  1  0
  7  8  1  6
  7  9  1  0
  7 24  1  0
  9 34  1  0
 10  9  1  0
 10 22  2  0
 10 11  1  0
 11 12  1  0
 11 13  1  0
 13 14  2  0
 13 35  1  0
 14 15  1  0
 14 22  1  0
 15 21  1  0
 15 16  2  0
 16 17  1  0
 16 36  1  0
 17 18  2  0
 17 37  1  0
 18 19  1  0
 18 20  1  0
 20 21  2  0
 20 38  1  0
 21 39  1  0
 22 23  1  0
 24 27  1  0
 24 25  1  0
 24 40  1  0
 25 26  1  0
 25 41  1  0
 25 42  1  0
 26 27  1  0
 26 43  1  0
 26 44  1  0
 27 45  1  0
 27 46  1  0
 28 29  1  0
 28 47  1  0
 29 48  1  0
M  CHG  1  22   1
M  END
>  <DOCK_score>  (1) 
-59.084469

>  <SMILES>  (1) 
Brc1ccc(C[C@@H](Nc2[nH]cc(-c3ccc(Br)cc3)[nH+]2)C2CCC2)cc1

$$$$
