O=Cc1ccc(C(O)c2cccc([C@@H](c3ccccc3)[NH+]3CC(O)C4(CCCC4)C3)c2)cc1
     RDKit          3D

 65 69  0  0  1  0  0  0  0  0999 V2000
  131.9316  140.8751  166.2754 O   0  0  0  0  0  0  0  0  0  0  0  0
  132.7922  141.0636  165.4425 C   0  0  0  0  0  0  0  0  0  0  0  0
  132.6991  140.4101  164.1271 C   0  0  0  0  0  0  0  0  0  0  0  0
  133.6897  140.6256  163.1637 C   0  0  0  0  0  0  0  0  0  0  0  0
  133.5951  140.0101  161.9334 C   0  0  0  0  0  0  0  0  0  0  0  0
  132.5233  139.1813  161.6508 C   0  0  0  0  0  0  0  0  0  0  0  0
  132.4272  138.5133  160.3034 C   0  0  2  0  0  0  0  0  0  0  0  0
  131.2217  138.9222  159.6539 O   0  0  0  0  0  0  0  0  0  0  0  0
  132.4181  137.0173  160.4838 C   0  0  0  0  0  0  0  0  0  0  0  0
  133.4874  136.3879  161.0937 C   0  0  0  0  0  0  0  0  0  0  0  0
  133.4792  135.0157  161.2590 C   0  0  0  0  0  0  0  0  0  0  0  0
  132.4009  134.2725  160.8157 C   0  0  0  0  0  0  0  0  0  0  0  0
  131.3318  134.9016  160.2062 C   0  0  0  0  0  0  0  0  0  0  0  0
  130.1567  134.0916  159.7225 C   0  0  1  0  0  0  0  0  0  0  0  0
  129.7064  134.5834  158.8603 H   0  0  0  0  0  0  0  0  0  0  0  0
  130.6244  132.7144  159.3277 C   0  0  0  0  0  0  0  0  0  0  0  0
  131.0269  132.4673  158.0285 C   0  0  0  0  0  0  0  0  0  0  0  0
  131.4600  131.2052  157.6673 C   0  0  0  0  0  0  0  0  0  0  0  0
  131.4819  130.1879  158.6030 C   0  0  0  0  0  0  0  0  0  0  0  0
  131.0744  130.4337  159.9008 C   0  0  0  0  0  0  0  0  0  0  0  0
  130.6454  131.6968  160.2632 C   0  0  0  0  0  0  0  0  0  0  0  0
  129.1622  133.9812  160.7980 N   0  0  1  0  0  0  0  0  0  0  0  0
  129.5640  133.5273  161.6045 H   0  0  0  0  0  0  0  0  0  0  0  0
  128.6417  135.3246  161.1638 C   0  0  0  0  0  0  0  0  0  0  0  0
  127.2736  135.0456  161.8273 C   0  0  1  0  0  0  0  0  0  0  0  0
  126.3298  136.0559  161.4657 O   0  0  0  0  0  0  0  0  0  0  0  0
  126.8388  133.6839  161.2693 C   0  0  0  0  0  0  0  0  0  0  0  0
  125.5091  133.8037  160.5131 C   0  0  0  0  0  0  0  0  0  0  0  0
  124.7818  132.4687  160.8200 C   0  0  0  0  0  0  0  0  0  0  0  0
  125.1689  132.1965  162.2956 C   0  0  0  0  0  0  0  0  0  0  0  0
  126.6367  132.6677  162.3960 C   0  0  0  0  0  0  0  0  0  0  0  0
  127.9639  133.2383  160.3236 C   0  0  0  0  0  0  0  0  0  0  0  0
  131.3378  136.2748  160.0454 C   0  0  0  0  0  0  0  0  0  0  0  0
  131.5363  138.9672  162.5970 C   0  0  0  0  0  0  0  0  0  0  0  0
  131.6196  139.5710  163.8341 C   0  0  0  0  0  0  0  0  0  0  0  0
  133.6273  141.7112  165.6658 H   0  0  0  0  0  0  0  0  0  0  0  0
  134.5263  141.2726  163.3824 H   0  0  0  0  0  0  0  0  0  0  0  0
  134.3593  140.1754  161.1884 H   0  0  0  0  0  0  0  0  0  0  0  0
  133.2839  138.8004  159.6935 H   0  0  0  0  0  0  0  0  0  0  0  0
  131.0937  138.5302  158.7793 H   0  0  0  0  0  0  0  0  0  0  0  0
  134.3297  136.9685  161.4403 H   0  0  0  0  0  0  0  0  0  0  0  0
  134.3146  134.5242  161.7352 H   0  0  0  0  0  0  0  0  0  0  0  0
  132.3942  133.2003  160.9453 H   0  0  0  0  0  0  0  0  0  0  0  0
  131.0063  133.2611  157.2965 H   0  0  0  0  0  0  0  0  0  0  0  0
  131.7787  131.0133  156.6534 H   0  0  0  0  0  0  0  0  0  0  0  0
  131.8177  129.2012  158.3203 H   0  0  0  0  0  0  0  0  0  0  0  0
  131.0915  129.6390  160.6319 H   0  0  0  0  0  0  0  0  0  0  0  0
  130.3270  131.8889  161.2770 H   0  0  0  0  0  0  0  0  0  0  0  0
  129.3136  135.8133  161.8693 H   0  0  0  0  0  0  0  0  0  0  0  0
  128.5155  135.9390  160.2723 H   0  0  0  0  0  0  0  0  0  0  0  0
  127.3804  134.9952  162.9109 H   0  0  0  0  0  0  0  0  0  0  0  0
  126.1849  136.1358  160.5129 H   0  0  0  0  0  0  0  0  0  0  0  0
  124.9311  134.6485  160.8876 H   0  0  0  0  0  0  0  0  0  0  0  0
  125.6860  133.9051  159.4423 H   0  0  0  0  0  0  0  0  0  0  0  0
  125.1475  131.6723  160.1718 H   0  0  0  0  0  0  0  0  0  0  0  0
  123.7025  132.5819  160.7186 H   0  0  0  0  0  0  0  0  0  0  0  0
  125.0937  131.1324  162.5196 H   0  0  0  0  0  0  0  0  0  0  0  0
  124.5362  132.7731  162.9705 H   0  0  0  0  0  0  0  0  0  0  0  0
  127.3114  131.8220  162.2631 H   0  0  0  0  0  0  0  0  0  0  0  0
  126.8142  133.1397  163.3623 H   0  0  0  0  0  0  0  0  0  0  0  0
  127.7281  133.5127  159.2954 H   0  0  0  0  0  0  0  0  0  0  0  0
  128.1257  132.1634  160.4043 H   0  0  0  0  0  0  0  0  0  0  0  0
  130.5003  136.7670  159.5733 H   0  0  0  0  0  0  0  0  0  0  0  0
  130.7007  138.3227  162.3675 H   0  0  0  0  0  0  0  0  0  0  0  0
  130.8508  139.3995  164.5731 H   0  0  0  0  0  0  0  0  0  0  0  0
  1  2  2  0
  2  3  1  0
  2 36  1  0
  3 35  2  0
  3  4  1  0
  4  5  2  0
  4 37  1  0
  5  6  1  0
  5 38  1  0
  6  7  1  0
  6 34  2  0
  7  8  1  0
  7  9  1  0
  7 39  1  6
  8 40  1  0
  9 33  1  0
  9 10  2  0
 10 11  1  0
 10 41  1  0
 11 12  2  0
 11 42  1  0
 12 13  1  0
 12 43  1  0
 13 14  1  0
 13 33  2  0
 14 15  1  6
 14 16  1  0
 14 22  1  0
 16 21  1  0
 16 17  2  0
 17 18  1  0
 17 44  1  0
 18 19  2  0
 18 45  1  0
 19 20  1  0
 19 46  1  0
 20 21  2  0
 20 47  1  0
 21 48  1  0
 22 23  1  1
 22 32  1  0
 22 24  1  0
 24 25  1  0
 24 49  1  0
 24 50  1  0
 25 26  1  0
 25 27  1  0
 25 51  1  1
 26 52  1  0
 27 31  1  0
 27 28  1  0
 27 32  1  0
 28 29  1  0
 28 53  1  0
 28 54  1  0
 29 30  1  0
 29 55  1  0
 29 56  1  0
 30 31  1  0
 30 57  1  0
 30 58  1  0
 31 59  1  0
 31 60  1  0
 32 61  1  0
 32 62  1  0
 33 63  1  0
 34 35  1  0
 34 64  1  0
 35 65  1  0
M  CHG  1  22   1
M  END
>  <DOCK_score>  (1) 
-43.87838

>  <SMILES>  (1) 
O=Cc1ccc(C(O)c2cccc([C@@H](c3ccccc3)[NH+]3CC(O)C4(CCCC4)C3)c2)cc1

$$$$
