FCCCNc1ccc(-c2n[nH]cc2C[NH2+][C@@H]2CC23CCCC3)o1
     RDKit          3D

 50 53  0  0  1  0  0  0  0  0999 V2000
  126.2299  138.5336  166.2440 F   0  0  0  0  0  0  0  0  0  0  0  0
  127.0021  138.2428  165.1141 C   0  0  0  0  0  0  0  0  0  0  0  0
  126.1918  137.3702  164.1536 C   0  0  0  0  0  0  0  0  0  0  0  0
  127.0363  137.0522  162.9179 C   0  0  0  0  0  0  0  0  0  0  0  0
  126.2605  136.2165  161.9981 N   0  0  0  0  0  0  0  0  0  0  0  0
  126.9087  135.3062  161.1714 C   0  0  0  0  0  0  0  0  0  0  0  0
  126.3359  134.2328  160.5719 C   0  0  0  0  0  0  0  0  0  0  0  0
  127.3451  133.5906  159.8275 C   0  0  0  0  0  0  0  0  0  0  0  0
  128.4875  134.3021  160.0173 C   0  0  0  0  0  0  0  0  0  0  0  0
  129.8069  133.9940  159.4279 C   0  0  0  0  0  0  0  0  0  0  0  0
  130.0822  132.9849  158.6251 N   0  0  0  0  0  0  0  0  0  0  0  0
  131.4428  133.0478  158.2989 N   0  0  0  0  0  0  0  0  0  0  0  0
  131.9196  132.4274  157.7256 H   0  0  0  0  0  0  0  0  0  0  0  0
  131.9764  134.1217  158.9206 C   0  0  0  0  0  0  0  0  0  0  0  0
  130.9953  134.7292  159.6217 C   0  0  0  0  0  0  0  0  0  0  0  0
  131.1447  135.9681  160.4666 C   0  0  0  0  0  0  0  0  0  0  0  0
  130.8863  137.1566  159.6428 N   0  0  0  0  0  0  0  0  0  0  0  0
  129.9484  137.1124  159.2735 H   0  0  0  0  0  0  0  0  0  0  0  0
  131.5468  137.1876  158.8807 H   0  0  0  0  0  0  0  0  0  0  0  0
  131.0319  138.3643  160.4663 C   0  0  2  0  0  0  0  0  0  0  0  0
  130.6323  138.2946  161.4781 H   0  0  0  0  0  0  0  0  0  0  0  0
  130.9342  139.7185  159.7592 C   0  0  0  0  0  0  0  0  0  0  0  0
  132.2834  139.2123  160.2599 C   0  0  0  0  0  0  0  0  0  0  0  0
  132.9844  139.8851  161.4531 C   0  0  0  0  0  0  0  0  0  0  0  0
  134.4194  139.2999  161.4254 C   0  0  0  0  0  0  0  0  0  0  0  0
  134.7235  139.2063  159.9092 C   0  0  0  0  0  0  0  0  0  0  0  0
  133.3808  138.7782  159.2787 C   0  0  0  0  0  0  0  0  0  0  0  0
  128.2085  135.3415  160.8317 O   0  0  0  0  0  0  0  0  0  0  0  0
  127.9031  137.7096  165.4173 H   0  0  0  0  0  0  0  0  0  0  0  0
  127.2798  139.1714  164.6152 H   0  0  0  0  0  0  0  0  0  0  0  0
  125.2908  137.9034  163.8504 H   0  0  0  0  0  0  0  0  0  0  0  0
  125.9141  136.4417  164.6525 H   0  0  0  0  0  0  0  0  0  0  0  0
  127.9374  136.5189  163.2211 H   0  0  0  0  0  0  0  0  0  0  0  0
  127.3141  137.9806  162.4189 H   0  0  0  0  0  0  0  0  0  0  0  0
  125.2945  136.2984  161.9659 H   0  0  0  0  0  0  0  0  0  0  0  0
  125.3019  133.9302  160.6477 H   0  0  0  0  0  0  0  0  0  0  0  0
  127.2329  132.7024  159.2234 H   0  0  0  0  0  0  0  0  0  0  0  0
  133.0072  134.4391  158.8662 H   0  0  0  0  0  0  0  0  0  0  0  0
  132.1579  136.0159  160.8656 H   0  0  0  0  0  0  0  0  0  0  0  0
  130.4312  135.9346  161.2900 H   0  0  0  0  0  0  0  0  0  0  0  0
  130.7624  139.7132  158.6828 H   0  0  0  0  0  0  0  0  0  0  0  0
  130.4702  140.5395  160.3057 H   0  0  0  0  0  0  0  0  0  0  0  0
  133.0106  140.9666  161.3204 H   0  0  0  0  0  0  0  0  0  0  0  0
  132.4841  139.6257  162.3860 H   0  0  0  0  0  0  0  0  0  0  0  0
  134.4423  138.3119  161.8853 H   0  0  0  0  0  0  0  0  0  0  0  0
  135.1224  139.9704  161.9195 H   0  0  0  0  0  0  0  0  0  0  0  0
  135.4905  138.4555  159.7197 H   0  0  0  0  0  0  0  0  0  0  0  0
  135.0355  140.1756  159.5203 H   0  0  0  0  0  0  0  0  0  0  0  0
  133.3578  137.6964  159.1466 H   0  0  0  0  0  0  0  0  0  0  0  0
  133.2420  139.2751  158.3186 H   0  0  0  0  0  0  0  0  0  0  0  0
  1  2  1  0
  2  3  1  0
  2 29  1  0
  2 30  1  0
  3  4  1  0
  3 31  1  0
  3 32  1  0
  4  5  1  0
  4 33  1  0
  4 34  1  0
  5  6  1  0
  5 35  1  0
  6 28  1  0
  6  7  2  0
  7  8  1  0
  7 36  1  0
  8  9  2  0
  8 37  1  0
  9 10  1  0
  9 28  1  0
 10 15  1  0
 10 11  2  0
 11 12  1  0
 12 13  1  0
 12 14  1  0
 14 15  2  0
 14 38  1  0
 15 16  1  0
 16 17  1  0
 16 39  1  0
 16 40  1  0
 17 18  1  0
 17 19  1  0
 17 20  1  0
 20 21  1  1
 20 23  1  0
 20 22  1  0
 22 23  1  0
 22 41  1  0
 22 42  1  0
 23 27  1  0
 23 24  1  0
 24 25  1  0
 24 43  1  0
 24 44  1  0
 25 26  1  0
 25 45  1  0
 25 46  1  0
 26 27  1  0
 26 47  1  0
 26 48  1  0
 27 49  1  0
 27 50  1  0
M  CHG  1  17   1
M  END
>  <DOCK_score>  (1) 
-43.955662

>  <SMILES>  (1) 
FCCCNc1ccc(-c2n[nH]cc2C[NH2+][C@@H]2CC23CCCC3)o1

$$$$
