Cc1[nH]c(NCc2noc(-c3cccc(N[C@@H]4C[C@@H](O)C[C@H]4O)c3)n2)[nH+]c1-c1ccccc1
     RDKit          3D

 60 64  0  0  1  0  0  0  0  0999 V2000
  127.9635  134.9251  157.8090 C   0  0  0  0  0  0  0  0  0  0  0  0
  128.8489  134.5737  158.9767 C   0  0  0  0  0  0  0  0  0  0  0  0
  130.1629  134.9368  159.1458 N   0  0  0  0  0  0  0  0  0  0  0  0
  130.6952  135.4690  158.5339 H   0  0  0  0  0  0  0  0  0  0  0  0
  130.5809  134.4095  160.3287 C   0  0  0  0  0  0  0  0  0  0  0  0
  131.8494  134.5424  160.8673 N   0  0  0  0  0  0  0  0  0  0  0  0
  132.8739  135.3048  160.1495 C   0  0  0  0  0  0  0  0  0  0  0  0
  132.8157  136.7491  160.5755 C   0  0  0  0  0  0  0  0  0  0  0  0
  133.5792  137.7086  160.1425 N   0  0  0  0  0  0  0  0  0  0  0  0
  133.2824  138.7587  160.6719 O   0  0  0  0  0  0  0  0  0  0  0  0
  132.2713  138.5619  161.5319 C   0  0  0  0  0  0  0  0  0  0  0  0
  131.6205  139.5842  162.3784 C   0  0  0  0  0  0  0  0  0  0  0  0
  132.0545  140.9105  162.3333 C   0  0  0  0  0  0  0  0  0  0  0  0
  131.4455  141.8631  163.1243 C   0  0  0  0  0  0  0  0  0  0  0  0
  130.4052  141.5093  163.9634 C   0  0  0  0  0  0  0  0  0  0  0  0
  129.9653  140.1920  164.0154 C   0  0  0  0  0  0  0  0  0  0  0  0
  128.9135  139.8396  164.8645 N   0  0  0  0  0  0  0  0  0  0  0  0
  128.4500  138.4509  164.9191 C   0  0  2  0  0  0  0  0  0  0  0  0
  129.3012  137.7710  164.8813 H   0  0  0  0  0  0  0  0  0  0  0  0
  127.4961  138.1670  163.7457 C   0  0  0  0  0  0  0  0  0  0  0  0
  126.1412  137.7676  164.3656 C   0  0  1  0  0  0  0  0  0  0  0  0
  125.4832  138.6336  164.4348 H   0  0  0  0  0  0  0  0  0  0  0  0
  125.5263  136.7306  163.5984 O   0  0  0  0  0  0  0  0  0  0  0  0
  126.5079  137.2511  165.7792 C   0  0  0  0  0  0  0  0  0  0  0  0
  127.6415  138.2140  166.2114 C   0  0  1  0  0  0  0  0  0  0  0  0
  127.2277  139.1527  166.5799 H   0  0  0  0  0  0  0  0  0  0  0  0
  128.4620  137.6044  167.2101 O   0  0  0  0  0  0  0  0  0  0  0  0
  130.5747  139.2262  163.2286 C   0  0  0  0  0  0  0  0  0  0  0  0
  131.9669  137.2778  161.4706 N   0  0  0  0  0  0  0  0  0  0  0  0
  129.5832  133.7598  160.8764 N   0  0  0  0  0  0  0  0  0  0  0  0
  129.6143  133.2941  161.7267 H   0  0  0  0  0  0  0  0  0  0  0  0
  128.4993  133.8434  160.0645 C   0  0  0  0  0  0  0  0  0  0  0  0
  127.1677  133.2429  160.3216 C   0  0  0  0  0  0  0  0  0  0  0  0
  126.1964  133.9650  161.0131 C   0  0  0  0  0  0  0  0  0  0  0  0
  124.9569  133.4036  161.2436 C   0  0  0  0  0  0  0  0  0  0  0  0
  124.6819  132.1222  160.8011 C   0  0  0  0  0  0  0  0  0  0  0  0
  125.6440  131.3987  160.1197 C   0  0  0  0  0  0  0  0  0  0  0  0
  126.8847  131.9523  159.8776 C   0  0  0  0  0  0  0  0  0  0  0  0
  127.4554  135.8685  158.0091 H   0  0  0  0  0  0  0  0  0  0  0  0
  128.5708  135.0233  156.9091 H   0  0  0  0  0  0  0  0  0  0  0  0
  127.2240  134.1377  157.6639 H   0  0  0  0  0  0  0  0  0  0  0  0
  132.0597  134.1307  161.7202 H   0  0  0  0  0  0  0  0  0  0  0  0
  132.6938  135.2348  159.0768 H   0  0  0  0  0  0  0  0  0  0  0  0
  133.8582  134.8973  160.3801 H   0  0  0  0  0  0  0  0  0  0  0  0
  132.8671  141.1908  161.6796 H   0  0  0  0  0  0  0  0  0  0  0  0
  131.7829  142.8884  163.0883 H   0  0  0  0  0  0  0  0  0  0  0  0
  129.9324  142.2594  164.5803 H   0  0  0  0  0  0  0  0  0  0  0  0
  128.4899  140.5143  165.4178 H   0  0  0  0  0  0  0  0  0  0  0  0
  127.3781  139.0624  163.1354 H   0  0  0  0  0  0  0  0  0  0  0  0
  127.8844  137.3492  163.1383 H   0  0  0  0  0  0  0  0  0  0  0  0
  125.2962  136.9926  162.6964 H   0  0  0  0  0  0  0  0  0  0  0  0
  126.8700  136.2241  165.7333 H   0  0  0  0  0  0  0  0  0  0  0  0
  125.6550  137.3314  166.4531 H   0  0  0  0  0  0  0  0  0  0  0  0
  129.2339  138.1306  167.4598 H   0  0  0  0  0  0  0  0  0  0  0  0
  130.2377  138.2011  163.2711 H   0  0  0  0  0  0  0  0  0  0  0  0
  126.4118  134.9635  161.3636 H   0  0  0  0  0  0  0  0  0  0  0  0
  124.2018  133.9641  161.7748 H   0  0  0  0  0  0  0  0  0  0  0  0
  123.7121  131.6851  160.9879 H   0  0  0  0  0  0  0  0  0  0  0  0
  125.4237  130.3988  159.7762 H   0  0  0  0  0  0  0  0  0  0  0  0
  127.6349  131.3869  159.3449 H   0  0  0  0  0  0  0  0  0  0  0  0
  1  2  1  0
  1 39  1  0
  1 40  1  0
  1 41  1  0
  2 32  2  0
  2  3  1  0
  3  4  1  0
  3  5  1  0
  5  6  1  0
  5 30  2  0
  6  7  1  0
  6 42  1  0
  7  8  1  0
  7 43  1  0
  7 44  1  0
  8 29  1  0
  8  9  2  0
  9 10  1  0
 10 11  1  0
 11 12  1  0
 11 29  2  0
 12 28  1  0
 12 13  2  0
 13 14  1  0
 13 45  1  0
 14 15  2  0
 14 46  1  0
 15 16  1  0
 15 47  1  0
 16 17  1  0
 16 28  2  0
 17 18  1  0
 17 48  1  0
 18 19  1  1
 18 25  1  0
 18 20  1  0
 20 21  1  0
 20 49  1  0
 20 50  1  0
 21 22  1  1
 21 23  1  0
 21 24  1  0
 23 51  1  0
 24 25  1  0
 24 52  1  0
 24 53  1  0
 25 26  1  1
 25 27  1  0
 27 54  1  0
 28 55  1  0
 30 31  1  0
 30 32  1  0
 32 33  1  0
 33 38  1  0
 33 34  2  0
 34 35  1  0
 34 56  1  0
 35 36  2  0
 35 57  1  0
 36 37  1  0
 36 58  1  0
 37 38  2  0
 37 59  1  0
 38 60  1  0
M  CHG  1  30   1
M  END
>  <DOCK_score>  (1) 
-41.812

>  <SMILES>  (1) 
Cc1[nH]c(NCc2noc(-c3cccc(N[C@@H]4C[C@@H](O)C[C@H]4O)c3)n2)[nH+]c1-c1ccccc1

$$$$
