C(#Cc1ccc(Oc2ccccc2)cc1)CC1=CC[N@H+](CCNc2cccc(-c3ccccc3)c2)CC1
     RDKit          3D

 70 74  0  0  1  0  0  0  0  0999 V2000
  135.0853  137.5940  161.3804 C   0  0  0  0  0  0  0  0  0  0  0  0
  135.7643  137.2719  162.2824 C   0  0  0  0  0  0  0  0  0  0  0  0
  136.5924  136.8791  163.3826 C   0  0  0  0  0  0  0  0  0  0  0  0
  136.0794  136.0542  164.3850 C   0  0  0  0  0  0  0  0  0  0  0  0
  136.8809  135.6747  165.4402 C   0  0  0  0  0  0  0  0  0  0  0  0
  138.1946  136.1197  165.5118 C   0  0  0  0  0  0  0  0  0  0  0  0
  138.9801  135.7473  166.5557 O   0  0  0  0  0  0  0  0  0  0  0  0
  138.9886  136.5373  167.6613 C   0  0  0  0  0  0  0  0  0  0  0  0
  139.9077  137.5712  167.7697 C   0  0  0  0  0  0  0  0  0  0  0  0
  139.9111  138.3758  168.8925 C   0  0  0  0  0  0  0  0  0  0  0  0
  139.0062  138.1455  169.9124 C   0  0  0  0  0  0  0  0  0  0  0  0
  138.0926  137.1127  169.8091 C   0  0  0  0  0  0  0  0  0  0  0  0
  138.0819  136.3080  168.6863 C   0  0  0  0  0  0  0  0  0  0  0  0
  138.7072  136.9446  164.5190 C   0  0  0  0  0  0  0  0  0  0  0  0
  137.9132  137.3247  163.4582 C   0  0  0  0  0  0  0  0  0  0  0  0
  134.2340  137.9978  160.2495 C   0  0  0  0  0  0  0  0  0  0  0  0
  132.8660  137.3857  160.4069 C   0  0  0  0  0  0  0  0  0  0  0  0
  131.8361  138.1727  160.4933 C   0  0  0  0  0  0  0  0  0  0  0  0
  130.4307  137.6716  160.6588 C   0  0  0  0  0  0  0  0  0  0  0  0
  130.3430  136.2569  160.2787 N   0  0  2  0  0  0  0  0  0  0  0  0
  130.4958  136.1638  159.2856 H   0  0  0  0  0  0  0  0  0  0  0  0
  129.0130  135.7367  160.6225 C   0  0  0  0  0  0  0  0  0  0  0  0
  128.0081  136.1553  159.5475 C   0  0  0  0  0  0  0  0  0  0  0  0
  128.4246  135.6131  158.2520 N   0  0  0  0  0  0  0  0  0  0  0  0
  128.5474  134.2322  158.0796 C   0  0  0  0  0  0  0  0  0  0  0  0
  127.9012  133.3625  158.9504 C   0  0  0  0  0  0  0  0  0  0  0  0
  128.0205  131.9963  158.7830 C   0  0  0  0  0  0  0  0  0  0  0  0
  128.7782  131.4871  157.7469 C   0  0  0  0  0  0  0  0  0  0  0  0
  129.4343  132.3513  156.8725 C   0  0  0  0  0  0  0  0  0  0  0  0
  130.2537  131.8054  155.7621 C   0  0  0  0  0  0  0  0  0  0  0  0
  130.3903  132.5230  154.5757 C   0  0  0  0  0  0  0  0  0  0  0  0
  131.1539  132.0109  153.5463 C   0  0  0  0  0  0  0  0  0  0  0  0
  131.7784  130.7850  153.6889 C   0  0  0  0  0  0  0  0  0  0  0  0
  131.6509  130.0710  154.8667 C   0  0  0  0  0  0  0  0  0  0  0  0
  130.8897  130.5736  155.9024 C   0  0  0  0  0  0  0  0  0  0  0  0
  129.3146  133.7284  157.0399 C   0  0  0  0  0  0  0  0  0  0  0  0
  131.3722  135.4993  161.0086 C   0  0  0  0  0  0  0  0  0  0  0  0
  132.7462  135.8876  160.4582 C   0  0  0  0  0  0  0  0  0  0  0  0
  135.0567  135.7110  164.3321 H   0  0  0  0  0  0  0  0  0  0  0  0
  136.4857  135.0337  166.2144 H   0  0  0  0  0  0  0  0  0  0  0  0
  140.6175  137.7490  166.9753 H   0  0  0  0  0  0  0  0  0  0  0  0
  140.6238  139.1830  168.9757 H   0  0  0  0  0  0  0  0  0  0  0  0
  139.0131  138.7733  170.7912 H   0  0  0  0  0  0  0  0  0  0  0  0
  137.3871  136.9347  170.6072 H   0  0  0  0  0  0  0  0  0  0  0  0
  137.3687  135.5010  168.6065 H   0  0  0  0  0  0  0  0  0  0  0  0
  139.7290  137.2892  164.5785 H   0  0  0  0  0  0  0  0  0  0  0  0
  138.3122  137.9665  162.6868 H   0  0  0  0  0  0  0  0  0  0  0  0
  134.6811  137.6533  159.3171 H   0  0  0  0  0  0  0  0  0  0  0  0
  134.1460  139.0840  160.2307 H   0  0  0  0  0  0  0  0  0  0  0  0
  131.9989  139.2392  160.4440 H   0  0  0  0  0  0  0  0  0  0  0  0
  129.7626  138.2567  160.0267 H   0  0  0  0  0  0  0  0  0  0  0  0
  130.1280  137.7847  161.6997 H   0  0  0  0  0  0  0  0  0  0  0  0
  128.7030  136.1403  161.5865 H   0  0  0  0  0  0  0  0  0  0  0  0
  129.0519  134.6488  160.6796 H   0  0  0  0  0  0  0  0  0  0  0  0
  127.9692  137.2433  159.4904 H   0  0  0  0  0  0  0  0  0  0  0  0
  127.0211  135.7695  159.8026 H   0  0  0  0  0  0  0  0  0  0  0  0
  128.6152  136.2127  157.5137 H   0  0  0  0  0  0  0  0  0  0  0  0
  127.3040  133.7559  159.7597 H   0  0  0  0  0  0  0  0  0  0  0  0
  127.5162  131.3246  159.4619 H   0  0  0  0  0  0  0  0  0  0  0  0
  128.8658  130.4184  157.6168 H   0  0  0  0  0  0  0  0  0  0  0  0
  129.8997  133.4784  154.4618 H   0  0  0  0  0  0  0  0  0  0  0  0
  131.2604  132.5664  152.6263 H   0  0  0  0  0  0  0  0  0  0  0  0
  132.3710  130.3858  152.8791 H   0  0  0  0  0  0  0  0  0  0  0  0
  132.1443  129.1163  154.9743 H   0  0  0  0  0  0  0  0  0  0  0  0
  130.7874  130.0134  156.8201 H   0  0  0  0  0  0  0  0  0  0  0  0
  129.8179  134.4021  156.3623 H   0  0  0  0  0  0  0  0  0  0  0  0
  131.3230  135.7438  162.0697 H   0  0  0  0  0  0  0  0  0  0  0  0
  131.2086  134.4309  160.8685 H   0  0  0  0  0  0  0  0  0  0  0  0
  132.8613  135.4796  159.4541 H   0  0  0  0  0  0  0  0  0  0  0  0
  133.5246  135.4832  161.1055 H   0  0  0  0  0  0  0  0  0  0  0  0
  1  2  3  0
  1 16  1  0
  2  3  1  0
  3 15  1  0
  3  4  2  0
  4  5  1  0
  4 39  1  0
  5  6  2  0
  5 40  1  0
  6  7  1  0
  6 14  1  0
  7  8  1  0
  8 13  1  0
  8  9  2  0
  9 10  1  0
  9 41  1  0
 10 11  2  0
 10 42  1  0
 11 12  1  0
 11 43  1  0
 12 13  2  0
 12 44  1  0
 13 45  1  0
 14 15  2  0
 14 46  1  0
 15 47  1  0
 16 17  1  0
 16 48  1  0
 16 49  1  0
 17 38  1  0
 17 18  2  0
 18 19  1  0
 18 50  1  0
 19 20  1  0
 19 51  1  0
 19 52  1  0
 20 21  1  6
 20 22  1  0
 20 37  1  0
 22 23  1  0
 22 53  1  0
 22 54  1  0
 23 24  1  0
 23 55  1  0
 23 56  1  0
 24 25  1  0
 24 57  1  0
 25 36  1  0
 25 26  2  0
 26 27  1  0
 26 58  1  0
 27 28  2  0
 27 59  1  0
 28 29  1  0
 28 60  1  0
 29 30  1  0
 29 36  2  0
 30 35  1  0
 30 31  2  0
 31 32  1  0
 31 61  1  0
 32 33  2  0
 32 62  1  0
 33 34  1  0
 33 63  1  0
 34 35  2  0
 34 64  1  0
 35 65  1  0
 36 66  1  0
 37 38  1  0
 37 67  1  0
 37 68  1  0
 38 69  1  0
 38 70  1  0
M  CHG  1  20   1
M  END
>  <DOCK_score>  (1) 
-56.085335

>  <SMILES>  (1) 
C(#Cc1ccc(Oc2ccccc2)cc1)CC1=CC[N@H+](CCNc2cccc(-c3ccccc3)c2)CC1

$$$$
