Cn1nccc1-c1nnc(Nc2ccc(-c3n[nH]cc3C[NH2+][C@@H]3C=CCC3)o2)s1
     RDKit          3D

 50 54  0  0  1  0  0  0  0  0999 V2000
  129.9579  141.3221  162.1686 C   0  0  0  0  0  0  0  0  0  0  0  0
  129.0801  141.4864  163.3300 N   0  0  0  0  0  0  0  0  0  0  0  0
  129.0941  142.5592  164.2301 N   0  0  0  0  0  0  0  0  0  0  0  0
  128.1737  142.3587  165.1389 C   0  0  0  0  0  0  0  0  0  0  0  0
  127.5258  141.1557  164.8618 C   0  0  0  0  0  0  0  0  0  0  0  0
  128.1002  140.6229  163.7266 C   0  0  0  0  0  0  0  0  0  0  0  0
  127.7302  139.3573  163.0697 C   0  0  0  0  0  0  0  0  0  0  0  0
  128.5311  138.5785  162.3959 N   0  0  0  0  0  0  0  0  0  0  0  0
  128.0436  137.5280  161.8970 N   0  0  0  0  0  0  0  0  0  0  0  0
  126.7749  137.2969  162.0911 C   0  0  0  0  0  0  0  0  0  0  0  0
  126.0629  136.2052  161.6202 N   0  0  0  0  0  0  0  0  0  0  0  0
  126.7043  135.2303  160.8643 C   0  0  0  0  0  0  0  0  0  0  0  0
  126.1223  134.1218  160.3422 C   0  0  0  0  0  0  0  0  0  0  0  0
  127.1278  133.4146  159.6549 C   0  0  0  0  0  0  0  0  0  0  0  0
  128.2761  134.1289  159.7924 C   0  0  0  0  0  0  0  0  0  0  0  0
  129.5941  133.7648  159.2329 C   0  0  0  0  0  0  0  0  0  0  0  0
  129.8619  132.6955  158.5094 N   0  0  0  0  0  0  0  0  0  0  0  0
  131.2227  132.7240  158.1788 N   0  0  0  0  0  0  0  0  0  0  0  0
  131.6941  132.0600  157.6518 H   0  0  0  0  0  0  0  0  0  0  0  0
  131.7652  133.8359  158.7209 C   0  0  0  0  0  0  0  0  0  0  0  0
  130.7886  134.5025  159.3728 C   0  0  0  0  0  0  0  0  0  0  0  0
  130.9470  135.8019  160.1196 C   0  0  0  0  0  0  0  0  0  0  0  0
  132.3431  136.2501  160.0321 N   0  0  0  0  0  0  0  0  0  0  0  0
  132.9466  135.5519  160.4400 H   0  0  0  0  0  0  0  0  0  0  0  0
  132.5926  136.3861  159.0638 H   0  0  0  0  0  0  0  0  0  0  0  0
  132.4974  137.5165  160.7602 C   0  0  2  0  0  0  0  0  0  0  0  0
  132.2313  137.3855  161.8091 H   0  0  0  0  0  0  0  0  0  0  0  0
  131.6435  138.5927  160.1311 C   0  0  0  0  0  0  0  0  0  0  0  0
  132.3700  139.3982  159.3999 C   0  0  0  0  0  0  0  0  0  0  0  0
  133.8252  138.9920  159.4229 C   0  0  0  0  0  0  0  0  0  0  0  0
  133.9478  138.0376  160.6333 C   0  0  0  0  0  0  0  0  0  0  0  0
  128.0045  135.2305  160.5228 O   0  0  0  0  0  0  0  0  0  0  0  0
  126.1244  138.6254  163.0533 S   0  0  0  0  0  0  0  0  0  0  0  0
  129.5293  141.8431  161.3126 H   0  0  0  0  0  0  0  0  0  0  0  0
  130.9397  141.7390  162.3934 H   0  0  0  0  0  0  0  0  0  0  0  0
  130.0580  140.2619  161.9359 H   0  0  0  0  0  0  0  0  0  0  0  0
  127.9523  143.0167  165.9662 H   0  0  0  0  0  0  0  0  0  0  0  0
  126.7193  140.7198  165.4327 H   0  0  0  0  0  0  0  0  0  0  0  0
  125.1170  136.1212  161.8180 H   0  0  0  0  0  0  0  0  0  0  0  0
  125.0851  133.8358  160.4362 H   0  0  0  0  0  0  0  0  0  0  0  0
  127.0092  132.4833  159.1210 H   0  0  0  0  0  0  0  0  0  0  0  0
  132.7984  134.1405  158.6431 H   0  0  0  0  0  0  0  0  0  0  0  0
  130.2949  136.5560  159.6790 H   0  0  0  0  0  0  0  0  0  0  0  0
  130.6773  135.6549  161.1655 H   0  0  0  0  0  0  0  0  0  0  0  0
  130.5762  138.6835  160.2678 H   0  0  0  0  0  0  0  0  0  0  0  0
  131.9802  140.2436  158.8523 H   0  0  0  0  0  0  0  0  0  0  0  0
  134.4613  139.8661  159.5626 H   0  0  0  0  0  0  0  0  0  0  0  0
  134.0910  138.4733  158.5018 H   0  0  0  0  0  0  0  0  0  0  0  0
  134.2488  138.5793  161.5299 H   0  0  0  0  0  0  0  0  0  0  0  0
  134.6392  137.2222  160.4203 H   0  0  0  0  0  0  0  0  0  0  0  0
  1  2  1  0
  1 34  1  0
  1 35  1  0
  1 36  1  0
  2  6  1  0
  2  3  1  0
  3  4  2  0
  4  5  1  0
  4 37  1  0
  5  6  2  0
  5 38  1  0
  6  7  1  0
  7 33  1  0
  7  8  2  0
  8  9  1  0
  9 10  2  0
 10 11  1  0
 10 33  1  0
 11 12  1  0
 11 39  1  0
 12 32  1  0
 12 13  2  0
 13 14  1  0
 13 40  1  0
 14 15  2  0
 14 41  1  0
 15 16  1  0
 15 32  1  0
 16 21  1  0
 16 17  2  0
 17 18  1  0
 18 19  1  0
 18 20  1  0
 20 21  2  0
 20 42  1  0
 21 22  1  0
 22 23  1  0
 22 43  1  0
 22 44  1  0
 23 24  1  0
 23 25  1  0
 23 26  1  0
 26 27  1  1
 26 31  1  0
 26 28  1  0
 28 29  2  0
 28 45  1  0
 29 30  1  0
 29 46  1  0
 30 31  1  0
 30 47  1  0
 30 48  1  0
 31 49  1  0
 31 50  1  0
M  CHG  1  23   1
M  END
>  <DOCK_score>  (1) 
-44.97052

>  <SMILES>  (1) 
Cn1nccc1-c1nnc(Nc2ccc(-c3n[nH]cc3C[NH2+][C@@H]3C=CCC3)o2)s1

$$$$
