Oc1cccc(N[C@H](F)CNc2[nH]cc(-c3ccccc3)[nH+]2)c1
     RDKit          3D

 41 43  0  0  1  0  0  0  0  0999 V2000
  124.6343  134.7695  163.1081 O   0  0  0  0  0  0  0  0  0  0  0  0
  125.0396  134.2261  161.9302 C   0  0  0  0  0  0  0  0  0  0  0  0
  124.6364  132.9443  161.5816 C   0  0  0  0  0  0  0  0  0  0  0  0
  125.0472  132.3905  160.3843 C   0  0  0  0  0  0  0  0  0  0  0  0
  125.8610  133.1099  159.5305 C   0  0  0  0  0  0  0  0  0  0  0  0
  126.2677  134.3932  159.8740 C   0  0  0  0  0  0  0  0  0  0  0  0
  127.0899  135.1209  159.0108 N   0  0  0  0  0  0  0  0  0  0  0  0
  128.0311  136.1046  159.5516 C   0  0  2  0  0  0  0  0  0  0  0  0
  127.5583  136.6490  160.3691 H   0  0  0  0  0  0  0  0  0  0  0  0
  128.3972  137.0030  158.5435 F   0  0  0  0  0  0  0  0  0  0  0  0
  129.2777  135.3856  160.0714 C   0  0  0  0  0  0  0  0  0  0  0  0
  130.1605  135.0644  158.9472 N   0  0  0  0  0  0  0  0  0  0  0  0
  130.0244  133.8573  158.2831 C   0  0  0  0  0  0  0  0  0  0  0  0
  129.4156  132.7451  158.7772 N   0  0  0  0  0  0  0  0  0  0  0  0
  129.0024  132.6561  159.6503 H   0  0  0  0  0  0  0  0  0  0  0  0
  129.4914  131.7723  157.8101 C   0  0  0  0  0  0  0  0  0  0  0  0
  130.1514  132.3152  156.7571 C   0  0  0  0  0  0  0  0  0  0  0  0
  130.4720  131.6304  155.4810 C   0  0  0  0  0  0  0  0  0  0  0  0
  129.9789  132.1290  154.2764 C   0  0  0  0  0  0  0  0  0  0  0  0
  130.2856  131.4913  153.0916 C   0  0  0  0  0  0  0  0  0  0  0  0
  131.0706  130.3522  153.0992 C   0  0  0  0  0  0  0  0  0  0  0  0
  131.5580  129.8497  154.2921 C   0  0  0  0  0  0  0  0  0  0  0  0
  131.2629  130.4827  155.4825 C   0  0  0  0  0  0  0  0  0  0  0  0
  130.4656  133.5956  157.0770 N   0  0  0  0  0  0  0  0  0  0  0  0
  130.9409  134.2180  156.5046 H   0  0  0  0  0  0  0  0  0  0  0  0
  125.8600  134.9492  161.0791 C   0  0  0  0  0  0  0  0  0  0  0  0
  124.9688  135.6632  163.2648 H   0  0  0  0  0  0  0  0  0  0  0  0
  124.0006  132.3794  162.2471 H   0  0  0  0  0  0  0  0  0  0  0  0
  124.7318  131.3931  160.1154 H   0  0  0  0  0  0  0  0  0  0  0  0
  126.1810  132.6746  158.5952 H   0  0  0  0  0  0  0  0  0  0  0  0
  127.0377  134.9749  158.0533 H   0  0  0  0  0  0  0  0  0  0  0  0
  128.9827  134.4656  160.5759 H   0  0  0  0  0  0  0  0  0  0  0  0
  129.8040  136.0323  160.7733 H   0  0  0  0  0  0  0  0  0  0  0  0
  130.8378  135.6992  158.6657 H   0  0  0  0  0  0  0  0  0  0  0  0
  129.1040  130.7666  157.8775 H   0  0  0  0  0  0  0  0  0  0  0  0
  129.3620  133.0154  154.2699 H   0  0  0  0  0  0  0  0  0  0  0  0
  129.9084  131.8797  152.1571 H   0  0  0  0  0  0  0  0  0  0  0  0
  131.3042  129.8537  152.1700 H   0  0  0  0  0  0  0  0  0  0  0  0
  132.1709  128.9605  154.2920 H   0  0  0  0  0  0  0  0  0  0  0  0
  131.6441  130.0896  156.4133 H   0  0  0  0  0  0  0  0  0  0  0  0
  126.1783  135.9447  161.3509 H   0  0  0  0  0  0  0  0  0  0  0  0
  1  2  1  0
  1 27  1  0
  2 26  2  0
  2  3  1  0
  3  4  2  0
  3 28  1  0
  4  5  1  0
  4 29  1  0
  5  6  2  0
  5 30  1  0
  6  7  1  0
  6 26  1  0
  7  8  1  0
  7 31  1  0
  8  9  1  1
  8 10  1  0
  8 11  1  0
 11 12  1  0
 11 32  1  0
 11 33  1  0
 12 34  1  0
 13 12  1  0
 13 24  2  0
 13 14  1  0
 14 15  1  0
 14 16  1  0
 16 17  2  0
 16 35  1  0
 17 18  1  0
 17 24  1  0
 18 23  1  0
 18 19  2  0
 19 20  1  0
 19 36  1  0
 20 21  2  0
 20 37  1  0
 21 22  1  0
 21 38  1  0
 22 23  2  0
 22 39  1  0
 23 40  1  0
 24 25  1  0
 26 41  1  0
M  CHG  1  24   1
M  END
>  <DOCK_score>  (1) 
-55.617554

>  <SMILES>  (1) 
Oc1cccc(N[C@H](F)CNc2[nH]cc(-c3ccccc3)[nH+]2)c1

$$$$
