CCSc1ccc(N)cc1Nc1[nH]cc(-c2ccc(-c3ccccc3)cc2)[nH+]1
     RDKit          3D

 51 54  0  0  1  0  0  0  0  0999 V2000
  133.5388  138.9774  161.0958 C   0  0  0  0  0  0  0  0  0  0  0  0
  134.5529  138.0051  161.7018 C   0  0  0  0  0  0  0  0  0  0  0  0
  134.0628  136.3017  161.3155 S   0  0  0  0  0  0  0  0  0  0  0  0
  132.4704  136.1694  162.0580 C   0  0  0  0  0  0  0  0  0  0  0  0
  132.3236  136.3585  163.4240 C   0  0  0  0  0  0  0  0  0  0  0  0
  131.0756  136.2492  164.0082 C   0  0  0  0  0  0  0  0  0  0  0  0
  129.9646  135.9551  163.2287 C   0  0  0  0  0  0  0  0  0  0  0  0
  128.7022  135.8453  163.8234 N   0  0  0  0  0  0  0  0  0  0  0  0
  130.1049  135.7696  161.8599 C   0  0  0  0  0  0  0  0  0  0  0  0
  131.3555  135.8786  161.2716 C   0  0  0  0  0  0  0  0  0  0  0  0
  131.5000  135.6914  159.8914 N   0  0  0  0  0  0  0  0  0  0  0  0
  131.1380  134.4857  159.3144 C   0  0  0  0  0  0  0  0  0  0  0  0
  130.6373  133.4077  159.9782 N   0  0  0  0  0  0  0  0  0  0  0  0
  130.4707  133.3468  160.9320 H   0  0  0  0  0  0  0  0  0  0  0  0
  130.4110  132.4228  159.0487 C   0  0  0  0  0  0  0  0  0  0  0  0
  130.7796  132.9262  157.8438 C   0  0  0  0  0  0  0  0  0  0  0  0
  130.7122  132.2165  156.5440 C   0  0  0  0  0  0  0  0  0  0  0  0
  129.9328  132.7311  155.5079 C   0  0  0  0  0  0  0  0  0  0  0  0
  129.8705  132.0718  154.3002 C   0  0  0  0  0  0  0  0  0  0  0  0
  130.5868  130.8898  154.1131 C   0  0  0  0  0  0  0  0  0  0  0  0
  130.5200  130.1797  152.8130 C   0  0  0  0  0  0  0  0  0  0  0  0
  130.6674  128.7951  152.7632 C   0  0  0  0  0  0  0  0  0  0  0  0
  130.5986  128.1394  151.5507 C   0  0  0  0  0  0  0  0  0  0  0  0
  130.3942  128.8554  150.3848 C   0  0  0  0  0  0  0  0  0  0  0  0
  130.2524  130.2307  150.4274 C   0  0  0  0  0  0  0  0  0  0  0  0
  130.3141  130.8964  151.6347 C   0  0  0  0  0  0  0  0  0  0  0  0
  131.3616  130.3723  155.1508 C   0  0  0  0  0  0  0  0  0  0  0  0
  131.4286  131.0343  156.3567 C   0  0  0  0  0  0  0  0  0  0  0  0
  131.2263  134.1921  158.0399 N   0  0  0  0  0  0  0  0  0  0  0  0
  131.5559  134.7860  157.3474 H   0  0  0  0  0  0  0  0  0  0  0  0
  133.5094  138.8442  160.0144 H   0  0  0  0  0  0  0  0  0  0  0  0
  132.5516  138.7798  161.5133 H   0  0  0  0  0  0  0  0  0  0  0  0
  133.8333  140.0009  161.3279 H   0  0  0  0  0  0  0  0  0  0  0  0
  134.5823  138.1382  162.7833 H   0  0  0  0  0  0  0  0  0  0  0  0
  135.5401  138.2026  161.2843 H   0  0  0  0  0  0  0  0  0  0  0  0
  133.1860  136.5869  164.0329 H   0  0  0  0  0  0  0  0  0  0  0  0
  130.9644  136.3925  165.0729 H   0  0  0  0  0  0  0  0  0  0  0  0
  127.9259  135.6394  163.2794 H   0  0  0  0  0  0  0  0  0  0  0  0
  128.6036  135.9748  164.7798 H   0  0  0  0  0  0  0  0  0  0  0  0
  129.2404  135.5409  161.2542 H   0  0  0  0  0  0  0  0  0  0  0  0
  131.8535  136.4065  159.3394 H   0  0  0  0  0  0  0  0  0  0  0  0
  130.0154  131.4362  159.2400 H   0  0  0  0  0  0  0  0  0  0  0  0
  129.3777  133.6462  155.6528 H   0  0  0  0  0  0  0  0  0  0  0  0
  129.2673  132.4704  153.4979 H   0  0  0  0  0  0  0  0  0  0  0  0
  130.8316  128.2357  153.6723 H   0  0  0  0  0  0  0  0  0  0  0  0
  130.7088  127.0657  151.5117 H   0  0  0  0  0  0  0  0  0  0  0  0
  130.3467  128.3380  149.4380 H   0  0  0  0  0  0  0  0  0  0  0  0
  130.0933  130.7846  149.5140 H   0  0  0  0  0  0  0  0  0  0  0  0
  130.2037  131.9703  151.6667 H   0  0  0  0  0  0  0  0  0  0  0  0
  131.9127  129.4546  155.0073 H   0  0  0  0  0  0  0  0  0  0  0  0
  132.0321  130.6358  157.1588 H   0  0  0  0  0  0  0  0  0  0  0  0
  1  2  1  0
  1 31  1  0
  1 32  1  0
  1 33  1  0
  2  3  1  0
  2 34  1  0
  2 35  1  0
  3  4  1  0
  4 10  2  0
  4  5  1  0
  5  6  2  0
  5 36  1  0
  6  7  1  0
  6 37  1  0
  7  8  1  0
  7  9  2  0
  8 38  1  0
  8 39  1  0
  9 10  1  0
  9 40  1  0
 10 11  1  0
 11 41  1  0
 12 11  1  0
 12 29  2  0
 12 13  1  0
 13 14  1  0
 13 15  1  0
 15 16  2  0
 15 42  1  0
 16 17  1  0
 16 29  1  0
 17 28  1  0
 17 18  2  0
 18 19  1  0
 18 43  1  0
 19 20  2  0
 19 44  1  0
 20 21  1  0
 20 27  1  0
 21 26  1  0
 21 22  2  0
 22 23  1  0
 22 45  1  0
 23 24  2  0
 23 46  1  0
 24 25  1  0
 24 47  1  0
 25 26  2  0
 25 48  1  0
 26 49  1  0
 27 28  2  0
 27 50  1  0
 28 51  1  0
 29 30  1  0
M  CHG  1  29   1
M  END
>  <DOCK_score>  (1) 
-58.239719

>  <SMILES>  (1) 
CCSc1ccc(N)cc1Nc1[nH]cc(-c2ccc(-c3ccccc3)cc2)[nH+]1

$$$$
