CC1(C)C([NH2+]C2CC(O)(CC(F)(F)F)C(=O)c3ccc(O)cc32)C[C@H]1O
     RDKit          3D

 49 51  0  0  1  0  0  0  0  0999 V2000
  130.3082  138.5591  160.0989 C   0  0  0  0  0  0  0  0  0  0  0  0
  130.4732  137.2970  160.9478 C   0  0  0  0  0  0  0  0  0  0  0  0
  129.7025  137.3637  162.2678 C   0  0  0  0  0  0  0  0  0  0  0  0
  130.2424  135.9936  160.1649 C   0  0  2  0  0  0  0  0  0  0  0  0
  128.9597  135.3448  160.4674 N   0  0  0  0  0  0  0  0  0  0  0  0
  129.0382  134.8310  161.3322 H   0  0  0  0  0  0  0  0  0  0  0  0
  128.2406  136.0470  160.5574 H   0  0  0  0  0  0  0  0  0  0  0  0
  128.6093  134.4218  159.3796 C   0  0  1  0  0  0  0  0  0  0  0  0
  129.7217  133.3886  159.2227 C   0  0  0  0  0  0  0  0  0  0  0  0
  129.3048  132.3476  158.1753 C   0  0  1  0  0  0  0  0  0  0  0  0
  128.9729  132.9996  156.9479 O   0  0  0  0  0  0  0  0  0  0  0  0
  130.4467  131.3556  157.9449 C   0  0  0  0  0  0  0  0  0  0  0  0
  131.1091  131.0206  159.2828 C   0  0  0  0  0  0  0  0  0  0  0  0
  130.1631  130.4513  160.1419 F   0  0  0  0  0  0  0  0  0  0  0  0
  132.1533  130.1138  159.0721 F   0  0  0  0  0  0  0  0  0  0  0  0
  131.6166  132.1908  159.8577 F   0  0  0  0  0  0  0  0  0  0  0  0
  128.0923  131.6198  158.7178 C   0  0  0  0  0  0  0  0  0  0  0  0
  127.9840  130.4162  158.6135 O   0  0  0  0  0  0  0  0  0  0  0  0
  127.0491  132.4249  159.3760 C   0  0  0  0  0  0  0  0  0  0  0  0
  125.8126  131.8430  159.6790 C   0  0  0  0  0  0  0  0  0  0  0  0
  124.8423  132.5831  160.2932 C   0  0  0  0  0  0  0  0  0  0  0  0
  125.0827  133.9140  160.6176 C   0  0  0  0  0  0  0  0  0  0  0  0
  124.1167  134.6443  161.2290 O   0  0  0  0  0  0  0  0  0  0  0  0
  126.3066  134.4996  160.3185 C   0  0  0  0  0  0  0  0  0  0  0  0
  127.2953  133.7621  159.6972 C   0  0  0  0  0  0  0  0  0  0  0  0
  131.4293  135.4062  160.9467 C   0  0  0  0  0  0  0  0  0  0  0  0
  131.9358  136.8509  161.1103 C   0  0  1  0  0  0  0  0  0  0  0  0
  132.3492  137.0604  162.0968 H   0  0  0  0  0  0  0  0  0  0  0  0
  132.7876  137.2825  160.0471 O   0  0  0  0  0  0  0  0  0  0  0  0
  130.5124  139.4378  160.7108 H   0  0  0  0  0  0  0  0  0  0  0  0
  129.2880  138.6105  159.7186 H   0  0  0  0  0  0  0  0  0  0  0  0
  131.0066  138.5285  159.2626 H   0  0  0  0  0  0  0  0  0  0  0  0
  128.6325  137.3163  162.0665 H   0  0  0  0  0  0  0  0  0  0  0  0
  129.9910  136.5238  162.8998 H   0  0  0  0  0  0  0  0  0  0  0  0
  129.9353  138.2987  162.7775 H   0  0  0  0  0  0  0  0  0  0  0  0
  130.4283  136.0882  159.0950 H   0  0  0  0  0  0  0  0  0  0  0  0
  128.5111  134.9847  158.4514 H   0  0  0  0  0  0  0  0  0  0  0  0
  130.6360  133.8851  158.8980 H   0  0  0  0  0  0  0  0  0  0  0  0
  129.8958  132.8936  160.1781 H   0  0  0  0  0  0  0  0  0  0  0  0
  129.6995  133.5097  156.5645 H   0  0  0  0  0  0  0  0  0  0  0  0
  130.0512  130.4440  157.4969 H   0  0  0  0  0  0  0  0  0  0  0  0
  131.1838  131.7992  157.2754 H   0  0  0  0  0  0  0  0  0  0  0  0
  125.6258  130.8094  159.4277 H   0  0  0  0  0  0  0  0  0  0  0  0
  123.8880  132.1344  160.5267 H   0  0  0  0  0  0  0  0  0  0  0  0
  124.3730  135.5579  161.4157 H   0  0  0  0  0  0  0  0  0  0  0  0
  126.4856  135.5338  160.5735 H   0  0  0  0  0  0  0  0  0  0  0  0
  131.1427  134.9363  161.8875 H   0  0  0  0  0  0  0  0  0  0  0  0
  132.0835  134.7791  160.3411 H   0  0  0  0  0  0  0  0  0  0  0  0
  132.5252  136.9561  159.1756 H   0  0  0  0  0  0  0  0  0  0  0  0
  1  2  1  0
  1 30  1  0
  1 31  1  0
  1 32  1  0
  2 27  1  0
  2  3  1  0
  2  4  1  0
  3 33  1  0
  3 34  1  0
  3 35  1  0
  4  5  1  0
  4 26  1  0
  4 36  1  6
  5  6  1  0
  5  7  1  0
  5  8  1  0
  8 25  1  0
  8  9  1  0
  8 37  1  6
  9 10  1  0
  9 38  1  0
  9 39  1  0
 10 11  1  6
 10 12  1  0
 10 17  1  0
 11 40  1  0
 12 13  1  0
 12 41  1  0
 12 42  1  0
 13 14  1  0
 13 15  1  0
 13 16  1  0
 17 18  2  0
 17 19  1  0
 19 25  2  0
 19 20  1  0
 20 21  2  0
 20 43  1  0
 21 22  1  0
 21 44  1  0
 22 23  1  0
 22 24  2  0
 23 45  1  0
 24 25  1  0
 24 46  1  0
 26 27  1  0
 26 47  1  0
 26 48  1  0
 27 28  1  1
 27 29  1  0
 29 49  1  0
M  CHG  1   5   1
M  END
>  <DOCK_score>  (1) 
-43.172607

>  <SMILES>  (1) 
CC1(C)C([NH2+]C2CC(O)(CC(F)(F)F)C(=O)c3ccc(O)cc32)C[C@H]1O

$$$$
