Nc1ccc(-c2c[nH]c(NC(c3ccc(F)cc3)[C@@H](c3ccccc3)c3ccc(F)cc3)[nH+]2)cc1
     RDKit          3D

 60 64  0  0  1  0  0  0  0  0999 V2000
  131.5344  129.7313  151.9270 N   0  0  0  0  0  0  0  0  0  0  0  0
  131.2445  130.3877  153.1256 C   0  0  0  0  0  0  0  0  0  0  0  0
  130.8087  131.7077  153.1063 C   0  0  0  0  0  0  0  0  0  0  0  0
  130.5224  132.3574  154.2884 C   0  0  0  0  0  0  0  0  0  0  0  0
  130.6699  131.6895  155.5031 C   0  0  0  0  0  0  0  0  0  0  0  0
  130.3624  132.3865  156.7761 C   0  0  0  0  0  0  0  0  0  0  0  0
  129.9074  131.8061  157.9139 C   0  0  0  0  0  0  0  0  0  0  0  0
  129.7634  132.8091  158.8430 N   0  0  0  0  0  0  0  0  0  0  0  0
  129.4572  132.7056  159.7576 H   0  0  0  0  0  0  0  0  0  0  0  0
  130.1263  133.9744  158.2415 C   0  0  0  0  0  0  0  0  0  0  0  0
  130.1212  135.2246  158.8363 N   0  0  0  0  0  0  0  0  0  0  0  0
  129.6987  135.3703  160.2314 C   0  0  2  0  0  0  0  0  0  0  0  0
  128.2776  134.8913  160.3786 C   0  0  0  0  0  0  0  0  0  0  0  0
  127.8531  134.3456  161.5757 C   0  0  0  0  0  0  0  0  0  0  0  0
  126.5514  133.9015  161.7104 C   0  0  0  0  0  0  0  0  0  0  0  0
  125.6693  134.0125  160.6489 C   0  0  0  0  0  0  0  0  0  0  0  0
  124.3954  133.5826  160.7806 F   0  0  0  0  0  0  0  0  0  0  0  0
  126.0956  134.5594  159.4502 C   0  0  0  0  0  0  0  0  0  0  0  0
  127.3991  134.9983  159.3165 C   0  0  0  0  0  0  0  0  0  0  0  0
  129.7857  136.8423  160.6395 C   0  0  1  0  0  0  0  0  0  0  0  0
  129.1339  137.4362  159.9986 H   0  0  0  0  0  0  0  0  0  0  0  0
  129.3510  136.9923  162.0747 C   0  0  0  0  0  0  0  0  0  0  0  0
  128.0229  137.2329  162.3732 C   0  0  0  0  0  0  0  0  0  0  0  0
  127.6236  137.3664  163.6899 C   0  0  0  0  0  0  0  0  0  0  0  0
  128.5538  137.2674  164.7075 C   0  0  0  0  0  0  0  0  0  0  0  0
  129.8827  137.0319  164.4090 C   0  0  0  0  0  0  0  0  0  0  0  0
  130.2814  136.8945  163.0924 C   0  0  0  0  0  0  0  0  0  0  0  0
  131.2069  137.3212  160.4925 C   0  0  0  0  0  0  0  0  0  0  0  0
  131.4615  138.6446  160.1839 C   0  0  0  0  0  0  0  0  0  0  0  0
  132.7646  139.0860  160.0544 C   0  0  0  0  0  0  0  0  0  0  0  0
  133.8152  138.2001  160.2231 C   0  0  0  0  0  0  0  0  0  0  0  0
  135.0894  138.6295  160.0913 F   0  0  0  0  0  0  0  0  0  0  0  0
  133.5589  136.8737  160.5267 C   0  0  0  0  0  0  0  0  0  0  0  0
  132.2550  136.4357  160.6607 C   0  0  0  0  0  0  0  0  0  0  0  0
  130.4869  133.7173  157.0078 N   0  0  0  0  0  0  0  0  0  0  0  0
  130.7939  134.3741  156.3632 H   0  0  0  0  0  0  0  0  0  0  0  0
  131.1120  130.3676  155.5200 C   0  0  0  0  0  0  0  0  0  0  0  0
  131.3917  129.7201  154.3352 C   0  0  0  0  0  0  0  0  0  0  0  0
  131.4314  130.1974  151.0818 H   0  0  0  0  0  0  0  0  0  0  0  0
  131.8383  128.8110  151.9390 H   0  0  0  0  0  0  0  0  0  0  0  0
  130.6947  132.2248  152.1650 H   0  0  0  0  0  0  0  0  0  0  0  0
  130.1840  133.3828  154.2732 H   0  0  0  0  0  0  0  0  0  0  0  0
  129.7018  130.7564  158.0630 H   0  0  0  0  0  0  0  0  0  0  0  0
  130.3974  136.0040  158.3291 H   0  0  0  0  0  0  0  0  0  0  0  0
  130.3506  134.7766  160.8723 H   0  0  0  0  0  0  0  0  0  0  0  0
  128.5403  134.2621  162.4047 H   0  0  0  0  0  0  0  0  0  0  0  0
  126.2213  133.4711  162.6443 H   0  0  0  0  0  0  0  0  0  0  0  0
  125.4097  134.6424  158.6202 H   0  0  0  0  0  0  0  0  0  0  0  0
  127.7318  135.4247  158.3817 H   0  0  0  0  0  0  0  0  0  0  0  0
  127.2968  137.3137  161.5778 H   0  0  0  0  0  0  0  0  0  0  0  0
  126.5854  137.5508  163.9231 H   0  0  0  0  0  0  0  0  0  0  0  0
  128.2422  137.3744  165.7361 H   0  0  0  0  0  0  0  0  0  0  0  0
  130.6095  136.9550  165.2040 H   0  0  0  0  0  0  0  0  0  0  0  0
  131.3198  136.7105  162.8590 H   0  0  0  0  0  0  0  0  0  0  0  0
  130.6418  139.3344  160.0480 H   0  0  0  0  0  0  0  0  0  0  0  0
  132.9634  140.1208  159.8174 H   0  0  0  0  0  0  0  0  0  0  0  0
  134.3775  136.1817  160.6581 H   0  0  0  0  0  0  0  0  0  0  0  0
  132.0548  135.4011  160.8974 H   0  0  0  0  0  0  0  0  0  0  0  0
  131.2315  129.8498  156.4603 H   0  0  0  0  0  0  0  0  0  0  0  0
  131.7299  128.6944  154.3476 H   0  0  0  0  0  0  0  0  0  0  0  0
  1  2  1  0
  1 39  1  0
  1 40  1  0
  2 38  2  0
  2  3  1  0
  3  4  2  0
  3 41  1  0
  4  5  1  0
  4 42  1  0
  5  6  1  0
  5 37  2  0
  6 35  1  0
  6  7  2  0
  7  8  1  0
  7 43  1  0
  8  9  1  0
  8 10  1  0
 10 11  1  0
 10 35  2  0
 11 12  1  0
 11 44  1  0
 12 13  1  0
 12 20  1  0
 12 45  1  1
 13 19  1  0
 13 14  2  0
 14 15  1  0
 14 46  1  0
 15 16  2  0
 15 47  1  0
 16 17  1  0
 16 18  1  0
 18 19  2  0
 18 48  1  0
 19 49  1  0
 20 21  1  6
 20 22  1  0
 20 28  1  0
 22 27  1  0
 22 23  2  0
 23 24  1  0
 23 50  1  0
 24 25  2  0
 24 51  1  0
 25 26  1  0
 25 52  1  0
 26 27  2  0
 26 53  1  0
 27 54  1  0
 28 34  1  0
 28 29  2  0
 29 30  1  0
 29 55  1  0
 30 31  2  0
 30 56  1  0
 31 32  1  0
 31 33  1  0
 33 34  2  0
 33 57  1  0
 34 58  1  0
 35 36  1  0
 37 38  1  0
 37 59  1  0
 38 60  1  0
M  CHG  1  35   1
M  END
>  <DOCK_score>  (1) 
-60.11557

>  <SMILES>  (1) 
Nc1ccc(-c2c[nH]c(NC(c3ccc(F)cc3)[C@@H](c3ccccc3)c3ccc(F)cc3)[nH+]2)cc1

$$$$
