Cc1ccc(-c2ccc(-c3n[nH]cc3C[NH+]3CCN(c4cccc5cc[nH]c45)CC3)cc2)cc1
     RDKit          3D

 64 69  0  0  1  0  0  0  0  0999 V2000
  131.6566  128.9832  152.8993 C   0  0  0  0  0  0  0  0  0  0  0  0
  131.1347  129.9320  153.9474 C   0  0  0  0  0  0  0  0  0  0  0  0
  130.1343  130.8315  153.6258 C   0  0  0  0  0  0  0  0  0  0  0  0
  129.6529  131.7030  154.5815 C   0  0  0  0  0  0  0  0  0  0  0  0
  130.1763  131.6752  155.8730 C   0  0  0  0  0  0  0  0  0  0  0  0
  129.6673  132.6134  156.9027 C   0  0  0  0  0  0  0  0  0  0  0  0
  129.6662  132.2403  158.2464 C   0  0  0  0  0  0  0  0  0  0  0  0
  129.1978  133.1137  159.2032 C   0  0  0  0  0  0  0  0  0  0  0  0
  128.7155  134.3668  158.8273 C   0  0  0  0  0  0  0  0  0  0  0  0
  128.2059  135.3049  159.8572 C   0  0  0  0  0  0  0  0  0  0  0  0
  127.2050  135.0803  160.6823 N   0  0  0  0  0  0  0  0  0  0  0  0
  127.0453  136.2124  161.4915 N   0  0  0  0  0  0  0  0  0  0  0  0
  126.3817  136.3237  162.1899 H   0  0  0  0  0  0  0  0  0  0  0  0
  127.9762  137.1218  161.1307 C   0  0  0  0  0  0  0  0  0  0  0  0
  128.7116  136.5912  160.1295 C   0  0  0  0  0  0  0  0  0  0  0  0
  129.8657  137.2584  159.4264 C   0  0  0  0  0  0  0  0  0  0  0  0
  130.7491  137.8834  160.4201 N   0  0  0  0  0  0  0  0  0  0  0  0
  130.1912  138.3118  161.1436 H   0  0  0  0  0  0  0  0  0  0  0  0
  131.5728  138.9087  159.7661 C   0  0  0  0  0  0  0  0  0  0  0  0
  132.4798  139.5731  160.8041 C   0  0  0  0  0  0  0  0  0  0  0  0
  133.3373  138.5538  161.4252 N   0  0  0  0  0  0  0  0  0  0  0  0
  134.2196  139.1325  162.3428 C   0  0  0  0  0  0  0  0  0  0  0  0
  134.1882  138.7519  163.6733 C   0  0  0  0  0  0  0  0  0  0  0  0
  135.0645  139.3156  164.5895 C   0  0  0  0  0  0  0  0  0  0  0  0
  135.9646  140.2657  164.1969 C   0  0  0  0  0  0  0  0  0  0  0  0
  136.0113  140.6713  162.8600 C   0  0  0  0  0  0  0  0  0  0  0  0
  136.8264  141.6355  162.1176 C   0  0  0  0  0  0  0  0  0  0  0  0
  136.4158  141.5959  160.8399 C   0  0  0  0  0  0  0  0  0  0  0  0
  135.4047  140.6853  160.7038 N   0  0  0  0  0  0  0  0  0  0  0  0
  134.9470  140.4804  159.8735 H   0  0  0  0  0  0  0  0  0  0  0  0
  135.1333  140.1019  161.9229 C   0  0  0  0  0  0  0  0  0  0  0  0
  132.5262  137.5070  162.0627 C   0  0  0  0  0  0  0  0  0  0  0  0
  131.6187  136.8596  161.0142 C   0  0  0  0  0  0  0  0  0  0  0  0
  128.7116  134.7377  157.4832 C   0  0  0  0  0  0  0  0  0  0  0  0
  129.1845  133.8664  156.5267 C   0  0  0  0  0  0  0  0  0  0  0  0
  131.1839  130.7663  156.1914 C   0  0  0  0  0  0  0  0  0  0  0  0
  131.6576  129.8996  155.2277 C   0  0  0  0  0  0  0  0  0  0  0  0
  132.4920  129.4461  152.3738 H   0  0  0  0  0  0  0  0  0  0  0  0
  131.9929  128.0632  153.3771 H   0  0  0  0  0  0  0  0  0  0  0  0
  130.8624  128.7544  152.1888 H   0  0  0  0  0  0  0  0  0  0  0  0
  129.7295  130.8521  152.6247 H   0  0  0  0  0  0  0  0  0  0  0  0
  128.8723  132.4052  154.3290 H   0  0  0  0  0  0  0  0  0  0  0  0
  130.0359  131.2682  158.5371 H   0  0  0  0  0  0  0  0  0  0  0  0
  129.2004  132.8262  160.2443 H   0  0  0  0  0  0  0  0  0  0  0  0
  128.1122  138.0994  161.5691 H   0  0  0  0  0  0  0  0  0  0  0  0
  130.4254  136.5140  158.8600 H   0  0  0  0  0  0  0  0  0  0  0  0
  129.4854  138.0214  158.7473 H   0  0  0  0  0  0  0  0  0  0  0  0
  132.1850  138.4443  158.9929 H   0  0  0  0  0  0  0  0  0  0  0  0
  130.9260  139.6608  159.3143 H   0  0  0  0  0  0  0  0  0  0  0  0
  131.8678  140.0493  161.5701 H   0  0  0  0  0  0  0  0  0  0  0  0
  133.1018  140.3236  160.3165 H   0  0  0  0  0  0  0  0  0  0  0  0
  133.4789  138.0060  164.0000 H   0  0  0  0  0  0  0  0  0  0  0  0
  135.0313  139.0045  165.6232 H   0  0  0  0  0  0  0  0  0  0  0  0
  136.6392  140.7024  164.9184 H   0  0  0  0  0  0  0  0  0  0  0  0
  137.6092  142.2605  162.5216 H   0  0  0  0  0  0  0  0  0  0  0  0
  136.8232  142.1947  160.0388 H   0  0  0  0  0  0  0  0  0  0  0  0
  131.9149  137.9493  162.8494 H   0  0  0  0  0  0  0  0  0  0  0  0
  133.1816  136.7502  162.4935 H   0  0  0  0  0  0  0  0  0  0  0  0
  131.0060  136.0927  161.4879 H   0  0  0  0  0  0  0  0  0  0  0  0
  132.2306  136.4058  160.2348 H   0  0  0  0  0  0  0  0  0  0  0  0
  128.3377  135.7082  157.1920 H   0  0  0  0  0  0  0  0  0  0  0  0
  129.1808  134.1535  155.4856 H   0  0  0  0  0  0  0  0  0  0  0  0
  131.5934  130.7408  157.1905 H   0  0  0  0  0  0  0  0  0  0  0  0
  132.4383  129.1950  155.4733 H   0  0  0  0  0  0  0  0  0  0  0  0
  1  2  1  0
  1 38  1  0
  1 39  1  0
  1 40  1  0
  2 37  2  0
  2  3  1  0
  3  4  2  0
  3 41  1  0
  4  5  1  0
  4 42  1  0
  5  6  1  0
  5 36  2  0
  6 35  1  0
  6  7  2  0
  7  8  1  0
  7 43  1  0
  8  9  2  0
  8 44  1  0
  9 10  1  0
  9 34  1  0
 10 15  1  0
 10 11  2  0
 11 12  1  0
 12 13  1  0
 12 14  1  0
 14 15  2  0
 14 45  1  0
 15 16  1  0
 16 17  1  0
 16 46  1  0
 16 47  1  0
 17 18  1  0
 17 33  1  0
 17 19  1  0
 19 20  1  0
 19 48  1  0
 19 49  1  0
 20 21  1  0
 20 50  1  0
 20 51  1  0
 21 22  1  0
 21 32  1  0
 22 31  1  0
 22 23  2  0
 23 24  1  0
 23 52  1  0
 24 25  2  0
 24 53  1  0
 25 26  1  0
 25 54  1  0
 26 31  2  0
 26 27  1  0
 27 28  2  0
 27 55  1  0
 28 29  1  0
 28 56  1  0
 29 30  1  0
 29 31  1  0
 32 33  1  0
 32 57  1  0
 32 58  1  0
 33 59  1  0
 33 60  1  0
 34 35  2  0
 34 61  1  0
 35 62  1  0
 36 37  1  0
 36 63  1  0
 37 64  1  0
M  CHG  1  17   1
M  END
>  <DOCK_score>  (1) 
-45.442833

>  <SMILES>  (1) 
Cc1ccc(-c2ccc(-c3n[nH]cc3C[NH+]3CCN(c4cccc5cc[nH]c45)CC3)cc2)cc1

$$$$
