CCc1ccc(C[N@@H+]2CC=C(c3cccc(C4=CCC=CC4)c3)CC2)[nH]1
     RDKit          3D

 55 58  0  0  1  0  0  0  0  0999 V2000
  130.1125  132.4313  154.6083 C   0  0  0  0  0  0  0  0  0  0  0  0
  130.9441  132.1838  155.8685 C   0  0  0  0  0  0  0  0  0  0  0  0
  130.2609  132.8161  157.0535 C   0  0  0  0  0  0  0  0  0  0  0  0
  129.3506  132.2216  157.8513 C   0  0  0  0  0  0  0  0  0  0  0  0
  128.9707  133.1606  158.8306 C   0  0  0  0  0  0  0  0  0  0  0  0
  129.6632  134.2933  158.5938 C   0  0  0  0  0  0  0  0  0  0  0  0
  129.5753  135.5664  159.3953 C   0  0  0  0  0  0  0  0  0  0  0  0
  130.9281  136.0790  159.6504 N   0  0  2  0  0  0  0  0  0  0  0  0
  131.3894  136.2661  158.7727 H   0  0  0  0  0  0  0  0  0  0  0  0
  131.6962  135.0828  160.4062 C   0  0  0  0  0  0  0  0  0  0  0  0
  133.0167  135.6549  160.8348 C   0  0  0  0  0  0  0  0  0  0  0  0
  133.2600  136.9473  160.8674 C   0  0  0  0  0  0  0  0  0  0  0  0
  134.5916  137.4108  161.3114 C   0  0  0  0  0  0  0  0  0  0  0  0
  135.1247  138.5972  160.8033 C   0  0  0  0  0  0  0  0  0  0  0  0
  136.3707  139.0286  161.2127 C   0  0  0  0  0  0  0  0  0  0  0  0
  137.0979  138.2910  162.1261 C   0  0  0  0  0  0  0  0  0  0  0  0
  136.5765  137.1032  162.6417 C   0  0  0  0  0  0  0  0  0  0  0  0
  137.3560  136.3151  163.6198 C   0  0  0  0  0  0  0  0  0  0  0  0
  137.6909  135.0815  163.3127 C   0  0  0  0  0  0  0  0  0  0  0  0
  138.4797  134.2037  164.2376 C   0  0  0  0  0  0  0  0  0  0  0  0
  139.2065  135.0155  165.2667 C   0  0  0  0  0  0  0  0  0  0  0  0
  138.8762  136.2330  165.5698 C   0  0  0  0  0  0  0  0  0  0  0  0
  137.7383  136.9568  164.9198 C   0  0  0  0  0  0  0  0  0  0  0  0
  135.3198  136.6622  162.2329 C   0  0  0  0  0  0  0  0  0  0  0  0
  132.2297  137.9702  160.4749 C   0  0  0  0  0  0  0  0  0  0  0  0
  130.8465  137.3191  160.4381 C   0  0  0  0  0  0  0  0  0  0  0  0
  130.4525  134.0898  157.5009 N   0  0  0  0  0  0  0  0  0  0  0  0
  131.0530  134.7424  157.1080 H   0  0  0  0  0  0  0  0  0  0  0  0
  129.1227  131.9923  154.7341 H   0  0  0  0  0  0  0  0  0  0  0  0
  130.0155  133.5043  154.4420 H   0  0  0  0  0  0  0  0  0  0  0  0
  130.6066  131.9740  153.7512 H   0  0  0  0  0  0  0  0  0  0  0  0
  131.9337  132.6228  155.7427 H   0  0  0  0  0  0  0  0  0  0  0  0
  131.0411  131.1109  156.0348 H   0  0  0  0  0  0  0  0  0  0  0  0
  128.9811  131.2111  157.7572 H   0  0  0  0  0  0  0  0  0  0  0  0
  128.2558  133.0025  159.6245 H   0  0  0  0  0  0  0  0  0  0  0  0
  129.0782  135.3647  160.3442 H   0  0  0  0  0  0  0  0  0  0  0  0
  129.0049  136.3086  158.8369 H   0  0  0  0  0  0  0  0  0  0  0  0
  131.8688  134.2085  159.7786 H   0  0  0  0  0  0  0  0  0  0  0  0
  131.1283  134.7870  161.2882 H   0  0  0  0  0  0  0  0  0  0  0  0
  133.8020  134.9747  161.1299 H   0  0  0  0  0  0  0  0  0  0  0  0
  134.5613  139.1785  160.0885 H   0  0  0  0  0  0  0  0  0  0  0  0
  136.7787  139.9468  160.8165 H   0  0  0  0  0  0  0  0  0  0  0  0
  138.0717  138.6342  162.4425 H   0  0  0  0  0  0  0  0  0  0  0  0
  137.3856  134.6844  162.3559 H   0  0  0  0  0  0  0  0  0  0  0  0
  137.8018  133.5137  164.7401 H   0  0  0  0  0  0  0  0  0  0  0  0
  139.2043  133.6330  163.6569 H   0  0  0  0  0  0  0  0  0  0  0  0
  140.0442  134.5662  165.7796 H   0  0  0  0  0  0  0  0  0  0  0  0
  139.4510  136.7503  166.3238 H   0  0  0  0  0  0  0  0  0  0  0  0
  138.0290  137.9911  164.7358 H   0  0  0  0  0  0  0  0  0  0  0  0
  136.8801  136.9421  165.5915 H   0  0  0  0  0  0  0  0  0  0  0  0
  134.9121  135.7436  162.6285 H   0  0  0  0  0  0  0  0  0  0  0  0
  132.2309  138.7836  161.2007 H   0  0  0  0  0  0  0  0  0  0  0  0
  132.4679  138.3651  159.4872 H   0  0  0  0  0  0  0  0  0  0  0  0
  130.1324  138.0003  159.9752 H   0  0  0  0  0  0  0  0  0  0  0  0
  130.5255  137.0872  161.4536 H   0  0  0  0  0  0  0  0  0  0  0  0
  1  2  1  0
  1 29  1  0
  1 30  1  0
  1 31  1  0
  2  3  1  0
  2 32  1  0
  2 33  1  0
  3 27  1  0
  3  4  2  0
  4  5  1  0
  4 34  1  0
  5  6  2  0
  5 35  1  0
  6  7  1  0
  6 27  1  0
  7  8  1  0
  7 36  1  0
  7 37  1  0
  8  9  1  6
  8 26  1  0
  8 10  1  0
 10 11  1  0
 10 38  1  0
 10 39  1  0
 11 12  2  0
 11 40  1  0
 12 13  1  0
 12 25  1  0
 13 24  1  0
 13 14  2  0
 14 15  1  0
 14 41  1  0
 15 16  2  0
 15 42  1  0
 16 17  1  0
 16 43  1  0
 17 18  1  0
 17 24  2  0
 18 23  1  0
 18 19  2  0
 19 20  1  0
 19 44  1  0
 20 21  1  0
 20 45  1  0
 20 46  1  0
 21 22  2  0
 21 47  1  0
 22 23  1  0
 22 48  1  0
 23 49  1  0
 23 50  1  0
 24 51  1  0
 25 26  1  0
 25 52  1  0
 25 53  1  0
 26 54  1  0
 26 55  1  0
 27 28  1  0
M  CHG  1   8   1
M  END
>  <DOCK_score>  (1) 
-57.031887

>  <SMILES>  (1) 
CCc1ccc(C[N@@H+]2CC=C(c3cccc(C4=CCC=CC4)c3)CC2)[nH]1

$$$$
