Cc1c(-c2ccc(NC3CC(F)C3)o2)cccc1N1CC[NH+](C(c2ccccc2)c2ccccc2)CC1
     RDKit          3D

 72 77  0  0  1  0  0  0  0  0999 V2000
  133.7369  138.7791  163.1549 C   0  0  0  0  0  0  0  0  0  0  0  0
  134.1629  139.1754  161.7647 C   0  0  0  0  0  0  0  0  0  0  0  0
  135.1381  140.1578  161.5844 C   0  0  0  0  0  0  0  0  0  0  0  0
  135.7516  140.8161  162.7547 C   0  0  0  0  0  0  0  0  0  0  0  0
  136.2261  142.0900  162.7943 C   0  0  0  0  0  0  0  0  0  0  0  0
  136.7196  142.3013  164.0957 C   0  0  0  0  0  0  0  0  0  0  0  0
  136.5232  141.1493  164.7859 C   0  0  0  0  0  0  0  0  0  0  0  0
  136.8688  140.9296  166.1131 N   0  0  0  0  0  0  0  0  0  0  0  0
  136.5977  139.6313  166.7355 C   0  0  2  0  0  0  0  0  0  0  0  0
  135.1536  139.4805  167.2423 C   0  0  0  0  0  0  0  0  0  0  0  0
  135.7424  138.7653  168.4697 C   0  0  1  0  0  0  0  0  0  0  0  0
  135.8789  137.3831  168.3008 F   0  0  0  0  0  0  0  0  0  0  0  0
  137.0391  139.5491  168.2063 C   0  0  0  0  0  0  0  0  0  0  0  0
  135.9328  140.2590  163.9708 O   0  0  0  0  0  0  0  0  0  0  0  0
  135.5271  140.5198  160.2924 C   0  0  0  0  0  0  0  0  0  0  0  0
  134.9474  139.9071  159.2002 C   0  0  0  0  0  0  0  0  0  0  0  0
  133.9821  138.9340  159.3791 C   0  0  0  0  0  0  0  0  0  0  0  0
  133.5876  138.5661  160.6609 C   0  0  0  0  0  0  0  0  0  0  0  0
  132.6116  137.5821  160.8358 N   0  0  0  0  0  0  0  0  0  0  0  0
  133.0725  136.2855  160.3195 C   0  0  0  0  0  0  0  0  0  0  0  0
  132.0014  135.2249  160.5834 C   0  0  0  0  0  0  0  0  0  0  0  0
  130.7499  135.6176  159.9224 N   0  0  0  0  0  0  0  0  0  0  0  0
  130.9084  135.7099  158.9301 H   0  0  0  0  0  0  0  0  0  0  0  0
  129.7272  134.5904  160.1609 C   0  0  0  0  0  0  0  0  0  0  0  0
  128.4430  134.9931  159.4829 C   0  0  0  0  0  0  0  0  0  0  0  0
  127.2288  134.5930  160.0086 C   0  0  0  0  0  0  0  0  0  0  0  0
  126.0506  134.9664  159.3893 C   0  0  0  0  0  0  0  0  0  0  0  0
  126.0868  135.7311  158.2391 C   0  0  0  0  0  0  0  0  0  0  0  0
  127.3015  136.1270  157.7097 C   0  0  0  0  0  0  0  0  0  0  0  0
  128.4795  135.7580  158.3320 C   0  0  0  0  0  0  0  0  0  0  0  0
  130.1987  133.2728  159.6017 C   0  0  0  0  0  0  0  0  0  0  0  0
  129.7942  132.0884  160.1885 C   0  0  0  0  0  0  0  0  0  0  0  0
  130.2229  130.8797  159.6725 C   0  0  0  0  0  0  0  0  0  0  0  0
  131.0646  130.8558  158.5762 C   0  0  0  0  0  0  0  0  0  0  0  0
  131.4733  132.0403  157.9927 C   0  0  0  0  0  0  0  0  0  0  0  0
  131.0405  133.2488  158.5053 C   0  0  0  0  0  0  0  0  0  0  0  0
  130.2892  136.9021  160.4659 C   0  0  0  0  0  0  0  0  0  0  0  0
  131.3461  137.9766  160.2010 C   0  0  0  0  0  0  0  0  0  0  0  0
  132.9033  139.4057  163.4720 H   0  0  0  0  0  0  0  0  0  0  0  0
  133.4269  137.7341  163.1558 H   0  0  0  0  0  0  0  0  0  0  0  0
  134.5725  138.9107  163.8423 H   0  0  0  0  0  0  0  0  0  0  0  0
  136.2250  142.8027  161.9828 H   0  0  0  0  0  0  0  0  0  0  0  0
  137.1688  143.2080  164.4734 H   0  0  0  0  0  0  0  0  0  0  0  0
  137.2896  141.6357  166.6281 H   0  0  0  0  0  0  0  0  0  0  0  0
  136.9391  138.7921  166.1294 H   0  0  0  0  0  0  0  0  0  0  0  0
  134.6727  140.4296  167.4790 H   0  0  0  0  0  0  0  0  0  0  0  0
  134.5361  138.8366  166.6162 H   0  0  0  0  0  0  0  0  0  0  0  0
  135.2544  139.0310  169.4073 H   0  0  0  0  0  0  0  0  0  0  0  0
  137.9437  138.9602  168.3584 H   0  0  0  0  0  0  0  0  0  0  0  0
  137.0750  140.5169  168.7062 H   0  0  0  0  0  0  0  0  0  0  0  0
  136.2809  141.2797  160.1483 H   0  0  0  0  0  0  0  0  0  0  0  0
  135.2494  140.1883  158.2021 H   0  0  0  0  0  0  0  0  0  0  0  0
  133.5324  138.4579  158.5203 H   0  0  0  0  0  0  0  0  0  0  0  0
  133.2505  136.3636  159.2470 H   0  0  0  0  0  0  0  0  0  0  0  0
  133.9970  136.0017  160.8223 H   0  0  0  0  0  0  0  0  0  0  0  0
  131.8335  135.1374  161.6568 H   0  0  0  0  0  0  0  0  0  0  0  0
  132.3352  134.2653  160.1885 H   0  0  0  0  0  0  0  0  0  0  0  0
  129.5562  134.4899  161.2326 H   0  0  0  0  0  0  0  0  0  0  0  0
  127.2004  133.9916  160.9053 H   0  0  0  0  0  0  0  0  0  0  0  0
  125.1020  134.6568  159.8021 H   0  0  0  0  0  0  0  0  0  0  0  0
  125.1669  136.0192  157.7520 H   0  0  0  0  0  0  0  0  0  0  0  0
  127.3300  136.7242  156.8104 H   0  0  0  0  0  0  0  0  0  0  0  0
  129.4283  136.0668  157.9187 H   0  0  0  0  0  0  0  0  0  0  0  0
  129.1403  132.1073  161.0478 H   0  0  0  0  0  0  0  0  0  0  0  0
  129.9040  129.9543  160.1288 H   0  0  0  0  0  0  0  0  0  0  0  0
  131.4031  129.9115  158.1759 H   0  0  0  0  0  0  0  0  0  0  0  0
  132.1312  132.0216  157.1362 H   0  0  0  0  0  0  0  0  0  0  0  0
  131.3600  134.1743  158.0496 H   0  0  0  0  0  0  0  0  0  0  0  0
  130.1300  136.8061  161.5399 H   0  0  0  0  0  0  0  0  0  0  0  0
  129.3537  137.1860  159.9839 H   0  0  0  0  0  0  0  0  0  0  0  0
  131.0111  138.9267  160.6173 H   0  0  0  0  0  0  0  0  0  0  0  0
  131.4957  138.0826  159.1266 H   0  0  0  0  0  0  0  0  0  0  0  0
  1  2  1  0
  1 39  1  0
  1 40  1  0
  1 41  1  0
  2 18  2  0
  2  3  1  0
  3  4  1  0
  3 15  2  0
  4 14  1  0
  4  5  2  0
  5  6  1  0
  5 42  1  0
  6  7  2  0
  6 43  1  0
  7  8  1  0
  7 14  1  0
  8  9  1  0
  8 44  1  0
  9 13  1  0
  9 10  1  0
  9 45  1  6
 10 11  1  0
 10 46  1  0
 10 47  1  0
 11 12  1  0
 11 13  1  0
 11 48  1  1
 13 49  1  0
 13 50  1  0
 15 16  1  0
 15 51  1  0
 16 17  2  0
 16 52  1  0
 17 18  1  0
 17 53  1  0
 18 19  1  0
 19 38  1  0
 19 20  1  0
 20 21  1  0
 20 54  1  0
 20 55  1  0
 21 22  1  0
 21 56  1  0
 21 57  1  0
 22 23  1  0
 22 24  1  0
 22 37  1  0
 24 25  1  0
 24 31  1  0
 24 58  1  0
 25 30  1  0
 25 26  2  0
 26 27  1  0
 26 59  1  0
 27 28  2  0
 27 60  1  0
 28 29  1  0
 28 61  1  0
 29 30  2  0
 29 62  1  0
 30 63  1  0
 31 36  1  0
 31 32  2  0
 32 33  1  0
 32 64  1  0
 33 34  2  0
 33 65  1  0
 34 35  1  0
 34 66  1  0
 35 36  2  0
 35 67  1  0
 36 68  1  0
 37 38  1  0
 37 69  1  0
 37 70  1  0
 38 71  1  0
 38 72  1  0
M  CHG  1  22   1
M  END
>  <DOCK_score>  (1) 
-56.012131

>  <SMILES>  (1) 
Cc1c(-c2ccc(NC3CC(F)C3)o2)cccc1N1CC[NH+](C(c2ccccc2)c2ccccc2)CC1

$$$$
