CC(C)c1ccc([C@H](Nc2[nH]cc(-c3cccnc3)[nH+]2)C(C)c2ccccc2N)cc1
     RDKit          3D

 61 64  0  0  1  0  0  0  0  0999 V2000
  135.3222  141.0093  163.5845 C   0  0  0  0  0  0  0  0  0  0  0  0
  135.4779  140.4938  162.1525 C   0  0  0  0  0  0  0  0  0  0  0  0
  136.8949  139.9509  161.9570 C   0  0  0  0  0  0  0  0  0  0  0  0
  134.4794  139.3928  161.9037 C   0  0  0  0  0  0  0  0  0  0  0  0
  133.5354  139.5290  160.9030 C   0  0  0  0  0  0  0  0  0  0  0  0
  132.6194  138.5193  160.6748 C   0  0  0  0  0  0  0  0  0  0  0  0
  132.6480  137.3727  161.4465 C   0  0  0  0  0  0  0  0  0  0  0  0
  131.6495  136.2718  161.1976 C   0  0  2  0  0  0  0  0  0  0  0  0
  131.8263  135.4555  161.8981 H   0  0  0  0  0  0  0  0  0  0  0  0
  131.7977  135.7789  159.8260 N   0  0  0  0  0  0  0  0  0  0  0  0
  131.5005  134.4600  159.5285 C   0  0  0  0  0  0  0  0  0  0  0  0
  131.0694  133.5245  160.4180 N   0  0  0  0  0  0  0  0  0  0  0  0
  130.9163  133.6607  161.3661 H   0  0  0  0  0  0  0  0  0  0  0  0
  130.8886  132.3523  159.7248 C   0  0  0  0  0  0  0  0  0  0  0  0
  131.2218  132.6029  158.4344 C   0  0  0  0  0  0  0  0  0  0  0  0
  131.1859  131.6266  157.3182 C   0  0  0  0  0  0  0  0  0  0  0  0
  130.9283  132.0508  156.0113 C   0  0  0  0  0  0  0  0  0  0  0  0
  130.9102  131.1012  155.0046 C   0  0  0  0  0  0  0  0  0  0  0  0
  131.1349  129.7739  155.3223 C   0  0  0  0  0  0  0  0  0  0  0  0
  131.3705  129.4027  156.5658 N   0  0  0  0  0  0  0  0  0  0  0  0
  131.4027  130.2708  157.5562 C   0  0  0  0  0  0  0  0  0  0  0  0
  131.5931  133.9047  158.3448 N   0  0  0  0  0  0  0  0  0  0  0  0
  131.8816  134.3529  157.5344 H   0  0  0  0  0  0  0  0  0  0  0  0
  130.2325  136.8143  161.3941 C   0  0  2  0  0  0  0  0  0  0  0  0
  130.0776  137.3292  162.8266 C   0  0  0  0  0  0  0  0  0  0  0  0
  129.2339  135.7135  161.1453 C   0  0  0  0  0  0  0  0  0  0  0  0
  128.8205  134.9066  162.1872 C   0  0  0  0  0  0  0  0  0  0  0  0
  127.9044  133.8962  161.9597 C   0  0  0  0  0  0  0  0  0  0  0  0
  127.3985  133.6903  160.6890 C   0  0  0  0  0  0  0  0  0  0  0  0
  127.8071  134.4937  159.6429 C   0  0  0  0  0  0  0  0  0  0  0  0
  128.7319  135.5061  159.8669 C   0  0  0  0  0  0  0  0  0  0  0  0
  129.1514  136.3173  158.8101 N   0  0  0  0  0  0  0  0  0  0  0  0
  133.5889  137.2386  162.4503 C   0  0  0  0  0  0  0  0  0  0  0  0
  134.5076  138.2465  162.6757 C   0  0  0  0  0  0  0  0  0  0  0  0
  136.0446  141.8056  163.7645 H   0  0  0  0  0  0  0  0  0  0  0  0
  134.3128  141.3961  163.7237 H   0  0  0  0  0  0  0  0  0  0  0  0
  135.4987  140.1934  164.2855 H   0  0  0  0  0  0  0  0  0  0  0  0
  135.3015  141.3095  161.4514 H   0  0  0  0  0  0  0  0  0  0  0  0
  137.0057  139.5835  160.9367 H   0  0  0  0  0  0  0  0  0  0  0  0
  137.6171  140.7471  162.1369 H   0  0  0  0  0  0  0  0  0  0  0  0
  137.0713  139.1350  162.6580 H   0  0  0  0  0  0  0  0  0  0  0  0
  133.5132  140.4246  160.2998 H   0  0  0  0  0  0  0  0  0  0  0  0
  131.8817  138.6257  159.8932 H   0  0  0  0  0  0  0  0  0  0  0  0
  132.1042  136.3768  159.1263 H   0  0  0  0  0  0  0  0  0  0  0  0
  130.5498  131.4106  160.1306 H   0  0  0  0  0  0  0  0  0  0  0  0
  130.7520  133.0935  155.7923 H   0  0  0  0  0  0  0  0  0  0  0  0
  130.7180  131.3929  153.9826 H   0  0  0  0  0  0  0  0  0  0  0  0
  131.1178  129.0297  154.5396 H   0  0  0  0  0  0  0  0  0  0  0  0
  131.5990  129.9286  158.5616 H   0  0  0  0  0  0  0  0  0  0  0  0
  130.0556  137.6306  160.6937 H   0  0  0  0  0  0  0  0  0  0  0  0
  130.2544  136.5130  163.5270 H   0  0  0  0  0  0  0  0  0  0  0  0
  130.7999  138.1255  163.0066 H   0  0  0  0  0  0  0  0  0  0  0  0
  129.0681  137.7159  162.9666 H   0  0  0  0  0  0  0  0  0  0  0  0
  129.2135  135.0646  163.1807 H   0  0  0  0  0  0  0  0  0  0  0  0
  127.5829  133.2666  162.7761 H   0  0  0  0  0  0  0  0  0  0  0  0
  126.6828  132.9005  160.5148 H   0  0  0  0  0  0  0  0  0  0  0  0
  127.4118  134.3324  158.6510 H   0  0  0  0  0  0  0  0  0  0  0  0
  128.7282  136.2388  157.9408 H   0  0  0  0  0  0  0  0  0  0  0  0
  129.8661  136.9590  158.9453 H   0  0  0  0  0  0  0  0  0  0  0  0
  133.6084  136.3447  163.0562 H   0  0  0  0  0  0  0  0  0  0  0  0
  135.2453  138.1400  163.4573 H   0  0  0  0  0  0  0  0  0  0  0  0
  1  2  1  0
  1 35  1  0
  1 36  1  0
  1 37  1  0
  2  3  1  0
  2  4  1  0
  2 38  1  0
  3 39  1  0
  3 40  1  0
  3 41  1  0
  4 34  2  0
  4  5  1  0
  5  6  2  0
  5 42  1  0
  6  7  1  0
  6 43  1  0
  7  8  1  0
  7 33  2  0
  8  9  1  1
  8 10  1  0
  8 24  1  0
 10 44  1  0
 11 10  1  0
 11 22  2  0
 11 12  1  0
 12 13  1  0
 12 14  1  0
 14 15  2  0
 14 45  1  0
 15 16  1  0
 15 22  1  0
 16 21  1  0
 16 17  2  0
 17 18  1  0
 17 46  1  0
 18 19  2  0
 18 47  1  0
 19 20  1  0
 19 48  1  0
 20 21  2  0
 21 49  1  0
 22 23  1  0
 24 25  1  0
 24 26  1  0
 24 50  1  6
 25 51  1  0
 25 52  1  0
 25 53  1  0
 26 31  1  0
 26 27  2  0
 27 28  1  0
 27 54  1  0
 28 29  2  0
 28 55  1  0
 29 30  1  0
 29 56  1  0
 30 31  2  0
 30 57  1  0
 31 32  1  0
 32 58  1  0
 32 59  1  0
 33 34  1  0
 33 60  1  0
 34 61  1  0
M  CHG  1  22   1
M  END
>  <DOCK_score>  (1) 
-61.814655

>  <SMILES>  (1) 
CC(C)c1ccc([C@H](Nc2[nH]cc(-c3cccnc3)[nH+]2)C(C)c2ccccc2N)cc1

$$$$
