O=C1CC[C@H](NC(NC2CC=CC2)=[NH+][C@H]2COc3cc(Nc4cccc(F)c4)ccc3C2)CN1
     RDKit          3D

 65 69  0  0  1  0  0  0  0  0999 V2000
  124.0434  132.7114  160.8468 O   0  0  0  0  0  0  0  0  0  0  0  0
  125.1654  133.1153  160.6257 C   0  0  0  0  0  0  0  0  0  0  0  0
  126.1579  132.1627  160.0234 C   0  0  0  0  0  0  0  0  0  0  0  0
  127.5788  132.6952  160.2240 C   0  0  0  0  0  0  0  0  0  0  0  0
  127.6123  134.1645  159.7865 C   0  0  2  0  0  0  0  0  0  0  0  0
  127.2037  134.2584  158.7803 H   0  0  0  0  0  0  0  0  0  0  0  0
  128.9941  134.6509  159.8030 N   0  0  0  0  0  0  0  0  0  0  0  0
  129.9443  134.0493  159.0123 C   0  0  0  0  0  0  0  0  0  0  0  0
  129.5799  133.4709  157.8195 N   0  0  0  0  0  0  0  0  0  0  0  0
  130.5925  132.8298  156.9768 C   0  0  0  0  0  0  0  0  0  0  0  0
  130.1194  132.7458  155.5070 C   0  0  0  0  0  0  0  0  0  0  0  0
  130.6336  131.4124  155.0142 C   0  0  0  0  0  0  0  0  0  0  0  0
  130.9760  130.6427  156.0113 C   0  0  0  0  0  0  0  0  0  0  0  0
  130.7467  131.3335  157.3354 C   0  0  0  0  0  0  0  0  0  0  0  0
  131.1897  134.0226  159.3960 N   0  0  0  0  0  0  0  0  0  0  0  0
  131.8600  133.5981  158.8380 H   0  0  0  0  0  0  0  0  0  0  0  0
  131.5769  134.6334  160.6700 C   0  0  1  0  0  0  0  0  0  0  0  0
  130.7458  134.5754  161.3728 H   0  0  0  0  0  0  0  0  0  0  0  0
  132.7940  133.8991  161.2468 C   0  0  0  0  0  0  0  0  0  0  0  0
  133.0834  134.4484  162.5330 O   0  0  0  0  0  0  0  0  0  0  0  0
  133.1593  135.8004  162.6441 C   0  0  0  0  0  0  0  0  0  0  0  0
  133.7781  136.3382  163.7668 C   0  0  0  0  0  0  0  0  0  0  0  0
  133.8680  137.7131  163.9211 C   0  0  0  0  0  0  0  0  0  0  0  0
  134.4908  138.2524  165.0494 N   0  0  0  0  0  0  0  0  0  0  0  0
  135.8312  137.9606  165.3139 C   0  0  0  0  0  0  0  0  0  0  0  0
  136.2891  137.9200  166.6253 C   0  0  0  0  0  0  0  0  0  0  0  0
  137.6144  137.6315  166.8846 C   0  0  0  0  0  0  0  0  0  0  0  0
  138.4872  137.3832  165.8412 C   0  0  0  0  0  0  0  0  0  0  0  0
  138.0351  137.4223  164.5326 C   0  0  0  0  0  0  0  0  0  0  0  0
  138.8901  137.1785  163.5154 F   0  0  0  0  0  0  0  0  0  0  0  0
  136.7072  137.7051  164.2672 C   0  0  0  0  0  0  0  0  0  0  0  0
  133.3370  138.5533  162.9496 C   0  0  0  0  0  0  0  0  0  0  0  0
  132.7245  138.0165  161.8361 C   0  0  0  0  0  0  0  0  0  0  0  0
  132.6346  136.6425  161.6785 C   0  0  0  0  0  0  0  0  0  0  0  0
  131.9605  136.0980  160.4444 C   0  0  0  0  0  0  0  0  0  0  0  0
  126.7677  134.9853  160.7619 C   0  0  0  0  0  0  0  0  0  0  0  0
  125.4517  134.3817  160.9299 N   0  0  0  0  0  0  0  0  0  0  0  0
  126.0645  131.1896  160.5057 H   0  0  0  0  0  0  0  0  0  0  0  0
  125.9587  132.0586  158.9568 H   0  0  0  0  0  0  0  0  0  0  0  0
  128.2766  132.1161  159.6191 H   0  0  0  0  0  0  0  0  0  0  0  0
  127.8538  132.6192  161.2760 H   0  0  0  0  0  0  0  0  0  0  0  0
  129.2385  135.3976  160.3720 H   0  0  0  0  0  0  0  0  0  0  0  0
  128.6525  133.4873  157.5358 H   0  0  0  0  0  0  0  0  0  0  0  0
  131.5472  133.3504  157.0514 H   0  0  0  0  0  0  0  0  0  0  0  0
  129.0309  132.7751  155.4563 H   0  0  0  0  0  0  0  0  0  0  0  0
  130.5495  133.5591  154.9226 H   0  0  0  0  0  0  0  0  0  0  0  0
  130.7082  131.1336  153.9736 H   0  0  0  0  0  0  0  0  0  0  0  0
  131.3711  129.6434  155.9038 H   0  0  0  0  0  0  0  0  0  0  0  0
  131.6033  131.1871  157.9935 H   0  0  0  0  0  0  0  0  0  0  0  0
  129.8379  130.9606  157.8078 H   0  0  0  0  0  0  0  0  0  0  0  0
  132.5704  132.8366  161.3425 H   0  0  0  0  0  0  0  0  0  0  0  0
  133.6517  134.0364  160.5883 H   0  0  0  0  0  0  0  0  0  0  0  0
  134.1902  135.6835  164.5203 H   0  0  0  0  0  0  0  0  0  0  0  0
  133.9925  138.8294  165.6492 H   0  0  0  0  0  0  0  0  0  0  0  0
  135.6088  138.1135  167.4414 H   0  0  0  0  0  0  0  0  0  0  0  0
  137.9699  137.5999  167.9039 H   0  0  0  0  0  0  0  0  0  0  0  0
  139.5232  137.1582  166.0470 H   0  0  0  0  0  0  0  0  0  0  0  0
  136.3533  137.7314  163.2471 H   0  0  0  0  0  0  0  0  0  0  0  0
  133.4039  139.6250  163.0660 H   0  0  0  0  0  0  0  0  0  0  0  0
  132.3128  138.6710  161.0821 H   0  0  0  0  0  0  0  0  0  0  0  0
  132.6432  136.1677  159.5975 H   0  0  0  0  0  0  0  0  0  0  0  0
  131.0629  136.6800  160.2356 H   0  0  0  0  0  0  0  0  0  0  0  0
  127.2710  135.0265  161.7278 H   0  0  0  0  0  0  0  0  0  0  0  0
  126.6530  135.9979  160.3753 H   0  0  0  0  0  0  0  0  0  0  0  0
  124.7395  134.9359  161.2857 H   0  0  0  0  0  0  0  0  0  0  0  0
  1  2  2  0
  2 37  1  0
  2  3  1  0
  3  4  1  0
  3 38  1  0
  3 39  1  0
  4  5  1  0
  4 40  1  0
  4 41  1  0
  5  6  1  6
  5  7  1  0
  5 36  1  0
  7 42  1  0
  8  7  1  0
  8  9  1  0
  8 15  2  0
  9 10  1  0
  9 43  1  0
 10 14  1  0
 10 11  1  0
 10 44  1  0
 11 12  1  0
 11 45  1  0
 11 46  1  0
 12 13  2  0
 12 47  1  0
 13 14  1  0
 13 48  1  0
 14 49  1  0
 14 50  1  0
 15 16  1  0
 15 17  1  0
 17 18  1  1
 17 35  1  0
 17 19  1  0
 19 20  1  0
 19 51  1  0
 19 52  1  0
 20 21  1  0
 21 34  2  0
 21 22  1  0
 22 23  2  0
 22 53  1  0
 23 24  1  0
 23 32  1  0
 24 25  1  0
 24 54  1  0
 25 31  1  0
 25 26  2  0
 26 27  1  0
 26 55  1  0
 27 28  2  0
 27 56  1  0
 28 29  1  0
 28 57  1  0
 29 30  1  0
 29 31  2  0
 31 58  1  0
 32 33  2  0
 32 59  1  0
 33 34  1  0
 33 60  1  0
 34 35  1  0
 35 61  1  0
 35 62  1  0
 36 37  1  0
 36 63  1  0
 36 64  1  0
 37 65  1  0
M  CHG  1  15   1
M  END
>  <DOCK_score>  (1) 
-41.962212

>  <SMILES>  (1) 
O=C1CC[C@H](NC(NC2CC=CC2)=[NH+][C@H]2COc3cc(Nc4cccc(F)c4)ccc3C2)CN1

$$$$
