Cn1nccc1[C@@H]([NH+]=C1NCCCN1)C(=O)OC1CC(O)C1(C)C
     RDKit          3D

 50 52  0  0  1  0  0  0  0  0999 V2000
  127.9856  136.1653  162.8903 C   0  0  0  0  0  0  0  0  0  0  0  0
  127.6774  136.1142  161.4590 N   0  0  0  0  0  0  0  0  0  0  0  0
  126.3991  136.0174  160.8943 N   0  0  0  0  0  0  0  0  0  0  0  0
  126.5281  135.9929  159.5925 C   0  0  0  0  0  0  0  0  0  0  0  0
  127.8903  136.0781  159.2868 C   0  0  0  0  0  0  0  0  0  0  0  0
  128.5745  136.1547  160.4517 C   0  0  0  0  0  0  0  0  0  0  0  0
  130.0707  136.2600  160.5982 C   0  0  1  0  0  0  0  0  0  0  0  0
  130.3788  135.7849  161.5296 H   0  0  0  0  0  0  0  0  0  0  0  0
  130.7201  135.5888  159.4694 N   0  0  0  0  0  0  0  0  0  0  0  0
  131.3044  136.0891  158.8786 H   0  0  0  0  0  0  0  0  0  0  0  0
  130.5129  134.3192  159.2593 C   0  0  0  0  0  0  0  0  0  0  0  0
  129.6898  133.5676  160.0840 N   0  0  0  0  0  0  0  0  0  0  0  0
  128.7640  132.6224  159.4314 C   0  0  0  0  0  0  0  0  0  0  0  0
  129.5567  131.7767  158.4282 C   0  0  0  0  0  0  0  0  0  0  0  0
  130.2725  132.7057  157.4410 C   0  0  0  0  0  0  0  0  0  0  0  0
  131.1085  133.6476  158.2026 N   0  0  0  0  0  0  0  0  0  0  0  0
  130.4725  137.7122  160.6180 C   0  0  0  0  0  0  0  0  0  0  0  0
  131.5539  138.0456  160.1944 O   0  0  0  0  0  0  0  0  0  0  0  0
  129.6315  138.6347  161.1111 O   0  0  0  0  0  0  0  0  0  0  0  0
  130.0874  140.0132  161.1043 C   0  0  1  0  0  0  0  0  0  0  0  0
  128.9499  141.0389  161.2415 C   0  0  0  0  0  0  0  0  0  0  0  0
  129.8859  141.8360  162.1653 C   0  0  1  0  0  0  0  0  0  0  0  0
  129.2239  142.4086  163.2950 O   0  0  0  0  0  0  0  0  0  0  0  0
  130.5884  140.5032  162.4732 C   0  0  0  0  0  0  0  0  0  0  0  0
  129.9782  139.7476  163.6555 C   0  0  0  0  0  0  0  0  0  0  0  0
  132.1114  140.6194  162.5627 C   0  0  0  0  0  0  0  0  0  0  0  0
  127.9917  137.2029  163.2238 H   0  0  0  0  0  0  0  0  0  0  0  0
  127.2294  135.6096  163.4449 H   0  0  0  0  0  0  0  0  0  0  0  0
  128.9653  135.7212  163.0671 H   0  0  0  0  0  0  0  0  0  0  0  0
  125.7219  135.9202  158.8775 H   0  0  0  0  0  0  0  0  0  0  0  0
  128.3200  136.0825  158.2960 H   0  0  0  0  0  0  0  0  0  0  0  0
  129.7216  133.6621  161.0489 H   0  0  0  0  0  0  0  0  0  0  0  0
  127.9823  133.1732  158.9082 H   0  0  0  0  0  0  0  0  0  0  0  0
  128.3165  131.9731  160.1839 H   0  0  0  0  0  0  0  0  0  0  0  0
  128.8751  131.1228  157.8842 H   0  0  0  0  0  0  0  0  0  0  0  0
  130.2928  131.1739  158.9602 H   0  0  0  0  0  0  0  0  0  0  0  0
  129.5352  133.2590  156.8591 H   0  0  0  0  0  0  0  0  0  0  0  0
  130.9009  132.1160  156.7736 H   0  0  0  0  0  0  0  0  0  0  0  0
  132.0400  133.7926  157.9744 H   0  0  0  0  0  0  0  0  0  0  0  0
  130.7726  140.2283  160.2845 H   0  0  0  0  0  0  0  0  0  0  0  0
  128.7119  141.5543  160.3110 H   0  0  0  0  0  0  0  0  0  0  0  0
  128.0672  140.6472  161.7471 H   0  0  0  0  0  0  0  0  0  0  0  0
  130.5159  142.5513  161.6366 H   0  0  0  0  0  0  0  0  0  0  0  0
  128.5653  141.8284  163.7006 H   0  0  0  0  0  0  0  0  0  0  0  0
  130.2272  138.6892  163.5777 H   0  0  0  0  0  0  0  0  0  0  0  0
  130.3780  140.1473  164.5874 H   0  0  0  0  0  0  0  0  0  0  0  0
  128.8950  139.8678  163.6435 H   0  0  0  0  0  0  0  0  0  0  0  0
  132.4663  141.3276  161.8140 H   0  0  0  0  0  0  0  0  0  0  0  0
  132.3912  140.9702  163.5560 H   0  0  0  0  0  0  0  0  0  0  0  0
  132.5615  139.6433  162.3819 H   0  0  0  0  0  0  0  0  0  0  0  0
  1  2  1  0
  1 27  1  0
  1 28  1  0
  1 29  1  0
  2  6  1  0
  2  3  1  0
  3  4  2  0
  4  5  1  0
  4 30  1  0
  5  6  2  0
  5 31  1  0
  6  7  1  0
  7  8  1  1
  7  9  1  0
  7 17  1  0
  9 10  1  0
  9 11  2  0
 11 16  1  0
 11 12  1  0
 12 13  1  0
 12 32  1  0
 13 14  1  0
 13 33  1  0
 13 34  1  0
 14 15  1  0
 14 35  1  0
 14 36  1  0
 15 16  1  0
 15 37  1  0
 15 38  1  0
 16 39  1  0
 17 18  2  0
 17 19  1  0
 19 20  1  0
 20 24  1  0
 20 21  1  0
 20 40  1  6
 21 22  1  0
 21 41  1  0
 21 42  1  0
 22 23  1  0
 22 24  1  0
 22 43  1  6
 23 44  1  0
 24 25  1  0
 24 26  1  0
 25 45  1  0
 25 46  1  0
 25 47  1  0
 26 48  1  0
 26 49  1  0
 26 50  1  0
M  CHG  1   9   1
M  END
>  <DOCK_score>  (1) 
-42.207455

>  <SMILES>  (1) 
Cn1nccc1[C@@H]([NH+]=C1NCCCN1)C(=O)OC1CC(O)C1(C)C

$$$$
