O=C1CC[C@H](NC(NC2CCCCC2)=[NH+]Cc2ncccc2N[C@@H]2C=C[C@@H](O)[C@H]2O)CN1
     RDKit          3D

 67 70  0  0  1  0  0  0  0  0999 V2000
  123.7442  134.0067  161.5885 O   0  0  0  0  0  0  0  0  0  0  0  0
  124.9297  134.2176  161.4433 C   0  0  0  0  0  0  0  0  0  0  0  0
  125.7873  133.1108  160.9003 C   0  0  0  0  0  0  0  0  0  0  0  0
  127.2606  133.4001  161.1970 C   0  0  0  0  0  0  0  0  0  0  0  0
  127.5668  134.8417  160.7733 C   0  0  2  0  0  0  0  0  0  0  0  0
  127.2464  134.9985  159.7433 H   0  0  0  0  0  0  0  0  0  0  0  0
  129.0061  135.0914  160.8837 N   0  0  0  0  0  0  0  0  0  0  0  0
  129.8306  134.8464  159.8111 C   0  0  0  0  0  0  0  0  0  0  0  0
  129.3042  134.3671  158.6350 N   0  0  0  0  0  0  0  0  0  0  0  0
  130.1149  133.5122  157.7643 C   0  0  0  0  0  0  0  0  0  0  0  0
  129.2986  133.1200  156.5312 C   0  0  0  0  0  0  0  0  0  0  0  0
  130.1453  132.2272  155.6218 C   0  0  0  0  0  0  0  0  0  0  0  0
  130.5556  130.9658  156.3843 C   0  0  0  0  0  0  0  0  0  0  0  0
  131.3720  131.3580  157.6174 C   0  0  0  0  0  0  0  0  0  0  0  0
  130.5253  132.2508  158.5267 C   0  0  0  0  0  0  0  0  0  0  0  0
  131.1113  135.0685  159.9094 N   0  0  0  0  0  0  0  0  0  0  0  0
  131.6929  134.8956  159.1527 H   0  0  0  0  0  0  0  0  0  0  0  0
  131.6720  135.5792  161.1628 C   0  0  0  0  0  0  0  0  0  0  0  0
  131.0454  136.9109  161.4876 C   0  0  0  0  0  0  0  0  0  0  0  0
  129.9499  136.9554  162.2192 N   0  0  0  0  0  0  0  0  0  0  0  0
  129.3637  138.0966  162.5238 C   0  0  0  0  0  0  0  0  0  0  0  0
  129.8840  139.3013  162.0878 C   0  0  0  0  0  0  0  0  0  0  0  0
  131.0373  139.3023  161.3209 C   0  0  0  0  0  0  0  0  0  0  0  0
  131.6311  138.0791  161.0173 C   0  0  0  0  0  0  0  0  0  0  0  0
  132.7951  138.0281  160.2466 N   0  0  0  0  0  0  0  0  0  0  0  0
  133.4038  139.2671  159.7561 C   0  0  2  0  0  0  0  0  0  0  0  0
  132.6325  139.9653  159.4306 H   0  0  0  0  0  0  0  0  0  0  0  0
  134.3586  138.9718  158.6227 C   0  0  0  0  0  0  0  0  0  0  0  0
  135.5981  139.0098  159.0303 C   0  0  0  0  0  0  0  0  0  0  0  0
  135.6765  139.3368  160.5034 C   0  0  1  0  0  0  0  0  0  0  0  0
  135.8727  138.4344  161.0827 H   0  0  0  0  0  0  0  0  0  0  0  0
  136.6911  140.3140  160.7431 O   0  0  0  0  0  0  0  0  0  0  0  0
  134.2834  139.9093  160.8538 C   0  0  1  0  0  0  0  0  0  0  0  0
  133.9669  139.5888  161.8462 H   0  0  0  0  0  0  0  0  0  0  0  0
  134.2738  141.3346  160.7501 O   0  0  0  0  0  0  0  0  0  0  0  0
  126.8084  135.7952  161.6974 C   0  0  0  0  0  0  0  0  0  0  0  0
  125.4021  135.4199  161.7747 N   0  0  0  0  0  0  0  0  0  0  0  0
  125.5019  132.1687  161.3684 H   0  0  0  0  0  0  0  0  0  0  0  0
  125.6440  133.0374  159.8222 H   0  0  0  0  0  0  0  0  0  0  0  0
  127.8906  132.7107  160.6349 H   0  0  0  0  0  0  0  0  0  0  0  0
  127.4496  133.2833  162.2642 H   0  0  0  0  0  0  0  0  0  0  0  0
  129.3774  135.4294  161.7136 H   0  0  0  0  0  0  0  0  0  0  0  0
  128.3960  134.5950  158.3817 H   0  0  0  0  0  0  0  0  0  0  0  0
  131.0074  134.0544  157.4518 H   0  0  0  0  0  0  0  0  0  0  0  0
  128.4062  132.5779  156.8437 H   0  0  0  0  0  0  0  0  0  0  0  0
  129.0063  134.0187  155.9880 H   0  0  0  0  0  0  0  0  0  0  0  0
  131.0378  132.7692  155.3093 H   0  0  0  0  0  0  0  0  0  0  0  0
  129.5637  131.9478  154.7434 H   0  0  0  0  0  0  0  0  0  0  0  0
  131.1589  130.3297  155.7364 H   0  0  0  0  0  0  0  0  0  0  0  0
  129.6631  130.4236  156.6968 H   0  0  0  0  0  0  0  0  0  0  0  0
  132.2644  131.9001  157.3049 H   0  0  0  0  0  0  0  0  0  0  0  0
  131.6643  130.4594  158.1606 H   0  0  0  0  0  0  0  0  0  0  0  0
  131.1069  132.5303  159.4052 H   0  0  0  0  0  0  0  0  0  0  0  0
  129.6328  131.7087  158.8393 H   0  0  0  0  0  0  0  0  0  0  0  0
  132.7498  135.7012  161.0555 H   0  0  0  0  0  0  0  0  0  0  0  0
  131.4644  134.8741  161.9677 H   0  0  0  0  0  0  0  0  0  0  0  0
  128.4645  138.0903  163.1218 H   0  0  0  0  0  0  0  0  0  0  0  0
  129.3965  140.2308  162.3422 H   0  0  0  0  0  0  0  0  0  0  0  0
  131.4658  140.2283  160.9671 H   0  0  0  0  0  0  0  0  0  0  0  0
  133.2003  137.1724  160.0360 H   0  0  0  0  0  0  0  0  0  0  0  0
  134.0554  138.7579  157.6085 H   0  0  0  0  0  0  0  0  0  0  0  0
  136.4549  138.8313  158.3976 H   0  0  0  0  0  0  0  0  0  0  0  0
  136.7712  140.5788  161.6697 H   0  0  0  0  0  0  0  0  0  0  0  0
  134.8877  141.7769  161.3524 H   0  0  0  0  0  0  0  0  0  0  0  0
  127.2471  135.7558  162.6944 H   0  0  0  0  0  0  0  0  0  0  0  0
  126.8893  136.8114  161.3115 H   0  0  0  0  0  0  0  0  0  0  0  0
  124.7702  136.0862  162.0873 H   0  0  0  0  0  0  0  0  0  0  0  0
  1  2  2  0
  2 37  1  0
  2  3  1  0
  3  4  1  0
  3 38  1  0
  3 39  1  0
  4  5  1  0
  4 40  1  0
  4 41  1  0
  5  6  1  6
  5  7  1  0
  5 36  1  0
  7 42  1  0
  8  7  1  0
  8  9  1  0
  8 16  2  0
  9 10  1  0
  9 43  1  0
 10 15  1  0
 10 11  1  0
 10 44  1  0
 11 12  1  0
 11 45  1  0
 11 46  1  0
 12 13  1  0
 12 47  1  0
 12 48  1  0
 13 14  1  0
 13 49  1  0
 13 50  1  0
 14 15  1  0
 14 51  1  0
 14 52  1  0
 15 53  1  0
 15 54  1  0
 16 17  1  0
 16 18  1  0
 18 19  1  0
 18 55  1  0
 18 56  1  0
 19 24  1  0
 19 20  2  0
 20 21  1  0
 21 22  2  0
 21 57  1  0
 22 23  1  0
 22 58  1  0
 23 24  2  0
 23 59  1  0
 24 25  1  0
 25 26  1  0
 25 60  1  0
 26 27  1  6
 26 33  1  0
 26 28  1  0
 28 29  2  0
 28 61  1  0
 29 30  1  0
 29 62  1  0
 30 31  1  1
 30 32  1  0
 30 33  1  0
 32 63  1  0
 33 34  1  1
 33 35  1  0
 35 64  1  0
 36 37  1  0
 36 65  1  0
 36 66  1  0
 37 67  1  0
M  CHG  1  16   1
M  END
>  <DOCK_score>  (1) 
-51.571648

>  <SMILES>  (1) 
O=C1CC[C@H](NC(NC2CCCCC2)=[NH+]Cc2ncccc2N[C@@H]2C=C[C@@H](O)[C@H]2O)CN1

$$$$
