Cc1cc(CNc2ccc(-c3n[nH]cc3C[NH2+]C3CCCCC3)o2)cc(=O)[nH]1
     RDKit          3D

 56 59  0  0  0  0  0  0  0  0999 V2000
  127.0142  137.0588  167.5968 C   0  0  0  0  0  0  0  0  0  0  0  0
  126.7146  137.8084  166.3242 C   0  0  0  0  0  0  0  0  0  0  0  0
  127.2575  137.3900  165.1571 C   0  0  0  0  0  0  0  0  0  0  0  0
  126.9826  138.0825  163.9694 C   0  0  0  0  0  0  0  0  0  0  0  0
  127.5825  137.6252  162.6647 C   0  0  0  0  0  0  0  0  0  0  0  0
  126.6809  136.6655  162.0225 N   0  0  0  0  0  0  0  0  0  0  0  0
  127.1974  135.6646  161.2078 C   0  0  0  0  0  0  0  0  0  0  0  0
  126.4738  134.7153  160.5635 C   0  0  0  0  0  0  0  0  0  0  0  0
  127.3885  133.9125  159.8537 C   0  0  0  0  0  0  0  0  0  0  0  0
  128.6279  134.4086  160.1084 C   0  0  0  0  0  0  0  0  0  0  0  0
  129.8993  133.8768  159.5756 C   0  0  0  0  0  0  0  0  0  0  0  0
  130.0305  132.8436  158.7670 N   0  0  0  0  0  0  0  0  0  0  0  0
  131.3948  132.6706  158.5010 N   0  0  0  0  0  0  0  0  0  0  0  0
  131.7813  131.9846  157.9343 H   0  0  0  0  0  0  0  0  0  0  0  0
  132.0791  133.6243  159.1691 C   0  0  0  0  0  0  0  0  0  0  0  0
  131.1881  134.3881  159.8369 C   0  0  0  0  0  0  0  0  0  0  0  0
  131.5126  135.5737  160.7085 C   0  0  0  0  0  0  0  0  0  0  0  0
  132.4940  136.4285  160.0270 N   0  0  0  0  0  0  0  0  0  0  0  0
  133.3353  135.9002  159.8509 H   0  0  0  0  0  0  0  0  0  0  0  0
  132.1091  136.7502  159.1515 H   0  0  0  0  0  0  0  0  0  0  0  0
  132.8104  137.5841  160.8768 C   0  0  0  0  0  0  0  0  0  0  0  0
  131.7048  138.6334  160.7434 C   0  0  0  0  0  0  0  0  0  0  0  0
  132.0345  139.8371  161.6284 C   0  0  0  0  0  0  0  0  0  0  0  0
  133.3685  140.4433  161.1886 C   0  0  0  0  0  0  0  0  0  0  0  0
  134.4741  139.3941  161.3221 C   0  0  0  0  0  0  0  0  0  0  0  0
  134.1445  138.1905  160.4370 C   0  0  0  0  0  0  0  0  0  0  0  0
  128.4980  135.4709  160.9307 O   0  0  0  0  0  0  0  0  0  0  0  0
  126.1709  139.1778  164.0088 C   0  0  0  0  0  0  0  0  0  0  0  0
  125.6199  139.5818  165.2368 C   0  0  0  0  0  0  0  0  0  0  0  0
  124.8881  140.5576  165.2857 O   0  0  0  0  0  0  0  0  0  0  0  0
  125.9027  138.8959  166.3606 N   0  0  0  0  0  0  0  0  0  0  0  0
  125.5223  139.1822  167.2057 H   0  0  0  0  0  0  0  0  0  0  0  0
  127.9022  137.4813  168.0668 H   0  0  0  0  0  0  0  0  0  0  0  0
  126.1670  137.1449  168.2773 H   0  0  0  0  0  0  0  0  0  0  0  0
  127.1899  136.0080  167.3666 H   0  0  0  0  0  0  0  0  0  0  0  0
  127.9017  136.5233  165.1407 H   0  0  0  0  0  0  0  0  0  0  0  0
  127.7252  138.4844  162.0094 H   0  0  0  0  0  0  0  0  0  0  0  0
  128.5445  137.1491  162.8542 H   0  0  0  0  0  0  0  0  0  0  0  0
  125.7236  136.7285  162.1658 H   0  0  0  0  0  0  0  0  0  0  0  0
  125.4004  134.5984  160.5882 H   0  0  0  0  0  0  0  0  0  0  0  0
  127.1508  133.0630  159.2305 H   0  0  0  0  0  0  0  0  0  0  0  0
  133.1511  133.7558  159.1661 H   0  0  0  0  0  0  0  0  0  0  0  0
  130.6037  136.1445  160.8989 H   0  0  0  0  0  0  0  0  0  0  0  0
  131.9282  135.2264  161.6545 H   0  0  0  0  0  0  0  0  0  0  0  0
  132.8823  137.2624  161.9157 H   0  0  0  0  0  0  0  0  0  0  0  0
  131.6327  138.9552  159.7044 H   0  0  0  0  0  0  0  0  0  0  0  0
  130.7543  138.2014  161.0567 H   0  0  0  0  0  0  0  0  0  0  0  0
  132.1065  139.5152  162.6674 H   0  0  0  0  0  0  0  0  0  0  0  0
  131.2468  140.5845  161.5333 H   0  0  0  0  0  0  0  0  0  0  0  0
  133.6033  141.3008  161.8192 H   0  0  0  0  0  0  0  0  0  0  0  0
  133.2965  140.7651  160.1497 H   0  0  0  0  0  0  0  0  0  0  0  0
  134.5462  139.0724  162.3610 H   0  0  0  0  0  0  0  0  0  0  0  0
  135.4247  139.8260  161.0087 H   0  0  0  0  0  0  0  0  0  0  0  0
  134.9322  137.4430  160.5322 H   0  0  0  0  0  0  0  0  0  0  0  0
  134.0725  138.5123  159.3981 H   0  0  0  0  0  0  0  0  0  0  0  0
  125.9511  139.7269  163.1050 H   0  0  0  0  0  0  0  0  0  0  0  0
  1  2  1  0
  1 33  1  0
  1 34  1  0
  1 35  1  0
  2 31  1  0
  2  3  2  0
  3  4  1  0
  3 36  1  0
  4  5  1  0
  4 28  2  0
  5  6  1  0
  5 37  1  0
  5 38  1  0
  6  7  1  0
  6 39  1  0
  7 27  1  0
  7  8  2  0
  8  9  1  0
  8 40  1  0
  9 10  2  0
  9 41  1  0
 10 11  1  0
 10 27  1  0
 11 16  1  0
 11 12  2  0
 12 13  1  0
 13 14  1  0
 13 15  1  0
 15 16  2  0
 15 42  1  0
 16 17  1  0
 17 18  1  0
 17 43  1  0
 17 44  1  0
 18 19  1  0
 18 20  1  0
 18 21  1  0
 21 26  1  0
 21 22  1  0
 21 45  1  0
 22 23  1  0
 22 46  1  0
 22 47  1  0
 23 24  1  0
 23 48  1  0
 23 49  1  0
 24 25  1  0
 24 50  1  0
 24 51  1  0
 25 26  1  0
 25 52  1  0
 25 53  1  0
 26 54  1  0
 26 55  1  0
 28 29  1  0
 28 56  1  0
 29 30  2  0
 29 31  1  0
 31 32  1  0
M  CHG  1  18   1
M  END
>  <DOCK_score>  (1) 
-42.127319

>  <SMILES>  (1) 
Cc1cc(CNc2ccc(-c3n[nH]cc3C[NH2+]C3CCCCC3)o2)cc(=O)[nH]1

$$$$
