C[C@H](Cc1ccccc1-c1cccc2ccccc12)Nc1[nH]cc(-c2ccc(N)cc2)[nH+]1
     RDKit          3D

 59 63  0  0  1  0  0  0  0  0999 V2000
  128.0022  136.3181  159.0586 C   0  0  0  0  0  0  0  0  0  0  0  0
  129.1183  135.5789  159.7995 C   0  0  2  0  0  0  0  0  0  0  0  0
  128.7024  134.7094  160.3088 H   0  0  0  0  0  0  0  0  0  0  0  0
  129.7555  136.5157  160.8277 C   0  0  0  0  0  0  0  0  0  0  0  0
  130.4810  135.7015  161.8676 C   0  0  0  0  0  0  0  0  0  0  0  0
  131.8107  135.3784  161.6889 C   0  0  0  0  0  0  0  0  0  0  0  0
  132.4783  134.6318  162.6430 C   0  0  0  0  0  0  0  0  0  0  0  0
  131.8180  134.2037  163.7811 C   0  0  0  0  0  0  0  0  0  0  0  0
  130.4885  134.5201  163.9708 C   0  0  0  0  0  0  0  0  0  0  0  0
  129.8117  135.2779  163.0152 C   0  0  0  0  0  0  0  0  0  0  0  0
  128.3859  135.6261  163.2158 C   0  0  0  0  0  0  0  0  0  0  0  0
  128.0369  136.7971  163.8649 C   0  0  0  0  0  0  0  0  0  0  0  0
  126.7011  137.1313  164.0566 C   0  0  0  0  0  0  0  0  0  0  0  0
  125.7012  136.3189  163.6139 C   0  0  0  0  0  0  0  0  0  0  0  0
  126.0106  135.1193  162.9504 C   0  0  0  0  0  0  0  0  0  0  0  0
  124.9976  134.2631  162.4848 C   0  0  0  0  0  0  0  0  0  0  0  0
  125.3322  133.1085  161.8463 C   0  0  0  0  0  0  0  0  0  0  0  0
  126.6665  132.7607  161.6468 C   0  0  0  0  0  0  0  0  0  0  0  0
  127.6735  133.5662  162.0851 C   0  0  0  0  0  0  0  0  0  0  0  0
  127.3664  134.7676  162.7404 C   0  0  0  0  0  0  0  0  0  0  0  0
  130.1356  135.1423  158.8399 N   0  0  0  0  0  0  0  0  0  0  0  0
  130.0304  133.9009  158.2362 C   0  0  0  0  0  0  0  0  0  0  0  0
  129.4516  132.7990  158.7859 N   0  0  0  0  0  0  0  0  0  0  0  0
  129.0392  132.7429  159.6620 H   0  0  0  0  0  0  0  0  0  0  0  0
  129.5538  131.7811  157.8673 C   0  0  0  0  0  0  0  0  0  0  0  0
  130.1915  132.2910  156.7849 C   0  0  0  0  0  0  0  0  0  0  0  0
  130.5249  131.5546  155.5409 C   0  0  0  0  0  0  0  0  0  0  0  0
  130.0096  131.9811  154.3179 C   0  0  0  0  0  0  0  0  0  0  0  0
  130.3258  131.2987  153.1620 C   0  0  0  0  0  0  0  0  0  0  0  0
  131.1475  130.1792  153.2175 C   0  0  0  0  0  0  0  0  0  0  0  0
  131.4613  129.4857  152.0461 N   0  0  0  0  0  0  0  0  0  0  0  0
  131.6578  129.7487  154.4365 C   0  0  0  0  0  0  0  0  0  0  0  0
  131.3492  130.4317  155.5940 C   0  0  0  0  0  0  0  0  0  0  0  0
  130.4714  133.5935  157.0408 N   0  0  0  0  0  0  0  0  0  0  0  0
  130.9253  134.2005  156.4355 H   0  0  0  0  0  0  0  0  0  0  0  0
  127.5481  135.6505  158.3262 H   0  0  0  0  0  0  0  0  0  0  0  0
  127.2453  136.6428  159.7726 H   0  0  0  0  0  0  0  0  0  0  0  0
  128.4180  137.1874  158.5493 H   0  0  0  0  0  0  0  0  0  0  0  0
  130.4619  137.1781  160.3270 H   0  0  0  0  0  0  0  0  0  0  0  0
  128.9785  137.1101  161.3084 H   0  0  0  0  0  0  0  0  0  0  0  0
  132.3314  135.7094  160.8024 H   0  0  0  0  0  0  0  0  0  0  0  0
  133.5190  134.3816  162.4989 H   0  0  0  0  0  0  0  0  0  0  0  0
  132.3442  133.6205  164.5222 H   0  0  0  0  0  0  0  0  0  0  0  0
  129.9743  134.1857  164.8597 H   0  0  0  0  0  0  0  0  0  0  0  0
  128.8103  137.4589  164.2260 H   0  0  0  0  0  0  0  0  0  0  0  0
  126.4517  138.0506  164.5655 H   0  0  0  0  0  0  0  0  0  0  0  0
  124.6698  136.5967  163.7733 H   0  0  0  0  0  0  0  0  0  0  0  0
  123.9591  134.5198  162.6332 H   0  0  0  0  0  0  0  0  0  0  0  0
  124.5522  132.4523  161.4894 H   0  0  0  0  0  0  0  0  0  0  0  0
  126.9058  131.8387  161.1375 H   0  0  0  0  0  0  0  0  0  0  0  0
  128.7034  133.2840  161.9240 H   0  0  0  0  0  0  0  0  0  0  0  0
  130.8828  135.7232  158.6275 H   0  0  0  0  0  0  0  0  0  0  0  0
  129.1945  130.7695  157.9852 H   0  0  0  0  0  0  0  0  0  0  0  0
  129.3669  132.8479  154.2750 H   0  0  0  0  0  0  0  0  0  0  0  0
  129.9307  131.6317  152.2137 H   0  0  0  0  0  0  0  0  0  0  0  0
  132.0352  128.7046  152.0840 H   0  0  0  0  0  0  0  0  0  0  0  0
  131.1058  129.7855  151.1949 H   0  0  0  0  0  0  0  0  0  0  0  0
  132.2961  128.8786  154.4772 H   0  0  0  0  0  0  0  0  0  0  0  0
  131.7462  130.0971  156.5410 H   0  0  0  0  0  0  0  0  0  0  0  0
  1  2  1  0
  1 36  1  0
  1 37  1  0
  1 38  1  0
  2  3  1  1
  2  4  1  0
  2 21  1  0
  4  5  1  0
  4 39  1  0
  4 40  1  0
  5 10  1  0
  5  6  2  0
  6  7  1  0
  6 41  1  0
  7  8  2  0
  7 42  1  0
  8  9  1  0
  8 43  1  0
  9 10  2  0
  9 44  1  0
 10 11  1  0
 11 20  1  0
 11 12  2  0
 12 13  1  0
 12 45  1  0
 13 14  2  0
 13 46  1  0
 14 15  1  0
 14 47  1  0
 15 20  2  0
 15 16  1  0
 16 17  2  0
 16 48  1  0
 17 18  1  0
 17 49  1  0
 18 19  2  0
 18 50  1  0
 19 20  1  0
 19 51  1  0
 21 52  1  0
 22 21  1  0
 22 34  2  0
 22 23  1  0
 23 24  1  0
 23 25  1  0
 25 26  2  0
 25 53  1  0
 26 27  1  0
 26 34  1  0
 27 33  1  0
 27 28  2  0
 28 29  1  0
 28 54  1  0
 29 30  2  0
 29 55  1  0
 30 31  1  0
 30 32  1  0
 31 56  1  0
 31 57  1  0
 32 33  2  0
 32 58  1  0
 33 59  1  0
 34 35  1  0
M  CHG  1  34   1
M  END
>  <DOCK_score>  (1) 
-57.841225

>  <SMILES>  (1) 
C[C@H](Cc1ccccc1-c1cccc2ccccc12)Nc1[nH]cc(-c2ccc(N)cc2)[nH+]1

$$$$
