Brc1cccc(N2CC[NH+](C(c3ccccc3)c3ccccc3)CC2)c1CC1=CCC=CC1
     RDKit          3D

 65 69  0  0  1  0  0  0  0  0999 V2000
  136.1520  141.2569  162.8347 Br  0  0  0  0  0  0  0  0  0  0  0  0
  135.3725  140.3180  161.3902 C   0  0  0  0  0  0  0  0  0  0  0  0
  135.7917  140.5695  160.0954 C   0  0  0  0  0  0  0  0  0  0  0  0
  135.2243  139.8850  159.0367 C   0  0  0  0  0  0  0  0  0  0  0  0
  134.2366  138.9475  159.2681 C   0  0  0  0  0  0  0  0  0  0  0  0
  133.8094  138.6962  160.5658 C   0  0  0  0  0  0  0  0  0  0  0  0
  132.8071  137.7526  160.8022 N   0  0  0  0  0  0  0  0  0  0  0  0
  133.2461  136.4072  160.4053 C   0  0  0  0  0  0  0  0  0  0  0  0
  132.1452  135.3968  160.7350 C   0  0  0  0  0  0  0  0  0  0  0  0
  130.9158  135.7607  160.0182 N   0  0  0  0  0  0  0  0  0  0  0  0
  131.0947  135.7659  159.0252 H   0  0  0  0  0  0  0  0  0  0  0  0
  129.8645  134.7803  160.3206 C   0  0  0  0  0  0  0  0  0  0  0  0
  128.6031  135.1534  159.5855 C   0  0  0  0  0  0  0  0  0  0  0  0
  127.3702  134.8259  160.1179 C   0  0  0  0  0  0  0  0  0  0  0  0
  126.2129  135.1724  159.4458 C   0  0  0  0  0  0  0  0  0  0  0  0
  126.2884  135.8373  158.2370 C   0  0  0  0  0  0  0  0  0  0  0  0
  127.5218  136.1598  157.7012 C   0  0  0  0  0  0  0  0  0  0  0  0
  128.6790  135.8180  158.3758 C   0  0  0  0  0  0  0  0  0  0  0  0
  130.3145  133.4102  159.8832 C   0  0  0  0  0  0  0  0  0  0  0  0
  129.8709  132.2887  160.5587 C   0  0  0  0  0  0  0  0  0  0  0  0
  130.2798  131.0316  160.1545 C   0  0  0  0  0  0  0  0  0  0  0  0
  131.1408  130.8966  159.0814 C   0  0  0  0  0  0  0  0  0  0  0  0
  131.5885  132.0186  158.4092 C   0  0  0  0  0  0  0  0  0  0  0  0
  131.1755  133.2753  158.8102 C   0  0  0  0  0  0  0  0  0  0  0  0
  130.4764  137.0963  160.4431 C   0  0  0  0  0  0  0  0  0  0  0  0
  131.5634  138.1209  160.1112 C   0  0  0  0  0  0  0  0  0  0  0  0
  134.3853  139.3812  161.6283 C   0  0  0  0  0  0  0  0  0  0  0  0
  133.9298  139.1068  163.0384 C   0  0  0  0  0  0  0  0  0  0  0  0
  134.7677  138.0035  163.6312 C   0  0  0  0  0  0  0  0  0  0  0  0
  134.2317  137.2272  164.5232 C   0  0  0  0  0  0  0  0  0  0  0  0
  134.9751  136.0981  165.1706 C   0  0  0  0  0  0  0  0  0  0  0  0
  136.4572  136.2826  165.0417 C   0  0  0  0  0  0  0  0  0  0  0  0
  136.9949  137.0622  164.1538 C   0  0  0  0  0  0  0  0  0  0  0  0
  136.1863  137.8536  163.1702 C   0  0  0  0  0  0  0  0  0  0  0  0
  136.5641  141.3017  159.9117 H   0  0  0  0  0  0  0  0  0  0  0  0
  135.5538  140.0833  158.0275 H   0  0  0  0  0  0  0  0  0  0  0  0
  133.7935  138.4136  158.4404 H   0  0  0  0  0  0  0  0  0  0  0  0
  133.4458  136.3911  159.3339 H   0  0  0  0  0  0  0  0  0  0  0  0
  134.1541  136.1459  160.9487 H   0  0  0  0  0  0  0  0  0  0  0  0
  131.9554  135.4035  161.8083 H   0  0  0  0  0  0  0  0  0  0  0  0
  132.4630  134.4003  160.4284 H   0  0  0  0  0  0  0  0  0  0  0  0
  129.6714  134.7741  161.3934 H   0  0  0  0  0  0  0  0  0  0  0  0
  127.3111  134.3026  161.0609 H   0  0  0  0  0  0  0  0  0  0  0  0
  125.2495  134.9198  159.8637 H   0  0  0  0  0  0  0  0  0  0  0  0
  125.3848  136.1038  157.7090 H   0  0  0  0  0  0  0  0  0  0  0  0
  127.5811  136.6790  156.7558 H   0  0  0  0  0  0  0  0  0  0  0  0
  129.6423  136.0700  157.9576 H   0  0  0  0  0  0  0  0  0  0  0  0
  129.2017  132.3943  161.3998 H   0  0  0  0  0  0  0  0  0  0  0  0
  129.9302  130.1551  160.6799 H   0  0  0  0  0  0  0  0  0  0  0  0
  131.4638  129.9148  158.7683 H   0  0  0  0  0  0  0  0  0  0  0  0
  132.2614  131.9131  157.5710 H   0  0  0  0  0  0  0  0  0  0  0  0
  131.5256  134.1518  158.2852 H   0  0  0  0  0  0  0  0  0  0  0  0
  130.2951  137.0942  161.5180 H   0  0  0  0  0  0  0  0  0  0  0  0
  129.5570  137.3598  159.9202 H   0  0  0  0  0  0  0  0  0  0  0  0
  131.2438  139.1097  160.4399 H   0  0  0  0  0  0  0  0  0  0  0  0
  131.7353  138.1329  159.0348 H   0  0  0  0  0  0  0  0  0  0  0  0
  134.0411  140.0100  163.6384 H   0  0  0  0  0  0  0  0  0  0  0  0
  132.8830  138.8032  163.0295 H   0  0  0  0  0  0  0  0  0  0  0  0
  133.2043  137.4000  164.8082 H   0  0  0  0  0  0  0  0  0  0  0  0
  134.6894  135.1592  164.6962 H   0  0  0  0  0  0  0  0  0  0  0  0
  134.7104  136.0594  166.2273 H   0  0  0  0  0  0  0  0  0  0  0  0
  137.1056  135.7441  165.7169 H   0  0  0  0  0  0  0  0  0  0  0  0
  138.0715  137.1445  164.1224 H   0  0  0  0  0  0  0  0  0  0  0  0
  136.1970  137.3439  162.2068 H   0  0  0  0  0  0  0  0  0  0  0  0
  136.6314  138.8421  163.0564 H   0  0  0  0  0  0  0  0  0  0  0  0
  1  2  1  0
  2 27  2  0
  2  3  1  0
  3  4  2  0
  3 35  1  0
  4  5  1  0
  4 36  1  0
  5  6  2  0
  5 37  1  0
  6  7  1  0
  6 27  1  0
  7 26  1  0
  7  8  1  0
  8  9  1  0
  8 38  1  0
  8 39  1  0
  9 10  1  0
  9 40  1  0
  9 41  1  0
 10 11  1  0
 10 12  1  0
 10 25  1  0
 12 13  1  0
 12 19  1  0
 12 42  1  0
 13 18  1  0
 13 14  2  0
 14 15  1  0
 14 43  1  0
 15 16  2  0
 15 44  1  0
 16 17  1  0
 16 45  1  0
 17 18  2  0
 17 46  1  0
 18 47  1  0
 19 24  1  0
 19 20  2  0
 20 21  1  0
 20 48  1  0
 21 22  2  0
 21 49  1  0
 22 23  1  0
 22 50  1  0
 23 24  2  0
 23 51  1  0
 24 52  1  0
 25 26  1  0
 25 53  1  0
 25 54  1  0
 26 55  1  0
 26 56  1  0
 27 28  1  0
 28 29  1  0
 28 57  1  0
 28 58  1  0
 29 34  1  0
 29 30  2  0
 30 31  1  0
 30 59  1  0
 31 32  1  0
 31 60  1  0
 31 61  1  0
 32 33  2  0
 32 62  1  0
 33 34  1  0
 33 63  1  0
 34 64  1  0
 34 65  1  0
M  CHG  1  10   1
M  END
>  <DOCK_score>  (1) 
-56.857502

>  <SMILES>  (1) 
Brc1cccc(N2CC[NH+](C(c3ccccc3)c3ccccc3)CC2)c1CC1=CCC=CC1

$$$$
