Cc1ccc(-c2ccccc2C[C@H](Nc2[nH]cc(-c3ccc(N)cc3)[nH+]2)C2=CCCCC2)cc1
     RDKit          3D

 67 71  0  0  1  0  0  0  0  0999 V2000
  129.2452  135.8794  165.2858 C   0  0  0  0  0  0  0  0  0  0  0  0
  128.7688  134.9371  164.2107 C   0  0  0  0  0  0  0  0  0  0  0  0
  127.5916  135.2019  163.5343 C   0  0  0  0  0  0  0  0  0  0  0  0
  127.1504  134.3421  162.5491 C   0  0  0  0  0  0  0  0  0  0  0  0
  127.8932  133.2055  162.2359 C   0  0  0  0  0  0  0  0  0  0  0  0
  127.4239  132.2773  161.1776 C   0  0  0  0  0  0  0  0  0  0  0  0
  126.5834  131.2140  161.5024 C   0  0  0  0  0  0  0  0  0  0  0  0
  126.1546  130.3505  160.5151 C   0  0  0  0  0  0  0  0  0  0  0  0
  126.5527  130.5423  159.2041 C   0  0  0  0  0  0  0  0  0  0  0  0
  127.3823  131.5988  158.8754 C   0  0  0  0  0  0  0  0  0  0  0  0
  127.8173  132.4687  159.8551 C   0  0  0  0  0  0  0  0  0  0  0  0
  128.7213  133.6195  159.4953 C   0  0  0  0  0  0  0  0  0  0  0  0
  130.1810  133.1721  159.5957 C   0  0  2  0  0  0  0  0  0  0  0  0
  130.3926  132.8486  160.6149 H   0  0  0  0  0  0  0  0  0  0  0  0
  131.0598  134.2908  159.2460 N   0  0  0  0  0  0  0  0  0  0  0  0
  131.5002  135.1591  160.2304 C   0  0  0  0  0  0  0  0  0  0  0  0
  131.1885  135.0817  161.5526 N   0  0  0  0  0  0  0  0  0  0  0  0
  130.6236  134.4138  161.9719 H   0  0  0  0  0  0  0  0  0  0  0  0
  131.8230  136.1248  162.1850 C   0  0  0  0  0  0  0  0  0  0  0  0
  132.5026  136.8078  161.2311 C   0  0  0  0  0  0  0  0  0  0  0  0
  133.3359  138.0157  161.4488 C   0  0  0  0  0  0  0  0  0  0  0  0
  133.4708  138.9629  160.4350 C   0  0  0  0  0  0  0  0  0  0  0  0
  134.2413  140.0876  160.6416 C   0  0  0  0  0  0  0  0  0  0  0  0
  134.8929  140.2714  161.8554 C   0  0  0  0  0  0  0  0  0  0  0  0
  135.6780  141.4086  162.0605 N   0  0  0  0  0  0  0  0  0  0  0  0
  134.7641  139.3258  162.8659 C   0  0  0  0  0  0  0  0  0  0  0  0
  133.9901  138.2023  162.6656 C   0  0  0  0  0  0  0  0  0  0  0  0
  132.2855  136.1916  160.0422 N   0  0  0  0  0  0  0  0  0  0  0  0
  132.6530  136.4705  159.1888 H   0  0  0  0  0  0  0  0  0  0  0  0
  130.4221  132.0278  158.6452 C   0  0  0  0  0  0  0  0  0  0  0  0
  130.2192  132.2337  157.3835 C   0  0  0  0  0  0  0  0  0  0  0  0
  130.4112  131.1925  156.3200 C   0  0  0  0  0  0  0  0  0  0  0  0
  131.2511  130.0334  156.8609 C   0  0  0  0  0  0  0  0  0  0  0  0
  130.6610  129.5933  158.2067 C   0  0  0  0  0  0  0  0  0  0  0  0
  130.8770  130.7188  159.2209 C   0  0  0  0  0  0  0  0  0  0  0  0
  129.0755  132.9408  162.9241 C   0  0  0  0  0  0  0  0  0  0  0  0
  129.5103  133.8106  163.9036 C   0  0  0  0  0  0  0  0  0  0  0  0
  128.8356  135.5704  166.2475 H   0  0  0  0  0  0  0  0  0  0  0  0
  130.3341  135.8586  165.3309 H   0  0  0  0  0  0  0  0  0  0  0  0
  128.9105  136.8912  165.0566 H   0  0  0  0  0  0  0  0  0  0  0  0
  127.0166  136.0832  163.7778 H   0  0  0  0  0  0  0  0  0  0  0  0
  126.2312  134.5498  162.0216 H   0  0  0  0  0  0  0  0  0  0  0  0
  126.2718  131.0637  162.5255 H   0  0  0  0  0  0  0  0  0  0  0  0
  125.5067  129.5238  160.7663 H   0  0  0  0  0  0  0  0  0  0  0  0
  126.2140  129.8644  158.4344 H   0  0  0  0  0  0  0  0  0  0  0  0
  127.6901  131.7439  157.8504 H   0  0  0  0  0  0  0  0  0  0  0  0
  128.5469  134.4472  160.1827 H   0  0  0  0  0  0  0  0  0  0  0  0
  128.5098  133.9430  158.4762 H   0  0  0  0  0  0  0  0  0  0  0  0
  131.3333  134.4232  158.3248 H   0  0  0  0  0  0  0  0  0  0  0  0
  131.7835  136.3582  163.2386 H   0  0  0  0  0  0  0  0  0  0  0  0
  132.9685  138.8181  159.4898 H   0  0  0  0  0  0  0  0  0  0  0  0
  134.3427  140.8237  159.8579 H   0  0  0  0  0  0  0  0  0  0  0  0
  136.1327  141.5377  162.9074 H   0  0  0  0  0  0  0  0  0  0  0  0
  135.7683  142.0690  161.3557 H   0  0  0  0  0  0  0  0  0  0  0  0
  135.2710  139.4708  163.8085 H   0  0  0  0  0  0  0  0  0  0  0  0
  133.8903  137.4678  163.4511 H   0  0  0  0  0  0  0  0  0  0  0  0
  129.8949  133.2172  157.0767 H   0  0  0  0  0  0  0  0  0  0  0  0
  130.9180  131.6369  155.4634 H   0  0  0  0  0  0  0  0  0  0  0  0
  129.4371  130.8173  156.0062 H   0  0  0  0  0  0  0  0  0  0  0  0
  132.2808  130.3616  157.0021 H   0  0  0  0  0  0  0  0  0  0  0  0
  131.2218  129.2006  156.1582 H   0  0  0  0  0  0  0  0  0  0  0  0
  131.1644  128.6895  158.5496 H   0  0  0  0  0  0  0  0  0  0  0  0
  129.5939  129.4017  158.0938 H   0  0  0  0  0  0  0  0  0  0  0  0
  131.9362  130.7822  159.4701 H   0  0  0  0  0  0  0  0  0  0  0  0
  130.3074  130.5043  160.1252 H   0  0  0  0  0  0  0  0  0  0  0  0
  129.6527  132.0589  162.6887 H   0  0  0  0  0  0  0  0  0  0  0  0
  130.4290  133.6087  164.4346 H   0  0  0  0  0  0  0  0  0  0  0  0
  1  2  1  0
  1 38  1  0
  1 39  1  0
  1 40  1  0
  2 37  2  0
  2  3  1  0
  3  4  2  0
  3 41  1  0
  4  5  1  0
  4 42  1  0
  5  6  1  0
  5 36  2  0
  6 11  1  0
  6  7  2  0
  7  8  1  0
  7 43  1  0
  8  9  2  0
  8 44  1  0
  9 10  1  0
  9 45  1  0
 10 11  2  0
 10 46  1  0
 11 12  1  0
 12 13  1  0
 12 47  1  0
 12 48  1  0
 13 14  1  1
 13 15  1  0
 13 30  1  0
 15 49  1  0
 16 15  1  0
 16 28  2  0
 16 17  1  0
 17 18  1  0
 17 19  1  0
 19 20  2  0
 19 50  1  0
 20 21  1  0
 20 28  1  0
 21 27  1  0
 21 22  2  0
 22 23  1  0
 22 51  1  0
 23 24  2  0
 23 52  1  0
 24 25  1  0
 24 26  1  0
 25 53  1  0
 25 54  1  0
 26 27  2  0
 26 55  1  0
 27 56  1  0
 28 29  1  0
 30 35  1  0
 30 31  2  0
 31 32  1  0
 31 57  1  0
 32 33  1  0
 32 58  1  0
 32 59  1  0
 33 34  1  0
 33 60  1  0
 33 61  1  0
 34 35  1  0
 34 62  1  0
 34 63  1  0
 35 64  1  0
 35 65  1  0
 36 37  1  0
 36 66  1  0
 37 67  1  0
M  CHG  1  28   1
M  END
>  <DOCK_score>  (1) 
-60.789284

>  <SMILES>  (1) 
Cc1ccc(-c2ccccc2C[C@H](Nc2[nH]cc(-c3ccc(N)cc3)[nH+]2)C2=CCCCC2)cc1

$$$$
