[NH3+]Cc1ccc(-c2ccc(Nc3ccc(Nc4[nH]cc(-c5cccnc5)[nH+]4)cc3)cc2)cc1
     RDKit          3D

 59 63  0  0  1  0  0  0  0  0999 V2000
  126.9658  141.3016  172.4018 N   0  0  0  0  0  0  0  0  0  0  0  0
  126.5345  142.0342  171.8583 H   0  0  0  0  0  0  0  0  0  0  0  0
  127.1815  141.6495  173.3241 H   0  0  0  0  0  0  0  0  0  0  0  0
  126.3315  140.5205  172.4767 H   0  0  0  0  0  0  0  0  0  0  0  0
  128.2034  140.8657  171.7412 C   0  0  0  0  0  0  0  0  0  0  0  0
  127.8814  140.3462  170.3637 C   0  0  0  0  0  0  0  0  0  0  0  0
  127.5919  139.0056  170.1832 C   0  0  0  0  0  0  0  0  0  0  0  0
  127.2906  138.5254  168.9249 C   0  0  0  0  0  0  0  0  0  0  0  0
  127.2898  139.3916  167.8330 C   0  0  0  0  0  0  0  0  0  0  0  0
  126.9723  138.8803  166.4773 C   0  0  0  0  0  0  0  0  0  0  0  0
  126.3620  139.7148  165.5418 C   0  0  0  0  0  0  0  0  0  0  0  0
  126.0726  139.2392  164.2809 C   0  0  0  0  0  0  0  0  0  0  0  0
  126.3789  137.9252  163.9451 C   0  0  0  0  0  0  0  0  0  0  0  0
  126.0798  137.4438  162.6696 N   0  0  0  0  0  0  0  0  0  0  0  0
  127.1042  136.9685  161.8430 C   0  0  0  0  0  0  0  0  0  0  0  0
  126.8418  135.9656  160.9184 C   0  0  0  0  0  0  0  0  0  0  0  0
  127.8509  135.5011  160.0987 C   0  0  0  0  0  0  0  0  0  0  0  0
  129.1314  136.0278  160.2071 C   0  0  0  0  0  0  0  0  0  0  0  0
  130.1564  135.5521  159.3801 N   0  0  0  0  0  0  0  0  0  0  0  0
  130.1332  134.2417  158.9324 C   0  0  0  0  0  0  0  0  0  0  0  0
  129.5824  133.1873  159.5942 N   0  0  0  0  0  0  0  0  0  0  0  0
  129.1400  133.2180  160.4569 H   0  0  0  0  0  0  0  0  0  0  0  0
  129.7690  132.0719  158.8150 C   0  0  0  0  0  0  0  0  0  0  0  0
  130.4279  132.4759  157.7005 C   0  0  0  0  0  0  0  0  0  0  0  0
  130.8455  131.6096  156.5711 C   0  0  0  0  0  0  0  0  0  0  0  0
  130.9265  132.1236  155.2736 C   0  0  0  0  0  0  0  0  0  0  0  0
  131.3256  131.2754  154.2554 C   0  0  0  0  0  0  0  0  0  0  0  0
  131.6186  129.9561  154.5495 C   0  0  0  0  0  0  0  0  0  0  0  0
  131.5281  129.4979  155.7830 N   0  0  0  0  0  0  0  0  0  0  0  0
  131.1577  130.2685  156.7854 C   0  0  0  0  0  0  0  0  0  0  0  0
  130.6331  133.8130  157.7990 N   0  0  0  0  0  0  0  0  0  0  0  0
  131.0803  134.3636  157.1374 H   0  0  0  0  0  0  0  0  0  0  0  0
  129.3953  137.0265  161.1355 C   0  0  0  0  0  0  0  0  0  0  0  0
  128.3848  137.4955  161.9510 C   0  0  0  0  0  0  0  0  0  0  0  0
  126.9824  137.0897  164.8785 C   0  0  0  0  0  0  0  0  0  0  0  0
  127.2786  137.5631  166.1387 C   0  0  0  0  0  0  0  0  0  0  0  0
  127.5879  140.7403  168.0200 C   0  0  0  0  0  0  0  0  0  0  0  0
  127.8820  141.2105  169.2837 C   0  0  0  0  0  0  0  0  0  0  0  0
  128.8887  141.7095  171.6602 H   0  0  0  0  0  0  0  0  0  0  0  0
  128.6693  140.0743  172.3283 H   0  0  0  0  0  0  0  0  0  0  0  0
  127.5974  138.3344  171.0292 H   0  0  0  0  0  0  0  0  0  0  0  0
  127.0604  137.4795  168.7857 H   0  0  0  0  0  0  0  0  0  0  0  0
  126.1199  140.7342  165.8037 H   0  0  0  0  0  0  0  0  0  0  0  0
  125.6040  139.8865  163.5544 H   0  0  0  0  0  0  0  0  0  0  0  0
  125.1619  137.4388  162.3560 H   0  0  0  0  0  0  0  0  0  0  0  0
  125.8470  135.5526  160.8375 H   0  0  0  0  0  0  0  0  0  0  0  0
  127.6456  134.7246  159.3766 H   0  0  0  0  0  0  0  0  0  0  0  0
  130.8827  136.1405  159.1208 H   0  0  0  0  0  0  0  0  0  0  0  0
  129.4515  131.0657  159.0454 H   0  0  0  0  0  0  0  0  0  0  0  0
  130.6877  133.1573  155.0717 H   0  0  0  0  0  0  0  0  0  0  0  0
  131.4030  131.6387  153.2412 H   0  0  0  0  0  0  0  0  0  0  0  0
  131.9265  129.2904  153.7567 H   0  0  0  0  0  0  0  0  0  0  0  0
  131.0957  129.8573  157.7820 H   0  0  0  0  0  0  0  0  0  0  0  0
  130.3912  137.4361  161.2197 H   0  0  0  0  0  0  0  0  0  0  0  0
  128.5900  138.2724  162.6726 H   0  0  0  0  0  0  0  0  0  0  0  0
  127.2194  136.0692  164.6158 H   0  0  0  0  0  0  0  0  0  0  0  0
  127.7473  136.9139  166.8634 H   0  0  0  0  0  0  0  0  0  0  0  0
  127.5882  141.4160  167.1776 H   0  0  0  0  0  0  0  0  0  0  0  0
  128.1135  142.2553  169.4297 H   0  0  0  0  0  0  0  0  0  0  0  0
  1  2  1  0
  1  3  1  0
  1  4  1  0
  1  5  1  0
  5  6  1  0
  5 39  1  0
  5 40  1  0
  6 38  2  0
  6  7  1  0
  7  8  2  0
  7 41  1  0
  8  9  1  0
  8 42  1  0
  9 10  1  0
  9 37  2  0
 10 36  1  0
 10 11  2  0
 11 12  1  0
 11 43  1  0
 12 13  2  0
 12 44  1  0
 13 14  1  0
 13 35  1  0
 14 15  1  0
 14 45  1  0
 15 34  1  0
 15 16  2  0
 16 17  1  0
 16 46  1  0
 17 18  2  0
 17 47  1  0
 18 19  1  0
 18 33  1  0
 19 48  1  0
 20 19  1  0
 20 31  2  0
 20 21  1  0
 21 22  1  0
 21 23  1  0
 23 24  2  0
 23 49  1  0
 24 25  1  0
 24 31  1  0
 25 30  1  0
 25 26  2  0
 26 27  1  0
 26 50  1  0
 27 28  2  0
 27 51  1  0
 28 29  1  0
 28 52  1  0
 29 30  2  0
 30 53  1  0
 31 32  1  0
 33 34  2  0
 33 54  1  0
 34 55  1  0
 35 36  2  0
 35 56  1  0
 36 57  1  0
 37 38  1  0
 37 58  1  0
 38 59  1  0
M  CHG  2   1   1  31   1
M  END
>  <DOCK_score>  (1) 
-56.138371

>  <SMILES>  (1) 
[NH3+]Cc1ccc(-c2ccc(Nc3ccc(Nc4[nH]cc(-c5cccnc5)[nH+]4)cc3)cc2)cc1

$$$$
