O=C(C=Cc1cccc2cncn12)Nc1c[nH]nc1[C@H]1CCC[NH2+]C1
     RDKit          3D

 46 49  0  0  1  0  0  0  0  0999 V2000
  129.1744  138.6970  160.9733 O   0  0  0  0  0  0  0  0  0  0  0  0
  130.1090  137.9162  160.9960 C   0  0  0  0  0  0  0  0  0  0  0  0
  131.4183  138.3867  161.2560 C   0  0  0  0  0  0  0  0  0  0  0  0
  131.9852  139.3058  160.4332 C   0  0  0  0  0  0  0  0  0  0  0  0
  133.2489  139.8562  160.7515 C   0  0  0  0  0  0  0  0  0  0  0  0
  133.4207  140.5567  161.9295 C   0  0  0  0  0  0  0  0  0  0  0  0
  134.6678  141.0981  162.2514 C   0  0  0  0  0  0  0  0  0  0  0  0
  135.7202  140.9453  161.3967 C   0  0  0  0  0  0  0  0  0  0  0  0
  135.5458  140.2374  160.1950 C   0  0  0  0  0  0  0  0  0  0  0  0
  136.3880  139.9167  159.1463 C   0  0  0  0  0  0  0  0  0  0  0  0
  135.6754  139.2213  158.2610 N   0  0  0  0  0  0  0  0  0  0  0  0
  134.4438  139.0865  158.6870 C   0  0  0  0  0  0  0  0  0  0  0  0
  134.3127  139.6979  159.8798 N   0  0  0  0  0  0  0  0  0  0  0  0
  129.8963  136.6040  160.7735 N   0  0  0  0  0  0  0  0  0  0  0  0
  128.5948  136.1362  160.5150 C   0  0  0  0  0  0  0  0  0  0  0  0
  127.4419  136.6801  160.9826 C   0  0  0  0  0  0  0  0  0  0  0  0
  126.4133  135.9301  160.5089 N   0  0  0  0  0  0  0  0  0  0  0  0
  125.4707  136.0791  160.6825 H   0  0  0  0  0  0  0  0  0  0  0  0
  126.9549  134.9032  159.7251 N   0  0  0  0  0  0  0  0  0  0  0  0
  128.2573  135.0274  159.7249 C   0  0  0  0  0  0  0  0  0  0  0  0
  129.2291  134.1289  159.0044 C   0  0  1  0  0  0  0  0  0  0  0  0
  130.1691  134.0933  159.5552 H   0  0  0  0  0  0  0  0  0  0  0  0
  128.6423  132.7180  158.9028 C   0  0  0  0  0  0  0  0  0  0  0  0
  129.6021  131.8330  158.1024 C   0  0  0  0  0  0  0  0  0  0  0  0
  129.8411  132.4619  156.7281 C   0  0  0  0  0  0  0  0  0  0  0  0
  130.4269  133.7976  156.8925 N   0  0  0  0  0  0  0  0  0  0  0  0
  131.2798  133.7263  157.4269 H   0  0  0  0  0  0  0  0  0  0  0  0
  130.6315  134.1881  155.9849 H   0  0  0  0  0  0  0  0  0  0  0  0
  129.4819  134.6728  157.5966 C   0  0  0  0  0  0  0  0  0  0  0  0
  131.9664  138.0148  162.1090 H   0  0  0  0  0  0  0  0  0  0  0  0
  131.4713  139.6168  159.5355 H   0  0  0  0  0  0  0  0  0  0  0  0
  132.5883  140.6832  162.6061 H   0  0  0  0  0  0  0  0  0  0  0  0
  134.7977  141.6414  163.1758 H   0  0  0  0  0  0  0  0  0  0  0  0
  136.6839  141.3663  161.6427 H   0  0  0  0  0  0  0  0  0  0  0  0
  137.4317  140.1810  159.0608 H   0  0  0  0  0  0  0  0  0  0  0  0
  133.6559  138.5659  158.1630 H   0  0  0  0  0  0  0  0  0  0  0  0
  130.6405  135.9821  160.7916 H   0  0  0  0  0  0  0  0  0  0  0  0
  127.3583  137.5485  161.6192 H   0  0  0  0  0  0  0  0  0  0  0  0
  128.5130  132.3042  159.9029 H   0  0  0  0  0  0  0  0  0  0  0  0
  127.6776  132.7599  158.3970 H   0  0  0  0  0  0  0  0  0  0  0  0
  130.5498  131.7498  158.6346 H   0  0  0  0  0  0  0  0  0  0  0  0
  129.1659  130.8418  157.9790 H   0  0  0  0  0  0  0  0  0  0  0  0
  130.5240  131.8341  156.1556 H   0  0  0  0  0  0  0  0  0  0  0  0
  128.8929  132.5448  156.1971 H   0  0  0  0  0  0  0  0  0  0  0  0
  128.5414  134.7081  157.0469 H   0  0  0  0  0  0  0  0  0  0  0  0
  129.8996  135.6772  157.6653 H   0  0  0  0  0  0  0  0  0  0  0  0
  1  2  2  0
  2  3  1  0
  2 14  1  0
  3  4  2  0
  3 30  1  0
  4  5  1  0
  4 31  1  0
  5 13  1  0
  5  6  2  0
  6  7  1  0
  6 32  1  0
  7  8  2  0
  7 33  1  0
  8  9  1  0
  8 34  1  0
  9 13  1  0
  9 10  2  0
 10 11  1  0
 10 35  1  0
 11 12  2  0
 12 13  1  0
 12 36  1  0
 14 15  1  0
 14 37  1  0
 15 20  1  0
 15 16  2  0
 16 17  1  0
 16 38  1  0
 17 18  1  0
 17 19  1  0
 19 20  2  0
 20 21  1  0
 21 22  1  1
 21 29  1  0
 21 23  1  0
 23 24  1  0
 23 39  1  0
 23 40  1  0
 24 25  1  0
 24 41  1  0
 24 42  1  0
 25 26  1  0
 25 43  1  0
 25 44  1  0
 26 27  1  0
 26 28  1  0
 26 29  1  0
 29 45  1  0
 29 46  1  0
M  CHG  1  26   1
M  END
>  <DOCK_score>  (1) 
-43.884129

>  <SMILES>  (1) 
O=C(C=Cc1cccc2cncn12)Nc1c[nH]nc1[C@H]1CCC[NH2+]C1

$$$$
