Cc1cccc(C2=C([C@@H](C)[NH2+][C@@H]3C[C@@H]3Nc3ccc(O)cc3C)CCCC2)c1
     RDKit          3D

 61 64  0  0  1  0  0  0  0  0999 V2000
  127.8444  135.0222  164.9804 C   0  0  0  0  0  0  0  0  0  0  0  0
  128.9133  134.4059  164.1151 C   0  0  0  0  0  0  0  0  0  0  0  0
  128.8435  133.0648  163.7819 C   0  0  0  0  0  0  0  0  0  0  0  0
  129.8206  132.4915  162.9881 C   0  0  0  0  0  0  0  0  0  0  0  0
  130.8722  133.2548  162.5238 C   0  0  0  0  0  0  0  0  0  0  0  0
  130.9486  134.6075  162.8565 C   0  0  0  0  0  0  0  0  0  0  0  0
  132.0723  135.4310  162.3625 C   0  0  0  0  0  0  0  0  0  0  0  0
  131.9304  136.0413  161.2110 C   0  0  0  0  0  0  0  0  0  0  0  0
  130.6276  135.8697  160.4732 C   0  0  1  0  0  0  0  0  0  0  0  0
  129.9658  135.2236  161.0500 H   0  0  0  0  0  0  0  0  0  0  0  0
  129.9665  137.2360  160.2811 C   0  0  0  0  0  0  0  0  0  0  0  0
  130.8844  135.2612  159.1610 N   0  0  0  0  0  0  0  0  0  0  0  0
  130.1032  135.4408  158.5482 H   0  0  0  0  0  0  0  0  0  0  0  0
  131.7219  135.6595  158.7636 H   0  0  0  0  0  0  0  0  0  0  0  0
  131.0592  133.8113  159.3194 C   0  0  2  0  0  0  0  0  0  0  0  0
  131.6282  133.4993  160.1951 H   0  0  0  0  0  0  0  0  0  0  0  0
  131.2052  132.9742  158.0470 C   0  0  0  0  0  0  0  0  0  0  0  0
  129.9124  132.9074  158.8626 C   0  0  2  0  0  0  0  0  0  0  0  0
  129.7266  132.0004  159.4379 H   0  0  0  0  0  0  0  0  0  0  0  0
  128.7240  133.5541  158.3007 N   0  0  0  0  0  0  0  0  0  0  0  0
  127.6667  133.9248  159.1391 C   0  0  0  0  0  0  0  0  0  0  0  0
  127.4123  133.2021  160.2975 C   0  0  0  0  0  0  0  0  0  0  0  0
  126.3688  133.5686  161.1243 C   0  0  0  0  0  0  0  0  0  0  0  0
  125.5747  134.6582  160.7982 C   0  0  0  0  0  0  0  0  0  0  0  0
  124.5471  135.0185  161.6130 O   0  0  0  0  0  0  0  0  0  0  0  0
  125.8277  135.3801  159.6414 C   0  0  0  0  0  0  0  0  0  0  0  0
  126.8750  135.0187  158.8164 C   0  0  0  0  0  0  0  0  0  0  0  0
  127.1539  135.8074  157.5628 C   0  0  0  0  0  0  0  0  0  0  0  0
  132.9913  136.8961  160.5813 C   0  0  0  0  0  0  0  0  0  0  0  0
  134.0321  137.2991  161.6306 C   0  0  0  0  0  0  0  0  0  0  0  0
  134.4827  136.0354  162.3738 C   0  0  0  0  0  0  0  0  0  0  0  0
  133.3089  135.5188  163.2085 C   0  0  0  0  0  0  0  0  0  0  0  0
  129.9627  135.1785  163.6623 C   0  0  0  0  0  0  0  0  0  0  0  0
  128.1298  134.9341  166.0286 H   0  0  0  0  0  0  0  0  0  0  0  0
  127.7303  136.0752  164.7223 H   0  0  0  0  0  0  0  0  0  0  0  0
  126.9000  134.5035  164.8161 H   0  0  0  0  0  0  0  0  0  0  0  0
  128.0224  132.4632  164.1427 H   0  0  0  0  0  0  0  0  0  0  0  0
  129.7603  131.4442  162.7316 H   0  0  0  0  0  0  0  0  0  0  0  0
  131.6342  132.8060  161.9038 H   0  0  0  0  0  0  0  0  0  0  0  0
  129.0242  137.1120  159.7475 H   0  0  0  0  0  0  0  0  0  0  0  0
  129.7758  137.6876  161.2546 H   0  0  0  0  0  0  0  0  0  0  0  0
  130.6283  137.8820  159.7043 H   0  0  0  0  0  0  0  0  0  0  0  0
  131.1715  133.4994  157.0925 H   0  0  0  0  0  0  0  0  0  0  0  0
  131.8699  132.1112  158.0858 H   0  0  0  0  0  0  0  0  0  0  0  0
  128.6701  133.7254  157.3475 H   0  0  0  0  0  0  0  0  0  0  0  0
  128.0307  132.3539  160.5518 H   0  0  0  0  0  0  0  0  0  0  0  0
  126.1711  133.0069  162.0254 H   0  0  0  0  0  0  0  0  0  0  0  0
  124.0511  135.7887  161.3033 H   0  0  0  0  0  0  0  0  0  0  0  0
  125.2089  136.2283  159.3881 H   0  0  0  0  0  0  0  0  0  0  0  0
  126.5878  135.3835  156.7334 H   0  0  0  0  0  0  0  0  0  0  0  0
  126.8565  136.8453  157.7129 H   0  0  0  0  0  0  0  0  0  0  0  0
  128.2190  135.7638  157.3357 H   0  0  0  0  0  0  0  0  0  0  0  0
  133.4774  136.3378  159.7812 H   0  0  0  0  0  0  0  0  0  0  0  0
  132.5331  137.7936  160.1661 H   0  0  0  0  0  0  0  0  0  0  0  0
  133.5919  138.0023  162.3374 H   0  0  0  0  0  0  0  0  0  0  0  0
  134.8893  137.7609  161.1403 H   0  0  0  0  0  0  0  0  0  0  0  0
  135.3205  136.2748  163.0286 H   0  0  0  0  0  0  0  0  0  0  0  0
  134.7850  135.2730  161.6560 H   0  0  0  0  0  0  0  0  0  0  0  0
  133.1299  136.2000  164.0405 H   0  0  0  0  0  0  0  0  0  0  0  0
  133.5520  134.5299  163.5970 H   0  0  0  0  0  0  0  0  0  0  0  0
  130.0187  136.2240  163.9272 H   0  0  0  0  0  0  0  0  0  0  0  0
  1  2  1  0
  1 34  1  0
  1 35  1  0
  1 36  1  0
  2 33  2  0
  2  3  1  0
  3  4  2  0
  3 37  1  0
  4  5  1  0
  4 38  1  0
  5  6  2  0
  5 39  1  0
  6  7  1  0
  6 33  1  0
  7 32  1  0
  7  8  2  0
  8  9  1  0
  8 29  1  0
  9 10  1  1
  9 11  1  0
  9 12  1  0
 11 40  1  0
 11 41  1  0
 11 42  1  0
 12 13  1  0
 12 14  1  0
 12 15  1  0
 15 16  1  1
 15 18  1  0
 15 17  1  0
 17 18  1  0
 17 43  1  0
 17 44  1  0
 18 19  1  1
 18 20  1  0
 20 21  1  0
 20 45  1  0
 21 27  1  0
 21 22  2  0
 22 23  1  0
 22 46  1  0
 23 24  2  0
 23 47  1  0
 24 25  1  0
 24 26  1  0
 25 48  1  0
 26 27  2  0
 26 49  1  0
 27 28  1  0
 28 50  1  0
 28 51  1  0
 28 52  1  0
 29 30  1  0
 29 53  1  0
 29 54  1  0
 30 31  1  0
 30 55  1  0
 30 56  1  0
 31 32  1  0
 31 57  1  0
 31 58  1  0
 32 59  1  0
 32 60  1  0
 33 61  1  0
M  CHG  1  12   1
M  END
>  <DOCK_score>  (1) 
-44.494484

>  <SMILES>  (1) 
Cc1cccc(C2=C([C@@H](C)[NH2+][C@@H]3C[C@@H]3Nc3ccc(O)cc3C)CCCC2)c1

$$$$
