Cc1cc(C[C@](C)(O)C(C)Nc2[nH]c(C)c(-c3ccccc3)[nH+]2)no1
     RDKit          3D

 50 52  0  0  1  0  0  0  0  0999 V2000
  137.2663  135.8434  163.3921 C   0  0  0  0  0  0  0  0  0  0  0  0
  135.8013  135.5350  163.2191 C   0  0  0  0  0  0  0  0  0  0  0  0
  134.8324  136.3957  162.8249 C   0  0  0  0  0  0  0  0  0  0  0  0
  133.6560  135.6118  162.8306 C   0  0  0  0  0  0  0  0  0  0  0  0
  132.2651  136.0686  162.4734 C   0  0  0  0  0  0  0  0  0  0  0  0
  132.0318  135.8683  160.9745 C   0  0  2  0  0  0  0  0  0  0  0  0
  132.6537  134.5415  160.5342 C   0  0  0  0  0  0  0  0  0  0  0  0
  132.6370  136.9415  160.2507 O   0  0  0  0  0  0  0  0  0  0  0  0
  130.5284  135.8458  160.6909 C   0  0  1  0  0  0  0  0  0  0  0  0
  129.9064  137.1725  161.1312 C   0  0  0  0  0  0  0  0  0  0  0  0
  130.3050  135.6541  159.2559 N   0  0  0  0  0  0  0  0  0  0  0  0
  130.1870  134.3755  158.7383 C   0  0  0  0  0  0  0  0  0  0  0  0
  129.6996  133.2930  159.4037 N   0  0  0  0  0  0  0  0  0  0  0  0
  129.3755  133.2785  160.3179 H   0  0  0  0  0  0  0  0  0  0  0  0
  129.7522  132.2243  158.5421 C   0  0  0  0  0  0  0  0  0  0  0  0
  129.3173  130.8118  158.8361 C   0  0  0  0  0  0  0  0  0  0  0  0
  130.2696  132.6843  157.3760 C   0  0  0  0  0  0  0  0  0  0  0  0
  130.5125  131.8819  156.1523 C   0  0  0  0  0  0  0  0  0  0  0  0
  129.8733  132.2148  154.9593 C   0  0  0  0  0  0  0  0  0  0  0  0
  130.1083  131.4689  153.8221 C   0  0  0  0  0  0  0  0  0  0  0  0
  130.9663  130.3848  153.8680 C   0  0  0  0  0  0  0  0  0  0  0  0
  131.5986  130.0460  155.0509 C   0  0  0  0  0  0  0  0  0  0  0  0
  131.3763  130.7889  156.1926 C   0  0  0  0  0  0  0  0  0  0  0  0
  130.5313  134.0067  157.5286 N   0  0  0  0  0  0  0  0  0  0  0  0
  130.9102  134.5871  156.8502 H   0  0  0  0  0  0  0  0  0  0  0  0
  134.0132  134.4158  163.2001 N   0  0  0  0  0  0  0  0  0  0  0  0
  135.2007  134.3539  163.4202 O   0  0  0  0  0  0  0  0  0  0  0  0
  137.7914  134.9440  163.7139 H   0  0  0  0  0  0  0  0  0  0  0  0
  137.6800  136.1857  162.4435 H   0  0  0  0  0  0  0  0  0  0  0  0
  137.3872  136.6233  164.1438 H   0  0  0  0  0  0  0  0  0  0  0  0
  134.9348  137.4398  162.5681 H   0  0  0  0  0  0  0  0  0  0  0  0
  132.1548  137.1243  162.7204 H   0  0  0  0  0  0  0  0  0  0  0  0
  131.5355  135.4855  163.0357 H   0  0  0  0  0  0  0  0  0  0  0  0
  132.4874  134.3988  159.4666 H   0  0  0  0  0  0  0  0  0  0  0  0
  133.7248  134.5576  160.7363 H   0  0  0  0  0  0  0  0  0  0  0  0
  132.1920  133.7228  161.0865 H   0  0  0  0  0  0  0  0  0  0  0  0
  132.5283  136.8797  159.2918 H   0  0  0  0  0  0  0  0  0  0  0  0
  130.0668  135.0271  161.2430 H   0  0  0  0  0  0  0  0  0  0  0  0
  128.8355  137.1566  160.9292 H   0  0  0  0  0  0  0  0  0  0  0  0
  130.0727  137.3151  162.1989 H   0  0  0  0  0  0  0  0  0  0  0  0
  130.3681  137.9911  160.5792 H   0  0  0  0  0  0  0  0  0  0  0  0
  130.2397  136.4230  158.6682 H   0  0  0  0  0  0  0  0  0  0  0  0
  130.1590  130.2490  159.2394 H   0  0  0  0  0  0  0  0  0  0  0  0
  128.5068  130.8254  159.5647 H   0  0  0  0  0  0  0  0  0  0  0  0
  128.9714  130.3393  157.9167 H   0  0  0  0  0  0  0  0  0  0  0  0
  129.1992  133.0579  154.9236 H   0  0  0  0  0  0  0  0  0  0  0  0
  129.6176  131.7289  152.8959 H   0  0  0  0  0  0  0  0  0  0  0  0
  131.1434  129.8008  152.9771 H   0  0  0  0  0  0  0  0  0  0  0  0
  132.2677  129.1987  155.0809 H   0  0  0  0  0  0  0  0  0  0  0  0
  131.8711  130.5239  157.1153 H   0  0  0  0  0  0  0  0  0  0  0  0
  1  2  1  0
  1 28  1  0
  1 29  1  0
  1 30  1  0
  2 27  1  0
  2  3  2  0
  3  4  1  0
  3 31  1  0
  4  5  1  0
  4 26  2  0
  5  6  1  0
  5 32  1  0
  5 33  1  0
  6  7  1  0
  6  8  1  6
  6  9  1  0
  7 34  1  0
  7 35  1  0
  7 36  1  0
  8 37  1  0
  9 10  1  0
  9 11  1  0
  9 38  1  1
 10 39  1  0
 10 40  1  0
 10 41  1  0
 11 42  1  0
 12 11  1  0
 12 24  2  0
 12 13  1  0
 13 14  1  0
 13 15  1  0
 15 16  1  0
 15 17  2  0
 16 43  1  0
 16 44  1  0
 16 45  1  0
 17 18  1  0
 17 24  1  0
 18 23  1  0
 18 19  2  0
 19 20  1  0
 19 46  1  0
 20 21  2  0
 20 47  1  0
 21 22  1  0
 21 48  1  0
 22 23  2  0
 22 49  1  0
 23 50  1  0
 24 25  1  0
 26 27  1  0
M  CHG  1  24   1
M  END
>  <DOCK_score>  (1) 
-55.977509

>  <SMILES>  (1) 
Cc1cc(C[C@](C)(O)C(C)Nc2[nH]c(C)c(-c3ccccc3)[nH+]2)no1

$$$$
