C[C@@H](Nc1cc[nH+]c(CNC2=CCCCC2)c1)c1cccc(O)c1
     RDKit          3D

 50 52  0  0  1  0  0  0  0  0999 V2000
  127.5396  134.1098  158.9845 C   0  0  0  0  0  0  0  0  0  0  0  0
  127.8916  133.1079  160.0860 C   0  0  1  0  0  0  0  0  0  0  0  0
  128.3594  132.2292  159.6420 H   0  0  0  0  0  0  0  0  0  0  0  0
  128.8205  133.7297  161.0330 N   0  0  0  0  0  0  0  0  0  0  0  0
  130.0565  134.1933  160.5927 C   0  0  0  0  0  0  0  0  0  0  0  0
  130.7064  133.5873  159.5174 C   0  0  0  0  0  0  0  0  0  0  0  0
  131.9300  134.0768  159.1119 C   0  0  0  0  0  0  0  0  0  0  0  0
  132.4853  135.1044  159.7271 N   0  0  0  0  0  0  0  0  0  0  0  0
  133.3466  135.4278  159.4196 H   0  0  0  0  0  0  0  0  0  0  0  0
  131.9025  135.7045  160.7478 C   0  0  0  0  0  0  0  0  0  0  0  0
  132.5837  136.8738  161.4110 C   0  0  0  0  0  0  0  0  0  0  0  0
  133.1019  137.7829  160.3857 N   0  0  0  0  0  0  0  0  0  0  0  0
  134.1044  138.6902  160.7043 C   0  0  0  0  0  0  0  0  0  0  0  0
  134.5374  139.4817  159.7616 C   0  0  0  0  0  0  0  0  0  0  0  0
  135.6164  140.5061  159.9576 C   0  0  0  0  0  0  0  0  0  0  0  0
  135.8271  140.7726  161.4496 C   0  0  0  0  0  0  0  0  0  0  0  0
  135.9730  139.4255  162.1682 C   0  0  0  0  0  0  0  0  0  0  0  0
  134.6286  138.6972  162.1106 C   0  0  0  0  0  0  0  0  0  0  0  0
  130.6751  135.2793  161.2112 C   0  0  0  0  0  0  0  0  0  0  0  0
  126.6360  132.6964  160.8108 C   0  0  0  0  0  0  0  0  0  0  0  0
  126.2527  131.3678  160.8291 C   0  0  0  0  0  0  0  0  0  0  0  0
  125.1045  130.9865  161.4979 C   0  0  0  0  0  0  0  0  0  0  0  0
  124.3307  131.9340  162.1402 C   0  0  0  0  0  0  0  0  0  0  0  0
  124.7099  133.2680  162.1184 C   0  0  0  0  0  0  0  0  0  0  0  0
  123.9504  134.2020  162.7490 O   0  0  0  0  0  0  0  0  0  0  0  0
  125.8660  133.6475  161.4513 C   0  0  0  0  0  0  0  0  0  0  0  0
  127.0717  134.9884  159.4285 H   0  0  0  0  0  0  0  0  0  0  0  0
  128.4477  134.4074  158.4604 H   0  0  0  0  0  0  0  0  0  0  0  0
  126.8485  133.6471  158.2799 H   0  0  0  0  0  0  0  0  0  0  0  0
  128.5739  133.8183  161.9670 H   0  0  0  0  0  0  0  0  0  0  0  0
  130.2573  132.7468  159.0093 H   0  0  0  0  0  0  0  0  0  0  0  0
  132.4403  133.6139  158.2803 H   0  0  0  0  0  0  0  0  0  0  0  0
  131.8670  137.4041  162.0381 H   0  0  0  0  0  0  0  0  0  0  0  0
  133.4077  136.5129  162.0265 H   0  0  0  0  0  0  0  0  0  0  0  0
  132.7449  137.7514  159.4843 H   0  0  0  0  0  0  0  0  0  0  0  0
  134.0897  139.3972  158.7824 H   0  0  0  0  0  0  0  0  0  0  0  0
  135.3316  141.4341  159.4615 H   0  0  0  0  0  0  0  0  0  0  0  0
  136.5439  140.1339  159.5226 H   0  0  0  0  0  0  0  0  0  0  0  0
  134.9680  141.3105  161.8504 H   0  0  0  0  0  0  0  0  0  0  0  0
  136.7304  141.3651  161.5949 H   0  0  0  0  0  0  0  0  0  0  0  0
  136.2545  139.5934  163.2076 H   0  0  0  0  0  0  0  0  0  0  0  0
  136.7359  138.8260  161.6712 H   0  0  0  0  0  0  0  0  0  0  0  0
  133.9149  139.2043  162.7598 H   0  0  0  0  0  0  0  0  0  0  0  0
  134.7612  137.6705  162.4517 H   0  0  0  0  0  0  0  0  0  0  0  0
  130.2015  135.7779  162.0441 H   0  0  0  0  0  0  0  0  0  0  0  0
  126.8536  130.6264  160.3236 H   0  0  0  0  0  0  0  0  0  0  0  0
  124.8096  129.9476  161.5143 H   0  0  0  0  0  0  0  0  0  0  0  0
  123.4312  131.6362  162.6584 H   0  0  0  0  0  0  0  0  0  0  0  0
  124.2954  135.1026  162.6782 H   0  0  0  0  0  0  0  0  0  0  0  0
  126.1631  134.6856  161.4326 H   0  0  0  0  0  0  0  0  0  0  0  0
  1  2  1  0
  1 27  1  0
  1 28  1  0
  1 29  1  0
  2  3  1  6
  2  4  1  0
  2 20  1  0
  4  5  1  0
  4 30  1  0
  5 19  1  0
  5  6  2  0
  6  7  1  0
  6 31  1  0
  7  8  2  0
  7 32  1  0
  8  9  1  0
  8 10  1  0
 10 11  1  0
 10 19  2  0
 11 12  1  0
 11 33  1  0
 11 34  1  0
 12 13  1  0
 12 35  1  0
 13 18  1  0
 13 14  2  0
 14 15  1  0
 14 36  1  0
 15 16  1  0
 15 37  1  0
 15 38  1  0
 16 17  1  0
 16 39  1  0
 16 40  1  0
 17 18  1  0
 17 41  1  0
 17 42  1  0
 18 43  1  0
 18 44  1  0
 19 45  1  0
 20 26  1  0
 20 21  2  0
 21 22  1  0
 21 46  1  0
 22 23  2  0
 22 47  1  0
 23 24  1  0
 23 48  1  0
 24 25  1  0
 24 26  2  0
 25 49  1  0
 26 50  1  0
M  CHG  1   8   1
M  END
>  <DOCK_score>  (1) 
-43.017525

>  <SMILES>  (1) 
C[C@@H](Nc1cc[nH+]c(CNC2=CCCCC2)c1)c1cccc(O)c1

$$$$
