CC=C[C@@H](Nc1[nH]cc(-c2ccc(N)cc2)[nH+]1)C1=CCN(c2cc(C)cc3c2CCC3)CC1
     RDKit          3D

 67 71  0  0  1  0  0  0  0  0999 V2000
  126.5826  135.7847  157.5573 C   0  0  0  0  0  0  0  0  0  0  0  0
  127.9593  135.6930  158.1634 C   0  0  0  0  0  0  0  0  0  0  0  0
  128.1011  135.3353  159.4156 C   0  0  0  0  0  0  0  0  0  0  0  0
  129.4778  135.2438  160.0217 C   0  0  1  0  0  0  0  0  0  0  0  0
  129.4824  134.4800  160.7995 H   0  0  0  0  0  0  0  0  0  0  0  0
  130.4465  134.8877  158.9821 N   0  0  0  0  0  0  0  0  0  0  0  0
  130.3085  133.6996  158.2850 C   0  0  0  0  0  0  0  0  0  0  0  0
  129.7484  132.5575  158.7683 N   0  0  0  0  0  0  0  0  0  0  0  0
  129.3774  132.4303  159.6555 H   0  0  0  0  0  0  0  0  0  0  0  0
  129.8058  131.6173  157.7669 C   0  0  0  0  0  0  0  0  0  0  0  0
  130.3987  132.2122  156.7025 C   0  0  0  0  0  0  0  0  0  0  0  0
  130.6746  131.5783  155.3900 C   0  0  0  0  0  0  0  0  0  0  0  0
  130.1091  132.1031  154.2287 C   0  0  0  0  0  0  0  0  0  0  0  0
  130.3712  131.5154  153.0092 C   0  0  0  0  0  0  0  0  0  0  0  0
  131.1888  130.3942  152.9382 C   0  0  0  0  0  0  0  0  0  0  0  0
  131.4481  129.7973  151.7021 N   0  0  0  0  0  0  0  0  0  0  0  0
  131.7495  129.8657  154.0954 C   0  0  0  0  0  0  0  0  0  0  0  0
  131.4949  130.4537  155.3165 C   0  0  0  0  0  0  0  0  0  0  0  0
  130.6907  133.4910  157.0486 N   0  0  0  0  0  0  0  0  0  0  0  0
  131.1165  134.1459  156.4735 H   0  0  0  0  0  0  0  0  0  0  0  0
  129.8518  136.5744  160.6224 C   0  0  0  0  0  0  0  0  0  0  0  0
  129.5470  136.8027  161.8635 C   0  0  0  0  0  0  0  0  0  0  0  0
  129.8616  138.0920  162.5654 C   0  0  0  0  0  0  0  0  0  0  0  0
  130.8757  138.8450  161.8165 N   0  0  0  0  0  0  0  0  0  0  0  0
  132.1324  138.2470  161.9351 C   0  0  0  0  0  0  0  0  0  0  0  0
  132.2329  136.8734  162.1094 C   0  0  0  0  0  0  0  0  0  0  0  0
  133.4765  136.2848  162.2263 C   0  0  0  0  0  0  0  0  0  0  0  0
  133.5895  134.7940  162.4151 C   0  0  0  0  0  0  0  0  0  0  0  0
  134.6175  137.0623  162.1696 C   0  0  0  0  0  0  0  0  0  0  0  0
  134.5230  138.4333  161.9959 C   0  0  0  0  0  0  0  0  0  0  0  0
  133.2821  139.0276  161.8727 C   0  0  0  0  0  0  0  0  0  0  0  0
  133.4453  140.5207  161.6856 C   0  0  0  0  0  0  0  0  0  0  0  0
  134.9174  140.7162  161.2647 C   0  0  0  0  0  0  0  0  0  0  0  0
  135.6062  139.4868  161.9037 C   0  0  0  0  0  0  0  0  0  0  0  0
  130.4794  138.9647  160.4033 C   0  0  0  0  0  0  0  0  0  0  0  0
  130.5609  137.5789  159.7579 C   0  0  0  0  0  0  0  0  0  0  0  0
  126.0971  134.8101  157.6094 H   0  0  0  0  0  0  0  0  0  0  0  0
  125.9907  136.5153  158.1085 H   0  0  0  0  0  0  0  0  0  0  0  0
  126.6642  136.0947  156.5155 H   0  0  0  0  0  0  0  0  0  0  0  0
  128.8289  135.9222  157.5655 H   0  0  0  0  0  0  0  0  0  0  0  0
  127.2314  135.1061  160.0136 H   0  0  0  0  0  0  0  0  0  0  0  0
  131.1847  135.4844  158.7820 H   0  0  0  0  0  0  0  0  0  0  0  0
  129.4473  130.5998  157.8183 H   0  0  0  0  0  0  0  0  0  0  0  0
  129.4698  132.9717  154.2838 H   0  0  0  0  0  0  0  0  0  0  0  0
  129.9371  131.9242  152.1088 H   0  0  0  0  0  0  0  0  0  0  0  0
  132.0193  129.0141  151.6522 H   0  0  0  0  0  0  0  0  0  0  0  0
  131.0575  130.1646  150.8945 H   0  0  0  0  0  0  0  0  0  0  0  0
  132.3848  128.9942  154.0381 H   0  0  0  0  0  0  0  0  0  0  0  0
  131.9309  130.0432  156.2152 H   0  0  0  0  0  0  0  0  0  0  0  0
  129.0424  136.0261  162.4189 H   0  0  0  0  0  0  0  0  0  0  0  0
  130.2380  137.8762  163.5655 H   0  0  0  0  0  0  0  0  0  0  0  0
  128.9540  138.6901  162.6453 H   0  0  0  0  0  0  0  0  0  0  0  0
  131.3406  136.2665  162.1530 H   0  0  0  0  0  0  0  0  0  0  0  0
  133.6526  134.3080  161.4415 H   0  0  0  0  0  0  0  0  0  0  0  0
  134.4857  134.5677  162.9930 H   0  0  0  0  0  0  0  0  0  0  0  0
  132.7117  134.4276  162.9476 H   0  0  0  0  0  0  0  0  0  0  0  0
  135.5885  136.5984  162.2618 H   0  0  0  0  0  0  0  0  0  0  0  0
  132.7771  140.8790  160.9024 H   0  0  0  0  0  0  0  0  0  0  0  0
  133.2469  141.0431  162.6214 H   0  0  0  0  0  0  0  0  0  0  0  0
  135.0147  140.7052  160.1791 H   0  0  0  0  0  0  0  0  0  0  0  0
  135.3192  141.6411  161.6788 H   0  0  0  0  0  0  0  0  0  0  0  0
  135.9869  139.7256  162.8968 H   0  0  0  0  0  0  0  0  0  0  0  0
  136.4156  139.1416  161.2605 H   0  0  0  0  0  0  0  0  0  0  0  0
  129.4576  139.3389  160.3399 H   0  0  0  0  0  0  0  0  0  0  0  0
  131.1535  139.6510  159.8907 H   0  0  0  0  0  0  0  0  0  0  0  0
  130.0898  137.6084  158.7754 H   0  0  0  0  0  0  0  0  0  0  0  0
  131.6063  137.2903  159.6495 H   0  0  0  0  0  0  0  0  0  0  0  0
  1  2  1  0
  1 37  1  0
  1 38  1  0
  1 39  1  0
  2  3  2  0
  2 40  1  0
  3  4  1  0
  3 41  1  0
  4  5  1  1
  4  6  1  0
  4 21  1  0
  6 42  1  0
  7  6  1  0
  7 19  2  0
  7  8  1  0
  8  9  1  0
  8 10  1  0
 10 11  2  0
 10 43  1  0
 11 12  1  0
 11 19  1  0
 12 18  1  0
 12 13  2  0
 13 14  1  0
 13 44  1  0
 14 15  2  0
 14 45  1  0
 15 16  1  0
 15 17  1  0
 16 46  1  0
 16 47  1  0
 17 18  2  0
 17 48  1  0
 18 49  1  0
 19 20  1  0
 21 36  1  0
 21 22  2  0
 22 23  1  0
 22 50  1  0
 23 24  1  0
 23 51  1  0
 23 52  1  0
 24 25  1  0
 24 35  1  0
 25 31  1  0
 25 26  2  0
 26 27  1  0
 26 53  1  0
 27 28  1  0
 27 29  2  0
 28 54  1  0
 28 55  1  0
 28 56  1  0
 29 30  1  0
 29 57  1  0
 30 34  1  0
 30 31  2  0
 31 32  1  0
 32 33  1  0
 32 58  1  0
 32 59  1  0
 33 34  1  0
 33 60  1  0
 33 61  1  0
 34 62  1  0
 34 63  1  0
 35 36  1  0
 35 64  1  0
 35 65  1  0
 36 66  1  0
 36 67  1  0
M  CHG  1  19   1
M  END
>  <DOCK_score>  (1) 
-61.413563

>  <SMILES>  (1) 
CC=C[C@@H](Nc1[nH]cc(-c2ccc(N)cc2)[nH+]1)C1=CCN(c2cc(C)cc3c2CCC3)CC1

$$$$
