c1ccc(CCNc2ccc(Nc3ccc(-c4n[nH]cc4C[NH2+]CC4CC4)o3)cc2)cc1
     RDKit          3D

 62 66  0  0  0  0  0  0  0  0999 V2000
  133.0266  136.1264  170.6545 C   0  0  0  0  0  0  0  0  0  0  0  0
  131.6676  135.8749  170.6735 C   0  0  0  0  0  0  0  0  0  0  0  0
  130.8164  136.6155  169.8746 C   0  0  0  0  0  0  0  0  0  0  0  0
  131.3243  137.6075  169.0570 C   0  0  0  0  0  0  0  0  0  0  0  0
  130.3965  138.4146  168.1859 C   0  0  0  0  0  0  0  0  0  0  0  0
  130.2404  137.7238  166.8297 C   0  0  0  0  0  0  0  0  0  0  0  0
  129.3386  138.5083  165.9829 N   0  0  0  0  0  0  0  0  0  0  0  0
  128.5497  137.8687  165.0197 C   0  0  0  0  0  0  0  0  0  0  0  0
  127.4192  138.4997  164.5175 C   0  0  0  0  0  0  0  0  0  0  0  0
  126.6440  137.8711  163.5636 C   0  0  0  0  0  0  0  0  0  0  0  0
  126.9917  136.6051  163.1102 C   0  0  0  0  0  0  0  0  0  0  0  0
  126.2056  135.9674  162.1434 N   0  0  0  0  0  0  0  0  0  0  0  0
  126.7889  135.0755  161.2511 C   0  0  0  0  0  0  0  0  0  0  0  0
  126.1745  134.0086  160.6812 C   0  0  0  0  0  0  0  0  0  0  0  0
  127.1240  133.3834  159.8495 C   0  0  0  0  0  0  0  0  0  0  0  0
  128.2731  134.1021  159.9540 C   0  0  0  0  0  0  0  0  0  0  0  0
  129.5413  133.8127  159.2534 C   0  0  0  0  0  0  0  0  0  0  0  0
  129.7591  132.8114  158.4236 N   0  0  0  0  0  0  0  0  0  0  0  0
  131.0841  132.8971  157.9775 N   0  0  0  0  0  0  0  0  0  0  0  0
  131.5155  132.2895  157.3565 H   0  0  0  0  0  0  0  0  0  0  0  0
  131.6588  133.9684  158.5659 C   0  0  0  0  0  0  0  0  0  0  0  0
  130.7364  134.5552  159.3584 C   0  0  0  0  0  0  0  0  0  0  0  0
  130.9460  135.7848  160.2040 C   0  0  0  0  0  0  0  0  0  0  0  0
  132.3253  136.2627  160.0399 N   0  0  0  0  0  0  0  0  0  0  0  0
  132.9681  135.5413  160.3302 H   0  0  0  0  0  0  0  0  0  0  0  0
  132.4895  136.4893  159.0704 H   0  0  0  0  0  0  0  0  0  0  0  0
  132.5296  137.4614  160.8642 C   0  0  0  0  0  0  0  0  0  0  0  0
  133.9662  137.9592  160.6931 C   0  0  0  0  0  0  0  0  0  0  0  0
  134.2106  139.4652  160.8091 C   0  0  0  0  0  0  0  0  0  0  0  0
  134.2850  138.7811  159.4426 C   0  0  0  0  0  0  0  0  0  0  0  0
  128.0552  135.1282  160.8029 O   0  0  0  0  0  0  0  0  0  0  0  0
  128.1195  135.9718  163.6163 C   0  0  0  0  0  0  0  0  0  0  0  0
  128.8947  136.6006  164.5703 C   0  0  0  0  0  0  0  0  0  0  0  0
  132.6841  137.8556  169.0342 C   0  0  0  0  0  0  0  0  0  0  0  0
  133.5346  137.1185  169.8368 C   0  0  0  0  0  0  0  0  0  0  0  0
  133.6916  135.5476  171.2782 H   0  0  0  0  0  0  0  0  0  0  0  0
  131.2706  135.0995  171.3121 H   0  0  0  0  0  0  0  0  0  0  0  0
  129.7545  136.4186  169.8892 H   0  0  0  0  0  0  0  0  0  0  0  0
  130.8111  139.4121  168.0399 H   0  0  0  0  0  0  0  0  0  0  0  0
  129.4221  138.4932  168.6680 H   0  0  0  0  0  0  0  0  0  0  0  0
  129.8260  136.7263  166.9758 H   0  0  0  0  0  0  0  0  0  0  0  0
  131.2149  137.6453  166.3476 H   0  0  0  0  0  0  0  0  0  0  0  0
  129.2881  139.4711  166.0897 H   0  0  0  0  0  0  0  0  0  0  0  0
  127.1489  139.4843  164.8699 H   0  0  0  0  0  0  0  0  0  0  0  0
  125.7668  138.3635  163.1703 H   0  0  0  0  0  0  0  0  0  0  0  0
  125.2537  136.1480  162.0961 H   0  0  0  0  0  0  0  0  0  0  0  0
  125.1517  133.6981  160.8355 H   0  0  0  0  0  0  0  0  0  0  0  0
  126.9689  132.5017  159.2453 H   0  0  0  0  0  0  0  0  0  0  0  0
  132.6779  134.2978  158.4272 H   0  0  0  0  0  0  0  0  0  0  0  0
  130.2516  136.5643  159.8904 H   0  0  0  0  0  0  0  0  0  0  0  0
  130.7685  135.5401  161.2513 H   0  0  0  0  0  0  0  0  0  0  0  0
  131.8353  138.2408  160.5503 H   0  0  0  0  0  0  0  0  0  0  0  0
  132.3521  137.2168  161.9114 H   0  0  0  0  0  0  0  0  0  0  0  0
  134.7426  137.2925  161.0686 H   0  0  0  0  0  0  0  0  0  0  0  0
  133.3479  140.1012  161.0073 H   0  0  0  0  0  0  0  0  0  0  0  0
  135.1479  139.7895  161.2612 H   0  0  0  0  0  0  0  0  0  0  0  0
  135.2711  138.6554  158.9957 H   0  0  0  0  0  0  0  0  0  0  0  0
  133.4711  138.9672  158.7417 H   0  0  0  0  0  0  0  0  0  0  0  0
  128.3904  134.9876  163.2636 H   0  0  0  0  0  0  0  0  0  0  0  0
  129.7718  136.1084  164.9636 H   0  0  0  0  0  0  0  0  0  0  0  0
  133.0815  138.6275  168.3920 H   0  0  0  0  0  0  0  0  0  0  0  0
  134.5966  137.3147  169.8217 H   0  0  0  0  0  0  0  0  0  0  0  0
  1 35  2  0
  1  2  1  0
  1 36  1  0
  2  3  2  0
  2 37  1  0
  3  4  1  0
  3 38  1  0
  4  5  1  0
  4 34  2  0
  5  6  1  0
  5 39  1  0
  5 40  1  0
  6  7  1  0
  6 41  1  0
  6 42  1  0
  7  8  1  0
  7 43  1  0
  8 33  1  0
  8  9  2  0
  9 10  1  0
  9 44  1  0
 10 11  2  0
 10 45  1  0
 11 12  1  0
 11 32  1  0
 12 13  1  0
 12 46  1  0
 13 31  1  0
 13 14  2  0
 14 15  1  0
 14 47  1  0
 15 16  2  0
 15 48  1  0
 16 17  1  0
 16 31  1  0
 17 22  1  0
 17 18  2  0
 18 19  1  0
 19 20  1  0
 19 21  1  0
 21 22  2  0
 21 49  1  0
 22 23  1  0
 23 24  1  0
 23 50  1  0
 23 51  1  0
 24 25  1  0
 24 26  1  0
 24 27  1  0
 27 28  1  0
 27 52  1  0
 27 53  1  0
 28 30  1  0
 28 29  1  0
 28 54  1  0
 29 30  1  0
 29 55  1  0
 29 56  1  0
 30 57  1  0
 30 58  1  0
 32 33  2  0
 32 59  1  0
 33 60  1  0
 34 35  1  0
 34 61  1  0
 35 62  1  0
M  CHG  1  24   1
M  END
>  <DOCK_score>  (1) 
-45.886253

>  <SMILES>  (1) 
c1ccc(CCNc2ccc(Nc3ccc(-c4n[nH]cc4C[NH2+]CC4CC4)o3)cc2)cc1

$$$$
