CCc1ccc(-c2c[nH]c(N[C@@H](c3ccc(F)cc3)c3ccnn3C)[nH+]2)cc1
     RDKit          3D

 51 54  0  0  1  0  0  0  0  0999 V2000
  130.4333  128.5557  151.8871 C   0  0  0  0  0  0  0  0  0  0  0  0
  131.5378  129.5679  152.1974 C   0  0  0  0  0  0  0  0  0  0  0  0
  131.1469  130.3848  153.4019 C   0  0  0  0  0  0  0  0  0  0  0  0
  131.5017  129.9577  154.6683 C   0  0  0  0  0  0  0  0  0  0  0  0
  131.1514  130.7045  155.7748 C   0  0  0  0  0  0  0  0  0  0  0  0
  130.4287  131.8855  155.6148 C   0  0  0  0  0  0  0  0  0  0  0  0
  130.0445  132.6896  156.8005 C   0  0  0  0  0  0  0  0  0  0  0  0
  129.2770  132.2682  157.8360 C   0  0  0  0  0  0  0  0  0  0  0  0
  129.1718  133.3232  158.7095 N   0  0  0  0  0  0  0  0  0  0  0  0
  128.6836  133.3286  159.5476 H   0  0  0  0  0  0  0  0  0  0  0  0
  129.8788  134.3594  158.1818 C   0  0  0  0  0  0  0  0  0  0  0  0
  130.0246  135.6109  158.7552 N   0  0  0  0  0  0  0  0  0  0  0  0
  129.3866  135.9067  160.0404 C   0  0  1  0  0  0  0  0  0  0  0  0
  129.7659  135.2233  160.8000 H   0  0  0  0  0  0  0  0  0  0  0  0
  129.6977  137.3258  160.4408 C   0  0  0  0  0  0  0  0  0  0  0  0
  128.7925  138.0435  161.2003 C   0  0  0  0  0  0  0  0  0  0  0  0
  129.0793  139.3431  161.5728 C   0  0  0  0  0  0  0  0  0  0  0  0
  130.2688  139.9301  161.1754 C   0  0  0  0  0  0  0  0  0  0  0  0
  130.5476  141.2024  161.5346 F   0  0  0  0  0  0  0  0  0  0  0  0
  131.1723  139.2120  160.4108 C   0  0  0  0  0  0  0  0  0  0  0  0
  130.8857  137.9108  160.0438 C   0  0  0  0  0  0  0  0  0  0  0  0
  127.8947  135.7368  159.9114 C   0  0  0  0  0  0  0  0  0  0  0  0
  127.1637  135.9315  158.7895 C   0  0  0  0  0  0  0  0  0  0  0  0
  125.8250  135.6669  159.0969 C   0  0  0  0  0  0  0  0  0  0  0  0
  125.7550  135.3259  160.3580 N   0  0  0  0  0  0  0  0  0  0  0  0
  127.0494  135.3576  160.8925 N   0  0  0  0  0  0  0  0  0  0  0  0
  127.4196  135.0386  162.2737 C   0  0  0  0  0  0  0  0  0  0  0  0
  130.4036  133.9751  157.0438 N   0  0  0  0  0  0  0  0  0  0  0  0
  130.9582  134.5231  156.4667 H   0  0  0  0  0  0  0  0  0  0  0  0
  130.0689  132.3083  154.3364 C   0  0  0  0  0  0  0  0  0  0  0  0
  130.4295  131.5565  153.2367 C   0  0  0  0  0  0  0  0  0  0  0  0
  130.2946  127.8962  152.7438 H   0  0  0  0  0  0  0  0  0  0  0  0
  129.5027  129.0845  151.6813 H   0  0  0  0  0  0  0  0  0  0  0  0
  130.7160  127.9650  151.0159 H   0  0  0  0  0  0  0  0  0  0  0  0
  132.4682  129.0397  152.4027 H   0  0  0  0  0  0  0  0  0  0  0  0
  131.6763  130.2280  151.3402 H   0  0  0  0  0  0  0  0  0  0  0  0
  132.0575  129.0400  154.7915 H   0  0  0  0  0  0  0  0  0  0  0  0
  131.4330  130.3724  156.7631 H   0  0  0  0  0  0  0  0  0  0  0  0
  128.8331  131.2904  157.9516 H   0  0  0  0  0  0  0  0  0  0  0  0
  130.5494  136.2921  158.3060 H   0  0  0  0  0  0  0  0  0  0  0  0
  127.8626  137.5870  161.5059 H   0  0  0  0  0  0  0  0  0  0  0  0
  128.3736  139.9021  162.1694 H   0  0  0  0  0  0  0  0  0  0  0  0
  132.1004  139.6689  160.1004 H   0  0  0  0  0  0  0  0  0  0  0  0
  131.5902  137.3507  159.4468 H   0  0  0  0  0  0  0  0  0  0  0  0
  127.5460  136.2372  157.8269 H   0  0  0  0  0  0  0  0  0  0  0  0
  124.9929  135.7333  158.4117 H   0  0  0  0  0  0  0  0  0  0  0  0
  127.3761  135.9435  162.8799 H   0  0  0  0  0  0  0  0  0  0  0  0
  126.7262  134.2993  162.6742 H   0  0  0  0  0  0  0  0  0  0  0  0
  128.4323  134.6358  162.2945 H   0  0  0  0  0  0  0  0  0  0  0  0
  129.5087  133.2226  154.2065 H   0  0  0  0  0  0  0  0  0  0  0  0
  130.1510  131.8830  152.2456 H   0  0  0  0  0  0  0  0  0  0  0  0
  1  2  1  0
  1 32  1  0
  1 33  1  0
  1 34  1  0
  2  3  1  0
  2 35  1  0
  2 36  1  0
  3 31  2  0
  3  4  1  0
  4  5  2  0
  4 37  1  0
  5  6  1  0
  5 38  1  0
  6  7  1  0
  6 30  2  0
  7 28  1  0
  7  8  2  0
  8  9  1  0
  8 39  1  0
  9 10  1  0
  9 11  1  0
 11 12  1  0
 11 28  2  0
 12 13  1  0
 12 40  1  0
 13 14  1  1
 13 15  1  0
 13 22  1  0
 15 21  1  0
 15 16  2  0
 16 17  1  0
 16 41  1  0
 17 18  2  0
 17 42  1  0
 18 19  1  0
 18 20  1  0
 20 21  2  0
 20 43  1  0
 21 44  1  0
 22 26  1  0
 22 23  2  0
 23 24  1  0
 23 45  1  0
 24 25  2  0
 24 46  1  0
 25 26  1  0
 26 27  1  0
 27 47  1  0
 27 48  1  0
 27 49  1  0
 28 29  1  0
 30 31  1  0
 30 50  1  0
 31 51  1  0
M  CHG  1  28   1
M  END
>  <DOCK_score>  (1) 
-60.044518

>  <SMILES>  (1) 
CCc1ccc(-c2c[nH]c(N[C@@H](c3ccc(F)cc3)c3ccnn3C)[nH+]2)cc1

$$$$
