O=C1CCC([NH2+]C(c2cccc(Cl)c2)c2cccc([C@@]3(O)CC[C@H]4[C@@H]3[C@H]3C=C[C@@H]4C3)c2)CN1
     RDKit          3D

 65 70  0  0  1  0  0  0  0  0999 V2000
  126.4524  137.2619  163.8038 O   0  0  0  0  0  0  0  0  0  0  0  0
  126.9428  136.3980  163.1081 C   0  0  0  0  0  0  0  0  0  0  0  0
  126.0206  135.4611  162.3822 C   0  0  0  0  0  0  0  0  0  0  0  0
  126.7899  134.2164  161.9333 C   0  0  0  0  0  0  0  0  0  0  0  0
  128.0775  134.6683  161.2337 C   0  0  2  0  0  0  0  0  0  0  0  0
  128.7515  133.5074  160.6369 N   0  0  0  0  0  0  0  0  0  0  0  0
  129.2636  133.0120  161.3513 H   0  0  0  0  0  0  0  0  0  0  0  0
  128.0637  132.8925  160.2285 H   0  0  0  0  0  0  0  0  0  0  0  0
  129.6812  133.9633  159.5950 C   0  0  2  0  0  0  0  0  0  0  0  0
  129.9963  132.8184  158.6671 C   0  0  0  0  0  0  0  0  0  0  0  0
  129.9850  131.5201  159.1424 C   0  0  0  0  0  0  0  0  0  0  0  0
  130.2692  130.4693  158.2908 C   0  0  0  0  0  0  0  0  0  0  0  0
  130.5752  130.7166  156.9656 C   0  0  0  0  0  0  0  0  0  0  0  0
  130.5919  132.0157  156.4906 C   0  0  0  0  0  0  0  0  0  0  0  0
  130.9757  132.3270  154.8265 Cl  0  0  0  0  0  0  0  0  0  0  0  0
  130.3022  133.0669  157.3425 C   0  0  0  0  0  0  0  0  0  0  0  0
  130.9532  134.4544  160.2368 C   0  0  0  0  0  0  0  0  0  0  0  0
  131.7130  133.5968  161.0105 C   0  0  0  0  0  0  0  0  0  0  0  0
  132.8796  134.0472  161.5990 C   0  0  0  0  0  0  0  0  0  0  0  0
  133.2865  135.3556  161.4146 C   0  0  0  0  0  0  0  0  0  0  0  0
  132.5282  136.2123  160.6393 C   0  0  0  0  0  0  0  0  0  0  0  0
  132.9726  137.6381  160.4369 C   0  0  1  0  0  0  0  0  0  0  0  0
  133.7640  137.7498  159.2523 O   0  0  0  0  0  0  0  0  0  0  0  0
  131.7470  138.5808  160.3596 C   0  0  0  0  0  0  0  0  0  0  0  0
  132.3465  139.9528  160.7536 C   0  0  0  0  0  0  0  0  0  0  0  0
  133.3589  139.6226  161.8675 C   0  0  1  0  0  0  0  0  0  0  0  0
  132.9669  139.8292  162.8634 H   0  0  0  0  0  0  0  0  0  0  0  0
  133.7643  138.1343  161.6624 C   0  0  2  0  0  0  0  0  0  0  0  0
  133.5884  137.5247  162.5487 H   0  0  0  0  0  0  0  0  0  0  0  0
  135.2693  138.2150  161.2664 C   0  0  1  0  0  0  0  0  0  0  0  0
  135.8354  137.2861  161.3340 H   0  0  0  0  0  0  0  0  0  0  0  0
  135.2596  138.9067  159.8978 C   0  0  0  0  0  0  0  0  0  0  0  0
  134.9184  140.1678  160.0709 C   0  0  0  0  0  0  0  0  0  0  0  0
  134.6772  140.4037  161.5668 C   0  0  2  0  0  0  0  0  0  0  0  0
  134.7116  141.4396  161.9042 H   0  0  0  0  0  0  0  0  0  0  0  0
  135.7395  139.4133  162.1692 C   0  0  0  0  0  0  0  0  0  0  0  0
  131.3633  135.7607  160.0473 C   0  0  0  0  0  0  0  0  0  0  0  0
  128.9955  135.3182  162.2697 C   0  0  0  0  0  0  0  0  0  0  0  0
  128.2723  136.3309  163.0283 N   0  0  0  0  0  0  0  0  0  0  0  0
  125.2088  135.1648  163.0467 H   0  0  0  0  0  0  0  0  0  0  0  0
  125.6074  135.9646  161.5081 H   0  0  0  0  0  0  0  0  0  0  0  0
  126.1794  133.6376  161.2404 H   0  0  0  0  0  0  0  0  0  0  0  0
  127.0389  133.6063  162.8016 H   0  0  0  0  0  0  0  0  0  0  0  0
  127.8359  135.3912  160.4545 H   0  0  0  0  0  0  0  0  0  0  0  0
  129.2233  134.7743  159.0290 H   0  0  0  0  0  0  0  0  0  0  0  0
  129.7502  131.3268  160.1787 H   0  0  0  0  0  0  0  0  0  0  0  0
  130.2561  129.4550  158.6617 H   0  0  0  0  0  0  0  0  0  0  0  0
  130.8010  129.8956  156.3010 H   0  0  0  0  0  0  0  0  0  0  0  0
  130.3148  134.0814  156.9722 H   0  0  0  0  0  0  0  0  0  0  0  0
  131.3949  132.5748  161.1553 H   0  0  0  0  0  0  0  0  0  0  0  0
  133.4727  133.3774  162.2041 H   0  0  0  0  0  0  0  0  0  0  0  0
  134.1983  135.7074  161.8743 H   0  0  0  0  0  0  0  0  0  0  0  0
  133.3058  137.4763  158.4460 H   0  0  0  0  0  0  0  0  0  0  0  0
  131.3459  138.6110  159.3465 H   0  0  0  0  0  0  0  0  0  0  0  0
  130.9795  138.2760  161.0712 H   0  0  0  0  0  0  0  0  0  0  0  0
  132.8524  140.4062  159.9011 H   0  0  0  0  0  0  0  0  0  0  0  0
  131.5668  140.6154  161.1291 H   0  0  0  0  0  0  0  0  0  0  0  0
  135.4933  138.4396  158.9524 H   0  0  0  0  0  0  0  0  0  0  0  0
  134.8250  140.9096  159.2914 H   0  0  0  0  0  0  0  0  0  0  0  0
  136.7638  139.7196  161.9564 H   0  0  0  0  0  0  0  0  0  0  0  0
  135.5793  139.2243  163.2307 H   0  0  0  0  0  0  0  0  0  0  0  0
  130.7720  136.4294  159.4393 H   0  0  0  0  0  0  0  0  0  0  0  0
  129.3668  134.5535  162.9520 H   0  0  0  0  0  0  0  0  0  0  0  0
  129.8381  135.7867  161.7609 H   0  0  0  0  0  0  0  0  0  0  0  0
  128.7906  136.9978  163.5054 H   0  0  0  0  0  0  0  0  0  0  0  0
  1  2  2  0
  2 39  1  0
  2  3  1  0
  3  4  1  0
  3 40  1  0
  3 41  1  0
  4  5  1  0
  4 42  1  0
  4 43  1  0
  5  6  1  0
  5 38  1  0
  5 44  1  6
  6  7  1  0
  6  8  1  0
  6  9  1  0
  9 10  1  0
  9 17  1  0
  9 45  1  6
 10 16  1  0
 10 11  2  0
 11 12  1  0
 11 46  1  0
 12 13  2  0
 12 47  1  0
 13 14  1  0
 13 48  1  0
 14 15  1  0
 14 16  2  0
 16 49  1  0
 17 37  1  0
 17 18  2  0
 18 19  1  0
 18 50  1  0
 19 20  2  0
 19 51  1  0
 20 21  1  0
 20 52  1  0
 21 22  1  0
 21 37  2  0
 22 28  1  0
 22 23  1  6
 22 24  1  0
 23 53  1  0
 24 25  1  0
 24 54  1  0
 24 55  1  0
 25 26  1  0
 25 56  1  0
 25 57  1  0
 26 27  1  1
 26 34  1  0
 26 28  1  0
 28 29  1  1
 28 30  1  0
 30 31  1  6
 30 36  1  0
 30 32  1  0
 32 33  2  0
 32 58  1  0
 33 34  1  0
 33 59  1  0
 34 35  1  6
 34 36  1  0
 36 60  1  0
 36 61  1  0
 37 62  1  0
 38 39  1  0
 38 63  1  0
 38 64  1  0
 39 65  1  0
M  CHG  1   6   1
M  END
>  <DOCK_score>  (1) 
-45.630619

>  <SMILES>  (1) 
O=C1CCC([NH2+]C(c2cccc(Cl)c2)c2cccc([C@@]3(O)CC[C@H]4[C@@H]3[C@H]3C=C[C@@H]4C3)c2)CN1

$$$$
