CC1(C)C(CNc2ccccc2CNc2[nH]c3ccccc3[nH+]2)C[C@H]1O
     RDKit          3D

 53 56  0  0  1  0  0  0  0  0999 V2000
  126.4197  135.8505  161.6094 C   0  0  0  0  0  0  0  0  0  0  0  0
  125.8026  134.7439  160.7519 C   0  0  0  0  0  0  0  0  0  0  0  0
  126.1533  134.8744  159.2683 C   0  0  0  0  0  0  0  0  0  0  0  0
  126.0263  133.3307  161.3156 C   0  0  2  0  0  0  0  0  0  0  0  0
  127.0774  132.5247  160.5500 C   0  0  0  0  0  0  0  0  0  0  0  0
  128.4162  132.9346  160.9807 N   0  0  0  0  0  0  0  0  0  0  0  0
  129.5452  132.3345  160.4184 C   0  0  0  0  0  0  0  0  0  0  0  0
  129.4374  131.1001  159.7901 C   0  0  0  0  0  0  0  0  0  0  0  0
  130.5554  130.5095  159.2352 C   0  0  0  0  0  0  0  0  0  0  0  0
  131.7815  131.1457  159.3041 C   0  0  0  0  0  0  0  0  0  0  0  0
  131.8923  132.3746  159.9281 C   0  0  0  0  0  0  0  0  0  0  0  0
  130.7791  132.9681  160.4904 C   0  0  0  0  0  0  0  0  0  0  0  0
  130.9019  134.3046  161.1757 C   0  0  0  0  0  0  0  0  0  0  0  0
  131.7158  135.2025  160.3525 N   0  0  0  0  0  0  0  0  0  0  0  0
  131.9668  136.4859  160.7771 C   0  0  0  0  0  0  0  0  0  0  0  0
  132.6958  137.3800  160.1129 N   0  0  0  0  0  0  0  0  0  0  0  0
  133.1324  137.2339  159.2591 H   0  0  0  0  0  0  0  0  0  0  0  0
  132.7223  138.5424  160.8377 C   0  0  0  0  0  0  0  0  0  0  0  0
  133.3134  139.7870  160.6405 C   0  0  0  0  0  0  0  0  0  0  0  0
  133.1561  140.7774  161.5857 C   0  0  0  0  0  0  0  0  0  0  0  0
  132.4125  140.5432  162.7330 C   0  0  0  0  0  0  0  0  0  0  0  0
  131.8205  139.3168  162.9438 C   0  0  0  0  0  0  0  0  0  0  0  0
  131.9693  138.3053  161.9992 C   0  0  0  0  0  0  0  0  0  0  0  0
  131.5210  137.0132  161.9152 N   0  0  0  0  0  0  0  0  0  0  0  0
  130.9721  136.5594  162.5737 H   0  0  0  0  0  0  0  0  0  0  0  0
  124.5812  133.0163  160.8937 C   0  0  0  0  0  0  0  0  0  0  0  0
  124.3030  134.5257  161.0135 C   0  0  1  0  0  0  0  0  0  0  0  0
  123.6608  134.9163  160.2241 H   0  0  0  0  0  0  0  0  0  0  0  0
  123.8852  134.9290  162.3191 O   0  0  0  0  0  0  0  0  0  0  0  0
  127.4963  135.6961  161.6823 H   0  0  0  0  0  0  0  0  0  0  0  0
  126.2220  136.8190  161.1500 H   0  0  0  0  0  0  0  0  0  0  0  0
  125.9807  135.8250  162.6067 H   0  0  0  0  0  0  0  0  0  0  0  0
  125.5345  134.1908  158.6872 H   0  0  0  0  0  0  0  0  0  0  0  0
  125.9705  135.8978  158.9405 H   0  0  0  0  0  0  0  0  0  0  0  0
  127.2048  134.6279  159.1205 H   0  0  0  0  0  0  0  0  0  0  0  0
  126.1804  133.3103  162.3945 H   0  0  0  0  0  0  0  0  0  0  0  0
  126.9678  132.7076  159.4810 H   0  0  0  0  0  0  0  0  0  0  0  0
  126.9398  131.4627  160.7529 H   0  0  0  0  0  0  0  0  0  0  0  0
  128.5189  133.6228  161.6566 H   0  0  0  0  0  0  0  0  0  0  0  0
  128.4801  130.6029  159.7356 H   0  0  0  0  0  0  0  0  0  0  0  0
  130.4722  129.5501  158.7464 H   0  0  0  0  0  0  0  0  0  0  0  0
  132.6545  130.6817  158.8692 H   0  0  0  0  0  0  0  0  0  0  0  0
  132.8513  132.8686  159.9799 H   0  0  0  0  0  0  0  0  0  0  0  0
  129.9101  134.7357  161.3118 H   0  0  0  0  0  0  0  0  0  0  0  0
  131.3771  134.1723  162.1478 H   0  0  0  0  0  0  0  0  0  0  0  0
  132.0775  134.8916  159.5080 H   0  0  0  0  0  0  0  0  0  0  0  0
  133.8934  139.9760  159.7493 H   0  0  0  0  0  0  0  0  0  0  0  0
  133.6149  141.7430  161.4319 H   0  0  0  0  0  0  0  0  0  0  0  0
  132.2963  141.3277  163.4662 H   0  0  0  0  0  0  0  0  0  0  0  0
  131.2424  139.1409  163.8391 H   0  0  0  0  0  0  0  0  0  0  0  0
  124.4965  132.6362  159.8756 H   0  0  0  0  0  0  0  0  0  0  0  0
  124.0363  132.4120  161.6190 H   0  0  0  0  0  0  0  0  0  0  0  0
  124.0354  135.8652  162.5085 H   0  0  0  0  0  0  0  0  0  0  0  0
  1  2  1  0
  1 30  1  0
  1 31  1  0
  1 32  1  0
  2 27  1  0
  2  3  1  0
  2  4  1  0
  3 33  1  0
  3 34  1  0
  3 35  1  0
  4  5  1  0
  4 26  1  0
  4 36  1  1
  5  6  1  0
  5 37  1  0
  5 38  1  0
  6  7  1  0
  6 39  1  0
  7 12  1  0
  7  8  2  0
  8  9  1  0
  8 40  1  0
  9 10  2  0
  9 41  1  0
 10 11  1  0
 10 42  1  0
 11 12  2  0
 11 43  1  0
 12 13  1  0
 13 14  1  0
 13 44  1  0
 13 45  1  0
 14 15  1  0
 14 46  1  0
 15 24  1  0
 15 16  2  0
 16 17  1  0
 16 18  1  0
 18 23  2  0
 18 19  1  0
 19 20  2  0
 19 47  1  0
 20 21  1  0
 20 48  1  0
 21 22  2  0
 21 49  1  0
 22 23  1  0
 22 50  1  0
 23 24  1  0
 24 25  1  0
 26 27  1  0
 26 51  1  0
 26 52  1  0
 27 28  1  6
 27 29  1  0
 29 53  1  0
M  CHG  1  16   1
M  END
>  <DOCK_score>  (1) 
-46.54987

>  <SMILES>  (1) 
CC1(C)C(CNc2ccccc2CNc2[nH]c3ccccc3[nH+]2)C[C@H]1O

$$$$
