CC=C(C)[C@@H](C=CC1CC=CC1)Nc1[nH]cc(-c2ccc(CC)cc2)[nH+]1
     RDKit          3D

 56 58  0  0  1  0  0  0  0  0999 V2000
  128.0734  134.7672  162.0086 C   0  0  0  0  0  0  0  0  0  0  0  0
  129.3717  134.0403  161.7695 C   0  0  0  0  0  0  0  0  0  0  0  0
  130.1440  134.3901  160.7709 C   0  0  0  0  0  0  0  0  0  0  0  0
  131.5000  133.7532  160.6080 C   0  0  0  0  0  0  0  0  0  0  0  0
  129.6765  135.4296  159.7851 C   0  0  1  0  0  0  0  0  0  0  0  0
  128.5901  135.3909  159.7041 H   0  0  0  0  0  0  0  0  0  0  0  0
  130.0966  136.7968  160.2594 C   0  0  0  0  0  0  0  0  0  0  0  0
  131.3666  137.0700  160.4287 C   0  0  0  0  0  0  0  0  0  0  0  0
  131.7866  138.4373  160.9031 C   0  0  0  0  0  0  0  0  0  0  0  0
  132.8604  139.0430  159.9697 C   0  0  0  0  0  0  0  0  0  0  0  0
  133.8009  139.7806  160.8941 C   0  0  0  0  0  0  0  0  0  0  0  0
  133.6362  139.4017  162.1322 C   0  0  0  0  0  0  0  0  0  0  0  0
  132.5585  138.3481  162.2401 C   0  0  0  0  0  0  0  0  0  0  0  0
  130.2735  135.1627  158.4741 N   0  0  0  0  0  0  0  0  0  0  0  0
  130.0282  133.9601  157.8336 C   0  0  0  0  0  0  0  0  0  0  0  0
  129.2583  132.9472  158.3168 N   0  0  0  0  0  0  0  0  0  0  0  0
  128.7865  132.9382  159.1644 H   0  0  0  0  0  0  0  0  0  0  0  0
  129.2721  131.9403  157.3826 C   0  0  0  0  0  0  0  0  0  0  0  0
  130.0493  132.3662  156.3563 C   0  0  0  0  0  0  0  0  0  0  0  0
  130.3544  131.6072  155.1189 C   0  0  0  0  0  0  0  0  0  0  0  0
  129.9973  132.1247  153.8750 C   0  0  0  0  0  0  0  0  0  0  0  0
  130.2840  131.4144  152.7271 C   0  0  0  0  0  0  0  0  0  0  0  0
  130.9245  130.1906  152.8095 C   0  0  0  0  0  0  0  0  0  0  0  0
  131.2349  129.4196  151.5525 C   0  0  0  0  0  0  0  0  0  0  0  0
  130.0590  128.5013  151.2139 C   0  0  0  0  0  0  0  0  0  0  0  0
  131.2761  129.6700  154.0415 C   0  0  0  0  0  0  0  0  0  0  0  0
  130.9995  130.3742  155.1957 C   0  0  0  0  0  0  0  0  0  0  0  0
  130.5032  133.6072  156.6641 N   0  0  0  0  0  0  0  0  0  0  0  0
  131.0848  134.1477  156.1068 H   0  0  0  0  0  0  0  0  0  0  0  0
  127.6147  134.3994  162.9264 H   0  0  0  0  0  0  0  0  0  0  0  0
  128.2671  135.8357  162.1021 H   0  0  0  0  0  0  0  0  0  0  0  0
  127.3993  134.5922  161.1701 H   0  0  0  0  0  0  0  0  0  0  0  0
  129.6653  133.2308  162.4213 H   0  0  0  0  0  0  0  0  0  0  0  0
  132.2435  134.3378  161.1496 H   0  0  0  0  0  0  0  0  0  0  0  0
  131.4752  132.7387  161.0061 H   0  0  0  0  0  0  0  0  0  0  0  0
  131.7621  133.7220  159.5504 H   0  0  0  0  0  0  0  0  0  0  0  0
  129.3505  137.5517  160.4597 H   0  0  0  0  0  0  0  0  0  0  0  0
  132.1125  136.3151  160.2283 H   0  0  0  0  0  0  0  0  0  0  0  0
  130.9256  139.0998  160.9919 H   0  0  0  0  0  0  0  0  0  0  0  0
  133.3916  138.2529  159.4391 H   0  0  0  0  0  0  0  0  0  0  0  0
  132.4024  139.7349  159.2628 H   0  0  0  0  0  0  0  0  0  0  0  0
  134.5152  140.5241  160.5727 H   0  0  0  0  0  0  0  0  0  0  0  0
  134.1965  139.7904  162.9698 H   0  0  0  0  0  0  0  0  0  0  0  0
  131.8953  138.5676  163.0768 H   0  0  0  0  0  0  0  0  0  0  0  0
  133.0037  137.3600  162.3563 H   0  0  0  0  0  0  0  0  0  0  0  0
  130.8406  135.8286  158.0549 H   0  0  0  0  0  0  0  0  0  0  0  0
  128.7614  130.9911  157.4520 H   0  0  0  0  0  0  0  0  0  0  0  0
  129.4969  133.0795  153.8097 H   0  0  0  0  0  0  0  0  0  0  0  0
  130.0075  131.8142  151.7626 H   0  0  0  0  0  0  0  0  0  0  0  0
  132.1320  128.8206  151.7055 H   0  0  0  0  0  0  0  0  0  0  0  0
  131.3996  130.1169  150.7302 H   0  0  0  0  0  0  0  0  0  0  0  0
  129.8943  127.8046  152.0358 H   0  0  0  0  0  0  0  0  0  0  0  0
  129.1618  129.1009  151.0604 H   0  0  0  0  0  0  0  0  0  0  0  0
  130.2836  127.9439  150.3045 H   0  0  0  0  0  0  0  0  0  0  0  0
  131.7717  128.7122  154.1002 H   0  0  0  0  0  0  0  0  0  0  0  0
  131.2789  129.9686  156.1570 H   0  0  0  0  0  0  0  0  0  0  0  0
  1  2  1  0
  1 30  1  0
  1 31  1  0
  1 32  1  0
  2  3  2  0
  2 33  1  0
  3  4  1  0
  3  5  1  0
  4 34  1  0
  4 35  1  0
  4 36  1  0
  5  6  1  6
  5  7  1  0
  5 14  1  0
  7  8  2  0
  7 37  1  0
  8  9  1  0
  8 38  1  0
  9 13  1  0
  9 10  1  0
  9 39  1  0
 10 11  1  0
 10 40  1  0
 10 41  1  0
 11 12  2  0
 11 42  1  0
 12 13  1  0
 12 43  1  0
 13 44  1  0
 13 45  1  0
 14 46  1  0
 15 14  1  0
 15 28  2  0
 15 16  1  0
 16 17  1  0
 16 18  1  0
 18 19  2  0
 18 47  1  0
 19 20  1  0
 19 28  1  0
 20 27  1  0
 20 21  2  0
 21 22  1  0
 21 48  1  0
 22 23  2  0
 22 49  1  0
 23 24  1  0
 23 26  1  0
 24 25  1  0
 24 50  1  0
 24 51  1  0
 25 52  1  0
 25 53  1  0
 25 54  1  0
 26 27  2  0
 26 55  1  0
 27 56  1  0
 28 29  1  0
M  CHG  1  28   1
M  END
>  <DOCK_score>  (1) 
-58.196651

>  <SMILES>  (1) 
CC=C(C)[C@@H](C=CC1CC=CC1)Nc1[nH]cc(-c2ccc(CC)cc2)[nH+]1

$$$$
