Cc1n[nH]cc1C[NH2+]Cc1c[nH]nc1-c1ccc(NC[C@@H]2CCC(=O)NC2)o1
     RDKit          3D

 54 57  0  0  1  0  0  0  0  0999 V2000
  131.9366  132.2516  160.1510 C   0  0  0  0  0  0  0  0  0  0  0  0
  131.1038  132.8637  159.0542 C   0  0  0  0  0  0  0  0  0  0  0  0
  130.7558  132.2777  157.9373 N   0  0  0  0  0  0  0  0  0  0  0  0
  129.9927  133.1824  157.1878 N   0  0  0  0  0  0  0  0  0  0  0  0
  129.6063  133.0160  156.3139 H   0  0  0  0  0  0  0  0  0  0  0  0
  129.8907  134.3264  157.8962 C   0  0  0  0  0  0  0  0  0  0  0  0
  130.5658  134.1548  159.0563 C   0  0  0  0  0  0  0  0  0  0  0  0
  130.7169  135.1765  160.1538 C   0  0  0  0  0  0  0  0  0  0  0  0
  131.9155  135.9884  159.9053 N   0  0  0  0  0  0  0  0  0  0  0  0
  131.8248  136.4594  159.0176 H   0  0  0  0  0  0  0  0  0  0  0  0
  132.7286  135.3912  159.8875 H   0  0  0  0  0  0  0  0  0  0  0  0
  132.0628  136.9843  160.9752 C   0  0  0  0  0  0  0  0  0  0  0  0
  133.2926  137.8173  160.7202 C   0  0  0  0  0  0  0  0  0  0  0  0
  134.1381  137.6880  159.6755 C   0  0  0  0  0  0  0  0  0  0  0  0
  135.1140  138.6122  159.8102 N   0  0  0  0  0  0  0  0  0  0  0  0
  135.8593  138.7448  159.2037 H   0  0  0  0  0  0  0  0  0  0  0  0
  134.8632  139.3461  160.9765 N   0  0  0  0  0  0  0  0  0  0  0  0
  133.7631  138.8736  161.5287 C   0  0  0  0  0  0  0  0  0  0  0  0
  133.1375  139.3596  162.7758 C   0  0  0  0  0  0  0  0  0  0  0  0
  133.5974  140.3744  163.5543 C   0  0  0  0  0  0  0  0  0  0  0  0
  132.7014  140.4984  164.6344 C   0  0  0  0  0  0  0  0  0  0  0  0
  131.7413  139.5559  164.4626 C   0  0  0  0  0  0  0  0  0  0  0  0
  130.6605  139.3341  165.3080 N   0  0  0  0  0  0  0  0  0  0  0  0
  129.6944  138.2766  165.0000 C   0  0  0  0  0  0  0  0  0  0  0  0
  128.5710  138.8488  164.1332 C   0  0  2  0  0  0  0  0  0  0  0  0
  128.9859  139.2404  163.2044 H   0  0  0  0  0  0  0  0  0  0  0  0
  127.8576  139.9740  164.8926 C   0  0  0  0  0  0  0  0  0  0  0  0
  126.8659  140.6472  163.9404 C   0  0  0  0  0  0  0  0  0  0  0  0
  126.0337  139.6055  163.2494 C   0  0  0  0  0  0  0  0  0  0  0  0
  125.0008  139.9554  162.7186 O   0  0  0  0  0  0  0  0  0  0  0  0
  126.3698  138.3165  163.1877 N   0  0  0  0  0  0  0  0  0  0  0  0
  127.5554  137.7499  163.8184 C   0  0  0  0  0  0  0  0  0  0  0  0
  132.0141  138.8685  163.3405 O   0  0  0  0  0  0  0  0  0  0  0  0
  131.2844  131.7479  160.8644 H   0  0  0  0  0  0  0  0  0  0  0  0
  132.6304  131.5296  159.7205 H   0  0  0  0  0  0  0  0  0  0  0  0
  132.4973  133.0346  160.6615 H   0  0  0  0  0  0  0  0  0  0  0  0
  129.3648  135.2192  157.5917 H   0  0  0  0  0  0  0  0  0  0  0  0
  130.8150  134.6678  161.1128 H   0  0  0  0  0  0  0  0  0  0  0  0
  129.8386  135.8217  160.1729 H   0  0  0  0  0  0  0  0  0  0  0  0
  132.1610  136.4755  161.9342 H   0  0  0  0  0  0  0  0  0  0  0  0
  131.1846  137.6294  160.9944 H   0  0  0  0  0  0  0  0  0  0  0  0
  134.0519  136.9683  158.8748 H   0  0  0  0  0  0  0  0  0  0  0  0
  134.4799  140.9714  163.3782 H   0  0  0  0  0  0  0  0  0  0  0  0
  132.7664  141.2092  165.4451 H   0  0  0  0  0  0  0  0  0  0  0  0
  130.5459  139.8795  166.1019 H   0  0  0  0  0  0  0  0  0  0  0  0
  129.2750  137.8863  165.9274 H   0  0  0  0  0  0  0  0  0  0  0  0
  130.1955  137.4725  164.4612 H   0  0  0  0  0  0  0  0  0  0  0  0
  128.5889  140.7050  165.2376 H   0  0  0  0  0  0  0  0  0  0  0  0
  127.3224  139.5591  165.7466 H   0  0  0  0  0  0  0  0  0  0  0  0
  127.4139  141.2250  163.1962 H   0  0  0  0  0  0  0  0  0  0  0  0
  126.2153  141.3122  164.5082 H   0  0  0  0  0  0  0  0  0  0  0  0
  125.7865  137.7176  162.6955 H   0  0  0  0  0  0  0  0  0  0  0  0
  127.2674  137.2499  164.7431 H   0  0  0  0  0  0  0  0  0  0  0  0
  128.0088  137.0224  163.1452 H   0  0  0  0  0  0  0  0  0  0  0  0
  1  2  1  0
  1 34  1  0
  1 35  1  0
  1 36  1  0
  2  7  1  0
  2  3  2  0
  3  4  1  0
  4  5  1  0
  4  6  1  0
  6  7  2  0
  6 37  1  0
  7  8  1  0
  8  9  1  0
  8 38  1  0
  8 39  1  0
  9 10  1  0
  9 11  1  0
  9 12  1  0
 12 13  1  0
 12 40  1  0
 12 41  1  0
 13 18  1  0
 13 14  2  0
 14 15  1  0
 14 42  1  0
 15 16  1  0
 15 17  1  0
 17 18  2  0
 18 19  1  0
 19 33  1  0
 19 20  2  0
 20 21  1  0
 20 43  1  0
 21 22  2  0
 21 44  1  0
 22 23  1  0
 22 33  1  0
 23 24  1  0
 23 45  1  0
 24 25  1  0
 24 46  1  0
 24 47  1  0
 25 26  1  6
 25 32  1  0
 25 27  1  0
 27 28  1  0
 27 48  1  0
 27 49  1  0
 28 29  1  0
 28 50  1  0
 28 51  1  0
 29 30  2  0
 29 31  1  0
 31 32  1  0
 31 52  1  0
 32 53  1  0
 32 54  1  0
M  CHG  1   9   1
M  END
>  <DOCK_score>  (1) 
-43.086514

>  <SMILES>  (1) 
Cc1n[nH]cc1C[NH2+]Cc1c[nH]nc1-c1ccc(NC[C@@H]2CCC(=O)NC2)o1

$$$$
