Cc1cccc(N2CC[NH+]([C@@H](c3ccccc3)c3ccccc3Cl)CC2)c1CCl
     RDKit          3D

 56 59  0  0  1  0  0  0  0  0999 V2000
  135.8315  141.3976  162.5796 C   0  0  0  0  0  0  0  0  0  0  0  0
  135.2672  140.6463  161.4014 C   0  0  0  0  0  0  0  0  0  0  0  0
  135.6449  140.9921  160.1165 C   0  0  0  0  0  0  0  0  0  0  0  0
  135.1295  140.3054  159.0328 C   0  0  0  0  0  0  0  0  0  0  0  0
  134.2393  139.2679  159.2303 C   0  0  0  0  0  0  0  0  0  0  0  0
  133.8536  138.9218  160.5189 C   0  0  0  0  0  0  0  0  0  0  0  0
  132.9496  137.8766  160.7219 N   0  0  0  0  0  0  0  0  0  0  0  0
  131.6406  138.1902  160.1318 C   0  0  0  0  0  0  0  0  0  0  0  0
  130.6647  137.0491  160.4271 C   0  0  0  0  0  0  0  0  0  0  0  0
  131.1885  135.7983  159.8626 N   0  0  0  0  0  0  0  0  0  0  0  0
  131.3073  135.9030  158.8662 H   0  0  0  0  0  0  0  0  0  0  0  0
  130.2427  134.7066  160.1307 C   0  0  1  0  0  0  0  0  0  0  0  0
  130.1138  134.5936  161.2071 H   0  0  0  0  0  0  0  0  0  0  0  0
  128.9136  135.0264  159.4962 C   0  0  0  0  0  0  0  0  0  0  0  0
  127.7457  134.5476  160.0599 C   0  0  0  0  0  0  0  0  0  0  0  0
  126.5264  134.8446  159.4804 C   0  0  0  0  0  0  0  0  0  0  0  0
  126.4755  135.6122  158.3319 C   0  0  0  0  0  0  0  0  0  0  0  0
  127.6437  136.0870  157.7657 C   0  0  0  0  0  0  0  0  0  0  0  0
  128.8629  135.7937  158.3476 C   0  0  0  0  0  0  0  0  0  0  0  0
  130.7798  133.4232  159.5519 C   0  0  0  0  0  0  0  0  0  0  0  0
  131.0257  133.3263  158.1949 C   0  0  0  0  0  0  0  0  0  0  0  0
  131.5232  132.1508  157.6645 C   0  0  0  0  0  0  0  0  0  0  0  0
  131.7646  131.0674  158.4891 C   0  0  0  0  0  0  0  0  0  0  0  0
  131.5142  131.1613  159.8449 C   0  0  0  0  0  0  0  0  0  0  0  0
  131.0216  132.3397  160.3773 C   0  0  0  0  0  0  0  0  0  0  0  0
  130.7062  132.4582  162.0802 Cl  0  0  0  0  0  0  0  0  0  0  0  0
  132.4842  135.4857  160.4799 C   0  0  0  0  0  0  0  0  0  0  0  0
  133.4753  136.6136  160.1847 C   0  0  0  0  0  0  0  0  0  0  0  0
  134.3734  139.6138  161.6058 C   0  0  0  0  0  0  0  0  0  0  0  0
  133.9625  139.2378  163.0060 C   0  0  0  0  0  0  0  0  0  0  0  0
  132.5068  140.1897  163.4812 Cl  0  0  0  0  0  0  0  0  0  0  0  0
  136.7485  140.9125  162.9144 H   0  0  0  0  0  0  0  0  0  0  0  0
  136.0499  142.4240  162.2852 H   0  0  0  0  0  0  0  0  0  0  0  0
  135.1043  141.3993  163.3915 H   0  0  0  0  0  0  0  0  0  0  0  0
  136.3441  141.8000  159.9595 H   0  0  0  0  0  0  0  0  0  0  0  0
  135.4265  140.5780  158.0308 H   0  0  0  0  0  0  0  0  0  0  0  0
  133.8407  138.7290  158.3836 H   0  0  0  0  0  0  0  0  0  0  0  0
  131.7468  138.3080  159.0534 H   0  0  0  0  0  0  0  0  0  0  0  0
  131.2594  139.1157  160.5634 H   0  0  0  0  0  0  0  0  0  0  0  0
  129.6971  137.2732  159.9780 H   0  0  0  0  0  0  0  0  0  0  0  0
  130.5483  136.9404  161.5054 H   0  0  0  0  0  0  0  0  0  0  0  0
  127.7857  133.9443  160.9549 H   0  0  0  0  0  0  0  0  0  0  0  0
  125.6136  134.4740  159.9231 H   0  0  0  0  0  0  0  0  0  0  0  0
  125.5229  135.8415  157.8774 H   0  0  0  0  0  0  0  0  0  0  0  0
  127.6041  136.6868  156.8685 H   0  0  0  0  0  0  0  0  0  0  0  0
  129.7755  136.1643  157.9049 H   0  0  0  0  0  0  0  0  0  0  0  0
  130.8329  134.1707  157.5497 H   0  0  0  0  0  0  0  0  0  0  0  0
  131.7197  132.0772  156.6051 H   0  0  0  0  0  0  0  0  0  0  0  0
  132.1492  130.1478  158.0734 H   0  0  0  0  0  0  0  0  0  0  0  0
  131.7027  130.3151  160.4888 H   0  0  0  0  0  0  0  0  0  0  0  0
  132.3583  135.3852  161.5579 H   0  0  0  0  0  0  0  0  0  0  0  0
  132.8657  134.5505  160.0699 H   0  0  0  0  0  0  0  0  0  0  0  0
  133.6117  136.7055  159.1072 H   0  0  0  0  0  0  0  0  0  0  0  0
  134.4329  136.3891  160.6546 H   0  0  0  0  0  0  0  0  0  0  0  0
  133.7288  138.1740  163.0428 H   0  0  0  0  0  0  0  0  0  0  0  0
  134.7791  139.4545  163.6947 H   0  0  0  0  0  0  0  0  0  0  0  0
  1  2  1  0
  1 32  1  0
  1 33  1  0
  1 34  1  0
  2 29  2  0
  2  3  1  0
  3  4  2  0
  3 35  1  0
  4  5  1  0
  4 36  1  0
  5  6  2  0
  5 37  1  0
  6  7  1  0
  6 29  1  0
  7 28  1  0
  7  8  1  0
  8  9  1  0
  8 38  1  0
  8 39  1  0
  9 10  1  0
  9 40  1  0
  9 41  1  0
 10 11  1  0
 10 12  1  0
 10 27  1  0
 12 13  1  1
 12 14  1  0
 12 20  1  0
 14 19  1  0
 14 15  2  0
 15 16  1  0
 15 42  1  0
 16 17  2  0
 16 43  1  0
 17 18  1  0
 17 44  1  0
 18 19  2  0
 18 45  1  0
 19 46  1  0
 20 25  1  0
 20 21  2  0
 21 22  1  0
 21 47  1  0
 22 23  2  0
 22 48  1  0
 23 24  1  0
 23 49  1  0
 24 25  2  0
 24 50  1  0
 25 26  1  0
 27 28  1  0
 27 51  1  0
 27 52  1  0
 28 53  1  0
 28 54  1  0
 29 30  1  0
 30 31  1  0
 30 55  1  0
 30 56  1  0
M  CHG  1  10   1
M  END
>  <DOCK_score>  (1) 
-58.372723

>  <SMILES>  (1) 
Cc1cccc(N2CC[NH+]([C@@H](c3ccccc3)c3ccccc3Cl)CC2)c1CCl

$$$$
