Nc1ccc(-c2c[nH]c(Nc3c[nH]c4ccc(N5CC[C@@H](c6c[nH]c7ccccc67)C5)cc34)[nH+]2)cc1
     RDKit          3D

 64 70  0  0  1  0  0  0  0  0999 V2000
  131.3778  129.3670  151.1066 N   0  0  0  0  0  0  0  0  0  0  0  0
  131.0980  130.0576  152.2882 C   0  0  0  0  0  0  0  0  0  0  0  0
  130.6934  131.3861  152.2362 C   0  0  0  0  0  0  0  0  0  0  0  0
  130.4168  132.0699  153.4013 C   0  0  0  0  0  0  0  0  0  0  0  0
  130.5432  131.4275  154.6320 C   0  0  0  0  0  0  0  0  0  0  0  0
  130.2461  132.1610  155.8868 C   0  0  0  0  0  0  0  0  0  0  0  0
  129.7724  131.6177  157.0354 C   0  0  0  0  0  0  0  0  0  0  0  0
  129.6416  132.6458  157.9387 N   0  0  0  0  0  0  0  0  0  0  0  0
  129.3242  132.5713  158.8523 H   0  0  0  0  0  0  0  0  0  0  0  0
  130.0399  133.7878  157.3138 C   0  0  0  0  0  0  0  0  0  0  0  0
  130.0603  135.0510  157.8790 N   0  0  0  0  0  0  0  0  0  0  0  0
  129.1313  135.3890  158.8801 C   0  0  0  0  0  0  0  0  0  0  0  0
  127.8824  134.9030  159.0111 C   0  0  0  0  0  0  0  0  0  0  0  0
  127.2774  135.4658  160.1098 N   0  0  0  0  0  0  0  0  0  0  0  0
  126.3760  135.2713  160.4108 H   0  0  0  0  0  0  0  0  0  0  0  0
  128.1422  136.3522  160.7173 C   0  0  0  0  0  0  0  0  0  0  0  0
  128.0343  137.1740  161.8349 C   0  0  0  0  0  0  0  0  0  0  0  0
  129.0927  137.9704  162.2091 C   0  0  0  0  0  0  0  0  0  0  0  0
  130.2790  137.9644  161.4765 C   0  0  0  0  0  0  0  0  0  0  0  0
  131.3461  138.7807  161.8701 N   0  0  0  0  0  0  0  0  0  0  0  0
  131.6911  139.7501  160.8084 C   0  0  0  0  0  0  0  0  0  0  0  0
  133.2256  139.9297  160.9203 C   0  0  0  0  0  0  0  0  0  0  0  0
  133.6843  138.4912  161.2767 C   0  0  1  0  0  0  0  0  0  0  0  0
  133.7724  137.8810  160.3778 H   0  0  0  0  0  0  0  0  0  0  0  0
  134.9876  138.5195  162.0329 C   0  0  0  0  0  0  0  0  0  0  0  0
  135.6897  139.6118  162.3734 C   0  0  0  0  0  0  0  0  0  0  0  0
  136.8177  139.2469  163.0565 N   0  0  0  0  0  0  0  0  0  0  0  0
  137.4802  139.8624  163.4074 H   0  0  0  0  0  0  0  0  0  0  0  0
  136.8753  137.8756  163.1665 C   0  0  0  0  0  0  0  0  0  0  0  0
  137.7872  136.9986  163.7453 C   0  0  0  0  0  0  0  0  0  0  0  0
  137.5611  135.6411  163.6890 C   0  0  0  0  0  0  0  0  0  0  0  0
  136.4308  135.1370  163.0599 C   0  0  0  0  0  0  0  0  0  0  0  0
  135.5222  135.9800  162.4851 C   0  0  0  0  0  0  0  0  0  0  0  0
  135.7317  137.3599  162.5303 C   0  0  0  0  0  0  0  0  0  0  0  0
  132.5422  137.9751  162.1770 C   0  0  0  0  0  0  0  0  0  0  0  0
  130.4053  137.1549  160.3636 C   0  0  0  0  0  0  0  0  0  0  0  0
  129.3371  136.3430  159.9764 C   0  0  0  0  0  0  0  0  0  0  0  0
  130.4002  133.4934  156.0879 N   0  0  0  0  0  0  0  0  0  0  0  0
  130.7219  134.1280  155.4286 H   0  0  0  0  0  0  0  0  0  0  0  0
  130.9546  130.0965  154.6821 C   0  0  0  0  0  0  0  0  0  0  0  0
  131.2243  129.4149  153.5142 C   0  0  0  0  0  0  0  0  0  0  0  0
  131.2894  129.8146  150.2507 H   0  0  0  0  0  0  0  0  0  0  0  0
  131.6600  128.4395  151.1422 H   0  0  0  0  0  0  0  0  0  0  0  0
  130.5960  131.8835  151.2825 H   0  0  0  0  0  0  0  0  0  0  0  0
  130.1021  133.1022  153.3603 H   0  0  0  0  0  0  0  0  0  0  0  0
  129.5423  130.5767  157.2078 H   0  0  0  0  0  0  0  0  0  0  0  0
  130.7151  135.7034  157.5849 H   0  0  0  0  0  0  0  0  0  0  0  0
  127.4256  134.1783  158.3533 H   0  0  0  0  0  0  0  0  0  0  0  0
  127.1197  137.1867  162.4093 H   0  0  0  0  0  0  0  0  0  0  0  0
  129.0033  138.6060  163.0776 H   0  0  0  0  0  0  0  0  0  0  0  0
  131.4261  139.3510  159.8293 H   0  0  0  0  0  0  0  0  0  0  0  0
  131.1842  140.6993  160.9821 H   0  0  0  0  0  0  0  0  0  0  0  0
  133.4798  140.6292  161.7166 H   0  0  0  0  0  0  0  0  0  0  0  0
  133.6514  140.2511  159.9698 H   0  0  0  0  0  0  0  0  0  0  0  0
  135.4050  140.6281  162.1444 H   0  0  0  0  0  0  0  0  0  0  0  0
  138.6694  137.3810  164.2373 H   0  0  0  0  0  0  0  0  0  0  0  0
  138.2702  134.9619  164.1386 H   0  0  0  0  0  0  0  0  0  0  0  0
  136.2684  134.0699  163.0244 H   0  0  0  0  0  0  0  0  0  0  0  0
  134.6454  135.5808  161.9971 H   0  0  0  0  0  0  0  0  0  0  0  0
  132.8126  138.0975  163.2258 H   0  0  0  0  0  0  0  0  0  0  0  0
  132.3459  136.9241  161.9652 H   0  0  0  0  0  0  0  0  0  0  0  0
  131.3246  137.1501  159.7968 H   0  0  0  0  0  0  0  0  0  0  0  0
  131.0579  129.5984  155.6348 H   0  0  0  0  0  0  0  0  0  0  0  0
  131.5383  128.3824  153.5522 H   0  0  0  0  0  0  0  0  0  0  0  0
  1  2  1  0
  1 42  1  0
  1 43  1  0
  2 41  2  0
  2  3  1  0
  3  4  2  0
  3 44  1  0
  4  5  1  0
  4 45  1  0
  5  6  1  0
  5 40  2  0
  6 38  1  0
  6  7  2  0
  7  8  1  0
  7 46  1  0
  8  9  1  0
  8 10  1  0
 10 11  1  0
 10 38  2  0
 11 12  1  0
 11 47  1  0
 12 37  1  0
 12 13  2  0
 13 14  1  0
 13 48  1  0
 14 15  1  0
 14 16  1  0
 16 37  2  0
 16 17  1  0
 17 18  2  0
 17 49  1  0
 18 19  1  0
 18 50  1  0
 19 20  1  0
 19 36  2  0
 20 35  1  0
 20 21  1  0
 21 22  1  0
 21 51  1  0
 21 52  1  0
 22 23  1  0
 22 53  1  0
 22 54  1  0
 23 24  1  6
 23 25  1  0
 23 35  1  0
 25 34  1  0
 25 26  2  0
 26 27  1  0
 26 55  1  0
 27 28  1  0
 27 29  1  0
 29 34  2  0
 29 30  1  0
 30 31  2  0
 30 56  1  0
 31 32  1  0
 31 57  1  0
 32 33  2  0
 32 58  1  0
 33 34  1  0
 33 59  1  0
 35 60  1  0
 35 61  1  0
 36 37  1  0
 36 62  1  0
 38 39  1  0
 40 41  1  0
 40 63  1  0
 41 64  1  0
M  CHG  1  38   1
M  END
>  <DOCK_score>  (1) 
-67.654869

>  <SMILES>  (1) 
Nc1ccc(-c2c[nH]c(Nc3c[nH]c4ccc(N5CC[C@@H](c6c[nH]c7ccccc67)C5)cc34)[nH+]2)cc1

$$$$
