c1cc(Nc2ccc([C@H]3CO3)cc2)ccc1NC1=[NH+]CCN1
     RDKit          3D

 41 44  0  0  1  0  0  0  0  0999 V2000
  129.4550  136.1369  160.1438 C   0  0  0  0  0  0  0  0  0  0  0  0
  128.5129  136.4948  161.0874 C   0  0  0  0  0  0  0  0  0  0  0  0
  127.2046  136.0441  160.9679 C   0  0  0  0  0  0  0  0  0  0  0  0
  126.2493  136.4068  161.9243 N   0  0  0  0  0  0  0  0  0  0  0  0
  126.6386  136.6470  163.2442 C   0  0  0  0  0  0  0  0  0  0  0  0
  126.4205  137.8931  163.8186 C   0  0  0  0  0  0  0  0  0  0  0  0
  126.8017  138.1253  165.1254 C   0  0  0  0  0  0  0  0  0  0  0  0
  127.4094  137.1228  165.8587 C   0  0  0  0  0  0  0  0  0  0  0  0
  127.8293  137.3819  167.2827 C   0  0  1  0  0  0  0  0  0  0  0  0
  127.0814  137.1601  168.0441 H   0  0  0  0  0  0  0  0  0  0  0  0
  129.3005  137.1659  167.6428 C   0  0  0  0  0  0  0  0  0  0  0  0
  128.7247  138.4686  167.5257 O   0  0  0  0  0  0  0  0  0  0  0  0
  127.6332  135.8830  165.2883 C   0  0  0  0  0  0  0  0  0  0  0  0
  127.2498  135.6421  163.9836 C   0  0  0  0  0  0  0  0  0  0  0  0
  126.8458  135.2283  159.9025 C   0  0  0  0  0  0  0  0  0  0  0  0
  127.7871  134.8749  158.9564 C   0  0  0  0  0  0  0  0  0  0  0  0
  129.0949  135.3262  159.0757 C   0  0  0  0  0  0  0  0  0  0  0  0
  130.0516  134.9629  158.1180 N   0  0  0  0  0  0  0  0  0  0  0  0
  129.9433  133.7658  157.4619 C   0  0  0  0  0  0  0  0  0  0  0  0
  129.3920  132.6963  158.0123 N   0  0  0  0  0  0  0  0  0  0  0  0
  129.0211  132.6534  158.9076 H   0  0  0  0  0  0  0  0  0  0  0  0
  129.4276  131.5832  157.0508 C   0  0  0  0  0  0  0  0  0  0  0  0
  130.1198  132.1969  155.8170 C   0  0  0  0  0  0  0  0  0  0  0  0
  130.3867  133.5839  156.2285 N   0  0  0  0  0  0  0  0  0  0  0  0
  130.4722  136.4879  160.2364 H   0  0  0  0  0  0  0  0  0  0  0  0
  128.7932  137.1252  161.9183 H   0  0  0  0  0  0  0  0  0  0  0  0
  125.3170  136.4915  161.6704 H   0  0  0  0  0  0  0  0  0  0  0  0
  125.9498  138.6779  163.2450 H   0  0  0  0  0  0  0  0  0  0  0  0
  126.6290  139.0926  165.5737 H   0  0  0  0  0  0  0  0  0  0  0  0
  129.5302  136.8003  168.6435 H   0  0  0  0  0  0  0  0  0  0  0  0
  129.9736  136.8353  166.8518 H   0  0  0  0  0  0  0  0  0  0  0  0
  128.1087  135.1024  165.8636 H   0  0  0  0  0  0  0  0  0  0  0  0
  127.4245  134.6736  163.5389 H   0  0  0  0  0  0  0  0  0  0  0  0
  125.8297  134.8738  159.8119 H   0  0  0  0  0  0  0  0  0  0  0  0
  127.5073  134.2443  158.1255 H   0  0  0  0  0  0  0  0  0  0  0  0
  130.7903  135.5594  157.9199 H   0  0  0  0  0  0  0  0  0  0  0  0
  128.4187  131.2547  156.8012 H   0  0  0  0  0  0  0  0  0  0  0  0
  130.0134  130.7537  157.4468 H   0  0  0  0  0  0  0  0  0  0  0  0
  129.4557  132.1737  154.9530 H   0  0  0  0  0  0  0  0  0  0  0  0
  131.0515  131.6754  155.5975 H   0  0  0  0  0  0  0  0  0  0  0  0
  130.8198  134.2585  155.6822 H   0  0  0  0  0  0  0  0  0  0  0  0
  1 17  2  0
  1  2  1  0
  1 25  1  0
  2  3  2  0
  2 26  1  0
  3  4  1  0
  3 15  1  0
  4  5  1  0
  4 27  1  0
  5 14  1  0
  5  6  2  0
  6  7  1  0
  6 28  1  0
  7  8  2  0
  7 29  1  0
  8  9  1  0
  8 13  1  0
  9 10  1  1
  9 12  1  0
  9 11  1  0
 11 12  1  0
 11 30  1  0
 11 31  1  0
 13 14  2  0
 13 32  1  0
 14 33  1  0
 15 16  2  0
 15 34  1  0
 16 17  1  0
 16 35  1  0
 17 18  1  0
 18 19  1  0
 18 36  1  0
 19 24  2  0
 19 20  1  0
 20 21  1  0
 20 22  1  0
 22 23  1  0
 22 37  1  0
 22 38  1  0
 23 24  1  0
 23 39  1  0
 23 40  1  0
 24 41  1  0
M  CHG  1  24   1
M  END
>  <DOCK_score>  (1) 
-42.945797

>  <SMILES>  (1) 
c1cc(Nc2ccc([C@H]3CO3)cc2)ccc1NC1=[NH+]CCN1

$$$$
