Cc1nc(Sc2ccc(Sc3ccccc3)c(NC(=O)[C@H]([NH3+])Cc3ccccc3)c2)[nH]c1C
     RDKit          3D

 60 63  0  0  1  0  0  0  0  0999 V2000
  127.4194  139.1195  163.2425 C   0  0  0  0  0  0  0  0  0  0  0  0
  127.2017  137.6746  163.6113 C   0  0  0  0  0  0  0  0  0  0  0  0
  127.0026  136.6642  162.7487 N   0  0  0  0  0  0  0  0  0  0  0  0
  126.8510  135.5455  163.4184 C   0  0  0  0  0  0  0  0  0  0  0  0
  126.5646  133.9548  162.7165 S   0  0  0  0  0  0  0  0  0  0  0  0
  127.4085  134.1415  161.1810 C   0  0  0  0  0  0  0  0  0  0  0  0
  126.9744  133.4432  160.0610 C   0  0  0  0  0  0  0  0  0  0  0  0
  127.6308  133.5909  158.8545 C   0  0  0  0  0  0  0  0  0  0  0  0
  128.7324  134.4295  158.7605 C   0  0  0  0  0  0  0  0  0  0  0  0
  129.5726  134.6124  157.2225 S   0  0  0  0  0  0  0  0  0  0  0  0
  130.1048  132.9714  156.8641 C   0  0  0  0  0  0  0  0  0  0  0  0
  130.9544  132.3072  157.7410 C   0  0  0  0  0  0  0  0  0  0  0  0
  131.3646  131.0193  157.4594 C   0  0  0  0  0  0  0  0  0  0  0  0
  130.9401  130.3939  156.3012 C   0  0  0  0  0  0  0  0  0  0  0  0
  130.0996  131.0540  155.4232 C   0  0  0  0  0  0  0  0  0  0  0  0
  129.6804  132.3399  155.7008 C   0  0  0  0  0  0  0  0  0  0  0  0
  129.1739  135.1279  159.8846 C   0  0  0  0  0  0  0  0  0  0  0  0
  130.2856  135.9754  159.7923 N   0  0  0  0  0  0  0  0  0  0  0  0
  131.0767  136.1687  160.8663 C   0  0  0  0  0  0  0  0  0  0  0  0
  130.8260  135.6087  161.9127 O   0  0  0  0  0  0  0  0  0  0  0  0
  132.2723  137.0805  160.7672 C   0  0  2  0  0  0  0  0  0  0  0  0
  132.9530  136.7054  160.0029 H   0  0  0  0  0  0  0  0  0  0  0  0
  132.9650  137.1223  162.0618 N   0  0  0  0  0  0  0  0  0  0  0  0
  132.3349  137.4697  162.7693 H   0  0  0  0  0  0  0  0  0  0  0  0
  133.2702  136.1932  162.3102 H   0  0  0  0  0  0  0  0  0  0  0  0
  133.7656  137.7329  161.9955 H   0  0  0  0  0  0  0  0  0  0  0  0
  131.8094  138.4894  160.3906 C   0  0  0  0  0  0  0  0  0  0  0  0
  133.0051  139.4013  160.2915 C   0  0  0  0  0  0  0  0  0  0  0  0
  133.4381  140.0970  161.4047 C   0  0  0  0  0  0  0  0  0  0  0  0
  134.5378  140.9297  161.3150 C   0  0  0  0  0  0  0  0  0  0  0  0
  135.1983  141.0747  160.1093 C   0  0  0  0  0  0  0  0  0  0  0  0
  134.7623  140.3829  158.9948 C   0  0  0  0  0  0  0  0  0  0  0  0
  133.6658  139.5463  159.0858 C   0  0  0  0  0  0  0  0  0  0  0  0
  128.5104  134.9820  161.0926 C   0  0  0  0  0  0  0  0  0  0  0  0
  126.9467  135.8240  164.7474 N   0  0  0  0  0  0  0  0  0  0  0  0
  126.8706  135.1892  165.4768 H   0  0  0  0  0  0  0  0  0  0  0  0
  127.1748  137.1767  164.8596 C   0  0  0  0  0  0  0  0  0  0  0  0
  127.3548  137.9528  166.1387 C   0  0  0  0  0  0  0  0  0  0  0  0
  126.4582  139.6313  163.1966 H   0  0  0  0  0  0  0  0  0  0  0  0
  128.0490  139.5954  163.9941 H   0  0  0  0  0  0  0  0  0  0  0  0
  127.9082  139.1765  162.2699 H   0  0  0  0  0  0  0  0  0  0  0  0
  126.1200  132.7866  160.1329 H   0  0  0  0  0  0  0  0  0  0  0  0
  127.2886  133.0500  157.9845 H   0  0  0  0  0  0  0  0  0  0  0  0
  131.2899  132.7967  158.6433 H   0  0  0  0  0  0  0  0  0  0  0  0
  132.0212  130.5010  158.1427 H   0  0  0  0  0  0  0  0  0  0  0  0
  131.2659  129.3880  156.0816 H   0  0  0  0  0  0  0  0  0  0  0  0
  129.7703  130.5627  154.5195 H   0  0  0  0  0  0  0  0  0  0  0  0
  129.0242  132.8547  155.0147 H   0  0  0  0  0  0  0  0  0  0  0  0
  130.4859  136.4232  158.9556 H   0  0  0  0  0  0  0  0  0  0  0  0
  131.2955  138.4584  159.4300 H   0  0  0  0  0  0  0  0  0  0  0  0
  131.1289  138.8646  161.1548 H   0  0  0  0  0  0  0  0  0  0  0  0
  132.9193  139.9872  162.3457 H   0  0  0  0  0  0  0  0  0  0  0  0
  134.8782  141.4704  162.1857 H   0  0  0  0  0  0  0  0  0  0  0  0
  136.0549  141.7287  160.0381 H   0  0  0  0  0  0  0  0  0  0  0  0
  135.2782  140.4966  158.0527 H   0  0  0  0  0  0  0  0  0  0  0  0
  133.3249  139.0061  158.2149 H   0  0  0  0  0  0  0  0  0  0  0  0
  128.8498  135.5218  161.9644 H   0  0  0  0  0  0  0  0  0  0  0  0
  126.3846  138.3036  166.4904 H   0  0  0  0  0  0  0  0  0  0  0  0
  127.8040  137.3084  166.8945 H   0  0  0  0  0  0  0  0  0  0  0  0
  128.0060  138.8077  165.9564 H   0  0  0  0  0  0  0  0  0  0  0  0
  1  2  1  0
  1 39  1  0
  1 40  1  0
  1 41  1  0
  2 37  2  0
  2  3  1  0
  3  4  2  0
  4  5  1  0
  4 35  1  0
  5  6  1  0
  6 34  1  0
  6  7  2  0
  7  8  1  0
  7 42  1  0
  8  9  2  0
  8 43  1  0
  9 10  1  0
  9 17  1  0
 10 11  1  0
 11 16  1  0
 11 12  2  0
 12 13  1  0
 12 44  1  0
 13 14  2  0
 13 45  1  0
 14 15  1  0
 14 46  1  0
 15 16  2  0
 15 47  1  0
 16 48  1  0
 17 18  1  0
 17 34  2  0
 18 19  1  0
 18 49  1  0
 19 20  2  0
 19 21  1  0
 21 22  1  6
 21 23  1  0
 21 27  1  0
 23 24  1  0
 23 25  1  0
 23 26  1  0
 27 28  1  0
 27 50  1  0
 27 51  1  0
 28 33  1  0
 28 29  2  0
 29 30  1  0
 29 52  1  0
 30 31  2  0
 30 53  1  0
 31 32  1  0
 31 54  1  0
 32 33  2  0
 32 55  1  0
 33 56  1  0
 34 57  1  0
 35 36  1  0
 35 37  1  0
 37 38  1  0
 38 58  1  0
 38 59  1  0
 38 60  1  0
M  CHG  1  23   1
M  END
>  <DOCK_score>  (1) 
-46.564491

>  <SMILES>  (1) 
Cc1nc(Sc2ccc(Sc3ccccc3)c(NC(=O)[C@H]([NH3+])Cc3ccccc3)c2)[nH]c1C

$$$$
