CCc1ccc(-c2c[nH]c(N[C@@H](c3ccccc3)c3cccc(C)c3CBr)[nH+]2)cc1
     RDKit          3D

 57 60  0  0  1  0  0  0  0  0999 V2000
  130.2951  128.1872  151.7490 C   0  0  0  0  0  0  0  0  0  0  0  0
  131.2751  129.3557  151.8761 C   0  0  0  0  0  0  0  0  0  0  0  0
  131.0091  130.0967  153.1612 C   0  0  0  0  0  0  0  0  0  0  0  0
  131.6648  129.7216  154.3203 C   0  0  0  0  0  0  0  0  0  0  0  0
  131.4254  130.3958  155.5005 C   0  0  0  0  0  0  0  0  0  0  0  0
  130.5212  131.4563  155.5230 C   0  0  0  0  0  0  0  0  0  0  0  0
  130.2597  132.1848  156.7884 C   0  0  0  0  0  0  0  0  0  0  0  0
  129.7658  131.6475  157.9312 C   0  0  0  0  0  0  0  0  0  0  0  0
  129.6825  132.6673  158.8477 N   0  0  0  0  0  0  0  0  0  0  0  0
  129.3649  132.5941  159.7614 H   0  0  0  0  0  0  0  0  0  0  0  0
  130.1284  133.7991  158.2376 C   0  0  0  0  0  0  0  0  0  0  0  0
  130.2052  135.0525  158.8203 N   0  0  0  0  0  0  0  0  0  0  0  0
  129.7848  135.2408  160.2110 C   0  0  1  0  0  0  0  0  0  0  0  0
  130.1141  134.3906  160.8084 H   0  0  0  0  0  0  0  0  0  0  0  0
  130.3993  136.5049  160.7547 C   0  0  0  0  0  0  0  0  0  0  0  0
  131.6308  136.4609  161.3813 C   0  0  0  0  0  0  0  0  0  0  0  0
  132.1961  137.6210  161.8765 C   0  0  0  0  0  0  0  0  0  0  0  0
  131.5261  138.8238  161.7529 C   0  0  0  0  0  0  0  0  0  0  0  0
  130.2924  138.8671  161.1306 C   0  0  0  0  0  0  0  0  0  0  0  0
  129.7289  137.7075  160.6319 C   0  0  0  0  0  0  0  0  0  0  0  0
  128.2827  135.3460  160.2719 C   0  0  0  0  0  0  0  0  0  0  0  0
  127.5825  135.8720  159.2021 C   0  0  0  0  0  0  0  0  0  0  0  0
  126.2053  135.9734  159.2600 C   0  0  0  0  0  0  0  0  0  0  0  0
  125.5271  135.5394  160.3839 C   0  0  0  0  0  0  0  0  0  0  0  0
  126.2269  135.0126  161.4531 C   0  0  0  0  0  0  0  0  0  0  0  0
  125.4877  134.5430  162.6796 C   0  0  0  0  0  0  0  0  0  0  0  0
  127.6050  134.9161  161.3972 C   0  0  0  0  0  0  0  0  0  0  0  0
  128.3680  134.3418  162.5628 C   0  0  0  0  0  0  0  0  0  0  0  0
  128.5507  132.3979  162.3328 Br  0  0  0  0  0  0  0  0  0  0  0  0
  130.4678  133.5079  157.0056 N   0  0  0  0  0  0  0  0  0  0  0  0
  130.8142  134.1372  156.3539 H   0  0  0  0  0  0  0  0  0  0  0  0
  129.8593  131.8259  154.3534 C   0  0  0  0  0  0  0  0  0  0  0  0
  130.1109  131.1483  153.1777 C   0  0  0  0  0  0  0  0  0  0  0  0
  129.2737  128.5678  151.7448 H   0  0  0  0  0  0  0  0  0  0  0  0
  130.4870  127.6517  150.8192 H   0  0  0  0  0  0  0  0  0  0  0  0
  130.4268  127.5095  152.5925 H   0  0  0  0  0  0  0  0  0  0  0  0
  131.1427  130.0334  151.0324 H   0  0  0  0  0  0  0  0  0  0  0  0
  132.2957  128.9751  151.8801 H   0  0  0  0  0  0  0  0  0  0  0  0
  132.3653  128.8998  154.3017 H   0  0  0  0  0  0  0  0  0  0  0  0
  131.9379  130.1026  156.4046 H   0  0  0  0  0  0  0  0  0  0  0  0
  129.4900  130.6155  158.0902 H   0  0  0  0  0  0  0  0  0  0  0  0
  130.5372  135.8062  158.3077 H   0  0  0  0  0  0  0  0  0  0  0  0
  132.1524  135.5205  161.4812 H   0  0  0  0  0  0  0  0  0  0  0  0
  133.1597  137.5871  162.3630 H   0  0  0  0  0  0  0  0  0  0  0  0
  131.9662  139.7297  162.1429 H   0  0  0  0  0  0  0  0  0  0  0  0
  129.7689  139.8067  161.0344 H   0  0  0  0  0  0  0  0  0  0  0  0
  128.7649  137.7413  160.1461 H   0  0  0  0  0  0  0  0  0  0  0  0
  128.1122  136.2079  158.3228 H   0  0  0  0  0  0  0  0  0  0  0  0
  125.6588  136.3885  158.4262 H   0  0  0  0  0  0  0  0  0  0  0  0
  124.4506  135.6144  160.4275 H   0  0  0  0  0  0  0  0  0  0  0  0
  125.3919  135.3689  163.3844 H   0  0  0  0  0  0  0  0  0  0  0  0
  124.4960  134.1922  162.3941 H   0  0  0  0  0  0  0  0  0  0  0  0
  126.0407  133.7285  163.1473 H   0  0  0  0  0  0  0  0  0  0  0  0
  129.3574  134.7967  162.6091 H   0  0  0  0  0  0  0  0  0  0  0  0
  127.8292  134.5493  163.4875 H   0  0  0  0  0  0  0  0  0  0  0  0
  129.1541  132.6437  154.3662 H   0  0  0  0  0  0  0  0  0  0  0  0
  129.6020  131.4366  152.2698 H   0  0  0  0  0  0  0  0  0  0  0  0
  1  2  1  0
  1 34  1  0
  1 35  1  0
  1 36  1  0
  2  3  1  0
  2 37  1  0
  2 38  1  0
  3 33  2  0
  3  4  1  0
  4  5  2  0
  4 39  1  0
  5  6  1  0
  5 40  1  0
  6  7  1  0
  6 32  2  0
  7 30  1  0
  7  8  2  0
  8  9  1  0
  8 41  1  0
  9 10  1  0
  9 11  1  0
 11 12  1  0
 11 30  2  0
 12 13  1  0
 12 42  1  0
 13 14  1  1
 13 15  1  0
 13 21  1  0
 15 20  1  0
 15 16  2  0
 16 17  1  0
 16 43  1  0
 17 18  2  0
 17 44  1  0
 18 19  1  0
 18 45  1  0
 19 20  2  0
 19 46  1  0
 20 47  1  0
 21 27  1  0
 21 22  2  0
 22 23  1  0
 22 48  1  0
 23 24  2  0
 23 49  1  0
 24 25  1  0
 24 50  1  0
 25 26  1  0
 25 27  2  0
 26 51  1  0
 26 52  1  0
 26 53  1  0
 27 28  1  0
 28 29  1  0
 28 54  1  0
 28 55  1  0
 30 31  1  0
 32 33  1  0
 32 56  1  0
 33 57  1  0
M  CHG  1  30   1
M  END
>  <DOCK_score>  (1) 
-59.723976

>  <SMILES>  (1) 
CCc1ccc(-c2c[nH]c(N[C@@H](c3ccccc3)c3cccc(C)c3CBr)[nH+]2)cc1

$$$$
