Fc1ccc(C[C@@H](Nc2[nH]cc(-c3ccc(C4=CCCCC4)cc3)[nH+]2)C(F)F)cc1
     RDKit          3D

 55 58  0  0  1  0  0  0  0  0999 V2000
  126.0428  133.2315  159.8195 F   0  0  0  0  0  0  0  0  0  0  0  0
  127.0279  134.0572  160.2356 C   0  0  0  0  0  0  0  0  0  0  0  0
  127.5727  134.9817  159.3608 C   0  0  0  0  0  0  0  0  0  0  0  0
  128.5806  135.8255  159.7873 C   0  0  0  0  0  0  0  0  0  0  0  0
  129.0453  135.7462  161.0870 C   0  0  0  0  0  0  0  0  0  0  0  0
  130.1448  136.6666  161.5508 C   0  0  0  0  0  0  0  0  0  0  0  0
  131.5026  136.0111  161.2900 C   0  0  1  0  0  0  0  0  0  0  0  0
  131.5622  135.0697  161.8361 H   0  0  0  0  0  0  0  0  0  0  0  0
  131.6532  135.7541  159.8557 N   0  0  0  0  0  0  0  0  0  0  0  0
  131.2291  134.5501  159.3200 C   0  0  0  0  0  0  0  0  0  0  0  0
  130.6592  133.5294  160.0170 N   0  0  0  0  0  0  0  0  0  0  0  0
  130.4790  133.5148  160.9700 H   0  0  0  0  0  0  0  0  0  0  0  0
  130.3867  132.5238  159.1222 C   0  0  0  0  0  0  0  0  0  0  0  0
  130.7923  132.9607  157.9034 C   0  0  0  0  0  0  0  0  0  0  0  0
  130.6909  132.2102  156.6293 C   0  0  0  0  0  0  0  0  0  0  0  0
  129.9449  132.7303  155.5711 C   0  0  0  0  0  0  0  0  0  0  0  0
  129.8541  132.0360  154.3856 C   0  0  0  0  0  0  0  0  0  0  0  0
  130.5004  130.8057  154.2462 C   0  0  0  0  0  0  0  0  0  0  0  0
  130.3992  130.0579  152.9765 C   0  0  0  0  0  0  0  0  0  0  0  0
  130.4548  128.7481  153.0251 C   0  0  0  0  0  0  0  0  0  0  0  0
  130.3742  127.8625  151.8160 C   0  0  0  0  0  0  0  0  0  0  0  0
  129.8052  128.6424  150.6289 C   0  0  0  0  0  0  0  0  0  0  0  0
  130.5758  129.9621  150.4995 C   0  0  0  0  0  0  0  0  0  0  0  0
  130.2330  130.8408  151.7067 C   0  0  0  0  0  0  0  0  0  0  0  0
  131.2426  130.2833  155.3077 C   0  0  0  0  0  0  0  0  0  0  0  0
  131.3368  130.9812  156.4906 C   0  0  0  0  0  0  0  0  0  0  0  0
  131.3103  134.2054  158.0581 N   0  0  0  0  0  0  0  0  0  0  0  0
  131.6780  134.7541  157.3476 H   0  0  0  0  0  0  0  0  0  0  0  0
  132.6188  136.9456  161.7608 C   0  0  0  0  0  0  0  0  0  0  0  0
  133.8602  136.3462  161.5224 F   0  0  0  0  0  0  0  0  0  0  0  0
  132.5420  138.1539  161.0598 F   0  0  0  0  0  0  0  0  0  0  0  0
  128.5061  134.8197  161.9596 C   0  0  0  0  0  0  0  0  0  0  0  0
  127.4938  133.9790  161.5371 C   0  0  0  0  0  0  0  0  0  0  0  0
  127.2103  135.0432  158.3452 H   0  0  0  0  0  0  0  0  0  0  0  0
  129.0057  136.5467  159.1051 H   0  0  0  0  0  0  0  0  0  0  0  0
  130.0327  136.8578  162.6180 H   0  0  0  0  0  0  0  0  0  0  0  0
  130.0852  137.6080  161.0045 H   0  0  0  0  0  0  0  0  0  0  0  0
  132.0503  136.4274  159.2813 H   0  0  0  0  0  0  0  0  0  0  0  0
  129.9318  131.5700  159.3452 H   0  0  0  0  0  0  0  0  0  0  0  0
  129.4414  133.6795  155.6808 H   0  0  0  0  0  0  0  0  0  0  0  0
  129.2802  132.4408  153.5652 H   0  0  0  0  0  0  0  0  0  0  0  0
  130.5647  128.2796  153.9921 H   0  0  0  0  0  0  0  0  0  0  0  0
  131.3715  127.5006  151.5660 H   0  0  0  0  0  0  0  0  0  0  0  0
  129.7274  127.0124  152.0333 H   0  0  0  0  0  0  0  0  0  0  0  0
  129.9236  128.0582  149.7164 H   0  0  0  0  0  0  0  0  0  0  0  0
  128.7480  128.8474  150.7981 H   0  0  0  0  0  0  0  0  0  0  0  0
  131.6468  129.7605  150.4805 H   0  0  0  0  0  0  0  0  0  0  0  0
  130.2823  130.4691  149.5803 H   0  0  0  0  0  0  0  0  0  0  0  0
  129.2017  131.1845  151.6266 H   0  0  0  0  0  0  0  0  0  0  0  0
  130.8990  131.7034  151.7242 H   0  0  0  0  0  0  0  0  0  0  0  0
  131.7423  129.3319  155.2005 H   0  0  0  0  0  0  0  0  0  0  0  0
  131.9109  130.5775  157.3113 H   0  0  0  0  0  0  0  0  0  0  0  0
  132.5066  137.1368  162.8280 H   0  0  0  0  0  0  0  0  0  0  0  0
  128.8732  134.7556  162.9734 H   0  0  0  0  0  0  0  0  0  0  0  0
  127.0699  133.2580  162.2204 H   0  0  0  0  0  0  0  0  0  0  0  0
  1  2  1  0
  2 33  2  0
  2  3  1  0
  3  4  2  0
  3 34  1  0
  4  5  1  0
  4 35  1  0
  5  6  1  0
  5 32  2  0
  6  7  1  0
  6 36  1  0
  6 37  1  0
  7  8  1  1
  7  9  1  0
  7 29  1  0
  9 38  1  0
 10  9  1  0
 10 27  2  0
 10 11  1  0
 11 12  1  0
 11 13  1  0
 13 14  2  0
 13 39  1  0
 14 15  1  0
 14 27  1  0
 15 26  1  0
 15 16  2  0
 16 17  1  0
 16 40  1  0
 17 18  2  0
 17 41  1  0
 18 19  1  0
 18 25  1  0
 19 24  1  0
 19 20  2  0
 20 21  1  0
 20 42  1  0
 21 22  1  0
 21 43  1  0
 21 44  1  0
 22 23  1  0
 22 45  1  0
 22 46  1  0
 23 24  1  0
 23 47  1  0
 23 48  1  0
 24 49  1  0
 24 50  1  0
 25 26  2  0
 25 51  1  0
 26 52  1  0
 27 28  1  0
 29 30  1  0
 29 31  1  0
 29 53  1  0
 32 33  1  0
 32 54  1  0
 33 55  1  0
M  CHG  1  27   1
M  END
>  <DOCK_score>  (1) 
-55.998367

>  <SMILES>  (1) 
Fc1ccc(C[C@@H](Nc2[nH]cc(-c3ccc(C4=CCCCC4)cc3)[nH+]2)C(F)F)cc1

$$$$
