Cc1cccc([C@H](C=C2CCCC2)Nc2[nH]cc(-c3ccc(N)cc3)[nH+]2)c1CBr
     RDKit          3D

 57 60  0  0  1  0  0  0  0  0999 V2000
  125.4751  134.4772  161.8928 C   0  0  0  0  0  0  0  0  0  0  0  0
  126.2956  134.8987  160.7010 C   0  0  0  0  0  0  0  0  0  0  0  0
  125.6675  135.2922  159.5337 C   0  0  0  0  0  0  0  0  0  0  0  0
  126.4200  135.6790  158.4408 C   0  0  0  0  0  0  0  0  0  0  0  0
  127.8006  135.6723  158.5147 C   0  0  0  0  0  0  0  0  0  0  0  0
  128.4283  135.2832  159.6829 C   0  0  0  0  0  0  0  0  0  0  0  0
  129.9330  135.2813  159.7654 C   0  0  2  0  0  0  0  0  0  0  0  0
  130.2579  134.5062  160.4594 H   0  0  0  0  0  0  0  0  0  0  0  0
  130.4111  136.6247  160.2529 C   0  0  0  0  0  0  0  0  0  0  0  0
  131.5197  136.7137  160.9452 C   0  0  0  0  0  0  0  0  0  0  0  0
  132.4874  135.5863  161.2386 C   0  0  0  0  0  0  0  0  0  0  0  0
  133.6272  136.1851  162.0887 C   0  0  0  0  0  0  0  0  0  0  0  0
  132.9799  137.4327  162.7419 C   0  0  0  0  0  0  0  0  0  0  0  0
  132.0687  137.9646  161.6078 C   0  0  0  0  0  0  0  0  0  0  0  0
  130.4944  135.0153  158.4386 N   0  0  0  0  0  0  0  0  0  0  0  0
  130.1937  133.8330  157.7841 C   0  0  0  0  0  0  0  0  0  0  0  0
  129.3888  132.8452  158.2617 N   0  0  0  0  0  0  0  0  0  0  0  0
  128.9269  132.8425  159.1146 H   0  0  0  0  0  0  0  0  0  0  0  0
  129.3517  131.8518  157.3121 C   0  0  0  0  0  0  0  0  0  0  0  0
  130.1342  132.2616  156.2835 C   0  0  0  0  0  0  0  0  0  0  0  0
  130.3939  131.5103  155.0309 C   0  0  0  0  0  0  0  0  0  0  0  0
  130.0383  132.0605  153.8004 C   0  0  0  0  0  0  0  0  0  0  0  0
  130.2859  131.3628  152.6370 C   0  0  0  0  0  0  0  0  0  0  0  0
  130.8787  130.1070  152.6914 C   0  0  0  0  0  0  0  0  0  0  0  0
  131.1234  129.3991  151.5122 N   0  0  0  0  0  0  0  0  0  0  0  0
  131.2291  129.5540  153.9174 C   0  0  0  0  0  0  0  0  0  0  0  0
  130.9887  130.2506  155.0830 C   0  0  0  0  0  0  0  0  0  0  0  0
  130.6330  133.4829  156.5997 N   0  0  0  0  0  0  0  0  0  0  0  0
  131.2224  134.0119  156.0396 H   0  0  0  0  0  0  0  0  0  0  0  0
  127.6757  134.8916  160.7746 C   0  0  0  0  0  0  0  0  0  0  0  0
  128.3602  134.4627  162.0469 C   0  0  0  0  0  0  0  0  0  0  0  0
  128.6808  132.5236  161.9970 Br  0  0  0  0  0  0  0  0  0  0  0  0
  125.2645  135.3472  162.5149 H   0  0  0  0  0  0  0  0  0  0  0  0
  124.5373  134.0390  161.5516 H   0  0  0  0  0  0  0  0  0  0  0  0
  126.0302  133.7408  162.4738 H   0  0  0  0  0  0  0  0  0  0  0  0
  124.5892  135.2973  159.4761 H   0  0  0  0  0  0  0  0  0  0  0  0
  125.9295  135.9864  157.5291 H   0  0  0  0  0  0  0  0  0  0  0  0
  128.3885  135.9744  157.6604 H   0  0  0  0  0  0  0  0  0  0  0  0
  129.8398  137.5141  160.0316 H   0  0  0  0  0  0  0  0  0  0  0  0
  131.9818  134.7961  161.7933 H   0  0  0  0  0  0  0  0  0  0  0  0
  132.8899  135.1889  160.3067 H   0  0  0  0  0  0  0  0  0  0  0  0
  134.4682  136.4753  161.4591 H   0  0  0  0  0  0  0  0  0  0  0  0
  133.9458  135.4752  162.8519 H   0  0  0  0  0  0  0  0  0  0  0  0
  133.7385  138.1690  163.0070 H   0  0  0  0  0  0  0  0  0  0  0  0
  132.3894  137.1515  163.6138 H   0  0  0  0  0  0  0  0  0  0  0  0
  132.6503  138.5492  160.8948 H   0  0  0  0  0  0  0  0  0  0  0  0
  131.2573  138.5652  162.0190 H   0  0  0  0  0  0  0  0  0  0  0  0
  131.0767  135.6676  158.0186 H   0  0  0  0  0  0  0  0  0  0  0  0
  128.8041  130.9229  157.3736 H   0  0  0  0  0  0  0  0  0  0  0  0
  129.5731  133.0342  153.7580 H   0  0  0  0  0  0  0  0  0  0  0  0
  130.0143  131.7904  151.6832 H   0  0  0  0  0  0  0  0  0  0  0  0
  131.5381  128.5234  151.5489 H   0  0  0  0  0  0  0  0  0  0  0  0
  130.8799  129.7850  150.6557 H   0  0  0  0  0  0  0  0  0  0  0  0
  131.6894  128.5779  153.9575 H   0  0  0  0  0  0  0  0  0  0  0  0
  131.2611  129.8207  156.0355 H   0  0  0  0  0  0  0  0  0  0  0  0
  127.7259  134.7042  162.8999 H   0  0  0  0  0  0  0  0  0  0  0  0
  129.3115  134.9860  162.1418 H   0  0  0  0  0  0  0  0  0  0  0  0
  1  2  1  0
  1 33  1  0
  1 34  1  0
  1 35  1  0
  2 30  2  0
  2  3  1  0
  3  4  2  0
  3 36  1  0
  4  5  1  0
  4 37  1  0
  5  6  2  0
  5 38  1  0
  6  7  1  0
  6 30  1  0
  7  8  1  1
  7  9  1  0
  7 15  1  0
  9 10  2  0
  9 39  1  0
 10 14  1  0
 10 11  1  0
 11 12  1  0
 11 40  1  0
 11 41  1  0
 12 13  1  0
 12 42  1  0
 12 43  1  0
 13 14  1  0
 13 44  1  0
 13 45  1  0
 14 46  1  0
 14 47  1  0
 15 48  1  0
 16 15  1  0
 16 28  2  0
 16 17  1  0
 17 18  1  0
 17 19  1  0
 19 20  2  0
 19 49  1  0
 20 21  1  0
 20 28  1  0
 21 27  1  0
 21 22  2  0
 22 23  1  0
 22 50  1  0
 23 24  2  0
 23 51  1  0
 24 25  1  0
 24 26  1  0
 25 52  1  0
 25 53  1  0
 26 27  2  0
 26 54  1  0
 27 55  1  0
 28 29  1  0
 30 31  1  0
 31 32  1  0
 31 56  1  0
 31 57  1  0
M  CHG  1  28   1
M  END
>  <DOCK_score>  (1) 
-61.028725

>  <SMILES>  (1) 
Cc1cccc([C@H](C=C2CCCC2)Nc2[nH]cc(-c3ccc(N)cc3)[nH+]2)c1CBr

$$$$
