C=C(CBr)[C@@](O)(c1ccc2c(c1)CCC2)C(C)Nc1[nH]cc(-c2ccc(N)cc2)[nH+]1
     RDKit          3D

 58 61  0  0  1  0  0  0  0  0999 V2000
  128.5305  136.6218  158.6601 C   0  0  0  0  0  0  0  0  0  0  0  0
  128.5860  136.2312  159.9092 C   0  0  0  0  0  0  0  0  0  0  0  0
  127.3846  135.5869  160.5514 C   0  0  0  0  0  0  0  0  0  0  0  0
  127.4626  133.6409  160.2831 Br  0  0  0  0  0  0  0  0  0  0  0  0
  129.8516  136.4260  160.7040 C   0  0  1  0  0  0  0  0  0  0  0  0
  130.5418  137.5819  160.2247 O   0  0  0  0  0  0  0  0  0  0  0  0
  129.5070  136.6141  162.1590 C   0  0  0  0  0  0  0  0  0  0  0  0
  129.4238  135.5180  162.9976 C   0  0  0  0  0  0  0  0  0  0  0  0
  129.1140  135.6933  164.3320 C   0  0  0  0  0  0  0  0  0  0  0  0
  128.8804  136.9635  164.8324 C   0  0  0  0  0  0  0  0  0  0  0  0
  128.9579  138.0586  163.9926 C   0  0  0  0  0  0  0  0  0  0  0  0
  129.2684  137.8808  162.6547 C   0  0  0  0  0  0  0  0  0  0  0  0
  128.6638  139.3226  164.7717 C   0  0  0  0  0  0  0  0  0  0  0  0
  128.8293  138.9303  166.2554 C   0  0  0  0  0  0  0  0  0  0  0  0
  128.5289  137.4165  166.2331 C   0  0  0  0  0  0  0  0  0  0  0  0
  130.7470  135.1955  160.5469 C   0  0  2  0  0  0  0  0  0  0  0  0
  132.0319  135.3933  161.3538 C   0  0  0  0  0  0  0  0  0  0  0  0
  131.0820  135.0126  159.1325 N   0  0  0  0  0  0  0  0  0  0  0  0
  130.7229  133.8448  158.4813 C   0  0  0  0  0  0  0  0  0  0  0  0
  130.0650  132.7945  159.0429 N   0  0  0  0  0  0  0  0  0  0  0  0
  129.7657  132.7297  159.9633 H   0  0  0  0  0  0  0  0  0  0  0  0
  129.8997  131.8437  158.0638 C   0  0  0  0  0  0  0  0  0  0  0  0
  130.4692  132.3370  156.9365 C   0  0  0  0  0  0  0  0  0  0  0  0
  130.5369  131.6535  155.6216 C   0  0  0  0  0  0  0  0  0  0  0  0
  129.9453  132.2351  154.5013 C   0  0  0  0  0  0  0  0  0  0  0  0
  130.0145  131.6006  153.2789 C   0  0  0  0  0  0  0  0  0  0  0  0
  130.6630  130.3769  153.1656 C   0  0  0  0  0  0  0  0  0  0  0  0
  130.7263  129.7333  151.9273 N   0  0  0  0  0  0  0  0  0  0  0  0
  131.2491  129.7924  154.2823 C   0  0  0  0  0  0  0  0  0  0  0  0
  131.1873  130.4259  155.5056 C   0  0  0  0  0  0  0  0  0  0  0  0
  130.9659  133.5662  157.2237 N   0  0  0  0  0  0  0  0  0  0  0  0
  131.4273  134.1465  156.5983 H   0  0  0  0  0  0  0  0  0  0  0  0
  127.6235  136.4822  158.0904 H   0  0  0  0  0  0  0  0  0  0  0  0
  129.3915  137.0835  158.1998 H   0  0  0  0  0  0  0  0  0  0  0  0
  127.3817  135.8066  161.6191 H   0  0  0  0  0  0  0  0  0  0  0  0
  126.4753  135.9802  160.0971 H   0  0  0  0  0  0  0  0  0  0  0  0
  130.7951  137.5303  159.2928 H   0  0  0  0  0  0  0  0  0  0  0  0
  129.6053  134.5263  162.6106 H   0  0  0  0  0  0  0  0  0  0  0  0
  129.0532  134.8370  164.9873 H   0  0  0  0  0  0  0  0  0  0  0  0
  129.3289  138.7361  161.9980 H   0  0  0  0  0  0  0  0  0  0  0  0
  129.3746  140.1048  164.5058 H   0  0  0  0  0  0  0  0  0  0  0  0
  127.6439  139.6562  164.5803 H   0  0  0  0  0  0  0  0  0  0  0  0
  129.8479  139.1184  166.5946 H   0  0  0  0  0  0  0  0  0  0  0  0
  128.1107  139.4619  166.8792 H   0  0  0  0  0  0  0  0  0  0  0  0
  127.4729  137.2375  166.4349 H   0  0  0  0  0  0  0  0  0  0  0  0
  129.1479  136.8975  166.9651 H   0  0  0  0  0  0  0  0  0  0  0  0
  130.2206  134.3139  160.9125 H   0  0  0  0  0  0  0  0  0  0  0  0
  132.5583  136.2749  160.9883 H   0  0  0  0  0  0  0  0  0  0  0  0
  131.7827  135.5293  162.4061 H   0  0  0  0  0  0  0  0  0  0  0  0
  132.6698  134.5166  161.2419 H   0  0  0  0  0  0  0  0  0  0  0  0
  131.5554  135.7099  158.6521 H   0  0  0  0  0  0  0  0  0  0  0  0
  129.4139  130.8853  158.1730 H   0  0  0  0  0  0  0  0  0  0  0  0
  129.4368  133.1837  154.5898 H   0  0  0  0  0  0  0  0  0  0  0  0
  129.5602  132.0530  152.4098 H   0  0  0  0  0  0  0  0  0  0  0  0
  131.1791  128.8787  151.8478 H   0  0  0  0  0  0  0  0  0  0  0  0
  130.3176  130.1400  151.1478 H   0  0  0  0  0  0  0  0  0  0  0  0
  131.7527  128.8414  154.1921 H   0  0  0  0  0  0  0  0  0  0  0  0
  131.6427  129.9716  156.3731 H   0  0  0  0  0  0  0  0  0  0  0  0
  1  2  2  0
  1 33  1  0
  1 34  1  0
  2  3  1  0
  3  4  1  0
  3 35  1  0
  3 36  1  0
  5  2  1  0
  5  6  1  6
  5  7  1  0
  5 16  1  0
  6 37  1  0
  7 12  1  0
  7  8  2  0
  8  9  1  0
  8 38  1  0
  9 10  2  0
  9 39  1  0
 10 15  1  0
 10 11  1  0
 11 12  2  0
 11 13  1  0
 12 40  1  0
 13 14  1  0
 13 41  1  0
 13 42  1  0
 14 15  1  0
 14 43  1  0
 14 44  1  0
 15 45  1  0
 15 46  1  0
 16 17  1  0
 16 18  1  0
 16 47  1  1
 17 48  1  0
 17 49  1  0
 17 50  1  0
 18 51  1  0
 19 18  1  0
 19 31  2  0
 19 20  1  0
 20 21  1  0
 20 22  1  0
 22 23  2  0
 22 52  1  0
 23 24  1  0
 23 31  1  0
 24 30  1  0
 24 25  2  0
 25 26  1  0
 25 53  1  0
 26 27  2  0
 26 54  1  0
 27 28  1  0
 27 29  1  0
 28 55  1  0
 28 56  1  0
 29 30  2  0
 29 57  1  0
 30 58  1  0
 31 32  1  0
M  CHG  1  31   1
M  END
>  <DOCK_score>  (1) 
-61.005924

>  <SMILES>  (1) 
C=C(CBr)[C@@](O)(c1ccc2c(c1)CCC2)C(C)Nc1[nH]cc(-c2ccc(N)cc2)[nH+]1

$$$$
