CCc1ccc(-c2c[nH]c(N[C@H](c3ccccc3)c3ccc(Cl)cc3)[nH+]2)cc1
     RDKit          3D

 51 54  0  0  1  0  0  0  0  0999 V2000
  130.6848  129.5148  151.0889 C   0  0  0  0  0  0  0  0  0  0  0  0
  131.7478  129.3686  152.1788 C   0  0  0  0  0  0  0  0  0  0  0  0
  131.3227  130.1393  153.4020 C   0  0  0  0  0  0  0  0  0  0  0  0
  130.5406  131.2716  153.2654 C   0  0  0  0  0  0  0  0  0  0  0  0
  130.1436  131.9782  154.3825 C   0  0  0  0  0  0  0  0  0  0  0  0
  130.5417  131.5552  155.6493 C   0  0  0  0  0  0  0  0  0  0  0  0
  130.1228  132.3136  156.8533 C   0  0  0  0  0  0  0  0  0  0  0  0
  129.3927  131.8286  157.8880 C   0  0  0  0  0  0  0  0  0  0  0  0
  129.2341  132.8596  158.7818 N   0  0  0  0  0  0  0  0  0  0  0  0
  128.7552  132.8209  159.6245 H   0  0  0  0  0  0  0  0  0  0  0  0
  129.8726  133.9455  158.2668 C   0  0  0  0  0  0  0  0  0  0  0  0
  129.9496  135.1930  158.8618 N   0  0  0  0  0  0  0  0  0  0  0  0
  128.8662  135.6581  159.7313 C   0  0  2  0  0  0  0  0  0  0  0  0
  128.7546  134.9722  160.5711 H   0  0  0  0  0  0  0  0  0  0  0  0
  127.5795  135.7070  158.9483 C   0  0  0  0  0  0  0  0  0  0  0  0
  126.3725  135.4953  159.5881 C   0  0  0  0  0  0  0  0  0  0  0  0
  125.1920  135.5447  158.8706 C   0  0  0  0  0  0  0  0  0  0  0  0
  125.2191  135.7966  157.5116 C   0  0  0  0  0  0  0  0  0  0  0  0
  126.4265  136.0031  156.8709 C   0  0  0  0  0  0  0  0  0  0  0  0
  127.6068  135.9580  157.5893 C   0  0  0  0  0  0  0  0  0  0  0  0
  129.1927  137.0357  160.2478 C   0  0  0  0  0  0  0  0  0  0  0  0
  128.7203  137.4408  161.4821 C   0  0  0  0  0  0  0  0  0  0  0  0
  129.0240  138.7021  161.9587 C   0  0  0  0  0  0  0  0  0  0  0  0
  129.7915  139.5634  161.1950 C   0  0  0  0  0  0  0  0  0  0  0  0
  130.1671  141.1508  161.7895 Cl  0  0  0  0  0  0  0  0  0  0  0  0
  130.2592  139.1595  159.9572 C   0  0  0  0  0  0  0  0  0  0  0  0
  129.9596  137.8959  159.4842 C   0  0  0  0  0  0  0  0  0  0  0  0
  130.4074  133.6137  157.1170 N   0  0  0  0  0  0  0  0  0  0  0  0
  130.9222  134.2040  156.5449 H   0  0  0  0  0  0  0  0  0  0  0  0
  131.3346  130.4164  155.7809 C   0  0  0  0  0  0  0  0  0  0  0  0
  131.7210  129.7144  154.6573 C   0  0  0  0  0  0  0  0  0  0  0  0
  129.7348  129.1236  151.4528 H   0  0  0  0  0  0  0  0  0  0  0  0
  130.5700  130.5680  150.8328 H   0  0  0  0  0  0  0  0  0  0  0  0
  130.9924  128.9572  150.2042 H   0  0  0  0  0  0  0  0  0  0  0  0
  131.8629  128.3147  152.4354 H   0  0  0  0  0  0  0  0  0  0  0  0
  132.6982  129.7592  151.8154 H   0  0  0  0  0  0  0  0  0  0  0  0
  130.2368  131.6012  152.2830 H   0  0  0  0  0  0  0  0  0  0  0  0
  129.5290  132.8598  154.2748 H   0  0  0  0  0  0  0  0  0  0  0  0
  129.0090  130.8242  157.9897 H   0  0  0  0  0  0  0  0  0  0  0  0
  130.7211  135.7592  158.7031 H   0  0  0  0  0  0  0  0  0  0  0  0
  126.3516  135.2949  160.6491 H   0  0  0  0  0  0  0  0  0  0  0  0
  124.2486  135.3837  159.3713 H   0  0  0  0  0  0  0  0  0  0  0  0
  124.2969  135.8324  156.9507 H   0  0  0  0  0  0  0  0  0  0  0  0
  126.4477  136.1998  155.8093 H   0  0  0  0  0  0  0  0  0  0  0  0
  128.5499  136.1193  157.0887 H   0  0  0  0  0  0  0  0  0  0  0  0
  128.1175  136.7699  162.0763 H   0  0  0  0  0  0  0  0  0  0  0  0
  128.6586  139.0169  162.9249 H   0  0  0  0  0  0  0  0  0  0  0  0
  130.8582  139.8316  159.3605 H   0  0  0  0  0  0  0  0  0  0  0  0
  130.3250  137.5803  158.5181 H   0  0  0  0  0  0  0  0  0  0  0  0
  131.6462  130.0842  156.7602 H   0  0  0  0  0  0  0  0  0  0  0  0
  132.3350  128.8317  154.7580 H   0  0  0  0  0  0  0  0  0  0  0  0
  1  2  1  0
  1 32  1  0
  1 33  1  0
  1 34  1  0
  2  3  1  0
  2 35  1  0
  2 36  1  0
  3 31  2  0
  3  4  1  0
  4  5  2  0
  4 37  1  0
  5  6  1  0
  5 38  1  0
  6  7  1  0
  6 30  2  0
  7 28  1  0
  7  8  2  0
  8  9  1  0
  8 39  1  0
  9 10  1  0
  9 11  1  0
 11 12  1  0
 11 28  2  0
 12 13  1  0
 12 40  1  0
 13 14  1  1
 13 15  1  0
 13 21  1  0
 15 20  1  0
 15 16  2  0
 16 17  1  0
 16 41  1  0
 17 18  2  0
 17 42  1  0
 18 19  1  0
 18 43  1  0
 19 20  2  0
 19 44  1  0
 20 45  1  0
 21 27  1  0
 21 22  2  0
 22 23  1  0
 22 46  1  0
 23 24  2  0
 23 47  1  0
 24 25  1  0
 24 26  1  0
 26 27  2  0
 26 48  1  0
 27 49  1  0
 28 29  1  0
 30 31  1  0
 30 50  1  0
 31 51  1  0
M  CHG  1  28   1
M  END
>  <DOCK_score>  (1) 
-65.903625

>  <SMILES>  (1) 
CCc1ccc(-c2c[nH]c(N[C@H](c3ccccc3)c3ccc(Cl)cc3)[nH+]2)cc1

$$$$
