Clc1ccc2c(c1)C=C(C[N@@H+]1CC=C(c3cccc(-c4cccc(-c5ccccc5)c4)c3)CC1)CO2
     RDKit          3D

 65 70  0  0  1  0  0  0  0  0999 V2000
  131.3642  130.3291  155.0913 Cl  0  0  0  0  0  0  0  0  0  0  0  0
  130.9527  130.9636  156.6540 C   0  0  0  0  0  0  0  0  0  0  0  0
  130.7815  130.1017  157.7248 C   0  0  0  0  0  0  0  0  0  0  0  0
  130.4473  130.5920  158.9744 C   0  0  0  0  0  0  0  0  0  0  0  0
  130.2817  131.9525  159.1577 C   0  0  0  0  0  0  0  0  0  0  0  0
  130.4668  132.8276  158.0789 C   0  0  0  0  0  0  0  0  0  0  0  0
  130.7976  132.3265  156.8245 C   0  0  0  0  0  0  0  0  0  0  0  0
  130.3053  134.2783  158.3113 C   0  0  0  0  0  0  0  0  0  0  0  0
  130.2672  134.7156  159.5664 C   0  0  0  0  0  0  0  0  0  0  0  0
  130.0660  136.1830  159.8443 C   0  0  0  0  0  0  0  0  0  0  0  0
  131.3718  136.8526  159.9089 N   0  0  2  0  0  0  0  0  0  0  0  0
  131.9773  136.4817  159.1920 H   0  0  0  0  0  0  0  0  0  0  0  0
  131.9765  136.6281  161.2270 C   0  0  0  0  0  0  0  0  0  0  0  0
  133.2225  137.4521  161.3789 C   0  0  0  0  0  0  0  0  0  0  0  0
  133.4921  138.4889  160.6156 C   0  0  0  0  0  0  0  0  0  0  0  0
  134.7470  139.2357  160.8450 C   0  0  0  0  0  0  0  0  0  0  0  0
  135.6988  139.3339  159.8284 C   0  0  0  0  0  0  0  0  0  0  0  0
  136.8682  140.0361  160.0403 C   0  0  0  0  0  0  0  0  0  0  0  0
  137.1088  140.6356  161.2615 C   0  0  0  0  0  0  0  0  0  0  0  0
  136.1687  140.5398  162.2862 C   0  0  0  0  0  0  0  0  0  0  0  0
  136.4301  141.1845  163.5973 C   0  0  0  0  0  0  0  0  0  0  0  0
  137.2042  142.3421  163.6643 C   0  0  0  0  0  0  0  0  0  0  0  0
  137.4487  142.9427  164.8835 C   0  0  0  0  0  0  0  0  0  0  0  0
  136.9281  142.4012  166.0427 C   0  0  0  0  0  0  0  0  0  0  0  0
  136.1524  141.2445  165.9874 C   0  0  0  0  0  0  0  0  0  0  0  0
  135.5934  140.6642  167.2336 C   0  0  0  0  0  0  0  0  0  0  0  0
  134.3876  139.9667  167.2005 C   0  0  0  0  0  0  0  0  0  0  0  0
  133.8751  139.4241  168.3616 C   0  0  0  0  0  0  0  0  0  0  0  0
  134.5505  139.5816  169.5584 C   0  0  0  0  0  0  0  0  0  0  0  0
  135.7449  140.2778  169.5980 C   0  0  0  0  0  0  0  0  0  0  0  0
  136.2694  140.8197  168.4419 C   0  0  0  0  0  0  0  0  0  0  0  0
  135.8985  140.6380  164.7609 C   0  0  0  0  0  0  0  0  0  0  0  0
  134.9853  139.8387  162.0782 C   0  0  0  0  0  0  0  0  0  0  0  0
  132.5721  138.9381  159.5137 C   0  0  0  0  0  0  0  0  0  0  0  0
  131.1943  138.2989  159.7038 C   0  0  0  0  0  0  0  0  0  0  0  0
  130.4306  133.7509  160.7108 C   0  0  0  0  0  0  0  0  0  0  0  0
  129.9171  132.4625  160.3622 O   0  0  0  0  0  0  0  0  0  0  0  0
  130.9095  129.0388  157.5830 H   0  0  0  0  0  0  0  0  0  0  0  0
  130.3156  129.9139  159.8045 H   0  0  0  0  0  0  0  0  0  0  0  0
  130.9321  132.9978  155.9891 H   0  0  0  0  0  0  0  0  0  0  0  0
  130.2199  134.9657  157.4827 H   0  0  0  0  0  0  0  0  0  0  0  0
  129.5477  136.3049  160.7954 H   0  0  0  0  0  0  0  0  0  0  0  0
  129.4698  136.6254  159.0464 H   0  0  0  0  0  0  0  0  0  0  0  0
  131.2634  136.9063  162.0030 H   0  0  0  0  0  0  0  0  0  0  0  0
  132.2303  135.5731  161.3323 H   0  0  0  0  0  0  0  0  0  0  0  0
  133.9291  137.1813  162.1494 H   0  0  0  0  0  0  0  0  0  0  0  0
  135.5181  138.8631  158.8733 H   0  0  0  0  0  0  0  0  0  0  0  0
  137.6000  140.1131  159.2500 H   0  0  0  0  0  0  0  0  0  0  0  0
  138.0276  141.1801  161.4225 H   0  0  0  0  0  0  0  0  0  0  0  0
  137.6137  142.7698  162.7610 H   0  0  0  0  0  0  0  0  0  0  0  0
  138.0494  143.8389  164.9309 H   0  0  0  0  0  0  0  0  0  0  0  0
  137.1227  142.8749  166.9935 H   0  0  0  0  0  0  0  0  0  0  0  0
  133.8571  139.8474  166.2674 H   0  0  0  0  0  0  0  0  0  0  0  0
  132.9430  138.8792  168.3361 H   0  0  0  0  0  0  0  0  0  0  0  0
  134.1440  139.1593  170.4655 H   0  0  0  0  0  0  0  0  0  0  0  0
  136.2679  140.3980  170.5351 H   0  0  0  0  0  0  0  0  0  0  0  0
  137.2023  141.3629  168.4739 H   0  0  0  0  0  0  0  0  0  0  0  0
  135.2946  139.7439  164.7130 H   0  0  0  0  0  0  0  0  0  0  0  0
  134.2545  139.7618  162.8696 H   0  0  0  0  0  0  0  0  0  0  0  0
  132.4758  140.0235  159.5412 H   0  0  0  0  0  0  0  0  0  0  0  0
  132.9834  138.6343  158.5511 H   0  0  0  0  0  0  0  0  0  0  0  0
  130.7057  138.7348  160.5753 H   0  0  0  0  0  0  0  0  0  0  0  0
  130.5856  138.4705  158.8160 H   0  0  0  0  0  0  0  0  0  0  0  0
  131.4885  133.6646  160.9587 H   0  0  0  0  0  0  0  0  0  0  0  0
  129.8894  134.1287  161.5784 H   0  0  0  0  0  0  0  0  0  0  0  0
  1  2  1  0
  2  7  2  0
  2  3  1  0
  3  4  2  0
  3 38  1  0
  4  5  1  0
  4 39  1  0
  5 37  1  0
  5  6  2  0
  6  7  1  0
  6  8  1  0
  7 40  1  0
  8  9  2  0
  8 41  1  0
  9 10  1  0
  9 36  1  0
 10 11  1  0
 10 42  1  0
 10 43  1  0
 11 12  1  6
 11 35  1  0
 11 13  1  0
 13 14  1  0
 13 44  1  0
 13 45  1  0
 14 15  2  0
 14 46  1  0
 15 16  1  0
 15 34  1  0
 16 33  1  0
 16 17  2  0
 17 18  1  0
 17 47  1  0
 18 19  2  0
 18 48  1  0
 19 20  1  0
 19 49  1  0
 20 21  1  0
 20 33  2  0
 21 32  1  0
 21 22  2  0
 22 23  1  0
 22 50  1  0
 23 24  2  0
 23 51  1  0
 24 25  1  0
 24 52  1  0
 25 26  1  0
 25 32  2  0
 26 31  1  0
 26 27  2  0
 27 28  1  0
 27 53  1  0
 28 29  2  0
 28 54  1  0
 29 30  1  0
 29 55  1  0
 30 31  2  0
 30 56  1  0
 31 57  1  0
 32 58  1  0
 33 59  1  0
 34 35  1  0
 34 60  1  0
 34 61  1  0
 35 62  1  0
 35 63  1  0
 36 37  1  0
 36 64  1  0
 36 65  1  0
M  CHG  1  11   1
M  END
>  <DOCK_score>  (1) 
-56.579346

>  <SMILES>  (1) 
Clc1ccc2c(c1)C=C(C[N@@H+]1CC=C(c3cccc(-c4cccc(-c5ccccc5)c4)c3)CC1)CO2

$$$$
