C[C@H](Cl)C(Cc1ccccc1)N1CC[NH+](Cc2ccc(C3=CCCC3)cc2)CC1
     RDKit          3D

 63 66  0  0  1  0  0  0  0  0999 V2000
  129.3534  130.3768  159.0906 C   0  0  0  0  0  0  0  0  0  0  0  0
  130.1752  130.4503  157.8021 C   0  0  2  0  0  0  0  0  0  0  0  0
  129.8466  129.6692  157.1165 H   0  0  0  0  0  0  0  0  0  0  0  0
  131.9206  130.2155  158.1884 Cl  0  0  0  0  0  0  0  0  0  0  0  0
  129.9772  131.8192  157.1482 C   0  0  2  0  0  0  0  0  0  0  0  0
  131.1290  132.0929  156.1790 C   0  0  0  0  0  0  0  0  0  0  0  0
  130.8789  131.3652  154.8832 C   0  0  0  0  0  0  0  0  0  0  0  0
  131.3528  130.0780  154.7108 C   0  0  0  0  0  0  0  0  0  0  0  0
  131.1193  129.4087  153.5242 C   0  0  0  0  0  0  0  0  0  0  0  0
  130.4209  130.0304  152.5059 C   0  0  0  0  0  0  0  0  0  0  0  0
  129.9516  131.3194  152.6764 C   0  0  0  0  0  0  0  0  0  0  0  0
  130.1806  131.9867  153.8651 C   0  0  0  0  0  0  0  0  0  0  0  0
  129.9531  132.8587  158.1859 N   0  0  0  0  0  0  0  0  0  0  0  0
  129.2327  134.0520  157.7195 C   0  0  0  0  0  0  0  0  0  0  0  0
  129.1787  135.0848  158.8473 C   0  0  0  0  0  0  0  0  0  0  0  0
  130.5453  135.4429  159.2493 N   0  0  0  0  0  0  0  0  0  0  0  0
  131.0406  135.8221  158.4562 H   0  0  0  0  0  0  0  0  0  0  0  0
  130.4932  136.4478  160.3196 C   0  0  0  0  0  0  0  0  0  0  0  0
  131.8145  137.1683  160.3969 C   0  0  0  0  0  0  0  0  0  0  0  0
  132.8151  136.6855  161.2215 C   0  0  0  0  0  0  0  0  0  0  0  0
  134.0288  137.3377  161.2932 C   0  0  0  0  0  0  0  0  0  0  0  0
  134.2422  138.4926  160.5397 C   0  0  0  0  0  0  0  0  0  0  0  0
  135.5379  139.1998  160.6163 C   0  0  0  0  0  0  0  0  0  0  0  0
  136.3404  139.4090  159.5872 C   0  0  0  0  0  0  0  0  0  0  0  0
  137.5791  140.1608  160.0159 C   0  0  0  0  0  0  0  0  0  0  0  0
  137.6165  140.0166  161.5545 C   0  0  0  0  0  0  0  0  0  0  0  0
  136.1210  139.7873  161.8806 C   0  0  0  0  0  0  0  0  0  0  0  0
  133.2272  138.9773  159.7141 C   0  0  0  0  0  0  0  0  0  0  0  0
  132.0198  138.3128  159.6474 C   0  0  0  0  0  0  0  0  0  0  0  0
  131.2440  134.2458  159.7357 C   0  0  0  0  0  0  0  0  0  0  0  0
  131.3151  133.2060  158.6153 C   0  0  0  0  0  0  0  0  0  0  0  0
  128.3324  130.7012  158.8893 H   0  0  0  0  0  0  0  0  0  0  0  0
  129.3429  129.3503  159.4569 H   0  0  0  0  0  0  0  0  0  0  0  0
  129.7993  131.0268  159.8435 H   0  0  0  0  0  0  0  0  0  0  0  0
  129.0335  131.8284  156.6028 H   0  0  0  0  0  0  0  0  0  0  0  0
  131.1958  133.1638  155.9872 H   0  0  0  0  0  0  0  0  0  0  0  0
  132.0636  131.7433  156.6176 H   0  0  0  0  0  0  0  0  0  0  0  0
  131.9024  129.5941  155.5048 H   0  0  0  0  0  0  0  0  0  0  0  0
  131.4864  128.4019  153.3908 H   0  0  0  0  0  0  0  0  0  0  0  0
  130.2423  129.5090  151.5771 H   0  0  0  0  0  0  0  0  0  0  0  0
  129.4062  131.8051  151.8808 H   0  0  0  0  0  0  0  0  0  0  0  0
  129.8142  132.9939  153.9981 H   0  0  0  0  0  0  0  0  0  0  0  0
  129.7519  134.4778  156.8609 H   0  0  0  0  0  0  0  0  0  0  0  0
  128.2186  133.7749  157.4312 H   0  0  0  0  0  0  0  0  0  0  0  0
  128.6476  134.6634  159.7008 H   0  0  0  0  0  0  0  0  0  0  0  0
  128.6571  135.9763  158.4989 H   0  0  0  0  0  0  0  0  0  0  0  0
  129.7003  137.1648  160.1065 H   0  0  0  0  0  0  0  0  0  0  0  0
  130.2915  135.9553  161.2709 H   0  0  0  0  0  0  0  0  0  0  0  0
  132.6470  135.7937  161.8071 H   0  0  0  0  0  0  0  0  0  0  0  0
  134.8104  136.9575  161.9341 H   0  0  0  0  0  0  0  0  0  0  0  0
  136.1383  139.0859  158.5767 H   0  0  0  0  0  0  0  0  0  0  0  0
  138.4678  139.7127  159.5711 H   0  0  0  0  0  0  0  0  0  0  0  0
  137.5018  141.2112  159.7349 H   0  0  0  0  0  0  0  0  0  0  0  0
  138.2212  139.1599  161.8520 H   0  0  0  0  0  0  0  0  0  0  0  0
  137.9805  140.9306  162.0237 H   0  0  0  0  0  0  0  0  0  0  0  0
  135.6328  140.7319  162.1203 H   0  0  0  0  0  0  0  0  0  0  0  0
  136.0176  139.0852  162.7079 H   0  0  0  0  0  0  0  0  0  0  0  0
  133.3861  139.8709  159.1288 H   0  0  0  0  0  0  0  0  0  0  0  0
  131.2333  138.6871  159.0090 H   0  0  0  0  0  0  0  0  0  0  0  0
  130.7023  133.8288  160.5847 H   0  0  0  0  0  0  0  0  0  0  0  0
  132.2536  134.5153  160.0459 H   0  0  0  0  0  0  0  0  0  0  0  0
  131.8204  132.3119  158.9805 H   0  0  0  0  0  0  0  0  0  0  0  0
  131.8686  133.6178  157.7714 H   0  0  0  0  0  0  0  0  0  0  0  0
  1  2  1  0
  1 32  1  0
  1 33  1  0
  1 34  1  0
  2  3  1  6
  2  4  1  0
  2  5  1  0
  5  6  1  0
  5 13  1  0
  5 35  1  6
  6  7  1  0
  6 36  1  0
  6 37  1  0
  7 12  1  0
  7  8  2  0
  8  9  1  0
  8 38  1  0
  9 10  2  0
  9 39  1  0
 10 11  1  0
 10 40  1  0
 11 12  2  0
 11 41  1  0
 12 42  1  0
 13 31  1  0
 13 14  1  0
 14 15  1  0
 14 43  1  0
 14 44  1  0
 15 16  1  0
 15 45  1  0
 15 46  1  0
 16 17  1  0
 16 18  1  0
 16 30  1  0
 18 19  1  0
 18 47  1  0
 18 48  1  0
 19 29  1  0
 19 20  2  0
 20 21  1  0
 20 49  1  0
 21 22  2  0
 21 50  1  0
 22 23  1  0
 22 28  1  0
 23 27  1  0
 23 24  2  0
 24 25  1  0
 24 51  1  0
 25 26  1  0
 25 52  1  0
 25 53  1  0
 26 27  1  0
 26 54  1  0
 26 55  1  0
 27 56  1  0
 27 57  1  0
 28 29  2  0
 28 58  1  0
 29 59  1  0
 30 31  1  0
 30 60  1  0
 30 61  1  0
 31 62  1  0
 31 63  1  0
M  CHG  1  16   1
M  END
>  <DOCK_score>  (1) 
-61.012226

>  <SMILES>  (1) 
C[C@H](Cl)C(Cc1ccccc1)N1CC[NH+](Cc2ccc(C3=CCCC3)cc2)CC1

$$$$
