Nc1ccc(-c2c[nH]c(N[C@@H](C(=O)Nc3ccccc3)c3ccccc3)[nH+]2)cc1
     RDKit          3D

 51 54  0  0  1  0  0  0  0  0999 V2000
  131.4074  129.7041  151.9371 N   0  0  0  0  0  0  0  0  0  0  0  0
  131.1145  130.3465  153.1425 C   0  0  0  0  0  0  0  0  0  0  0  0
  130.2909  131.4665  153.1498 C   0  0  0  0  0  0  0  0  0  0  0  0
  130.0001  132.1018  154.3385 C   0  0  0  0  0  0  0  0  0  0  0  0
  130.5328  131.6204  155.5334 C   0  0  0  0  0  0  0  0  0  0  0  0
  130.2218  132.3025  156.8136 C   0  0  0  0  0  0  0  0  0  0  0  0
  129.6043  131.7460  157.8848 C   0  0  0  0  0  0  0  0  0  0  0  0
  129.5181  132.7235  158.8476 N   0  0  0  0  0  0  0  0  0  0  0  0
  129.1248  132.6286  159.7292 H   0  0  0  0  0  0  0  0  0  0  0  0
  130.0861  133.8488  158.3351 C   0  0  0  0  0  0  0  0  0  0  0  0
  130.2027  135.0630  158.9898 N   0  0  0  0  0  0  0  0  0  0  0  0
  129.2036  135.4570  159.9861 C   0  0  1  0  0  0  0  0  0  0  0  0
  129.1859  134.7238  160.7925 H   0  0  0  0  0  0  0  0  0  0  0  0
  129.5585  136.8106  160.5456 C   0  0  0  0  0  0  0  0  0  0  0  0
  130.5487  137.3892  160.1508 O   0  0  0  0  0  0  0  0  0  0  0  0
  128.7758  137.3781  161.4844 N   0  0  0  0  0  0  0  0  0  0  0  0
  129.1053  138.6349  162.0039 C   0  0  0  0  0  0  0  0  0  0  0  0
  128.1035  139.4920  162.4403 C   0  0  0  0  0  0  0  0  0  0  0  0
  128.4324  140.7298  162.9569 C   0  0  0  0  0  0  0  0  0  0  0  0
  129.7567  141.1202  163.0306 C   0  0  0  0  0  0  0  0  0  0  0  0
  130.7565  140.2713  162.5919 C   0  0  0  0  0  0  0  0  0  0  0  0
  130.4346  139.0301  162.0787 C   0  0  0  0  0  0  0  0  0  0  0  0
  127.8452  135.5224  159.3368 C   0  0  0  0  0  0  0  0  0  0  0  0
  126.7107  135.2511  160.0784 C   0  0  0  0  0  0  0  0  0  0  0  0
  125.4644  135.3151  159.4838 C   0  0  0  0  0  0  0  0  0  0  0  0
  125.3534  135.6420  158.1453 C   0  0  0  0  0  0  0  0  0  0  0  0
  126.4883  135.9084  157.4023 C   0  0  0  0  0  0  0  0  0  0  0  0
  127.7343  135.8484  157.9979 C   0  0  0  0  0  0  0  0  0  0  0  0
  130.5054  133.5933  157.1197 N   0  0  0  0  0  0  0  0  0  0  0  0
  130.9475  134.2265  156.5327 H   0  0  0  0  0  0  0  0  0  0  0  0
  131.3628  130.5004  155.5228 C   0  0  0  0  0  0  0  0  0  0  0  0
  131.6466  129.8651  154.3323 C   0  0  0  0  0  0  0  0  0  0  0  0
  131.0360  130.0399  151.1059 H   0  0  0  0  0  0  0  0  0  0  0  0
  131.9820  128.9230  151.9308 H   0  0  0  0  0  0  0  0  0  0  0  0
  129.8788  131.8393  152.2237 H   0  0  0  0  0  0  0  0  0  0  0  0
  129.3599  132.9716  154.3439 H   0  0  0  0  0  0  0  0  0  0  0  0
  129.2520  130.7284  157.9674 H   0  0  0  0  0  0  0  0  0  0  0  0
  130.9459  135.6530  158.7887 H   0  0  0  0  0  0  0  0  0  0  0  0
  127.9838  136.9153  161.8002 H   0  0  0  0  0  0  0  0  0  0  0  0
  127.0686  139.1893  162.3789 H   0  0  0  0  0  0  0  0  0  0  0  0
  127.6541  141.3951  163.3003 H   0  0  0  0  0  0  0  0  0  0  0  0
  130.0107  142.0905  163.4315 H   0  0  0  0  0  0  0  0  0  0  0  0
  131.7899  140.5793  162.6503 H   0  0  0  0  0  0  0  0  0  0  0  0
  131.2156  138.3678  161.7356 H   0  0  0  0  0  0  0  0  0  0  0  0
  126.7978  134.9920  161.1233 H   0  0  0  0  0  0  0  0  0  0  0  0
  124.5778  135.1074  160.0643 H   0  0  0  0  0  0  0  0  0  0  0  0
  124.3799  135.6897  157.6800 H   0  0  0  0  0  0  0  0  0  0  0  0
  126.4014  136.1637  156.3564 H   0  0  0  0  0  0  0  0  0  0  0  0
  128.6208  136.0565  157.4175 H   0  0  0  0  0  0  0  0  0  0  0  0
  131.7801  130.1284  156.4468 H   0  0  0  0  0  0  0  0  0  0  0  0
  132.2865  128.9952  154.3242 H   0  0  0  0  0  0  0  0  0  0  0  0
  1  2  1  0
  1 33  1  0
  1 34  1  0
  2 32  2  0
  2  3  1  0
  3  4  2  0
  3 35  1  0
  4  5  1  0
  4 36  1  0
  5  6  1  0
  5 31  2  0
  6 29  1  0
  6  7  2  0
  7  8  1  0
  7 37  1  0
  8  9  1  0
  8 10  1  0
 10 11  1  0
 10 29  2  0
 11 12  1  0
 11 38  1  0
 12 13  1  1
 12 14  1  0
 12 23  1  0
 14 15  2  0
 14 16  1  0
 16 17  1  0
 16 39  1  0
 17 22  1  0
 17 18  2  0
 18 19  1  0
 18 40  1  0
 19 20  2  0
 19 41  1  0
 20 21  1  0
 20 42  1  0
 21 22  2  0
 21 43  1  0
 22 44  1  0
 23 28  1  0
 23 24  2  0
 24 25  1  0
 24 45  1  0
 25 26  2  0
 25 46  1  0
 26 27  1  0
 26 47  1  0
 27 28  2  0
 27 48  1  0
 28 49  1  0
 29 30  1  0
 31 32  1  0
 31 50  1  0
 32 51  1  0
M  CHG  1  29   1
M  END
>  <DOCK_score>  (1) 
-60.741474

>  <SMILES>  (1) 
Nc1ccc(-c2c[nH]c(N[C@@H](C(=O)Nc3ccccc3)c3ccccc3)[nH+]2)cc1

$$$$
