CC1=CC[N@@H+](C(C)c2cnn(-c3cnn(Cc4ccccc4)c3)c2)CC1
     RDKit          3D

 52 55  0  0  1  0  0  0  0  0999 V2000
  132.9553  137.3073  161.9585 C   0  0  0  0  0  0  0  0  0  0  0  0
  131.8849  136.7294  161.0689 C   0  0  0  0  0  0  0  0  0  0  0  0
  131.8327  135.4455  160.9077 C   0  0  0  0  0  0  0  0  0  0  0  0
  130.8083  134.7595  160.0513 C   0  0  0  0  0  0  0  0  0  0  0  0
  130.1942  135.7188  159.1258 N   0  0  1  0  0  0  0  0  0  0  0  0
  130.8795  136.0227  158.4505 H   0  0  0  0  0  0  0  0  0  0  0  0
  129.0684  135.0805  158.4310 C   0  0  1  0  0  0  0  0  0  0  0  0
  128.7503  135.8591  157.1529 C   0  0  0  0  0  0  0  0  0  0  0  0
  129.4356  133.6624  158.0770 C   0  0  0  0  0  0  0  0  0  0  0  0
  129.2247  132.5341  158.8757 C   0  0  0  0  0  0  0  0  0  0  0  0
  129.6741  131.4865  158.2315 N   0  0  0  0  0  0  0  0  0  0  0  0
  130.1860  131.9159  157.0003 N   0  0  0  0  0  0  0  0  0  0  0  0
  130.7630  131.0965  156.0119 C   0  0  0  0  0  0  0  0  0  0  0  0
  131.4660  129.9029  156.2343 C   0  0  0  0  0  0  0  0  0  0  0  0
  131.8441  129.4296  155.0749 N   0  0  0  0  0  0  0  0  0  0  0  0
  131.4050  130.3073  154.0759 N   0  0  0  0  0  0  0  0  0  0  0  0
  131.6236  130.1511  152.6357 C   0  0  0  0  0  0  0  0  0  0  0  0
  130.4831  129.3693  152.0363 C   0  0  0  0  0  0  0  0  0  0  0  0
  130.5562  127.9911  151.9571 C   0  0  0  0  0  0  0  0  0  0  0  0
  129.5080  127.2737  151.4118 C   0  0  0  0  0  0  0  0  0  0  0  0
  128.3913  127.9351  150.9361 C   0  0  0  0  0  0  0  0  0  0  0  0
  128.3204  129.3135  151.0106 C   0  0  0  0  0  0  0  0  0  0  0  0
  129.3663  130.0308  151.5607 C   0  0  0  0  0  0  0  0  0  0  0  0
  130.7438  131.3232  154.6731 C   0  0  0  0  0  0  0  0  0  0  0  0
  130.0225  133.2551  156.9269 C   0  0  0  0  0  0  0  0  0  0  0  0
  129.7074  136.8771  159.8922 C   0  0  0  0  0  0  0  0  0  0  0  0
  130.9159  137.6665  160.4023 C   0  0  0  0  0  0  0  0  0  0  0  0
  132.5832  137.3696  162.9812 H   0  0  0  0  0  0  0  0  0  0  0  0
  133.8362  136.6659  161.9308 H   0  0  0  0  0  0  0  0  0  0  0  0
  133.2208  138.3044  161.6071 H   0  0  0  0  0  0  0  0  0  0  0  0
  132.5661  134.8383  161.4175 H   0  0  0  0  0  0  0  0  0  0  0  0
  130.0360  134.3285  160.6885 H   0  0  0  0  0  0  0  0  0  0  0  0
  131.2892  133.9653  159.4803 H   0  0  0  0  0  0  0  0  0  0  0  0
  128.1941  135.0776  159.0819 H   0  0  0  0  0  0  0  0  0  0  0  0
  129.6245  135.8618  156.5020 H   0  0  0  0  0  0  0  0  0  0  0  0
  127.9148  135.3853  156.6374 H   0  0  0  0  0  0  0  0  0  0  0  0
  128.4847  136.8847  157.4090 H   0  0  0  0  0  0  0  0  0  0  0  0
  128.7692  132.5278  159.8549 H   0  0  0  0  0  0  0  0  0  0  0  0
  131.6588  129.4513  157.1963 H   0  0  0  0  0  0  0  0  0  0  0  0
  131.6759  131.1339  152.1674 H   0  0  0  0  0  0  0  0  0  0  0  0
  132.5587  129.6174  152.4659 H   0  0  0  0  0  0  0  0  0  0  0  0
  131.4306  127.4747  152.3246 H   0  0  0  0  0  0  0  0  0  0  0  0
  129.5635  126.1966  151.3532 H   0  0  0  0  0  0  0  0  0  0  0  0
  127.5742  127.3748  150.5060 H   0  0  0  0  0  0  0  0  0  0  0  0
  127.4480  129.8303  150.6387 H   0  0  0  0  0  0  0  0  0  0  0  0
  129.3112  131.1077  151.6185 H   0  0  0  0  0  0  0  0  0  0  0  0
  130.2835  132.1640  154.1756 H   0  0  0  0  0  0  0  0  0  0  0  0
  130.3109  133.8876  156.1003 H   0  0  0  0  0  0  0  0  0  0  0  0
  129.1001  137.5131  159.2482 H   0  0  0  0  0  0  0  0  0  0  0  0
  129.1118  136.5325  160.7376 H   0  0  0  0  0  0  0  0  0  0  0  0
  131.4068  138.1606  159.5641 H   0  0  0  0  0  0  0  0  0  0  0  0
  130.5830  138.4158  161.1207 H   0  0  0  0  0  0  0  0  0  0  0  0
  1  2  1  0
  1 28  1  0
  1 29  1  0
  1 30  1  0
  2 27  1  0
  2  3  2  0
  3  4  1  0
  3 31  1  0
  4  5  1  0
  4 32  1  0
  4 33  1  0
  5  6  1  6
  5  7  1  0
  5 26  1  0
  7  8  1  0
  7  9  1  0
  7 34  1  1
  8 35  1  0
  8 36  1  0
  8 37  1  0
  9 25  2  0
  9 10  1  0
 10 11  2  0
 10 38  1  0
 11 12  1  0
 12 13  1  0
 12 25  1  0
 13 24  2  0
 13 14  1  0
 14 15  2  0
 14 39  1  0
 15 16  1  0
 16 17  1  0
 16 24  1  0
 17 18  1  0
 17 40  1  0
 17 41  1  0
 18 23  1  0
 18 19  2  0
 19 20  1  0
 19 42  1  0
 20 21  2  0
 20 43  1  0
 21 22  1  0
 21 44  1  0
 22 23  2  0
 22 45  1  0
 23 46  1  0
 24 47  1  0
 25 48  1  0
 26 27  1  0
 26 49  1  0
 26 50  1  0
 27 51  1  0
 27 52  1  0
M  CHG  1   5   1
M  END
>  <DOCK_score>  (1) 
-56.792675

>  <SMILES>  (1) 
CC1=CC[N@@H+](C(C)c2cnn(-c3cnn(Cc4ccccc4)c3)c2)CC1

$$$$
