Brc1ccc(-c2c[nH]c(Nc3ccc(Nc4ccc(-c5ccccc5)cc4)nc3)[nH+]2)cc1
     RDKit          3D

 53 57  0  0  1  0  0  0  0  0999 V2000
  131.4669  129.5910  151.7309 Br  0  0  0  0  0  0  0  0  0  0  0  0
  131.0644  130.5248  153.3253 C   0  0  0  0  0  0  0  0  0  0  0  0
  130.7075  131.8618  153.2695 C   0  0  0  0  0  0  0  0  0  0  0  0
  130.4130  132.5484  154.4297 C   0  0  0  0  0  0  0  0  0  0  0  0
  130.4756  131.8942  155.6587 C   0  0  0  0  0  0  0  0  0  0  0  0
  130.1606  132.6274  156.9091 C   0  0  0  0  0  0  0  0  0  0  0  0
  129.6251  132.0928  158.0346 C   0  0  0  0  0  0  0  0  0  0  0  0
  129.5001  133.1162  158.9419 N   0  0  0  0  0  0  0  0  0  0  0  0
  129.1472  133.0457  159.8427 H   0  0  0  0  0  0  0  0  0  0  0  0
  129.9635  134.2480  158.3437 C   0  0  0  0  0  0  0  0  0  0  0  0
  130.0110  135.5051  158.9229 N   0  0  0  0  0  0  0  0  0  0  0  0
  129.0640  135.8672  159.8893 C   0  0  0  0  0  0  0  0  0  0  0  0
  129.4686  136.2222  161.1758 C   0  0  0  0  0  0  0  0  0  0  0  0
  128.4996  136.5730  162.0974 C   0  0  0  0  0  0  0  0  0  0  0  0
  127.1625  136.5605  161.7138 C   0  0  0  0  0  0  0  0  0  0  0  0
  126.1784  136.9125  162.6350 N   0  0  0  0  0  0  0  0  0  0  0  0
  126.5368  137.2805  163.9333 C   0  0  0  0  0  0  0  0  0  0  0  0
  126.6302  136.3138  164.9281 C   0  0  0  0  0  0  0  0  0  0  0  0
  126.9840  136.6751  166.2105 C   0  0  0  0  0  0  0  0  0  0  0  0
  127.2477  138.0109  166.5096 C   0  0  0  0  0  0  0  0  0  0  0  0
  127.6286  138.4019  167.8890 C   0  0  0  0  0  0  0  0  0  0  0  0
  127.3000  139.6666  168.3735 C   0  0  0  0  0  0  0  0  0  0  0  0
  127.6566  140.0250  169.6576 C   0  0  0  0  0  0  0  0  0  0  0  0
  128.3383  139.1311  170.4638 C   0  0  0  0  0  0  0  0  0  0  0  0
  128.6717  137.8765  169.9864 C   0  0  0  0  0  0  0  0  0  0  0  0
  128.3160  137.5058  168.7054 C   0  0  0  0  0  0  0  0  0  0  0  0
  127.1474  138.9797  165.5122 C   0  0  0  0  0  0  0  0  0  0  0  0
  126.7994  138.6133  164.2295 C   0  0  0  0  0  0  0  0  0  0  0  0
  126.8143  136.2130  160.4851 N   0  0  0  0  0  0  0  0  0  0  0  0
  127.7126  135.8778  159.5785 C   0  0  0  0  0  0  0  0  0  0  0  0
  130.3519  133.9524  157.1271 N   0  0  0  0  0  0  0  0  0  0  0  0
  130.7198  134.5806  156.4860 H   0  0  0  0  0  0  0  0  0  0  0  0
  130.8409  130.5500  155.7094 C   0  0  0  0  0  0  0  0  0  0  0  0
  131.1279  129.8711  154.5428 C   0  0  0  0  0  0  0  0  0  0  0  0
  130.6597  132.3680  152.3166 H   0  0  0  0  0  0  0  0  0  0  0  0
  130.1341  133.5909  154.3853 H   0  0  0  0  0  0  0  0  0  0  0  0
  129.3501  131.0597  158.1882 H   0  0  0  0  0  0  0  0  0  0  0  0
  130.7002  136.1348  158.6593 H   0  0  0  0  0  0  0  0  0  0  0  0
  130.5142  136.2225  161.4459 H   0  0  0  0  0  0  0  0  0  0  0  0
  128.7774  136.8536  163.1028 H   0  0  0  0  0  0  0  0  0  0  0  0
  125.2440  136.9020  162.3744 H   0  0  0  0  0  0  0  0  0  0  0  0
  126.4260  135.2791  164.6959 H   0  0  0  0  0  0  0  0  0  0  0  0
  127.0565  135.9238  166.9830 H   0  0  0  0  0  0  0  0  0  0  0  0
  126.7678  140.3653  167.7449 H   0  0  0  0  0  0  0  0  0  0  0  0
  127.4025  141.0049  170.0341 H   0  0  0  0  0  0  0  0  0  0  0  0
  128.6154  139.4158  171.4681 H   0  0  0  0  0  0  0  0  0  0  0  0
  129.2077  137.1841  170.6187 H   0  0  0  0  0  0  0  0  0  0  0  0
  128.5734  136.5245  168.3350 H   0  0  0  0  0  0  0  0  0  0  0  0
  127.3469  140.0157  165.7430 H   0  0  0  0  0  0  0  0  0  0  0  0
  126.7262  139.3628  163.4555 H   0  0  0  0  0  0  0  0  0  0  0  0
  127.3914  135.6042  158.5844 H   0  0  0  0  0  0  0  0  0  0  0  0
  130.8953  130.0397  156.6597 H   0  0  0  0  0  0  0  0  0  0  0  0
  131.4067  128.8284  154.5806 H   0  0  0  0  0  0  0  0  0  0  0  0
  1  2  1  0
  2 34  2  0
  2  3  1  0
  3  4  2  0
  3 35  1  0
  4  5  1  0
  4 36  1  0
  5  6  1  0
  5 33  2  0
  6 31  1  0
  6  7  2  0
  7  8  1  0
  7 37  1  0
  8  9  1  0
  8 10  1  0
 10 11  1  0
 10 31  2  0
 11 12  1  0
 11 38  1  0
 12 30  1  0
 12 13  2  0
 13 14  1  0
 13 39  1  0
 14 15  2  0
 14 40  1  0
 15 16  1  0
 15 29  1  0
 16 17  1  0
 16 41  1  0
 17 28  1  0
 17 18  2  0
 18 19  1  0
 18 42  1  0
 19 20  2  0
 19 43  1  0
 20 21  1  0
 20 27  1  0
 21 26  1  0
 21 22  2  0
 22 23  1  0
 22 44  1  0
 23 24  2  0
 23 45  1  0
 24 25  1  0
 24 46  1  0
 25 26  2  0
 25 47  1  0
 26 48  1  0
 27 28  2  0
 27 49  1  0
 28 50  1  0
 29 30  2  0
 30 51  1  0
 31 32  1  0
 33 34  1  0
 33 52  1  0
 34 53  1  0
M  CHG  1  31   1
M  END
>  <DOCK_score>  (1) 
-56.150368

>  <SMILES>  (1) 
Brc1ccc(-c2c[nH]c(Nc3ccc(Nc4ccc(-c5ccccc5)cc4)nc3)[nH+]2)cc1

$$$$
