Nc1ccc(-c2c[nH]c(NC3c4cc(Cl)ccc4OC[C@H]3C(O)c3cccc4ccccc34)[nH+]2)cc1
     RDKit          3D

 62 67  0  0  1  0  0  0  0  0999 V2000
  131.6151  130.0530  152.2612 N   0  0  0  0  0  0  0  0  0  0  0  0
  131.2621  130.5767  153.5073 C   0  0  0  0  0  0  0  0  0  0  0  0
  130.6877  131.8395  153.5917 C   0  0  0  0  0  0  0  0  0  0  0  0
  130.3393  132.3587  154.8207 C   0  0  0  0  0  0  0  0  0  0  0  0
  130.5633  131.6159  155.9789 C   0  0  0  0  0  0  0  0  0  0  0  0
  130.1893  132.1725  157.3023 C   0  0  0  0  0  0  0  0  0  0  0  0
  129.8043  131.4581  158.3885 C   0  0  0  0  0  0  0  0  0  0  0  0
  129.5583  132.3628  159.3940 N   0  0  0  0  0  0  0  0  0  0  0  0
  129.2699  132.1546  160.2965 H   0  0  0  0  0  0  0  0  0  0  0  0
  129.7917  133.6044  158.8885 C   0  0  0  0  0  0  0  0  0  0  0  0
  129.6558  134.7955  159.5809 N   0  0  0  0  0  0  0  0  0  0  0  0
  129.8802  134.8312  161.0281 C   0  0  2  0  0  0  0  0  0  0  0  0
  128.6211  135.2881  161.7200 C   0  0  0  0  0  0  0  0  0  0  0  0
  127.4041  134.7877  161.2875 C   0  0  0  0  0  0  0  0  0  0  0  0
  126.2307  135.1775  161.9048 C   0  0  0  0  0  0  0  0  0  0  0  0
  124.7096  134.5447  161.3574 Cl  0  0  0  0  0  0  0  0  0  0  0  0
  126.2690  136.0723  162.9597 C   0  0  0  0  0  0  0  0  0  0  0  0
  127.4786  136.5752  163.3926 C   0  0  0  0  0  0  0  0  0  0  0  0
  128.6617  136.1856  162.7724 C   0  0  0  0  0  0  0  0  0  0  0  0
  129.8320  136.7094  163.2216 O   0  0  0  0  0  0  0  0  0  0  0  0
  131.0434  136.0472  162.8557 C   0  0  0  0  0  0  0  0  0  0  0  0
  131.0220  135.8013  161.3417 C   0  0  1  0  0  0  0  0  0  0  0  0
  130.8580  136.7433  160.8183 H   0  0  0  0  0  0  0  0  0  0  0  0
  132.3535  135.1910  160.8995 C   0  0  1  0  0  0  0  0  0  0  0  0
  132.3184  134.9395  159.4933 O   0  0  0  0  0  0  0  0  0  0  0  0
  133.4737  136.1498  161.2105 C   0  0  0  0  0  0  0  0  0  0  0  0
  133.8555  137.0776  160.2904 C   0  0  0  0  0  0  0  0  0  0  0  0
  134.8844  137.9769  160.5626 C   0  0  0  0  0  0  0  0  0  0  0  0
  135.5461  137.9456  161.7518 C   0  0  0  0  0  0  0  0  0  0  0  0
  135.1844  136.9978  162.7238 C   0  0  0  0  0  0  0  0  0  0  0  0
  135.8445  136.9350  163.9632 C   0  0  0  0  0  0  0  0  0  0  0  0
  135.4672  136.0032  164.8804 C   0  0  0  0  0  0  0  0  0  0  0  0
  134.4339  135.1075  164.6104 C   0  0  0  0  0  0  0  0  0  0  0  0
  133.7718  135.1390  163.4218 C   0  0  0  0  0  0  0  0  0  0  0  0
  134.1332  136.0873  162.4495 C   0  0  0  0  0  0  0  0  0  0  0  0
  130.1718  133.4863  157.6396 N   0  0  0  0  0  0  0  0  0  0  0  0
  130.4036  134.2213  157.0505 H   0  0  0  0  0  0  0  0  0  0  0  0
  131.1445  130.3518  155.8922 C   0  0  0  0  0  0  0  0  0  0  0  0
  131.4863  129.8342  154.6607 C   0  0  0  0  0  0  0  0  0  0  0  0
  131.4593  130.5706  151.4558 H   0  0  0  0  0  0  0  0  0  0  0  0
  132.0160  129.1718  152.2014 H   0  0  0  0  0  0  0  0  0  0  0  0
  130.5144  132.4146  152.6942 H   0  0  0  0  0  0  0  0  0  0  0  0
  129.8937  133.3402  154.8860 H   0  0  0  0  0  0  0  0  0  0  0  0
  129.7135  130.3838  158.4530 H   0  0  0  0  0  0  0  0  0  0  0  0
  129.4118  135.6065  159.1077 H   0  0  0  0  0  0  0  0  0  0  0  0
  130.1453  133.8338  161.3787 H   0  0  0  0  0  0  0  0  0  0  0  0
  127.3721  134.0898  160.4639 H   0  0  0  0  0  0  0  0  0  0  0  0
  125.3528  136.3768  163.4437 H   0  0  0  0  0  0  0  0  0  0  0  0
  127.5074  137.2736  164.2159 H   0  0  0  0  0  0  0  0  0  0  0  0
  131.1147  135.0950  163.3813 H   0  0  0  0  0  0  0  0  0  0  0  0
  131.8974  136.6737  163.1139 H   0  0  0  0  0  0  0  0  0  0  0  0
  132.5185  134.2544  161.4321 H   0  0  0  0  0  0  0  0  0  0  0  0
  132.1746  135.7303  158.9556 H   0  0  0  0  0  0  0  0  0  0  0  0
  133.3497  137.1206  159.3370 H   0  0  0  0  0  0  0  0  0  0  0  0
  135.1643  138.7063  159.8170 H   0  0  0  0  0  0  0  0  0  0  0  0
  136.3455  138.6452  161.9469 H   0  0  0  0  0  0  0  0  0  0  0  0
  136.6472  137.6222  164.1861 H   0  0  0  0  0  0  0  0  0  0  0  0
  135.9757  135.9573  165.8320 H   0  0  0  0  0  0  0  0  0  0  0  0
  134.1543  134.3779  165.3559 H   0  0  0  0  0  0  0  0  0  0  0  0
  132.9728  134.4392  163.2270 H   0  0  0  0  0  0  0  0  0  0  0  0
  131.3229  129.7765  156.7886 H   0  0  0  0  0  0  0  0  0  0  0  0
  131.9329  128.8533  154.5926 H   0  0  0  0  0  0  0  0  0  0  0  0
  1  2  1  0
  1 40  1  0
  1 41  1  0
  2 39  2  0
  2  3  1  0
  3  4  2  0
  3 42  1  0
  4  5  1  0
  4 43  1  0
  5  6  1  0
  5 38  2  0
  6 36  1  0
  6  7  2  0
  7  8  1  0
  7 44  1  0
  8  9  1  0
  8 10  1  0
 10 11  1  0
 10 36  2  0
 11 12  1  0
 11 45  1  0
 12 22  1  0
 12 13  1  0
 12 46  1  1
 13 19  1  0
 13 14  2  0
 14 15  1  0
 14 47  1  0
 15 16  1  0
 15 17  2  0
 17 18  1  0
 17 48  1  0
 18 19  2  0
 18 49  1  0
 19 20  1  0
 20 21  1  0
 21 22  1  0
 21 50  1  0
 21 51  1  0
 22 23  1  6
 22 24  1  0
 24 25  1  0
 24 26  1  0
 24 52  1  1
 25 53  1  0
 26 35  1  0
 26 27  2  0
 27 28  1  0
 27 54  1  0
 28 29  2  0
 28 55  1  0
 29 30  1  0
 29 56  1  0
 30 35  2  0
 30 31  1  0
 31 32  2  0
 31 57  1  0
 32 33  1  0
 32 58  1  0
 33 34  2  0
 33 59  1  0
 34 35  1  0
 34 60  1  0
 36 37  1  0
 38 39  1  0
 38 61  1  0
 39 62  1  0
M  CHG  1  36   1
M  END
>  <DOCK_score>  (1) 
-55.908722

>  <SMILES>  (1) 
Nc1ccc(-c2c[nH]c(NC3c4cc(Cl)ccc4OC[C@H]3C(O)c3cccc4ccccc34)[nH+]2)cc1

$$$$
