[NH3+][C@@H](C(=O)Nc1cccc(O)c1)c1cccc(NCc2cccc3c2NC(=O)CO3)c1
     RDKit          3D

 54 57  0  0  1  0  0  0  0  0999 V2000
  130.6705  134.2230  157.6404 N   0  0  0  0  0  0  0  0  0  0  0  0
  130.8182  133.2385  157.8048 H   0  0  0  0  0  0  0  0  0  0  0  0
  130.0420  134.3430  156.8603 H   0  0  0  0  0  0  0  0  0  0  0  0
  131.5530  134.6655  157.4326 H   0  0  0  0  0  0  0  0  0  0  0  0
  130.0852  134.8373  158.8397 C   0  0  1  0  0  0  0  0  0  0  0  0
  129.9255  135.9008  158.6621 H   0  0  0  0  0  0  0  0  0  0  0  0
  128.7669  134.1763  159.1502 C   0  0  0  0  0  0  0  0  0  0  0  0
  128.3555  133.2817  158.4422 O   0  0  0  0  0  0  0  0  0  0  0  0
  128.0426  134.5831  160.2115 N   0  0  0  0  0  0  0  0  0  0  0  0
  126.8161  133.9732  160.4966 C   0  0  0  0  0  0  0  0  0  0  0  0
  126.6044  132.6434  160.1549 C   0  0  0  0  0  0  0  0  0  0  0  0
  125.3955  132.0397  160.4416 C   0  0  0  0  0  0  0  0  0  0  0  0
  124.3897  132.7597  161.0583 C   0  0  0  0  0  0  0  0  0  0  0  0
  124.5935  134.0899  161.3966 C   0  0  0  0  0  0  0  0  0  0  0  0
  123.6035  134.7967  162.0025 O   0  0  0  0  0  0  0  0  0  0  0  0
  125.8074  134.6976  161.1158 C   0  0  0  0  0  0  0  0  0  0  0  0
  131.0239  134.6578  160.0049 C   0  0  0  0  0  0  0  0  0  0  0  0
  130.9199  133.5380  160.8097 C   0  0  0  0  0  0  0  0  0  0  0  0
  131.7828  133.3668  161.8764 C   0  0  0  0  0  0  0  0  0  0  0  0
  132.7448  134.3199  162.1484 C   0  0  0  0  0  0  0  0  0  0  0  0
  132.8483  135.4487  161.3456 C   0  0  0  0  0  0  0  0  0  0  0  0
  133.8195  136.4147  161.6181 N   0  0  0  0  0  0  0  0  0  0  0  0
  133.6716  137.7722  161.0875 C   0  0  0  0  0  0  0  0  0  0  0  0
  134.3268  138.7525  162.0260 C   0  0  0  0  0  0  0  0  0  0  0  0
  135.1417  139.7525  161.5263 C   0  0  0  0  0  0  0  0  0  0  0  0
  135.7395  140.6561  162.3848 C   0  0  0  0  0  0  0  0  0  0  0  0
  135.5360  140.5605  163.7499 C   0  0  0  0  0  0  0  0  0  0  0  0
  134.7264  139.5600  164.2575 C   0  0  0  0  0  0  0  0  0  0  0  0
  134.1195  138.6514  163.3913 C   0  0  0  0  0  0  0  0  0  0  0  0
  133.3031  137.6412  163.9193 N   0  0  0  0  0  0  0  0  0  0  0  0
  132.8681  137.7504  165.1937 C   0  0  0  0  0  0  0  0  0  0  0  0
  132.1864  136.8737  165.6815 O   0  0  0  0  0  0  0  0  0  0  0  0
  133.2337  138.9659  166.0071 C   0  0  0  0  0  0  0  0  0  0  0  0
  134.5143  139.4516  165.5963 O   0  0  0  0  0  0  0  0  0  0  0  0
  131.9832  135.6147  160.2712 C   0  0  0  0  0  0  0  0  0  0  0  0
  128.3718  135.2986  160.7778 H   0  0  0  0  0  0  0  0  0  0  0  0
  127.3872  132.0799  159.6690 H   0  0  0  0  0  0  0  0  0  0  0  0
  125.2343  131.0047  160.1790 H   0  0  0  0  0  0  0  0  0  0  0  0
  123.4441  132.2863  161.2774 H   0  0  0  0  0  0  0  0  0  0  0  0
  123.8387  135.7139  162.1990 H   0  0  0  0  0  0  0  0  0  0  0  0
  125.9679  135.7327  161.3786 H   0  0  0  0  0  0  0  0  0  0  0  0
  130.1656  132.7934  160.6022 H   0  0  0  0  0  0  0  0  0  0  0  0
  131.7017  132.4889  162.5003 H   0  0  0  0  0  0  0  0  0  0  0  0
  133.4153  134.1880  162.9846 H   0  0  0  0  0  0  0  0  0  0  0  0
  134.5920  136.1868  162.1587 H   0  0  0  0  0  0  0  0  0  0  0  0
  134.1466  137.8333  160.1083 H   0  0  0  0  0  0  0  0  0  0  0  0
  132.6124  138.0120  160.9930 H   0  0  0  0  0  0  0  0  0  0  0  0
  135.3081  139.8297  160.4621 H   0  0  0  0  0  0  0  0  0  0  0  0
  136.3716  141.4370  161.9885 H   0  0  0  0  0  0  0  0  0  0  0  0
  136.0082  141.2654  164.4181 H   0  0  0  0  0  0  0  0  0  0  0  0
  133.0542  136.8758  163.3780 H   0  0  0  0  0  0  0  0  0  0  0  0
  133.2685  138.6987  167.0631 H   0  0  0  0  0  0  0  0  0  0  0  0
  132.4846  139.7430  165.8540 H   0  0  0  0  0  0  0  0  0  0  0  0
  132.0612  136.4910  159.6448 H   0  0  0  0  0  0  0  0  0  0  0  0
  1  2  1  0
  1  3  1  0
  1  4  1  0
  1  5  1  0
  5  6  1  6
  5  7  1  0
  5 17  1  0
  7  8  2  0
  7  9  1  0
  9 10  1  0
  9 36  1  0
 10 16  1  0
 10 11  2  0
 11 12  1  0
 11 37  1  0
 12 13  2  0
 12 38  1  0
 13 14  1  0
 13 39  1  0
 14 15  1  0
 14 16  2  0
 15 40  1  0
 16 41  1  0
 17 35  1  0
 17 18  2  0
 18 19  1  0
 18 42  1  0
 19 20  2  0
 19 43  1  0
 20 21  1  0
 20 44  1  0
 21 22  1  0
 21 35  2  0
 22 23  1  0
 22 45  1  0
 23 24  1  0
 23 46  1  0
 23 47  1  0
 24 29  1  0
 24 25  2  0
 25 26  1  0
 25 48  1  0
 26 27  2  0
 26 49  1  0
 27 28  1  0
 27 50  1  0
 28 34  1  0
 28 29  2  0
 29 30  1  0
 30 31  1  0
 30 51  1  0
 31 32  2  0
 31 33  1  0
 33 34  1  0
 33 52  1  0
 33 53  1  0
 35 54  1  0
M  CHG  1   1   1
M  END
>  <DOCK_score>  (1) 
-46.804268

>  <SMILES>  (1) 
[NH3+][C@@H](C(=O)Nc1cccc(O)c1)c1cccc(NCc2cccc3c2NC(=O)CO3)c1

$$$$
