ClCc1c(Br)cccc1N1CC[NH+](C(c2ccccc2)c2ccccc2)CC1
     RDKit          3D

 53 56  0  0  0  0  0  0  0  0999 V2000
  132.1814  139.5375  163.8016 Cl  0  0  0  0  0  0  0  0  0  0  0  0
  133.6459  138.6174  163.2923 C   0  0  0  0  0  0  0  0  0  0  0  0
  134.1366  139.1465  161.9692 C   0  0  0  0  0  0  0  0  0  0  0  0
  135.0560  140.1780  161.9344 C   0  0  0  0  0  0  0  0  0  0  0  0
  135.6989  140.9252  163.5481 Br  0  0  0  0  0  0  0  0  0  0  0  0
  135.5065  140.6638  160.7198 C   0  0  0  0  0  0  0  0  0  0  0  0
  135.0383  140.1202  159.5377 C   0  0  0  0  0  0  0  0  0  0  0  0
  134.1198  139.0896  159.5657 C   0  0  0  0  0  0  0  0  0  0  0  0
  133.6652  138.5986  160.7834 C   0  0  0  0  0  0  0  0  0  0  0  0
  132.7357  137.5566  160.8148 N   0  0  0  0  0  0  0  0  0  0  0  0
  133.2991  136.3304  160.2321 C   0  0  0  0  0  0  0  0  0  0  0  0
  132.2734  135.2000  160.3396 C   0  0  0  0  0  0  0  0  0  0  0  0
  131.0468  135.5823  159.6275 N   0  0  0  0  0  0  0  0  0  0  0  0
  131.2629  135.7624  158.6585 H   0  0  0  0  0  0  0  0  0  0  0  0
  130.0690  134.4896  159.7156 C   0  0  0  0  0  0  0  0  0  0  0  0
  128.8105  134.8815  158.9851 C   0  0  0  0  0  0  0  0  0  0  0  0
  127.5891  134.3801  159.3946 C   0  0  0  0  0  0  0  0  0  0  0  0
  126.4341  134.7433  158.7276 C   0  0  0  0  0  0  0  0  0  0  0  0
  126.5017  135.5998  157.6446 C   0  0  0  0  0  0  0  0  0  0  0  0
  127.7237  136.0971  157.2319 C   0  0  0  0  0  0  0  0  0  0  0  0
  128.8781  135.7379  157.9022 C   0  0  0  0  0  0  0  0  0  0  0  0
  130.6470  133.2466  159.0895 C   0  0  0  0  0  0  0  0  0  0  0  0
  130.4519  132.9957  157.7442 C   0  0  0  0  0  0  0  0  0  0  0  0
  130.9861  131.8579  157.1688 C   0  0  0  0  0  0  0  0  0  0  0  0
  131.7065  130.9658  157.9409 C   0  0  0  0  0  0  0  0  0  0  0  0
  131.8971  131.2142  159.2874 C   0  0  0  0  0  0  0  0  0  0  0  0
  131.3673  132.3546  159.8616 C   0  0  0  0  0  0  0  0  0  0  0  0
  130.4826  136.7940  160.2364 C   0  0  0  0  0  0  0  0  0  0  0  0
  131.4935  137.9378  160.1280 C   0  0  0  0  0  0  0  0  0  0  0  0
  133.3946  137.5617  163.1909 H   0  0  0  0  0  0  0  0  0  0  0  0
  134.4277  138.7344  164.0428 H   0  0  0  0  0  0  0  0  0  0  0  0
  136.2252  141.4697  160.6951 H   0  0  0  0  0  0  0  0  0  0  0  0
  135.3918  140.5020  158.5912 H   0  0  0  0  0  0  0  0  0  0  0  0
  133.7515  138.6684  158.6419 H   0  0  0  0  0  0  0  0  0  0  0  0
  133.5407  136.5039  159.1835 H   0  0  0  0  0  0  0  0  0  0  0  0
  134.2039  136.0533  160.7731 H   0  0  0  0  0  0  0  0  0  0  0  0
  132.0423  135.0177  161.3892 H   0  0  0  0  0  0  0  0  0  0  0  0
  132.6839  134.2934  159.8952 H   0  0  0  0  0  0  0  0  0  0  0  0
  129.8357  134.2942  160.7623 H   0  0  0  0  0  0  0  0  0  0  0  0
  127.5368  133.7074  160.2379 H   0  0  0  0  0  0  0  0  0  0  0  0
  125.4795  134.3545  159.0497 H   0  0  0  0  0  0  0  0  0  0  0  0
  125.5998  135.8802  157.1207 H   0  0  0  0  0  0  0  0  0  0  0  0
  127.7767  136.7660  156.3857 H   0  0  0  0  0  0  0  0  0  0  0  0
  129.8329  136.1263  157.5796 H   0  0  0  0  0  0  0  0  0  0  0  0
  129.8853  133.6903  157.1418 H   0  0  0  0  0  0  0  0  0  0  0  0
  130.8369  131.6637  156.1169 H   0  0  0  0  0  0  0  0  0  0  0  0
  132.1201  130.0748  157.4924 H   0  0  0  0  0  0  0  0  0  0  0  0
  132.4597  130.5171  159.8907 H   0  0  0  0  0  0  0  0  0  0  0  0
  131.5159  132.5484  160.9136 H   0  0  0  0  0  0  0  0  0  0  0  0
  130.2608  136.6036  161.2865 H   0  0  0  0  0  0  0  0  0  0  0  0
  129.5655  137.0693  159.7154 H   0  0  0  0  0  0  0  0  0  0  0  0
  131.0810  138.8332  160.5931 H   0  0  0  0  0  0  0  0  0  0  0  0
  131.7053  138.1378  159.0778 H   0  0  0  0  0  0  0  0  0  0  0  0
  1  2  1  0
  2  3  1  0
  2 30  1  0
  2 31  1  0
  3  9  2  0
  3  4  1  0
  4  5  1  0
  4  6  2  0
  6  7  1  0
  6 32  1  0
  7  8  2  0
  7 33  1  0
  8  9  1  0
  8 34  1  0
  9 10  1  0
 10 29  1  0
 10 11  1  0
 11 12  1  0
 11 35  1  0
 11 36  1  0
 12 13  1  0
 12 37  1  0
 12 38  1  0
 13 14  1  0
 13 15  1  0
 13 28  1  0
 15 16  1  0
 15 22  1  0
 15 39  1  0
 16 21  1  0
 16 17  2  0
 17 18  1  0
 17 40  1  0
 18 19  2  0
 18 41  1  0
 19 20  1  0
 19 42  1  0
 20 21  2  0
 20 43  1  0
 21 44  1  0
 22 27  1  0
 22 23  2  0
 23 24  1  0
 23 45  1  0
 24 25  2  0
 24 46  1  0
 25 26  1  0
 25 47  1  0
 26 27  2  0
 26 48  1  0
 27 49  1  0
 28 29  1  0
 28 50  1  0
 28 51  1  0
 29 52  1  0
 29 53  1  0
M  CHG  1  13   1
M  END
>  <DOCK_score>  (1) 
-56.127136

>  <SMILES>  (1) 
ClCc1c(Br)cccc1N1CC[NH+](C(c2ccccc2)c2ccccc2)CC1

$$$$
