C=CCC(C[C@H]1CCC=CC1CBr)Nc1[nH]cc(-c2ccc(CC)cc2)[nH+]1
     RDKit          3D

 58 60  0  0  1  0  0  0  0  0999 V2000
  126.5938  134.4921  160.4100 C   0  0  0  0  0  0  0  0  0  0  0  0
  127.2669  135.1001  159.4648 C   0  0  0  0  0  0  0  0  0  0  0  0
  128.3230  136.1133  159.8242 C   0  0  0  0  0  0  0  0  0  0  0  0
  129.6728  135.4099  159.9796 C   0  0  2  0  0  0  0  0  0  0  0  0
  130.6144  136.2896  160.8045 C   0  0  0  0  0  0  0  0  0  0  0  0
  131.7414  135.4300  161.3805 C   0  0  1  0  0  0  0  0  0  0  0  0
  131.3202  134.6531  162.0186 H   0  0  0  0  0  0  0  0  0  0  0  0
  132.5370  134.7888  160.2365 C   0  0  0  0  0  0  0  0  0  0  0  0
  133.5382  133.8001  160.8376 C   0  0  0  0  0  0  0  0  0  0  0  0
  134.3042  134.4524  161.9511 C   0  0  0  0  0  0  0  0  0  0  0  0
  133.9337  135.5410  162.5455 C   0  0  0  0  0  0  0  0  0  0  0  0
  132.6915  136.3079  162.1980 C   0  0  2  0  0  0  0  0  0  0  0  0
  131.9920  136.7505  163.4848 C   0  0  0  0  0  0  0  0  0  0  0  0
  131.4916  135.1668  164.5367 Br  0  0  0  0  0  0  0  0  0  0  0  0
  130.2568  135.1763  158.6564 N   0  0  0  0  0  0  0  0  0  0  0  0
  129.9843  134.0013  157.9771 C   0  0  0  0  0  0  0  0  0  0  0  0
  129.1936  132.9897  158.4286 N   0  0  0  0  0  0  0  0  0  0  0  0
  128.7240  132.9625  159.2770 H   0  0  0  0  0  0  0  0  0  0  0  0
  129.1799  132.0163  157.4594 C   0  0  0  0  0  0  0  0  0  0  0  0
  129.9685  132.4569  156.4480 C   0  0  0  0  0  0  0  0  0  0  0  0
  130.2540  131.7333  155.1851 C   0  0  0  0  0  0  0  0  0  0  0  0
  129.9104  132.3021  153.9599 C   0  0  0  0  0  0  0  0  0  0  0  0
  130.1782  131.6241  152.7880 C   0  0  0  0  0  0  0  0  0  0  0  0
  130.7867  130.3826  152.8277 C   0  0  0  0  0  0  0  0  0  0  0  0
  131.0770  129.6474  151.5446 C   0  0  0  0  0  0  0  0  0  0  0  0
  129.8779  128.7714  151.1763 C   0  0  0  0  0  0  0  0  0  0  0  0
  131.1249  129.8106  154.0412 C   0  0  0  0  0  0  0  0  0  0  0  0
  130.8667  130.4818  155.2190 C   0  0  0  0  0  0  0  0  0  0  0  0
  130.4455  133.6792  156.7933 N   0  0  0  0  0  0  0  0  0  0  0  0
  131.0338  134.2273  156.2507 H   0  0  0  0  0  0  0  0  0  0  0  0
  125.8371  133.7660  160.1524 H   0  0  0  0  0  0  0  0  0  0  0  0
  126.7958  134.7170  161.4469 H   0  0  0  0  0  0  0  0  0  0  0  0
  127.0649  134.8752  158.4279 H   0  0  0  0  0  0  0  0  0  0  0  0
  128.0561  136.5989  160.7630 H   0  0  0  0  0  0  0  0  0  0  0  0
  128.3921  136.8618  159.0348 H   0  0  0  0  0  0  0  0  0  0  0  0
  129.5291  134.4559  160.4868 H   0  0  0  0  0  0  0  0  0  0  0  0
  131.0385  137.0653  160.1671 H   0  0  0  0  0  0  0  0  0  0  0  0
  130.0580  136.7528  161.6194 H   0  0  0  0  0  0  0  0  0  0  0  0
  131.8568  134.2608  159.5681 H   0  0  0  0  0  0  0  0  0  0  0  0
  133.0720  135.5613  159.6842 H   0  0  0  0  0  0  0  0  0  0  0  0
  134.2330  133.4738  160.0637 H   0  0  0  0  0  0  0  0  0  0  0  0
  132.9997  132.9361  161.2273 H   0  0  0  0  0  0  0  0  0  0  0  0
  135.2216  133.9849  162.2764 H   0  0  0  0  0  0  0  0  0  0  0  0
  134.5572  135.9206  163.3415 H   0  0  0  0  0  0  0  0  0  0  0  0
  132.9636  137.1871  161.6139 H   0  0  0  0  0  0  0  0  0  0  0  0
  132.6673  137.3761  164.0687 H   0  0  0  0  0  0  0  0  0  0  0  0
  131.0960  137.3184  163.2344 H   0  0  0  0  0  0  0  0  0  0  0  0
  130.8344  135.8450  158.2563 H   0  0  0  0  0  0  0  0  0  0  0  0
  128.6450  131.0789  157.4966 H   0  0  0  0  0  0  0  0  0  0  0  0
  129.4359  133.2718  153.9277 H   0  0  0  0  0  0  0  0  0  0  0  0
  129.9123  132.0639  151.8381 H   0  0  0  0  0  0  0  0  0  0  0  0
  131.9584  129.0199  151.6768 H   0  0  0  0  0  0  0  0  0  0  0  0
  131.2598  130.3672  150.7469 H   0  0  0  0  0  0  0  0  0  0  0  0
  128.9965  129.3988  151.0442 H   0  0  0  0  0  0  0  0  0  0  0  0
  129.6952  128.0515  151.9742 H   0  0  0  0  0  0  0  0  0  0  0  0
  130.0879  128.2397  150.2482 H   0  0  0  0  0  0  0  0  0  0  0  0
  131.5955  128.8390  154.0665 H   0  0  0  0  0  0  0  0  0  0  0  0
  131.1348  130.0362  156.1656 H   0  0  0  0  0  0  0  0  0  0  0  0
  1  2  2  0
  1 31  1  0
  1 32  1  0
  2  3  1  0
  2 33  1  0
  3  4  1  0
  3 34  1  0
  3 35  1  0
  4  5  1  0
  4 15  1  0
  4 36  1  1
  5  6  1  0
  5 37  1  0
  5 38  1  0
  6  7  1  1
  6 12  1  0
  6  8  1  0
  8  9  1  0
  8 39  1  0
  8 40  1  0
  9 10  1  0
  9 41  1  0
  9 42  1  0
 10 11  2  0
 10 43  1  0
 11 12  1  0
 11 44  1  0
 12 13  1  0
 12 45  1  6
 13 14  1  0
 13 46  1  0
 13 47  1  0
 15 48  1  0
 16 15  1  0
 16 29  2  0
 16 17  1  0
 17 18  1  0
 17 19  1  0
 19 20  2  0
 19 49  1  0
 20 21  1  0
 20 29  1  0
 21 28  1  0
 21 22  2  0
 22 23  1  0
 22 50  1  0
 23 24  2  0
 23 51  1  0
 24 25  1  0
 24 27  1  0
 25 26  1  0
 25 52  1  0
 25 53  1  0
 26 54  1  0
 26 55  1  0
 26 56  1  0
 27 28  2  0
 27 57  1  0
 28 58  1  0
 29 30  1  0
M  CHG  1  29   1
M  END
>  <DOCK_score>  (1) 
-59.707584

>  <SMILES>  (1) 
C=CCC(C[C@H]1CCC=CC1CBr)Nc1[nH]cc(-c2ccc(CC)cc2)[nH+]1

$$$$
