O=C1CC[C@H](NC(NC2CCCCCC2)=[NH+]Cc2ncccc2N[C@@H]2C=C[C@@H](O)[C@H]2O)CN1
     RDKit          3D

 70 73  0  0  1  0  0  0  0  0999 V2000
  123.7071  133.9362  161.5109 O   0  0  0  0  0  0  0  0  0  0  0  0
  124.8847  134.1866  161.3640 C   0  0  0  0  0  0  0  0  0  0  0  0
  125.8000  133.0746  160.9384 C   0  0  0  0  0  0  0  0  0  0  0  0
  127.2535  133.4568  161.2285 C   0  0  0  0  0  0  0  0  0  0  0  0
  127.5035  134.8655  160.6768 C   0  0  2  0  0  0  0  0  0  0  0  0
  127.1962  134.9090  159.6318 H   0  0  0  0  0  0  0  0  0  0  0  0
  128.9282  135.1897  160.7839 N   0  0  0  0  0  0  0  0  0  0  0  0
  129.7823  134.8846  159.7506 C   0  0  0  0  0  0  0  0  0  0  0  0
  129.2993  134.2751  158.6167 N   0  0  0  0  0  0  0  0  0  0  0  0
  130.1631  133.3815  157.8412 C   0  0  0  0  0  0  0  0  0  0  0  0
  129.3925  132.8991  156.5952 C   0  0  0  0  0  0  0  0  0  0  0  0
  130.3894  132.4295  155.5695 C   0  0  0  0  0  0  0  0  0  0  0  0
  130.6409  130.9114  155.6466 C   0  0  0  0  0  0  0  0  0  0  0  0
  130.7526  130.3971  157.0946 C   0  0  0  0  0  0  0  0  0  0  0  0
  131.5550  131.3190  157.9726 C   0  0  0  0  0  0  0  0  0  0  0  0
  130.5848  132.2785  158.6918 C   0  0  0  0  0  0  0  0  0  0  0  0
  131.0497  135.1732  159.8459 N   0  0  0  0  0  0  0  0  0  0  0  0
  131.6522  134.9578  159.1167 H   0  0  0  0  0  0  0  0  0  0  0  0
  131.5645  135.8228  161.0538 C   0  0  0  0  0  0  0  0  0  0  0  0
  130.8740  137.1488  161.2441 C   0  0  0  0  0  0  0  0  0  0  0  0
  129.7646  137.2108  161.9535 N   0  0  0  0  0  0  0  0  0  0  0  0
  129.1266  138.3483  162.1471 C   0  0  0  0  0  0  0  0  0  0  0  0
  129.6008  139.5299  161.6081 C   0  0  0  0  0  0  0  0  0  0  0  0
  130.7633  139.5118  160.8556 C   0  0  0  0  0  0  0  0  0  0  0  0
  131.4158  138.2941  160.6752 C   0  0  0  0  0  0  0  0  0  0  0  0
  132.5946  138.2252  159.9284 N   0  0  0  0  0  0  0  0  0  0  0  0
  133.5035  139.3734  159.8868 C   0  0  2  0  0  0  0  0  0  0  0  0
  132.9942  140.2452  159.4760 H   0  0  0  0  0  0  0  0  0  0  0  0
  134.7292  139.0449  159.0666 C   0  0  0  0  0  0  0  0  0  0  0  0
  135.8169  139.4487  159.6647 C   0  0  0  0  0  0  0  0  0  0  0  0
  135.4979  140.1140  160.9832 C   0  0  1  0  0  0  0  0  0  0  0  0
  136.1789  139.7646  161.7594 H   0  0  0  0  0  0  0  0  0  0  0  0
  135.5767  141.5351  160.8559 O   0  0  0  0  0  0  0  0  0  0  0  0
  134.0453  139.6831  161.3016 C   0  0  1  0  0  0  0  0  0  0  0  0
  134.0306  138.7925  161.9297 H   0  0  0  0  0  0  0  0  0  0  0  0
  133.3131  140.7492  161.9093 O   0  0  0  0  0  0  0  0  0  0  0  0
  126.6866  135.8672  161.4939 C   0  0  0  0  0  0  0  0  0  0  0  0
  125.2975  135.4344  161.5891 N   0  0  0  0  0  0  0  0  0  0  0  0
  125.6791  132.8948  159.8703 H   0  0  0  0  0  0  0  0  0  0  0  0
  125.5476  132.1676  161.4879 H   0  0  0  0  0  0  0  0  0  0  0  0
  127.9235  132.7479  160.7418 H   0  0  0  0  0  0  0  0  0  0  0  0
  127.4284  133.4477  162.3042 H   0  0  0  0  0  0  0  0  0  0  0  0
  129.2682  135.6231  161.5822 H   0  0  0  0  0  0  0  0  0  0  0  0
  128.3869  134.4370  158.3303 H   0  0  0  0  0  0  0  0  0  0  0  0
  131.0446  133.9354  157.5184 H   0  0  0  0  0  0  0  0  0  0  0  0
  128.7315  132.0768  156.8690 H   0  0  0  0  0  0  0  0  0  0  0  0
  128.8070  133.7221  156.1854 H   0  0  0  0  0  0  0  0  0  0  0  0
  131.3328  132.9517  155.7285 H   0  0  0  0  0  0  0  0  0  0  0  0
  130.0141  132.6747  154.5759 H   0  0  0  0  0  0  0  0  0  0  0  0
  131.5667  130.6812  155.1194 H   0  0  0  0  0  0  0  0  0  0  0  0
  129.8179  130.3948  155.1528 H   0  0  0  0  0  0  0  0  0  0  0  0
  131.2285  129.4166  157.0849 H   0  0  0  0  0  0  0  0  0  0  0  0
  129.7506  130.2967  157.5115 H   0  0  0  0  0  0  0  0  0  0  0  0
  132.2514  131.8928  157.3612 H   0  0  0  0  0  0  0  0  0  0  0  0
  132.1086  130.7374  158.7098 H   0  0  0  0  0  0  0  0  0  0  0  0
  131.0786  132.6827  159.5753 H   0  0  0  0  0  0  0  0  0  0  0  0
  129.7043  131.7179  159.0054 H   0  0  0  0  0  0  0  0  0  0  0  0
  131.3739  135.1865  161.9179 H   0  0  0  0  0  0  0  0  0  0  0  0
  132.6376  135.9836  160.9506 H   0  0  0  0  0  0  0  0  0  0  0  0
  128.2204  138.3571  162.7347 H   0  0  0  0  0  0  0  0  0  0  0  0
  129.0709  140.4566  161.7723 H   0  0  0  0  0  0  0  0  0  0  0  0
  131.1565  140.4196  160.4226 H   0  0  0  0  0  0  0  0  0  0  0  0
  132.8111  137.4171  159.4375 H   0  0  0  0  0  0  0  0  0  0  0  0
  134.7083  138.5417  158.1112 H   0  0  0  0  0  0  0  0  0  0  0  0
  136.8140  139.3236  159.2690 H   0  0  0  0  0  0  0  0  0  0  0  0
  135.3596  142.0151  161.6667 H   0  0  0  0  0  0  0  0  0  0  0  0
  132.3690  140.5683  162.0141 H   0  0  0  0  0  0  0  0  0  0  0  0
  127.1078  135.9427  162.4964 H   0  0  0  0  0  0  0  0  0  0  0  0
  126.7303  136.8447  161.0135 H   0  0  0  0  0  0  0  0  0  0  0  0
  124.6312  136.0973  161.8293 H   0  0  0  0  0  0  0  0  0  0  0  0
  1  2  2  0
  2 38  1  0
  2  3  1  0
  3  4  1  0
  3 39  1  0
  3 40  1  0
  4  5  1  0
  4 41  1  0
  4 42  1  0
  5  6  1  6
  5  7  1  0
  5 37  1  0
  7 43  1  0
  8  7  1  0
  8  9  1  0
  8 17  2  0
  9 10  1  0
  9 44  1  0
 10 16  1  0
 10 11  1  0
 10 45  1  0
 11 12  1  0
 11 46  1  0
 11 47  1  0
 12 13  1  0
 12 48  1  0
 12 49  1  0
 13 14  1  0
 13 50  1  0
 13 51  1  0
 14 15  1  0
 14 52  1  0
 14 53  1  0
 15 16  1  0
 15 54  1  0
 15 55  1  0
 16 56  1  0
 16 57  1  0
 17 18  1  0
 17 19  1  0
 19 20  1  0
 19 58  1  0
 19 59  1  0
 20 25  1  0
 20 21  2  0
 21 22  1  0
 22 23  2  0
 22 60  1  0
 23 24  1  0
 23 61  1  0
 24 25  2  0
 24 62  1  0
 25 26  1  0
 26 27  1  0
 26 63  1  0
 27 28  1  6
 27 34  1  0
 27 29  1  0
 29 30  2  0
 29 64  1  0
 30 31  1  0
 30 65  1  0
 31 32  1  1
 31 33  1  0
 31 34  1  0
 33 66  1  0
 34 35  1  1
 34 36  1  0
 36 67  1  0
 37 38  1  0
 37 68  1  0
 37 69  1  0
 38 70  1  0
M  CHG  1  17   1
M  END
>  <DOCK_score>  (1) 
-56.035141

>  <SMILES>  (1) 
O=C1CC[C@H](NC(NC2CCCCCC2)=[NH+]Cc2ncccc2N[C@@H]2C=C[C@@H](O)[C@H]2O)CN1

$$$$
