c1ccc(C[C@@H](Nc2[nH]cc(-c3ccc(-c4ccncc4)cc3)[nH+]2)c2ccccc2)cc1
     RDKit          3D

 57 61  0  0  1  0  0  0  0  0999 V2000
  134.3779  140.0866  160.7125 C   0  0  0  0  0  0  0  0  0  0  0  0
  134.3956  139.5938  162.0039 C   0  0  0  0  0  0  0  0  0  0  0  0
  133.3394  138.8321  162.4677 C   0  0  0  0  0  0  0  0  0  0  0  0
  132.2655  138.5630  161.6400 C   0  0  0  0  0  0  0  0  0  0  0  0
  131.1143  137.7321  162.1454 C   0  0  0  0  0  0  0  0  0  0  0  0
  131.3864  136.2545  161.8569 C   0  0  1  0  0  0  0  0  0  0  0  0
  130.5538  135.6536  162.2225 H   0  0  0  0  0  0  0  0  0  0  0  0
  131.5333  136.0579  160.4126 N   0  0  0  0  0  0  0  0  0  0  0  0
  131.1725  134.8513  159.8380 C   0  0  0  0  0  0  0  0  0  0  0  0
  130.6657  133.7770  160.5025 N   0  0  0  0  0  0  0  0  0  0  0  0
  130.4947  133.7195  161.4556 H   0  0  0  0  0  0  0  0  0  0  0  0
  130.4419  132.7894  159.5753 C   0  0  0  0  0  0  0  0  0  0  0  0
  130.8181  133.2878  158.3707 C   0  0  0  0  0  0  0  0  0  0  0  0
  130.7549  132.5744  157.0730 C   0  0  0  0  0  0  0  0  0  0  0  0
  129.9774  133.0850  156.0333 C   0  0  0  0  0  0  0  0  0  0  0  0
  129.9230  132.4249  154.8259 C   0  0  0  0  0  0  0  0  0  0  0  0
  130.6363  131.2400  154.6461 C   0  0  0  0  0  0  0  0  0  0  0  0
  130.5721  130.5262  153.3482 C   0  0  0  0  0  0  0  0  0  0  0  0
  130.7146  129.1362  153.2854 C   0  0  0  0  0  0  0  0  0  0  0  0
  130.6429  128.5112  152.0577 C   0  0  0  0  0  0  0  0  0  0  0  0
  130.4543  129.2075  150.9531 N   0  0  0  0  0  0  0  0  0  0  0  0
  130.3208  130.5202  150.9680 C   0  0  0  0  0  0  0  0  0  0  0  0
  130.3740  131.2239  152.1532 C   0  0  0  0  0  0  0  0  0  0  0  0
  131.4096  130.7263  155.6872 C   0  0  0  0  0  0  0  0  0  0  0  0
  131.4685  131.3891  156.8929 C   0  0  0  0  0  0  0  0  0  0  0  0
  131.2573  134.5572  158.5637 N   0  0  0  0  0  0  0  0  0  0  0  0
  131.5835  135.1513  157.8697 H   0  0  0  0  0  0  0  0  0  0  0  0
  132.6544  135.8320  162.5529 C   0  0  0  0  0  0  0  0  0  0  0  0
  133.8690  135.9388  161.9014 C   0  0  0  0  0  0  0  0  0  0  0  0
  135.0327  135.5553  162.5415 C   0  0  0  0  0  0  0  0  0  0  0  0
  134.9809  135.0565  163.8297 C   0  0  0  0  0  0  0  0  0  0  0  0
  133.7658  134.9449  164.4793 C   0  0  0  0  0  0  0  0  0  0  0  0
  132.6026  135.3324  163.8408 C   0  0  0  0  0  0  0  0  0  0  0  0
  132.2501  139.0512  160.3468 C   0  0  0  0  0  0  0  0  0  0  0  0
  133.3039  139.8174  159.8848 C   0  0  0  0  0  0  0  0  0  0  0  0
  135.2031  140.6814  160.3500 H   0  0  0  0  0  0  0  0  0  0  0  0
  135.2349  139.8038  162.6503 H   0  0  0  0  0  0  0  0  0  0  0  0
  133.3535  138.4469  163.4765 H   0  0  0  0  0  0  0  0  0  0  0  0
  130.1971  138.0378  161.6421 H   0  0  0  0  0  0  0  0  0  0  0  0
  131.0050  137.8784  163.2200 H   0  0  0  0  0  0  0  0  0  0  0  0
  131.8797  136.7747  159.8584 H   0  0  0  0  0  0  0  0  0  0  0  0
  130.0426  131.8045  159.7678 H   0  0  0  0  0  0  0  0  0  0  0  0
  129.4212  134.0000  156.1740 H   0  0  0  0  0  0  0  0  0  0  0  0
  129.3240  132.8222  154.0198 H   0  0  0  0  0  0  0  0  0  0  0  0
  130.8742  128.5603  154.1851 H   0  0  0  0  0  0  0  0  0  0  0  0
  130.7474  127.4379  151.9994 H   0  0  0  0  0  0  0  0  0  0  0  0
  130.1683  131.0508  150.0397 H   0  0  0  0  0  0  0  0  0  0  0  0
  130.2644  132.2984  152.1581 H   0  0  0  0  0  0  0  0  0  0  0  0
  131.9620  129.8087  155.5480 H   0  0  0  0  0  0  0  0  0  0  0  0
  132.0666  130.9911  157.6994 H   0  0  0  0  0  0  0  0  0  0  0  0
  133.9091  136.3249  160.8936 H   0  0  0  0  0  0  0  0  0  0  0  0
  135.9821  135.6429  162.0342 H   0  0  0  0  0  0  0  0  0  0  0  0
  135.8898  134.7544  164.3288 H   0  0  0  0  0  0  0  0  0  0  0  0
  133.7253  134.5552  165.4857 H   0  0  0  0  0  0  0  0  0  0  0  0
  131.6532  135.2452  164.3483 H   0  0  0  0  0  0  0  0  0  0  0  0
  131.4129  138.8373  159.6988 H   0  0  0  0  0  0  0  0  0  0  0  0
  133.2901  140.2020  158.8756 H   0  0  0  0  0  0  0  0  0  0  0  0
  1 35  2  0
  1  2  1  0
  1 36  1  0
  2  3  2  0
  2 37  1  0
  3  4  1  0
  3 38  1  0
  4  5  1  0
  4 34  2  0
  5  6  1  0
  5 39  1  0
  5 40  1  0
  6  7  1  1
  6  8  1  0
  6 28  1  0
  8 41  1  0
  9  8  1  0
  9 26  2  0
  9 10  1  0
 10 11  1  0
 10 12  1  0
 12 13  2  0
 12 42  1  0
 13 14  1  0
 13 26  1  0
 14 25  1  0
 14 15  2  0
 15 16  1  0
 15 43  1  0
 16 17  2  0
 16 44  1  0
 17 18  1  0
 17 24  1  0
 18 23  1  0
 18 19  2  0
 19 20  1  0
 19 45  1  0
 20 21  2  0
 20 46  1  0
 21 22  1  0
 22 23  2  0
 22 47  1  0
 23 48  1  0
 24 25  2  0
 24 49  1  0
 25 50  1  0
 26 27  1  0
 28 33  1  0
 28 29  2  0
 29 30  1  0
 29 51  1  0
 30 31  2  0
 30 52  1  0
 31 32  1  0
 31 53  1  0
 32 33  2  0
 32 54  1  0
 33 55  1  0
 34 35  1  0
 34 56  1  0
 35 57  1  0
M  CHG  1  26   1
M  END
>  <DOCK_score>  (1) 
-57.034878

>  <SMILES>  (1) 
c1ccc(C[C@@H](Nc2[nH]cc(-c3ccc(-c4ccncc4)cc3)[nH+]2)c2ccccc2)cc1

$$$$
