Oc1cccc(-c2c[nH]c(N[C@@H](Cc3ccccc3)c3ccccc3)[nH+]2)c1
     RDKit          3D

 49 52  0  0  1  0  0  0  0  0999 V2000
  123.7299  134.7869  161.4467 O   0  0  0  0  0  0  0  0  0  0  0  0
  124.6796  133.9783  160.9072 C   0  0  0  0  0  0  0  0  0  0  0  0
  124.4391  132.6173  160.7752 C   0  0  0  0  0  0  0  0  0  0  0  0
  125.4019  131.7911  160.2266 C   0  0  0  0  0  0  0  0  0  0  0  0
  126.6062  132.3157  159.8017 C   0  0  0  0  0  0  0  0  0  0  0  0
  126.8580  133.6799  159.9362 C   0  0  0  0  0  0  0  0  0  0  0  0
  128.1536  134.2452  159.4862 C   0  0  0  0  0  0  0  0  0  0  0  0
  128.6471  134.2032  158.2238 C   0  0  0  0  0  0  0  0  0  0  0  0
  129.8615  134.8449  158.2490 N   0  0  0  0  0  0  0  0  0  0  0  0
  130.4557  134.9799  157.4943 H   0  0  0  0  0  0  0  0  0  0  0  0
  130.0784  135.2536  159.5290 C   0  0  0  0  0  0  0  0  0  0  0  0
  131.1939  135.9392  159.9784 N   0  0  0  0  0  0  0  0  0  0  0  0
  131.3004  136.3204  161.3888 C   0  0  1  0  0  0  0  0  0  0  0  0
  130.9265  135.5093  162.0136 H   0  0  0  0  0  0  0  0  0  0  0  0
  132.7654  136.5961  161.7334 C   0  0  0  0  0  0  0  0  0  0  0  0
  133.2820  137.7176  160.8695 C   0  0  0  0  0  0  0  0  0  0  0  0
  133.8632  137.4369  159.6471 C   0  0  0  0  0  0  0  0  0  0  0  0
  134.3375  138.4657  158.8547 C   0  0  0  0  0  0  0  0  0  0  0  0
  134.2296  139.7751  159.2843 C   0  0  0  0  0  0  0  0  0  0  0  0
  133.6529  140.0555  160.5089 C   0  0  0  0  0  0  0  0  0  0  0  0
  133.1750  139.0271  161.2995 C   0  0  0  0  0  0  0  0  0  0  0  0
  130.4838  137.5625  161.6364 C   0  0  0  0  0  0  0  0  0  0  0  0
  129.9063  137.7748  162.8744 C   0  0  0  0  0  0  0  0  0  0  0  0
  129.1605  138.9161  163.1027 C   0  0  0  0  0  0  0  0  0  0  0  0
  128.9853  139.8412  162.0905 C   0  0  0  0  0  0  0  0  0  0  0  0
  129.5584  139.6264  160.8511 C   0  0  0  0  0  0  0  0  0  0  0  0
  130.3074  138.4870  160.6239 C   0  0  0  0  0  0  0  0  0  0  0  0
  129.0542  134.8960  160.2646 N   0  0  0  0  0  0  0  0  0  0  0  0
  128.9557  135.0696  161.2138 H   0  0  0  0  0  0  0  0  0  0  0  0
  125.8871  134.5121  160.4890 C   0  0  0  0  0  0  0  0  0  0  0  0
  123.9879  135.7174  161.4972 H   0  0  0  0  0  0  0  0  0  0  0  0
  123.4967  132.2029  161.1015 H   0  0  0  0  0  0  0  0  0  0  0  0
  125.2100  130.7332  160.1260 H   0  0  0  0  0  0  0  0  0  0  0  0
  127.3549  131.6683  159.3695 H   0  0  0  0  0  0  0  0  0  0  0  0
  128.1743  133.7546  157.3627 H   0  0  0  0  0  0  0  0  0  0  0  0
  131.9051  136.1670  159.3593 H   0  0  0  0  0  0  0  0  0  0  0  0
  133.3560  135.6978  161.5542 H   0  0  0  0  0  0  0  0  0  0  0  0
  132.8445  136.8798  162.7829 H   0  0  0  0  0  0  0  0  0  0  0  0
  133.9471  136.4139  159.3112 H   0  0  0  0  0  0  0  0  0  0  0  0
  134.7919  138.2462  157.8999 H   0  0  0  0  0  0  0  0  0  0  0  0
  134.6003  140.5787  158.6653 H   0  0  0  0  0  0  0  0  0  0  0  0
  133.5726  141.0782  160.8465 H   0  0  0  0  0  0  0  0  0  0  0  0
  132.7212  139.2463  162.2546 H   0  0  0  0  0  0  0  0  0  0  0  0
  130.0403  137.0503  163.6640 H   0  0  0  0  0  0  0  0  0  0  0  0
  128.7124  139.0836  164.0709 H   0  0  0  0  0  0  0  0  0  0  0  0
  128.4004  140.7316  162.2681 H   0  0  0  0  0  0  0  0  0  0  0  0
  129.4212  140.3491  160.0602 H   0  0  0  0  0  0  0  0  0  0  0  0
  130.7551  138.3193  159.6556 H   0  0  0  0  0  0  0  0  0  0  0  0
  126.0754  135.5707  160.5909 H   0  0  0  0  0  0  0  0  0  0  0  0
  1  2  1  0
  1 31  1  0
  2 30  2  0
  2  3  1  0
  3  4  2  0
  3 32  1  0
  4  5  1  0
  4 33  1  0
  5  6  2  0
  5 34  1  0
  6  7  1  0
  6 30  1  0
  7 28  1  0
  7  8  2  0
  8  9  1  0
  8 35  1  0
  9 10  1  0
  9 11  1  0
 11 12  1  0
 11 28  2  0
 12 13  1  0
 12 36  1  0
 13 14  1  1
 13 15  1  0
 13 22  1  0
 15 16  1  0
 15 37  1  0
 15 38  1  0
 16 21  1  0
 16 17  2  0
 17 18  1  0
 17 39  1  0
 18 19  2  0
 18 40  1  0
 19 20  1  0
 19 41  1  0
 20 21  2  0
 20 42  1  0
 21 43  1  0
 22 27  1  0
 22 23  2  0
 23 24  1  0
 23 44  1  0
 24 25  2  0
 24 45  1  0
 25 26  1  0
 25 46  1  0
 26 27  2  0
 26 47  1  0
 27 48  1  0
 28 29  1  0
 30 49  1  0
M  CHG  1  28   1
M  END
>  <DOCK_score>  (1) 
-54.774204

>  <SMILES>  (1) 
Oc1cccc(-c2c[nH]c(N[C@@H](Cc3ccccc3)c3ccccc3)[nH+]2)c1

$$$$
