Cc1ccc(-c2ccc(-c3c[nH]c(N[C@@H](CO)c4ccc(-c5ccccc5)cc4)[nH+]3)cc2)cc1
     RDKit          3D

 62 66  0  0  1  0  0  0  0  0999 V2000
  126.8690  136.2179  171.6691 C   0  0  0  0  0  0  0  0  0  0  0  0
  127.3724  136.2116  170.2487 C   0  0  0  0  0  0  0  0  0  0  0  0
  128.3792  137.0818  169.8707 C   0  0  0  0  0  0  0  0  0  0  0  0
  128.8482  137.0764  168.5728 C   0  0  0  0  0  0  0  0  0  0  0  0
  128.3017  136.1957  167.6407 C   0  0  0  0  0  0  0  0  0  0  0  0
  128.8010  136.1856  166.2443 C   0  0  0  0  0  0  0  0  0  0  0  0
  128.7747  135.0047  165.5030 C   0  0  0  0  0  0  0  0  0  0  0  0
  129.2330  134.9964  164.2042 C   0  0  0  0  0  0  0  0  0  0  0  0
  129.7343  136.1667  163.6340 C   0  0  0  0  0  0  0  0  0  0  0  0
  130.2327  136.1566  162.2380 C   0  0  0  0  0  0  0  0  0  0  0  0
  131.2171  136.9438  161.7359 C   0  0  0  0  0  0  0  0  0  0  0  0
  131.3587  136.6087  160.4115 N   0  0  0  0  0  0  0  0  0  0  0  0
  131.9859  137.0004  159.7837 H   0  0  0  0  0  0  0  0  0  0  0  0
  130.4563  135.6260  160.1422 C   0  0  0  0  0  0  0  0  0  0  0  0
  130.2768  135.0105  158.9154 N   0  0  0  0  0  0  0  0  0  0  0  0
  129.2649  133.9622  158.7630 C   0  0  1  0  0  0  0  0  0  0  0  0
  129.2664  133.3245  159.6470 H   0  0  0  0  0  0  0  0  0  0  0  0
  127.8858  134.6043  158.5998 C   0  0  0  0  0  0  0  0  0  0  0  0
  127.3844  134.9884  159.8817 O   0  0  0  0  0  0  0  0  0  0  0  0
  129.5802  133.1329  157.5449 C   0  0  0  0  0  0  0  0  0  0  0  0
  129.6339  133.7312  156.2990 C   0  0  0  0  0  0  0  0  0  0  0  0
  129.9270  132.9773  155.1807 C   0  0  0  0  0  0  0  0  0  0  0  0
  130.1586  131.6092  155.3070 C   0  0  0  0  0  0  0  0  0  0  0  0
  130.4681  130.7924  154.1074 C   0  0  0  0  0  0  0  0  0  0  0  0
  131.2806  129.6659  154.2190 C   0  0  0  0  0  0  0  0  0  0  0  0
  131.5614  128.9072  153.1009 C   0  0  0  0  0  0  0  0  0  0  0  0
  131.0464  129.2691  151.8692 C   0  0  0  0  0  0  0  0  0  0  0  0
  130.2435  130.3893  151.7517 C   0  0  0  0  0  0  0  0  0  0  0  0
  129.9520  131.1523  152.8641 C   0  0  0  0  0  0  0  0  0  0  0  0
  130.0979  131.0107  156.5638 C   0  0  0  0  0  0  0  0  0  0  0  0
  129.8092  131.7751  157.6761 C   0  0  0  0  0  0  0  0  0  0  0  0
  129.7894  135.3545  161.2373 N   0  0  0  0  0  0  0  0  0  0  0  0
  129.0890  134.6884  161.3187 H   0  0  0  0  0  0  0  0  0  0  0  0
  129.7658  137.3465  164.3775 C   0  0  0  0  0  0  0  0  0  0  0  0
  129.3020  137.3558  165.6745 C   0  0  0  0  0  0  0  0  0  0  0  0
  127.2838  135.3249  168.0259 C   0  0  0  0  0  0  0  0  0  0  0  0
  126.8227  135.3391  169.3266 C   0  0  0  0  0  0  0  0  0  0  0  0
  126.0436  136.9242  171.7588 H   0  0  0  0  0  0  0  0  0  0  0  0
  126.5234  135.2193  171.9364 H   0  0  0  0  0  0  0  0  0  0  0  0
  127.6756  136.5147  172.3392 H   0  0  0  0  0  0  0  0  0  0  0  0
  128.8021  137.7634  170.5938 H   0  0  0  0  0  0  0  0  0  0  0  0
  129.6369  137.7536  168.2796 H   0  0  0  0  0  0  0  0  0  0  0  0
  128.3906  134.0976  165.9459 H   0  0  0  0  0  0  0  0  0  0  0  0
  129.2085  134.0829  163.6287 H   0  0  0  0  0  0  0  0  0  0  0  0
  131.7810  137.6911  162.2743 H   0  0  0  0  0  0  0  0  0  0  0  0
  130.8209  135.2733  158.1566 H   0  0  0  0  0  0  0  0  0  0  0  0
  127.9683  135.4853  157.9632 H   0  0  0  0  0  0  0  0  0  0  0  0
  127.2033  133.8881  158.1424 H   0  0  0  0  0  0  0  0  0  0  0  0
  126.5115  135.4035  159.8544 H   0  0  0  0  0  0  0  0  0  0  0  0
  129.4502  134.7910  156.2017 H   0  0  0  0  0  0  0  0  0  0  0  0
  129.9725  133.4462  154.2088 H   0  0  0  0  0  0  0  0  0  0  0  0
  131.6866  129.3848  155.1796 H   0  0  0  0  0  0  0  0  0  0  0  0
  132.1876  128.0315  153.1870 H   0  0  0  0  0  0  0  0  0  0  0  0
  131.2721  128.6750  150.9960 H   0  0  0  0  0  0  0  0  0  0  0  0
  129.8443  130.6676  150.7875 H   0  0  0  0  0  0  0  0  0  0  0  0
  129.3253  132.0271  152.7712 H   0  0  0  0  0  0  0  0  0  0  0  0
  130.2763  129.9505  156.6673 H   0  0  0  0  0  0  0  0  0  0  0  0
  129.7623  131.3122  158.6508 H   0  0  0  0  0  0  0  0  0  0  0  0
  130.1535  138.2528  163.9362 H   0  0  0  0  0  0  0  0  0  0  0  0
  129.3262  138.2693  166.2500 H   0  0  0  0  0  0  0  0  0  0  0  0
  126.8570  134.6402  167.3081 H   0  0  0  0  0  0  0  0  0  0  0  0
  126.0343  134.6645  169.6263 H   0  0  0  0  0  0  0  0  0  0  0  0
  1  2  1  0
  1 38  1  0
  1 39  1  0
  1 40  1  0
  2 37  2  0
  2  3  1  0
  3  4  2  0
  3 41  1  0
  4  5  1  0
  4 42  1  0
  5  6  1  0
  5 36  2  0
  6 35  1  0
  6  7  2  0
  7  8  1  0
  7 43  1  0
  8  9  2  0
  8 44  1  0
  9 10  1  0
  9 34  1  0
 10 32  1  0
 10 11  2  0
 11 12  1  0
 11 45  1  0
 12 13  1  0
 12 14  1  0
 14 15  1  0
 14 32  2  0
 15 16  1  0
 15 46  1  0
 16 17  1  1
 16 18  1  0
 16 20  1  0
 18 19  1  0
 18 47  1  0
 18 48  1  0
 19 49  1  0
 20 31  1  0
 20 21  2  0
 21 22  1  0
 21 50  1  0
 22 23  2  0
 22 51  1  0
 23 24  1  0
 23 30  1  0
 24 29  1  0
 24 25  2  0
 25 26  1  0
 25 52  1  0
 26 27  2  0
 26 53  1  0
 27 28  1  0
 27 54  1  0
 28 29  2  0
 28 55  1  0
 29 56  1  0
 30 31  2  0
 30 57  1  0
 31 58  1  0
 32 33  1  0
 34 35  2  0
 34 59  1  0
 35 60  1  0
 36 37  1  0
 36 61  1  0
 37 62  1  0
M  CHG  1  32   1
M  END
>  <DOCK_score>  (1) 
-57.865417

>  <SMILES>  (1) 
Cc1ccc(-c2ccc(-c3c[nH]c(N[C@@H](CO)c4ccc(-c5ccccc5)cc4)[nH+]3)cc2)cc1

$$$$
