Fc1ccc(-c2ccc3c(C[N@@H+]4CC=C(c5ccccc5)CC4)c[nH]c3c2)c(F)c1
     RDKit          3D

 53 57  0  0  1  0  0  0  0  0999 V2000
  130.6337  128.5224  151.3806 F   0  0  0  0  0  0  0  0  0  0  0  0
  130.5972  129.3030  152.4828 C   0  0  0  0  0  0  0  0  0  0  0  0
  129.7049  130.3613  152.5502 C   0  0  0  0  0  0  0  0  0  0  0  0
  129.6630  131.1619  153.6729 C   0  0  0  0  0  0  0  0  0  0  0  0
  130.5202  130.9059  154.7417 C   0  0  0  0  0  0  0  0  0  0  0  0
  130.4787  131.7639  155.9506 C   0  0  0  0  0  0  0  0  0  0  0  0
  130.1197  133.1113  155.8352 C   0  0  0  0  0  0  0  0  0  0  0  0
  130.0781  133.9114  156.9386 C   0  0  0  0  0  0  0  0  0  0  0  0
  130.3953  133.3852  158.1941 C   0  0  0  0  0  0  0  0  0  0  0  0
  130.4499  133.9471  159.5454 C   0  0  0  0  0  0  0  0  0  0  0  0
  130.1458  135.3702  159.9372 C   0  0  0  0  0  0  0  0  0  0  0  0
  131.3761  136.1701  159.8705 N   0  0  2  0  0  0  0  0  0  0  0  0
  131.7414  136.1523  158.9301 H   0  0  0  0  0  0  0  0  0  0  0  0
  132.3725  135.6165  160.7950 C   0  0  0  0  0  0  0  0  0  0  0  0
  133.5674  136.5219  160.8804 C   0  0  0  0  0  0  0  0  0  0  0  0
  133.5400  137.7807  160.4994 C   0  0  0  0  0  0  0  0  0  0  0  0
  134.7691  138.5915  160.6295 C   0  0  0  0  0  0  0  0  0  0  0  0
  135.0190  139.6335  159.7358 C   0  0  0  0  0  0  0  0  0  0  0  0
  136.1658  140.3895  159.8656 C   0  0  0  0  0  0  0  0  0  0  0  0
  137.0720  140.1095  160.8733 C   0  0  0  0  0  0  0  0  0  0  0  0
  136.8327  139.0746  161.7589 C   0  0  0  0  0  0  0  0  0  0  0  0
  135.6871  138.3143  161.6431 C   0  0  0  0  0  0  0  0  0  0  0  0
  132.3028  138.4247  159.9366 C   0  0  0  0  0  0  0  0  0  0  0  0
  131.0825  137.5585  160.2593 C   0  0  0  0  0  0  0  0  0  0  0  0
  130.8166  132.9529  160.3701 C   0  0  0  0  0  0  0  0  0  0  0  0
  131.0071  131.8008  159.6566 N   0  0  0  0  0  0  0  0  0  0  0  0
  131.2753  130.9489  160.0347 H   0  0  0  0  0  0  0  0  0  0  0  0
  130.7613  132.0319  158.3209 C   0  0  0  0  0  0  0  0  0  0  0  0
  130.8049  131.2271  157.1896 C   0  0  0  0  0  0  0  0  0  0  0  0
  131.4216  129.8428  154.6681 C   0  0  0  0  0  0  0  0  0  0  0  0
  132.2593  129.5928  155.6982 F   0  0  0  0  0  0  0  0  0  0  0  0
  131.4513  129.0428  153.5412 C   0  0  0  0  0  0  0  0  0  0  0  0
  129.0405  130.5595  151.7220 H   0  0  0  0  0  0  0  0  0  0  0  0
  128.9667  131.9858  153.7236 H   0  0  0  0  0  0  0  0  0  0  0  0
  129.8737  133.5201  154.8662 H   0  0  0  0  0  0  0  0  0  0  0  0
  129.7998  134.9505  156.8426 H   0  0  0  0  0  0  0  0  0  0  0  0
  129.7535  135.3911  160.9539 H   0  0  0  0  0  0  0  0  0  0  0  0
  129.4052  135.7850  159.2533 H   0  0  0  0  0  0  0  0  0  0  0  0
  132.6881  134.6356  160.4398 H   0  0  0  0  0  0  0  0  0  0  0  0
  131.9255  135.5152  161.7839 H   0  0  0  0  0  0  0  0  0  0  0  0
  134.4906  136.1217  161.2727 H   0  0  0  0  0  0  0  0  0  0  0  0
  134.3143  139.8503  158.9466 H   0  0  0  0  0  0  0  0  0  0  0  0
  136.3583  141.1989  159.1770 H   0  0  0  0  0  0  0  0  0  0  0  0
  137.9706  140.7013  160.9683 H   0  0  0  0  0  0  0  0  0  0  0  0
  137.5442  138.8609  162.5428 H   0  0  0  0  0  0  0  0  0  0  0  0
  135.5017  137.5064  162.3352 H   0  0  0  0  0  0  0  0  0  0  0  0
  132.1742  139.4124  160.3792 H   0  0  0  0  0  0  0  0  0  0  0  0
  132.4036  138.5216  158.8556 H   0  0  0  0  0  0  0  0  0  0  0  0
  130.8744  137.6032  161.3283 H   0  0  0  0  0  0  0  0  0  0  0  0
  130.2192  137.9199  159.7005 H   0  0  0  0  0  0  0  0  0  0  0  0
  130.9428  133.0483  161.4385 H   0  0  0  0  0  0  0  0  0  0  0  0
  131.0799  130.1862  157.2747 H   0  0  0  0  0  0  0  0  0  0  0  0
  132.1448  128.2168  153.4844 H   0  0  0  0  0  0  0  0  0  0  0  0
  1  2  1  0
  2 32  2  0
  2  3  1  0
  3  4  2  0
  3 33  1  0
  4  5  1  0
  4 34  1  0
  5  6  1  0
  5 30  2  0
  6 29  1  0
  6  7  2  0
  7  8  1  0
  7 35  1  0
  8  9  2  0
  8 36  1  0
  9 28  1  0
  9 10  1  0
 10 11  1  0
 10 25  2  0
 11 12  1  0
 11 37  1  0
 11 38  1  0
 12 13  1  6
 12 24  1  0
 12 14  1  0
 14 15  1  0
 14 39  1  0
 14 40  1  0
 15 16  2  0
 15 41  1  0
 16 17  1  0
 16 23  1  0
 17 22  1  0
 17 18  2  0
 18 19  1  0
 18 42  1  0
 19 20  2  0
 19 43  1  0
 20 21  1  0
 20 44  1  0
 21 22  2  0
 21 45  1  0
 22 46  1  0
 23 24  1  0
 23 47  1  0
 23 48  1  0
 24 49  1  0
 24 50  1  0
 25 26  1  0
 25 51  1  0
 26 27  1  0
 26 28  1  0
 28 29  2  0
 29 52  1  0
 30 31  1  0
 30 32  1  0
 32 53  1  0
M  CHG  1  12   1
M  END
>  <DOCK_score>  (1) 
-56.730728

>  <SMILES>  (1) 
Fc1ccc(-c2ccc3c(C[N@@H+]4CC=C(c5ccccc5)CC4)c[nH]c3c2)c(F)c1

$$$$
