C[C@](CNc1ccc(Oc2ccccc2)cc1)([NH2+]Cc1cccc2c1NC(=O)CO2)c1ccccc1
     RDKit          3D

 66 70  0  0  1  0  0  0  0  0999 V2000
  129.2510  137.0320  159.2593 C   0  0  0  0  0  0  0  0  0  0  0  0
  129.7386  135.7710  159.9758 C   0  0  2  0  0  0  0  0  0  0  0  0
  130.8186  136.1473  160.9921 C   0  0  0  0  0  0  0  0  0  0  0  0
  131.9428  136.7804  160.2981 N   0  0  0  0  0  0  0  0  0  0  0  0
  133.0583  137.2137  161.0234 C   0  0  0  0  0  0  0  0  0  0  0  0
  133.9198  138.1553  160.4760 C   0  0  0  0  0  0  0  0  0  0  0  0
  135.0176  138.5862  161.1945 C   0  0  0  0  0  0  0  0  0  0  0  0
  135.2626  138.0751  162.4607 C   0  0  0  0  0  0  0  0  0  0  0  0
  136.3439  138.4996  163.1674 O   0  0  0  0  0  0  0  0  0  0  0  0
  137.1017  137.5640  163.7974 C   0  0  0  0  0  0  0  0  0  0  0  0
  137.5237  137.7751  165.1023 C   0  0  0  0  0  0  0  0  0  0  0  0
  138.2904  136.8204  165.7419 C   0  0  0  0  0  0  0  0  0  0  0  0
  138.6458  135.6599  165.0796 C   0  0  0  0  0  0  0  0  0  0  0  0
  138.2304  135.4491  163.7776 C   0  0  0  0  0  0  0  0  0  0  0  0
  137.4597  136.3984  163.1350 C   0  0  0  0  0  0  0  0  0  0  0  0
  134.4052  137.1305  163.0060 C   0  0  0  0  0  0  0  0  0  0  0  0
  133.3068  136.6989  162.2889 C   0  0  0  0  0  0  0  0  0  0  0  0
  130.2971  134.8339  158.9920 N   0  0  0  0  0  0  0  0  0  0  0  0
  130.8282  135.3459  158.3037 H   0  0  0  0  0  0  0  0  0  0  0  0
  130.9004  134.1747  159.4604 H   0  0  0  0  0  0  0  0  0  0  0  0
  129.2037  134.1112  158.3286 C   0  0  0  0  0  0  0  0  0  0  0  0
  129.7767  133.1498  157.3194 C   0  0  0  0  0  0  0  0  0  0  0  0
  129.9827  133.5564  156.0133 C   0  0  0  0  0  0  0  0  0  0  0  0
  130.5119  132.6776  155.0868 C   0  0  0  0  0  0  0  0  0  0  0  0
  130.8304  131.3828  155.4565 C   0  0  0  0  0  0  0  0  0  0  0  0
  130.6227  130.9675  156.7597 C   0  0  0  0  0  0  0  0  0  0  0  0
  130.0931  131.8554  157.6955 C   0  0  0  0  0  0  0  0  0  0  0  0
  129.8870  131.4209  159.0125 N   0  0  0  0  0  0  0  0  0  0  0  0
  130.4831  130.2818  159.4270 C   0  0  0  0  0  0  0  0  0  0  0  0
  130.2940  129.8702  160.5521 O   0  0  0  0  0  0  0  0  0  0  0  0
  131.3839  129.5238  158.4854 C   0  0  0  0  0  0  0  0  0  0  0  0
  130.9303  129.6990  157.1407 O   0  0  0  0  0  0  0  0  0  0  0  0
  128.5821  135.1200  160.6897 C   0  0  0  0  0  0  0  0  0  0  0  0
  127.3222  135.6851  160.6231 C   0  0  0  0  0  0  0  0  0  0  0  0
  126.2604  135.0852  161.2740 C   0  0  0  0  0  0  0  0  0  0  0  0
  126.4606  133.9262  162.0002 C   0  0  0  0  0  0  0  0  0  0  0  0
  127.7215  133.3640  162.0712 C   0  0  0  0  0  0  0  0  0  0  0  0
  128.7822  133.9609  161.4160 C   0  0  0  0  0  0  0  0  0  0  0  0
  130.0874  137.5029  158.7430 H   0  0  0  0  0  0  0  0  0  0  0  0
  128.4815  136.7639  158.5353 H   0  0  0  0  0  0  0  0  0  0  0  0
  128.8366  137.7274  159.9893 H   0  0  0  0  0  0  0  0  0  0  0  0
  131.1660  135.2490  161.5025 H   0  0  0  0  0  0  0  0  0  0  0  0
  130.4043  136.8428  161.7221 H   0  0  0  0  0  0  0  0  0  0  0  0
  131.9141  136.8992  159.3358 H   0  0  0  0  0  0  0  0  0  0  0  0
  133.7290  138.5536  159.4906 H   0  0  0  0  0  0  0  0  0  0  0  0
  135.6853  139.3217  160.7708 H   0  0  0  0  0  0  0  0  0  0  0  0
  137.2503  138.6834  165.6186 H   0  0  0  0  0  0  0  0  0  0  0  0
  138.6163  136.9827  166.7587 H   0  0  0  0  0  0  0  0  0  0  0  0
  139.2488  134.9167  165.5799 H   0  0  0  0  0  0  0  0  0  0  0  0
  138.5093  134.5417  163.2625 H   0  0  0  0  0  0  0  0  0  0  0  0
  137.1362  136.2337  162.1178 H   0  0  0  0  0  0  0  0  0  0  0  0
  134.5966  136.7330  163.9918 H   0  0  0  0  0  0  0  0  0  0  0  0
  132.6392  135.9639  162.7139 H   0  0  0  0  0  0  0  0  0  0  0  0
  128.6298  133.5582  159.0722 H   0  0  0  0  0  0  0  0  0  0  0  0
  128.5519  134.8234  157.8226 H   0  0  0  0  0  0  0  0  0  0  0  0
  129.7327  134.5646  155.7175 H   0  0  0  0  0  0  0  0  0  0  0  0
  130.6738  133.0016  154.0693 H   0  0  0  0  0  0  0  0  0  0  0  0
  131.2405  130.6978  154.7292 H   0  0  0  0  0  0  0  0  0  0  0  0
  129.3252  131.9308  159.6170 H   0  0  0  0  0  0  0  0  0  0  0  0
  132.4028  129.8999  158.5764 H   0  0  0  0  0  0  0  0  0  0  0  0
  131.3649  128.4640  158.7395 H   0  0  0  0  0  0  0  0  0  0  0  0
  127.1668  136.5931  160.0593 H   0  0  0  0  0  0  0  0  0  0  0  0
  125.2754  135.5246  161.2188 H   0  0  0  0  0  0  0  0  0  0  0  0
  125.6318  133.4601  162.5125 H   0  0  0  0  0  0  0  0  0  0  0  0
  127.8778  132.4587  162.6389 H   0  0  0  0  0  0  0  0  0  0  0  0
  129.7673  133.5220  161.4718 H   0  0  0  0  0  0  0  0  0  0  0  0
  1 39  1  0
  1 40  1  0
  1 41  1  0
  2  1  1  6
  2  3  1  0
  2 18  1  0
  2 33  1  0
  3  4  1  0
  3 42  1  0
  3 43  1  0
  4  5  1  0
  4 44  1  0
  5 17  1  0
  5  6  2  0
  6  7  1  0
  6 45  1  0
  7  8  2  0
  7 46  1  0
  8  9  1  0
  8 16  1  0
  9 10  1  0
 10 15  1  0
 10 11  2  0
 11 12  1  0
 11 47  1  0
 12 13  2  0
 12 48  1  0
 13 14  1  0
 13 49  1  0
 14 15  2  0
 14 50  1  0
 15 51  1  0
 16 17  2  0
 16 52  1  0
 17 53  1  0
 18 19  1  0
 18 20  1  0
 18 21  1  0
 21 22  1  0
 21 54  1  0
 21 55  1  0
 22 27  1  0
 22 23  2  0
 23 24  1  0
 23 56  1  0
 24 25  2  0
 24 57  1  0
 25 26  1  0
 25 58  1  0
 26 32  1  0
 26 27  2  0
 27 28  1  0
 28 29  1  0
 28 59  1  0
 29 30  2  0
 29 31  1  0
 31 32  1  0
 31 60  1  0
 31 61  1  0
 33 38  1  0
 33 34  2  0
 34 35  1  0
 34 62  1  0
 35 36  2  0
 35 63  1  0
 36 37  1  0
 36 64  1  0
 37 38  2  0
 37 65  1  0
 38 66  1  0
M  CHG  1  18   1
M  END
>  <DOCK_score>  (1) 
-62.049255

>  <SMILES>  (1) 
C[C@](CNc1ccc(Oc2ccccc2)cc1)([NH2+]Cc1cccc2c1NC(=O)CO2)c1ccccc1

$$$$
