Clc1cccc(-c2cccc(NC3CCC[N@H+]4CCCCC34)c2)c1
     RDKit          3D

 50 53  0  0  1  0  0  0  0  0999 V2000
  129.7602  128.7170  150.8672 Cl  0  0  0  0  0  0  0  0  0  0  0  0
  130.1508  130.1951  151.6898 C   0  0  0  0  0  0  0  0  0  0  0  0
  130.2967  131.3690  150.9703 C   0  0  0  0  0  0  0  0  0  0  0  0
  130.6077  132.5496  151.6197 C   0  0  0  0  0  0  0  0  0  0  0  0
  130.7744  132.5636  152.9899 C   0  0  0  0  0  0  0  0  0  0  0  0
  130.6293  131.3856  153.7195 C   0  0  0  0  0  0  0  0  0  0  0  0
  130.8076  131.3954  155.1927 C   0  0  0  0  0  0  0  0  0  0  0  0
  131.2803  130.2588  155.8470 C   0  0  0  0  0  0  0  0  0  0  0  0
  131.4449  130.2688  157.2175 C   0  0  0  0  0  0  0  0  0  0  0  0
  131.1426  131.4041  157.9456 C   0  0  0  0  0  0  0  0  0  0  0  0
  130.6658  132.5399  157.3025 C   0  0  0  0  0  0  0  0  0  0  0  0
  130.3555  133.6834  158.0424 N   0  0  0  0  0  0  0  0  0  0  0  0
  129.8925  133.5571  159.4266 C   0  0  2  0  0  0  0  0  0  0  0  0
  128.4933  134.1627  159.5521 C   0  0  0  0  0  0  0  0  0  0  0  0
  128.5718  135.6559  159.2282 C   0  0  0  0  0  0  0  0  0  0  0  0
  129.5669  136.3168  160.1815 C   0  0  0  0  0  0  0  0  0  0  0  0
  130.9002  135.7191  160.0164 N   0  0  1  0  0  0  0  0  0  0  0  0
  131.2013  135.8279  159.0595 H   0  0  0  0  0  0  0  0  0  0  0  0
  131.8325  136.4288  160.9049 C   0  0  0  0  0  0  0  0  0  0  0  0
  133.2500  135.8855  160.7275 C   0  0  0  0  0  0  0  0  0  0  0  0
  133.2566  134.3954  161.0846 C   0  0  0  0  0  0  0  0  0  0  0  0
  132.2519  133.6722  160.1860 C   0  0  0  0  0  0  0  0  0  0  0  0
  130.8617  134.2936  160.3573 C   0  0  2  0  0  0  0  0  0  0  0  0
  130.5029  132.5392  155.9248 C   0  0  0  0  0  0  0  0  0  0  0  0
  130.3220  130.1971  153.0603 C   0  0  0  0  0  0  0  0  0  0  0  0
  130.1668  131.3627  149.8981 H   0  0  0  0  0  0  0  0  0  0  0  0
  130.7201  133.4624  151.0538 H   0  0  0  0  0  0  0  0  0  0  0  0
  131.0168  133.4865  153.4958 H   0  0  0  0  0  0  0  0  0  0  0  0
  131.5176  129.3699  155.2812 H   0  0  0  0  0  0  0  0  0  0  0  0
  131.8105  129.3869  157.7223 H   0  0  0  0  0  0  0  0  0  0  0  0
  131.2731  131.4068  159.0177 H   0  0  0  0  0  0  0  0  0  0  0  0
  130.4466  134.5611  157.6397 H   0  0  0  0  0  0  0  0  0  0  0  0
  129.8562  132.5030  159.7017 H   0  0  0  0  0  0  0  0  0  0  0  0
  127.8178  133.6708  158.8522 H   0  0  0  0  0  0  0  0  0  0  0  0
  128.1279  134.0310  160.5705 H   0  0  0  0  0  0  0  0  0  0  0  0
  127.5888  136.1097  159.3542 H   0  0  0  0  0  0  0  0  0  0  0  0
  128.9069  135.7902  158.1997 H   0  0  0  0  0  0  0  0  0  0  0  0
  129.2320  136.1745  161.2090 H   0  0  0  0  0  0  0  0  0  0  0  0
  129.6196  137.3834  159.9632 H   0  0  0  0  0  0  0  0  0  0  0  0
  131.5192  136.2899  161.9397 H   0  0  0  0  0  0  0  0  0  0  0  0
  131.8201  137.4916  160.6633 H   0  0  0  0  0  0  0  0  0  0  0  0
  133.9321  136.4221  161.3869 H   0  0  0  0  0  0  0  0  0  0  0  0
  133.5658  136.0143  159.6922 H   0  0  0  0  0  0  0  0  0  0  0  0
  132.9710  134.2682  162.1288 H   0  0  0  0  0  0  0  0  0  0  0  0
  134.2533  133.9850  160.9230 H   0  0  0  0  0  0  0  0  0  0  0  0
  132.2138  132.6179  160.4602 H   0  0  0  0  0  0  0  0  0  0  0  0
  132.5643  133.7641  159.1458 H   0  0  0  0  0  0  0  0  0  0  0  0
  130.5350  134.1752  161.3904 H   0  0  0  0  0  0  0  0  0  0  0  0
  130.1359  133.4221  155.4225 H   0  0  0  0  0  0  0  0  0  0  0  0
  130.2128  129.2802  153.6206 H   0  0  0  0  0  0  0  0  0  0  0  0
  1  2  1  0
  2 25  2  0
  2  3  1  0
  3  4  2  0
  3 26  1  0
  4  5  1  0
  4 27  1  0
  5  6  2  0
  5 28  1  0
  6  7  1  0
  6 25  1  0
  7 24  1  0
  7  8  2  0
  8  9  1  0
  8 29  1  0
  9 10  2  0
  9 30  1  0
 10 11  1  0
 10 31  1  0
 11 12  1  0
 11 24  2  0
 12 13  1  0
 12 32  1  0
 13 23  1  0
 13 14  1  0
 13 33  1  1
 14 15  1  0
 14 34  1  0
 14 35  1  0
 15 16  1  0
 15 36  1  0
 15 37  1  0
 16 17  1  0
 16 38  1  0
 16 39  1  0
 17 18  1  6
 17 23  1  0
 17 19  1  0
 19 20  1  0
 19 40  1  0
 19 41  1  0
 20 21  1  0
 20 42  1  0
 20 43  1  0
 21 22  1  0
 21 44  1  0
 21 45  1  0
 22 23  1  0
 22 46  1  0
 22 47  1  0
 23 48  1  1
 24 49  1  0
 25 50  1  0
M  CHG  1  17   1
M  END
>  <DOCK_score>  (1) 
-58.558384

>  <SMILES>  (1) 
Clc1cccc(-c2cccc(NC3CCC[N@H+]4CCCCC34)c2)c1

$$$$
