C[C@@H](CO)[NH+]=C(NC1CC=CC1)N[C@H]1CCC(=O)NC1
     RDKit          3D

 45 46  0  0  1  0  0  0  0  0999 V2000
  132.9387  133.8050  161.5007 C   0  0  0  0  0  0  0  0  0  0  0  0
  131.8302  134.6649  160.8903 C   0  0  1  0  0  0  0  0  0  0  0  0
  130.9930  134.7260  161.5858 H   0  0  0  0  0  0  0  0  0  0  0  0
  132.3681  136.0705  160.6150 C   0  0  0  0  0  0  0  0  0  0  0  0
  131.3330  136.8737  160.0449 O   0  0  0  0  0  0  0  0  0  0  0  0
  131.3787  134.0602  159.6345 N   0  0  0  0  0  0  0  0  0  0  0  0
  131.9970  133.5422  159.0959 H   0  0  0  0  0  0  0  0  0  0  0  0
  130.1463  134.2186  159.2410 C   0  0  0  0  0  0  0  0  0  0  0  0
  129.7227  133.6511  158.0626 N   0  0  0  0  0  0  0  0  0  0  0  0
  130.6565  132.8685  157.2491 C   0  0  0  0  0  0  0  0  0  0  0  0
  130.1849  132.7955  155.7782 C   0  0  0  0  0  0  0  0  0  0  0  0
  130.5401  131.3970  155.3301 C   0  0  0  0  0  0  0  0  0  0  0  0
  130.7825  130.6229  156.3528 C   0  0  0  0  0  0  0  0  0  0  0  0
  130.6292  131.3763  157.6536 C   0  0  0  0  0  0  0  0  0  0  0  0
  129.2698  134.9529  160.0045 N   0  0  0  0  0  0  0  0  0  0  0  0
  127.8401  134.6338  159.9892 C   0  0  1  0  0  0  0  0  0  0  0  0
  127.4534  134.7362  158.9752 H   0  0  0  0  0  0  0  0  0  0  0  0
  127.6285  133.1969  160.4814 C   0  0  0  0  0  0  0  0  0  0  0  0
  126.1557  132.8298  160.2827 C   0  0  0  0  0  0  0  0  0  0  0  0
  125.2791  133.9161  160.8363 C   0  0  0  0  0  0  0  0  0  0  0  0
  124.1153  133.6572  161.0588 O   0  0  0  0  0  0  0  0  0  0  0  0
  125.7120  135.1502  161.0969 N   0  0  0  0  0  0  0  0  0  0  0  0
  127.0918  135.5863  160.9225 C   0  0  0  0  0  0  0  0  0  0  0  0
  133.8079  133.8123  160.8430 H   0  0  0  0  0  0  0  0  0  0  0  0
  133.2166  134.2081  162.4746 H   0  0  0  0  0  0  0  0  0  0  0  0
  132.5814  132.7821  161.6194 H   0  0  0  0  0  0  0  0  0  0  0  0
  132.7042  136.5203  161.5494 H   0  0  0  0  0  0  0  0  0  0  0  0
  133.2053  136.0093  159.9196 H   0  0  0  0  0  0  0  0  0  0  0  0
  130.9855  136.5326  159.2094 H   0  0  0  0  0  0  0  0  0  0  0  0
  128.8044  133.7656  157.7717 H   0  0  0  0  0  0  0  0  0  0  0  0
  131.6660  133.2741  157.3173 H   0  0  0  0  0  0  0  0  0  0  0  0
  129.1078  132.9519  155.7166 H   0  0  0  0  0  0  0  0  0  0  0  0
  130.7118  133.5334  155.1733 H   0  0  0  0  0  0  0  0  0  0  0  0
  130.5869  131.0792  154.2989 H   0  0  0  0  0  0  0  0  0  0  0  0
  131.0569  129.5809  156.2789 H   0  0  0  0  0  0  0  0  0  0  0  0
  131.4583  131.1494  158.3238 H   0  0  0  0  0  0  0  0  0  0  0  0
  129.6789  131.1284  158.1264 H   0  0  0  0  0  0  0  0  0  0  0  0
  129.5981  135.6823  160.5533 H   0  0  0  0  0  0  0  0  0  0  0  0
  128.2570  132.5160  159.9075 H   0  0  0  0  0  0  0  0  0  0  0  0
  127.8843  133.1299  161.5389 H   0  0  0  0  0  0  0  0  0  0  0  0
  125.9429  131.8940  160.7996 H   0  0  0  0  0  0  0  0  0  0  0  0
  125.9532  132.7082  159.2186 H   0  0  0  0  0  0  0  0  0  0  0  0
  125.0680  135.7986  161.4227 H   0  0  0  0  0  0  0  0  0  0  0  0
  127.5890  135.6051  161.8923 H   0  0  0  0  0  0  0  0  0  0  0  0
  127.0983  136.5889  160.4948 H   0  0  0  0  0  0  0  0  0  0  0  0
  1  2  1  0
  1 24  1  0
  1 25  1  0
  1 26  1  0
  2  3  1  1
  2  4  1  0
  2  6  1  0
  4  5  1  0
  4 27  1  0
  4 28  1  0
  5 29  1  0
  6  7  1  0
  8  6  2  0
  8  9  1  0
  8 15  1  0
  9 10  1  0
  9 30  1  0
 10 14  1  0
 10 11  1  0
 10 31  1  0
 11 12  1  0
 11 32  1  0
 11 33  1  0
 12 13  2  0
 12 34  1  0
 13 14  1  0
 13 35  1  0
 14 36  1  0
 14 37  1  0
 15 16  1  0
 15 38  1  0
 16 17  1  6
 16 23  1  0
 16 18  1  0
 18 19  1  0
 18 39  1  0
 18 40  1  0
 19 20  1  0
 19 41  1  0
 19 42  1  0
 20 21  2  0
 20 22  1  0
 22 23  1  0
 22 43  1  0
 23 44  1  0
 23 45  1  0
M  CHG  1   6   1
M  END
>  <DOCK_score>  (1) 
-41.157806

>  <SMILES>  (1) 
C[C@@H](CO)[NH+]=C(NC1CC=CC1)N[C@H]1CCC(=O)NC1

$$$$
