Clc1ccc(CCc2ccccc2)c(Nc2[nH]cc(-c3ccccc3)[nH+]2)c1
     RDKit          3D

 48 51  0  0  1  0  0  0  0  0999 V2000
  125.0826  135.1478  159.7195 Cl  0  0  0  0  0  0  0  0  0  0  0  0
  126.7289  135.6223  159.9991 C   0  0  0  0  0  0  0  0  0  0  0  0
  127.0441  136.4173  161.0877 C   0  0  0  0  0  0  0  0  0  0  0  0
  128.3542  136.7968  161.3138 C   0  0  0  0  0  0  0  0  0  0  0  0
  129.3529  136.3838  160.4536 C   0  0  0  0  0  0  0  0  0  0  0  0
  130.7804  136.7987  160.7011 C   0  0  0  0  0  0  0  0  0  0  0  0
  131.0597  138.1198  159.9816 C   0  0  0  0  0  0  0  0  0  0  0  0
  132.4872  138.5346  160.2291 C   0  0  0  0  0  0  0  0  0  0  0  0
  132.8244  139.8750  160.2470 C   0  0  0  0  0  0  0  0  0  0  0  0
  134.1328  140.2556  160.4788 C   0  0  0  0  0  0  0  0  0  0  0  0
  135.1059  139.2962  160.6827 C   0  0  0  0  0  0  0  0  0  0  0  0
  134.7701  137.9548  160.6594 C   0  0  0  0  0  0  0  0  0  0  0  0
  133.4606  137.5743  160.4327 C   0  0  0  0  0  0  0  0  0  0  0  0
  129.0406  135.5869  159.3597 C   0  0  0  0  0  0  0  0  0  0  0  0
  130.0493  135.1681  158.4875 N   0  0  0  0  0  0  0  0  0  0  0  0
  129.9296  133.9606  157.8189 C   0  0  0  0  0  0  0  0  0  0  0  0
  129.2751  132.8601  158.2806 N   0  0  0  0  0  0  0  0  0  0  0  0
  128.8127  132.7807  159.1296 H   0  0  0  0  0  0  0  0  0  0  0  0
  129.3882  131.8837  157.3216 C   0  0  0  0  0  0  0  0  0  0  0  0
  130.1152  132.4120  156.3057 C   0  0  0  0  0  0  0  0  0  0  0  0
  130.4951  131.7179  155.0511 C   0  0  0  0  0  0  0  0  0  0  0  0
  130.0787  132.2208  153.8197 C   0  0  0  0  0  0  0  0  0  0  0  0
  130.4400  131.5739  152.6554 C   0  0  0  0  0  0  0  0  0  0  0  0
  131.2039  130.4221  152.7094 C   0  0  0  0  0  0  0  0  0  0  0  0
  131.6152  129.9151  153.9291 C   0  0  0  0  0  0  0  0  0  0  0  0
  131.2651  130.5571  155.0996 C   0  0  0  0  0  0  0  0  0  0  0  0
  130.4330  133.6876  156.6398 N   0  0  0  0  0  0  0  0  0  0  0  0
  130.9503  134.2999  156.0936 H   0  0  0  0  0  0  0  0  0  0  0  0
  127.7236  135.2063  159.1347 C   0  0  0  0  0  0  0  0  0  0  0  0
  126.2652  136.7416  161.7618 H   0  0  0  0  0  0  0  0  0  0  0  0
  128.5970  137.4165  162.1643 H   0  0  0  0  0  0  0  0  0  0  0  0
  130.9411  136.9270  161.7716 H   0  0  0  0  0  0  0  0  0  0  0  0
  131.4532  136.0293  160.3224 H   0  0  0  0  0  0  0  0  0  0  0  0
  130.8991  137.9915  158.9112 H   0  0  0  0  0  0  0  0  0  0  0  0
  130.3869  138.8892  160.3604 H   0  0  0  0  0  0  0  0  0  0  0  0
  132.0647  140.6252  160.0835 H   0  0  0  0  0  0  0  0  0  0  0  0
  134.3956  141.3030  160.4964 H   0  0  0  0  0  0  0  0  0  0  0  0
  136.1295  139.5926  160.8591 H   0  0  0  0  0  0  0  0  0  0  0  0
  135.5307  137.2045  160.8180 H   0  0  0  0  0  0  0  0  0  0  0  0
  133.1980  136.5268  160.4143 H   0  0  0  0  0  0  0  0  0  0  0  0
  130.8329  135.7229  158.3504 H   0  0  0  0  0  0  0  0  0  0  0  0
  128.9797  130.8851  157.3689 H   0  0  0  0  0  0  0  0  0  0  0  0
  129.4783  133.1174  153.7766 H   0  0  0  0  0  0  0  0  0  0  0  0
  130.1222  131.9656  151.7004 H   0  0  0  0  0  0  0  0  0  0  0  0
  131.4804  129.9167  151.7959 H   0  0  0  0  0  0  0  0  0  0  0  0
  132.2117  129.0155  153.9656 H   0  0  0  0  0  0  0  0  0  0  0  0
  131.5874  130.1610  156.0512 H   0  0  0  0  0  0  0  0  0  0  0  0
  127.4781  134.5828  158.2878 H   0  0  0  0  0  0  0  0  0  0  0  0
  1  2  1  0
  2 29  2  0
  2  3  1  0
  3  4  2  0
  3 30  1  0
  4  5  1  0
  4 31  1  0
  5  6  1  0
  5 14  2  0
  6  7  1  0
  6 32  1  0
  6 33  1  0
  7  8  1  0
  7 34  1  0
  7 35  1  0
  8 13  1  0
  8  9  2  0
  9 10  1  0
  9 36  1  0
 10 11  2  0
 10 37  1  0
 11 12  1  0
 11 38  1  0
 12 13  2  0
 12 39  1  0
 13 40  1  0
 14 15  1  0
 14 29  1  0
 15 41  1  0
 16 15  1  0
 16 27  2  0
 16 17  1  0
 17 18  1  0
 17 19  1  0
 19 20  2  0
 19 42  1  0
 20 21  1  0
 20 27  1  0
 21 26  1  0
 21 22  2  0
 22 23  1  0
 22 43  1  0
 23 24  2  0
 23 44  1  0
 24 25  1  0
 24 45  1  0
 25 26  2  0
 25 46  1  0
 26 47  1  0
 27 28  1  0
 29 48  1  0
M  CHG  1  27   1
M  END
>  <DOCK_score>  (1) 
-60.15379

>  <SMILES>  (1) 
Clc1ccc(CCc2ccccc2)c(Nc2[nH]cc(-c3ccccc3)[nH+]2)c1

$$$$
