CNc1ccc(Nc2[nH]cc(-c3ccccc3)[nH+]2)cc1
     RDKit          3D

 37 39  0  0  1  0  0  0  0  0999 V2000
  126.6850  135.7745  163.0208 C   0  0  0  0  0  0  0  0  0  0  0  0
  126.3726  135.9999  161.6073 N   0  0  0  0  0  0  0  0  0  0  0  0
  127.3108  135.6704  160.6223 C   0  0  0  0  0  0  0  0  0  0  0  0
  128.5376  135.1301  160.9849 C   0  0  0  0  0  0  0  0  0  0  0  0
  129.4634  134.8056  160.0132 C   0  0  0  0  0  0  0  0  0  0  0  0
  129.1678  135.0202  158.6733 C   0  0  0  0  0  0  0  0  0  0  0  0
  130.1072  134.6919  157.6876 N   0  0  0  0  0  0  0  0  0  0  0  0
  130.1079  133.4260  157.1259 C   0  0  0  0  0  0  0  0  0  0  0  0
  129.7219  132.2804  157.7519 N   0  0  0  0  0  0  0  0  0  0  0  0
  129.4001  132.2044  158.6638 H   0  0  0  0  0  0  0  0  0  0  0  0
  129.8694  131.2527  156.8530 C   0  0  0  0  0  0  0  0  0  0  0  0
  130.3495  131.7973  155.7074 C   0  0  0  0  0  0  0  0  0  0  0  0
  130.6694  131.0631  154.4588 C   0  0  0  0  0  0  0  0  0  0  0  0
  130.0091  131.3791  153.2728 C   0  0  0  0  0  0  0  0  0  0  0  0
  130.3148  130.6966  152.1129 C   0  0  0  0  0  0  0  0  0  0  0  0
  131.2665  129.6927  152.1286 C   0  0  0  0  0  0  0  0  0  0  0  0
  131.9208  129.3710  153.3039 C   0  0  0  0  0  0  0  0  0  0  0  0
  131.6272  130.0507  154.4686 C   0  0  0  0  0  0  0  0  0  0  0  0
  130.4854  133.1323  155.9054 N   0  0  0  0  0  0  0  0  0  0  0  0
  130.8102  133.7681  155.2488 H   0  0  0  0  0  0  0  0  0  0  0  0
  127.9429  135.5654  158.3110 C   0  0  0  0  0  0  0  0  0  0  0  0
  127.0150  135.8846  159.2823 C   0  0  0  0  0  0  0  0  0  0  0  0
  126.8788  134.7146  163.1856 H   0  0  0  0  0  0  0  0  0  0  0  0
  127.5679  136.3521  163.2943 H   0  0  0  0  0  0  0  0  0  0  0  0
  125.8407  136.0892  163.6341 H   0  0  0  0  0  0  0  0  0  0  0  0
  125.5158  136.3773  161.3541 H   0  0  0  0  0  0  0  0  0  0  0  0
  128.7675  134.9632  162.0268 H   0  0  0  0  0  0  0  0  0  0  0  0
  130.4174  134.3853  160.2950 H   0  0  0  0  0  0  0  0  0  0  0  0
  130.7572  135.3512  157.3986 H   0  0  0  0  0  0  0  0  0  0  0  0
  129.6500  130.2095  157.0267 H   0  0  0  0  0  0  0  0  0  0  0  0
  129.2628  132.1598  153.2605 H   0  0  0  0  0  0  0  0  0  0  0  0
  129.8070  130.9437  151.1923 H   0  0  0  0  0  0  0  0  0  0  0  0
  131.4997  129.1583  151.2195 H   0  0  0  0  0  0  0  0  0  0  0  0
  132.6631  128.5865  153.3102 H   0  0  0  0  0  0  0  0  0  0  0  0
  132.1390  129.7989  155.3856 H   0  0  0  0  0  0  0  0  0  0  0  0
  127.7148  135.7361  157.2693 H   0  0  0  0  0  0  0  0  0  0  0  0
  126.0612  136.3053  159.0005 H   0  0  0  0  0  0  0  0  0  0  0  0
  1  2  1  0
  1 23  1  0
  1 24  1  0
  1 25  1  0
  2  3  1  0
  2 26  1  0
  3 22  2  0
  3  4  1  0
  4  5  2  0
  4 27  1  0
  5  6  1  0
  5 28  1  0
  6  7  1  0
  6 21  2  0
  7 29  1  0
  8  7  1  0
  8 19  2  0
  8  9  1  0
  9 10  1  0
  9 11  1  0
 11 12  2  0
 11 30  1  0
 12 13  1  0
 12 19  1  0
 13 18  1  0
 13 14  2  0
 14 15  1  0
 14 31  1  0
 15 16  2  0
 15 32  1  0
 16 17  1  0
 16 33  1  0
 17 18  2  0
 17 34  1  0
 18 35  1  0
 19 20  1  0
 21 22  1  0
 21 36  1  0
 22 37  1  0
M  CHG  1  19   1
M  END
>  <DOCK_score>  (1) 
-52.059341

>  <SMILES>  (1) 
CNc1ccc(Nc2[nH]cc(-c3ccccc3)[nH+]2)cc1

$$$$
