O=C1CC[C@H](NC(NC2CC=CC2)=[NH+]CC(=O)c2ccc(F)cc2)CN1
     RDKit          3D

 50 52  0  0  1  0  0  0  0  0999 V2000
  124.4403  133.8845  161.6592 O   0  0  0  0  0  0  0  0  0  0  0  0
  125.5602  134.2306  161.3481 C   0  0  0  0  0  0  0  0  0  0  0  0
  126.5617  133.1670  161.0000 C   0  0  0  0  0  0  0  0  0  0  0  0
  127.9782  133.7433  161.0679 C   0  0  0  0  0  0  0  0  0  0  0  0
  128.0035  135.0609  160.2836 C   0  0  2  0  0  0  0  0  0  0  0  0
  127.5994  134.8993  159.2843 H   0  0  0  0  0  0  0  0  0  0  0  0
  129.3818  135.5471  160.1839 N   0  0  0  0  0  0  0  0  0  0  0  0
  130.3394  134.7773  159.5671 C   0  0  0  0  0  0  0  0  0  0  0  0
  129.9841  133.9214  158.5515 N   0  0  0  0  0  0  0  0  0  0  0  0
  131.0045  133.1011  157.8943 C   0  0  0  0  0  0  0  0  0  0  0  0
  130.5384  132.6559  156.4887 C   0  0  0  0  0  0  0  0  0  0  0  0
  131.0639  131.2464  156.3389 C   0  0  0  0  0  0  0  0  0  0  0  0
  131.4071  130.7472  157.4951 C   0  0  0  0  0  0  0  0  0  0  0  0
  131.1676  131.7395  158.6090 C   0  0  0  0  0  0  0  0  0  0  0  0
  131.5833  134.8549  159.9487 N   0  0  0  0  0  0  0  0  0  0  0  0
  132.2590  134.3119  159.5136 H   0  0  0  0  0  0  0  0  0  0  0  0
  131.9609  135.7626  161.0349 C   0  0  0  0  0  0  0  0  0  0  0  0
  131.6081  137.1771  160.6530 C   0  0  0  0  0  0  0  0  0  0  0  0
  130.4563  137.4710  160.4125 O   0  0  0  0  0  0  0  0  0  0  0  0
  132.6602  138.2007  160.5719 C   0  0  0  0  0  0  0  0  0  0  0  0
  132.5958  139.3404  161.3812 C   0  0  0  0  0  0  0  0  0  0  0  0
  133.5882  140.2927  161.3046 C   0  0  0  0  0  0  0  0  0  0  0  0
  134.6431  140.1299  160.4194 C   0  0  0  0  0  0  0  0  0  0  0  0
  135.6100  141.0705  160.3450 F   0  0  0  0  0  0  0  0  0  0  0  0
  134.7101  139.0051  159.6097 C   0  0  0  0  0  0  0  0  0  0  0  0
  133.7275  138.0422  159.6808 C   0  0  0  0  0  0  0  0  0  0  0  0
  127.1492  136.0891  161.0260 C   0  0  0  0  0  0  0  0  0  0  0  0
  125.8366  135.5350  161.3337 N   0  0  0  0  0  0  0  0  0  0  0  0
  126.3671  132.8025  159.9915 H   0  0  0  0  0  0  0  0  0  0  0  0
  126.4727  132.3411  161.7057 H   0  0  0  0  0  0  0  0  0  0  0  0
  128.6825  133.0391  160.6251 H   0  0  0  0  0  0  0  0  0  0  0  0
  128.2492  133.9296  162.1071 H   0  0  0  0  0  0  0  0  0  0  0  0
  129.6189  136.4123  160.5530 H   0  0  0  0  0  0  0  0  0  0  0  0
  129.0578  133.8605  158.2701 H   0  0  0  0  0  0  0  0  0  0  0  0
  131.9554  133.6314  157.8414 H   0  0  0  0  0  0  0  0  0  0  0  0
  129.4500  132.6634  156.4296 H   0  0  0  0  0  0  0  0  0  0  0  0
  130.9655  133.3044  155.7239 H   0  0  0  0  0  0  0  0  0  0  0  0
  131.1448  130.7216  155.3986 H   0  0  0  0  0  0  0  0  0  0  0  0
  131.8095  129.7550  157.6368 H   0  0  0  0  0  0  0  0  0  0  0  0
  132.0222  131.7654  159.2850 H   0  0  0  0  0  0  0  0  0  0  0  0
  130.2591  131.4868  159.1560 H   0  0  0  0  0  0  0  0  0  0  0  0
  131.4236  135.4865  161.9424 H   0  0  0  0  0  0  0  0  0  0  0  0
  133.0339  135.6909  161.2121 H   0  0  0  0  0  0  0  0  0  0  0  0
  131.7724  139.4709  162.0678 H   0  0  0  0  0  0  0  0  0  0  0  0
  133.5422  141.1705  161.9322 H   0  0  0  0  0  0  0  0  0  0  0  0
  135.5343  138.8839  158.9224 H   0  0  0  0  0  0  0  0  0  0  0  0
  133.7809  137.1669  159.0504 H   0  0  0  0  0  0  0  0  0  0  0  0
  127.6482  136.3698  161.9536 H   0  0  0  0  0  0  0  0  0  0  0  0
  127.0291  136.9752  160.4028 H   0  0  0  0  0  0  0  0  0  0  0  0
  125.1191  136.1541  161.5411 H   0  0  0  0  0  0  0  0  0  0  0  0
  1  2  2  0
  2 28  1  0
  2  3  1  0
  3  4  1  0
  3 29  1  0
  3 30  1  0
  4  5  1  0
  4 31  1  0
  4 32  1  0
  5  6  1  6
  5  7  1  0
  5 27  1  0
  7 33  1  0
  8  7  1  0
  8  9  1  0
  8 15  2  0
  9 10  1  0
  9 34  1  0
 10 14  1  0
 10 11  1  0
 10 35  1  0
 11 12  1  0
 11 36  1  0
 11 37  1  0
 12 13  2  0
 12 38  1  0
 13 14  1  0
 13 39  1  0
 14 40  1  0
 14 41  1  0
 15 16  1  0
 15 17  1  0
 17 18  1  0
 17 42  1  0
 17 43  1  0
 18 19  2  0
 18 20  1  0
 20 26  1  0
 20 21  2  0
 21 22  1  0
 21 44  1  0
 22 23  2  0
 22 45  1  0
 23 24  1  0
 23 25  1  0
 25 26  2  0
 25 46  1  0
 26 47  1  0
 27 28  1  0
 27 48  1  0
 27 49  1  0
 28 50  1  0
M  CHG  1  15   1
M  END
>  <DOCK_score>  (1) 
-46.872555

>  <SMILES>  (1) 
O=C1CC[C@H](NC(NC2CC=CC2)=[NH+]CC(=O)c2ccc(F)cc2)CN1

$$$$
