c1cc(Nc2ccc(-c3n[nH]cc3C[NH2+]C[C@@H]3C[C@H]4CC[C@H]4C3)o2)c2nc[nH]c2c1
     RDKit          3D

 57 62  0  0  1  0  0  0  0  0999 V2000
  128.5880  136.9139  164.5388 C   0  0  0  0  0  0  0  0  0  0  0  0
  127.8385  136.3607  163.5113 C   0  0  0  0  0  0  0  0  0  0  0  0
  126.8047  137.0763  162.9344 C   0  0  0  0  0  0  0  0  0  0  0  0
  126.0578  136.5170  161.8961 N   0  0  0  0  0  0  0  0  0  0  0  0
  126.6469  135.6035  161.0298 C   0  0  0  0  0  0  0  0  0  0  0  0
  126.0083  134.5909  160.3915 C   0  0  0  0  0  0  0  0  0  0  0  0
  126.9750  133.9171  159.6200 C   0  0  0  0  0  0  0  0  0  0  0  0
  128.1580  134.5539  159.8267 C   0  0  0  0  0  0  0  0  0  0  0  0
  129.4553  134.1874  159.2220 C   0  0  0  0  0  0  0  0  0  0  0  0
  129.6679  133.1913  158.3846 N   0  0  0  0  0  0  0  0  0  0  0  0
  131.0281  133.1874  158.0504 N   0  0  0  0  0  0  0  0  0  0  0  0
  131.4646  132.5623  157.4507 H   0  0  0  0  0  0  0  0  0  0  0  0
  131.6268  134.2045  158.7072 C   0  0  0  0  0  0  0  0  0  0  0  0
  130.6856  134.8450  159.4333 C   0  0  0  0  0  0  0  0  0  0  0  0
  130.9102  136.0456  160.3158 C   0  0  0  0  0  0  0  0  0  0  0  0
  132.3272  136.4304  160.2682 N   0  0  0  0  0  0  0  0  0  0  0  0
  132.8951  135.6626  160.5938 H   0  0  0  0  0  0  0  0  0  0  0  0
  132.5820  136.6582  159.3188 H   0  0  0  0  0  0  0  0  0  0  0  0
  132.5459  137.6008  161.1285 C   0  0  0  0  0  0  0  0  0  0  0  0
  134.0219  138.0014  161.0789 C   0  0  2  0  0  0  0  0  0  0  0  0
  134.3978  137.9056  160.0602 H   0  0  0  0  0  0  0  0  0  0  0  0
  134.8375  137.1074  162.0228 C   0  0  0  0  0  0  0  0  0  0  0  0
  135.5023  138.0239  163.0626 C   0  0  1  0  0  0  0  0  0  0  0  0
  135.1428  137.8955  164.0836 H   0  0  0  0  0  0  0  0  0  0  0  0
  137.0302  138.1092  162.8942 C   0  0  0  0  0  0  0  0  0  0  0  0
  136.7413  139.1475  161.7583 C   0  0  0  0  0  0  0  0  0  0  0  0
  135.4225  139.4539  162.4813 C   0  0  1  0  0  0  0  0  0  0  0  0
  135.4602  140.2686  163.2044 H   0  0  0  0  0  0  0  0  0  0  0  0
  134.1872  139.4481  161.5669 C   0  0  0  0  0  0  0  0  0  0  0  0
  127.9454  135.5746  160.6835 O   0  0  0  0  0  0  0  0  0  0  0  0
  126.5072  138.3658  163.4030 C   0  0  0  0  0  0  0  0  0  0  0  0
  125.5785  139.2945  163.0594 N   0  0  0  0  0  0  0  0  0  0  0  0
  125.7178  140.3494  163.8075 C   0  0  0  0  0  0  0  0  0  0  0  0
  126.7454  140.1689  164.6820 N   0  0  0  0  0  0  0  0  0  0  0  0
  127.0535  140.8048  165.3466 H   0  0  0  0  0  0  0  0  0  0  0  0
  127.2680  138.9127  164.4475 C   0  0  0  0  0  0  0  0  0  0  0  0
  128.3061  138.1790  165.0086 C   0  0  0  0  0  0  0  0  0  0  0  0
  129.3954  136.3469  164.9780 H   0  0  0  0  0  0  0  0  0  0  0  0
  128.0667  135.3668  163.1558 H   0  0  0  0  0  0  0  0  0  0  0  0
  125.1276  136.7660  161.7790 H   0  0  0  0  0  0  0  0  0  0  0  0
  124.9585  134.3476  160.4619 H   0  0  0  0  0  0  0  0  0  0  0  0
  126.8082  133.0589  158.9857 H   0  0  0  0  0  0  0  0  0  0  0  0
  132.6739  134.4637  158.6560 H   0  0  0  0  0  0  0  0  0  0  0  0
  130.2965  136.8749  159.9639 H   0  0  0  0  0  0  0  0  0  0  0  0
  130.6348  135.7993  161.3413 H   0  0  0  0  0  0  0  0  0  0  0  0
  131.9324  138.4301  160.7765 H   0  0  0  0  0  0  0  0  0  0  0  0
  132.2705  137.3546  162.1539 H   0  0  0  0  0  0  0  0  0  0  0  0
  134.1783  136.3976  162.5223 H   0  0  0  0  0  0  0  0  0  0  0  0
  135.5998  136.5707  161.4579 H   0  0  0  0  0  0  0  0  0  0  0  0
  137.5410  138.5395  163.7556 H   0  0  0  0  0  0  0  0  0  0  0  0
  137.4843  137.1789  162.5530 H   0  0  0  0  0  0  0  0  0  0  0  0
  136.6059  138.6910  160.7777 H   0  0  0  0  0  0  0  0  0  0  0  0
  137.4355  139.9876  161.7420 H   0  0  0  0  0  0  0  0  0  0  0  0
  134.3460  140.1140  160.7186 H   0  0  0  0  0  0  0  0  0  0  0  0
  133.3049  139.7579  162.1270 H   0  0  0  0  0  0  0  0  0  0  0  0
  125.1073  141.2382  163.7445 H   0  0  0  0  0  0  0  0  0  0  0  0
  128.8922  138.5996  165.8122 H   0  0  0  0  0  0  0  0  0  0  0  0
  1 37  2  0
  1  2  1  0
  1 38  1  0
  2  3  2  0
  2 39  1  0
  3  4  1  0
  3 31  1  0
  4  5  1  0
  4 40  1  0
  5 30  1  0
  5  6  2  0
  6  7  1  0
  6 41  1  0
  7  8  2  0
  7 42  1  0
  8  9  1  0
  8 30  1  0
  9 14  1  0
  9 10  2  0
 10 11  1  0
 11 12  1  0
 11 13  1  0
 13 14  2  0
 13 43  1  0
 14 15  1  0
 15 16  1  0
 15 44  1  0
 15 45  1  0
 16 17  1  0
 16 18  1  0
 16 19  1  0
 19 20  1  0
 19 46  1  0
 19 47  1  0
 20 21  1  6
 20 29  1  0
 20 22  1  0
 22 23  1  0
 22 48  1  0
 22 49  1  0
 23 24  1  1
 23 27  1  0
 23 25  1  0
 25 26  1  0
 25 50  1  0
 25 51  1  0
 26 27  1  0
 26 52  1  0
 26 53  1  0
 27 28  1  1
 27 29  1  0
 29 54  1  0
 29 55  1  0
 31 36  2  0
 31 32  1  0
 32 33  2  0
 33 34  1  0
 33 56  1  0
 34 35  1  0
 34 36  1  0
 36 37  1  0
 37 57  1  0
M  CHG  1  16   1
M  END
>  <DOCK_score>  (1) 
-46.150372

>  <SMILES>  (1) 
c1cc(Nc2ccc(-c3n[nH]cc3C[NH2+]C[C@@H]3C[C@H]4CC[C@H]4C3)o2)c2nc[nH]c2c1

$$$$
