Cc1ccc([C@H](Nc2[nH]cc(-c3ccccc3)[nH+]2)c2ccccc2)cc1
     RDKit          3D

 48 51  0  0  1  0  0  0  0  0999 V2000
  130.2534  140.6966  162.0790 C   0  0  0  0  0  0  0  0  0  0  0  0
  129.9221  139.3437  161.5037 C   0  0  0  0  0  0  0  0  0  0  0  0
  129.1523  138.4538  162.2294 C   0  0  0  0  0  0  0  0  0  0  0  0
  128.8483  137.2128  161.7017 C   0  0  0  0  0  0  0  0  0  0  0  0
  129.3141  136.8618  160.4484 C   0  0  0  0  0  0  0  0  0  0  0  0
  128.9830  135.5087  159.8733 C   0  0  2  0  0  0  0  0  0  0  0  0
  128.8698  134.7877  160.6829 H   0  0  0  0  0  0  0  0  0  0  0  0
  130.0647  135.0781  158.9840 N   0  0  0  0  0  0  0  0  0  0  0  0
  129.9835  133.8575  158.3359 C   0  0  0  0  0  0  0  0  0  0  0  0
  129.3468  132.7508  158.8069 N   0  0  0  0  0  0  0  0  0  0  0  0
  128.8721  132.6760  159.6494 H   0  0  0  0  0  0  0  0  0  0  0  0
  129.4975  131.7602  157.8671 C   0  0  0  0  0  0  0  0  0  0  0  0
  130.2286  132.2870  156.8538 C   0  0  0  0  0  0  0  0  0  0  0  0
  130.6443  131.5798  155.6179 C   0  0  0  0  0  0  0  0  0  0  0  0
  130.2365  132.0514  154.3715 C   0  0  0  0  0  0  0  0  0  0  0  0
  130.6314  131.3930  153.2247 C   0  0  0  0  0  0  0  0  0  0  0  0
  131.4201  130.2599  153.3112 C   0  0  0  0  0  0  0  0  0  0  0  0
  131.8230  129.7840  154.5460 C   0  0  0  0  0  0  0  0  0  0  0  0
  131.4392  130.4379  155.6992 C   0  0  0  0  0  0  0  0  0  0  0  0
  130.5119  133.5756  157.1701 N   0  0  0  0  0  0  0  0  0  0  0  0
  131.0238  134.1900  156.6212 H   0  0  0  0  0  0  0  0  0  0  0  0
  127.6961  135.5953  159.0940 C   0  0  0  0  0  0  0  0  0  0  0  0
  126.4885  135.3650  159.7259 C   0  0  0  0  0  0  0  0  0  0  0  0
  125.3081  135.4449  159.0110 C   0  0  0  0  0  0  0  0  0  0  0  0
  125.3353  135.7554  157.6643 C   0  0  0  0  0  0  0  0  0  0  0  0
  126.5430  135.9862  157.0325 C   0  0  0  0  0  0  0  0  0  0  0  0
  127.7236  135.9045  157.7469 C   0  0  0  0  0  0  0  0  0  0  0  0
  130.0881  137.7496  159.7249 C   0  0  0  0  0  0  0  0  0  0  0  0
  130.3874  138.9928  160.2503 C   0  0  0  0  0  0  0  0  0  0  0  0
  131.1841  140.6336  162.6429 H   0  0  0  0  0  0  0  0  0  0  0  0
  130.3671  141.4177  161.2695 H   0  0  0  0  0  0  0  0  0  0  0  0
  129.4486  141.0171  162.7407 H   0  0  0  0  0  0  0  0  0  0  0  0
  128.7888  138.7280  163.2087 H   0  0  0  0  0  0  0  0  0  0  0  0
  128.2472  136.5174  162.2688 H   0  0  0  0  0  0  0  0  0  0  0  0
  130.8377  135.6484  158.8493 H   0  0  0  0  0  0  0  0  0  0  0  0
  129.1108  130.7534  157.9259 H   0  0  0  0  0  0  0  0  0  0  0  0
  129.6167  132.9332  154.3028 H   0  0  0  0  0  0  0  0  0  0  0  0
  130.3203  131.7605  152.2579 H   0  0  0  0  0  0  0  0  0  0  0  0
  131.7228  129.7449  152.4114 H   0  0  0  0  0  0  0  0  0  0  0  0
  132.4393  128.8992  154.6078 H   0  0  0  0  0  0  0  0  0  0  0  0
  131.7546  130.0657  156.6628 H   0  0  0  0  0  0  0  0  0  0  0  0
  126.4672  135.1231  160.7783 H   0  0  0  0  0  0  0  0  0  0  0  0
  124.3645  135.2650  159.5047 H   0  0  0  0  0  0  0  0  0  0  0  0
  124.4133  135.8136  157.1047 H   0  0  0  0  0  0  0  0  0  0  0  0
  126.5642  136.2285  155.9802 H   0  0  0  0  0  0  0  0  0  0  0  0
  128.6671  136.0841  157.2531 H   0  0  0  0  0  0  0  0  0  0  0  0
  130.4556  137.4736  158.7476 H   0  0  0  0  0  0  0  0  0  0  0  0
  130.9884  139.6881  159.6832 H   0  0  0  0  0  0  0  0  0  0  0  0
  1  2  1  0
  1 30  1  0
  1 31  1  0
  1 32  1  0
  2 29  2  0
  2  3  1  0
  3  4  2  0
  3 33  1  0
  4  5  1  0
  4 34  1  0
  5  6  1  0
  5 28  2  0
  6  7  1  1
  6  8  1  0
  6 22  1  0
  8 35  1  0
  9  8  1  0
  9 20  2  0
  9 10  1  0
 10 11  1  0
 10 12  1  0
 12 13  2  0
 12 36  1  0
 13 14  1  0
 13 20  1  0
 14 19  1  0
 14 15  2  0
 15 16  1  0
 15 37  1  0
 16 17  2  0
 16 38  1  0
 17 18  1  0
 17 39  1  0
 18 19  2  0
 18 40  1  0
 19 41  1  0
 20 21  1  0
 22 27  1  0
 22 23  2  0
 23 24  1  0
 23 42  1  0
 24 25  2  0
 24 43  1  0
 25 26  1  0
 25 44  1  0
 26 27  2  0
 26 45  1  0
 27 46  1  0
 28 29  1  0
 28 47  1  0
 29 48  1  0
M  CHG  1  20   1
M  END
>  <DOCK_score>  (1) 
-60.600391

>  <SMILES>  (1) 
Cc1ccc([C@H](Nc2[nH]cc(-c3ccccc3)[nH+]2)c2ccccc2)cc1

$$$$
