C[C@@H]([NH2+]C1=CCCC1)C(=O)c1cccc(O)c1
     RDKit          3D

 35 36  0  0  1  0  0  0  0  0999 V2000
  128.6027  135.7331  157.2480 C   0  0  0  0  0  0  0  0  0  0  0  0
  129.0250  134.4030  157.8754 C   0  0  1  0  0  0  0  0  0  0  0  0
  128.5780  133.5801  157.3176 H   0  0  0  0  0  0  0  0  0  0  0  0
  130.4885  134.2849  157.8340 N   0  0  0  0  0  0  0  0  0  0  0  0
  130.8298  134.6390  156.9529 H   0  0  0  0  0  0  0  0  0  0  0  0
  130.8907  134.8192  158.5895 H   0  0  0  0  0  0  0  0  0  0  0  0
  130.8517  132.9415  157.9682 C   0  0  0  0  0  0  0  0  0  0  0  0
  131.0036  132.1144  156.9700 C   0  0  0  0  0  0  0  0  0  0  0  0
  131.3988  130.7400  157.4576 C   0  0  0  0  0  0  0  0  0  0  0  0
  131.0591  130.7454  158.9661 C   0  0  0  0  0  0  0  0  0  0  0  0
  131.1260  132.2581  159.2877 C   0  0  0  0  0  0  0  0  0  0  0  0
  128.5572  134.3521  159.3071 C   0  0  0  0  0  0  0  0  0  0  0  0
  129.2734  134.7652  160.1939 O   0  0  0  0  0  0  0  0  0  0  0  0
  127.2310  133.8008  159.6288 C   0  0  0  0  0  0  0  0  0  0  0  0
  126.9218  132.4770  159.2995 C   0  0  0  0  0  0  0  0  0  0  0  0
  125.6781  131.9648  159.6033 C   0  0  0  0  0  0  0  0  0  0  0  0
  124.7339  132.7556  160.2331 C   0  0  0  0  0  0  0  0  0  0  0  0
  125.0304  134.0711  160.5641 C   0  0  0  0  0  0  0  0  0  0  0  0
  124.0977  134.8425  161.1824 O   0  0  0  0  0  0  0  0  0  0  0  0
  126.2752  134.5977  160.2652 C   0  0  0  0  0  0  0  0  0  0  0  0
  128.9410  135.7701  156.2125 H   0  0  0  0  0  0  0  0  0  0  0  0
  127.5166  135.8208  157.2788 H   0  0  0  0  0  0  0  0  0  0  0  0
  129.0496  136.5561  157.8058 H   0  0  0  0  0  0  0  0  0  0  0  0
  130.8647  132.3777  155.9318 H   0  0  0  0  0  0  0  0  0  0  0  0
  130.8214  129.9732  156.9411 H   0  0  0  0  0  0  0  0  0  0  0  0
  132.4663  130.5769  157.3093 H   0  0  0  0  0  0  0  0  0  0  0  0
  130.0599  130.3476  159.1436 H   0  0  0  0  0  0  0  0  0  0  0  0
  131.8051  130.1926  159.5372 H   0  0  0  0  0  0  0  0  0  0  0  0
  132.1159  132.5273  159.6561 H   0  0  0  0  0  0  0  0  0  0  0  0
  130.3626  132.5239  160.0189 H   0  0  0  0  0  0  0  0  0  0  0  0
  127.6580  131.8552  158.8117 H   0  0  0  0  0  0  0  0  0  0  0  0
  125.4404  130.9425  159.3489 H   0  0  0  0  0  0  0  0  0  0  0  0
  123.7618  132.3481  160.4682 H   0  0  0  0  0  0  0  0  0  0  0  0
  124.3951  135.7427  161.3726 H   0  0  0  0  0  0  0  0  0  0  0  0
  126.5068  135.6207  160.5221 H   0  0  0  0  0  0  0  0  0  0  0  0
  1  2  1  0
  1 21  1  0
  1 22  1  0
  1 23  1  0
  2  3  1  6
  2  4  1  0
  2 12  1  0
  4  5  1  0
  4  6  1  0
  4  7  1  0
  7 11  1  0
  7  8  2  0
  8  9  1  0
  8 24  1  0
  9 10  1  0
  9 25  1  0
  9 26  1  0
 10 11  1  0
 10 27  1  0
 10 28  1  0
 11 29  1  0
 11 30  1  0
 12 13  2  0
 12 14  1  0
 14 20  1  0
 14 15  2  0
 15 16  1  0
 15 31  1  0
 16 17  2  0
 16 32  1  0
 17 18  1  0
 17 33  1  0
 18 19  1  0
 18 20  2  0
 19 34  1  0
 20 35  1  0
M  CHG  1   4   1
M  END
>  <DOCK_score>  (1) 
-42.309536

>  <SMILES>  (1) 
C[C@@H]([NH2+]C1=CCCC1)C(=O)c1cccc(O)c1

$$$$
