Cc1ccccc1-n1nc(C)c(C[NH+]=C(NC[C@@H]2CC(O)C2(C)C)NC2CC=CC2)c1C
     RDKit          3D

 70 73  0  0  1  0  0  0  0  0999 V2000
  135.6755  138.1367  165.2541 C   0  0  0  0  0  0  0  0  0  0  0  0
  136.7401  137.1084  164.9708 C   0  0  0  0  0  0  0  0  0  0  0  0
  137.6938  136.8190  165.9272 C   0  0  0  0  0  0  0  0  0  0  0  0
  138.6677  135.8719  165.6700 C   0  0  0  0  0  0  0  0  0  0  0  0
  138.6971  135.2198  164.4507 C   0  0  0  0  0  0  0  0  0  0  0  0
  137.7495  135.5085  163.4886 C   0  0  0  0  0  0  0  0  0  0  0  0
  136.7667  136.4552  163.7462 C   0  0  0  0  0  0  0  0  0  0  0  0
  135.8031  136.7501  162.7717 N   0  0  0  0  0  0  0  0  0  0  0  0
  135.5757  138.0041  162.1902 N   0  0  0  0  0  0  0  0  0  0  0  0
  134.6019  137.8829  161.3242 C   0  0  0  0  0  0  0  0  0  0  0  0
  134.0369  138.9885  160.4700 C   0  0  0  0  0  0  0  0  0  0  0  0
  134.1710  136.5518  161.3330 C   0  0  0  0  0  0  0  0  0  0  0  0
  133.0632  135.9730  160.4910 C   0  0  0  0  0  0  0  0  0  0  0  0
  131.7922  136.0874  161.2106 N   0  0  0  0  0  0  0  0  0  0  0  0
  131.7687  136.4906  162.0924 H   0  0  0  0  0  0  0  0  0  0  0  0
  130.6929  135.6473  160.6656 C   0  0  0  0  0  0  0  0  0  0  0  0
  129.5001  135.7546  161.3409 N   0  0  0  0  0  0  0  0  0  0  0  0
  129.4647  136.3636  162.6728 C   0  0  0  0  0  0  0  0  0  0  0  0
  128.0274  136.3595  163.1973 C   0  0  2  0  0  0  0  0  0  0  0  0
  127.3422  136.9168  162.5587 H   0  0  0  0  0  0  0  0  0  0  0  0
  127.9144  136.7231  164.6874 C   0  0  0  0  0  0  0  0  0  0  0  0
  126.8423  135.6258  164.7930 C   0  0  1  0  0  0  0  0  0  0  0  0
  125.5178  136.0919  164.5278 O   0  0  0  0  0  0  0  0  0  0  0  0
  127.5148  134.9605  163.5783 C   0  0  0  0  0  0  0  0  0  0  0  0
  126.5227  134.3762  162.5706 C   0  0  0  0  0  0  0  0  0  0  0  0
  128.6284  133.9811  163.9542 C   0  0  0  0  0  0  0  0  0  0  0  0
  130.7262  135.0757  159.4157 N   0  0  0  0  0  0  0  0  0  0  0  0
  129.7562  134.0375  159.0589 C   0  0  0  0  0  0  0  0  0  0  0  0
  130.0056  132.7433  159.8677 C   0  0  0  0  0  0  0  0  0  0  0  0
  129.7166  131.6220  158.8968 C   0  0  0  0  0  0  0  0  0  0  0  0
  129.7031  132.0576  157.6664 C   0  0  0  0  0  0  0  0  0  0  0  0
  129.9808  133.5419  157.6115 C   0  0  0  0  0  0  0  0  0  0  0  0
  134.9247  135.8758  162.2308 C   0  0  0  0  0  0  0  0  0  0  0  0
  134.8060  134.4117  162.5678 C   0  0  0  0  0  0  0  0  0  0  0  0
  134.7921  137.6429  165.6593 H   0  0  0  0  0  0  0  0  0  0  0  0
  135.4123  138.6512  164.3300 H   0  0  0  0  0  0  0  0  0  0  0  0
  136.0520  138.8595  165.9779 H   0  0  0  0  0  0  0  0  0  0  0  0
  137.6763  137.3300  166.8785 H   0  0  0  0  0  0  0  0  0  0  0  0
  139.4097  135.6442  166.4209 H   0  0  0  0  0  0  0  0  0  0  0  0
  139.4617  134.4837  164.2509 H   0  0  0  0  0  0  0  0  0  0  0  0
  137.7725  134.9985  162.5369 H   0  0  0  0  0  0  0  0  0  0  0  0
  133.2227  139.4795  161.0030 H   0  0  0  0  0  0  0  0  0  0  0  0
  134.8194  139.7155  160.2525 H   0  0  0  0  0  0  0  0  0  0  0  0
  133.6602  138.5702  159.5367 H   0  0  0  0  0  0  0  0  0  0  0  0
  132.9985  136.5195  159.5501 H   0  0  0  0  0  0  0  0  0  0  0  0
  133.2723  134.9227  160.2876 H   0  0  0  0  0  0  0  0  0  0  0  0
  128.6821  135.4271  160.9355 H   0  0  0  0  0  0  0  0  0  0  0  0
  130.1003  135.7934  163.3501 H   0  0  0  0  0  0  0  0  0  0  0  0
  129.8267  137.3900  162.6127 H   0  0  0  0  0  0  0  0  0  0  0  0
  128.8173  136.5081  165.2589 H   0  0  0  0  0  0  0  0  0  0  0  0
  127.5298  137.7276  164.8636 H   0  0  0  0  0  0  0  0  0  0  0  0
  126.9096  135.0363  165.7074 H   0  0  0  0  0  0  0  0  0  0  0  0
  125.4611  136.7185  163.7934 H   0  0  0  0  0  0  0  0  0  0  0  0
  127.0020  134.2924  161.5954 H   0  0  0  0  0  0  0  0  0  0  0  0
  126.2045  133.3887  162.9051 H   0  0  0  0  0  0  0  0  0  0  0  0
  125.6546  135.0309  162.4939 H   0  0  0  0  0  0  0  0  0  0  0  0
  129.1801  134.3694  164.8103 H   0  0  0  0  0  0  0  0  0  0  0  0
  128.1919  133.0158  164.2108 H   0  0  0  0  0  0  0  0  0  0  0  0
  129.3064  133.8601  163.1095 H   0  0  0  0  0  0  0  0  0  0  0  0
  131.3921  135.3599  158.7700 H   0  0  0  0  0  0  0  0  0  0  0  0
  128.7356  134.3948  159.1963 H   0  0  0  0  0  0  0  0  0  0  0  0
  131.0421  132.6983  160.2020 H   0  0  0  0  0  0  0  0  0  0  0  0
  129.3281  132.6917  160.7199 H   0  0  0  0  0  0  0  0  0  0  0  0
  129.5436  130.5953  159.1834 H   0  0  0  0  0  0  0  0  0  0  0  0
  129.5174  131.4383  156.8013 H   0  0  0  0  0  0  0  0  0  0  0  0
  129.2864  134.0331  156.9298 H   0  0  0  0  0  0  0  0  0  0  0  0
  131.0096  133.7262  157.3024 H   0  0  0  0  0  0  0  0  0  0  0  0
  134.0597  134.2785  163.3509 H   0  0  0  0  0  0  0  0  0  0  0  0
  134.5032  133.8577  161.6792 H   0  0  0  0  0  0  0  0  0  0  0  0
  135.7693  134.0401  162.9169 H   0  0  0  0  0  0  0  0  0  0  0  0
  1  2  1  0
  1 35  1  0
  1 36  1  0
  1 37  1  0
  2  7  2  0
  2  3  1  0
  3  4  2  0
  3 38  1  0
  4  5  1  0
  4 39  1  0
  5  6  2  0
  5 40  1  0
  6  7  1  0
  6 41  1  0
  7  8  1  0
  8 33  1  0
  8  9  1  0
  9 10  2  0
 10 11  1  0
 10 12  1  0
 11 42  1  0
 11 43  1  0
 11 44  1  0
 12 13  1  0
 12 33  2  0
 13 14  1  0
 13 45  1  0
 13 46  1  0
 14 15  1  0
 16 14  2  0
 16 17  1  0
 16 27  1  0
 17 18  1  0
 17 47  1  0
 18 19  1  0
 18 48  1  0
 18 49  1  0
 19 20  1  6
 19 24  1  0
 19 21  1  0
 21 22  1  0
 21 50  1  0
 21 51  1  0
 22 23  1  0
 22 24  1  0
 22 52  1  1
 23 53  1  0
 24 25  1  0
 24 26  1  0
 25 54  1  0
 25 55  1  0
 25 56  1  0
 26 57  1  0
 26 58  1  0
 26 59  1  0
 27 28  1  0
 27 60  1  0
 28 32  1  0
 28 29  1  0
 28 61  1  0
 29 30  1  0
 29 62  1  0
 29 63  1  0
 30 31  2  0
 30 64  1  0
 31 32  1  0
 31 65  1  0
 32 66  1  0
 32 67  1  0
 33 34  1  0
 34 68  1  0
 34 69  1  0
 34 70  1  0
M  CHG  1  14   1
M  END
>  <DOCK_score>  (1) 
-48.008911

>  <SMILES>  (1) 
Cc1ccccc1-n1nc(C)c(C[NH+]=C(NC[C@@H]2CC(O)C2(C)C)NC2CC=CC2)c1C

$$$$
