Cc1ccc(-c2ccc(CCNc3cccc(Nc4cccc(F)c4NC4=[NH+]CCN4)c3N)cc2)[nH]1
     RDKit          3D

 67 71  0  0  0  0  0  0  0  0999 V2000
  141.2744  135.6643  170.9965 C   0  0  0  0  0  0  0  0  0  0  0  0
  139.9474  135.8411  170.3047 C   0  0  0  0  0  0  0  0  0  0  0  0
  138.7484  135.9588  170.9156 C   0  0  0  0  0  0  0  0  0  0  0  0
  137.7730  136.1057  169.9161 C   0  0  0  0  0  0  0  0  0  0  0  0
  138.4145  136.0725  168.7146 C   0  0  0  0  0  0  0  0  0  0  0  0
  137.7787  136.1906  167.3848 C   0  0  0  0  0  0  0  0  0  0  0  0
  138.3442  135.5549  166.2787 C   0  0  0  0  0  0  0  0  0  0  0  0
  137.7457  135.6686  165.0409 C   0  0  0  0  0  0  0  0  0  0  0  0
  136.5870  136.4106  164.8949 C   0  0  0  0  0  0  0  0  0  0  0  0
  135.9386  136.5304  163.5398 C   0  0  0  0  0  0  0  0  0  0  0  0
  134.9262  135.3981  163.3569 C   0  0  0  0  0  0  0  0  0  0  0  0
  134.2958  135.5146  162.0396 N   0  0  0  0  0  0  0  0  0  0  0  0
  132.9829  135.0659  161.8493 C   0  0  0  0  0  0  0  0  0  0  0  0
  132.4247  134.1536  162.7347 C   0  0  0  0  0  0  0  0  0  0  0  0
  131.1269  133.7146  162.5517 C   0  0  0  0  0  0  0  0  0  0  0  0
  130.3819  134.1710  161.4803 C   0  0  0  0  0  0  0  0  0  0  0  0
  130.9324  135.0789  160.5856 C   0  0  0  0  0  0  0  0  0  0  0  0
  130.1768  135.5412  159.5014 N   0  0  0  0  0  0  0  0  0  0  0  0
  128.7852  135.6382  159.6091 C   0  0  0  0  0  0  0  0  0  0  0  0
  128.1993  135.9002  160.8399 C   0  0  0  0  0  0  0  0  0  0  0  0
  126.8247  135.9953  160.9452 C   0  0  0  0  0  0  0  0  0  0  0  0
  126.0280  135.8302  159.8268 C   0  0  0  0  0  0  0  0  0  0  0  0
  126.6033  135.5696  158.5951 C   0  0  0  0  0  0  0  0  0  0  0  0
  125.8221  135.4093  157.5046 F   0  0  0  0  0  0  0  0  0  0  0  0
  127.9839  135.4777  158.4801 C   0  0  0  0  0  0  0  0  0  0  0  0
  128.5705  135.2190  157.2318 N   0  0  0  0  0  0  0  0  0  0  0  0
  129.3384  134.0996  157.0552 C   0  0  0  0  0  0  0  0  0  0  0  0
  129.9119  133.8008  155.9007 N   0  0  0  0  0  0  0  0  0  0  0  0
  129.8481  134.3279  155.0889 H   0  0  0  0  0  0  0  0  0  0  0  0
  130.6648  132.5450  156.0440 C   0  0  0  0  0  0  0  0  0  0  0  0
  130.4198  132.1452  157.5131 C   0  0  0  0  0  0  0  0  0  0  0  0
  129.5626  133.2263  158.0238 N   0  0  0  0  0  0  0  0  0  0  0  0
  132.2375  135.5292  160.7690 C   0  0  0  0  0  0  0  0  0  0  0  0
  132.7992  136.4466  159.8673 N   0  0  0  0  0  0  0  0  0  0  0  0
  136.0242  137.0476  165.9865 C   0  0  0  0  0  0  0  0  0  0  0  0
  136.6100  136.9380  167.2307 C   0  0  0  0  0  0  0  0  0  0  0  0
  139.7538  135.9043  168.9570 N   0  0  0  0  0  0  0  0  0  0  0  0
  140.4477  135.8428  168.2820 H   0  0  0  0  0  0  0  0  0  0  0  0
  141.4767  134.6013  171.1281 H   0  0  0  0  0  0  0  0  0  0  0  0
  142.0624  136.1118  170.3908 H   0  0  0  0  0  0  0  0  0  0  0  0
  141.2441  136.1517  171.9709 H   0  0  0  0  0  0  0  0  0  0  0  0
  138.5718  135.9435  171.9808 H   0  0  0  0  0  0  0  0  0  0  0  0
  136.7107  136.2231  170.0709 H   0  0  0  0  0  0  0  0  0  0  0  0
  139.2487  134.9754  166.3912 H   0  0  0  0  0  0  0  0  0  0  0  0
  138.1823  135.1771  164.1840 H   0  0  0  0  0  0  0  0  0  0  0  0
  136.7020  136.4640  162.7646 H   0  0  0  0  0  0  0  0  0  0  0  0
  135.4276  137.4903  163.4653 H   0  0  0  0  0  0  0  0  0  0  0  0
  135.4371  134.4382  163.4316 H   0  0  0  0  0  0  0  0  0  0  0  0
  134.1628  135.4645  164.1321 H   0  0  0  0  0  0  0  0  0  0  0  0
  134.7879  135.9025  161.2991 H   0  0  0  0  0  0  0  0  0  0  0  0
  133.0039  133.7899  163.5704 H   0  0  0  0  0  0  0  0  0  0  0  0
  130.6948  133.0084  163.2453 H   0  0  0  0  0  0  0  0  0  0  0  0
  129.3700  133.8211  161.3392 H   0  0  0  0  0  0  0  0  0  0  0  0
  130.6180  135.7941  158.6753 H   0  0  0  0  0  0  0  0  0  0  0  0
  128.8178  136.0292  161.7156 H   0  0  0  0  0  0  0  0  0  0  0  0
  126.3710  136.1987  161.9039 H   0  0  0  0  0  0  0  0  0  0  0  0
  124.9541  135.9051  159.9147 H   0  0  0  0  0  0  0  0  0  0  0  0
  128.4319  135.8334  156.4941 H   0  0  0  0  0  0  0  0  0  0  0  0
  131.7273  132.7074  155.8623 H   0  0  0  0  0  0  0  0  0  0  0  0
  130.2730  131.7844  155.3687 H   0  0  0  0  0  0  0  0  0  0  0  0
  131.3602  132.1084  158.0629 H   0  0  0  0  0  0  0  0  0  0  0  0
  129.9045  131.1864  157.5717 H   0  0  0  0  0  0  0  0  0  0  0  0
  129.2165  133.2891  158.9279 H   0  0  0  0  0  0  0  0  0  0  0  0
  133.7084  136.7589  159.9964 H   0  0  0  0  0  0  0  0  0  0  0  0
  132.2781  136.7684  159.1150 H   0  0  0  0  0  0  0  0  0  0  0  0
  135.1219  137.6288  165.8652 H   0  0  0  0  0  0  0  0  0  0  0  0
  136.1675  137.4323  168.0828 H   0  0  0  0  0  0  0  0  0  0  0  0
  1  2  1  0
  1 39  1  0
  1 40  1  0
  1 41  1  0
  2 37  1  0
  2  3  2  0
  3  4  1  0
  3 42  1  0
  4  5  2  0
  4 43  1  0
  5  6  1  0
  5 37  1  0
  6 36  1  0
  6  7  2  0
  7  8  1  0
  7 44  1  0
  8  9  2  0
  8 45  1  0
  9 10  1  0
  9 35  1  0
 10 11  1  0
 10 46  1  0
 10 47  1  0
 11 12  1  0
 11 48  1  0
 11 49  1  0
 12 13  1  0
 12 50  1  0
 13 33  1  0
 13 14  2  0
 14 15  1  0
 14 51  1  0
 15 16  2  0
 15 52  1  0
 16 17  1  0
 16 53  1  0
 17 18  1  0
 17 33  2  0
 18 19  1  0
 18 54  1  0
 19 25  1  0
 19 20  2  0
 20 21  1  0
 20 55  1  0
 21 22  2  0
 21 56  1  0
 22 23  1  0
 22 57  1  0
 23 24  1  0
 23 25  2  0
 25 26  1  0
 26 27  1  0
 26 58  1  0
 27 32  2  0
 27 28  1  0
 28 29  1  0
 28 30  1  0
 30 31  1  0
 30 59  1  0
 30 60  1  0
 31 32  1  0
 31 61  1  0
 31 62  1  0
 32 63  1  0
 33 34  1  0
 34 64  1  0
 34 65  1  0
 35 36  2  0
 35 66  1  0
 36 67  1  0
 37 38  1  0
M  CHG  1  32   1
M  END
>  <DOCK_score>  (1) 
-58.594219

>  <SMILES>  (1) 
Cc1ccc(-c2ccc(CCNc3cccc(Nc4cccc(F)c4NC4=[NH+]CCN4)c3N)cc2)[nH]1

$$$$
