CNC(=[NH2+])N[C@H]1COC[C@H]1Nc1ccccc1C[C@@H]([NH3+])C(=O)Nc1cccc(O)c1
     RDKit          3D

 60 62  0  0  1  0  0  0  0  0999 V2000
  136.0605  137.6734  163.7779 C   0  0  0  0  0  0  0  0  0  0  0  0
  135.0065  137.0663  162.9613 N   0  0  0  0  0  0  0  0  0  0  0  0
  133.8129  137.7241  162.7796 C   0  0  0  0  0  0  0  0  0  0  0  0
  133.6190  138.8876  163.3340 N   0  0  0  0  0  0  0  0  0  0  0  0
  134.3440  139.3272  163.8052 H   0  0  0  0  0  0  0  0  0  0  0  0
  132.7498  139.3140  163.2754 H   0  0  0  0  0  0  0  0  0  0  0  0
  132.8238  137.1543  162.0133 N   0  0  0  0  0  0  0  0  0  0  0  0
  131.5542  137.8578  161.8148 C   0  0  1  0  0  0  0  0  0  0  0  0
  131.0621  138.0330  162.7714 H   0  0  0  0  0  0  0  0  0  0  0  0
  131.7852  139.1928  161.0726 C   0  0  0  0  0  0  0  0  0  0  0  0
  131.5580  138.8795  159.6774 O   0  0  0  0  0  0  0  0  0  0  0  0
  130.4146  137.9972  159.6664 C   0  0  0  0  0  0  0  0  0  0  0  0
  130.6320  137.0544  160.8706 C   0  0  1  0  0  0  0  0  0  0  0  0
  129.6829  136.8344  161.3597 H   0  0  0  0  0  0  0  0  0  0  0  0
  131.2889  135.8171  160.4418 N   0  0  0  0  0  0  0  0  0  0  0  0
  131.1321  134.6478  161.1896 C   0  0  0  0  0  0  0  0  0  0  0  0
  130.9372  134.7208  162.5632 C   0  0  0  0  0  0  0  0  0  0  0  0
  130.7771  133.5639  163.2986 C   0  0  0  0  0  0  0  0  0  0  0  0
  130.8223  132.3315  162.6711 C   0  0  0  0  0  0  0  0  0  0  0  0
  131.0219  132.2551  161.3051 C   0  0  0  0  0  0  0  0  0  0  0  0
  131.1766  133.4093  160.5625 C   0  0  0  0  0  0  0  0  0  0  0  0
  131.3931  133.3251  159.0735 C   0  0  0  0  0  0  0  0  0  0  0  0
  130.2646  134.0640  158.3515 C   0  0  1  0  0  0  0  0  0  0  0  0
  130.2596  135.1097  158.6593 H   0  0  0  0  0  0  0  0  0  0  0  0
  130.4755  133.9818  156.9001 N   0  0  0  0  0  0  0  0  0  0  0  0
  130.4802  133.0139  156.6151 H   0  0  0  0  0  0  0  0  0  0  0  0
  129.7313  134.4692  156.4239 H   0  0  0  0  0  0  0  0  0  0  0  0
  131.3601  134.4061  156.6642 H   0  0  0  0  0  0  0  0  0  0  0  0
  128.9433  133.4305  158.7038 C   0  0  0  0  0  0  0  0  0  0  0  0
  128.5070  132.5225  158.0283 O   0  0  0  0  0  0  0  0  0  0  0  0
  128.2467  133.8728  159.7693 N   0  0  0  0  0  0  0  0  0  0  0  0
  127.0199  133.2847  160.0963 C   0  0  0  0  0  0  0  0  0  0  0  0
  126.7864  131.9489  159.7940 C   0  0  0  0  0  0  0  0  0  0  0  0
  125.5775  131.3668  160.1220 C   0  0  0  0  0  0  0  0  0  0  0  0
  124.5932  132.1141  160.7410 C   0  0  0  0  0  0  0  0  0  0  0  0
  124.8188  133.4501  161.0402 C   0  0  0  0  0  0  0  0  0  0  0  0
  123.8499  134.1837  161.6484 O   0  0  0  0  0  0  0  0  0  0  0  0
  126.0329  134.0364  160.7177 C   0  0  0  0  0  0  0  0  0  0  0  0
  136.9251  137.0104  163.8064 H   0  0  0  0  0  0  0  0  0  0  0  0
  136.3504  138.6304  163.3440 H   0  0  0  0  0  0  0  0  0  0  0  0
  135.6899  137.8309  164.7907 H   0  0  0  0  0  0  0  0  0  0  0  0
  135.1507  136.2004  162.5487 H   0  0  0  0  0  0  0  0  0  0  0  0
  132.9680  136.2883  161.6007 H   0  0  0  0  0  0  0  0  0  0  0  0
  131.0743  139.9449  161.4143 H   0  0  0  0  0  0  0  0  0  0  0  0
  132.8076  139.5392  161.2242 H   0  0  0  0  0  0  0  0  0  0  0  0
  130.3845  137.4265  158.7383 H   0  0  0  0  0  0  0  0  0  0  0  0
  129.4942  138.5673  159.7922 H   0  0  0  0  0  0  0  0  0  0  0  0
  131.8326  135.8099  159.6386 H   0  0  0  0  0  0  0  0  0  0  0  0
  130.9065  135.6820  163.0546 H   0  0  0  0  0  0  0  0  0  0  0  0
  130.6218  133.6193  164.3660 H   0  0  0  0  0  0  0  0  0  0  0  0
  130.7008  131.4274  163.2494 H   0  0  0  0  0  0  0  0  0  0  0  0
  131.0563  131.2917  160.8180 H   0  0  0  0  0  0  0  0  0  0  0  0
  132.3488  133.7833  158.8188 H   0  0  0  0  0  0  0  0  0  0  0  0
  131.3979  132.2794  158.7657 H   0  0  0  0  0  0  0  0  0  0  0  0
  128.5956  134.5990  160.3094 H   0  0  0  0  0  0  0  0  0  0  0  0
  127.5522  131.3641  159.3063 H   0  0  0  0  0  0  0  0  0  0  0  0
  125.3993  130.3272  159.8900 H   0  0  0  0  0  0  0  0  0  0  0  0
  123.6471  131.6575  160.9920 H   0  0  0  0  0  0  0  0  0  0  0  0
  124.0993  135.1029  161.8159 H   0  0  0  0  0  0  0  0  0  0  0  0
  126.2100  135.0762  160.9495 H   0  0  0  0  0  0  0  0  0  0  0  0
  1  2  1  0
  1 39  1  0
  1 40  1  0
  1 41  1  0
  2  3  1  0
  2 42  1  0
  3  4  2  0
  3  7  1  0
  4  5  1  0
  4  6  1  0
  7  8  1  0
  7 43  1  0
  8  9  1  1
  8 13  1  0
  8 10  1  0
 10 11  1  0
 10 44  1  0
 10 45  1  0
 11 12  1  0
 12 13  1  0
 12 46  1  0
 12 47  1  0
 13 14  1  1
 13 15  1  0
 15 16  1  0
 15 48  1  0
 16 21  1  0
 16 17  2  0
 17 18  1  0
 17 49  1  0
 18 19  2  0
 18 50  1  0
 19 20  1  0
 19 51  1  0
 20 21  2  0
 20 52  1  0
 21 22  1  0
 22 23  1  0
 22 53  1  0
 22 54  1  0
 23 24  1  1
 23 25  1  0
 23 29  1  0
 25 26  1  0
 25 27  1  0
 25 28  1  0
 29 30  2  0
 29 31  1  0
 31 32  1  0
 31 55  1  0
 32 38  1  0
 32 33  2  0
 33 34  1  0
 33 56  1  0
 34 35  2  0
 34 57  1  0
 35 36  1  0
 35 58  1  0
 36 37  1  0
 36 38  2  0
 37 59  1  0
 38 60  1  0
M  CHG  2   4   1  25   1
M  END
>  <DOCK_score>  (1) 
-56.693466

>  <SMILES>  (1) 
CNC(=[NH2+])N[C@H]1COC[C@H]1Nc1ccccc1C[C@@H]([NH3+])C(=O)Nc1cccc(O)c1

$$$$
