CCc1ccc(-c2c[nH]c(N[C@H](C)Cc3ccncc3)[nH+]2)cc1
     RDKit          3D

 46 48  0  0  1  0  0  0  0  0999 V2000
  130.0992  128.6224  151.1762 C   0  0  0  0  0  0  0  0  0  0  0  0
  131.2701  129.5435  151.5243 C   0  0  0  0  0  0  0  0  0  0  0  0
  130.9625  130.2877  152.7981 C   0  0  0  0  0  0  0  0  0  0  0  0
  131.3270  129.7463  154.0172 C   0  0  0  0  0  0  0  0  0  0  0  0
  131.0529  130.4259  155.1868 C   0  0  0  0  0  0  0  0  0  0  0  0
  130.3974  131.6548  155.1382 C   0  0  0  0  0  0  0  0  0  0  0  0
  130.0951  132.3874  156.3921 C   0  0  0  0  0  0  0  0  0  0  0  0
  129.3336  131.9330  157.4181 C   0  0  0  0  0  0  0  0  0  0  0  0
  129.3159  132.9231  158.3703 N   0  0  0  0  0  0  0  0  0  0  0  0
  128.8526  132.8928  159.2219 H   0  0  0  0  0  0  0  0  0  0  0  0
  130.0679  133.9543  157.8979 C   0  0  0  0  0  0  0  0  0  0  0  0
  130.3038  135.1485  158.5573 N   0  0  0  0  0  0  0  0  0  0  0  0
  129.7210  135.3818  159.8810 C   0  0  2  0  0  0  0  0  0  0  0  0
  129.7773  134.4661  160.4694 H   0  0  0  0  0  0  0  0  0  0  0  0
  128.2572  135.8000  159.7272 C   0  0  0  0  0  0  0  0  0  0  0  0
  130.4968  136.4931  160.5911 C   0  0  0  0  0  0  0  0  0  0  0  0
  131.7640  135.9255  161.1770 C   0  0  0  0  0  0  0  0  0  0  0  0
  132.4014  134.8483  160.5805 C   0  0  0  0  0  0  0  0  0  0  0  0
  133.5640  134.3575  161.1441 C   0  0  0  0  0  0  0  0  0  0  0  0
  134.0616  134.8955  162.2404 N   0  0  0  0  0  0  0  0  0  0  0  0
  133.4798  135.9176  162.8371 C   0  0  0  0  0  0  0  0  0  0  0  0
  132.3170  136.4646  162.3285 C   0  0  0  0  0  0  0  0  0  0  0  0
  130.5366  133.6281  156.7182 N   0  0  0  0  0  0  0  0  0  0  0  0
  131.1062  134.1858  156.1654 H   0  0  0  0  0  0  0  0  0  0  0  0
  130.0273  132.1932  153.9071 C   0  0  0  0  0  0  0  0  0  0  0  0
  130.3115  131.5075  152.7436 C   0  0  0  0  0  0  0  0  0  0  0  0
  129.9458  127.9088  151.9857 H   0  0  0  0  0  0  0  0  0  0  0  0
  129.1961  129.2175  151.0405 H   0  0  0  0  0  0  0  0  0  0  0  0
  130.3216  128.0843  150.2548 H   0  0  0  0  0  0  0  0  0  0  0  0
  132.1730  128.9490  151.6595 H   0  0  0  0  0  0  0  0  0  0  0  0
  131.4232  130.2577  150.7143 H   0  0  0  0  0  0  0  0  0  0  0  0
  131.8307  128.7917  154.0539 H   0  0  0  0  0  0  0  0  0  0  0  0
  131.3422  130.0042  156.1381 H   0  0  0  0  0  0  0  0  0  0  0  0
  128.8359  130.9763  157.4754 H   0  0  0  0  0  0  0  0  0  0  0  0
  130.8551  135.8306  158.1430 H   0  0  0  0  0  0  0  0  0  0  0  0
  127.7044  135.0083  159.2213 H   0  0  0  0  0  0  0  0  0  0  0  0
  127.8236  135.9736  160.7120 H   0  0  0  0  0  0  0  0  0  0  0  0
  128.2009  136.7158  159.1387 H   0  0  0  0  0  0  0  0  0  0  0  0
  130.7463  137.2765  159.8756 H   0  0  0  0  0  0  0  0  0  0  0  0
  129.8833  136.9117  161.3890 H   0  0  0  0  0  0  0  0  0  0  0  0
  131.9963  134.4006  159.6852 H   0  0  0  0  0  0  0  0  0  0  0  0
  134.0684  133.5208  160.6837 H   0  0  0  0  0  0  0  0  0  0  0  0
  133.9170  136.3316  163.7335 H   0  0  0  0  0  0  0  0  0  0  0  0
  131.8452  137.3016  162.8216 H   0  0  0  0  0  0  0  0  0  0  0  0
  129.5189  133.1451  153.8636 H   0  0  0  0  0  0  0  0  0  0  0  0
  130.0249  131.9236  151.7890 H   0  0  0  0  0  0  0  0  0  0  0  0
  1  2  1  0
  1 27  1  0
  1 28  1  0
  1 29  1  0
  2  3  1  0
  2 30  1  0
  2 31  1  0
  3 26  2  0
  3  4  1  0
  4  5  2  0
  4 32  1  0
  5  6  1  0
  5 33  1  0
  6  7  1  0
  6 25  2  0
  7 23  1  0
  7  8  2  0
  8  9  1  0
  8 34  1  0
  9 10  1  0
  9 11  1  0
 11 12  1  0
 11 23  2  0
 12 13  1  0
 12 35  1  0
 13 14  1  1
 13 15  1  0
 13 16  1  0
 15 36  1  0
 15 37  1  0
 15 38  1  0
 16 17  1  0
 16 39  1  0
 16 40  1  0
 17 22  1  0
 17 18  2  0
 18 19  1  0
 18 41  1  0
 19 20  2  0
 19 42  1  0
 20 21  1  0
 21 22  2  0
 21 43  1  0
 22 44  1  0
 23 24  1  0
 25 26  1  0
 25 45  1  0
 26 46  1  0
M  CHG  1  23   1
M  END
>  <DOCK_score>  (1) 
-55.949047

>  <SMILES>  (1) 
CCc1ccc(-c2c[nH]c(N[C@H](C)Cc3ccncc3)[nH+]2)cc1

$$$$
