C/C=C/CNc1ccc(C[N@H+](C)C2c3cc(O)ccc3-c3ccc(O)cc32)cc1
     RDKit          3D

 56 59  0  0  1  0  0  0  0  0999 V2000
  135.3067  141.4137  159.9596 C   0  0  0  0  0  0  0  0  0  0  0  0
  135.1073  140.7139  161.2793 C   0  0  0  0  0  0  0  0  0  0  0  0
  133.9364  140.7431  161.8660 C   0  0  0  0  0  0  0  0  0  0  0  0
  133.7369  140.0434  163.1856 C   0  0  0  0  0  0  0  0  0  0  0  0
  132.3476  139.5914  163.2936 N   0  0  0  0  0  0  0  0  0  0  0  0
  131.8297  138.6958  162.3552 C   0  0  0  0  0  0  0  0  0  0  0  0
  130.4556  138.5804  162.1878 C   0  0  0  0  0  0  0  0  0  0  0  0
  129.9467  137.6898  161.2630 C   0  0  0  0  0  0  0  0  0  0  0  0
  130.8036  136.9208  160.4970 C   0  0  0  0  0  0  0  0  0  0  0  0
  130.2446  135.9536  159.4855 C   0  0  0  0  0  0  0  0  0  0  0  0
  129.1336  135.2038  160.0870 N   0  0  2  0  0  0  0  0  0  0  0  0
  128.5786  135.8245  160.6569 H   0  0  0  0  0  0  0  0  0  0  0  0
  129.6692  134.1203  160.9217 C   0  0  0  0  0  0  0  0  0  0  0  0
  128.2951  134.6342  159.0238 C   0  0  0  0  0  0  0  0  0  0  0  0
  126.9565  134.2193  159.5838 C   0  0  0  0  0  0  0  0  0  0  0  0
  125.9515  134.9325  160.2005 C   0  0  0  0  0  0  0  0  0  0  0  0
  124.8004  134.2834  160.6263 C   0  0  0  0  0  0  0  0  0  0  0  0
  123.8088  134.9863  161.2339 O   0  0  0  0  0  0  0  0  0  0  0  0
  124.6624  132.9157  160.4304 C   0  0  0  0  0  0  0  0  0  0  0  0
  125.6653  132.1989  159.8145 C   0  0  0  0  0  0  0  0  0  0  0  0
  126.8252  132.8475  159.3841 C   0  0  0  0  0  0  0  0  0  0  0  0
  128.0384  132.3286  158.7052 C   0  0  0  0  0  0  0  0  0  0  0  0
  128.3804  131.0379  158.2953 C   0  0  0  0  0  0  0  0  0  0  0  0
  129.5889  130.8091  157.6736 C   0  0  0  0  0  0  0  0  0  0  0  0
  130.4707  131.8586  157.4531 C   0  0  0  0  0  0  0  0  0  0  0  0
  131.6617  131.6284  156.8407 O   0  0  0  0  0  0  0  0  0  0  0  0
  130.1355  133.1433  157.8593 C   0  0  0  0  0  0  0  0  0  0  0  0
  128.9278  133.3763  158.4808 C   0  0  0  0  0  0  0  0  0  0  0  0
  132.1719  137.0336  160.6609 C   0  0  0  0  0  0  0  0  0  0  0  0
  132.6875  137.9184  161.5875 C   0  0  0  0  0  0  0  0  0  0  0  0
  135.0975  142.4769  160.0769 H   0  0  0  0  0  0  0  0  0  0  0  0
  136.3370  141.2803  159.6297 H   0  0  0  0  0  0  0  0  0  0  0  0
  134.6299  140.9898  159.2177 H   0  0  0  0  0  0  0  0  0  0  0  0
  135.9298  140.1882  161.7416 H   0  0  0  0  0  0  0  0  0  0  0  0
  133.1139  141.2689  161.4037 H   0  0  0  0  0  0  0  0  0  0  0  0
  133.9587  140.7334  163.9999 H   0  0  0  0  0  0  0  0  0  0  0  0
  134.4044  139.1838  163.2457 H   0  0  0  0  0  0  0  0  0  0  0  0
  131.7874  139.9140  164.0169 H   0  0  0  0  0  0  0  0  0  0  0  0
  129.7858  139.1830  162.7832 H   0  0  0  0  0  0  0  0  0  0  0  0
  128.8782  137.5963  161.1355 H   0  0  0  0  0  0  0  0  0  0  0  0
  129.8832  136.5044  158.6172 H   0  0  0  0  0  0  0  0  0  0  0  0
  131.0260  135.2595  159.1763 H   0  0  0  0  0  0  0  0  0  0  0  0
  130.3436  133.5034  160.3277 H   0  0  0  0  0  0  0  0  0  0  0  0
  130.2136  134.5461  161.7645 H   0  0  0  0  0  0  0  0  0  0  0  0
  128.8476  133.5072  161.2923 H   0  0  0  0  0  0  0  0  0  0  0  0
  128.1590  135.3616  158.2234 H   0  0  0  0  0  0  0  0  0  0  0  0
  126.0593  135.9962  160.3529 H   0  0  0  0  0  0  0  0  0  0  0  0
  123.9954  135.9307  161.3253 H   0  0  0  0  0  0  0  0  0  0  0  0
  123.7662  132.4121  160.7618 H   0  0  0  0  0  0  0  0  0  0  0  0
  125.5542  131.1353  159.6637 H   0  0  0  0  0  0  0  0  0  0  0  0
  127.6972  130.2188  158.4653 H   0  0  0  0  0  0  0  0  0  0  0  0
  129.8509  129.8101  157.3573 H   0  0  0  0  0  0  0  0  0  0  0  0
  132.2072  132.4193  156.7313 H   0  0  0  0  0  0  0  0  0  0  0  0
  130.8209  133.9600  157.6876 H   0  0  0  0  0  0  0  0  0  0  0  0
  132.8383  136.4289  160.0637 H   0  0  0  0  0  0  0  0  0  0  0  0
  133.7563  138.0055  161.7155 H   0  0  0  0  0  0  0  0  0  0  0  0
  1  2  1  0
  1 31  1  0
  1 32  1  0
  1 33  1  0
  2  3  2  0
  2 34  1  0
  3  4  1  0
  3 35  1  0
  4  5  1  0
  4 36  1  0
  4 37  1  0
  5  6  1  0
  5 38  1  0
  6 30  2  0
  6  7  1  0
  7  8  2  0
  7 39  1  0
  8  9  1  0
  8 40  1  0
  9 10  1  0
  9 29  2  0
 10 11  1  0
 10 41  1  0
 10 42  1  0
 11 12  1  1
 11 13  1  0
 11 14  1  0
 13 43  1  0
 13 44  1  0
 13 45  1  0
 14 28  1  0
 14 15  1  0
 14 46  1  0
 15 21  1  0
 15 16  2  0
 16 17  1  0
 16 47  1  0
 17 18  1  0
 17 19  2  0
 18 48  1  0
 19 20  1  0
 19 49  1  0
 20 21  2  0
 20 50  1  0
 21 22  1  0
 22 28  2  0
 22 23  1  0
 23 24  2  0
 23 51  1  0
 24 25  1  0
 24 52  1  0
 25 26  1  0
 25 27  2  0
 26 53  1  0
 27 28  1  0
 27 54  1  0
 29 30  1  0
 29 55  1  0
 30 56  1  0
M  CHG  1  11   1
M  END
>  <DOCK_score>  (1) 
-43.464642

>  <SMILES>  (1) 
C/C=C/CNc1ccc(C[N@H+](C)C2c3cc(O)ccc3-c3ccc(O)cc32)cc1

$$$$
