Nc1ccccc1[C@@H](c1ccccc1)[NH+]1CCN(C(c2ccccc2)c2ccccc2)CC1
     RDKit          3D

 65 69  0  0  1  0  0  0  0  0999 V2000
  131.3107  132.7404  156.6702 N   0  0  0  0  0  0  0  0  0  0  0  0
  131.3148  131.9858  157.8455 C   0  0  0  0  0  0  0  0  0  0  0  0
  131.4843  130.6080  157.7878 C   0  0  0  0  0  0  0  0  0  0  0  0
  131.4822  129.8642  158.9512 C   0  0  0  0  0  0  0  0  0  0  0  0
  131.3172  130.4901  160.1735 C   0  0  0  0  0  0  0  0  0  0  0  0
  131.1543  131.8618  160.2351 C   0  0  0  0  0  0  0  0  0  0  0  0
  131.1551  132.6116  159.0750 C   0  0  0  0  0  0  0  0  0  0  0  0
  130.9765  134.1064  159.1430 C   0  0  1  0  0  0  0  0  0  0  0  0
  131.4998  134.5733  158.3085 H   0  0  0  0  0  0  0  0  0  0  0  0
  129.5092  134.4412  159.0662 C   0  0  0  0  0  0  0  0  0  0  0  0
  128.5708  133.5510  159.5539 C   0  0  0  0  0  0  0  0  0  0  0  0
  127.2250  133.8598  159.4874 C   0  0  0  0  0  0  0  0  0  0  0  0
  126.8171  135.0547  158.9243 C   0  0  0  0  0  0  0  0  0  0  0  0
  127.7553  135.9427  158.4322 C   0  0  0  0  0  0  0  0  0  0  0  0
  129.1013  135.6357  158.5028 C   0  0  0  0  0  0  0  0  0  0  0  0
  131.5276  134.6084  160.4089 N   0  0  0  0  0  0  0  0  0  0  0  0
  131.0431  134.1761  161.1812 H   0  0  0  0  0  0  0  0  0  0  0  0
  131.3527  136.0653  160.4752 C   0  0  0  0  0  0  0  0  0  0  0  0
  131.9093  136.5861  161.8021 C   0  0  0  0  0  0  0  0  0  0  0  0
  133.3348  136.2419  161.9007 N   0  0  0  0  0  0  0  0  0  0  0  0
  133.9208  136.7751  163.1376 C   0  0  0  0  0  0  0  0  0  0  0  0
  135.1885  136.0253  163.4567 C   0  0  0  0  0  0  0  0  0  0  0  0
  135.1410  134.8924  164.2476 C   0  0  0  0  0  0  0  0  0  0  0  0
  136.3033  134.2022  164.5367 C   0  0  0  0  0  0  0  0  0  0  0  0
  137.5142  134.6499  164.0426 C   0  0  0  0  0  0  0  0  0  0  0  0
  137.5623  135.7857  163.2562 C   0  0  0  0  0  0  0  0  0  0  0  0
  136.3995  136.4734  162.9633 C   0  0  0  0  0  0  0  0  0  0  0  0
  134.2349  138.2377  162.9548 C   0  0  0  0  0  0  0  0  0  0  0  0
  134.1890  139.0950  164.0382 C   0  0  0  0  0  0  0  0  0  0  0  0
  134.4814  140.4358  163.8715 C   0  0  0  0  0  0  0  0  0  0  0  0
  134.8107  140.9209  162.6196 C   0  0  0  0  0  0  0  0  0  0  0  0
  134.8515  140.0645  161.5352 C   0  0  0  0  0  0  0  0  0  0  0  0
  134.5634  138.7229  161.7028 C   0  0  0  0  0  0  0  0  0  0  0  0
  133.5279  134.7877  161.8106 C   0  0  0  0  0  0  0  0  0  0  0  0
  132.9576  134.2816  160.4837 C   0  0  0  0  0  0  0  0  0  0  0  0
  131.1962  133.7027  156.7121 H   0  0  0  0  0  0  0  0  0  0  0  0
  131.4224  132.3021  155.8120 H   0  0  0  0  0  0  0  0  0  0  0  0
  131.6132  130.1187  156.8336 H   0  0  0  0  0  0  0  0  0  0  0  0
  131.6099  128.7928  158.9067 H   0  0  0  0  0  0  0  0  0  0  0  0
  131.3159  129.9061  161.0820 H   0  0  0  0  0  0  0  0  0  0  0  0
  131.0262  132.3473  161.1911 H   0  0  0  0  0  0  0  0  0  0  0  0
  128.8892  132.6156  159.9901 H   0  0  0  0  0  0  0  0  0  0  0  0
  126.4921  133.1662  159.8721 H   0  0  0  0  0  0  0  0  0  0  0  0
  125.7655  135.2945  158.8693 H   0  0  0  0  0  0  0  0  0  0  0  0
  127.4367  136.8761  157.9924 H   0  0  0  0  0  0  0  0  0  0  0  0
  129.8343  136.3293  158.1181 H   0  0  0  0  0  0  0  0  0  0  0  0
  131.8867  136.5333  159.6482 H   0  0  0  0  0  0  0  0  0  0  0  0
  130.2922  136.3074  160.4063 H   0  0  0  0  0  0  0  0  0  0  0  0
  131.3666  136.1284  162.6291 H   0  0  0  0  0  0  0  0  0  0  0  0
  131.7929  137.6691  161.8452 H   0  0  0  0  0  0  0  0  0  0  0  0
  133.2118  136.6552  163.9566 H   0  0  0  0  0  0  0  0  0  0  0  0
  134.1955  134.5448  164.6367 H   0  0  0  0  0  0  0  0  0  0  0  0
  136.2656  133.3146  165.1508 H   0  0  0  0  0  0  0  0  0  0  0  0
  138.4225  134.1121  164.2707 H   0  0  0  0  0  0  0  0  0  0  0  0
  138.5084  136.1354  162.8701 H   0  0  0  0  0  0  0  0  0  0  0  0
  136.4372  137.3609  162.3489 H   0  0  0  0  0  0  0  0  0  0  0  0
  133.9281  138.7167  165.0156 H   0  0  0  0  0  0  0  0  0  0  0  0
  134.4499  141.1047  164.7187 H   0  0  0  0  0  0  0  0  0  0  0  0
  135.0365  141.9688  162.4889 H   0  0  0  0  0  0  0  0  0  0  0  0
  135.1087  140.4435  160.5572 H   0  0  0  0  0  0  0  0  0  0  0  0
  134.5952  138.0539  160.8557 H   0  0  0  0  0  0  0  0  0  0  0  0
  133.0119  134.3003  162.6378 H   0  0  0  0  0  0  0  0  0  0  0  0
  134.5925  134.5585  161.8599 H   0  0  0  0  0  0  0  0  0  0  0  0
  133.0872  133.2011  160.4212 H   0  0  0  0  0  0  0  0  0  0  0  0
  133.4832  134.7589  159.6567 H   0  0  0  0  0  0  0  0  0  0  0  0
  1  2  1  0
  1 36  1  0
  1 37  1  0
  2  7  2  0
  2  3  1  0
  3  4  2  0
  3 38  1  0
  4  5  1  0
  4 39  1  0
  5  6  2  0
  5 40  1  0
  6  7  1  0
  6 41  1  0
  7  8  1  0
  8  9  1  6
  8 10  1  0
  8 16  1  0
 10 15  1  0
 10 11  2  0
 11 12  1  0
 11 42  1  0
 12 13  2  0
 12 43  1  0
 13 14  1  0
 13 44  1  0
 14 15  2  0
 14 45  1  0
 15 46  1  0
 16 17  1  0
 16 35  1  0
 16 18  1  0
 18 19  1  0
 18 47  1  0
 18 48  1  0
 19 20  1  0
 19 49  1  0
 19 50  1  0
 20 21  1  0
 20 34  1  0
 21 22  1  0
 21 28  1  0
 21 51  1  0
 22 27  1  0
 22 23  2  0
 23 24  1  0
 23 52  1  0
 24 25  2  0
 24 53  1  0
 25 26  1  0
 25 54  1  0
 26 27  2  0
 26 55  1  0
 27 56  1  0
 28 33  1  0
 28 29  2  0
 29 30  1  0
 29 57  1  0
 30 31  2  0
 30 58  1  0
 31 32  1  0
 31 59  1  0
 32 33  2  0
 32 60  1  0
 33 61  1  0
 34 35  1  0
 34 62  1  0
 34 63  1  0
 35 64  1  0
 35 65  1  0
M  CHG  1  16   1
M  END
>  <DOCK_score>  (1) 
-56.232674

>  <SMILES>  (1) 
Nc1ccccc1[C@@H](c1ccccc1)[NH+]1CCN(C(c2ccccc2)c2ccccc2)CC1

$$$$
