Nc1ccc(-c2c[nH]c(N[C@H]3CCCC(=O)C3)[nH+]2)cc1
     RDKit          3D

 39 41  0  0  1  0  0  0  0  0999 V2000
  131.3230  129.7724  151.7673 N   0  0  0  0  0  0  0  0  0  0  0  0
  131.0441  130.4390  152.9629 C   0  0  0  0  0  0  0  0  0  0  0  0
  130.4178  131.6801  152.9346 C   0  0  0  0  0  0  0  0  0  0  0  0
  130.1413  132.3406  154.1131 C   0  0  0  0  0  0  0  0  0  0  0  0
  130.4910  131.7635  155.3329 C   0  0  0  0  0  0  0  0  0  0  0  0
  130.1950  132.4724  156.6021 C   0  0  0  0  0  0  0  0  0  0  0  0
  129.4110  132.0131  157.6085 C   0  0  0  0  0  0  0  0  0  0  0  0
  129.4140  132.9778  158.5881 N   0  0  0  0  0  0  0  0  0  0  0  0
  128.9450  132.9369  159.4362 H   0  0  0  0  0  0  0  0  0  0  0  0
  130.1936  134.0018  158.1465 C   0  0  0  0  0  0  0  0  0  0  0  0
  130.4548  135.1725  158.8379 N   0  0  0  0  0  0  0  0  0  0  0  0
  129.8703  135.3859  160.1642 C   0  0  1  0  0  0  0  0  0  0  0  0
  129.9007  134.4542  160.7292 H   0  0  0  0  0  0  0  0  0  0  0  0
  130.6681  136.4591  160.9067 C   0  0  0  0  0  0  0  0  0  0  0  0
  130.1194  136.6251  162.3247 C   0  0  0  0  0  0  0  0  0  0  0  0
  128.6746  137.1309  162.2559 C   0  0  0  0  0  0  0  0  0  0  0  0
  127.8757  136.1868  161.3849 C   0  0  0  0  0  0  0  0  0  0  0  0
  126.8328  135.7182  161.7738 O   0  0  0  0  0  0  0  0  0  0  0  0
  128.4162  135.8450  160.0140 C   0  0  0  0  0  0  0  0  0  0  0  0
  130.6610  133.6948  156.9610 N   0  0  0  0  0  0  0  0  0  0  0  0
  131.2465  134.2529  156.4256 H   0  0  0  0  0  0  0  0  0  0  0  0
  131.1243  130.5220  155.3581 C   0  0  0  0  0  0  0  0  0  0  0  0
  131.3942  129.8627  154.1774 C   0  0  0  0  0  0  0  0  0  0  0  0
  131.0793  130.1745  150.9190 H   0  0  0  0  0  0  0  0  0  0  0  0
  131.7601  128.9066  151.7859 H   0  0  0  0  0  0  0  0  0  0  0  0
  130.1471  132.1268  151.9893 H   0  0  0  0  0  0  0  0  0  0  0  0
  129.6546  133.3044  154.0910 H   0  0  0  0  0  0  0  0  0  0  0  0
  128.8881  131.0686  157.6370 H   0  0  0  0  0  0  0  0  0  0  0  0
  131.0216  135.8531  158.4425 H   0  0  0  0  0  0  0  0  0  0  0  0
  131.7159  136.1625  160.9558 H   0  0  0  0  0  0  0  0  0  0  0  0
  130.5855  137.4060  160.3732 H   0  0  0  0  0  0  0  0  0  0  0  0
  130.7309  137.3446  162.8692 H   0  0  0  0  0  0  0  0  0  0  0  0
  130.1441  135.6643  162.8390 H   0  0  0  0  0  0  0  0  0  0  0  0
  128.6572  138.1312  161.8233 H   0  0  0  0  0  0  0  0  0  0  0  0
  128.2448  137.1574  163.2572 H   0  0  0  0  0  0  0  0  0  0  0  0
  128.3747  136.7263  159.3739 H   0  0  0  0  0  0  0  0  0  0  0  0
  127.8223  135.0428  159.5759 H   0  0  0  0  0  0  0  0  0  0  0  0
  131.3998  130.0748  156.3019 H   0  0  0  0  0  0  0  0  0  0  0  0
  131.8815  128.8991  154.1967 H   0  0  0  0  0  0  0  0  0  0  0  0
  1  2  1  0
  1 24  1  0
  1 25  1  0
  2 23  2  0
  2  3  1  0
  3  4  2  0
  3 26  1  0
  4  5  1  0
  4 27  1  0
  5  6  1  0
  5 22  2  0
  6 20  1  0
  6  7  2  0
  7  8  1  0
  7 28  1  0
  8  9  1  0
  8 10  1  0
 10 11  1  0
 10 20  2  0
 11 12  1  0
 11 29  1  0
 12 13  1  1
 12 19  1  0
 12 14  1  0
 14 15  1  0
 14 30  1  0
 14 31  1  0
 15 16  1  0
 15 32  1  0
 15 33  1  0
 16 17  1  0
 16 34  1  0
 16 35  1  0
 17 18  2  0
 17 19  1  0
 19 36  1  0
 19 37  1  0
 20 21  1  0
 22 23  1  0
 22 38  1  0
 23 39  1  0
M  CHG  1  20   1
M  END
>  <DOCK_score>  (1) 
-48.107834

>  <SMILES>  (1) 
Nc1ccc(-c2c[nH]c(N[C@H]3CCCC(=O)C3)[nH+]2)cc1

$$$$
