Oc1ccccc1CCNc1ccc(-c2n[nH]cc2C[NH2+]CCC2=CCCC2)o1
     RDKit          3D

 58 61  0  0  0  0  0  0  0  0999 V2000
  132.6052  138.5927  159.1172 O   0  0  0  0  0  0  0  0  0  0  0  0
  133.8224  139.1578  159.3309 C   0  0  0  0  0  0  0  0  0  0  0  0
  134.8836  138.8625  158.4871 C   0  0  0  0  0  0  0  0  0  0  0  0
  136.1216  139.4330  158.7105 C   0  0  0  0  0  0  0  0  0  0  0  0
  136.3021  140.3031  159.7701 C   0  0  0  0  0  0  0  0  0  0  0  0
  135.2449  140.6036  160.6087 C   0  0  0  0  0  0  0  0  0  0  0  0
  134.0049  140.0348  160.3901 C   0  0  0  0  0  0  0  0  0  0  0  0
  132.8531  140.3621  161.3052 C   0  0  0  0  0  0  0  0  0  0  0  0
  132.8267  139.3676  162.4674 C   0  0  0  0  0  0  0  0  0  0  0  0
  131.7071  139.6856  163.3570 N   0  0  0  0  0  0  0  0  0  0  0  0
  130.4612  139.1087  163.1399 C   0  0  0  0  0  0  0  0  0  0  0  0
  129.3507  139.3151  163.8908 C   0  0  0  0  0  0  0  0  0  0  0  0
  128.3202  138.5408  163.3221 C   0  0  0  0  0  0  0  0  0  0  0  0
  128.8553  137.8994  162.2500 C   0  0  0  0  0  0  0  0  0  0  0  0
  128.1383  136.9744  161.3482 C   0  0  0  0  0  0  0  0  0  0  0  0
  126.8714  136.6221  161.4448 N   0  0  0  0  0  0  0  0  0  0  0  0
  126.5866  135.7334  160.4003 N   0  0  0  0  0  0  0  0  0  0  0  0
  125.7289  135.3146  160.2277 H   0  0  0  0  0  0  0  0  0  0  0  0
  127.7126  135.5608  159.6745 C   0  0  0  0  0  0  0  0  0  0  0  0
  128.6893  136.3063  160.2343 C   0  0  0  0  0  0  0  0  0  0  0  0
  130.1139  136.4088  159.7533 C   0  0  0  0  0  0  0  0  0  0  0  0
  130.6235  135.0664  159.4427 N   0  0  0  0  0  0  0  0  0  0  0  0
  130.0541  134.6490  158.7218 H   0  0  0  0  0  0  0  0  0  0  0  0
  131.5772  135.1349  159.1207 H   0  0  0  0  0  0  0  0  0  0  0  0
  130.5733  134.2321  160.6507 C   0  0  0  0  0  0  0  0  0  0  0  0
  131.1040  132.8340  160.3274 C   0  0  0  0  0  0  0  0  0  0  0  0
  130.2538  132.2104  159.2507 C   0  0  0  0  0  0  0  0  0  0  0  0
  130.7018  131.8249  158.0869 C   0  0  0  0  0  0  0  0  0  0  0  0
  129.5929  131.2398  157.2437 C   0  0  0  0  0  0  0  0  0  0  0  0
  128.4479  130.9520  158.2423 C   0  0  0  0  0  0  0  0  0  0  0  0
  128.7697  131.9552  159.3741 C   0  0  0  0  0  0  0  0  0  0  0  0
  130.1557  138.2478  162.1541 O   0  0  0  0  0  0  0  0  0  0  0  0
  132.5765  137.9964  158.3564 H   0  0  0  0  0  0  0  0  0  0  0  0
  134.7430  138.1834  157.6592 H   0  0  0  0  0  0  0  0  0  0  0  0
  136.9490  139.1998  158.0568 H   0  0  0  0  0  0  0  0  0  0  0  0
  137.2707  140.7487  159.9427 H   0  0  0  0  0  0  0  0  0  0  0  0
  135.3885  141.2833  161.4355 H   0  0  0  0  0  0  0  0  0  0  0  0
  131.9178  140.2966  160.7494 H   0  0  0  0  0  0  0  0  0  0  0  0
  132.9745  141.3729  161.6946 H   0  0  0  0  0  0  0  0  0  0  0  0
  133.7621  139.4329  163.0230 H   0  0  0  0  0  0  0  0  0  0  0  0
  132.7054  138.3567  162.0780 H   0  0  0  0  0  0  0  0  0  0  0  0
  131.8350  140.2989  164.0975 H   0  0  0  0  0  0  0  0  0  0  0  0
  129.2715  139.9517  164.7597 H   0  0  0  0  0  0  0  0  0  0  0  0
  127.3004  138.4702  163.6713 H   0  0  0  0  0  0  0  0  0  0  0  0
  127.8150  134.9327  158.8019 H   0  0  0  0  0  0  0  0  0  0  0  0
  130.1509  137.0279  158.8570 H   0  0  0  0  0  0  0  0  0  0  0  0
  130.7288  136.8597  160.5321 H   0  0  0  0  0  0  0  0  0  0  0  0
  131.1884  134.6830  161.4296 H   0  0  0  0  0  0  0  0  0  0  0  0
  129.5430  134.1581  160.9987 H   0  0  0  0  0  0  0  0  0  0  0  0
  132.1344  132.9080  159.9795 H   0  0  0  0  0  0  0  0  0  0  0  0
  131.0669  132.2150  161.2239 H   0  0  0  0  0  0  0  0  0  0  0  0
  131.7304  131.9110  157.7692 H   0  0  0  0  0  0  0  0  0  0  0  0
  129.9219  130.3165  156.7668 H   0  0  0  0  0  0  0  0  0  0  0  0
  129.2699  131.9615  156.4935 H   0  0  0  0  0  0  0  0  0  0  0  0
  128.4939  129.9251  158.6050 H   0  0  0  0  0  0  0  0  0  0  0  0
  127.4765  131.1643  157.7957 H   0  0  0  0  0  0  0  0  0  0  0  0
  128.5390  131.5186  160.3457 H   0  0  0  0  0  0  0  0  0  0  0  0
  128.2122  132.8813  159.2329 H   0  0  0  0  0  0  0  0  0  0  0  0
  1  2  1  0
  1 33  1  0
  2  7  2  0
  2  3  1  0
  3  4  2  0
  3 34  1  0
  4  5  1  0
  4 35  1  0
  5  6  2  0
  5 36  1  0
  6  7  1  0
  6 37  1  0
  7  8  1  0
  8  9  1  0
  8 38  1  0
  8 39  1  0
  9 10  1  0
  9 40  1  0
  9 41  1  0
 10 11  1  0
 10 42  1  0
 11 32  1  0
 11 12  2  0
 12 13  1  0
 12 43  1  0
 13 14  2  0
 13 44  1  0
 14 15  1  0
 14 32  1  0
 15 20  1  0
 15 16  2  0
 16 17  1  0
 17 18  1  0
 17 19  1  0
 19 20  2  0
 19 45  1  0
 20 21  1  0
 21 22  1  0
 21 46  1  0
 21 47  1  0
 22 23  1  0
 22 24  1  0
 22 25  1  0
 25 26  1  0
 25 48  1  0
 25 49  1  0
 26 27  1  0
 26 50  1  0
 26 51  1  0
 27 31  1  0
 27 28  2  0
 28 29  1  0
 28 52  1  0
 29 30  1  0
 29 53  1  0
 29 54  1  0
 30 31  1  0
 30 55  1  0
 30 56  1  0
 31 57  1  0
 31 58  1  0
M  CHG  1  22   1
M  END
>  <DOCK_score>  (1) 
-48.330959

>  <SMILES>  (1) 
Oc1ccccc1CCNc1ccc(-c2n[nH]cc2C[NH2+]CCC2=CCCC2)o1

$$$$
