C[C@@H](NC(N[C@@H]1Cc2ccccc2[C@@H]1C)=[NH+]C1COc2cc(O)ccc2C1)c1ccccc1
     RDKit          3D

 65 69  0  0  1  0  0  0  0  0999 V2000
  131.5901  133.6075  158.9997 C   0  0  0  0  0  0  0  0  0  0  0  0
  130.8090  134.4010  160.0490 C   0  0  1  0  0  0  0  0  0  0  0  0
  130.7865  133.8422  160.9846 H   0  0  0  0  0  0  0  0  0  0  0  0
  131.4610  135.6945  160.2682 N   0  0  0  0  0  0  0  0  0  0  0  0
  130.9348  136.5848  161.1741 C   0  0  0  0  0  0  0  0  0  0  0  0
  131.5466  137.7986  161.3797 N   0  0  0  0  0  0  0  0  0  0  0  0
  132.9957  137.9271  161.2069 C   0  0  2  0  0  0  0  0  0  0  0  0
  133.4969  136.9875  161.4398 H   0  0  0  0  0  0  0  0  0  0  0  0
  133.5521  139.0755  162.0750 C   0  0  0  0  0  0  0  0  0  0  0  0
  134.6664  139.6887  161.2486 C   0  0  0  0  0  0  0  0  0  0  0  0
  135.7057  140.5233  161.6247 C   0  0  0  0  0  0  0  0  0  0  0  0
  136.6196  140.9614  160.6865 C   0  0  0  0  0  0  0  0  0  0  0  0
  136.4972  140.5664  159.3673 C   0  0  0  0  0  0  0  0  0  0  0  0
  135.4611  139.7347  158.9901 C   0  0  0  0  0  0  0  0  0  0  0  0
  134.5441  139.2937  159.9297 C   0  0  0  0  0  0  0  0  0  0  0  0
  133.3385  138.3916  159.7754 C   0  0  2  0  0  0  0  0  0  0  0  0
  133.5850  137.5346  159.1486 H   0  0  0  0  0  0  0  0  0  0  0  0
  132.1662  139.1702  159.1750 C   0  0  0  0  0  0  0  0  0  0  0  0
  129.8558  136.2779  161.8380 N   0  0  0  0  0  0  0  0  0  0  0  0
  129.6633  135.3509  162.0490 H   0  0  0  0  0  0  0  0  0  0  0  0
  128.9339  137.3333  162.2653 C   0  0  1  0  0  0  0  0  0  0  0  0
  127.5083  136.7725  162.3476 C   0  0  0  0  0  0  0  0  0  0  0  0
  126.6201  137.8449  162.6646 O   0  0  0  0  0  0  0  0  0  0  0  0
  126.9481  138.6554  163.7044 C   0  0  0  0  0  0  0  0  0  0  0  0
  125.9565  139.4586  164.2567 C   0  0  0  0  0  0  0  0  0  0  0  0
  126.2526  140.3019  165.3141 C   0  0  0  0  0  0  0  0  0  0  0  0
  125.2823  141.0868  165.8519 O   0  0  0  0  0  0  0  0  0  0  0  0
  127.5432  140.3442  165.8234 C   0  0  0  0  0  0  0  0  0  0  0  0
  128.5257  139.5448  165.2757 C   0  0  0  0  0  0  0  0  0  0  0  0
  128.2326  138.6987  164.2184 C   0  0  0  0  0  0  0  0  0  0  0  0
  129.3340  137.8365  163.6545 C   0  0  0  0  0  0  0  0  0  0  0  0
  129.3999  134.6244  159.5635 C   0  0  0  0  0  0  0  0  0  0  0  0
  129.0949  135.7502  158.8215 C   0  0  0  0  0  0  0  0  0  0  0  0
  127.8011  135.9581  158.3812 C   0  0  0  0  0  0  0  0  0  0  0  0
  126.8148  135.0347  158.6736 C   0  0  0  0  0  0  0  0  0  0  0  0
  127.1197  133.9089  159.4154 C   0  0  0  0  0  0  0  0  0  0  0  0
  128.4124  133.7038  159.8604 C   0  0  0  0  0  0  0  0  0  0  0  0
  132.6311  133.5203  159.3108 H   0  0  0  0  0  0  0  0  0  0  0  0
  131.1565  132.6124  158.8995 H   0  0  0  0  0  0  0  0  0  0  0  0
  131.5394  134.1241  158.0414 H   0  0  0  0  0  0  0  0  0  0  0  0
  132.2638  135.9227  159.7741 H   0  0  0  0  0  0  0  0  0  0  0  0
  131.0188  138.5699  161.6393 H   0  0  0  0  0  0  0  0  0  0  0  0
  132.7746  139.8148  162.2677 H   0  0  0  0  0  0  0  0  0  0  0  0
  133.9441  138.6843  163.0138 H   0  0  0  0  0  0  0  0  0  0  0  0
  135.8020  140.8323  162.6550 H   0  0  0  0  0  0  0  0  0  0  0  0
  137.4288  141.6123  160.9830 H   0  0  0  0  0  0  0  0  0  0  0  0
  137.2111  140.9080  158.6323 H   0  0  0  0  0  0  0  0  0  0  0  0
  135.3665  139.4263  157.9595 H   0  0  0  0  0  0  0  0  0  0  0  0
  131.9563  140.0439  159.7920 H   0  0  0  0  0  0  0  0  0  0  0  0
  132.4224  139.4914  158.1654 H   0  0  0  0  0  0  0  0  0  0  0  0
  131.2847  138.5299  159.1399 H   0  0  0  0  0  0  0  0  0  0  0  0
  128.9639  138.1579  161.5531 H   0  0  0  0  0  0  0  0  0  0  0  0
  127.2296  136.3363  161.3884 H   0  0  0  0  0  0  0  0  0  0  0  0
  127.4577  136.0114  163.1262 H   0  0  0  0  0  0  0  0  0  0  0  0
  124.9528  139.4253  163.8594 H   0  0  0  0  0  0  0  0  0  0  0  0
  125.5852  141.6402  166.5847 H   0  0  0  0  0  0  0  0  0  0  0  0
  127.7780  141.0017  166.6473 H   0  0  0  0  0  0  0  0  0  0  0  0
  129.5292  139.5791  165.6735 H   0  0  0  0  0  0  0  0  0  0  0  0
  129.5015  136.9852  164.3142 H   0  0  0  0  0  0  0  0  0  0  0  0
  130.2505  138.4214  163.5783 H   0  0  0  0  0  0  0  0  0  0  0  0
  129.8662  136.4697  158.5899 H   0  0  0  0  0  0  0  0  0  0  0  0
  127.5619  136.8398  157.8053 H   0  0  0  0  0  0  0  0  0  0  0  0
  125.8048  135.1952  158.3262 H   0  0  0  0  0  0  0  0  0  0  0  0
  126.3482  133.1899  159.6477 H   0  0  0  0  0  0  0  0  0  0  0  0
  128.6507  132.8245  160.4402 H   0  0  0  0  0  0  0  0  0  0  0  0
  1  2  1  0
  1 38  1  0
  1 39  1  0
  1 40  1  0
  2  3  1  1
  2  4  1  0
  2 32  1  0
  4 41  1  0
  5  4  1  0
  5  6  1  0
  5 19  2  0
  6  7  1  0
  6 42  1  0
  7  8  1  1
  7 16  1  0
  7  9  1  0
  9 10  1  0
  9 43  1  0
  9 44  1  0
 10 15  2  0
 10 11  1  0
 11 12  2  0
 11 45  1  0
 12 13  1  0
 12 46  1  0
 13 14  2  0
 13 47  1  0
 14 15  1  0
 14 48  1  0
 15 16  1  0
 16 17  1  6
 16 18  1  0
 18 49  1  0
 18 50  1  0
 18 51  1  0
 19 20  1  0
 19 21  1  0
 21 31  1  0
 21 22  1  0
 21 52  1  6
 22 23  1  0
 22 53  1  0
 22 54  1  0
 23 24  1  0
 24 30  2  0
 24 25  1  0
 25 26  2  0
 25 55  1  0
 26 27  1  0
 26 28  1  0
 27 56  1  0
 28 29  2  0
 28 57  1  0
 29 30  1  0
 29 58  1  0
 30 31  1  0
 31 59  1  0
 31 60  1  0
 32 37  1  0
 32 33  2  0
 33 34  1  0
 33 61  1  0
 34 35  2  0
 34 62  1  0
 35 36  1  0
 35 63  1  0
 36 37  2  0
 36 64  1  0
 37 65  1  0
M  CHG  1  19   1
M  END
>  <DOCK_score>  (1) 
-47.391922

>  <SMILES>  (1) 
C[C@@H](NC(N[C@@H]1Cc2ccccc2[C@@H]1C)=[NH+]C1COc2cc(O)ccc2C1)c1ccccc1

$$$$
