CCc1ccc(-c2c[nH]c(NCc3cccc(F)c3-c3c(O)cccc3F)[nH+]2)cc1
     RDKit          3D

 52 55  0  0  1  0  0  0  0  0999 V2000
  130.1826  128.3838  151.7297 C   0  0  0  0  0  0  0  0  0  0  0  0
  131.1692  129.5429  151.8856 C   0  0  0  0  0  0  0  0  0  0  0  0
  130.9144  130.2470  153.1933 C   0  0  0  0  0  0  0  0  0  0  0  0
  131.5737  129.8348  154.3378 C   0  0  0  0  0  0  0  0  0  0  0  0
  131.3441  130.4760  155.5381 C   0  0  0  0  0  0  0  0  0  0  0  0
  130.4468  131.5408  155.5960 C   0  0  0  0  0  0  0  0  0  0  0  0
  130.1959  132.2339  156.8831 C   0  0  0  0  0  0  0  0  0  0  0  0
  129.7089  131.6655  158.0139 C   0  0  0  0  0  0  0  0  0  0  0  0
  129.6393  132.6581  158.9610 N   0  0  0  0  0  0  0  0  0  0  0  0
  129.3318  132.5590  159.8756 H   0  0  0  0  0  0  0  0  0  0  0  0
  130.0787  133.8068  158.3783 C   0  0  0  0  0  0  0  0  0  0  0  0
  130.1639  135.0428  158.9960 N   0  0  0  0  0  0  0  0  0  0  0  0
  129.3830  135.3125  160.2057 C   0  0  0  0  0  0  0  0  0  0  0  0
  130.1901  134.9315  161.4200 C   0  0  0  0  0  0  0  0  0  0  0  0
  131.5181  135.2978  161.5104 C   0  0  0  0  0  0  0  0  0  0  0  0
  132.2611  134.9494  162.6235 C   0  0  0  0  0  0  0  0  0  0  0  0
  131.6796  134.2328  163.6537 C   0  0  0  0  0  0  0  0  0  0  0  0
  130.3492  133.8655  163.5780 C   0  0  0  0  0  0  0  0  0  0  0  0
  129.7802  133.1702  164.5869 F   0  0  0  0  0  0  0  0  0  0  0  0
  129.5972  134.2094  162.4534 C   0  0  0  0  0  0  0  0  0  0  0  0
  128.1709  133.8131  162.3619 C   0  0  0  0  0  0  0  0  0  0  0  0
  127.1740  134.6565  162.8615 C   0  0  0  0  0  0  0  0  0  0  0  0
  127.5084  135.8426  163.4333 O   0  0  0  0  0  0  0  0  0  0  0  0
  125.8439  134.2812  162.7668 C   0  0  0  0  0  0  0  0  0  0  0  0
  125.5037  133.0715  162.1905 C   0  0  0  0  0  0  0  0  0  0  0  0
  126.4863  132.2309  161.6999 C   0  0  0  0  0  0  0  0  0  0  0  0
  127.8181  132.5946  161.7823 C   0  0  0  0  0  0  0  0  0  0  0  0
  128.7754  131.7714  161.3017 F   0  0  0  0  0  0  0  0  0  0  0  0
  130.4133  133.5487  157.1377 N   0  0  0  0  0  0  0  0  0  0  0  0
  130.7607  134.1946  156.5028 H   0  0  0  0  0  0  0  0  0  0  0  0
  129.7815  131.9482  154.4409 C   0  0  0  0  0  0  0  0  0  0  0  0
  130.0228  131.3031  153.2450 C   0  0  0  0  0  0  0  0  0  0  0  0
  129.1635  128.7702  151.7416 H   0  0  0  0  0  0  0  0  0  0  0  0
  130.3669  127.8745  150.7837 H   0  0  0  0  0  0  0  0  0  0  0  0
  130.3144  127.6811  152.5524 H   0  0  0  0  0  0  0  0  0  0  0  0
  131.0376  130.2454  151.0629 H   0  0  0  0  0  0  0  0  0  0  0  0
  132.1884  129.1561  151.8737 H   0  0  0  0  0  0  0  0  0  0  0  0
  132.2688  129.0096  154.2918 H   0  0  0  0  0  0  0  0  0  0  0  0
  131.8593  130.1534  156.4309 H   0  0  0  0  0  0  0  0  0  0  0  0
  129.4327  130.6297  158.1459 H   0  0  0  0  0  0  0  0  0  0  0  0
  130.7405  135.7305  158.6277 H   0  0  0  0  0  0  0  0  0  0  0  0
  128.4634  134.7280  160.1825 H   0  0  0  0  0  0  0  0  0  0  0  0
  129.1378  136.3737  160.2509 H   0  0  0  0  0  0  0  0  0  0  0  0
  131.9779  135.8576  160.7094 H   0  0  0  0  0  0  0  0  0  0  0  0
  133.2998  135.2381  162.6887 H   0  0  0  0  0  0  0  0  0  0  0  0
  132.2648  133.9635  164.5206 H   0  0  0  0  0  0  0  0  0  0  0  0
  128.4594  136.0172  163.4496 H   0  0  0  0  0  0  0  0  0  0  0  0
  125.0714  134.9330  163.1475 H   0  0  0  0  0  0  0  0  0  0  0  0
  124.4656  132.7815  162.1227 H   0  0  0  0  0  0  0  0  0  0  0  0
  126.2127  131.2876  161.2507 H   0  0  0  0  0  0  0  0  0  0  0  0
  129.0815  132.7695  154.4810 H   0  0  0  0  0  0  0  0  0  0  0  0
  129.5109  131.6205  152.3486 H   0  0  0  0  0  0  0  0  0  0  0  0
  1  2  1  0
  1 33  1  0
  1 34  1  0
  1 35  1  0
  2  3  1  0
  2 36  1  0
  2 37  1  0
  3 32  2  0
  3  4  1  0
  4  5  2  0
  4 38  1  0
  5  6  1  0
  5 39  1  0
  6  7  1  0
  6 31  2  0
  7 29  1  0
  7  8  2  0
  8  9  1  0
  8 40  1  0
  9 10  1  0
  9 11  1  0
 11 12  1  0
 11 29  2  0
 12 13  1  0
 12 41  1  0
 13 14  1  0
 13 42  1  0
 13 43  1  0
 14 20  1  0
 14 15  2  0
 15 16  1  0
 15 44  1  0
 16 17  2  0
 16 45  1  0
 17 18  1  0
 17 46  1  0
 18 19  1  0
 18 20  2  0
 20 21  1  0
 21 27  1  0
 21 22  2  0
 22 23  1  0
 22 24  1  0
 23 47  1  0
 24 25  2  0
 24 48  1  0
 25 26  1  0
 25 49  1  0
 26 27  2  0
 26 50  1  0
 27 28  1  0
 29 30  1  0
 31 32  1  0
 31 51  1  0
 32 52  1  0
M  CHG  1  29   1
M  END
>  <DOCK_score>  (1) 
-57.518227

>  <SMILES>  (1) 
CCc1ccc(-c2c[nH]c(NCc3cccc(F)c3-c3c(O)cccc3F)[nH+]2)cc1

$$$$
