Nc1ccc(N[C@@H]2C=CCC2)c(C[NH+]=C(NC2CC=CC2)N[C@H]2[C@@H]3CC=CC[C@@H]32)n1
     RDKit          3D

 63 67  0  0  1  0  0  0  0  0999 V2000
  126.9630  136.7061  162.6456 N   0  0  0  0  0  0  0  0  0  0  0  0
  128.1267  137.0063  161.9410 C   0  0  0  0  0  0  0  0  0  0  0  0
  128.3861  138.3217  161.5706 C   0  0  0  0  0  0  0  0  0  0  0  0
  129.5439  138.6092  160.8715 C   0  0  0  0  0  0  0  0  0  0  0  0
  130.4113  137.5619  160.5638 C   0  0  0  0  0  0  0  0  0  0  0  0
  131.5952  137.8064  159.8569 N   0  0  0  0  0  0  0  0  0  0  0  0
  132.2747  139.0974  159.9903 C   0  0  2  0  0  0  0  0  0  0  0  0
  131.6175  139.9063  159.6709 H   0  0  0  0  0  0  0  0  0  0  0  0
  133.5515  139.1064  159.1824 C   0  0  0  0  0  0  0  0  0  0  0  0
  134.5365  139.6230  159.8654 C   0  0  0  0  0  0  0  0  0  0  0  0
  134.0807  140.0449  161.2429 C   0  0  0  0  0  0  0  0  0  0  0  0
  132.7297  139.3183  161.4516 C   0  0  0  0  0  0  0  0  0  0  0  0
  130.0869  136.2753  160.9658 C   0  0  0  0  0  0  0  0  0  0  0  0
  131.0170  135.1358  160.6379 C   0  0  0  0  0  0  0  0  0  0  0  0
  130.6493  134.5632  159.3406 N   0  0  0  0  0  0  0  0  0  0  0  0
  131.2909  134.5587  158.6131 H   0  0  0  0  0  0  0  0  0  0  0  0
  129.4601  134.0599  159.1639 C   0  0  0  0  0  0  0  0  0  0  0  0
  128.5508  134.0664  160.1951 N   0  0  0  0  0  0  0  0  0  0  0  0
  127.2140  133.5007  159.9965 C   0  0  0  0  0  0  0  0  0  0  0  0
  126.4354  133.4348  161.3309 C   0  0  0  0  0  0  0  0  0  0  0  0
  125.6535  132.1434  161.2552 C   0  0  0  0  0  0  0  0  0  0  0  0
  126.1224  131.3637  160.3193 C   0  0  0  0  0  0  0  0  0  0  0  0
  127.2957  132.0044  159.6148 C   0  0  0  0  0  0  0  0  0  0  0  0
  129.1150  133.5222  157.9465 N   0  0  0  0  0  0  0  0  0  0  0  0
  130.1413  132.9107  157.0985 C   0  0  1  0  0  0  0  0  0  0  0  0
  131.1430  133.3288  157.1978 H   0  0  0  0  0  0  0  0  0  0  0  0
  130.0273  131.4099  156.8242 C   0  0  2  0  0  0  0  0  0  0  0  0
  129.1974  130.8654  157.2749 H   0  0  0  0  0  0  0  0  0  0  0  0
  131.3394  130.6306  156.6414 C   0  0  0  0  0  0  0  0  0  0  0  0
  131.4662  130.2386  155.1897 C   0  0  0  0  0  0  0  0  0  0  0  0
  131.1990  131.1036  154.2430 C   0  0  0  0  0  0  0  0  0  0  0  0
  130.7532  132.5262  154.5844 C   0  0  0  0  0  0  0  0  0  0  0  0
  129.7135  132.4257  155.7119 C   0  0  2  0  0  0  0  0  0  0  0  0
  128.6733  132.5627  155.4164 H   0  0  0  0  0  0  0  0  0  0  0  0
  128.9702  136.0363  161.6276 N   0  0  0  0  0  0  0  0  0  0  0  0
  126.3389  137.4125  162.8750 H   0  0  0  0  0  0  0  0  0  0  0  0
  126.7765  135.7906  162.9067 H   0  0  0  0  0  0  0  0  0  0  0  0
  127.6916  139.1087  161.8255 H   0  0  0  0  0  0  0  0  0  0  0  0
  129.7711  139.6213  160.5707 H   0  0  0  0  0  0  0  0  0  0  0  0
  131.9654  137.1210  159.2789 H   0  0  0  0  0  0  0  0  0  0  0  0
  133.6377  138.7343  158.1720 H   0  0  0  0  0  0  0  0  0  0  0  0
  135.5447  139.7340  159.4949 H   0  0  0  0  0  0  0  0  0  0  0  0
  134.8031  139.7285  161.9953 H   0  0  0  0  0  0  0  0  0  0  0  0
  133.9410  141.1251  161.2824 H   0  0  0  0  0  0  0  0  0  0  0  0
  132.0230  139.9496  161.9903 H   0  0  0  0  0  0  0  0  0  0  0  0
  132.8725  138.3674  161.9650 H   0  0  0  0  0  0  0  0  0  0  0  0
  130.9386  134.3694  161.4088 H   0  0  0  0  0  0  0  0  0  0  0  0
  132.0421  135.5044  160.5949 H   0  0  0  0  0  0  0  0  0  0  0  0
  128.7928  134.4492  161.0529 H   0  0  0  0  0  0  0  0  0  0  0  0
  126.6597  134.0660  159.2474 H   0  0  0  0  0  0  0  0  0  0  0  0
  127.1267  133.4113  162.1732 H   0  0  0  0  0  0  0  0  0  0  0  0
  125.7585  134.2848  161.4177 H   0  0  0  0  0  0  0  0  0  0  0  0
  124.8164  131.8981  161.8920 H   0  0  0  0  0  0  0  0  0  0  0  0
  125.7244  130.3887  160.0800 H   0  0  0  0  0  0  0  0  0  0  0  0
  127.2034  131.8822  158.5356 H   0  0  0  0  0  0  0  0  0  0  0  0
  128.2332  131.5735  159.9661 H   0  0  0  0  0  0  0  0  0  0  0  0
  128.1921  133.5478  157.6491 H   0  0  0  0  0  0  0  0  0  0  0  0
  132.1822  131.2609  156.9253 H   0  0  0  0  0  0  0  0  0  0  0  0
  131.3228  129.7349  157.2623 H   0  0  0  0  0  0  0  0  0  0  0  0
  131.7788  129.2382  154.9295 H   0  0  0  0  0  0  0  0  0  0  0  0
  131.2928  130.8116  153.2074 H   0  0  0  0  0  0  0  0  0  0  0  0
  130.3017  132.9969  153.7110 H   0  0  0  0  0  0  0  0  0  0  0  0
  131.6047  133.1166  154.9228 H   0  0  0  0  0  0  0  0  0  0  0  0
  1  2  1  0
  1 36  1  0
  1 37  1  0
  2 35  2  0
  2  3  1  0
  3  4  2  0
  3 38  1  0
  4  5  1  0
  4 39  1  0
  5  6  1  0
  5 13  2  0
  6  7  1  0
  6 40  1  0
  7  8  1  6
  7 12  1  0
  7  9  1  0
  9 10  2  0
  9 41  1  0
 10 11  1  0
 10 42  1  0
 11 12  1  0
 11 43  1  0
 11 44  1  0
 12 45  1  0
 12 46  1  0
 13 14  1  0
 13 35  1  0
 14 15  1  0
 14 47  1  0
 14 48  1  0
 15 16  1  0
 17 15  2  0
 17 18  1  0
 17 24  1  0
 18 19  1  0
 18 49  1  0
 19 23  1  0
 19 20  1  0
 19 50  1  0
 20 21  1  0
 20 51  1  0
 20 52  1  0
 21 22  2  0
 21 53  1  0
 22 23  1  0
 22 54  1  0
 23 55  1  0
 23 56  1  0
 24 25  1  0
 24 57  1  0
 25 26  1  6
 25 33  1  0
 25 27  1  0
 27 28  1  1
 27 33  1  0
 27 29  1  0
 29 30  1  0
 29 58  1  0
 29 59  1  0
 30 31  2  0
 30 60  1  0
 31 32  1  0
 31 61  1  0
 32 33  1  0
 32 62  1  0
 32 63  1  0
 33 34  1  6
M  CHG  1  15   1
M  END
>  <DOCK_score>  (1) 
-54.705811

>  <SMILES>  (1) 
Nc1ccc(N[C@@H]2C=CCC2)c(C[NH+]=C(NC2CC=CC2)N[C@H]2[C@@H]3CC=CC[C@@H]32)n1

$$$$
