C[C@H](CC(=O)Nc1ccccc1)[NH2+][C@H]1C[C@H](c2cccc(C=CI)c2)C1
     RDKit          3D

 52 54  0  0  1  0  0  0  0  0999 V2000
  128.3947  135.9603  160.0887 C   0  0  0  0  0  0  0  0  0  0  0  0
  129.4357  136.5538  159.1371 C   0  0  2  0  0  0  0  0  0  0  0  0
  129.3542  137.6407  159.1417 H   0  0  0  0  0  0  0  0  0  0  0  0
  129.1896  136.0297  157.7209 C   0  0  0  0  0  0  0  0  0  0  0  0
  129.7655  134.6432  157.5912 C   0  0  0  0  0  0  0  0  0  0  0  0
  130.3185  134.1251  158.5381 O   0  0  0  0  0  0  0  0  0  0  0  0
  129.6661  133.9788  156.4227 N   0  0  0  0  0  0  0  0  0  0  0  0
  130.2009  132.6914  156.3022 C   0  0  0  0  0  0  0  0  0  0  0  0
  130.6672  132.2439  155.0730 C   0  0  0  0  0  0  0  0  0  0  0  0
  131.1985  130.9742  154.9584 C   0  0  0  0  0  0  0  0  0  0  0  0
  131.2571  130.1453  156.0635 C   0  0  0  0  0  0  0  0  0  0  0  0
  130.7893  130.5861  157.2878 C   0  0  0  0  0  0  0  0  0  0  0  0
  130.2612  131.8564  157.4103 C   0  0  0  0  0  0  0  0  0  0  0  0
  130.7811  136.1617  159.5774 N   0  0  0  0  0  0  0  0  0  0  0  0
  131.4277  136.2570  158.8086 H   0  0  0  0  0  0  0  0  0  0  0  0
  130.7672  135.2018  159.8879 H   0  0  0  0  0  0  0  0  0  0  0  0
  131.2060  137.0284  160.6846 C   0  0  1  0  0  0  0  0  0  0  0  0
  130.4008  137.2429  161.3873 H   0  0  0  0  0  0  0  0  0  0  0  0
  132.5082  136.5691  161.3618 C   0  0  0  0  0  0  0  0  0  0  0  0
  133.2559  137.4305  160.3304 C   0  0  2  0  0  0  0  0  0  0  0  0
  133.5023  136.8969  159.4124 H   0  0  0  0  0  0  0  0  0  0  0  0
  134.4309  138.1778  160.9063 C   0  0  0  0  0  0  0  0  0  0  0  0
  134.8086  139.3937  160.3645 C   0  0  0  0  0  0  0  0  0  0  0  0
  135.8864  140.0858  160.8869 C   0  0  0  0  0  0  0  0  0  0  0  0
  136.5919  139.5670  161.9534 C   0  0  0  0  0  0  0  0  0  0  0  0
  136.2161  138.3416  162.5045 C   0  0  0  0  0  0  0  0  0  0  0  0
  136.9672  137.7800  163.6468 C   0  0  0  0  0  0  0  0  0  0  0  0
  137.5641  136.6008  163.5329 C   0  0  0  0  0  0  0  0  0  0  0  0
  138.6360  135.8087  165.1493 I   0  0  0  0  0  0  0  0  0  0  0  0
  135.1312  137.6457  161.9691 C   0  0  0  0  0  0  0  0  0  0  0  0
  131.9769  138.2782  160.2280 C   0  0  0  0  0  0  0  0  0  0  0  0
  127.3963  136.2512  159.7620 H   0  0  0  0  0  0  0  0  0  0  0  0
  128.4762  134.8734  160.0841 H   0  0  0  0  0  0  0  0  0  0  0  0
  128.5701  136.3337  161.0975 H   0  0  0  0  0  0  0  0  0  0  0  0
  128.1174  135.9974  157.5267 H   0  0  0  0  0  0  0  0  0  0  0  0
  129.6697  136.6915  157.0001 H   0  0  0  0  0  0  0  0  0  0  0  0
  129.2239  134.3932  155.6653 H   0  0  0  0  0  0  0  0  0  0  0  0
  130.6179  132.8895  154.2086 H   0  0  0  0  0  0  0  0  0  0  0  0
  131.5647  130.6269  154.0035 H   0  0  0  0  0  0  0  0  0  0  0  0
  131.6689  129.1512  155.9703 H   0  0  0  0  0  0  0  0  0  0  0  0
  130.8363  129.9363  158.1492 H   0  0  0  0  0  0  0  0  0  0  0  0
  129.8953  132.2000  158.3665 H   0  0  0  0  0  0  0  0  0  0  0  0
  132.7001  135.5009  161.2599 H   0  0  0  0  0  0  0  0  0  0  0  0
  132.6158  136.9235  162.3869 H   0  0  0  0  0  0  0  0  0  0  0  0
  134.2596  139.8041  159.5298 H   0  0  0  0  0  0  0  0  0  0  0  0
  136.1759  141.0343  160.4595 H   0  0  0  0  0  0  0  0  0  0  0  0
  137.4334  140.1080  162.3601 H   0  0  0  0  0  0  0  0  0  0  0  0
  137.0300  138.3298  164.5743 H   0  0  0  0  0  0  0  0  0  0  0  0
  137.5011  136.0511  162.6054 H   0  0  0  0  0  0  0  0  0  0  0  0
  134.8380  136.6945  162.3885 H   0  0  0  0  0  0  0  0  0  0  0  0
  131.9392  139.0999  160.9432 H   0  0  0  0  0  0  0  0  0  0  0  0
  131.7399  138.5899  159.2107 H   0  0  0  0  0  0  0  0  0  0  0  0
  1  2  1  0
  1 32  1  0
  1 33  1  0
  1 34  1  0
  2  3  1  6
  2  4  1  0
  2 14  1  0
  4  5  1  0
  4 35  1  0
  4 36  1  0
  5  6  2  0
  5  7  1  0
  7  8  1  0
  7 37  1  0
  8 13  1  0
  8  9  2  0
  9 10  1  0
  9 38  1  0
 10 11  2  0
 10 39  1  0
 11 12  1  0
 11 40  1  0
 12 13  2  0
 12 41  1  0
 13 42  1  0
 14 15  1  0
 14 16  1  0
 14 17  1  0
 17 18  1  1
 17 31  1  0
 17 19  1  0
 19 20  1  0
 19 43  1  0
 19 44  1  0
 20 21  1  6
 20 22  1  0
 20 31  1  0
 22 30  1  0
 22 23  2  0
 23 24  1  0
 23 45  1  0
 24 25  2  0
 24 46  1  0
 25 26  1  0
 25 47  1  0
 26 27  1  0
 26 30  2  0
 27 28  2  0
 27 48  1  0
 28 29  1  0
 28 49  1  0
 30 50  1  0
 31 51  1  0
 31 52  1  0
M  CHG  1  14   1
M  END
>  <DOCK_score>  (1) 
-56.177044

>  <SMILES>  (1) 
C[C@H](CC(=O)Nc1ccccc1)[NH2+][C@H]1C[C@H](c2cccc(C=CI)c2)C1

$$$$
