Cc1ccc(-c2ccccc2C[C@H](Nc2[nH]cc(-c3ccc(N)cc3)[nH+]2)c2ccccc2)cc1
     RDKit          3D

 63 67  0  0  1  0  0  0  0  0999 V2000
  127.7962  140.7848  165.7172 C   0  0  0  0  0  0  0  0  0  0  0  0
  128.8571  140.1566  164.8506 C   0  0  0  0  0  0  0  0  0  0  0  0
  129.3284  138.8905  165.1471 C   0  0  0  0  0  0  0  0  0  0  0  0
  130.3002  138.3105  164.3571 C   0  0  0  0  0  0  0  0  0  0  0  0
  130.8062  139.0027  163.2587 C   0  0  0  0  0  0  0  0  0  0  0  0
  131.8510  138.3843  162.4057 C   0  0  0  0  0  0  0  0  0  0  0  0
  133.1992  138.5710  162.7051 C   0  0  0  0  0  0  0  0  0  0  0  0
  134.1667  137.9990  161.9044 C   0  0  0  0  0  0  0  0  0  0  0  0
  133.8004  137.2360  160.8102 C   0  0  0  0  0  0  0  0  0  0  0  0
  132.4639  137.0423  160.5119 C   0  0  0  0  0  0  0  0  0  0  0  0
  131.4878  137.6105  161.3055 C   0  0  0  0  0  0  0  0  0  0  0  0
  130.0318  137.3994  160.9789 C   0  0  0  0  0  0  0  0  0  0  0  0
  129.7905  135.9238  160.6549 C   0  0  2  0  0  0  0  0  0  0  0  0
  130.3703  135.3025  161.3374 H   0  0  0  0  0  0  0  0  0  0  0  0
  130.2047  135.6523  159.2762 N   0  0  0  0  0  0  0  0  0  0  0  0
  130.0801  134.3760  158.7544 C   0  0  0  0  0  0  0  0  0  0  0  0
  129.5846  133.2947  159.4152 N   0  0  0  0  0  0  0  0  0  0  0  0
  129.2586  133.2791  160.3287 H   0  0  0  0  0  0  0  0  0  0  0  0
  129.6319  132.2280  158.5491 C   0  0  0  0  0  0  0  0  0  0  0  0
  130.1544  132.6890  157.3859 C   0  0  0  0  0  0  0  0  0  0  0  0
  130.3932  131.8900  156.1590 C   0  0  0  0  0  0  0  0  0  0  0  0
  129.7574  132.2341  154.9671 C   0  0  0  0  0  0  0  0  0  0  0  0
  129.9852  131.4935  153.8265 C   0  0  0  0  0  0  0  0  0  0  0  0
  130.8394  130.3978  153.8673 C   0  0  0  0  0  0  0  0  0  0  0  0
  131.0647  129.6451  152.7122 N   0  0  0  0  0  0  0  0  0  0  0  0
  131.4698  130.0493  155.0558 C   0  0  0  0  0  0  0  0  0  0  0  0
  131.2493  130.7905  156.1975 C   0  0  0  0  0  0  0  0  0  0  0  0
  130.4146  134.0114  157.5406 N   0  0  0  0  0  0  0  0  0  0  0  0
  130.7903  134.5937  156.8619 H   0  0  0  0  0  0  0  0  0  0  0  0
  128.3251  135.6084  160.8106 C   0  0  0  0  0  0  0  0  0  0  0  0
  127.8355  135.1834  162.0314 C   0  0  0  0  0  0  0  0  0  0  0  0
  126.4911  134.8946  162.1741 C   0  0  0  0  0  0  0  0  0  0  0  0
  125.6366  135.0307  161.0961 C   0  0  0  0  0  0  0  0  0  0  0  0
  126.1263  135.4561  159.8754 C   0  0  0  0  0  0  0  0  0  0  0  0
  127.4703  135.7459  159.7329 C   0  0  0  0  0  0  0  0  0  0  0  0
  130.3315  140.2799  162.9677 C   0  0  0  0  0  0  0  0  0  0  0  0
  129.3554  140.8480  163.7611 C   0  0  0  0  0  0  0  0  0  0  0  0
  128.2704  141.3474  166.5214 H   0  0  0  0  0  0  0  0  0  0  0  0
  127.1857  141.4570  165.1143 H   0  0  0  0  0  0  0  0  0  0  0  0
  127.1654  140.0043  166.1426 H   0  0  0  0  0  0  0  0  0  0  0  0
  128.9356  138.3549  165.9987 H   0  0  0  0  0  0  0  0  0  0  0  0
  130.6675  137.3219  164.5895 H   0  0  0  0  0  0  0  0  0  0  0  0
  133.4863  139.1662  163.5594 H   0  0  0  0  0  0  0  0  0  0  0  0
  135.2120  138.1471  162.1329 H   0  0  0  0  0  0  0  0  0  0  0  0
  134.5610  136.7895  160.1867 H   0  0  0  0  0  0  0  0  0  0  0  0
  132.1835  136.4457  159.6566 H   0  0  0  0  0  0  0  0  0  0  0  0
  129.7606  138.0096  160.1173 H   0  0  0  0  0  0  0  0  0  0  0  0
  129.4218  137.6881  161.8348 H   0  0  0  0  0  0  0  0  0  0  0  0
  130.5664  136.3668  158.7288 H   0  0  0  0  0  0  0  0  0  0  0  0
  129.3139  131.2167  158.7555 H   0  0  0  0  0  0  0  0  0  0  0  0
  129.0900  133.0827  154.9361 H   0  0  0  0  0  0  0  0  0  0  0  0
  129.4961  131.7622  152.9019 H   0  0  0  0  0  0  0  0  0  0  0  0
  131.6604  128.8809  152.7395 H   0  0  0  0  0  0  0  0  0  0  0  0
  130.6247  129.8881  151.8819 H   0  0  0  0  0  0  0  0  0  0  0  0
  132.1326  129.1971  155.0854 H   0  0  0  0  0  0  0  0  0  0  0  0
  131.7397  130.5196  157.1209 H   0  0  0  0  0  0  0  0  0  0  0  0
  128.5022  135.0814  162.8747 H   0  0  0  0  0  0  0  0  0  0  0  0
  126.1087  134.5621  163.1279 H   0  0  0  0  0  0  0  0  0  0  0  0
  124.5865  134.8043  161.2075 H   0  0  0  0  0  0  0  0  0  0  0  0
  125.4587  135.5619  159.0330 H   0  0  0  0  0  0  0  0  0  0  0  0
  127.8529  136.0781  158.7791 H   0  0  0  0  0  0  0  0  0  0  0  0
  130.7236  140.8228  162.1204 H   0  0  0  0  0  0  0  0  0  0  0  0
  128.9835  141.8363  163.5338 H   0  0  0  0  0  0  0  0  0  0  0  0
  1  2  1  0
  1 38  1  0
  1 39  1  0
  1 40  1  0
  2 37  2  0
  2  3  1  0
  3  4  2  0
  3 41  1  0
  4  5  1  0
  4 42  1  0
  5  6  1  0
  5 36  2  0
  6 11  1  0
  6  7  2  0
  7  8  1  0
  7 43  1  0
  8  9  2  0
  8 44  1  0
  9 10  1  0
  9 45  1  0
 10 11  2  0
 10 46  1  0
 11 12  1  0
 12 13  1  0
 12 47  1  0
 12 48  1  0
 13 14  1  1
 13 15  1  0
 13 30  1  0
 15 49  1  0
 16 15  1  0
 16 28  2  0
 16 17  1  0
 17 18  1  0
 17 19  1  0
 19 20  2  0
 19 50  1  0
 20 21  1  0
 20 28  1  0
 21 27  1  0
 21 22  2  0
 22 23  1  0
 22 51  1  0
 23 24  2  0
 23 52  1  0
 24 25  1  0
 24 26  1  0
 25 53  1  0
 25 54  1  0
 26 27  2  0
 26 55  1  0
 27 56  1  0
 28 29  1  0
 30 35  1  0
 30 31  2  0
 31 32  1  0
 31 57  1  0
 32 33  2  0
 32 58  1  0
 33 34  1  0
 33 59  1  0
 34 35  2  0
 34 60  1  0
 35 61  1  0
 36 37  1  0
 36 62  1  0
 37 63  1  0
M  CHG  1  28   1
M  END
>  <DOCK_score>  (1) 
-57.179634

>  <SMILES>  (1) 
Cc1ccc(-c2ccccc2C[C@H](Nc2[nH]cc(-c3ccc(N)cc3)[nH+]2)c2ccccc2)cc1

$$$$
