CCc1ccc(-c2c[nH]c(N[C@@H](C)CC=Cc3ccc(C)[nH]3)[nH+]2)cc1
     RDKit          3D

 52 54  0  0  1  0  0  0  0  0999 V2000
  130.2366  128.5645  151.5835 C   0  0  0  0  0  0  0  0  0  0  0  0
  131.3936  129.5020  151.9348 C   0  0  0  0  0  0  0  0  0  0  0  0
  131.0581  130.2657  153.1899 C   0  0  0  0  0  0  0  0  0  0  0  0
  131.4066  129.7491  154.4243 C   0  0  0  0  0  0  0  0  0  0  0  0
  131.1070  130.4467  155.5769 C   0  0  0  0  0  0  0  0  0  0  0  0
  130.4419  131.6687  155.4956 C   0  0  0  0  0  0  0  0  0  0  0  0
  130.1122  132.4206  156.7310 C   0  0  0  0  0  0  0  0  0  0  0  0
  129.3373  131.9776  157.7520 C   0  0  0  0  0  0  0  0  0  0  0  0
  129.2951  132.9841  158.6860 N   0  0  0  0  0  0  0  0  0  0  0  0
  128.8178  132.9647  159.5302 H   0  0  0  0  0  0  0  0  0  0  0  0
  130.0462  134.0135  158.2081 C   0  0  0  0  0  0  0  0  0  0  0  0
  130.2606  135.2211  158.8501 N   0  0  0  0  0  0  0  0  0  0  0  0
  129.6535  135.4725  160.1595 C   0  0  1  0  0  0  0  0  0  0  0  0
  128.6399  135.0721  160.1728 H   0  0  0  0  0  0  0  0  0  0  0  0
  130.4858  134.7904  161.2471 C   0  0  0  0  0  0  0  0  0  0  0  0
  129.6101  136.9795  160.4205 C   0  0  0  0  0  0  0  0  0  0  0  0
  131.0117  137.5332  160.4018 C   0  0  0  0  0  0  0  0  0  0  0  0
  131.3441  138.4714  159.5207 C   0  0  0  0  0  0  0  0  0  0  0  0
  132.7127  139.0121  159.5026 C   0  0  0  0  0  0  0  0  0  0  0  0
  133.3708  139.4981  158.4098 C   0  0  0  0  0  0  0  0  0  0  0  0
  134.6432  139.9082  158.8367 C   0  0  0  0  0  0  0  0  0  0  0  0
  134.7304  139.6657  160.1631 C   0  0  0  0  0  0  0  0  0  0  0  0
  135.9263  139.9541  161.0337 C   0  0  0  0  0  0  0  0  0  0  0  0
  133.5527  139.1229  160.5827 N   0  0  0  0  0  0  0  0  0  0  0  0
  133.3439  138.8568  161.4918 H   0  0  0  0  0  0  0  0  0  0  0  0
  130.5375  133.6707  157.0423 N   0  0  0  0  0  0  0  0  0  0  0  0
  131.1115  134.2236  156.4894 H   0  0  0  0  0  0  0  0  0  0  0  0
  130.0881  132.1821  154.2491 C   0  0  0  0  0  0  0  0  0  0  0  0
  130.3978  131.4786  153.1028 C   0  0  0  0  0  0  0  0  0  0  0  0
  129.3310  129.1491  151.4222 H   0  0  0  0  0  0  0  0  0  0  0  0
  130.4792  128.0123  150.6757 H   0  0  0  0  0  0  0  0  0  0  0  0
  130.0757  127.8640  152.4029 H   0  0  0  0  0  0  0  0  0  0  0  0
  132.2991  128.9180  152.0956 H   0  0  0  0  0  0  0  0  0  0  0  0
  131.5543  130.2032  151.1149 H   0  0  0  0  0  0  0  0  0  0  0  0
  131.9177  128.7998  154.4864 H   0  0  0  0  0  0  0  0  0  0  0  0
  131.3837  130.0444  156.5402 H   0  0  0  0  0  0  0  0  0  0  0  0
  128.8470  131.0177  157.8180 H   0  0  0  0  0  0  0  0  0  0  0  0
  130.8130  135.9007  158.4330 H   0  0  0  0  0  0  0  0  0  0  0  0
  130.5168  133.7168  161.0611 H   0  0  0  0  0  0  0  0  0  0  0  0
  131.4996  135.1908  161.2336 H   0  0  0  0  0  0  0  0  0  0  0  0
  130.0341  134.9775  162.2212 H   0  0  0  0  0  0  0  0  0  0  0  0
  129.0172  137.4655  159.6457 H   0  0  0  0  0  0  0  0  0  0  0  0
  129.1585  137.1667  161.3946 H   0  0  0  0  0  0  0  0  0  0  0  0
  131.7459  137.1677  161.1045 H   0  0  0  0  0  0  0  0  0  0  0  0
  130.6097  138.8368  158.8181 H   0  0  0  0  0  0  0  0  0  0  0  0
  132.9839  139.5562  157.4032 H   0  0  0  0  0  0  0  0  0  0  0  0
  135.4146  140.3398  158.2162 H   0  0  0  0  0  0  0  0  0  0  0  0
  135.8457  140.9627  161.4391 H   0  0  0  0  0  0  0  0  0  0  0  0
  135.9614  139.2353  161.8523 H   0  0  0  0  0  0  0  0  0  0  0  0
  136.8364  139.8730  160.4395 H   0  0  0  0  0  0  0  0  0  0  0  0
  129.5723  133.1286  154.1802 H   0  0  0  0  0  0  0  0  0  0  0  0
  130.1238  131.8753  152.1364 H   0  0  0  0  0  0  0  0  0  0  0  0
  1  2  1  0
  1 30  1  0
  1 31  1  0
  1 32  1  0
  2  3  1  0
  2 33  1  0
  2 34  1  0
  3 29  2  0
  3  4  1  0
  4  5  2  0
  4 35  1  0
  5  6  1  0
  5 36  1  0
  6  7  1  0
  6 28  2  0
  7 26  1  0
  7  8  2  0
  8  9  1  0
  8 37  1  0
  9 10  1  0
  9 11  1  0
 11 12  1  0
 11 26  2  0
 12 13  1  0
 12 38  1  0
 13 14  1  6
 13 15  1  0
 13 16  1  0
 15 39  1  0
 15 40  1  0
 15 41  1  0
 16 17  1  0
 16 42  1  0
 16 43  1  0
 17 18  2  0
 17 44  1  0
 18 19  1  0
 18 45  1  0
 19 24  1  0
 19 20  2  0
 20 21  1  0
 20 46  1  0
 21 22  2  0
 21 47  1  0
 22 23  1  0
 22 24  1  0
 23 48  1  0
 23 49  1  0
 23 50  1  0
 24 25  1  0
 26 27  1  0
 28 29  1  0
 28 51  1  0
 29 52  1  0
M  CHG  1  26   1
M  END
>  <DOCK_score>  (1) 
-62.426369

>  <SMILES>  (1) 
CCc1ccc(-c2c[nH]c(N[C@@H](C)CC=Cc3ccc(C)[nH]3)[nH+]2)cc1

$$$$
