Nc1ccc(-c2c[nH]c(Nc3ccc(Nc4ccc(Cl)c(C5CC5)c4)cc3)[nH+]2)cc1
     RDKit          3D

 53 57  0  0  1  0  0  0  0  0999 V2000
  131.2344  129.2233  152.1179 N   0  0  0  0  0  0  0  0  0  0  0  0
  130.9716  129.9843  153.2594 C   0  0  0  0  0  0  0  0  0  0  0  0
  130.0818  131.0500  153.1931 C   0  0  0  0  0  0  0  0  0  0  0  0
  129.8209  131.8027  154.3185 C   0  0  0  0  0  0  0  0  0  0  0  0
  130.4502  131.4941  155.5235 C   0  0  0  0  0  0  0  0  0  0  0  0
  130.1709  132.3026  156.7357 C   0  0  0  0  0  0  0  0  0  0  0  0
  129.6507  131.8413  157.9000 C   0  0  0  0  0  0  0  0  0  0  0  0
  129.5632  132.9168  158.7513 N   0  0  0  0  0  0  0  0  0  0  0  0
  129.2318  132.9028  159.6629 H   0  0  0  0  0  0  0  0  0  0  0  0
  130.0253  134.0057  158.0780 C   0  0  0  0  0  0  0  0  0  0  0  0
  130.1026  135.2933  158.5825 N   0  0  0  0  0  0  0  0  0  0  0  0
  129.1846  135.7230  159.5487 C   0  0  0  0  0  0  0  0  0  0  0  0
  129.5570  136.6810  160.4829 C   0  0  0  0  0  0  0  0  0  0  0  0
  128.6538  137.1008  161.4388 C   0  0  0  0  0  0  0  0  0  0  0  0
  127.3691  136.5732  161.4595 C   0  0  0  0  0  0  0  0  0  0  0  0
  126.4516  137.0027  162.4253 N   0  0  0  0  0  0  0  0  0  0  0  0
  126.9026  137.4233  163.6793 C   0  0  0  0  0  0  0  0  0  0  0  0
  127.0388  136.5057  164.7139 C   0  0  0  0  0  0  0  0  0  0  0  0
  127.4846  136.9243  165.9518 C   0  0  0  0  0  0  0  0  0  0  0  0
  127.7958  138.2565  166.1628 C   0  0  0  0  0  0  0  0  0  0  0  0
  128.3566  138.7791  167.7204 Cl  0  0  0  0  0  0  0  0  0  0  0  0
  127.6610  139.1724  165.1346 C   0  0  0  0  0  0  0  0  0  0  0  0
  128.0008  140.6218  165.3683 C   0  0  0  0  0  0  0  0  0  0  0  0
  128.9547  141.2924  164.3776 C   0  0  0  0  0  0  0  0  0  0  0  0
  129.4336  140.9522  165.7911 C   0  0  0  0  0  0  0  0  0  0  0  0
  127.2210  138.7584  163.8924 C   0  0  0  0  0  0  0  0  0  0  0  0
  126.9950  135.6190  160.5221 C   0  0  0  0  0  0  0  0  0  0  0  0
  127.9002  135.1951  159.5697 C   0  0  0  0  0  0  0  0  0  0  0  0
  130.3902  133.6336  156.8751 N   0  0  0  0  0  0  0  0  0  0  0  0
  130.7591  134.2171  156.1936 H   0  0  0  0  0  0  0  0  0  0  0  0
  131.3465  130.4284  155.5863 C   0  0  0  0  0  0  0  0  0  0  0  0
  131.5997  129.6745  154.4598 C   0  0  0  0  0  0  0  0  0  0  0  0
  130.7960  129.4384  151.2798 H   0  0  0  0  0  0  0  0  0  0  0  0
  131.8552  128.4792  152.1634 H   0  0  0  0  0  0  0  0  0  0  0  0
  129.5947  131.2889  152.2592 H   0  0  0  0  0  0  0  0  0  0  0  0
  129.1292  132.6306  154.2665 H   0  0  0  0  0  0  0  0  0  0  0  0
  129.3644  130.8230  158.1182 H   0  0  0  0  0  0  0  0  0  0  0  0
  130.7926  135.8973  158.2665 H   0  0  0  0  0  0  0  0  0  0  0  0
  130.5544  137.0948  160.4637 H   0  0  0  0  0  0  0  0  0  0  0  0
  128.9446  137.8427  162.1678 H   0  0  0  0  0  0  0  0  0  0  0  0
  125.5026  137.0081  162.2243 H   0  0  0  0  0  0  0  0  0  0  0  0
  126.7964  135.4661  164.5497 H   0  0  0  0  0  0  0  0  0  0  0  0
  127.5903  136.2115  166.7564 H   0  0  0  0  0  0  0  0  0  0  0  0
  127.1995  141.2309  165.7864 H   0  0  0  0  0  0  0  0  0  0  0  0
  129.3364  140.6852  163.5568 H   0  0  0  0  0  0  0  0  0  0  0  0
  128.7810  142.3429  164.1443 H   0  0  0  0  0  0  0  0  0  0  0  0
  129.5751  141.7790  166.4870 H   0  0  0  0  0  0  0  0  0  0  0  0
  130.1304  140.1212  165.9006 H   0  0  0  0  0  0  0  0  0  0  0  0
  127.1207  139.4729  163.0888 H   0  0  0  0  0  0  0  0  0  0  0  0
  125.9960  135.2089  160.5379 H   0  0  0  0  0  0  0  0  0  0  0  0
  127.6094  134.4531  158.8407 H   0  0  0  0  0  0  0  0  0  0  0  0
  131.8388  130.1905  156.5177 H   0  0  0  0  0  0  0  0  0  0  0  0
  132.2904  128.8457  154.5092 H   0  0  0  0  0  0  0  0  0  0  0  0
  1  2  1  0
  1 33  1  0
  1 34  1  0
  2 32  2  0
  2  3  1  0
  3  4  2  0
  3 35  1  0
  4  5  1  0
  4 36  1  0
  5  6  1  0
  5 31  2  0
  6 29  1  0
  6  7  2  0
  7  8  1  0
  7 37  1  0
  8  9  1  0
  8 10  1  0
 10 11  1  0
 10 29  2  0
 11 12  1  0
 11 38  1  0
 12 28  1  0
 12 13  2  0
 13 14  1  0
 13 39  1  0
 14 15  2  0
 14 40  1  0
 15 16  1  0
 15 27  1  0
 16 17  1  0
 16 41  1  0
 17 26  1  0
 17 18  2  0
 18 19  1  0
 18 42  1  0
 19 20  2  0
 19 43  1  0
 20 21  1  0
 20 22  1  0
 22 23  1  0
 22 26  2  0
 23 25  1  0
 23 24  1  0
 23 44  1  0
 24 25  1  0
 24 45  1  0
 24 46  1  0
 25 47  1  0
 25 48  1  0
 26 49  1  0
 27 28  2  0
 27 50  1  0
 28 51  1  0
 29 30  1  0
 31 32  1  0
 31 52  1  0
 32 53  1  0
M  CHG  1  29   1
M  END
>  <DOCK_score>  (1) 
-56.358624

>  <SMILES>  (1) 
Nc1ccc(-c2c[nH]c(Nc3ccc(Nc4ccc(Cl)c(C5CC5)c4)cc3)[nH+]2)cc1

$$$$
