O=C1CC[C@H](NC(NC2CC2)=[NH+][C@H]2COc3cc(Cl)ccc3C2)CN1
     RDKit          3D

 49 52  0  0  1  0  0  0  0  0999 V2000
  123.6632  133.6692  161.3678 O   0  0  0  0  0  0  0  0  0  0  0  0
  124.8369  133.8850  161.1512 C   0  0  0  0  0  0  0  0  0  0  0  0
  125.6641  132.7822  160.5554 C   0  0  0  0  0  0  0  0  0  0  0  0
  127.1518  133.0774  160.7617 C   0  0  0  0  0  0  0  0  0  0  0  0
  127.4252  134.5206  160.3213 C   0  0  2  0  0  0  0  0  0  0  0  0
  127.0419  134.6739  159.3125 H   0  0  0  0  0  0  0  0  0  0  0  0
  128.8676  134.7763  160.3432 N   0  0  0  0  0  0  0  0  0  0  0  0
  129.6254  134.5355  159.2217 C   0  0  0  0  0  0  0  0  0  0  0  0
  129.0299  134.0548  158.0797 N   0  0  0  0  0  0  0  0  0  0  0  0
  129.7891  133.2040  157.1600 C   0  0  0  0  0  0  0  0  0  0  0  0
  129.1562  131.8756  156.7410 C   0  0  0  0  0  0  0  0  0  0  0  0
  130.3410  131.8868  157.7090 C   0  0  0  0  0  0  0  0  0  0  0  0
  130.9088  134.7632  159.2412 N   0  0  0  0  0  0  0  0  0  0  0  0
  131.3680  135.0208  158.4267 H   0  0  0  0  0  0  0  0  0  0  0  0
  131.6564  134.6354  160.4945 C   0  0  1  0  0  0  0  0  0  0  0  0
  131.1847  133.8850  161.1289 H   0  0  0  0  0  0  0  0  0  0  0  0
  133.1033  134.2241  160.1939 C   0  0  0  0  0  0  0  0  0  0  0  0
  133.7771  134.0077  161.4344 O   0  0  0  0  0  0  0  0  0  0  0  0
  133.6711  134.9671  162.3903 C   0  0  0  0  0  0  0  0  0  0  0  0
  134.5819  134.9595  163.4419 C   0  0  0  0  0  0  0  0  0  0  0  0
  134.5017  135.9131  164.4373 C   0  0  0  0  0  0  0  0  0  0  0  0
  135.6407  135.8995  165.7473 Cl  0  0  0  0  0  0  0  0  0  0  0  0
  133.5121  136.8796  164.3896 C   0  0  0  0  0  0  0  0  0  0  0  0
  132.6076  136.8897  163.3464 C   0  0  0  0  0  0  0  0  0  0  0  0
  132.6842  135.9362  162.3446 C   0  0  0  0  0  0  0  0  0  0  0  0
  131.6807  135.9830  161.2204 C   0  0  0  0  0  0  0  0  0  0  0  0
  126.7205  135.4730  161.2882 C   0  0  0  0  0  0  0  0  0  0  0  0
  125.3238  135.0888  161.4545 N   0  0  0  0  0  0  0  0  0  0  0  0
  125.4542  132.7083  159.4884 H   0  0  0  0  0  0  0  0  0  0  0  0
  125.4117  131.8385  161.0391 H   0  0  0  0  0  0  0  0  0  0  0  0
  127.7489  132.3911  160.1613 H   0  0  0  0  0  0  0  0  0  0  0  0
  127.4064  132.9608  161.8152 H   0  0  0  0  0  0  0  0  0  0  0  0
  129.2879  135.1154  161.1490 H   0  0  0  0  0  0  0  0  0  0  0  0
  128.1069  134.2789  157.8829 H   0  0  0  0  0  0  0  0  0  0  0  0
  130.3898  133.7314  156.4191 H   0  0  0  0  0  0  0  0  0  0  0  0
  128.1748  131.6346  157.1497 H   0  0  0  0  0  0  0  0  0  0  0  0
  129.3403  131.5289  155.7242 H   0  0  0  0  0  0  0  0  0  0  0  0
  131.3046  131.5475  157.3288 H   0  0  0  0  0  0  0  0  0  0  0  0
  130.1391  131.6532  158.7544 H   0  0  0  0  0  0  0  0  0  0  0  0
  133.1095  133.3053  159.6075 H   0  0  0  0  0  0  0  0  0  0  0  0
  133.6030  135.0180  159.6388 H   0  0  0  0  0  0  0  0  0  0  0  0
  135.3545  134.2057  163.4795 H   0  0  0  0  0  0  0  0  0  0  0  0
  133.4478  137.6257  165.1678 H   0  0  0  0  0  0  0  0  0  0  0  0
  131.8366  137.6452  163.3112 H   0  0  0  0  0  0  0  0  0  0  0  0
  131.9594  136.7684  160.5179 H   0  0  0  0  0  0  0  0  0  0  0  0
  130.6915  136.1940  161.6266 H   0  0  0  0  0  0  0  0  0  0  0  0
  127.2195  135.4375  162.2566 H   0  0  0  0  0  0  0  0  0  0  0  0
  126.7736  136.4887  160.8961 H   0  0  0  0  0  0  0  0  0  0  0  0
  124.7095  135.7522  161.8059 H   0  0  0  0  0  0  0  0  0  0  0  0
  1  2  2  0
  2 28  1  0
  2  3  1  0
  3  4  1  0
  3 29  1  0
  3 30  1  0
  4  5  1  0
  4 31  1  0
  4 32  1  0
  5  6  1  6
  5  7  1  0
  5 27  1  0
  7 33  1  0
  8  7  1  0
  8  9  1  0
  8 13  2  0
  9 10  1  0
  9 34  1  0
 10 12  1  0
 10 11  1  0
 10 35  1  0
 11 12  1  0
 11 36  1  0
 11 37  1  0
 12 38  1  0
 12 39  1  0
 13 14  1  0
 13 15  1  0
 15 16  1  1
 15 26  1  0
 15 17  1  0
 17 18  1  0
 17 40  1  0
 17 41  1  0
 18 19  1  0
 19 25  2  0
 19 20  1  0
 20 21  2  0
 20 42  1  0
 21 22  1  0
 21 23  1  0
 23 24  2  0
 23 43  1  0
 24 25  1  0
 24 44  1  0
 25 26  1  0
 26 45  1  0
 26 46  1  0
 27 28  1  0
 27 47  1  0
 27 48  1  0
 28 49  1  0
M  CHG  1  13   1
M  END
>  <DOCK_score>  (1) 
-45.925613

>  <SMILES>  (1) 
O=C1CC[C@H](NC(NC2CC2)=[NH+][C@H]2COc3cc(Cl)ccc3C2)CN1

$$$$
