Cc1ccc([N+](=O)[O-])cc1C[NH+]=C(NCCc1ccccc1F)N[C@H]1C[C@@H](O)C1
     RDKit          3D

 55 57  0  0  1  0  0  0  0  0999 V2000
  129.8518  139.9229  162.4129 C   0  0  0  0  0  0  0  0  0  0  0  0
  130.4936  138.6413  162.8780 C   0  0  0  0  0  0  0  0  0  0  0  0
  131.0103  138.5515  164.1574 C   0  0  0  0  0  0  0  0  0  0  0  0
  131.5989  137.3754  164.5839 C   0  0  0  0  0  0  0  0  0  0  0  0
  131.6702  136.2896  163.7319 C   0  0  0  0  0  0  0  0  0  0  0  0
  132.2998  135.0305  164.1892 N   0  0  0  0  0  0  0  0  0  0  0  0
  132.7547  134.9513  165.3162 O   0  0  0  0  0  0  0  0  0  0  0  0
  132.3627  134.0735  163.4383 O   0  0  0  0  0  0  0  0  0  0  0  0
  131.1501  136.3782  162.4543 C   0  0  0  0  0  0  0  0  0  0  0  0
  130.5661  137.5556  162.0257 C   0  0  0  0  0  0  0  0  0  0  0  0
  130.0030  137.6535  160.6314 C   0  0  0  0  0  0  0  0  0  0  0  0
  130.2022  136.3807  159.9339 N   0  0  0  0  0  0  0  0  0  0  0  0
  131.0119  136.2300  159.4216 H   0  0  0  0  0  0  0  0  0  0  0  0
  129.2913  135.4508  160.0020 C   0  0  0  0  0  0  0  0  0  0  0  0
  129.1242  134.5744  158.9559 N   0  0  0  0  0  0  0  0  0  0  0  0
  129.9697  134.6856  157.7648 C   0  0  0  0  0  0  0  0  0  0  0  0
  129.5809  133.5993  156.7600 C   0  0  0  0  0  0  0  0  0  0  0  0
  129.7729  132.2426  157.3874 C   0  0  0  0  0  0  0  0  0  0  0  0
  130.9870  131.5924  157.2704 C   0  0  0  0  0  0  0  0  0  0  0  0
  131.1635  130.3481  157.8458 C   0  0  0  0  0  0  0  0  0  0  0  0
  130.1281  129.7552  158.5447 C   0  0  0  0  0  0  0  0  0  0  0  0
  128.9117  130.4008  158.6581 C   0  0  0  0  0  0  0  0  0  0  0  0
  128.7336  131.6473  158.0816 C   0  0  0  0  0  0  0  0  0  0  0  0
  127.5464  132.2818  158.1963 F   0  0  0  0  0  0  0  0  0  0  0  0
  128.4978  135.3462  161.1198 N   0  0  0  0  0  0  0  0  0  0  0  0
  127.4740  134.3011  161.1962 C   0  0  1  0  0  0  0  0  0  0  0  0
  127.8891  133.2959  161.1222 H   0  0  0  0  0  0  0  0  0  0  0  0
  126.4980  134.4796  162.3711 C   0  0  0  0  0  0  0  0  0  0  0  0
  125.3831  134.0347  161.4099 C   0  0  1  0  0  0  0  0  0  0  0  0
  125.2253  132.9563  161.3934 H   0  0  0  0  0  0  0  0  0  0  0  0
  124.1680  134.7709  161.5628 O   0  0  0  0  0  0  0  0  0  0  0  0
  126.2758  134.5431  160.2632 C   0  0  0  0  0  0  0  0  0  0  0  0
  128.7870  139.9012  162.6447 H   0  0  0  0  0  0  0  0  0  0  0  0
  130.3171  140.7677  162.9210 H   0  0  0  0  0  0  0  0  0  0  0  0
  129.9872  140.0272  161.3364 H   0  0  0  0  0  0  0  0  0  0  0  0
  130.9540  139.4000  164.8232 H   0  0  0  0  0  0  0  0  0  0  0  0
  132.0024  137.3049  165.5834 H   0  0  0  0  0  0  0  0  0  0  0  0
  131.2028  135.5283  161.7899 H   0  0  0  0  0  0  0  0  0  0  0  0
  130.5132  138.4491  160.0884 H   0  0  0  0  0  0  0  0  0  0  0  0
  128.9372  137.8757  160.6847 H   0  0  0  0  0  0  0  0  0  0  0  0
  128.4464  133.8823  159.0066 H   0  0  0  0  0  0  0  0  0  0  0  0
  131.0149  134.5610  158.0483 H   0  0  0  0  0  0  0  0  0  0  0  0
  129.8309  135.6669  157.3109 H   0  0  0  0  0  0  0  0  0  0  0  0
  130.2101  133.6820  155.8738 H   0  0  0  0  0  0  0  0  0  0  0  0
  128.5357  133.7238  156.4766 H   0  0  0  0  0  0  0  0  0  0  0  0
  131.7979  132.0566  156.7289 H   0  0  0  0  0  0  0  0  0  0  0  0
  132.1122  129.8405  157.7532 H   0  0  0  0  0  0  0  0  0  0  0  0
  130.2688  128.7852  158.9982 H   0  0  0  0  0  0  0  0  0  0  0  0
  128.1016  129.9355  159.1998 H   0  0  0  0  0  0  0  0  0  0  0  0
  128.6156  135.9645  161.8578 H   0  0  0  0  0  0  0  0  0  0  0  0
  126.6707  133.7833  163.1917 H   0  0  0  0  0  0  0  0  0  0  0  0
  126.4016  135.5125  162.7055 H   0  0  0  0  0  0  0  0  0  0  0  0
  124.2619  135.7211  161.4095 H   0  0  0  0  0  0  0  0  0  0  0  0
  126.1174  135.5935  160.0194 H   0  0  0  0  0  0  0  0  0  0  0  0
  126.2693  133.8978  159.3846 H   0  0  0  0  0  0  0  0  0  0  0  0
  1  2  1  0
  1 33  1  0
  1 34  1  0
  1 35  1  0
  2 10  2  0
  2  3  1  0
  3  4  2  0
  3 36  1  0
  4  5  1  0
  4 37  1  0
  5  6  1  0
  5  9  2  0
  6  7  2  0
  6  8  1  0
  9 10  1  0
  9 38  1  0
 10 11  1  0
 11 12  1  0
 11 39  1  0
 11 40  1  0
 12 13  1  0
 14 12  2  0
 14 15  1  0
 14 25  1  0
 15 16  1  0
 15 41  1  0
 16 17  1  0
 16 42  1  0
 16 43  1  0
 17 18  1  0
 17 44  1  0
 17 45  1  0
 18 23  1  0
 18 19  2  0
 19 20  1  0
 19 46  1  0
 20 21  2  0
 20 47  1  0
 21 22  1  0
 21 48  1  0
 22 23  2  0
 22 49  1  0
 23 24  1  0
 25 26  1  0
 25 50  1  0
 26 27  1  6
 26 32  1  0
 26 28  1  0
 28 29  1  0
 28 51  1  0
 28 52  1  0
 29 30  1  6
 29 31  1  0
 29 32  1  0
 31 53  1  0
 32 54  1  0
 32 55  1  0
M  CHG  3   6   1   8  -1  12   1
M  END
>  <DOCK_score>  (1) 
-46.314533

>  <SMILES>  (1) 
Cc1ccc([N+](=O)[O-])cc1C[NH+]=C(NCCc1ccccc1F)N[C@H]1C[C@@H](O)C1

$$$$
