Clc1ccc(Nc2[nH]cc(-c3ccccc3)[nH+]2)c(-c2ccc(-c3ccccc3)cc2)c1
     RDKit          3D

 52 56  0  0  1  0  0  0  0  0999 V2000
  126.8512  137.2721  163.6808 Cl  0  0  0  0  0  0  0  0  0  0  0  0
  127.9340  136.7315  162.4361 C   0  0  0  0  0  0  0  0  0  0  0  0
  127.4475  136.4630  161.1671 C   0  0  0  0  0  0  0  0  0  0  0  0
  128.3007  136.0324  160.1699 C   0  0  0  0  0  0  0  0  0  0  0  0
  129.6535  135.8713  160.4340 C   0  0  0  0  0  0  0  0  0  0  0  0
  130.5181  135.4417  159.4256 N   0  0  0  0  0  0  0  0  0  0  0  0
  130.3154  134.2145  158.8157 C   0  0  0  0  0  0  0  0  0  0  0  0
  129.7610  133.1190  159.4034 N   0  0  0  0  0  0  0  0  0  0  0  0
  129.4394  133.0576  160.3165 H   0  0  0  0  0  0  0  0  0  0  0  0
  129.7376  132.1179  158.4638 C   0  0  0  0  0  0  0  0  0  0  0  0
  130.2864  132.6266  157.3326 C   0  0  0  0  0  0  0  0  0  0  0  0
  130.4752  131.9024  156.0519 C   0  0  0  0  0  0  0  0  0  0  0  0
  129.8614  132.3653  154.8893 C   0  0  0  0  0  0  0  0  0  0  0  0
  130.0452  131.6908  153.6995 C   0  0  0  0  0  0  0  0  0  0  0  0
  130.8274  130.5512  153.6612 C   0  0  0  0  0  0  0  0  0  0  0  0
  131.4344  130.0830  154.8135 C   0  0  0  0  0  0  0  0  0  0  0  0
  131.2625  130.7532  156.0077 C   0  0  0  0  0  0  0  0  0  0  0  0
  130.6312  133.9149  157.5793 N   0  0  0  0  0  0  0  0  0  0  0  0
  131.0455  134.5182  156.9426 H   0  0  0  0  0  0  0  0  0  0  0  0
  130.1471  136.1364  161.7171 C   0  0  0  0  0  0  0  0  0  0  0  0
  131.5893  135.9620  162.0108 C   0  0  0  0  0  0  0  0  0  0  0  0
  132.0648  134.7316  162.4649 C   0  0  0  0  0  0  0  0  0  0  0  0
  133.4049  134.5697  162.7382 C   0  0  0  0  0  0  0  0  0  0  0  0
  134.2864  135.6359  162.5615 C   0  0  0  0  0  0  0  0  0  0  0  0
  135.7294  135.4615  162.8564 C   0  0  0  0  0  0  0  0  0  0  0  0
  136.4904  136.5452  163.2918 C   0  0  0  0  0  0  0  0  0  0  0  0
  137.8328  136.3771  163.5643 C   0  0  0  0  0  0  0  0  0  0  0  0
  138.4233  135.1362  163.4060 C   0  0  0  0  0  0  0  0  0  0  0  0
  137.6744  134.0586  162.9685 C   0  0  0  0  0  0  0  0  0  0  0  0
  136.3299  134.2136  162.6986 C   0  0  0  0  0  0  0  0  0  0  0  0
  133.8103  136.8676  162.1130 C   0  0  0  0  0  0  0  0  0  0  0  0
  132.4712  137.0281  161.8336 C   0  0  0  0  0  0  0  0  0  0  0  0
  129.2769  136.5706  162.7150 C   0  0  0  0  0  0  0  0  0  0  0  0
  126.3960  136.5910  160.9565 H   0  0  0  0  0  0  0  0  0  0  0  0
  127.9154  135.8250  159.1825 H   0  0  0  0  0  0  0  0  0  0  0  0
  131.2606  136.0026  159.1519 H   0  0  0  0  0  0  0  0  0  0  0  0
  129.3586  131.1158  158.6007 H   0  0  0  0  0  0  0  0  0  0  0  0
  129.2466  133.2529  154.9188 H   0  0  0  0  0  0  0  0  0  0  0  0
  129.5741  132.0513  152.7971 H   0  0  0  0  0  0  0  0  0  0  0  0
  130.9648  130.0239  152.7287 H   0  0  0  0  0  0  0  0  0  0  0  0
  132.0442  129.1925  154.7780 H   0  0  0  0  0  0  0  0  0  0  0  0
  131.7374  130.3878  156.9062 H   0  0  0  0  0  0  0  0  0  0  0  0
  131.3820  133.9061  162.6018 H   0  0  0  0  0  0  0  0  0  0  0  0
  133.7731  133.6172  163.0898 H   0  0  0  0  0  0  0  0  0  0  0  0
  136.0303  137.5141  163.4162 H   0  0  0  0  0  0  0  0  0  0  0  0
  138.4233  137.2159  163.9022 H   0  0  0  0  0  0  0  0  0  0  0  0
  139.4742  135.0093  163.6203 H   0  0  0  0  0  0  0  0  0  0  0  0
  138.1416  133.0931  162.8425 H   0  0  0  0  0  0  0  0  0  0  0  0
  135.7451  133.3706  162.3611 H   0  0  0  0  0  0  0  0  0  0  0  0
  134.4925  137.6945  161.9807 H   0  0  0  0  0  0  0  0  0  0  0  0
  132.1033  137.9807  161.4821 H   0  0  0  0  0  0  0  0  0  0  0  0
  129.6524  136.7815  163.7054 H   0  0  0  0  0  0  0  0  0  0  0  0
  1  2  1  0
  2 33  2  0
  2  3  1  0
  3  4  2  0
  3 34  1  0
  4  5  1  0
  4 35  1  0
  5  6  1  0
  5 20  2  0
  6 36  1  0
  7  6  1  0
  7 18  2  0
  7  8  1  0
  8  9  1  0
  8 10  1  0
 10 11  2  0
 10 37  1  0
 11 12  1  0
 11 18  1  0
 12 17  1  0
 12 13  2  0
 13 14  1  0
 13 38  1  0
 14 15  2  0
 14 39  1  0
 15 16  1  0
 15 40  1  0
 16 17  2  0
 16 41  1  0
 17 42  1  0
 18 19  1  0
 20 21  1  0
 20 33  1  0
 21 32  1  0
 21 22  2  0
 22 23  1  0
 22 43  1  0
 23 24  2  0
 23 44  1  0
 24 25  1  0
 24 31  1  0
 25 30  1  0
 25 26  2  0
 26 27  1  0
 26 45  1  0
 27 28  2  0
 27 46  1  0
 28 29  1  0
 28 47  1  0
 29 30  2  0
 29 48  1  0
 30 49  1  0
 31 32  2  0
 31 50  1  0
 32 51  1  0
 33 52  1  0
M  CHG  1  18   1
M  END
>  <DOCK_score>  (1) 
-57.224274

>  <SMILES>  (1) 
Clc1ccc(Nc2[nH]cc(-c3ccccc3)[nH+]2)c(-c2ccc(-c3ccccc3)cc2)c1

$$$$
