CCc1ccc(-c2c[nH]c(N[C@H](CNc3cc(C)c(Cl)cc3Cl)Cc3ccccc3)[nH+]2)cc1
     RDKit          3D

 62 65  0  0  1  0  0  0  0  0999 V2000
  130.2561  128.2791  151.2773 C   0  0  0  0  0  0  0  0  0  0  0  0
  131.2423  129.4380  151.4361 C   0  0  0  0  0  0  0  0  0  0  0  0
  130.9740  130.1515  152.7361 C   0  0  0  0  0  0  0  0  0  0  0  0
  131.6207  129.7474  153.8897 C   0  0  0  0  0  0  0  0  0  0  0  0
  131.3833  130.4006  155.0821 C   0  0  0  0  0  0  0  0  0  0  0  0
  130.4813  131.4622  155.1244 C   0  0  0  0  0  0  0  0  0  0  0  0
  130.2178  132.1647  156.4040 C   0  0  0  0  0  0  0  0  0  0  0  0
  129.7298  131.6023  157.5374 C   0  0  0  0  0  0  0  0  0  0  0  0
  129.6419  132.6038  158.4735 N   0  0  0  0  0  0  0  0  0  0  0  0
  129.3262  132.5112  159.3859 H   0  0  0  0  0  0  0  0  0  0  0  0
  130.0794  133.7499  157.8843 C   0  0  0  0  0  0  0  0  0  0  0  0
  130.1499  134.9923  158.4909 N   0  0  0  0  0  0  0  0  0  0  0  0
  129.7320  135.1511  159.8860 C   0  0  2  0  0  0  0  0  0  0  0  0
  128.8367  134.5563  160.0669 H   0  0  0  0  0  0  0  0  0  0  0  0
  129.4297  136.6252  160.1632 C   0  0  0  0  0  0  0  0  0  0  0  0
  130.6331  137.4246  159.9199 N   0  0  0  0  0  0  0  0  0  0  0  0
  130.8491  138.6008  160.6442 C   0  0  0  0  0  0  0  0  0  0  0  0
  129.7869  139.2340  161.2758 C   0  0  0  0  0  0  0  0  0  0  0  0
  130.0032  140.3958  161.9911 C   0  0  0  0  0  0  0  0  0  0  0  0
  128.8505  141.0831  162.6765 C   0  0  0  0  0  0  0  0  0  0  0  0
  131.2770  140.9294  162.0786 C   0  0  0  0  0  0  0  0  0  0  0  0
  131.5445  142.3895  162.9787 Cl  0  0  0  0  0  0  0  0  0  0  0  0
  132.3379  140.3011  161.4507 C   0  0  0  0  0  0  0  0  0  0  0  0
  132.1285  139.1354  160.7382 C   0  0  0  0  0  0  0  0  0  0  0  0
  133.4610  138.3435  159.9564 Cl  0  0  0  0  0  0  0  0  0  0  0  0
  130.8544  134.6779  160.8118 C   0  0  0  0  0  0  0  0  0  0  0  0
  130.2869  134.3730  162.1741 C   0  0  0  0  0  0  0  0  0  0  0  0
  130.2313  135.3631  163.1372 C   0  0  0  0  0  0  0  0  0  0  0  0
  129.7063  135.0847  164.3852 C   0  0  0  0  0  0  0  0  0  0  0  0
  129.2465  133.8134  164.6737 C   0  0  0  0  0  0  0  0  0  0  0  0
  129.3067  132.8219  163.7124 C   0  0  0  0  0  0  0  0  0  0  0  0
  129.8270  133.1017  162.4626 C   0  0  0  0  0  0  0  0  0  0  0  0
  130.4281  133.4823  156.6495 N   0  0  0  0  0  0  0  0  0  0  0  0
  130.7782  134.1243  156.0122 H   0  0  0  0  0  0  0  0  0  0  0  0
  129.8281  131.8618  153.9598 C   0  0  0  0  0  0  0  0  0  0  0  0
  130.0775  131.2049  152.7719 C   0  0  0  0  0  0  0  0  0  0  0  0
  130.3790  127.5821  152.1063 H   0  0  0  0  0  0  0  0  0  0  0  0
  129.2372  128.6662  151.2761 H   0  0  0  0  0  0  0  0  0  0  0  0
  130.4501  127.7632  150.3370 H   0  0  0  0  0  0  0  0  0  0  0  0
  132.2608  129.0515  151.4369 H   0  0  0  0  0  0  0  0  0  0  0  0
  131.1190  130.1356  150.6067 H   0  0  0  0  0  0  0  0  0  0  0  0
  132.3158  128.9215  153.8567 H   0  0  0  0  0  0  0  0  0  0  0  0
  131.8923  130.0870  155.9815 H   0  0  0  0  0  0  0  0  0  0  0  0
  129.4611  130.5656  157.6771 H   0  0  0  0  0  0  0  0  0  0  0  0
  130.4764  135.7577  157.9922 H   0  0  0  0  0  0  0  0  0  0  0  0
  128.6300  136.9623  159.5037 H   0  0  0  0  0  0  0  0  0  0  0  0
  129.1187  136.7433  161.2012 H   0  0  0  0  0  0  0  0  0  0  0  0
  131.2798  137.1378  159.2562 H   0  0  0  0  0  0  0  0  0  0  0  0
  128.7923  138.8188  161.2074 H   0  0  0  0  0  0  0  0  0  0  0  0
  128.7461  140.6945  163.6895 H   0  0  0  0  0  0  0  0  0  0  0  0
  129.0390  142.1559  162.7165 H   0  0  0  0  0  0  0  0  0  0  0  0
  127.9326  140.8961  162.1194 H   0  0  0  0  0  0  0  0  0  0  0  0
  133.3310  140.7199  161.5206 H   0  0  0  0  0  0  0  0  0  0  0  0
  131.3111  133.7785  160.3987 H   0  0  0  0  0  0  0  0  0  0  0  0
  131.6078  135.4608  160.8989 H   0  0  0  0  0  0  0  0  0  0  0  0
  130.5948  136.3552  162.9132 H   0  0  0  0  0  0  0  0  0  0  0  0
  129.6594  135.8593  165.1365 H   0  0  0  0  0  0  0  0  0  0  0  0
  128.8403  133.5947  165.6503 H   0  0  0  0  0  0  0  0  0  0  0  0
  128.9477  131.8286  163.9379 H   0  0  0  0  0  0  0  0  0  0  0  0
  129.8744  132.3270  161.7116 H   0  0  0  0  0  0  0  0  0  0  0  0
  129.1280  132.6837  153.9868 H   0  0  0  0  0  0  0  0  0  0  0  0
  129.5718  131.5135  151.8689 H   0  0  0  0  0  0  0  0  0  0  0  0
  1  2  1  0
  1 37  1  0
  1 38  1  0
  1 39  1  0
  2  3  1  0
  2 40  1  0
  2 41  1  0
  3 36  2  0
  3  4  1  0
  4  5  2  0
  4 42  1  0
  5  6  1  0
  5 43  1  0
  6  7  1  0
  6 35  2  0
  7 33  1  0
  7  8  2  0
  8  9  1  0
  8 44  1  0
  9 10  1  0
  9 11  1  0
 11 12  1  0
 11 33  2  0
 12 13  1  0
 12 45  1  0
 13 14  1  6
 13 15  1  0
 13 26  1  0
 15 16  1  0
 15 46  1  0
 15 47  1  0
 16 17  1  0
 16 48  1  0
 17 24  1  0
 17 18  2  0
 18 19  1  0
 18 49  1  0
 19 20  1  0
 19 21  2  0
 20 50  1  0
 20 51  1  0
 20 52  1  0
 21 22  1  0
 21 23  1  0
 23 24  2  0
 23 53  1  0
 24 25  1  0
 26 27  1  0
 26 54  1  0
 26 55  1  0
 27 32  1  0
 27 28  2  0
 28 29  1  0
 28 56  1  0
 29 30  2  0
 29 57  1  0
 30 31  1  0
 30 58  1  0
 31 32  2  0
 31 59  1  0
 32 60  1  0
 33 34  1  0
 35 36  1  0
 35 61  1  0
 36 62  1  0
M  CHG  1  33   1
M  END
>  <DOCK_score>  (1) 
-64.602257

>  <SMILES>  (1) 
CCc1ccc(-c2c[nH]c(N[C@H](CNc3cc(C)c(Cl)cc3Cl)Cc3ccccc3)[nH+]2)cc1

$$$$
