Clc1ccccc1[C@H](c1ccccc1)[NH+]1CCN(c2cccc(Cl)c2CBr)CC1
     RDKit          3D

 53 56  0  0  1  0  0  0  0  0999 V2000
  130.7573  132.4434  162.1491 Cl  0  0  0  0  0  0  0  0  0  0  0  0
  131.0318  132.3358  160.4383 C   0  0  0  0  0  0  0  0  0  0  0  0
  131.5088  131.1599  159.8864 C   0  0  0  0  0  0  0  0  0  0  0  0
  131.7267  131.0748  158.5244 C   0  0  0  0  0  0  0  0  0  0  0  0
  131.4686  132.1643  157.7132 C   0  0  0  0  0  0  0  0  0  0  0  0
  130.9867  133.3373  158.2632 C   0  0  0  0  0  0  0  0  0  0  0  0
  130.7733  133.4253  159.6262 C   0  0  0  0  0  0  0  0  0  0  0  0
  130.2534  134.7061  160.2263 C   0  0  2  0  0  0  0  0  0  0  0  0
  130.1449  134.5846  161.3041 H   0  0  0  0  0  0  0  0  0  0  0  0
  128.9136  135.0370  159.6208 C   0  0  0  0  0  0  0  0  0  0  0  0
  127.7549  134.5584  160.2031 C   0  0  0  0  0  0  0  0  0  0  0  0
  126.5256  134.8656  159.6502 C   0  0  0  0  0  0  0  0  0  0  0  0
  126.4557  135.6432  158.5096 C   0  0  0  0  0  0  0  0  0  0  0  0
  127.6148  136.1177  157.9245 C   0  0  0  0  0  0  0  0  0  0  0  0
  128.8437  135.8143  158.4799 C   0  0  0  0  0  0  0  0  0  0  0  0
  131.1985  135.7959  159.9491 N   0  0  0  0  0  0  0  0  0  0  0  0
  131.2988  135.9084  158.9514 H   0  0  0  0  0  0  0  0  0  0  0  0
  132.5045  135.4729  160.5388 C   0  0  0  0  0  0  0  0  0  0  0  0
  133.4947  136.5990  160.2338 C   0  0  0  0  0  0  0  0  0  0  0  0
  132.9849  137.8597  160.7914 N   0  0  0  0  0  0  0  0  0  0  0  0
  133.8893  138.9027  160.5796 C   0  0  0  0  0  0  0  0  0  0  0  0
  134.2519  139.2579  159.2862 C   0  0  0  0  0  0  0  0  0  0  0  0
  135.1463  140.2894  159.0795 C   0  0  0  0  0  0  0  0  0  0  0  0
  135.6820  140.9691  160.1580 C   0  0  0  0  0  0  0  0  0  0  0  0
  135.3231  140.6186  161.4478 C   0  0  0  0  0  0  0  0  0  0  0  0
  135.9982  141.4746  162.7989 Cl  0  0  0  0  0  0  0  0  0  0  0  0
  134.4238  139.5906  161.6610 C   0  0  0  0  0  0  0  0  0  0  0  0
  134.0282  139.2132  163.0654 C   0  0  0  0  0  0  0  0  0  0  0  0
  132.4501  140.2548  163.6041 Br  0  0  0  0  0  0  0  0  0  0  0  0
  131.6662  138.1837  160.2290 C   0  0  0  0  0  0  0  0  0  0  0  0
  130.6912  137.0443  160.5337 C   0  0  0  0  0  0  0  0  0  0  0  0
  131.7104  130.3087  160.5199 H   0  0  0  0  0  0  0  0  0  0  0  0
  132.0990  130.1571  158.0936 H   0  0  0  0  0  0  0  0  0  0  0  0
  131.6397  132.0975  156.6490 H   0  0  0  0  0  0  0  0  0  0  0  0
  130.7807  134.1864  157.6285 H   0  0  0  0  0  0  0  0  0  0  0  0
  127.8096  133.9473  161.0920 H   0  0  0  0  0  0  0  0  0  0  0  0
  125.6201  134.4949  160.1075 H   0  0  0  0  0  0  0  0  0  0  0  0
  125.4956  135.8803  158.0757 H   0  0  0  0  0  0  0  0  0  0  0  0
  127.5602  136.7255  157.0333 H   0  0  0  0  0  0  0  0  0  0  0  0
  129.7493  136.1848  158.0227 H   0  0  0  0  0  0  0  0  0  0  0  0
  132.3989  135.3640  161.6182 H   0  0  0  0  0  0  0  0  0  0  0  0
  132.8740  134.5395  160.1140 H   0  0  0  0  0  0  0  0  0  0  0  0
  133.6107  136.6992  159.1547 H   0  0  0  0  0  0  0  0  0  0  0  0
  134.4601  136.3665  160.6834 H   0  0  0  0  0  0  0  0  0  0  0  0
  133.8347  138.7273  158.4430 H   0  0  0  0  0  0  0  0  0  0  0  0
  135.4282  140.5655  158.0741 H   0  0  0  0  0  0  0  0  0  0  0  0
  136.3817  141.7751  159.9936 H   0  0  0  0  0  0  0  0  0  0  0  0
  133.7919  138.1498  163.1029 H   0  0  0  0  0  0  0  0  0  0  0  0
  134.8534  139.4261  163.7449 H   0  0  0  0  0  0  0  0  0  0  0  0
  131.7522  138.3100  159.1498 H   0  0  0  0  0  0  0  0  0  0  0  0
  131.2973  139.1071  160.6755 H   0  0  0  0  0  0  0  0  0  0  0  0
  129.7162  137.2762  160.1051 H   0  0  0  0  0  0  0  0  0  0  0  0
  130.5950  136.9272  161.6131 H   0  0  0  0  0  0  0  0  0  0  0  0
  1  2  1  0
  2  7  2  0
  2  3  1  0
  3  4  2  0
  3 32  1  0
  4  5  1  0
  4 33  1  0
  5  6  2  0
  5 34  1  0
  6  7  1  0
  6 35  1  0
  7  8  1  0
  8  9  1  1
  8 10  1  0
  8 16  1  0
 10 15  1  0
 10 11  2  0
 11 12  1  0
 11 36  1  0
 12 13  2  0
 12 37  1  0
 13 14  1  0
 13 38  1  0
 14 15  2  0
 14 39  1  0
 15 40  1  0
 16 17  1  0
 16 31  1  0
 16 18  1  0
 18 19  1  0
 18 41  1  0
 18 42  1  0
 19 20  1  0
 19 43  1  0
 19 44  1  0
 20 21  1  0
 20 30  1  0
 21 27  1  0
 21 22  2  0
 22 23  1  0
 22 45  1  0
 23 24  2  0
 23 46  1  0
 24 25  1  0
 24 47  1  0
 25 26  1  0
 25 27  2  0
 27 28  1  0
 28 29  1  0
 28 48  1  0
 28 49  1  0
 30 31  1  0
 30 50  1  0
 30 51  1  0
 31 52  1  0
 31 53  1  0
M  CHG  1  16   1
M  END
>  <DOCK_score>  (1) 
-57.426048

>  <SMILES>  (1) 
Clc1ccccc1[C@H](c1ccccc1)[NH+]1CCN(c2cccc(Cl)c2CBr)CC1

$$$$
