O=C1CC[C@H](NC(N[C@H]2COc3ccccc3C2)=[NH+]Cc2ccccc2)CN1
     RDKit          3D

 55 58  0  0  1  0  0  0  0  0999 V2000
  123.8745  133.6789  162.2070 O   0  0  0  0  0  0  0  0  0  0  0  0
  125.0404  133.9105  161.9661 C   0  0  0  0  0  0  0  0  0  0  0  0
  125.8856  132.7999  161.4114 C   0  0  0  0  0  0  0  0  0  0  0  0
  127.3680  133.1382  161.5875 C   0  0  0  0  0  0  0  0  0  0  0  0
  127.6044  134.5642  161.0768 C   0  0  2  0  0  0  0  0  0  0  0  0
  127.2040  134.6639  160.0678 H   0  0  0  0  0  0  0  0  0  0  0  0
  129.0402  134.8547  161.0667 N   0  0  0  0  0  0  0  0  0  0  0  0
  129.7895  134.5793  159.9474 C   0  0  0  0  0  0  0  0  0  0  0  0
  131.1370  134.8520  159.9379 N   0  0  0  0  0  0  0  0  0  0  0  0
  131.6659  135.9590  160.7386 C   0  0  1  0  0  0  0  0  0  0  0  0
  131.4414  135.7908  161.7918 H   0  0  0  0  0  0  0  0  0  0  0  0
  133.1843  136.0591  160.5431 C   0  0  0  0  0  0  0  0  0  0  0  0
  133.6840  137.0766  161.4121 O   0  0  0  0  0  0  0  0  0  0  0  0
  133.0538  138.2800  161.4092 C   0  0  0  0  0  0  0  0  0  0  0  0
  133.7154  139.3773  161.9516 C   0  0  0  0  0  0  0  0  0  0  0  0
  133.1066  140.6153  161.9706 C   0  0  0  0  0  0  0  0  0  0  0  0
  131.8349  140.7675  161.4494 C   0  0  0  0  0  0  0  0  0  0  0  0
  131.1758  139.6809  160.9089 C   0  0  0  0  0  0  0  0  0  0  0  0
  131.7825  138.4361  160.8857 C   0  0  0  0  0  0  0  0  0  0  0  0
  131.0339  137.2756  160.2801 C   0  0  0  0  0  0  0  0  0  0  0  0
  129.2225  134.0596  158.8951 N   0  0  0  0  0  0  0  0  0  0  0  0
  128.4499  133.4818  158.9962 H   0  0  0  0  0  0  0  0  0  0  0  0
  129.7520  134.3479  157.5600 C   0  0  0  0  0  0  0  0  0  0  0  0
  130.1705  133.0609  156.8969 C   0  0  0  0  0  0  0  0  0  0  0  0
  130.1037  132.9384  155.5216 C   0  0  0  0  0  0  0  0  0  0  0  0
  130.4927  131.7597  154.9132 C   0  0  0  0  0  0  0  0  0  0  0  0
  130.9383  130.7002  155.6801 C   0  0  0  0  0  0  0  0  0  0  0  0
  130.9995  130.8204  157.0563 C   0  0  0  0  0  0  0  0  0  0  0  0
  130.6159  132.0009  157.6645 C   0  0  0  0  0  0  0  0  0  0  0  0
  126.8898  135.5414  162.0111 C   0  0  0  0  0  0  0  0  0  0  0  0
  125.5034  135.1374  162.2083 N   0  0  0  0  0  0  0  0  0  0  0  0
  125.6601  131.8742  161.9408 H   0  0  0  0  0  0  0  0  0  0  0  0
  125.6666  132.6732  160.3512 H   0  0  0  0  0  0  0  0  0  0  0  0
  127.6357  133.0765  162.6424 H   0  0  0  0  0  0  0  0  0  0  0  0
  127.9748  132.4386  161.0128 H   0  0  0  0  0  0  0  0  0  0  0  0
  129.4623  135.2413  161.8498 H   0  0  0  0  0  0  0  0  0  0  0  0
  131.7375  134.3116  159.4010 H   0  0  0  0  0  0  0  0  0  0  0  0
  133.6498  135.1049  160.7892 H   0  0  0  0  0  0  0  0  0  0  0  0
  133.4048  136.3197  159.5079 H   0  0  0  0  0  0  0  0  0  0  0  0
  134.7085  139.2596  162.3593 H   0  0  0  0  0  0  0  0  0  0  0  0
  133.6231  141.4650  162.3921 H   0  0  0  0  0  0  0  0  0  0  0  0
  131.3569  141.7359  161.4653 H   0  0  0  0  0  0  0  0  0  0  0  0
  130.1825  139.8024  160.5027 H   0  0  0  0  0  0  0  0  0  0  0  0
  131.0813  137.3415  159.1930 H   0  0  0  0  0  0  0  0  0  0  0  0
  129.9924  137.3085  160.5997 H   0  0  0  0  0  0  0  0  0  0  0  0
  128.9813  134.8319  156.9601 H   0  0  0  0  0  0  0  0  0  0  0  0
  130.6141  135.0093  157.6460 H   0  0  0  0  0  0  0  0  0  0  0  0
  129.7516  133.7649  154.9223 H   0  0  0  0  0  0  0  0  0  0  0  0
  130.4450  131.6656  153.8382 H   0  0  0  0  0  0  0  0  0  0  0  0
  131.2381  129.7777  155.2052 H   0  0  0  0  0  0  0  0  0  0  0  0
  131.3474  129.9923  157.6559 H   0  0  0  0  0  0  0  0  0  0  0  0
  130.6639  132.0952  158.7393 H   0  0  0  0  0  0  0  0  0  0  0  0
  126.9155  136.5404  161.5756 H   0  0  0  0  0  0  0  0  0  0  0  0
  127.4007  135.5582  162.9738 H   0  0  0  0  0  0  0  0  0  0  0  0
  124.8783  135.8025  162.5366 H   0  0  0  0  0  0  0  0  0  0  0  0
  1  2  2  0
  2 31  1  0
  2  3  1  0
  3  4  1  0
  3 32  1  0
  3 33  1  0
  4  5  1  0
  4 34  1  0
  4 35  1  0
  5  6  1  6
  5  7  1  0
  5 30  1  0
  7 36  1  0
  8  7  1  0
  8  9  1  0
  8 21  2  0
  9 10  1  0
  9 37  1  0
 10 11  1  1
 10 20  1  0
 10 12  1  0
 12 13  1  0
 12 38  1  0
 12 39  1  0
 13 14  1  0
 14 19  2  0
 14 15  1  0
 15 16  2  0
 15 40  1  0
 16 17  1  0
 16 41  1  0
 17 18  2  0
 17 42  1  0
 18 19  1  0
 18 43  1  0
 19 20  1  0
 20 44  1  0
 20 45  1  0
 21 22  1  0
 21 23  1  0
 23 24  1  0
 23 46  1  0
 23 47  1  0
 24 29  1  0
 24 25  2  0
 25 26  1  0
 25 48  1  0
 26 27  2  0
 26 49  1  0
 27 28  1  0
 27 50  1  0
 28 29  2  0
 28 51  1  0
 29 52  1  0
 30 31  1  0
 30 53  1  0
 30 54  1  0
 31 55  1  0
M  CHG  1  21   1
M  END
>  <DOCK_score>  (1) 
-46.81662

>  <SMILES>  (1) 
O=C1CC[C@H](NC(N[C@H]2COc3ccccc3C2)=[NH+]Cc2ccccc2)CN1

$$$$
