CCc1ccc(-c2c[nH]c(N[C@@H](c3ccc(F)cc3)c3ccc(C4CCCC4)cc3)[nH+]2)cc1
     RDKit          3D

 64 68  0  0  1  0  0  0  0  0999 V2000
  130.0005  128.3562  151.3751 C   0  0  0  0  0  0  0  0  0  0  0  0
  131.1452  129.3174  151.7011 C   0  0  0  0  0  0  0  0  0  0  0  0
  130.7870  130.1310  152.9181 C   0  0  0  0  0  0  0  0  0  0  0  0
  131.1231  129.6702  154.1778 C   0  0  0  0  0  0  0  0  0  0  0  0
  130.8027  130.4136  155.2957 C   0  0  0  0  0  0  0  0  0  0  0  0
  130.1290  131.6254  155.1538 C   0  0  0  0  0  0  0  0  0  0  0  0
  129.7769  132.4262  156.3517 C   0  0  0  0  0  0  0  0  0  0  0  0
  128.9921  132.0205  157.3805 C   0  0  0  0  0  0  0  0  0  0  0  0
  128.9294  133.0653  158.2701 N   0  0  0  0  0  0  0  0  0  0  0  0
  128.4411  133.0777  159.1081 H   0  0  0  0  0  0  0  0  0  0  0  0
  129.6786  134.0798  157.7586 C   0  0  0  0  0  0  0  0  0  0  0  0
  129.8749  135.3153  158.3513 N   0  0  0  0  0  0  0  0  0  0  0  0
  129.2484  135.6170  159.6408 C   0  0  1  0  0  0  0  0  0  0  0  0
  128.1653  135.5399  159.5454 H   0  0  0  0  0  0  0  0  0  0  0  0
  129.7329  134.6354  160.6766 C   0  0  0  0  0  0  0  0  0  0  0  0
  128.9148  134.2890  161.7358 C   0  0  0  0  0  0  0  0  0  0  0  0
  129.3561  133.3853  162.6836 C   0  0  0  0  0  0  0  0  0  0  0  0
  130.6222  132.8350  162.5778 C   0  0  0  0  0  0  0  0  0  0  0  0
  131.0565  131.9549  163.5064 F   0  0  0  0  0  0  0  0  0  0  0  0
  131.4427  133.1866  161.5194 C   0  0  0  0  0  0  0  0  0  0  0  0
  130.9971  134.0865  160.5699 C   0  0  0  0  0  0  0  0  0  0  0  0
  129.6169  137.0159  160.0632 C   0  0  0  0  0  0  0  0  0  0  0  0
  129.8637  137.9840  159.1078 C   0  0  0  0  0  0  0  0  0  0  0  0
  130.1980  139.2681  159.4953 C   0  0  0  0  0  0  0  0  0  0  0  0
  130.2934  139.5823  160.8375 C   0  0  0  0  0  0  0  0  0  0  0  0
  130.6629  140.9808  161.2605 C   0  0  0  0  0  0  0  0  0  0  0  0
  131.9225  140.9490  162.1506 C   0  0  0  0  0  0  0  0  0  0  0  0
  131.6664  142.0488  163.2108 C   0  0  0  0  0  0  0  0  0  0  0  0
  130.1506  141.9039  163.4942 C   0  0  0  0  0  0  0  0  0  0  0  0
  129.5362  141.5880  162.1147 C   0  0  0  0  0  0  0  0  0  0  0  0
  130.0517  138.6127  161.7934 C   0  0  0  0  0  0  0  0  0  0  0  0
  129.7137  137.3296  161.4060 C   0  0  0  0  0  0  0  0  0  0  0  0
  130.1881  133.6920  156.6150 N   0  0  0  0  0  0  0  0  0  0  0  0
  130.7651  134.2257  156.0465 H   0  0  0  0  0  0  0  0  0  0  0  0
  129.7878  132.0823  153.8820 C   0  0  0  0  0  0  0  0  0  0  0  0
  130.1183  131.3334  152.7709 C   0  0  0  0  0  0  0  0  0  0  0  0
  129.0925  128.9257  151.1773 H   0  0  0  0  0  0  0  0  0  0  0  0
  130.2596  127.7679  150.4948 H   0  0  0  0  0  0  0  0  0  0  0  0
  129.8343  127.6897  152.2214 H   0  0  0  0  0  0  0  0  0  0  0  0
  132.0531  128.7486  151.8984 H   0  0  0  0  0  0  0  0  0  0  0  0
  131.3113  129.9845  150.8543 H   0  0  0  0  0  0  0  0  0  0  0  0
  131.6408  128.7288  154.2869 H   0  0  0  0  0  0  0  0  0  0  0  0
  131.0697  130.0550  156.2788 H   0  0  0  0  0  0  0  0  0  0  0  0
  128.5085  131.0600  157.4809 H   0  0  0  0  0  0  0  0  0  0  0  0
  130.4274  135.9813  157.9129 H   0  0  0  0  0  0  0  0  0  0  0  0
  127.9288  134.7216  161.8203 H   0  0  0  0  0  0  0  0  0  0  0  0
  128.7153  133.1117  163.5087 H   0  0  0  0  0  0  0  0  0  0  0  0
  132.4306  132.7583  161.4361 H   0  0  0  0  0  0  0  0  0  0  0  0
  131.6368  134.3609  159.7441 H   0  0  0  0  0  0  0  0  0  0  0  0
  129.7924  137.7379  158.0587 H   0  0  0  0  0  0  0  0  0  0  0  0
  130.3875  140.0253  158.7489 H   0  0  0  0  0  0  0  0  0  0  0  0
  130.8411  141.6010  160.3821 H   0  0  0  0  0  0  0  0  0  0  0  0
  132.0272  139.9751  162.6288 H   0  0  0  0  0  0  0  0  0  0  0  0
  132.8103  141.1842  161.5637 H   0  0  0  0  0  0  0  0  0  0  0  0
  131.8911  143.0355  162.8057 H   0  0  0  0  0  0  0  0  0  0  0  0
  132.2480  141.8587  164.1128 H   0  0  0  0  0  0  0  0  0  0  0  0
  129.7453  142.8361  163.8878 H   0  0  0  0  0  0  0  0  0  0  0  0
  129.9691  141.0843  164.1894 H   0  0  0  0  0  0  0  0  0  0  0  0
  129.1682  142.5034  161.6513 H   0  0  0  0  0  0  0  0  0  0  0  0
  128.7226  140.8709  162.2238 H   0  0  0  0  0  0  0  0  0  0  0  0
  130.1270  138.8579  162.8427 H   0  0  0  0  0  0  0  0  0  0  0  0
  129.5249  136.5722  162.1524 H   0  0  0  0  0  0  0  0  0  0  0  0
  129.2655  133.0206  153.7662 H   0  0  0  0  0  0  0  0  0  0  0  0
  129.8548  131.6867  151.7850 H   0  0  0  0  0  0  0  0  0  0  0  0
  1  2  1  0
  1 37  1  0
  1 38  1  0
  1 39  1  0
  2  3  1  0
  2 40  1  0
  2 41  1  0
  3 36  2  0
  3  4  1  0
  4  5  2  0
  4 42  1  0
  5  6  1  0
  5 43  1  0
  6  7  1  0
  6 35  2  0
  7 33  1  0
  7  8  2  0
  8  9  1  0
  8 44  1  0
  9 10  1  0
  9 11  1  0
 11 12  1  0
 11 33  2  0
 12 13  1  0
 12 45  1  0
 13 14  1  6
 13 15  1  0
 13 22  1  0
 15 21  1  0
 15 16  2  0
 16 17  1  0
 16 46  1  0
 17 18  2  0
 17 47  1  0
 18 19  1  0
 18 20  1  0
 20 21  2  0
 20 48  1  0
 21 49  1  0
 22 32  1  0
 22 23  2  0
 23 24  1  0
 23 50  1  0
 24 25  2  0
 24 51  1  0
 25 26  1  0
 25 31  1  0
 26 30  1  0
 26 27  1  0
 26 52  1  0
 27 28  1  0
 27 53  1  0
 27 54  1  0
 28 29  1  0
 28 55  1  0
 28 56  1  0
 29 30  1  0
 29 57  1  0
 29 58  1  0
 30 59  1  0
 30 60  1  0
 31 32  2  0
 31 61  1  0
 32 62  1  0
 33 34  1  0
 35 36  1  0
 35 63  1  0
 36 64  1  0
M  CHG  1  33   1
M  END
>  <DOCK_score>  (1) 
-59.962303

>  <SMILES>  (1) 
CCc1ccc(-c2c[nH]c(N[C@@H](c3ccc(F)cc3)c3ccc(C4CCCC4)cc3)[nH+]2)cc1

$$$$
