C1=CCC(c2ccc(-c3c[nH]c(NC(c4ccccc4)c4ccccc4)[nH+]3)cc2)=CC1
     RDKit          3D

 57 61  0  0  1  0  0  0  0  0999 V2000
  130.0568  128.4890  150.6264 C   0  0  0  0  0  0  0  0  0  0  0  0
  130.8010  127.9784  151.5586 C   0  0  0  0  0  0  0  0  0  0  0  0
  131.3373  128.7789  152.7075 C   0  0  0  0  0  0  0  0  0  0  0  0
  130.5533  130.0425  152.8997 C   0  0  0  0  0  0  0  0  0  0  0  0
  130.6318  130.7337  154.2027 C   0  0  0  0  0  0  0  0  0  0  0  0
  130.4848  132.1210  154.2677 C   0  0  0  0  0  0  0  0  0  0  0  0
  130.5574  132.7643  155.4827 C   0  0  0  0  0  0  0  0  0  0  0  0
  130.7777  132.0307  156.6489 C   0  0  0  0  0  0  0  0  0  0  0  0
  130.8559  132.7243  157.9565 C   0  0  0  0  0  0  0  0  0  0  0  0
  130.5010  132.2048  159.1586 C   0  0  0  0  0  0  0  0  0  0  0  0
  130.7385  133.1774  160.0988 N   0  0  0  0  0  0  0  0  0  0  0  0
  130.5869  133.1023  161.0539 H   0  0  0  0  0  0  0  0  0  0  0  0
  131.2231  134.2670  159.4428 C   0  0  0  0  0  0  0  0  0  0  0  0
  131.5857  135.4666  160.0307 N   0  0  0  0  0  0  0  0  0  0  0  0
  130.9112  135.9180  161.2503 C   0  0  0  0  0  0  0  0  0  0  0  0
  131.4873  137.2418  161.6825 C   0  0  0  0  0  0  0  0  0  0  0  0
  131.5079  137.5823  163.0221 C   0  0  0  0  0  0  0  0  0  0  0  0
  132.0407  138.7945  163.4190 C   0  0  0  0  0  0  0  0  0  0  0  0
  132.5432  139.6708  162.4753 C   0  0  0  0  0  0  0  0  0  0  0  0
  132.5177  139.3325  161.1353 C   0  0  0  0  0  0  0  0  0  0  0  0
  131.9897  138.1181  160.7389 C   0  0  0  0  0  0  0  0  0  0  0  0
  129.4370  136.0760  160.9800 C   0  0  0  0  0  0  0  0  0  0  0  0
  128.5225  135.8740  161.9966 C   0  0  0  0  0  0  0  0  0  0  0  0
  127.1705  136.0237  161.7499 C   0  0  0  0  0  0  0  0  0  0  0  0
  126.7326  136.3651  160.4840 C   0  0  0  0  0  0  0  0  0  0  0  0
  127.6470  136.5620  159.4660 C   0  0  0  0  0  0  0  0  0  0  0  0
  128.9991  136.4175  159.7141 C   0  0  0  0  0  0  0  0  0  0  0  0
  131.2952  133.9914  158.1635 N   0  0  0  0  0  0  0  0  0  0  0  0
  131.6119  134.5966  157.4747 H   0  0  0  0  0  0  0  0  0  0  0  0
  130.9301  130.6453  156.5841 C   0  0  0  0  0  0  0  0  0  0  0  0
  130.8527  130.0000  155.3705 C   0  0  0  0  0  0  0  0  0  0  0  0
  129.7943  130.5566  151.9562 C   0  0  0  0  0  0  0  0  0  0  0  0
  129.6551  129.9328  150.6002 C   0  0  0  0  0  0  0  0  0  0  0  0
  129.7106  127.8438  149.8327 H   0  0  0  0  0  0  0  0  0  0  0  0
  131.0457  126.9280  151.5046 H   0  0  0  0  0  0  0  0  0  0  0  0
  132.3792  129.0315  152.5103 H   0  0  0  0  0  0  0  0  0  0  0  0
  131.2800  128.1807  153.6159 H   0  0  0  0  0  0  0  0  0  0  0  0
  130.3143  132.6890  153.3651 H   0  0  0  0  0  0  0  0  0  0  0  0
  130.4437  133.8373  155.5331 H   0  0  0  0  0  0  0  0  0  0  0  0
  130.1106  131.2145  159.3417 H   0  0  0  0  0  0  0  0  0  0  0  0
  132.2836  136.0103  159.6328 H   0  0  0  0  0  0  0  0  0  0  0  0
  131.0588  135.1822  162.0408 H   0  0  0  0  0  0  0  0  0  0  0  0
  131.1112  136.8995  163.7590 H   0  0  0  0  0  0  0  0  0  0  0  0
  132.0602  139.0589  164.4660 H   0  0  0  0  0  0  0  0  0  0  0  0
  132.9552  140.6199  162.7850 H   0  0  0  0  0  0  0  0  0  0  0  0
  132.9099  140.0174  160.3980 H   0  0  0  0  0  0  0  0  0  0  0  0
  131.9695  137.8540  159.6918 H   0  0  0  0  0  0  0  0  0  0  0  0
  128.8643  135.6029  162.9845 H   0  0  0  0  0  0  0  0  0  0  0  0
  126.4562  135.8695  162.5451 H   0  0  0  0  0  0  0  0  0  0  0  0
  125.6761  136.4777  160.2901 H   0  0  0  0  0  0  0  0  0  0  0  0
  127.3048  136.8284  158.4769 H   0  0  0  0  0  0  0  0  0  0  0  0
  129.7134  136.5710  158.9187 H   0  0  0  0  0  0  0  0  0  0  0  0
  131.1046  130.0786  157.4868 H   0  0  0  0  0  0  0  0  0  0  0  0
  130.9666  128.9271  155.3210 H   0  0  0  0  0  0  0  0  0  0  0  0
  129.2531  131.4681  152.1658 H   0  0  0  0  0  0  0  0  0  0  0  0
  130.2871  130.4667  149.8906 H   0  0  0  0  0  0  0  0  0  0  0  0
  128.6159  130.0087  150.2804 H   0  0  0  0  0  0  0  0  0  0  0  0
  1 33  1  0
  1  2  2  0
  1 34  1  0
  2  3  1  0
  2 35  1  0
  3  4  1  0
  3 36  1  0
  3 37  1  0
  4  5  1  0
  4 32  2  0
  5 31  1  0
  5  6  2  0
  6  7  1  0
  6 38  1  0
  7  8  2  0
  7 39  1  0
  8  9  1  0
  8 30  1  0
  9 28  1  0
  9 10  2  0
 10 11  1  0
 10 40  1  0
 11 12  1  0
 11 13  1  0
 13 14  1  0
 13 28  2  0
 14 15  1  0
 14 41  1  0
 15 16  1  0
 15 22  1  0
 15 42  1  0
 16 21  1  0
 16 17  2  0
 17 18  1  0
 17 43  1  0
 18 19  2  0
 18 44  1  0
 19 20  1  0
 19 45  1  0
 20 21  2  0
 20 46  1  0
 21 47  1  0
 22 27  1  0
 22 23  2  0
 23 24  1  0
 23 48  1  0
 24 25  2  0
 24 49  1  0
 25 26  1  0
 25 50  1  0
 26 27  2  0
 26 51  1  0
 27 52  1  0
 28 29  1  0
 30 31  2  0
 30 53  1  0
 31 54  1  0
 32 33  1  0
 32 55  1  0
 33 56  1  0
 33 57  1  0
M  CHG  1  28   1
M  END
>  <DOCK_score>  (1) 
-59.799946

>  <SMILES>  (1) 
C1=CCC(c2ccc(-c3c[nH]c(NC(c4ccccc4)c4ccccc4)[nH+]3)cc2)=CC1

$$$$
