C=C(C)Nc1ccc(CNC2=[NH+]CCN2CCN)cc1
     RDKit          3D

 44 45  0  0  1  0  0  0  0  0999 V2000
  127.0976  137.8491  163.8972 C   0  0  0  0  0  0  0  0  0  0  0  0
  127.4605  136.8964  163.0586 C   0  0  0  0  0  0  0  0  0  0  0  0
  128.7420  136.1375  163.2888 C   0  0  0  0  0  0  0  0  0  0  0  0
  126.6607  136.5931  161.9634 N   0  0  0  0  0  0  0  0  0  0  0  0
  127.2392  136.1055  160.7889 C   0  0  0  0  0  0  0  0  0  0  0  0
  126.8756  134.8584  160.2986 C   0  0  0  0  0  0  0  0  0  0  0  0
  127.4504  134.3798  159.1376 C   0  0  0  0  0  0  0  0  0  0  0  0
  128.3873  135.1413  158.4633 C   0  0  0  0  0  0  0  0  0  0  0  0
  129.0129  134.6157  157.1970 C   0  0  0  0  0  0  0  0  0  0  0  0
  129.3984  133.2153  157.3877 N   0  0  0  0  0  0  0  0  0  0  0  0
  129.9927  132.5200  156.3612 C   0  0  0  0  0  0  0  0  0  0  0  0
  130.2320  133.0452  155.2041 N   0  0  0  0  0  0  0  0  0  0  0  0
  130.0240  133.9594  154.9549 H   0  0  0  0  0  0  0  0  0  0  0  0
  130.8648  132.0553  154.3215 C   0  0  0  0  0  0  0  0  0  0  0  0
  130.9662  130.7884  155.1940 C   0  0  0  0  0  0  0  0  0  0  0  0
  130.3761  131.2120  156.4748 N   0  0  0  0  0  0  0  0  0  0  0  0
  130.2251  130.3749  157.6676 C   0  0  0  0  0  0  0  0  0  0  0  0
  131.4731  130.5046  158.5431 C   0  0  0  0  0  0  0  0  0  0  0  0
  131.6442  131.9066  158.9472 N   0  0  0  0  0  0  0  0  0  0  0  0
  128.7560  136.3817  158.9514 C   0  0  0  0  0  0  0  0  0  0  0  0
  128.1814  136.8685  160.1090 C   0  0  0  0  0  0  0  0  0  0  0  0
  127.7576  138.1413  164.7007 H   0  0  0  0  0  0  0  0  0  0  0  0
  126.1410  138.3364  163.7798 H   0  0  0  0  0  0  0  0  0  0  0  0
  129.5613  136.6455  162.7803 H   0  0  0  0  0  0  0  0  0  0  0  0
  128.9502  136.0921  164.3578 H   0  0  0  0  0  0  0  0  0  0  0  0
  128.6411  135.1262  162.8951 H   0  0  0  0  0  0  0  0  0  0  0  0
  125.7003  136.7195  162.0144 H   0  0  0  0  0  0  0  0  0  0  0  0
  126.1442  134.2630  160.8249 H   0  0  0  0  0  0  0  0  0  0  0  0
  127.1680  133.4097  158.7560 H   0  0  0  0  0  0  0  0  0  0  0  0
  129.8967  135.2063  156.9561 H   0  0  0  0  0  0  0  0  0  0  0  0
  128.2946  134.6868  156.3802 H   0  0  0  0  0  0  0  0  0  0  0  0
  129.2344  132.7786  158.2381 H   0  0  0  0  0  0  0  0  0  0  0  0
  131.8566  132.3916  154.0192 H   0  0  0  0  0  0  0  0  0  0  0  0
  130.2428  131.8677  153.4462 H   0  0  0  0  0  0  0  0  0  0  0  0
  132.0078  130.4964  155.3286 H   0  0  0  0  0  0  0  0  0  0  0  0
  130.3923  129.9709  154.7577 H   0  0  0  0  0  0  0  0  0  0  0  0
  129.3506  130.6999  158.2311 H   0  0  0  0  0  0  0  0  0  0  0  0
  130.0982  129.3346  157.3677 H   0  0  0  0  0  0  0  0  0  0  0  0
  131.3608  129.8817  159.4304 H   0  0  0  0  0  0  0  0  0  0  0  0
  132.3477  130.1796  157.9794 H   0  0  0  0  0  0  0  0  0  0  0  0
  132.4626  132.0184  159.5267 H   0  0  0  0  0  0  0  0  0  0  0  0
  131.6860  132.5126  158.1416 H   0  0  0  0  0  0  0  0  0  0  0  0
  129.4914  136.9718  158.4248 H   0  0  0  0  0  0  0  0  0  0  0  0
  128.4666  137.8389  160.4874 H   0  0  0  0  0  0  0  0  0  0  0  0
  1  2  2  0
  1 22  1  0
  1 23  1  0
  2  3  1  0
  2  4  1  0
  3 24  1  0
  3 25  1  0
  3 26  1  0
  4  5  1  0
  4 27  1  0
  5 21  2  0
  5  6  1  0
  6  7  2  0
  6 28  1  0
  7  8  1  0
  7 29  1  0
  8  9  1  0
  8 20  2  0
  9 10  1  0
  9 30  1  0
  9 31  1  0
 10 32  1  0
 11 10  1  0
 11 16  1  0
 11 12  2  0
 12 13  1  0
 12 14  1  0
 14 15  1  0
 14 33  1  0
 14 34  1  0
 15 16  1  0
 15 35  1  0
 15 36  1  0
 16 17  1  0
 17 18  1  0
 17 37  1  0
 17 38  1  0
 18 19  1  0
 18 39  1  0
 18 40  1  0
 19 41  1  0
 19 42  1  0
 20 21  1  0
 20 43  1  0
 21 44  1  0
M  CHG  1  12   1
M  END
>  <DOCK_score>  (1) 
-42.764393

>  <SMILES>  (1) 
C=C(C)Nc1ccc(CNC2=[NH+]CCN2CCN)cc1

$$$$
