O=C(N[C@H]1CC[NH2+]C2(CC2)C1)c1ccc(NC2CC(c3ccc(F)cc3F)C2)cc1C(F)F
     RDKit          3D

 61 65  0  0  1  0  0  0  0  0999 V2000
  126.4541  135.8372  160.7986 O   0  0  0  0  0  0  0  0  0  0  0  0
  127.3821  136.3465  161.3969 C   0  0  0  0  0  0  0  0  0  0  0  0
  128.6504  136.0764  161.0292 N   0  0  0  0  0  0  0  0  0  0  0  0
  128.9108  135.1691  159.9088 C   0  0  1  0  0  0  0  0  0  0  0  0
  128.1096  134.4331  159.8418 H   0  0  0  0  0  0  0  0  0  0  0  0
  128.9817  135.9691  158.6054 C   0  0  0  0  0  0  0  0  0  0  0  0
  129.2599  135.0221  157.4372 C   0  0  0  0  0  0  0  0  0  0  0  0
  130.5715  134.3852  157.6170 N   0  0  0  0  0  0  0  0  0  0  0  0
  131.2890  135.0941  157.6448 H   0  0  0  0  0  0  0  0  0  0  0  0
  130.7487  133.7562  156.8483 H   0  0  0  0  0  0  0  0  0  0  0  0
  130.5775  133.6318  158.8786 C   0  0  0  0  0  0  0  0  0  0  0  0
  130.1024  132.1790  158.8403 C   0  0  0  0  0  0  0  0  0  0  0  0
  131.5886  132.4945  159.0231 C   0  0  0  0  0  0  0  0  0  0  0  0
  130.2482  134.4529  160.1290 C   0  0  0  0  0  0  0  0  0  0  0  0
  127.1199  137.2601  162.5251 C   0  0  0  0  0  0  0  0  0  0  0  0
  127.5667  138.5840  162.4729 C   0  0  0  0  0  0  0  0  0  0  0  0
  127.3201  139.4337  163.5265 C   0  0  0  0  0  0  0  0  0  0  0  0
  126.6278  138.9765  164.6442 C   0  0  0  0  0  0  0  0  0  0  0  0
  126.3805  139.8376  165.7076 N   0  0  0  0  0  0  0  0  0  0  0  0
  127.3161  140.9250  166.0024 C   0  0  2  0  0  0  0  0  0  0  0  0
  127.5089  141.1812  167.5064 C   0  0  0  0  0  0  0  0  0  0  0  0
  127.5076  142.6833  167.1688 C   0  0  2  0  0  0  0  0  0  0  0  0
  126.7583  143.5271  168.1674 C   0  0  0  0  0  0  0  0  0  0  0  0
  126.6926  143.1355  169.4915 C   0  0  0  0  0  0  0  0  0  0  0  0
  126.0065  143.9088  170.4085 C   0  0  0  0  0  0  0  0  0  0  0  0
  125.3837  145.0770  170.0018 C   0  0  0  0  0  0  0  0  0  0  0  0
  124.7128  145.8326  170.8985 F   0  0  0  0  0  0  0  0  0  0  0  0
  125.4485  145.4698  168.6764 C   0  0  0  0  0  0  0  0  0  0  0  0
  126.1408  144.6973  167.7596 C   0  0  0  0  0  0  0  0  0  0  0  0
  126.2096  145.0824  166.4665 F   0  0  0  0  0  0  0  0  0  0  0  0
  126.6809  142.3232  165.9230 C   0  0  0  0  0  0  0  0  0  0  0  0
  126.1812  137.6588  164.6993 C   0  0  0  0  0  0  0  0  0  0  0  0
  126.4193  136.8057  163.6459 C   0  0  0  0  0  0  0  0  0  0  0  0
  125.9306  135.3812  163.7036 C   0  0  0  0  0  0  0  0  0  0  0  0
  127.0212  134.5100  163.6111 F   0  0  0  0  0  0  0  0  0  0  0  0
  125.2630  135.1659  164.9140 F   0  0  0  0  0  0  0  0  0  0  0  0
  129.3907  136.4828  161.5064 H   0  0  0  0  0  0  0  0  0  0  0  0
  128.0327  136.4796  158.4408 H   0  0  0  0  0  0  0  0  0  0  0  0
  129.7823  136.7054  158.6744 H   0  0  0  0  0  0  0  0  0  0  0  0
  129.2554  135.5860  156.5043 H   0  0  0  0  0  0  0  0  0  0  0  0
  128.4863  134.2551  157.4008 H   0  0  0  0  0  0  0  0  0  0  0  0
  129.5570  131.8048  159.7067 H   0  0  0  0  0  0  0  0  0  0  0  0
  129.7879  131.7775  157.8771 H   0  0  0  0  0  0  0  0  0  0  0  0
  132.2518  132.3004  158.1802 H   0  0  0  0  0  0  0  0  0  0  0  0
  132.0212  132.3280  160.0097 H   0  0  0  0  0  0  0  0  0  0  0  0
  131.0334  135.1892  160.3002 H   0  0  0  0  0  0  0  0  0  0  0  0
  130.1706  133.7907  160.9914 H   0  0  0  0  0  0  0  0  0  0  0  0
  128.1049  138.9391  161.6065 H   0  0  0  0  0  0  0  0  0  0  0  0
  127.6650  140.4564  163.4868 H   0  0  0  0  0  0  0  0  0  0  0  0
  125.5874  139.7182  166.2542 H   0  0  0  0  0  0  0  0  0  0  0  0
  128.2521  140.8387  165.4505 H   0  0  0  0  0  0  0  0  0  0  0  0
  126.6597  140.8697  168.1146 H   0  0  0  0  0  0  0  0  0  0  0  0
  128.4623  140.8202  167.8921 H   0  0  0  0  0  0  0  0  0  0  0  0
  128.4963  143.0795  166.9371 H   0  0  0  0  0  0  0  0  0  0  0  0
  127.1780  142.2248  169.8096 H   0  0  0  0  0  0  0  0  0  0  0  0
  125.9565  143.6023  171.4430 H   0  0  0  0  0  0  0  0  0  0  0  0
  124.9630  146.3806  168.3583 H   0  0  0  0  0  0  0  0  0  0  0  0
  126.9669  142.8828  165.0324 H   0  0  0  0  0  0  0  0  0  0  0  0
  125.6047  142.3243  166.0963 H   0  0  0  0  0  0  0  0  0  0  0  0
  125.6441  137.3070  165.5677 H   0  0  0  0  0  0  0  0  0  0  0  0
  125.2475  135.1976  162.8742 H   0  0  0  0  0  0  0  0  0  0  0  0
  1  2  2  0
  2  3  1  0
  2 15  1  0
  3  4  1  0
  3 37  1  0
  4  5  1  6
  4 14  1  0
  4  6  1  0
  6  7  1  0
  6 38  1  0
  6 39  1  0
  7  8  1  0
  7 40  1  0
  7 41  1  0
  8  9  1  0
  8 10  1  0
  8 11  1  0
 11 13  1  0
 11 12  1  0
 11 14  1  0
 12 13  1  0
 12 42  1  0
 12 43  1  0
 13 44  1  0
 13 45  1  0
 14 46  1  0
 14 47  1  0
 15 33  1  0
 15 16  2  0
 16 17  1  0
 16 48  1  0
 17 18  2  0
 17 49  1  0
 18 19  1  0
 18 32  1  0
 19 20  1  0
 19 50  1  0
 20 31  1  0
 20 21  1  0
 20 51  1  6
 21 22  1  0
 21 52  1  0
 21 53  1  0
 22 23  1  0
 22 31  1  0
 22 54  1  6
 23 29  1  0
 23 24  2  0
 24 25  1  0
 24 55  1  0
 25 26  2  0
 25 56  1  0
 26 27  1  0
 26 28  1  0
 28 29  2  0
 28 57  1  0
 29 30  1  0
 31 58  1  0
 31 59  1  0
 32 33  2  0
 32 60  1  0
 33 34  1  0
 34 35  1  0
 34 36  1  0
 34 61  1  0
M  CHG  1   8   1
M  END
>  <DOCK_score>  (1) 
-43.709873

>  <SMILES>  (1) 
O=C(N[C@H]1CC[NH2+]C2(CC2)C1)c1ccc(NC2CC(c3ccc(F)cc3F)C2)cc1C(F)F

$$$$
