CC1=CCC=C([C@@H](Nc2[nH]cc(-c3ccc(N)cc3)[nH+]2)c2ccccc2)C1
     RDKit          3D

 52 55  0  0  1  0  0  0  0  0999 V2000
  125.3873  135.0714  162.4983 C   0  0  0  0  0  0  0  0  0  0  0  0
  126.1324  135.0558  161.1886 C   0  0  0  0  0  0  0  0  0  0  0  0
  125.4744  135.3011  160.0966 C   0  0  0  0  0  0  0  0  0  0  0  0
  126.1194  135.3103  158.7434 C   0  0  0  0  0  0  0  0  0  0  0  0
  127.6043  135.4824  158.8537 C   0  0  0  0  0  0  0  0  0  0  0  0
  128.2630  135.2321  159.9440 C   0  0  0  0  0  0  0  0  0  0  0  0
  129.7565  135.4333  159.9464 C   0  0  1  0  0  0  0  0  0  0  0  0
  130.2161  134.7350  160.6459 H   0  0  0  0  0  0  0  0  0  0  0  0
  130.2836  135.1942  158.6006 N   0  0  0  0  0  0  0  0  0  0  0  0
  130.1136  133.9585  158.0000 C   0  0  0  0  0  0  0  0  0  0  0  0
  129.4732  132.8913  158.5502 N   0  0  0  0  0  0  0  0  0  0  0  0
  129.0576  132.8596  159.4259 H   0  0  0  0  0  0  0  0  0  0  0  0
  129.5247  131.8663  157.6353 C   0  0  0  0  0  0  0  0  0  0  0  0
  130.1943  132.3372  156.5545 C   0  0  0  0  0  0  0  0  0  0  0  0
  130.4934  131.5795  155.3146 C   0  0  0  0  0  0  0  0  0  0  0  0
  130.0080  132.0291  154.0875 C   0  0  0  0  0  0  0  0  0  0  0  0
  130.2917  131.3261  152.9357 C   0  0  0  0  0  0  0  0  0  0  0  0
  131.0513  130.1643  152.9987 C   0  0  0  0  0  0  0  0  0  0  0  0
  131.3325  129.4508  151.8309 N   0  0  0  0  0  0  0  0  0  0  0  0
  131.5320  129.7110  154.2218 C   0  0  0  0  0  0  0  0  0  0  0  0
  131.2555  130.4139  155.3755 C   0  0  0  0  0  0  0  0  0  0  0  0
  130.5381  133.6253  156.8054 N   0  0  0  0  0  0  0  0  0  0  0  0
  131.0229  134.2064  156.1985 H   0  0  0  0  0  0  0  0  0  0  0  0
  130.0724  136.8457  160.3661 C   0  0  0  0  0  0  0  0  0  0  0  0
  130.1724  137.8435  159.4147 C   0  0  0  0  0  0  0  0  0  0  0  0
  130.4617  139.1393  159.7997 C   0  0  0  0  0  0  0  0  0  0  0  0
  130.6511  139.4372  161.1363 C   0  0  0  0  0  0  0  0  0  0  0  0
  130.5525  138.4391  162.0877 C   0  0  0  0  0  0  0  0  0  0  0  0
  130.2627  137.1435  161.7025 C   0  0  0  0  0  0  0  0  0  0  0  0
  127.6014  134.7571  161.2027 C   0  0  0  0  0  0  0  0  0  0  0  0
  125.4104  136.0774  162.9176 H   0  0  0  0  0  0  0  0  0  0  0  0
  124.3529  134.7711  162.3315 H   0  0  0  0  0  0  0  0  0  0  0  0
  125.8597  134.3772  163.1934 H   0  0  0  0  0  0  0  0  0  0  0  0
  124.4167  135.5080  160.1662 H   0  0  0  0  0  0  0  0  0  0  0  0
  125.9020  134.3695  158.2377 H   0  0  0  0  0  0  0  0  0  0  0  0
  125.7090  136.1328  158.1575 H   0  0  0  0  0  0  0  0  0  0  0  0
  128.1503  135.8260  157.9875 H   0  0  0  0  0  0  0  0  0  0  0  0
  130.7518  135.9017  158.1302 H   0  0  0  0  0  0  0  0  0  0  0  0
  129.1110  130.8759  157.7547 H   0  0  0  0  0  0  0  0  0  0  0  0
  129.4137  132.9294  154.0386 H   0  0  0  0  0  0  0  0  0  0  0  0
  129.9195  131.6764  151.9842 H   0  0  0  0  0  0  0  0  0  0  0  0
  131.8630  128.6392  151.8746 H   0  0  0  0  0  0  0  0  0  0  0  0
  130.9976  129.7656  150.9775 H   0  0  0  0  0  0  0  0  0  0  0  0
  132.1220  128.8077  154.2686 H   0  0  0  0  0  0  0  0  0  0  0  0
  131.6295  130.0618  156.3255 H   0  0  0  0  0  0  0  0  0  0  0  0
  130.0242  137.6110  158.3705 H   0  0  0  0  0  0  0  0  0  0  0  0
  130.5443  139.9181  159.0560 H   0  0  0  0  0  0  0  0  0  0  0  0
  130.8775  140.4494  161.4371 H   0  0  0  0  0  0  0  0  0  0  0  0
  130.7007  138.6718  163.1317 H   0  0  0  0  0  0  0  0  0  0  0  0
  130.1845  136.3639  162.4459 H   0  0  0  0  0  0  0  0  0  0  0  0
  127.7463  133.6811  161.2984 H   0  0  0  0  0  0  0  0  0  0  0  0
  128.0592  135.2557  162.0571 H   0  0  0  0  0  0  0  0  0  0  0  0
  1  2  1  0
  1 31  1  0
  1 32  1  0
  1 33  1  0
  2 30  1  0
  2  3  2  0
  3  4  1  0
  3 34  1  0
  4  5  1  0
  4 35  1  0
  4 36  1  0
  5  6  2  0
  5 37  1  0
  6  7  1  0
  6 30  1  0
  7  8  1  1
  7  9  1  0
  7 24  1  0
  9 38  1  0
 10  9  1  0
 10 22  2  0
 10 11  1  0
 11 12  1  0
 11 13  1  0
 13 14  2  0
 13 39  1  0
 14 15  1  0
 14 22  1  0
 15 21  1  0
 15 16  2  0
 16 17  1  0
 16 40  1  0
 17 18  2  0
 17 41  1  0
 18 19  1  0
 18 20  1  0
 19 42  1  0
 19 43  1  0
 20 21  2  0
 20 44  1  0
 21 45  1  0
 22 23  1  0
 24 29  1  0
 24 25  2  0
 25 26  1  0
 25 46  1  0
 26 27  2  0
 26 47  1  0
 27 28  1  0
 27 48  1  0
 28 29  2  0
 28 49  1  0
 29 50  1  0
 30 51  1  0
 30 52  1  0
M  CHG  1  22   1
M  END
>  <DOCK_score>  (1) 
-60.030567

>  <SMILES>  (1) 
CC1=CCC=C([C@@H](Nc2[nH]cc(-c3ccc(N)cc3)[nH+]2)c2ccccc2)C1

$$$$
