Cc1ccc(-c2cc(CNc3[nH]cc(-c4ccc(F)cc4)[nH+]3)ccc2Cl)cc1
     RDKit          3D

 48 51  0  0  1  0  0  0  0  0999 V2000
  137.0829  140.4359  160.2593 C   0  0  0  0  0  0  0  0  0  0  0  0
  135.6617  139.9478  160.3730 C   0  0  0  0  0  0  0  0  0  0  0  0
  135.0549  139.8754  161.6138 C   0  0  0  0  0  0  0  0  0  0  0  0
  133.7536  139.4288  161.7235 C   0  0  0  0  0  0  0  0  0  0  0  0
  133.0509  139.0506  160.5812 C   0  0  0  0  0  0  0  0  0  0  0  0
  131.6517  138.5697  160.6928 C   0  0  0  0  0  0  0  0  0  0  0  0
  131.3157  137.2887  160.2592 C   0  0  0  0  0  0  0  0  0  0  0  0
  130.0138  136.8446  160.3701 C   0  0  0  0  0  0  0  0  0  0  0  0
  129.6508  135.4570  159.9076 C   0  0  0  0  0  0  0  0  0  0  0  0
  130.2662  135.2005  158.6031 N   0  0  0  0  0  0  0  0  0  0  0  0
  130.0727  133.9826  157.9739 C   0  0  0  0  0  0  0  0  0  0  0  0
  129.3408  132.9450  158.4635 N   0  0  0  0  0  0  0  0  0  0  0  0
  128.8655  132.9255  159.3088 H   0  0  0  0  0  0  0  0  0  0  0  0
  129.3973  131.9309  157.5378 C   0  0  0  0  0  0  0  0  0  0  0  0
  130.1688  132.3746  156.5149 C   0  0  0  0  0  0  0  0  0  0  0  0
  130.5145  131.6144  155.2888 C   0  0  0  0  0  0  0  0  0  0  0  0
  130.1459  132.1025  154.0365 C   0  0  0  0  0  0  0  0  0  0  0  0
  130.4741  131.3948  152.8985 C   0  0  0  0  0  0  0  0  0  0  0  0
  131.1596  130.1952  152.9998 C   0  0  0  0  0  0  0  0  0  0  0  0
  131.4744  129.5029  151.8832 F   0  0  0  0  0  0  0  0  0  0  0  0
  131.5234  129.7034  154.2430 C   0  0  0  0  0  0  0  0  0  0  0  0
  131.2041  130.4071  155.3861 C   0  0  0  0  0  0  0  0  0  0  0  0
  130.5687  133.6367  156.8110 N   0  0  0  0  0  0  0  0  0  0  0  0
  131.1320  134.1940  156.2516 H   0  0  0  0  0  0  0  0  0  0  0  0
  129.0400  137.6722  160.9000 C   0  0  0  0  0  0  0  0  0  0  0  0
  129.3667  138.9445  161.3323 C   0  0  0  0  0  0  0  0  0  0  0  0
  130.6679  139.3979  161.2315 C   0  0  0  0  0  0  0  0  0  0  0  0
  131.0771  140.9951  161.7749 Cl  0  0  0  0  0  0  0  0  0  0  0  0
  133.6690  139.1202  159.3343 C   0  0  0  0  0  0  0  0  0  0  0  0
  134.9688  139.5737  159.2357 C   0  0  0  0  0  0  0  0  0  0  0  0
  137.7654  139.5911  160.3424 H   0  0  0  0  0  0  0  0  0  0  0  0
  137.2233  140.9242  159.2947 H   0  0  0  0  0  0  0  0  0  0  0  0
  137.2869  141.1484  161.0594 H   0  0  0  0  0  0  0  0  0  0  0  0
  135.6005  140.1685  162.4985 H   0  0  0  0  0  0  0  0  0  0  0  0
  133.2809  139.3723  162.6929 H   0  0  0  0  0  0  0  0  0  0  0  0
  132.0737  136.6430  159.8412 H   0  0  0  0  0  0  0  0  0  0  0  0
  130.0139  134.7265  160.6306 H   0  0  0  0  0  0  0  0  0  0  0  0
  128.5674  135.3747  159.8208 H   0  0  0  0  0  0  0  0  0  0  0  0
  130.8093  135.8840  158.1802 H   0  0  0  0  0  0  0  0  0  0  0  0
  128.9216  130.9642  157.6126 H   0  0  0  0  0  0  0  0  0  0  0  0
  129.6073  133.0353  153.9567 H   0  0  0  0  0  0  0  0  0  0  0  0
  130.1924  131.7742  151.9274 H   0  0  0  0  0  0  0  0  0  0  0  0
  132.0577  128.7677  154.3174 H   0  0  0  0  0  0  0  0  0  0  0  0
  131.4880  130.0229  156.3546 H   0  0  0  0  0  0  0  0  0  0  0  0
  128.0217  137.3217  160.9807 H   0  0  0  0  0  0  0  0  0  0  0  0
  128.6034  139.5846  161.7496 H   0  0  0  0  0  0  0  0  0  0  0  0
  133.1307  138.8236  158.4463 H   0  0  0  0  0  0  0  0  0  0  0  0
  135.4476  139.6319  158.2693 H   0  0  0  0  0  0  0  0  0  0  0  0
  1  2  1  0
  1 31  1  0
  1 32  1  0
  1 33  1  0
  2 30  2  0
  2  3  1  0
  3  4  2  0
  3 34  1  0
  4  5  1  0
  4 35  1  0
  5  6  1  0
  5 29  2  0
  6 27  1  0
  6  7  2  0
  7  8  1  0
  7 36  1  0
  8  9  1  0
  8 25  2  0
  9 10  1  0
  9 37  1  0
  9 38  1  0
 10 39  1  0
 11 10  1  0
 11 23  2  0
 11 12  1  0
 12 13  1  0
 12 14  1  0
 14 15  2  0
 14 40  1  0
 15 16  1  0
 15 23  1  0
 16 22  1  0
 16 17  2  0
 17 18  1  0
 17 41  1  0
 18 19  2  0
 18 42  1  0
 19 20  1  0
 19 21  1  0
 21 22  2  0
 21 43  1  0
 22 44  1  0
 23 24  1  0
 25 26  1  0
 25 45  1  0
 26 27  2  0
 26 46  1  0
 27 28  1  0
 29 30  1  0
 29 47  1  0
 30 48  1  0
M  CHG  1  23   1
M  END
>  <DOCK_score>  (1) 
-60.846897

>  <SMILES>  (1) 
Cc1ccc(-c2cc(CNc3[nH]cc(-c4ccc(F)cc4)[nH+]3)ccc2Cl)cc1

$$$$
