Oc1ccc([C@@H](Cc2cnn3ccccc23)[NH2+]Cc2cnn3ccccc23)cc1
     RDKit          3D

 51 55  0  0  1  0  0  0  0  0999 V2000
  130.9824  130.6430  157.4511 O   0  0  0  0  0  0  0  0  0  0  0  0
  130.9198  131.8547  158.0633 C   0  0  0  0  0  0  0  0  0  0  0  0
  131.6799  132.1002  159.1976 C   0  0  0  0  0  0  0  0  0  0  0  0
  131.6147  133.3330  159.8178 C   0  0  0  0  0  0  0  0  0  0  0  0
  130.7929  134.3216  159.3089 C   0  0  0  0  0  0  0  0  0  0  0  0
  130.7238  135.6654  159.9875 C   0  0  1  0  0  0  0  0  0  0  0  0
  130.0294  136.3096  159.4480 H   0  0  0  0  0  0  0  0  0  0  0  0
  130.2388  135.4853  161.4274 C   0  0  0  0  0  0  0  0  0  0  0  0
  128.7398  135.3305  161.4369 C   0  0  0  0  0  0  0  0  0  0  0  0
  127.8117  136.3543  161.5361 C   0  0  0  0  0  0  0  0  0  0  0  0
  126.6021  135.8397  161.5103 N   0  0  0  0  0  0  0  0  0  0  0  0
  126.7031  134.4480  161.3924 N   0  0  0  0  0  0  0  0  0  0  0  0
  125.7647  133.4587  161.3226 C   0  0  0  0  0  0  0  0  0  0  0  0
  126.1344  132.1673  161.1945 C   0  0  0  0  0  0  0  0  0  0  0  0
  127.4941  131.8182  161.1434 C   0  0  0  0  0  0  0  0  0  0  0  0
  128.4411  132.7925  161.2161 C   0  0  0  0  0  0  0  0  0  0  0  0
  128.0374  134.1355  161.3416 C   0  0  0  0  0  0  0  0  0  0  0  0
  132.0580  136.2800  159.9935 N   0  0  0  0  0  0  0  0  0  0  0  0
  132.5132  136.1047  159.1103 H   0  0  0  0  0  0  0  0  0  0  0  0
  132.6081  135.8822  160.7401 H   0  0  0  0  0  0  0  0  0  0  0  0
  131.9288  137.7289  160.1989 C   0  0  0  0  0  0  0  0  0  0  0  0
  133.2976  138.3593  160.2050 C   0  0  0  0  0  0  0  0  0  0  0  0
  134.3227  138.0991  159.3103 C   0  0  0  0  0  0  0  0  0  0  0  0
  135.3653  138.8347  159.6276 N   0  0  0  0  0  0  0  0  0  0  0  0
  135.0504  139.6073  160.7524 N   0  0  0  0  0  0  0  0  0  0  0  0
  135.7653  140.5212  161.4719 C   0  0  0  0  0  0  0  0  0  0  0  0
  135.2160  141.1394  162.5381 C   0  0  0  0  0  0  0  0  0  0  0  0
  133.8966  140.8519  162.9257 C   0  0  0  0  0  0  0  0  0  0  0  0
  133.1718  139.9429  162.2188 C   0  0  0  0  0  0  0  0  0  0  0  0
  133.7605  139.3076  161.1088 C   0  0  0  0  0  0  0  0  0  0  0  0
  130.0302  134.0775  158.1818 C   0  0  0  0  0  0  0  0  0  0  0  0
  130.0961  132.8484  157.5546 C   0  0  0  0  0  0  0  0  0  0  0  0
  130.4182  130.5677  156.6695 H   0  0  0  0  0  0  0  0  0  0  0  0
  132.3215  131.3281  159.5957 H   0  0  0  0  0  0  0  0  0  0  0  0
  132.2065  133.5247  160.7007 H   0  0  0  0  0  0  0  0  0  0  0  0
  130.6988  134.5954  161.8570 H   0  0  0  0  0  0  0  0  0  0  0  0
  130.5176  136.3589  162.0166 H   0  0  0  0  0  0  0  0  0  0  0  0
  128.0443  137.4055  161.6210 H   0  0  0  0  0  0  0  0  0  0  0  0
  124.7158  133.7133  161.3595 H   0  0  0  0  0  0  0  0  0  0  0  0
  125.3802  131.3966  161.1371 H   0  0  0  0  0  0  0  0  0  0  0  0
  127.7860  130.7829  161.0465 H   0  0  0  0  0  0  0  0  0  0  0  0
  129.4902  132.5387  161.1783 H   0  0  0  0  0  0  0  0  0  0  0  0
  131.4373  137.9182  161.1530 H   0  0  0  0  0  0  0  0  0  0  0  0
  131.3345  138.1584  159.3923 H   0  0  0  0  0  0  0  0  0  0  0  0
  134.2735  137.4043  158.4848 H   0  0  0  0  0  0  0  0  0  0  0  0
  136.7807  140.7515  161.1850 H   0  0  0  0  0  0  0  0  0  0  0  0
  135.7958  141.8568  163.0998 H   0  0  0  0  0  0  0  0  0  0  0  0
  133.4609  141.3485  163.7799 H   0  0  0  0  0  0  0  0  0  0  0  0
  132.1564  139.7121  162.5054 H   0  0  0  0  0  0  0  0  0  0  0  0
  129.3855  134.8498  157.7890 H   0  0  0  0  0  0  0  0  0  0  0  0
  129.5035  132.6598  156.6716 H   0  0  0  0  0  0  0  0  0  0  0  0
  1  2  1  0
  1 33  1  0
  2 32  2  0
  2  3  1  0
  3  4  2  0
  3 34  1  0
  4  5  1  0
  4 35  1  0
  5  6  1  0
  5 31  2  0
  6  7  1  6
  6  8  1  0
  6 18  1  0
  8  9  1  0
  8 36  1  0
  8 37  1  0
  9 17  2  0
  9 10  1  0
 10 11  2  0
 10 38  1  0
 11 12  1  0
 12 17  1  0
 12 13  1  0
 13 14  2  0
 13 39  1  0
 14 15  1  0
 14 40  1  0
 15 16  2  0
 15 41  1  0
 16 17  1  0
 16 42  1  0
 18 19  1  0
 18 20  1  0
 18 21  1  0
 21 22  1  0
 21 43  1  0
 21 44  1  0
 22 30  2  0
 22 23  1  0
 23 24  2  0
 23 45  1  0
 24 25  1  0
 25 30  1  0
 25 26  1  0
 26 27  2  0
 26 46  1  0
 27 28  1  0
 27 47  1  0
 28 29  2  0
 28 48  1  0
 29 30  1  0
 29 49  1  0
 31 32  1  0
 31 50  1  0
 32 51  1  0
M  CHG  1  18   1
M  END
>  <DOCK_score>  (1) 
-44.966858

>  <SMILES>  (1) 
Oc1ccc([C@@H](Cc2cnn3ccccc23)[NH2+]Cc2cnn3ccccc23)cc1

$$$$
