Cc1cccc(N2CC[NH+](C(c3ccccc3)c3ccccc3)CC2)c1COCc1cccnc1
     RDKit          3D

 69 73  0  0  0  0  0  0  0  0999 V2000
  135.8505  141.7180  162.3051 C   0  0  0  0  0  0  0  0  0  0  0  0
  135.2571  140.8688  161.2106 C   0  0  0  0  0  0  0  0  0  0  0  0
  135.6748  141.0364  159.9029 C   0  0  0  0  0  0  0  0  0  0  0  0
  135.1333  140.2591  158.8958 C   0  0  0  0  0  0  0  0  0  0  0  0
  134.1724  139.3125  159.1929 C   0  0  0  0  0  0  0  0  0  0  0  0
  133.7538  139.1384  160.5057 C   0  0  0  0  0  0  0  0  0  0  0  0
  132.7858  138.1787  160.8104 N   0  0  0  0  0  0  0  0  0  0  0  0
  133.2729  136.8251  160.5090 C   0  0  0  0  0  0  0  0  0  0  0  0
  132.2086  135.8019  160.9115 C   0  0  0  0  0  0  0  0  0  0  0  0
  130.9675  136.0699  160.1731 N   0  0  0  0  0  0  0  0  0  0  0  0
  131.1467  136.0112  159.1819 H   0  0  0  0  0  0  0  0  0  0  0  0
  129.9518  135.0764  160.5464 C   0  0  0  0  0  0  0  0  0  0  0  0
  128.6782  135.3512  159.7890 C   0  0  0  0  0  0  0  0  0  0  0  0
  127.4575  135.0183  160.3457 C   0  0  0  0  0  0  0  0  0  0  0  0
  126.2889  135.2749  159.6531 C   0  0  0  0  0  0  0  0  0  0  0  0
  126.3415  135.8546  158.3999 C   0  0  0  0  0  0  0  0  0  0  0  0
  127.5629  136.1824  157.8402 C   0  0  0  0  0  0  0  0  0  0  0  0
  128.7310  135.9307  158.5351 C   0  0  0  0  0  0  0  0  0  0  0  0
  130.4508  133.6957  160.2061 C   0  0  0  0  0  0  0  0  0  0  0  0
  130.0471  132.6097  160.9600 C   0  0  0  0  0  0  0  0  0  0  0  0
  130.5010  131.3427  160.6448 C   0  0  0  0  0  0  0  0  0  0  0  0
  131.3668  131.1629  159.5822 C   0  0  0  0  0  0  0  0  0  0  0  0
  131.7746  132.2497  158.8316 C   0  0  0  0  0  0  0  0  0  0  0  0
  131.3165  133.5162  159.1435 C   0  0  0  0  0  0  0  0  0  0  0  0
  130.4801  137.4156  160.5033 C   0  0  0  0  0  0  0  0  0  0  0  0
  131.5300  138.4523  160.0974 C   0  0  0  0  0  0  0  0  0  0  0  0
  134.2965  139.9246  161.5145 C   0  0  0  0  0  0  0  0  0  0  0  0
  133.8420  139.7426  162.9398 C   0  0  0  0  0  0  0  0  0  0  0  0
  132.7332  140.6056  163.2000 O   0  0  0  0  0  0  0  0  0  0  0  0
  132.2226  140.5107  164.5313 C   0  0  0  0  0  0  0  0  0  0  0  0
  130.8158  141.0496  164.5695 C   0  0  0  0  0  0  0  0  0  0  0  0
  130.1038  141.0700  165.7592 C   0  0  0  0  0  0  0  0  0  0  0  0
  128.8108  141.5700  165.7458 C   0  0  0  0  0  0  0  0  0  0  0  0
  128.2800  142.0331  164.5565 C   0  0  0  0  0  0  0  0  0  0  0  0
  128.9884  142.0030  163.4448 N   0  0  0  0  0  0  0  0  0  0  0  0
  130.2210  141.5343  163.4203 C   0  0  0  0  0  0  0  0  0  0  0  0
  136.7297  141.2207  162.7145 H   0  0  0  0  0  0  0  0  0  0  0  0
  136.1380  142.6871  161.8974 H   0  0  0  0  0  0  0  0  0  0  0  0
  135.1129  141.8604  163.0949 H   0  0  0  0  0  0  0  0  0  0  0  0
  136.4260  141.7760  159.6679 H   0  0  0  0  0  0  0  0  0  0  0  0
  135.4618  140.3925  157.8757 H   0  0  0  0  0  0  0  0  0  0  0  0
  133.7498  138.7056  158.4058 H   0  0  0  0  0  0  0  0  0  0  0  0
  133.4735  136.7403  159.4410 H   0  0  0  0  0  0  0  0  0  0  0  0
  134.1894  136.6357  161.0678 H   0  0  0  0  0  0  0  0  0  0  0  0
  132.0181  135.8778  161.9820 H   0  0  0  0  0  0  0  0  0  0  0  0
  132.5622  134.7982  160.6756 H   0  0  0  0  0  0  0  0  0  0  0  0
  129.7583  135.1391  161.6173 H   0  0  0  0  0  0  0  0  0  0  0  0
  127.4164  134.5614  161.3235 H   0  0  0  0  0  0  0  0  0  0  0  0
  125.3351  135.0182  160.0896 H   0  0  0  0  0  0  0  0  0  0  0  0
  125.4291  136.0508  157.8562 H   0  0  0  0  0  0  0  0  0  0  0  0
  127.6040  136.6349  156.8605 H   0  0  0  0  0  0  0  0  0  0  0  0
  129.6850  136.1867  158.0983 H   0  0  0  0  0  0  0  0  0  0  0  0
  129.3742  132.7505  161.7929 H   0  0  0  0  0  0  0  0  0  0  0  0
  130.1829  130.4935  161.2316 H   0  0  0  0  0  0  0  0  0  0  0  0
  131.7249  130.1735  159.3388 H   0  0  0  0  0  0  0  0  0  0  0  0
  132.4512  132.1094  158.0017 H   0  0  0  0  0  0  0  0  0  0  0  0
  131.6353  134.3652  158.5573 H   0  0  0  0  0  0  0  0  0  0  0  0
  130.2985  137.4833  161.5760 H   0  0  0  0  0  0  0  0  0  0  0  0
  129.5522  137.6083  159.9648 H   0  0  0  0  0  0  0  0  0  0  0  0
  131.1750  139.4500  160.3560 H   0  0  0  0  0  0  0  0  0  0  0  0
  131.7020  138.3944  159.0227 H   0  0  0  0  0  0  0  0  0  0  0  0
  134.6604  139.9884  163.6165 H   0  0  0  0  0  0  0  0  0  0  0  0
  133.5405  138.7067  163.0956 H   0  0  0  0  0  0  0  0  0  0  0  0
  132.8528  141.0923  165.2044 H   0  0  0  0  0  0  0  0  0  0  0  0
  132.2206  139.4673  164.8463 H   0  0  0  0  0  0  0  0  0  0  0  0
  130.5443  140.7009  166.6735 H   0  0  0  0  0  0  0  0  0  0  0  0
  128.2256  141.5970  166.6531 H   0  0  0  0  0  0  0  0  0  0  0  0
  127.2737  142.4245  164.5377 H   0  0  0  0  0  0  0  0  0  0  0  0
  130.7702  141.5254  162.4905 H   0  0  0  0  0  0  0  0  0  0  0  0
  1  2  1  0
  1 37  1  0
  1 38  1  0
  1 39  1  0
  2 27  2  0
  2  3  1  0
  3  4  2  0
  3 40  1  0
  4  5  1  0
  4 41  1  0
  5  6  2  0
  5 42  1  0
  6  7  1  0
  6 27  1  0
  7 26  1  0
  7  8  1  0
  8  9  1  0
  8 43  1  0
  8 44  1  0
  9 10  1  0
  9 45  1  0
  9 46  1  0
 10 11  1  0
 10 12  1  0
 10 25  1  0
 12 13  1  0
 12 19  1  0
 12 47  1  0
 13 18  1  0
 13 14  2  0
 14 15  1  0
 14 48  1  0
 15 16  2  0
 15 49  1  0
 16 17  1  0
 16 50  1  0
 17 18  2  0
 17 51  1  0
 18 52  1  0
 19 24  1  0
 19 20  2  0
 20 21  1  0
 20 53  1  0
 21 22  2  0
 21 54  1  0
 22 23  1  0
 22 55  1  0
 23 24  2  0
 23 56  1  0
 24 57  1  0
 25 26  1  0
 25 58  1  0
 25 59  1  0
 26 60  1  0
 26 61  1  0
 27 28  1  0
 28 29  1  0
 28 62  1  0
 28 63  1  0
 29 30  1  0
 30 31  1  0
 30 64  1  0
 30 65  1  0
 31 36  1  0
 31 32  2  0
 32 33  1  0
 32 66  1  0
 33 34  2  0
 33 67  1  0
 34 35  1  0
 34 68  1  0
 35 36  2  0
 36 69  1  0
M  CHG  1  10   1
M  END
>  <DOCK_score>  (1) 
-58.171192

>  <SMILES>  (1) 
Cc1cccc(N2CC[NH+](C(c3ccccc3)c3ccccc3)CC2)c1COCc1cccnc1

$$$$
