Cn1nccc1C[C@@H](Nc1[nH]cc(-c2cccnc2)[nH+]1)c1ccc(-n2nccc2N)cc1
     RDKit          3D

 56 60  0  0  1  0  0  0  0  0999 V2000
  126.7443  135.6219  161.9069 C   0  0  0  0  0  0  0  0  0  0  0  0
  126.9187  135.8502  160.4704 N   0  0  0  0  0  0  0  0  0  0  0  0
  126.0410  135.4407  159.4583 N   0  0  0  0  0  0  0  0  0  0  0  0
  126.5368  135.8206  158.3087 C   0  0  0  0  0  0  0  0  0  0  0  0
  127.7421  136.4875  158.5517 C   0  0  0  0  0  0  0  0  0  0  0  0
  127.9518  136.4944  159.8885 C   0  0  0  0  0  0  0  0  0  0  0  0
  129.1312  137.1063  160.5997 C   0  0  0  0  0  0  0  0  0  0  0  0
  130.2453  136.0655  160.7280 C   0  0  1  0  0  0  0  0  0  0  0  0
  129.8804  135.2111  161.2982 H   0  0  0  0  0  0  0  0  0  0  0  0
  130.6559  135.6225  159.3934 N   0  0  0  0  0  0  0  0  0  0  0  0
  130.5431  134.2883  159.0417 C   0  0  0  0  0  0  0  0  0  0  0  0
  130.0739  133.2941  159.8438 N   0  0  0  0  0  0  0  0  0  0  0  0
  129.7609  133.3918  160.7568 H   0  0  0  0  0  0  0  0  0  0  0  0
  130.1228  132.1268  159.1211 C   0  0  0  0  0  0  0  0  0  0  0  0
  130.6276  132.4397  157.9020 C   0  0  0  0  0  0  0  0  0  0  0  0
  130.8658  131.4916  156.7863 C   0  0  0  0  0  0  0  0  0  0  0  0
  130.7754  131.9198  155.4586 C   0  0  0  0  0  0  0  0  0  0  0  0
  131.0112  130.9976  154.4539 C   0  0  0  0  0  0  0  0  0  0  0  0
  131.3158  129.6914  154.7925 C   0  0  0  0  0  0  0  0  0  0  0  0
  131.3892  129.3154  156.0545 N   0  0  0  0  0  0  0  0  0  0  0  0
  131.1777  130.1583  157.0445 C   0  0  0  0  0  0  0  0  0  0  0  0
  130.8758  133.7734  157.8833 N   0  0  0  0  0  0  0  0  0  0  0  0
  131.2414  134.2669  157.1324 H   0  0  0  0  0  0  0  0  0  0  0  0
  131.4247  136.6773  161.4392 C   0  0  0  0  0  0  0  0  0  0  0  0
  131.2769  137.1697  162.7230 C   0  0  0  0  0  0  0  0  0  0  0  0
  132.3560  137.7305  163.3775 C   0  0  0  0  0  0  0  0  0  0  0  0
  133.5897  137.8008  162.7452 C   0  0  0  0  0  0  0  0  0  0  0  0
  134.6858  138.3737  163.4045 N   0  0  0  0  0  0  0  0  0  0  0  0
  135.8963  137.7351  163.7035 N   0  0  0  0  0  0  0  0  0  0  0  0
  136.6729  138.5886  164.3207 C   0  0  0  0  0  0  0  0  0  0  0  0
  135.9906  139.8027  164.4401 C   0  0  0  0  0  0  0  0  0  0  0  0
  134.7660  139.6523  163.8636 C   0  0  0  0  0  0  0  0  0  0  0  0
  133.7769  140.6264  163.7649 N   0  0  0  0  0  0  0  0  0  0  0  0
  133.7353  137.3051  161.4561 C   0  0  0  0  0  0  0  0  0  0  0  0
  132.6525  136.7454  160.8067 C   0  0  0  0  0  0  0  0  0  0  0  0
  126.1914  136.4541  162.3426 H   0  0  0  0  0  0  0  0  0  0  0  0
  126.1903  134.6963  162.0631 H   0  0  0  0  0  0  0  0  0  0  0  0
  127.7214  135.5455  162.3839 H   0  0  0  0  0  0  0  0  0  0  0  0
  126.0927  135.6484  157.3395 H   0  0  0  0  0  0  0  0  0  0  0  0
  128.3907  136.9202  157.8045 H   0  0  0  0  0  0  0  0  0  0  0  0
  128.8257  137.4358  161.5927 H   0  0  0  0  0  0  0  0  0  0  0  0
  129.4961  137.9606  160.0295 H   0  0  0  0  0  0  0  0  0  0  0  0
  131.0068  136.2641  158.7560 H   0  0  0  0  0  0  0  0  0  0  0  0
  129.8209  131.1469  159.4603 H   0  0  0  0  0  0  0  0  0  0  0  0
  130.5315  132.9452  155.2229 H   0  0  0  0  0  0  0  0  0  0  0  0
  130.9536  131.2934  153.4169 H   0  0  0  0  0  0  0  0  0  0  0  0
  131.4966  128.9682  154.0110 H   0  0  0  0  0  0  0  0  0  0  0  0
  131.2473  129.8130  158.0655 H   0  0  0  0  0  0  0  0  0  0  0  0
  130.3166  137.1153  163.2142 H   0  0  0  0  0  0  0  0  0  0  0  0
  132.2402  138.1142  164.3804 H   0  0  0  0  0  0  0  0  0  0  0  0
  137.6724  138.3887  164.6774 H   0  0  0  0  0  0  0  0  0  0  0  0
  136.3691  140.7020  164.9034 H   0  0  0  0  0  0  0  0  0  0  0  0
  132.9326  140.4184  163.3352 H   0  0  0  0  0  0  0  0  0  0  0  0
  133.9319  141.5133  164.1257 H   0  0  0  0  0  0  0  0  0  0  0  0
  134.6942  137.3577  160.9616 H   0  0  0  0  0  0  0  0  0  0  0  0
  132.7648  136.3600  159.8040 H   0  0  0  0  0  0  0  0  0  0  0  0
  1  2  1  0
  1 36  1  0
  1 37  1  0
  1 38  1  0
  2  6  1  0
  2  3  1  0
  3  4  2  0
  4  5  1  0
  4 39  1  0
  5  6  2  0
  5 40  1  0
  6  7  1  0
  7  8  1  0
  7 41  1  0
  7 42  1  0
  8  9  1  1
  8 10  1  0
  8 24  1  0
 10 43  1  0
 11 10  1  0
 11 22  2  0
 11 12  1  0
 12 13  1  0
 12 14  1  0
 14 15  2  0
 14 44  1  0
 15 16  1  0
 15 22  1  0
 16 21  1  0
 16 17  2  0
 17 18  1  0
 17 45  1  0
 18 19  2  0
 18 46  1  0
 19 20  1  0
 19 47  1  0
 20 21  2  0
 21 48  1  0
 22 23  1  0
 24 35  1  0
 24 25  2  0
 25 26  1  0
 25 49  1  0
 26 27  2  0
 26 50  1  0
 27 28  1  0
 27 34  1  0
 28 32  1  0
 28 29  1  0
 29 30  2  0
 30 31  1  0
 30 51  1  0
 31 32  2  0
 31 52  1  0
 32 33  1  0
 33 53  1  0
 33 54  1  0
 34 35  2  0
 34 55  1  0
 35 56  1  0
M  CHG  1  22   1
M  END
>  <DOCK_score>  (1) 
-58.614769

>  <SMILES>  (1) 
Cn1nccc1C[C@@H](Nc1[nH]cc(-c2cccnc2)[nH+]1)c1ccc(-n2nccc2N)cc1

$$$$
