O=C(c1ccccc1)[C@H](Nc1c[nH]c(Nc2ccc(-c3cccc(O)c3)cc2)[nH+]1)c1ccccc1
     RDKit          3D

 60 64  0  0  1  0  0  0  0  0999 V2000
  131.6609  141.0391  161.1781 O   0  0  0  0  0  0  0  0  0  0  0  0
  132.1420  139.9301  161.0842 C   0  0  0  0  0  0  0  0  0  0  0  0
  133.4476  139.7475  160.4301 C   0  0  0  0  0  0  0  0  0  0  0  0
  133.5597  138.9303  159.3005 C   0  0  0  0  0  0  0  0  0  0  0  0
  134.7854  138.7684  158.6902 C   0  0  0  0  0  0  0  0  0  0  0  0
  135.9051  139.4032  159.1990 C   0  0  0  0  0  0  0  0  0  0  0  0
  135.8033  140.2091  160.3196 C   0  0  0  0  0  0  0  0  0  0  0  0
  134.5838  140.3854  160.9382 C   0  0  0  0  0  0  0  0  0  0  0  0
  131.4030  138.7388  161.6372 C   0  0  2  0  0  0  0  0  0  0  0  0
  131.1979  138.0329  160.8326 H   0  0  0  0  0  0  0  0  0  0  0  0
  130.1397  139.1812  162.2326 N   0  0  0  0  0  0  0  0  0  0  0  0
  129.0289  138.3223  162.2416 C   0  0  0  0  0  0  0  0  0  0  0  0
  127.8137  138.6059  162.7558 C   0  0  0  0  0  0  0  0  0  0  0  0
  127.0225  137.4912  162.5488 N   0  0  0  0  0  0  0  0  0  0  0  0
  126.0927  137.3879  162.8047 H   0  0  0  0  0  0  0  0  0  0  0  0
  127.7962  136.5658  161.9214 C   0  0  0  0  0  0  0  0  0  0  0  0
  127.3884  135.2996  161.5334 N   0  0  0  0  0  0  0  0  0  0  0  0
  127.9664  134.6913  160.4173 C   0  0  0  0  0  0  0  0  0  0  0  0
  128.0734  133.3064  160.3588 C   0  0  0  0  0  0  0  0  0  0  0  0
  128.6436  132.7039  159.2580 C   0  0  0  0  0  0  0  0  0  0  0  0
  129.1132  133.4844  158.2025 C   0  0  0  0  0  0  0  0  0  0  0  0
  129.7276  132.8383  157.0169 C   0  0  0  0  0  0  0  0  0  0  0  0
  130.4066  131.6284  157.1536 C   0  0  0  0  0  0  0  0  0  0  0  0
  130.9730  131.0267  156.0482 C   0  0  0  0  0  0  0  0  0  0  0  0
  130.8736  131.6230  154.8047 C   0  0  0  0  0  0  0  0  0  0  0  0
  130.2038  132.8300  154.6610 C   0  0  0  0  0  0  0  0  0  0  0  0
  130.1086  133.4127  153.4368 O   0  0  0  0  0  0  0  0  0  0  0  0
  129.6319  133.4409  155.7652 C   0  0  0  0  0  0  0  0  0  0  0  0
  129.0097  134.8732  158.2653 C   0  0  0  0  0  0  0  0  0  0  0  0
  128.4343  135.4715  159.3660 C   0  0  0  0  0  0  0  0  0  0  0  0
  128.9926  137.0747  161.7397 N   0  0  0  0  0  0  0  0  0  0  0  0
  129.7349  136.6217  161.3098 H   0  0  0  0  0  0  0  0  0  0  0  0
  132.2473  138.0686  162.6904 C   0  0  0  0  0  0  0  0  0  0  0  0
  133.1246  137.0613  162.3352 C   0  0  0  0  0  0  0  0  0  0  0  0
  133.9019  136.4493  163.3007 C   0  0  0  0  0  0  0  0  0  0  0  0
  133.7957  136.8390  164.6228 C   0  0  0  0  0  0  0  0  0  0  0  0
  132.9146  137.8428  164.9788 C   0  0  0  0  0  0  0  0  0  0  0  0
  132.1402  138.4575  164.0127 C   0  0  0  0  0  0  0  0  0  0  0  0
  132.6877  138.4308  158.9050 H   0  0  0  0  0  0  0  0  0  0  0  0
  134.8729  138.1408  157.8156 H   0  0  0  0  0  0  0  0  0  0  0  0
  136.8634  139.2686  158.7193 H   0  0  0  0  0  0  0  0  0  0  0  0
  136.6817  140.7012  160.7107 H   0  0  0  0  0  0  0  0  0  0  0  0
  134.5061  141.0140  161.8129 H   0  0  0  0  0  0  0  0  0  0  0  0
  130.0705  140.0674  162.6208 H   0  0  0  0  0  0  0  0  0  0  0  0
  127.5154  139.5277  163.2330 H   0  0  0  0  0  0  0  0  0  0  0  0
  126.7013  134.8358  162.0373 H   0  0  0  0  0  0  0  0  0  0  0  0
  127.7092  132.7021  161.1766 H   0  0  0  0  0  0  0  0  0  0  0  0
  128.7263  131.6281  159.2130 H   0  0  0  0  0  0  0  0  0  0  0  0
  130.4856  131.1599  158.1235 H   0  0  0  0  0  0  0  0  0  0  0  0
  131.4948  130.0871  156.1546 H   0  0  0  0  0  0  0  0  0  0  0  0
  131.3187  131.1483  153.9428 H   0  0  0  0  0  0  0  0  0  0  0  0
  129.6245  134.2497  153.4363 H   0  0  0  0  0  0  0  0  0  0  0  0
  129.1102  134.3801  155.6547 H   0  0  0  0  0  0  0  0  0  0  0  0
  129.3768  135.4799  157.4506 H   0  0  0  0  0  0  0  0  0  0  0  0
  128.3506  136.5472  159.4133 H   0  0  0  0  0  0  0  0  0  0  0  0
  133.2051  136.7543  161.3029 H   0  0  0  0  0  0  0  0  0  0  0  0
  134.5901  135.6646  163.0226 H   0  0  0  0  0  0  0  0  0  0  0  0
  134.4010  136.3591  165.3775 H   0  0  0  0  0  0  0  0  0  0  0  0
  132.8314  138.1471  166.0117 H   0  0  0  0  0  0  0  0  0  0  0  0
  131.4518  139.2417  164.2908 H   0  0  0  0  0  0  0  0  0  0  0  0
  1  2  2  0
  2  3  1  0
  2  9  1  0
  3  8  1  0
  3  4  2  0
  4  5  1  0
  4 39  1  0
  5  6  2  0
  5 40  1  0
  6  7  1  0
  6 41  1  0
  7  8  2  0
  7 42  1  0
  8 43  1  0
  9 10  1  6
  9 11  1  0
  9 33  1  0
 11 12  1  0
 11 44  1  0
 12 31  1  0
 12 13  2  0
 13 14  1  0
 13 45  1  0
 14 15  1  0
 14 16  1  0
 16 17  1  0
 16 31  2  0
 17 18  1  0
 17 46  1  0
 18 30  1  0
 18 19  2  0
 19 20  1  0
 19 47  1  0
 20 21  2  0
 20 48  1  0
 21 22  1  0
 21 29  1  0
 22 28  1  0
 22 23  2  0
 23 24  1  0
 23 49  1  0
 24 25  2  0
 24 50  1  0
 25 26  1  0
 25 51  1  0
 26 27  1  0
 26 28  2  0
 27 52  1  0
 28 53  1  0
 29 30  2  0
 29 54  1  0
 30 55  1  0
 31 32  1  0
 33 38  1  0
 33 34  2  0
 34 35  1  0
 34 56  1  0
 35 36  2  0
 35 57  1  0
 36 37  1  0
 36 58  1  0
 37 38  2  0
 37 59  1  0
 38 60  1  0
M  CHG  1  31   1
M  END
>  <DOCK_score>  (1) 
-46.455803

>  <SMILES>  (1) 
O=C(c1ccccc1)[C@H](Nc1c[nH]c(Nc2ccc(-c3cccc(O)c3)cc2)[nH+]1)c1ccccc1

$$$$
