COc1cccc(N2CC[NH+](C(c3ccccc3)c3ccccc3)CC2)c1COCC1CCCCC1
     RDKit          3D

 77 81  0  0  0  0  0  0  0  0999 V2000
  136.4987  141.6189  163.1684 C   0  0  0  0  0  0  0  0  0  0  0  0
  135.5488  140.5544  163.2496 O   0  0  0  0  0  0  0  0  0  0  0  0
  135.0727  140.0614  162.0760 C   0  0  0  0  0  0  0  0  0  0  0  0
  135.5112  140.5926  160.8709 C   0  0  0  0  0  0  0  0  0  0  0  0
  135.0279  140.0928  159.6769 C   0  0  0  0  0  0  0  0  0  0  0  0
  134.1068  139.0630  159.6783 C   0  0  0  0  0  0  0  0  0  0  0  0
  133.6643  138.5275  160.8814 C   0  0  0  0  0  0  0  0  0  0  0  0
  132.7336  137.4861  160.8831 N   0  0  0  0  0  0  0  0  0  0  0  0
  133.2886  136.2825  160.2483 C   0  0  0  0  0  0  0  0  0  0  0  0
  132.2622  135.1500  160.3236 C   0  0  0  0  0  0  0  0  0  0  0  0
  131.0288  135.5605  159.6396 N   0  0  0  0  0  0  0  0  0  0  0  0
  131.2351  135.7770  158.6759 H   0  0  0  0  0  0  0  0  0  0  0  0
  130.0502  134.4666  159.6966 C   0  0  0  0  0  0  0  0  0  0  0  0
  128.7847  134.8876  158.9949 C   0  0  0  0  0  0  0  0  0  0  0  0
  127.5668  134.3726  159.3979 C   0  0  0  0  0  0  0  0  0  0  0  0
  126.4055  134.7626  158.7574 C   0  0  0  0  0  0  0  0  0  0  0  0
  126.4632  135.6594  157.7070 C   0  0  0  0  0  0  0  0  0  0  0  0
  127.6817  136.1704  157.3006 C   0  0  0  0  0  0  0  0  0  0  0  0
  128.8425  135.7844  157.9445 C   0  0  0  0  0  0  0  0  0  0  0  0
  130.6194  133.2477  159.0175 C   0  0  0  0  0  0  0  0  0  0  0  0
  130.4098  133.0483  157.6658 C   0  0  0  0  0  0  0  0  0  0  0  0
  130.9360  131.9326  157.0418 C   0  0  0  0  0  0  0  0  0  0  0  0
  131.6631  131.0109  157.7718 C   0  0  0  0  0  0  0  0  0  0  0  0
  131.8683  131.2077  159.1246 C   0  0  0  0  0  0  0  0  0  0  0  0
  131.3465  132.3259  159.7474 C   0  0  0  0  0  0  0  0  0  0  0  0
  130.4731  136.7492  160.3000 C   0  0  0  0  0  0  0  0  0  0  0  0
  131.4848  137.8948  160.2245 C   0  0  0  0  0  0  0  0  0  0  0  0
  134.1489  139.0285  162.0820 C   0  0  0  0  0  0  0  0  0  0  0  0
  133.6717  138.4499  163.3891 C   0  0  0  0  0  0  0  0  0  0  0  0
  132.2518  138.2932  163.3506 O   0  0  0  0  0  0  0  0  0  0  0  0
  131.5270  139.4997  163.5971 C   0  0  0  0  0  0  0  0  0  0  0  0
  130.0980  139.1582  164.0241 C   0  0  0  0  0  0  0  0  0  0  0  0
  129.2606  138.8298  162.7863 C   0  0  0  0  0  0  0  0  0  0  0  0
  127.8317  138.4883  163.2132 C   0  0  0  0  0  0  0  0  0  0  0  0
  127.2173  139.6852  163.9417 C   0  0  0  0  0  0  0  0  0  0  0  0
  128.0545  140.0136  165.1795 C   0  0  0  0  0  0  0  0  0  0  0  0
  129.4836  140.3551  164.7526 C   0  0  0  0  0  0  0  0  0  0  0  0
  136.7960  141.9180  164.1734 H   0  0  0  0  0  0  0  0  0  0  0  0
  137.3753  141.2822  162.6150 H   0  0  0  0  0  0  0  0  0  0  0  0
  136.0489  142.4686  162.6547 H   0  0  0  0  0  0  0  0  0  0  0  0
  136.2314  141.3973  160.8664 H   0  0  0  0  0  0  0  0  0  0  0  0
  135.3741  140.5049  158.7405 H   0  0  0  0  0  0  0  0  0  0  0  0
  133.7308  138.6740  158.7435 H   0  0  0  0  0  0  0  0  0  0  0  0
  133.5195  136.4952  159.2044 H   0  0  0  0  0  0  0  0  0  0  0  0
  134.1986  135.9836  160.7686 H   0  0  0  0  0  0  0  0  0  0  0  0
  132.0419  134.9282  161.3678 H   0  0  0  0  0  0  0  0  0  0  0  0
  132.6665  134.2604  159.8407 H   0  0  0  0  0  0  0  0  0  0  0  0
  129.8277  134.2319  160.7375 H   0  0  0  0  0  0  0  0  0  0  0  0
  127.5222  133.6685  160.2157 H   0  0  0  0  0  0  0  0  0  0  0  0
  125.4536  134.3630  159.0746 H   0  0  0  0  0  0  0  0  0  0  0  0
  125.5564  135.9606  157.2036 H   0  0  0  0  0  0  0  0  0  0  0  0
  127.7268  136.8708  156.4799 H   0  0  0  0  0  0  0  0  0  0  0  0
  129.7945  136.1833  157.6268 H   0  0  0  0  0  0  0  0  0  0  0  0
  129.8379  133.7661  157.0964 H   0  0  0  0  0  0  0  0  0  0  0  0
  130.7754  131.7788  155.9850 H   0  0  0  0  0  0  0  0  0  0  0  0
  132.0705  130.1371  157.2852 H   0  0  0  0  0  0  0  0  0  0  0  0
  132.4361  130.4875  159.6950 H   0  0  0  0  0  0  0  0  0  0  0  0
  131.5066  132.4794  160.8044 H   0  0  0  0  0  0  0  0  0  0  0  0
  130.2620  136.5191  161.3443 H   0  0  0  0  0  0  0  0  0  0  0  0
  129.5511  137.0450  159.7997 H   0  0  0  0  0  0  0  0  0  0  0  0
  131.0786  138.7724  160.7274 H   0  0  0  0  0  0  0  0  0  0  0  0
  131.6858  138.1342  159.1802 H   0  0  0  0  0  0  0  0  0  0  0  0
  134.1401  137.4787  163.5489 H   0  0  0  0  0  0  0  0  0  0  0  0
  133.9411  139.1217  164.2038 H   0  0  0  0  0  0  0  0  0  0  0  0
  132.0184  140.0631  164.3904 H   0  0  0  0  0  0  0  0  0  0  0  0
  131.5008  140.1002  162.6877 H   0  0  0  0  0  0  0  0  0  0  0  0
  130.1143  138.2963  164.6909 H   0  0  0  0  0  0  0  0  0  0  0  0
  129.2445  139.6919  162.1194 H   0  0  0  0  0  0  0  0  0  0  0  0
  129.6986  137.9772  162.2673 H   0  0  0  0  0  0  0  0  0  0  0  0
  127.8480  137.6263  163.8801 H   0  0  0  0  0  0  0  0  0  0  0  0
  127.2352  138.2544  162.3314 H   0  0  0  0  0  0  0  0  0  0  0  0
  126.1993  139.4417  164.2459 H   0  0  0  0  0  0  0  0  0  0  0  0
  127.2010  140.5472  163.2749 H   0  0  0  0  0  0  0  0  0  0  0  0
  128.0709  139.1515  165.8463 H   0  0  0  0  0  0  0  0  0  0  0  0
  127.6168  140.8663  165.6986 H   0  0  0  0  0  0  0  0  0  0  0  0
  130.0801  140.5891  165.6344 H   0  0  0  0  0  0  0  0  0  0  0  0
  129.4673  141.2171  164.0857 H   0  0  0  0  0  0  0  0  0  0  0  0
  1  2  1  0
  1 38  1  0
  1 39  1  0
  1 40  1  0
  2  3  1  0
  3 28  2  0
  3  4  1  0
  4  5  2  0
  4 41  1  0
  5  6  1  0
  5 42  1  0
  6  7  2  0
  6 43  1  0
  7  8  1  0
  7 28  1  0
  8 27  1  0
  8  9  1  0
  9 10  1  0
  9 44  1  0
  9 45  1  0
 10 11  1  0
 10 46  1  0
 10 47  1  0
 11 12  1  0
 11 13  1  0
 11 26  1  0
 13 14  1  0
 13 20  1  0
 13 48  1  0
 14 19  1  0
 14 15  2  0
 15 16  1  0
 15 49  1  0
 16 17  2  0
 16 50  1  0
 17 18  1  0
 17 51  1  0
 18 19  2  0
 18 52  1  0
 19 53  1  0
 20 25  1  0
 20 21  2  0
 21 22  1  0
 21 54  1  0
 22 23  2  0
 22 55  1  0
 23 24  1  0
 23 56  1  0
 24 25  2  0
 24 57  1  0
 25 58  1  0
 26 27  1  0
 26 59  1  0
 26 60  1  0
 27 61  1  0
 27 62  1  0
 28 29  1  0
 29 30  1  0
 29 63  1  0
 29 64  1  0
 30 31  1  0
 31 32  1  0
 31 65  1  0
 31 66  1  0
 32 37  1  0
 32 33  1  0
 32 67  1  0
 33 34  1  0
 33 68  1  0
 33 69  1  0
 34 35  1  0
 34 70  1  0
 34 71  1  0
 35 36  1  0
 35 72  1  0
 35 73  1  0
 36 37  1  0
 36 74  1  0
 36 75  1  0
 37 76  1  0
 37 77  1  0
M  CHG  1  11   1
M  END
>  <DOCK_score>  (1) 
-59.055119

>  <SMILES>  (1) 
COc1cccc(N2CC[NH+](C(c3ccccc3)c3ccccc3)CC2)c1COCC1CCCCC1

$$$$
