OC1C=CC(=C[C@@H]([NH2+]Cc2ccccc2)c2ccccc2)C1
     RDKit          3D

 44 46  0  0  1  0  0  0  0  0999 V2000
  123.3772  134.9822  161.7360 O   0  0  0  0  0  0  0  0  0  0  0  0
  124.2660  134.1491  160.9890 C   0  0  2  0  0  0  0  0  0  0  0  0
  125.4688  133.7898  161.8241 C   0  0  0  0  0  0  0  0  0  0  0  0
  126.5764  134.2332  161.2612 C   0  0  0  0  0  0  0  0  0  0  0  0
  126.3142  134.9381  160.0009 C   0  0  0  0  0  0  0  0  0  0  0  0
  127.2224  135.4947  159.2068 C   0  0  0  0  0  0  0  0  0  0  0  0
  128.6829  135.4340  159.5737 C   0  0  1  0  0  0  0  0  0  0  0  0
  128.7989  134.8982  160.5158 H   0  0  0  0  0  0  0  0  0  0  0  0
  129.4245  134.7328  158.5172 N   0  0  0  0  0  0  0  0  0  0  0  0
  130.4037  134.9678  158.5808 H   0  0  0  0  0  0  0  0  0  0  0  0
  129.0695  135.0121  157.6149 H   0  0  0  0  0  0  0  0  0  0  0  0
  129.2573  133.2826  158.6814 C   0  0  0  0  0  0  0  0  0  0  0  0
  130.0181  132.5632  157.5975 C   0  0  0  0  0  0  0  0  0  0  0  0
  130.5463  131.3090  157.8398 C   0  0  0  0  0  0  0  0  0  0  0  0
  131.2400  130.6471  156.8441 C   0  0  0  0  0  0  0  0  0  0  0  0
  131.4145  131.2439  155.6094 C   0  0  0  0  0  0  0  0  0  0  0  0
  130.8907  132.5003  155.3688 C   0  0  0  0  0  0  0  0  0  0  0  0
  130.1925  133.1601  156.3630 C   0  0  0  0  0  0  0  0  0  0  0  0
  129.2222  136.8333  159.7219 C   0  0  0  0  0  0  0  0  0  0  0  0
  129.7670  137.4834  158.6303 C   0  0  0  0  0  0  0  0  0  0  0  0
  130.2577  138.7686  158.7652 C   0  0  0  0  0  0  0  0  0  0  0  0
  130.2121  139.4004  159.9938 C   0  0  0  0  0  0  0  0  0  0  0  0
  129.6721  138.7485  161.0867 C   0  0  0  0  0  0  0  0  0  0  0  0
  129.1776  137.4648  160.9508 C   0  0  0  0  0  0  0  0  0  0  0  0
  124.8171  134.9193  159.7760 C   0  0  0  0  0  0  0  0  0  0  0  0
  123.7782  135.8050  162.0480 H   0  0  0  0  0  0  0  0  0  0  0  0
  123.7502  133.2457  160.6634 H   0  0  0  0  0  0  0  0  0  0  0  0
  125.4290  133.2445  162.7554 H   0  0  0  0  0  0  0  0  0  0  0  0
  127.5623  134.0935  161.6795 H   0  0  0  0  0  0  0  0  0  0  0  0
  126.9142  135.9909  158.2983 H   0  0  0  0  0  0  0  0  0  0  0  0
  129.6407  132.9808  159.6561 H   0  0  0  0  0  0  0  0  0  0  0  0
  128.1994  133.0287  158.6126 H   0  0  0  0  0  0  0  0  0  0  0  0
  130.4138  130.8446  158.8058 H   0  0  0  0  0  0  0  0  0  0  0  0
  131.6495  129.6655  157.0322 H   0  0  0  0  0  0  0  0  0  0  0  0
  131.9603  130.7286  154.8329 H   0  0  0  0  0  0  0  0  0  0  0  0
  131.0274  132.9667  154.4044 H   0  0  0  0  0  0  0  0  0  0  0  0
  129.7837  134.1419  156.1751 H   0  0  0  0  0  0  0  0  0  0  0  0
  129.8060  136.9884  157.6712 H   0  0  0  0  0  0  0  0  0  0  0  0
  130.6792  139.2782  157.9114 H   0  0  0  0  0  0  0  0  0  0  0  0
  130.5980  140.4035  160.1000 H   0  0  0  0  0  0  0  0  0  0  0  0
  129.6365  139.2420  162.0467 H   0  0  0  0  0  0  0  0  0  0  0  0
  128.7556  136.9553  161.8047 H   0  0  0  0  0  0  0  0  0  0  0  0
  124.4216  135.9348  159.7542 H   0  0  0  0  0  0  0  0  0  0  0  0
  124.5763  134.3947  158.8515 H   0  0  0  0  0  0  0  0  0  0  0  0
  1  2  1  0
  1 26  1  0
  2 25  1  0
  2  3  1  0
  2 27  1  6
  3  4  2  0
  3 28  1  0
  4  5  1  0
  4 29  1  0
  5  6  2  0
  5 25  1  0
  6  7  1  0
  6 30  1  0
  7  8  1  1
  7  9  1  0
  7 19  1  0
  9 10  1  0
  9 11  1  0
  9 12  1  0
 12 13  1  0
 12 31  1  0
 12 32  1  0
 13 18  1  0
 13 14  2  0
 14 15  1  0
 14 33  1  0
 15 16  2  0
 15 34  1  0
 16 17  1  0
 16 35  1  0
 17 18  2  0
 17 36  1  0
 18 37  1  0
 19 24  1  0
 19 20  2  0
 20 21  1  0
 20 38  1  0
 21 22  2  0
 21 39  1  0
 22 23  1  0
 22 40  1  0
 23 24  2  0
 23 41  1  0
 24 42  1  0
 25 43  1  0
 25 44  1  0
M  CHG  1   9   1
M  END
>  <DOCK_score>  (1) 
-45.510681

>  <SMILES>  (1) 
OC1C=CC(=C[C@@H]([NH2+]Cc2ccccc2)c2ccccc2)C1

$$$$
