Cc1ccc([C@H](Cc2ccc(-c3ccccc3F)cc2)Nc2[nH]cc(-c3ccc(N)cc3)[nH+]2)cc1
     RDKit          3D

 63 67  0  0  1  0  0  0  0  0999 V2000
  124.1827  134.2809  161.5049 C   0  0  0  0  0  0  0  0  0  0  0  0
  125.6262  134.6826  161.3427 C   0  0  0  0  0  0  0  0  0  0  0  0
  126.4889  134.6106  162.4204 C   0  0  0  0  0  0  0  0  0  0  0  0
  127.8128  134.9791  162.2715 C   0  0  0  0  0  0  0  0  0  0  0  0
  128.2741  135.4195  161.0451 C   0  0  0  0  0  0  0  0  0  0  0  0
  129.7174  135.8215  160.8829 C   0  0  2  0  0  0  0  0  0  0  0  0
  130.3348  135.2452  161.5721 H   0  0  0  0  0  0  0  0  0  0  0  0
  129.8686  137.3132  161.1880 C   0  0  0  0  0  0  0  0  0  0  0  0
  131.3120  137.7153  161.0259 C   0  0  0  0  0  0  0  0  0  0  0  0
  132.3153  136.7948  161.2697 C   0  0  0  0  0  0  0  0  0  0  0  0
  133.6386  137.1562  161.1181 C   0  0  0  0  0  0  0  0  0  0  0  0
  133.9634  138.4543  160.7290 C   0  0  0  0  0  0  0  0  0  0  0  0
  135.3843  138.8504  160.5703 C   0  0  0  0  0  0  0  0  0  0  0  0
  135.8530  139.2947  159.3356 C   0  0  0  0  0  0  0  0  0  0  0  0
  137.1745  139.6664  159.1946 C   0  0  0  0  0  0  0  0  0  0  0  0
  138.0376  139.5889  160.2732 C   0  0  0  0  0  0  0  0  0  0  0  0
  137.5815  139.1446  161.5004 C   0  0  0  0  0  0  0  0  0  0  0  0
  136.2581  138.7742  161.6555 C   0  0  0  0  0  0  0  0  0  0  0  0
  135.8127  138.3392  162.8545 F   0  0  0  0  0  0  0  0  0  0  0  0
  132.9488  139.3791  160.4900 C   0  0  0  0  0  0  0  0  0  0  0  0
  131.6286  139.0051  160.6395 C   0  0  0  0  0  0  0  0  0  0  0  0
  130.1460  135.5587  159.5069 N   0  0  0  0  0  0  0  0  0  0  0  0
  130.0988  134.2708  159.0013 C   0  0  0  0  0  0  0  0  0  0  0  0
  129.6772  133.1684  159.6785 N   0  0  0  0  0  0  0  0  0  0  0  0
  129.3577  133.1437  160.5940 H   0  0  0  0  0  0  0  0  0  0  0  0
  129.7873  132.0961  158.8251 C   0  0  0  0  0  0  0  0  0  0  0  0
  130.2727  132.5748  157.6530 C   0  0  0  0  0  0  0  0  0  0  0  0
  130.5558  131.7771  156.4346 C   0  0  0  0  0  0  0  0  0  0  0  0
  129.8927  132.0642  155.2425 C   0  0  0  0  0  0  0  0  0  0  0  0
  130.1618  131.3252  154.1099 C   0  0  0  0  0  0  0  0  0  0  0  0
  131.0845  130.2871  154.1591 C   0  0  0  0  0  0  0  0  0  0  0  0
  131.3507  129.5358  153.0118 N   0  0  0  0  0  0  0  0  0  0  0  0
  131.7430  129.9956  155.3480 C   0  0  0  0  0  0  0  0  0  0  0  0
  131.4813  130.7355  156.4816 C   0  0  0  0  0  0  0  0  0  0  0  0
  130.4538  133.9120  157.7915 N   0  0  0  0  0  0  0  0  0  0  0  0
  130.7917  134.5078  157.1047 H   0  0  0  0  0  0  0  0  0  0  0  0
  127.4101  135.4964  159.9686 C   0  0  0  0  0  0  0  0  0  0  0  0
  126.0876  135.1226  160.1161 C   0  0  0  0  0  0  0  0  0  0  0  0
  123.5947  135.1499  161.8005 H   0  0  0  0  0  0  0  0  0  0  0  0
  123.8054  133.8917  160.5592 H   0  0  0  0  0  0  0  0  0  0  0  0
  124.1039  133.5107  162.2722 H   0  0  0  0  0  0  0  0  0  0  0  0
  126.1284  134.2669  163.3785 H   0  0  0  0  0  0  0  0  0  0  0  0
  128.4868  134.9232  163.1134 H   0  0  0  0  0  0  0  0  0  0  0  0
  129.2513  137.8895  160.4988 H   0  0  0  0  0  0  0  0  0  0  0  0
  129.5498  137.5088  162.2119 H   0  0  0  0  0  0  0  0  0  0  0  0
  132.0624  135.7904  161.5755 H   0  0  0  0  0  0  0  0  0  0  0  0
  134.4210  136.4355  161.3043 H   0  0  0  0  0  0  0  0  0  0  0  0
  135.1821  139.3515  158.4911 H   0  0  0  0  0  0  0  0  0  0  0  0
  137.5368  140.0147  158.2387 H   0  0  0  0  0  0  0  0  0  0  0  0
  139.0720  139.8768  160.1561 H   0  0  0  0  0  0  0  0  0  0  0  0
  138.2596  139.0864  162.3389 H   0  0  0  0  0  0  0  0  0  0  0  0
  133.1948  140.3862  160.1878 H   0  0  0  0  0  0  0  0  0  0  0  0
  130.8414  139.7209  160.4542 H   0  0  0  0  0  0  0  0  0  0  0  0
  130.4627  136.2871  158.9501 H   0  0  0  0  0  0  0  0  0  0  0  0
  129.5393  131.0688  159.0473 H   0  0  0  0  0  0  0  0  0  0  0  0
  129.1722  132.8678  155.2050 H   0  0  0  0  0  0  0  0  0  0  0  0
  129.6513  131.5500  153.1850 H   0  0  0  0  0  0  0  0  0  0  0  0
  131.9950  128.8111  153.0455 H   0  0  0  0  0  0  0  0  0  0  0  0
  130.8917  129.7384  152.1819 H   0  0  0  0  0  0  0  0  0  0  0  0
  132.4597  129.1886  155.3839 H   0  0  0  0  0  0  0  0  0  0  0  0
  131.9931  130.5087  157.4052 H   0  0  0  0  0  0  0  0  0  0  0  0
  127.7695  135.8447  159.0116 H   0  0  0  0  0  0  0  0  0  0  0  0
  125.4135  135.1785  159.2740 H   0  0  0  0  0  0  0  0  0  0  0  0
  1  2  1  0
  1 39  1  0
  1 40  1  0
  1 41  1  0
  2 38  2  0
  2  3  1  0
  3  4  2  0
  3 42  1  0
  4  5  1  0
  4 43  1  0
  5  6  1  0
  5 37  2  0
  6  7  1  1
  6  8  1  0
  6 22  1  0
  8  9  1  0
  8 44  1  0
  8 45  1  0
  9 21  1  0
  9 10  2  0
 10 11  1  0
 10 46  1  0
 11 12  2  0
 11 47  1  0
 12 13  1  0
 12 20  1  0
 13 18  1  0
 13 14  2  0
 14 15  1  0
 14 48  1  0
 15 16  2  0
 15 49  1  0
 16 17  1  0
 16 50  1  0
 17 18  2  0
 17 51  1  0
 18 19  1  0
 20 21  2  0
 20 52  1  0
 21 53  1  0
 22 54  1  0
 23 22  1  0
 23 35  2  0
 23 24  1  0
 24 25  1  0
 24 26  1  0
 26 27  2  0
 26 55  1  0
 27 28  1  0
 27 35  1  0
 28 34  1  0
 28 29  2  0
 29 30  1  0
 29 56  1  0
 30 31  2  0
 30 57  1  0
 31 32  1  0
 31 33  1  0
 32 58  1  0
 32 59  1  0
 33 34  2  0
 33 60  1  0
 34 61  1  0
 35 36  1  0
 37 38  1  0
 37 62  1  0
 38 63  1  0
M  CHG  1  35   1
M  END
>  <DOCK_score>  (1) 
-59.371761

>  <SMILES>  (1) 
Cc1ccc([C@H](Cc2ccc(-c3ccccc3F)cc2)Nc2[nH]cc(-c3ccc(N)cc3)[nH+]2)cc1

$$$$
