Cc1ccc(-c2cnc([C@@H](Cc3ccncc3)Nc3[nH]cc(-c4cccnc4)[nH+]3)cn2)cc1
     RDKit          3D

 57 61  0  0  1  0  0  0  0  0999 V2000
  138.8323  136.6084  165.8391 C   0  0  0  0  0  0  0  0  0  0  0  0
  137.5806  136.3729  165.0339 C   0  0  0  0  0  0  0  0  0  0  0  0
  137.1316  135.0823  164.8197 C   0  0  0  0  0  0  0  0  0  0  0  0
  135.9863  134.8607  164.0821 C   0  0  0  0  0  0  0  0  0  0  0  0
  135.2815  135.9404  163.5531 C   0  0  0  0  0  0  0  0  0  0  0  0
  134.0502  135.7087  162.7592 C   0  0  0  0  0  0  0  0  0  0  0  0
  133.9799  136.1404  161.4345 C   0  0  0  0  0  0  0  0  0  0  0  0
  132.8840  135.9272  160.7310 N   0  0  0  0  0  0  0  0  0  0  0  0
  131.8506  135.3143  161.2831 C   0  0  0  0  0  0  0  0  0  0  0  0
  130.5994  135.0779  160.4771 C   0  0  1  0  0  0  0  0  0  0  0  0
  130.1059  134.1721  160.8294 H   0  0  0  0  0  0  0  0  0  0  0  0
  129.6544  136.2700  160.6407 C   0  0  0  0  0  0  0  0  0  0  0  0
  128.4032  136.0337  159.8348 C   0  0  0  0  0  0  0  0  0  0  0  0
  127.3086  135.3930  160.3948 C   0  0  0  0  0  0  0  0  0  0  0  0
  126.1767  135.1977  159.6263 C   0  0  0  0  0  0  0  0  0  0  0  0
  126.1342  135.6042  158.3726 N   0  0  0  0  0  0  0  0  0  0  0  0
  127.1576  136.2127  157.8059 C   0  0  0  0  0  0  0  0  0  0  0  0
  128.3213  136.4470  158.5138 C   0  0  0  0  0  0  0  0  0  0  0  0
  130.9510  134.9241  159.0632 N   0  0  0  0  0  0  0  0  0  0  0  0
  130.6432  133.7502  158.3971 C   0  0  0  0  0  0  0  0  0  0  0  0
  130.0237  132.6682  158.9427 N   0  0  0  0  0  0  0  0  0  0  0  0
  129.7209  132.5816  159.8601 H   0  0  0  0  0  0  0  0  0  0  0  0
  129.9042  131.7223  157.9537 C   0  0  0  0  0  0  0  0  0  0  0  0
  130.4607  132.2500  156.8353 C   0  0  0  0  0  0  0  0  0  0  0  0
  130.5643  131.5836  155.5141 C   0  0  0  0  0  0  0  0  0  0  0  0
  131.2686  130.3838  155.3768 C   0  0  0  0  0  0  0  0  0  0  0  0
  131.3320  129.7996  154.1237 C   0  0  0  0  0  0  0  0  0  0  0  0
  130.7111  130.4210  153.0553 C   0  0  0  0  0  0  0  0  0  0  0  0
  130.0578  131.5556  153.2144 N   0  0  0  0  0  0  0  0  0  0  0  0
  129.9660  132.1464  154.3884 C   0  0  0  0  0  0  0  0  0  0  0  0
  130.9055  133.4953  157.1385 N   0  0  0  0  0  0  0  0  0  0  0  0
  131.3472  134.1003  156.5222 H   0  0  0  0  0  0  0  0  0  0  0  0
  131.9162  134.8839  162.5968 C   0  0  0  0  0  0  0  0  0  0  0  0
  133.0101  135.0885  163.3074 N   0  0  0  0  0  0  0  0  0  0  0  0
  135.7412  137.2385  163.7680 C   0  0  0  0  0  0  0  0  0  0  0  0
  136.8850  137.4484  164.5112 C   0  0  0  0  0  0  0  0  0  0  0  0
  139.6964  136.6119  165.1749 H   0  0  0  0  0  0  0  0  0  0  0  0
  138.7614  137.5695  166.3483 H   0  0  0  0  0  0  0  0  0  0  0  0
  138.9446  135.8138  166.5770 H   0  0  0  0  0  0  0  0  0  0  0  0
  137.6784  134.2463  165.2300 H   0  0  0  0  0  0  0  0  0  0  0  0
  135.6370  133.8525  163.9149 H   0  0  0  0  0  0  0  0  0  0  0  0
  134.8224  136.6444  160.9844 H   0  0  0  0  0  0  0  0  0  0  0  0
  129.3927  136.3845  161.6927 H   0  0  0  0  0  0  0  0  0  0  0  0
  130.1479  137.1759  160.2886 H   0  0  0  0  0  0  0  0  0  0  0  0
  127.3390  135.0536  161.4197 H   0  0  0  0  0  0  0  0  0  0  0  0
  125.3187  134.7023  160.0561 H   0  0  0  0  0  0  0  0  0  0  0  0
  127.0858  136.5315  156.7764 H   0  0  0  0  0  0  0  0  0  0  0  0
  129.1563  136.9453  158.0440 H   0  0  0  0  0  0  0  0  0  0  0  0
  131.4031  135.6433  158.5948 H   0  0  0  0  0  0  0  0  0  0  0  0
  129.4563  130.7443  158.0495 H   0  0  0  0  0  0  0  0  0  0  0  0
  131.7478  129.9226  156.2277 H   0  0  0  0  0  0  0  0  0  0  0  0
  131.8643  128.8709  153.9808 H   0  0  0  0  0  0  0  0  0  0  0  0
  130.7618  129.9699  152.0752 H   0  0  0  0  0  0  0  0  0  0  0  0
  129.4220  133.0749  154.4793 H   0  0  0  0  0  0  0  0  0  0  0  0
  131.0709  134.3801  163.0418 H   0  0  0  0  0  0  0  0  0  0  0  0
  135.2012  138.0786  163.3570 H   0  0  0  0  0  0  0  0  0  0  0  0
  137.2401  138.4540  164.6815 H   0  0  0  0  0  0  0  0  0  0  0  0
  1  2  1  0
  1 37  1  0
  1 38  1  0
  1 39  1  0
  2 36  2  0
  2  3  1  0
  3  4  2  0
  3 40  1  0
  4  5  1  0
  4 41  1  0
  5  6  1  0
  5 35  2  0
  6 34  1  0
  6  7  2  0
  7  8  1  0
  7 42  1  0
  8  9  2  0
  9 10  1  0
  9 33  1  0
 10 11  1  1
 10 12  1  0
 10 19  1  0
 12 13  1  0
 12 43  1  0
 12 44  1  0
 13 18  1  0
 13 14  2  0
 14 15  1  0
 14 45  1  0
 15 16  2  0
 15 46  1  0
 16 17  1  0
 17 18  2  0
 17 47  1  0
 18 48  1  0
 19 49  1  0
 20 19  1  0
 20 31  2  0
 20 21  1  0
 21 22  1  0
 21 23  1  0
 23 24  2  0
 23 50  1  0
 24 25  1  0
 24 31  1  0
 25 30  1  0
 25 26  2  0
 26 27  1  0
 26 51  1  0
 27 28  2  0
 27 52  1  0
 28 29  1  0
 28 53  1  0
 29 30  2  0
 30 54  1  0
 31 32  1  0
 33 34  2  0
 33 55  1  0
 35 36  1  0
 35 56  1  0
 36 57  1  0
M  CHG  1  31   1
M  END
>  <DOCK_score>  (1) 
-62.142914

>  <SMILES>  (1) 
Cc1ccc(-c2cnc([C@@H](Cc3ccncc3)Nc3[nH]cc(-c4cccnc4)[nH+]3)cn2)cc1

$$$$
