COc1ccc([C@H](Cc2ccc(F)cc2)[NH+]=C(NCc2ccc(F)cc2)NC2CC=CC2)cc1
     RDKit          3D

 64 67  0  0  1  0  0  0  0  0999 V2000
  131.1336  131.2305  155.4506 C   0  0  0  0  0  0  0  0  0  0  0  0
  131.0453  130.9999  156.8579 O   0  0  0  0  0  0  0  0  0  0  0  0
  130.7047  132.0604  157.6367 C   0  0  0  0  0  0  0  0  0  0  0  0
  130.6011  131.9077  159.0118 C   0  0  0  0  0  0  0  0  0  0  0  0
  130.2552  132.9874  159.8012 C   0  0  0  0  0  0  0  0  0  0  0  0
  130.0123  134.2191  159.2221 C   0  0  0  0  0  0  0  0  0  0  0  0
  129.6351  135.3951  160.0856 C   0  0  2  0  0  0  0  0  0  0  0  0
  129.6044  135.0841  161.1299 H   0  0  0  0  0  0  0  0  0  0  0  0
  128.2581  135.9142  159.6673 C   0  0  0  0  0  0  0  0  0  0  0  0
  127.1877  135.0429  160.2726 C   0  0  0  0  0  0  0  0  0  0  0  0
  126.7252  133.9375  159.5832 C   0  0  0  0  0  0  0  0  0  0  0  0
  125.7436  133.1379  160.1373 C   0  0  0  0  0  0  0  0  0  0  0  0
  125.2202  133.4470  161.3813 C   0  0  0  0  0  0  0  0  0  0  0  0
  124.2566  132.6691  161.9215 F   0  0  0  0  0  0  0  0  0  0  0  0
  125.6882  134.5511  162.0733 C   0  0  0  0  0  0  0  0  0  0  0  0
  126.6694  135.3496  161.5170 C   0  0  0  0  0  0  0  0  0  0  0  0
  130.6285  136.4595  159.9224 N   0  0  0  0  0  0  0  0  0  0  0  0
  131.1007  136.5572  159.0807 H   0  0  0  0  0  0  0  0  0  0  0  0
  130.8779  137.2751  160.9081 C   0  0  0  0  0  0  0  0  0  0  0  0
  132.1284  137.8304  161.0412 N   0  0  0  0  0  0  0  0  0  0  0  0
  133.1808  137.5058  160.0751 C   0  0  0  0  0  0  0  0  0  0  0  0
  134.4446  138.2392  160.4436 C   0  0  0  0  0  0  0  0  0  0  0  0
  134.6878  139.4986  159.9280 C   0  0  0  0  0  0  0  0  0  0  0  0
  135.8439  140.1743  160.2698 C   0  0  0  0  0  0  0  0  0  0  0  0
  136.7642  139.5847  161.1197 C   0  0  0  0  0  0  0  0  0  0  0  0
  137.8977  140.2418  161.4494 F   0  0  0  0  0  0  0  0  0  0  0  0
  136.5223  138.3209  161.6310 C   0  0  0  0  0  0  0  0  0  0  0  0
  135.3627  137.6496  161.2927 C   0  0  0  0  0  0  0  0  0  0  0  0
  129.8903  137.5796  161.8148 N   0  0  0  0  0  0  0  0  0  0  0  0
  129.8830  138.8855  162.4787 C   0  0  0  0  0  0  0  0  0  0  0  0
  128.5862  139.0850  163.2970 C   0  0  0  0  0  0  0  0  0  0  0  0
  128.2402  140.5451  163.1186 C   0  0  0  0  0  0  0  0  0  0  0  0
  128.8876  141.0616  162.1098 C   0  0  0  0  0  0  0  0  0  0  0  0
  129.7731  140.0322  161.4471 C   0  0  0  0  0  0  0  0  0  0  0  0
  130.1094  134.3724  157.8514 C   0  0  0  0  0  0  0  0  0  0  0  0
  130.4605  133.2973  157.0580 C   0  0  0  0  0  0  0  0  0  0  0  0
  131.4127  130.3047  154.9475 H   0  0  0  0  0  0  0  0  0  0  0  0
  130.1677  131.5702  155.0767 H   0  0  0  0  0  0  0  0  0  0  0  0
  131.8877  131.9924  155.2537 H   0  0  0  0  0  0  0  0  0  0  0  0
  130.7904  130.9457  159.4645 H   0  0  0  0  0  0  0  0  0  0  0  0
  130.1748  132.8691  160.8717 H   0  0  0  0  0  0  0  0  0  0  0  0
  128.1753  135.8896  158.5807 H   0  0  0  0  0  0  0  0  0  0  0  0
  128.1340  136.9387  160.0181 H   0  0  0  0  0  0  0  0  0  0  0  0
  127.1308  133.6990  158.6111 H   0  0  0  0  0  0  0  0  0  0  0  0
  125.3819  132.2748  159.5982 H   0  0  0  0  0  0  0  0  0  0  0  0
  125.2835  134.7908  163.0455 H   0  0  0  0  0  0  0  0  0  0  0  0
  127.0313  136.2135  162.0545 H   0  0  0  0  0  0  0  0  0  0  0  0
  132.3139  138.4374  161.7748 H   0  0  0  0  0  0  0  0  0  0  0  0
  133.3669  136.4320  160.0879 H   0  0  0  0  0  0  0  0  0  0  0  0
  132.8635  137.8077  159.0771 H   0  0  0  0  0  0  0  0  0  0  0  0
  133.9721  139.9562  159.2610 H   0  0  0  0  0  0  0  0  0  0  0  0
  136.0316  141.1600  159.8701 H   0  0  0  0  0  0  0  0  0  0  0  0
  137.2396  137.8599  162.2938 H   0  0  0  0  0  0  0  0  0  0  0  0
  135.1738  136.6638  161.6914 H   0  0  0  0  0  0  0  0  0  0  0  0
  129.1985  136.9299  162.0150 H   0  0  0  0  0  0  0  0  0  0  0  0
  130.7654  139.0077  163.1070 H   0  0  0  0  0  0  0  0  0  0  0  0
  127.7882  138.4550  162.9036 H   0  0  0  0  0  0  0  0  0  0  0  0
  128.7630  138.8626  164.3493 H   0  0  0  0  0  0  0  0  0  0  0  0
  127.5484  141.0898  163.7439 H   0  0  0  0  0  0  0  0  0  0  0  0
  128.8017  142.0898  161.7908 H   0  0  0  0  0  0  0  0  0  0  0  0
  130.7572  140.4536  161.2415 H   0  0  0  0  0  0  0  0  0  0  0  0
  129.3154  139.6715  160.5259 H   0  0  0  0  0  0  0  0  0  0  0  0
  129.9146  135.3345  157.4009 H   0  0  0  0  0  0  0  0  0  0  0  0
  130.5406  133.4187  155.9879 H   0  0  0  0  0  0  0  0  0  0  0  0
  1  2  1  0
  1 37  1  0
  1 38  1  0
  1 39  1  0
  2  3  1  0
  3 36  2  0
  3  4  1  0
  4  5  2  0
  4 40  1  0
  5  6  1  0
  5 41  1  0
  6  7  1  0
  6 35  2  0
  7  8  1  1
  7  9  1  0
  7 17  1  0
  9 10  1  0
  9 42  1  0
  9 43  1  0
 10 16  1  0
 10 11  2  0
 11 12  1  0
 11 44  1  0
 12 13  2  0
 12 45  1  0
 13 14  1  0
 13 15  1  0
 15 16  2  0
 15 46  1  0
 16 47  1  0
 17 18  1  0
 19 17  2  0
 19 20  1  0
 19 29  1  0
 20 21  1  0
 20 48  1  0
 21 22  1  0
 21 49  1  0
 21 50  1  0
 22 28  1  0
 22 23  2  0
 23 24  1  0
 23 51  1  0
 24 25  2  0
 24 52  1  0
 25 26  1  0
 25 27  1  0
 27 28  2  0
 27 53  1  0
 28 54  1  0
 29 30  1  0
 29 55  1  0
 30 34  1  0
 30 31  1  0
 30 56  1  0
 31 32  1  0
 31 57  1  0
 31 58  1  0
 32 33  2  0
 32 59  1  0
 33 34  1  0
 33 60  1  0
 34 61  1  0
 34 62  1  0
 35 36  1  0
 35 63  1  0
 36 64  1  0
M  CHG  1  17   1
M  END
>  <DOCK_score>  (1) 
-52.685863

>  <SMILES>  (1) 
COc1ccc([C@H](Cc2ccc(F)cc2)[NH+]=C(NCc2ccc(F)cc2)NC2CC=CC2)cc1

$$$$
