Oc1ccc2c(c1)[C@@H]([NH2+][C@@H]1C[C@@H](O)C[C@H]1O)c1ccccc1-2
     RDKit          3D

 42 45  0  0  1  0  0  0  0  0999 V2000
  124.0654  134.8489  161.4783 O   0  0  0  0  0  0  0  0  0  0  0  0
  125.0830  134.2434  160.8120 C   0  0  0  0  0  0  0  0  0  0  0  0
  124.9552  132.9236  160.3999 C   0  0  0  0  0  0  0  0  0  0  0  0
  125.9850  132.3055  159.7243 C   0  0  0  0  0  0  0  0  0  0  0  0
  127.1622  133.0060  159.4517 C   0  0  0  0  0  0  0  0  0  0  0  0
  127.2832  134.3293  159.8679 C   0  0  0  0  0  0  0  0  0  0  0  0
  126.2533  134.9424  160.5477 C   0  0  0  0  0  0  0  0  0  0  0  0
  128.6449  134.8184  159.4386 C   0  0  1  0  0  0  0  0  0  0  0  0
  128.5426  135.6616  158.7555 H   0  0  0  0  0  0  0  0  0  0  0  0
  129.4344  135.2124  160.6131 N   0  0  0  0  0  0  0  0  0  0  0  0
  128.8400  135.6922  161.2723 H   0  0  0  0  0  0  0  0  0  0  0  0
  129.8238  134.3895  161.0481 H   0  0  0  0  0  0  0  0  0  0  0  0
  130.5224  136.1062  160.1943 C   0  0  2  0  0  0  0  0  0  0  0  0
  130.9581  135.7679  159.2542 H   0  0  0  0  0  0  0  0  0  0  0  0
  131.6033  136.2101  161.2989 C   0  0  0  0  0  0  0  0  0  0  0  0
  132.2978  137.5596  161.0226 C   0  0  1  0  0  0  0  0  0  0  0  0
  132.5557  138.0463  161.9632 H   0  0  0  0  0  0  0  0  0  0  0  0
  133.4753  137.3540  160.2394 O   0  0  0  0  0  0  0  0  0  0  0  0
  131.2896  138.4213  160.2423 C   0  0  0  0  0  0  0  0  0  0  0  0
  130.0177  137.5654  160.0716 C   0  0  1  0  0  0  0  0  0  0  0  0
  129.2991  137.7882  160.8604 H   0  0  0  0  0  0  0  0  0  0  0  0
  129.4348  137.7866  158.7856 O   0  0  0  0  0  0  0  0  0  0  0  0
  129.3024  133.6566  158.7349 C   0  0  0  0  0  0  0  0  0  0  0  0
  130.5370  133.5144  158.1382 C   0  0  0  0  0  0  0  0  0  0  0  0
  130.8895  132.3104  157.5540 C   0  0  0  0  0  0  0  0  0  0  0  0
  130.0050  131.2475  157.5682 C   0  0  0  0  0  0  0  0  0  0  0  0
  128.7675  131.3805  158.1634 C   0  0  0  0  0  0  0  0  0  0  0  0
  128.4048  132.5921  158.7543 C   0  0  0  0  0  0  0  0  0  0  0  0
  124.2484  135.7652  161.7272 H   0  0  0  0  0  0  0  0  0  0  0  0
  124.0458  132.3799  160.6092 H   0  0  0  0  0  0  0  0  0  0  0  0
  125.8818  131.2787  159.4057 H   0  0  0  0  0  0  0  0  0  0  0  0
  126.3553  135.9672  160.8726 H   0  0  0  0  0  0  0  0  0  0  0  0
  131.1409  136.2140  162.2859 H   0  0  0  0  0  0  0  0  0  0  0  0
  132.3160  135.3899  161.2135 H   0  0  0  0  0  0  0  0  0  0  0  0
  133.3118  136.9248  159.3885 H   0  0  0  0  0  0  0  0  0  0  0  0
  131.6982  138.6820  159.2659 H   0  0  0  0  0  0  0  0  0  0  0  0
  131.0580  139.3266  160.8035 H   0  0  0  0  0  0  0  0  0  0  0  0
  130.0430  137.6419  158.0480 H   0  0  0  0  0  0  0  0  0  0  0  0
  131.2291  134.3434  158.1261 H   0  0  0  0  0  0  0  0  0  0  0  0
  131.8569  132.2007  157.0866 H   0  0  0  0  0  0  0  0  0  0  0  0
  130.2841  130.3093  157.1118 H   0  0  0  0  0  0  0  0  0  0  0  0
  128.0799  130.5477  158.1726 H   0  0  0  0  0  0  0  0  0  0  0  0
  1  2  1  0
  1 29  1  0
  2  7  2  0
  2  3  1  0
  3  4  2  0
  3 30  1  0
  4  5  1  0
  4 31  1  0
  5 28  1  0
  5  6  2  0
  6  7  1  0
  6  8  1  0
  7 32  1  0
  8  9  1  6
  8 10  1  0
  8 23  1  0
 10 11  1  0
 10 12  1  0
 10 13  1  0
 13 14  1  6
 13 20  1  0
 13 15  1  0
 15 16  1  0
 15 33  1  0
 15 34  1  0
 16 17  1  1
 16 18  1  0
 16 19  1  0
 18 35  1  0
 19 20  1  0
 19 36  1  0
 19 37  1  0
 20 21  1  1
 20 22  1  0
 22 38  1  0
 23 28  2  0
 23 24  1  0
 24 25  2  0
 24 39  1  0
 25 26  1  0
 25 40  1  0
 26 27  2  0
 26 41  1  0
 27 28  1  0
 27 42  1  0
M  CHG  1  10   1
M  END
>  <DOCK_score>  (1) 
-45.330811

>  <SMILES>  (1) 
Oc1ccc2c(c1)[C@@H]([NH2+][C@@H]1C[C@@H](O)C[C@H]1O)c1ccccc1-2

$$$$
