ClCNc1ccc(-c2c[nH]c(N[C@H](c3ccccc3)c3cccc4ccccc34)[nH+]2)cc1
     RDKit          3D

 56 60  0  0  1  0  0  0  0  0999 V2000
  129.0207  129.5984  151.0857 Cl  0  0  0  0  0  0  0  0  0  0  0  0
  130.7387  129.9348  151.5171 C   0  0  0  0  0  0  0  0  0  0  0  0
  131.0136  129.4230  152.8621 N   0  0  0  0  0  0  0  0  0  0  0  0
  130.8176  130.2437  153.9753 C   0  0  0  0  0  0  0  0  0  0  0  0
  131.4458  129.9430  155.1783 C   0  0  0  0  0  0  0  0  0  0  0  0
  131.2539  130.7517  156.2785 C   0  0  0  0  0  0  0  0  0  0  0  0
  130.4290  131.8715  156.1837 C   0  0  0  0  0  0  0  0  0  0  0  0
  130.2209  132.7430  157.3660 C   0  0  0  0  0  0  0  0  0  0  0  0
  129.6888  132.3628  158.5537 C   0  0  0  0  0  0  0  0  0  0  0  0
  129.6800  133.4755  159.3611 N   0  0  0  0  0  0  0  0  0  0  0  0
  129.3576  133.5199  160.2749 H   0  0  0  0  0  0  0  0  0  0  0  0
  130.2074  134.5029  158.6416 C   0  0  0  0  0  0  0  0  0  0  0  0
  130.3755  135.8008  159.0931 N   0  0  0  0  0  0  0  0  0  0  0  0
  129.9699  136.1613  160.4539 C   0  0  2  0  0  0  0  0  0  0  0  0
  130.5275  135.5587  161.1710 H   0  0  0  0  0  0  0  0  0  0  0  0
  128.4944  135.9052  160.6226 C   0  0  0  0  0  0  0  0  0  0  0  0
  127.9905  135.5575  161.8621 C   0  0  0  0  0  0  0  0  0  0  0  0
  126.6366  135.3264  162.0177 C   0  0  0  0  0  0  0  0  0  0  0  0
  125.7877  135.4347  160.9322 C   0  0  0  0  0  0  0  0  0  0  0  0
  126.2922  135.7777  159.6917 C   0  0  0  0  0  0  0  0  0  0  0  0
  127.6457  136.0126  159.5369 C   0  0  0  0  0  0  0  0  0  0  0  0
  130.2570  137.6211  160.6936 C   0  0  0  0  0  0  0  0  0  0  0  0
  129.2445  138.4748  161.0085 C   0  0  0  0  0  0  0  0  0  0  0  0
  129.4906  139.8277  161.2330 C   0  0  0  0  0  0  0  0  0  0  0  0
  130.7507  140.3351  161.1438 C   0  0  0  0  0  0  0  0  0  0  0  0
  131.8214  139.4846  160.8209 C   0  0  0  0  0  0  0  0  0  0  0  0
  133.1360  139.9716  160.7209 C   0  0  0  0  0  0  0  0  0  0  0  0
  134.1482  139.1179  160.4070 C   0  0  0  0  0  0  0  0  0  0  0  0
  133.9019  137.7645  160.1820 C   0  0  0  0  0  0  0  0  0  0  0  0
  132.6422  137.2572  160.2705 C   0  0  0  0  0  0  0  0  0  0  0  0
  131.5711  138.1081  160.5928 C   0  0  0  0  0  0  0  0  0  0  0  0
  130.5249  134.0625  157.4485 N   0  0  0  0  0  0  0  0  0  0  0  0
  130.9169  134.5947  156.7386 H   0  0  0  0  0  0  0  0  0  0  0  0
  129.7955  132.1678  154.9778 C   0  0  0  0  0  0  0  0  0  0  0  0
  129.9946  131.3593  153.8787 C   0  0  0  0  0  0  0  0  0  0  0  0
  130.9151  131.0101  151.4946 H   0  0  0  0  0  0  0  0  0  0  0  0
  131.3962  129.4435  150.8000 H   0  0  0  0  0  0  0  0  0  0  0  0
  131.3319  128.5142  152.9793 H   0  0  0  0  0  0  0  0  0  0  0  0
  132.0844  129.0751  155.2513 H   0  0  0  0  0  0  0  0  0  0  0  0
  131.7424  130.5178  157.2128 H   0  0  0  0  0  0  0  0  0  0  0  0
  129.3384  131.3752  158.8152 H   0  0  0  0  0  0  0  0  0  0  0  0
  130.7620  136.4715  158.5085 H   0  0  0  0  0  0  0  0  0  0  0  0
  128.6543  135.4693  162.7095 H   0  0  0  0  0  0  0  0  0  0  0  0
  126.2424  135.0581  162.9868 H   0  0  0  0  0  0  0  0  0  0  0  0
  124.7303  135.2508  161.0529 H   0  0  0  0  0  0  0  0  0  0  0  0
  125.6290  135.8620  158.8434 H   0  0  0  0  0  0  0  0  0  0  0  0
  128.0398  136.2802  158.5678 H   0  0  0  0  0  0  0  0  0  0  0  0
  128.2354  138.0978  161.0856 H   0  0  0  0  0  0  0  0  0  0  0  0
  128.6694  140.4837  161.4814 H   0  0  0  0  0  0  0  0  0  0  0  0
  130.9257  141.3869  161.3158 H   0  0  0  0  0  0  0  0  0  0  0  0
  133.3417  141.0179  160.8918 H   0  0  0  0  0  0  0  0  0  0  0  0
  135.1574  139.4946  160.3308 H   0  0  0  0  0  0  0  0  0  0  0  0
  134.7232  137.1085  159.9342 H   0  0  0  0  0  0  0  0  0  0  0  0
  132.4666  136.2063  160.0942 H   0  0  0  0  0  0  0  0  0  0  0  0
  129.1522  133.0322  154.9035 H   0  0  0  0  0  0  0  0  0  0  0  0
  129.5071  131.5908  152.9431 H   0  0  0  0  0  0  0  0  0  0  0  0
  1  2  1  0
  2  3  1  0
  2 36  1  0
  2 37  1  0
  3  4  1  0
  3 38  1  0
  4 35  2  0
  4  5  1  0
  5  6  2  0
  5 39  1  0
  6  7  1  0
  6 40  1  0
  7  8  1  0
  7 34  2  0
  8 32  1  0
  8  9  2  0
  9 10  1  0
  9 41  1  0
 10 11  1  0
 10 12  1  0
 12 13  1  0
 12 32  2  0
 13 14  1  0
 13 42  1  0
 14 15  1  1
 14 16  1  0
 14 22  1  0
 16 21  1  0
 16 17  2  0
 17 18  1  0
 17 43  1  0
 18 19  2  0
 18 44  1  0
 19 20  1  0
 19 45  1  0
 20 21  2  0
 20 46  1  0
 21 47  1  0
 22 31  1  0
 22 23  2  0
 23 24  1  0
 23 48  1  0
 24 25  2  0
 24 49  1  0
 25 26  1  0
 25 50  1  0
 26 31  2  0
 26 27  1  0
 27 28  2  0
 27 51  1  0
 28 29  1  0
 28 52  1  0
 29 30  2  0
 29 53  1  0
 30 31  1  0
 30 54  1  0
 32 33  1  0
 34 35  1  0
 34 55  1  0
 35 56  1  0
M  CHG  1  32   1
M  END
>  <DOCK_score>  (1) 
-62.139458

>  <SMILES>  (1) 
ClCNc1ccc(-c2c[nH]c(N[C@H](c3ccccc3)c3cccc4ccccc34)[nH+]2)cc1

$$$$
