CCc1ccc(-c2c[nH]c(N[C@H](CC)Cc3ccc(-c4ccc(N)cc4)cc3)[nH+]2)cc1
     RDKit          3D

 62 65  0  0  1  0  0  0  0  0999 V2000
  130.3223  129.3301  152.0934 C   0  0  0  0  0  0  0  0  0  0  0  0
  131.6149  129.8992  152.6818 C   0  0  0  0  0  0  0  0  0  0  0  0
  131.3140  130.5766  153.9939 C   0  0  0  0  0  0  0  0  0  0  0  0
  131.3686  129.8527  155.1714 C   0  0  0  0  0  0  0  0  0  0  0  0
  131.0995  130.4692  156.3765 C   0  0  0  0  0  0  0  0  0  0  0  0
  130.7612  131.8210  156.4044 C   0  0  0  0  0  0  0  0  0  0  0  0
  130.4656  132.4879  157.6960 C   0  0  0  0  0  0  0  0  0  0  0  0
  129.9392  131.8970  158.7972 C   0  0  0  0  0  0  0  0  0  0  0  0
  129.8319  132.8713  159.7596 N   0  0  0  0  0  0  0  0  0  0  0  0
  129.4882  132.7549  160.6592 H   0  0  0  0  0  0  0  0  0  0  0  0
  130.2964  134.0301  159.2179 C   0  0  0  0  0  0  0  0  0  0  0  0
  130.3593  135.2534  159.8630 N   0  0  0  0  0  0  0  0  0  0  0  0
  129.9012  135.3749  161.2492 C   0  0  2  0  0  0  0  0  0  0  0  0
  130.2124  134.4957  161.8130 H   0  0  0  0  0  0  0  0  0  0  0  0
  128.3752  135.4832  161.2743 C   0  0  0  0  0  0  0  0  0  0  0  0
  127.9383  136.7175  160.4827 C   0  0  0  0  0  0  0  0  0  0  0  0
  130.5119  136.6280  161.8800 C   0  0  0  0  0  0  0  0  0  0  0  0
  131.9282  136.3373  162.3047 C   0  0  0  0  0  0  0  0  0  0  0  0
  132.6788  135.4063  161.6096 C   0  0  0  0  0  0  0  0  0  0  0  0
  133.9782  135.1403  161.9906 C   0  0  0  0  0  0  0  0  0  0  0  0
  134.5303  135.8033  163.0851 C   0  0  0  0  0  0  0  0  0  0  0  0
  135.9245  135.5175  163.5034 C   0  0  0  0  0  0  0  0  0  0  0  0
  136.6904  136.5137  164.1070 C   0  0  0  0  0  0  0  0  0  0  0  0
  137.9841  136.2444  164.4997 C   0  0  0  0  0  0  0  0  0  0  0  0
  138.5290  134.9839  164.2832 C   0  0  0  0  0  0  0  0  0  0  0  0
  139.8408  134.7150  164.6768 N   0  0  0  0  0  0  0  0  0  0  0  0
  137.7692  133.9909  163.6757 C   0  0  0  0  0  0  0  0  0  0  0  0
  136.4732  134.2544  163.2866 C   0  0  0  0  0  0  0  0  0  0  0  0
  133.7677  136.7363  163.7852 C   0  0  0  0  0  0  0  0  0  0  0  0
  132.4711  136.9985  163.3917 C   0  0  0  0  0  0  0  0  0  0  0  0
  130.6795  133.7957  157.9865 N   0  0  0  0  0  0  0  0  0  0  0  0
  131.0540  134.4529  157.3793 H   0  0  0  0  0  0  0  0  0  0  0  0
  130.7023  132.5439  155.2142 C   0  0  0  0  0  0  0  0  0  0  0  0
  130.9788  131.9184  154.0156 C   0  0  0  0  0  0  0  0  0  0  0  0
  129.6105  130.1390  151.9298 H   0  0  0  0  0  0  0  0  0  0  0  0
  130.5400  128.8400  151.1444 H   0  0  0  0  0  0  0  0  0  0  0  0
  129.8956  128.6054  152.7870 H   0  0  0  0  0  0  0  0  0  0  0  0
  132.3267  129.0900  152.8454 H   0  0  0  0  0  0  0  0  0  0  0  0
  132.0416  130.6237  151.9882 H   0  0  0  0  0  0  0  0  0  0  0  0
  131.6261  128.8041  155.1481 H   0  0  0  0  0  0  0  0  0  0  0  0
  131.1469  129.9043  157.2958 H   0  0  0  0  0  0  0  0  0  0  0  0
  129.6578  130.8592  158.8981 H   0  0  0  0  0  0  0  0  0  0  0  0
  130.7070  136.0301  159.3971 H   0  0  0  0  0  0  0  0  0  0  0  0
  127.9403  134.5906  160.8248 H   0  0  0  0  0  0  0  0  0  0  0  0
  128.0343  135.5736  162.3058 H   0  0  0  0  0  0  0  0  0  0  0  0
  128.2793  136.6270  159.4514 H   0  0  0  0  0  0  0  0  0  0  0  0
  126.8512  136.7946  160.5006 H   0  0  0  0  0  0  0  0  0  0  0  0
  128.3734  137.6102  160.9323 H   0  0  0  0  0  0  0  0  0  0  0  0
  130.5099  137.4392  161.1521 H   0  0  0  0  0  0  0  0  0  0  0  0
  129.9241  136.9197  162.7505 H   0  0  0  0  0  0  0  0  0  0  0  0
  132.2483  134.8894  160.7645 H   0  0  0  0  0  0  0  0  0  0  0  0
  134.5648  134.4163  161.4445 H   0  0  0  0  0  0  0  0  0  0  0  0
  136.2690  137.4945  164.2710 H   0  0  0  0  0  0  0  0  0  0  0  0
  138.5762  137.0146  164.9715 H   0  0  0  0  0  0  0  0  0  0  0  0
  140.2216  133.8356  164.5263 H   0  0  0  0  0  0  0  0  0  0  0  0
  140.3716  135.4074  165.1007 H   0  0  0  0  0  0  0  0  0  0  0  0
  138.1946  133.0126  163.5081 H   0  0  0  0  0  0  0  0  0  0  0  0
  135.8833  133.4828  162.8144 H   0  0  0  0  0  0  0  0  0  0  0  0
  134.1904  137.2530  164.6342 H   0  0  0  0  0  0  0  0  0  0  0  0
  131.8792  137.7216  163.9333 H   0  0  0  0  0  0  0  0  0  0  0  0
  130.4405  133.5917  155.2301 H   0  0  0  0  0  0  0  0  0  0  0  0
  130.9332  132.4776  153.0927 H   0  0  0  0  0  0  0  0  0  0  0  0
  1  2  1  0
  1 35  1  0
  1 36  1  0
  1 37  1  0
  2  3  1  0
  2 38  1  0
  2 39  1  0
  3 34  2  0
  3  4  1  0
  4  5  2  0
  4 40  1  0
  5  6  1  0
  5 41  1  0
  6  7  1  0
  6 33  2  0
  7 31  1  0
  7  8  2  0
  8  9  1  0
  8 42  1  0
  9 10  1  0
  9 11  1  0
 11 12  1  0
 11 31  2  0
 12 13  1  0
 12 43  1  0
 13 14  1  1
 13 15  1  0
 13 17  1  0
 15 16  1  0
 15 44  1  0
 15 45  1  0
 16 46  1  0
 16 47  1  0
 16 48  1  0
 17 18  1  0
 17 49  1  0
 17 50  1  0
 18 30  1  0
 18 19  2  0
 19 20  1  0
 19 51  1  0
 20 21  2  0
 20 52  1  0
 21 22  1  0
 21 29  1  0
 22 28  1  0
 22 23  2  0
 23 24  1  0
 23 53  1  0
 24 25  2  0
 24 54  1  0
 25 26  1  0
 25 27  1  0
 26 55  1  0
 26 56  1  0
 27 28  2  0
 27 57  1  0
 28 58  1  0
 29 30  2  0
 29 59  1  0
 30 60  1  0
 31 32  1  0
 33 34  1  0
 33 61  1  0
 34 62  1  0
M  CHG  1  31   1
M  END
>  <DOCK_score>  (1) 
-57.063858

>  <SMILES>  (1) 
CCc1ccc(-c2c[nH]c(N[C@H](CC)Cc3ccc(-c4ccc(N)cc4)cc3)[nH+]2)cc1

$$$$
