CCCNc1ccc(-c2n[nH]cc2C[NH2+]Cc2cccc(Cl)c2)o1
     RDKit          3D

 46 48  0  0  0  0  0  0  0  0999 V2000
  127.2828  139.7210  163.8877 C   0  0  0  0  0  0  0  0  0  0  0  0
  126.4522  138.5483  163.3625 C   0  0  0  0  0  0  0  0  0  0  0  0
  127.3539  137.5987  162.5712 C   0  0  0  0  0  0  0  0  0  0  0  0
  126.5586  136.4759  162.0682 N   0  0  0  0  0  0  0  0  0  0  0  0
  127.1647  135.4769  161.3153 C   0  0  0  0  0  0  0  0  0  0  0  0
  126.5440  134.3872  160.7986 C   0  0  0  0  0  0  0  0  0  0  0  0
  127.5238  133.6432  160.1118 C   0  0  0  0  0  0  0  0  0  0  0  0
  128.6958  134.3184  160.2447 C   0  0  0  0  0  0  0  0  0  0  0  0
  129.9996  133.9076  159.6840 C   0  0  0  0  0  0  0  0  0  0  0  0
  130.2314  132.8221  158.9725 N   0  0  0  0  0  0  0  0  0  0  0  0
  131.5911  132.8050  158.6362 N   0  0  0  0  0  0  0  0  0  0  0  0
  132.0397  132.1207  158.1151 H   0  0  0  0  0  0  0  0  0  0  0  0
  132.1696  133.9061  159.1628 C   0  0  0  0  0  0  0  0  0  0  0  0
  131.2187  134.6048  159.8190 C   0  0  0  0  0  0  0  0  0  0  0  0
  131.4228  135.9002  160.5616 C   0  0  0  0  0  0  0  0  0  0  0  0
  131.2128  137.0286  159.6447 N   0  0  0  0  0  0  0  0  0  0  0  0
  131.8719  136.9701  158.8830 H   0  0  0  0  0  0  0  0  0  0  0  0
  130.2728  136.9948  159.2795 H   0  0  0  0  0  0  0  0  0  0  0  0
  131.4118  138.2912  160.3687 C   0  0  0  0  0  0  0  0  0  0  0  0
  132.8158  138.3416  160.9141 C   0  0  0  0  0  0  0  0  0  0  0  0
  133.0845  137.8491  162.1777 C   0  0  0  0  0  0  0  0  0  0  0  0
  134.3728  137.8907  162.6766 C   0  0  0  0  0  0  0  0  0  0  0  0
  135.3915  138.4343  161.9166 C   0  0  0  0  0  0  0  0  0  0  0  0
  135.1223  138.9319  160.6542 C   0  0  0  0  0  0  0  0  0  0  0  0
  136.4011  139.6143  159.6989 Cl  0  0  0  0  0  0  0  0  0  0  0  0
  133.8333  138.8853  160.1532 C   0  0  0  0  0  0  0  0  0  0  0  0
  128.4655  135.4255  160.9815 O   0  0  0  0  0  0  0  0  0  0  0  0
  128.0729  139.3444  164.5375 H   0  0  0  0  0  0  0  0  0  0  0  0
  127.7269  140.2564  163.0486 H   0  0  0  0  0  0  0  0  0  0  0  0
  126.6405  140.3974  164.4515 H   0  0  0  0  0  0  0  0  0  0  0  0
  125.6621  138.9250  162.7128 H   0  0  0  0  0  0  0  0  0  0  0  0
  126.0081  138.0129  164.2016 H   0  0  0  0  0  0  0  0  0  0  0  0
  128.1439  137.2221  163.2209 H   0  0  0  0  0  0  0  0  0  0  0  0
  127.7979  138.1342  161.7321 H   0  0  0  0  0  0  0  0  0  0  0  0
  125.6090  136.4296  162.2605 H   0  0  0  0  0  0  0  0  0  0  0  0
  125.4977  134.1375  160.8950 H   0  0  0  0  0  0  0  0  0  0  0  0
  127.3725  132.7146  159.5816 H   0  0  0  0  0  0  0  0  0  0  0  0
  133.2115  134.1776  159.0778 H   0  0  0  0  0  0  0  0  0  0  0  0
  130.7109  135.9633  161.3845 H   0  0  0  0  0  0  0  0  0  0  0  0
  132.4383  135.9366  160.9561 H   0  0  0  0  0  0  0  0  0  0  0  0
  131.2559  139.1284  159.6884 H   0  0  0  0  0  0  0  0  0  0  0  0
  130.6999  138.3543  161.1916 H   0  0  0  0  0  0  0  0  0  0  0  0
  132.2881  137.4285  162.7737 H   0  0  0  0  0  0  0  0  0  0  0  0
  134.5829  137.5022  163.6621 H   0  0  0  0  0  0  0  0  0  0  0  0
  136.3974  138.4701  162.3080 H   0  0  0  0  0  0  0  0  0  0  0  0
  133.6225  139.2733  159.1676 H   0  0  0  0  0  0  0  0  0  0  0  0
  1  2  1  0
  1 28  1  0
  1 29  1  0
  1 30  1  0
  2  3  1  0
  2 31  1  0
  2 32  1  0
  3  4  1  0
  3 33  1  0
  3 34  1  0
  4  5  1  0
  4 35  1  0
  5 27  1  0
  5  6  2  0
  6  7  1  0
  6 36  1  0
  7  8  2  0
  7 37  1  0
  8  9  1  0
  8 27  1  0
  9 14  1  0
  9 10  2  0
 10 11  1  0
 11 12  1  0
 11 13  1  0
 13 14  2  0
 13 38  1  0
 14 15  1  0
 15 16  1  0
 15 39  1  0
 15 40  1  0
 16 17  1  0
 16 18  1  0
 16 19  1  0
 19 20  1  0
 19 41  1  0
 19 42  1  0
 20 26  1  0
 20 21  2  0
 21 22  1  0
 21 43  1  0
 22 23  2  0
 22 44  1  0
 23 24  1  0
 23 45  1  0
 24 25  1  0
 24 26  2  0
 26 46  1  0
M  CHG  1  16   1
M  END
>  <DOCK_score>  (1) 
-40.93565

>  <SMILES>  (1) 
CCCNc1ccc(-c2n[nH]cc2C[NH2+]Cc2cccc(Cl)c2)o1

$$$$
