OCCN1CC[NH+]=C1NCc1ccc(Nc2cccc(NC3CCCCC3)c2)cc1
     RDKit          3D

 64 67  0  0  1  0  0  0  0  0999 V2000
  131.5513  131.8724  158.7388 O   0  0  0  0  0  0  0  0  0  0  0  0
  131.3973  130.5413  158.2425 C   0  0  0  0  0  0  0  0  0  0  0  0
  130.1569  130.4700  157.3498 C   0  0  0  0  0  0  0  0  0  0  0  0
  130.3111  131.3958  156.2248 N   0  0  0  0  0  0  0  0  0  0  0  0
  130.9140  131.0740  154.9206 C   0  0  0  0  0  0  0  0  0  0  0  0
  130.8103  132.4026  154.1454 C   0  0  0  0  0  0  0  0  0  0  0  0
  130.1639  133.3190  155.0949 N   0  0  0  0  0  0  0  0  0  0  0  0
  129.9513  134.2479  154.9138 H   0  0  0  0  0  0  0  0  0  0  0  0
  129.9195  132.7063  156.2072 C   0  0  0  0  0  0  0  0  0  0  0  0
  129.3126  133.3181  157.2784 N   0  0  0  0  0  0  0  0  0  0  0  0
  128.9187  134.7265  157.1909 C   0  0  0  0  0  0  0  0  0  0  0  0
  128.2799  135.1509  158.4881 C   0  0  0  0  0  0  0  0  0  0  0  0
  128.6361  136.3530  159.0717 C   0  0  0  0  0  0  0  0  0  0  0  0
  128.0491  136.7473  160.2579 C   0  0  0  0  0  0  0  0  0  0  0  0
  127.1081  135.9294  160.8710 C   0  0  0  0  0  0  0  0  0  0  0  0
  126.5162  136.3226  162.0739 N   0  0  0  0  0  0  0  0  0  0  0  0
  127.3095  136.5495  163.2013 C   0  0  0  0  0  0  0  0  0  0  0  0
  128.4981  135.8484  163.3682 C   0  0  0  0  0  0  0  0  0  0  0  0
  129.2833  136.0724  164.4824 C   0  0  0  0  0  0  0  0  0  0  0  0
  128.8903  136.9936  165.4345 C   0  0  0  0  0  0  0  0  0  0  0  0
  127.7032  137.6978  165.2739 C   0  0  0  0  0  0  0  0  0  0  0  0
  127.3068  138.6287  166.2367 N   0  0  0  0  0  0  0  0  0  0  0  0
  127.6903  138.4416  167.6382 C   0  0  0  0  0  0  0  0  0  0  0  0
  126.4317  138.3327  168.5012 C   0  0  0  0  0  0  0  0  0  0  0  0
  126.8323  138.1372  169.9649 C   0  0  0  0  0  0  0  0  0  0  0  0
  127.6673  139.3324  170.4290 C   0  0  0  0  0  0  0  0  0  0  0  0
  128.9259  139.4412  169.5660 C   0  0  0  0  0  0  0  0  0  0  0  0
  128.5252  139.6367  168.1023 C   0  0  0  0  0  0  0  0  0  0  0  0
  126.9146  137.4790  164.1530 C   0  0  0  0  0  0  0  0  0  0  0  0
  126.7566  134.7200  160.2846 C   0  0  0  0  0  0  0  0  0  0  0  0
  127.3432  134.3346  159.0953 C   0  0  0  0  0  0  0  0  0  0  0  0
  131.6586  132.5399  158.0474 H   0  0  0  0  0  0  0  0  0  0  0  0
  131.2826  129.8524  159.0796 H   0  0  0  0  0  0  0  0  0  0  0  0
  132.2784  130.2653  157.6631 H   0  0  0  0  0  0  0  0  0  0  0  0
  129.2759  130.7460  157.9292 H   0  0  0  0  0  0  0  0  0  0  0  0
  130.0395  129.4546  156.9712 H   0  0  0  0  0  0  0  0  0  0  0  0
  131.9565  130.7794  155.0411 H   0  0  0  0  0  0  0  0  0  0  0  0
  130.3490  130.2882  154.4192 H   0  0  0  0  0  0  0  0  0  0  0  0
  131.8020  132.7670  153.8774 H   0  0  0  0  0  0  0  0  0  0  0  0
  130.1963  132.2776  153.2535 H   0  0  0  0  0  0  0  0  0  0  0  0
  129.1452  132.8173  158.0921 H   0  0  0  0  0  0  0  0  0  0  0  0
  129.8001  135.3393  157.0023 H   0  0  0  0  0  0  0  0  0  0  0  0
  128.2061  134.8545  156.3761 H   0  0  0  0  0  0  0  0  0  0  0  0
  129.3710  136.9863  158.5970 H   0  0  0  0  0  0  0  0  0  0  0  0
  128.3247  137.6881  160.7110 H   0  0  0  0  0  0  0  0  0  0  0  0
  125.5546  136.4380  162.1263 H   0  0  0  0  0  0  0  0  0  0  0  0
  128.8084  135.1280  162.6258 H   0  0  0  0  0  0  0  0  0  0  0  0
  130.2066  135.5267  164.6094 H   0  0  0  0  0  0  0  0  0  0  0  0
  129.5062  137.1661  166.3047 H   0  0  0  0  0  0  0  0  0  0  0  0
  126.7774  139.3991  165.9775 H   0  0  0  0  0  0  0  0  0  0  0  0
  128.2776  137.5284  167.7354 H   0  0  0  0  0  0  0  0  0  0  0  0
  125.8445  139.2457  168.4041 H   0  0  0  0  0  0  0  0  0  0  0  0
  125.8368  137.4811  168.1706 H   0  0  0  0  0  0  0  0  0  0  0  0
  127.4196  137.2241  170.0620 H   0  0  0  0  0  0  0  0  0  0  0  0
  125.9356  138.0596  170.5797 H   0  0  0  0  0  0  0  0  0  0  0  0
  127.9526  139.1931  171.4718 H   0  0  0  0  0  0  0  0  0  0  0  0
  127.0800  140.2455  170.3319 H   0  0  0  0  0  0  0  0  0  0  0  0
  129.5131  138.5282  169.6632 H   0  0  0  0  0  0  0  0  0  0  0  0
  129.5206  140.2927  169.8967 H   0  0  0  0  0  0  0  0  0  0  0  0
  129.4219  139.7143  167.4875 H   0  0  0  0  0  0  0  0  0  0  0  0
  127.9380  140.5497  168.0053 H   0  0  0  0  0  0  0  0  0  0  0  0
  125.9937  138.0282  164.0235 H   0  0  0  0  0  0  0  0  0  0  0  0
  126.0256  134.0817  160.7587 H   0  0  0  0  0  0  0  0  0  0  0  0
  127.0703  133.3945  158.6391 H   0  0  0  0  0  0  0  0  0  0  0  0
  1  2  1  0
  1 32  1  0
  2  3  1  0
  2 33  1  0
  2 34  1  0
  3  4  1  0
  3 35  1  0
  3 36  1  0
  4  9  1  0
  4  5  1  0
  5  6  1  0
  5 37  1  0
  5 38  1  0
  6  7  1  0
  6 39  1  0
  6 40  1  0
  7  8  1  0
  7  9  2  0
  9 10  1  0
 10 11  1  0
 10 41  1  0
 11 12  1  0
 11 42  1  0
 11 43  1  0
 12 31  1  0
 12 13  2  0
 13 14  1  0
 13 44  1  0
 14 15  2  0
 14 45  1  0
 15 16  1  0
 15 30  1  0
 16 17  1  0
 16 46  1  0
 17 29  1  0
 17 18  2  0
 18 19  1  0
 18 47  1  0
 19 20  2  0
 19 48  1  0
 20 21  1  0
 20 49  1  0
 21 22  1  0
 21 29  2  0
 22 23  1  0
 22 50  1  0
 23 28  1  0
 23 24  1  0
 23 51  1  0
 24 25  1  0
 24 52  1  0
 24 53  1  0
 25 26  1  0
 25 54  1  0
 25 55  1  0
 26 27  1  0
 26 56  1  0
 26 57  1  0
 27 28  1  0
 27 58  1  0
 27 59  1  0
 28 60  1  0
 28 61  1  0
 29 62  1  0
 30 31  2  0
 30 63  1  0
 31 64  1  0
M  CHG  1   7   1
M  END
>  <DOCK_score>  (1) 
-44.128868

>  <SMILES>  (1) 
OCCN1CC[NH+]=C1NCc1ccc(Nc2cccc(NC3CCCCC3)c2)cc1

$$$$
