Oc1cc(C[NH+]=C(NCc2cncs2)NC2CC=CC2)cc(Oc2ccccc2)c1
     RDKit          3D

 55 58  0  0  1  0  0  0  0  0999 V2000
  125.1580  136.1331  163.5378 O   0  0  0  0  0  0  0  0  0  0  0  0
  126.3792  135.9994  164.1191 C   0  0  0  0  0  0  0  0  0  0  0  0
  127.5269  136.3120  163.4036 C   0  0  0  0  0  0  0  0  0  0  0  0
  128.7686  136.1759  163.9937 C   0  0  0  0  0  0  0  0  0  0  0  0
  130.0130  136.5154  163.2144 C   0  0  0  0  0  0  0  0  0  0  0  0
  129.9187  135.9417  161.8696 N   0  0  0  0  0  0  0  0  0  0  0  0
  129.1327  135.4348  161.6125 H   0  0  0  0  0  0  0  0  0  0  0  0
  130.8911  136.1126  161.0186 C   0  0  0  0  0  0  0  0  0  0  0  0
  132.0053  136.8310  161.3831 N   0  0  0  0  0  0  0  0  0  0  0  0
  133.0981  137.0229  160.4266 C   0  0  0  0  0  0  0  0  0  0  0  0
  134.1905  137.8385  161.0690 C   0  0  0  0  0  0  0  0  0  0  0  0
  134.2944  139.1707  161.0453 C   0  0  0  0  0  0  0  0  0  0  0  0
  135.3416  139.6486  161.6870 N   0  0  0  0  0  0  0  0  0  0  0  0
  136.1323  138.7932  162.2419 C   0  0  0  0  0  0  0  0  0  0  0  0
  135.5602  137.2039  161.9776 S   0  0  0  0  0  0  0  0  0  0  0  0
  130.8027  135.5743  159.7567 N   0  0  0  0  0  0  0  0  0  0  0  0
  129.6156  134.8088  159.3682 C   0  0  0  0  0  0  0  0  0  0  0  0
  129.5333  133.4772  160.1500 C   0  0  0  0  0  0  0  0  0  0  0  0
  128.9955  132.4784  159.1519 C   0  0  0  0  0  0  0  0  0  0  0  0
  129.1049  132.9281  157.9315 C   0  0  0  0  0  0  0  0  0  0  0  0
  129.7340  134.3018  157.9121 C   0  0  0  0  0  0  0  0  0  0  0  0
  128.8719  135.7234  165.2954 C   0  0  0  0  0  0  0  0  0  0  0  0
  127.7272  135.4146  166.0166 C   0  0  0  0  0  0  0  0  0  0  0  0
  127.8290  134.9748  167.2983 O   0  0  0  0  0  0  0  0  0  0  0  0
  126.9910  135.5095  168.2248 C   0  0  0  0  0  0  0  0  0  0  0  0
  126.3395  134.6849  169.1307 C   0  0  0  0  0  0  0  0  0  0  0  0
  125.4919  135.2316  170.0746 C   0  0  0  0  0  0  0  0  0  0  0  0
  125.2843  136.5980  170.1104 C   0  0  0  0  0  0  0  0  0  0  0  0
  125.9283  137.4216  169.2054 C   0  0  0  0  0  0  0  0  0  0  0  0
  126.7811  136.8806  168.2629 C   0  0  0  0  0  0  0  0  0  0  0  0
  126.4792  135.5510  165.4262 C   0  0  0  0  0  0  0  0  0  0  0  0
  125.1895  136.4521  162.6254 H   0  0  0  0  0  0  0  0  0  0  0  0
  127.4489  136.6622  162.3849 H   0  0  0  0  0  0  0  0  0  0  0  0
  130.8844  136.1047  163.7243 H   0  0  0  0  0  0  0  0  0  0  0  0
  130.1118  137.5984  163.1413 H   0  0  0  0  0  0  0  0  0  0  0  0
  132.0659  137.2140  162.2722 H   0  0  0  0  0  0  0  0  0  0  0  0
  133.4960  136.0524  160.1299 H   0  0  0  0  0  0  0  0  0  0  0  0
  132.7235  137.5462  159.5469 H   0  0  0  0  0  0  0  0  0  0  0  0
  133.5773  139.8038  160.5441 H   0  0  0  0  0  0  0  0  0  0  0  0
  137.0265  139.0448  162.7930 H   0  0  0  0  0  0  0  0  0  0  0  0
  131.5265  135.7014  159.1233 H   0  0  0  0  0  0  0  0  0  0  0  0
  128.7099  135.3998  159.5042 H   0  0  0  0  0  0  0  0  0  0  0  0
  130.5234  133.1763  160.4926 H   0  0  0  0  0  0  0  0  0  0  0  0
  128.8516  133.5745  160.9949 H   0  0  0  0  0  0  0  0  0  0  0  0
  128.5755  131.5185  159.4140 H   0  0  0  0  0  0  0  0  0  0  0  0
  128.7873  132.3892  157.0510 H   0  0  0  0  0  0  0  0  0  0  0  0
  129.1887  134.9596  157.2354 H   0  0  0  0  0  0  0  0  0  0  0  0
  130.7812  134.2377  157.6163 H   0  0  0  0  0  0  0  0  0  0  0  0
  129.8440  135.6136  165.7529 H   0  0  0  0  0  0  0  0  0  0  0  0
  126.4978  133.6170  169.1003 H   0  0  0  0  0  0  0  0  0  0  0  0
  124.9877  134.5905  170.7826 H   0  0  0  0  0  0  0  0  0  0  0  0
  124.6178  137.0229  170.8463 H   0  0  0  0  0  0  0  0  0  0  0  0
  125.7648  138.4887  169.2357 H   0  0  0  0  0  0  0  0  0  0  0  0
  127.2836  137.5242  167.5561 H   0  0  0  0  0  0  0  0  0  0  0  0
  125.5874  135.3078  165.9847 H   0  0  0  0  0  0  0  0  0  0  0  0
  1  2  1  0
  1 32  1  0
  2 31  2  0
  2  3  1  0
  3  4  2  0
  3 33  1  0
  4  5  1  0
  4 22  1  0
  5  6  1  0
  5 34  1  0
  5 35  1  0
  6  7  1  0
  8  6  2  0
  8  9  1  0
  8 16  1  0
  9 10  1  0
  9 36  1  0
 10 11  1  0
 10 37  1  0
 10 38  1  0
 11 15  1  0
 11 12  2  0
 12 13  1  0
 12 39  1  0
 13 14  2  0
 14 15  1  0
 14 40  1  0
 16 17  1  0
 16 41  1  0
 17 21  1  0
 17 18  1  0
 17 42  1  0
 18 19  1  0
 18 43  1  0
 18 44  1  0
 19 20  2  0
 19 45  1  0
 20 21  1  0
 20 46  1  0
 21 47  1  0
 21 48  1  0
 22 23  2  0
 22 49  1  0
 23 24  1  0
 23 31  1  0
 24 25  1  0
 25 30  1  0
 25 26  2  0
 26 27  1  0
 26 50  1  0
 27 28  2  0
 27 51  1  0
 28 29  1  0
 28 52  1  0
 29 30  2  0
 29 53  1  0
 30 54  1  0
 31 55  1  0
M  CHG  1   6   1
M  END
>  <DOCK_score>  (1) 
-43.106613

>  <SMILES>  (1) 
Oc1cc(C[NH+]=C(NCc2cncs2)NC2CC=CC2)cc(Oc2ccccc2)c1

$$$$
