O[C@@H](C[NH+]=C(NC1CCCCC1)NC1CCCCC1)c1ccc(-c2cccnc2)cc1
     RDKit          3D

 68 71  0  0  1  0  0  0  0  0999 V2000
  126.2228  136.5487  161.9840 O   0  0  0  0  0  0  0  0  0  0  0  0
  127.2414  135.9172  162.7622 C   0  0  1  0  0  0  0  0  0  0  0  0
  127.2206  134.8421  162.5843 H   0  0  0  0  0  0  0  0  0  0  0  0
  128.6088  136.4741  162.3609 C   0  0  0  0  0  0  0  0  0  0  0  0
  129.0583  135.8232  161.1277 N   0  0  0  0  0  0  0  0  0  0  0  0
  128.5020  135.1515  160.7033 H   0  0  0  0  0  0  0  0  0  0  0  0
  130.2059  136.1467  160.6010 C   0  0  0  0  0  0  0  0  0  0  0  0
  130.6278  135.5359  159.4438 N   0  0  0  0  0  0  0  0  0  0  0  0
  130.2148  134.1617  159.1483 C   0  0  0  0  0  0  0  0  0  0  0  0
  130.7076  133.2312  160.2583 C   0  0  0  0  0  0  0  0  0  0  0  0
  130.2764  131.7960  159.9496 C   0  0  0  0  0  0  0  0  0  0  0  0
  130.8786  131.3589  158.6128 C   0  0  0  0  0  0  0  0  0  0  0  0
  130.3857  132.2894  157.5028 C   0  0  0  0  0  0  0  0  0  0  0  0
  130.8170  133.7245  157.8114 C   0  0  0  0  0  0  0  0  0  0  0  0
  130.9944  137.0989  161.2025 N   0  0  0  0  0  0  0  0  0  0  0  0
  132.2841  137.4625  160.6105 C   0  0  0  0  0  0  0  0  0  0  0  0
  133.2490  137.8952  161.7161 C   0  0  0  0  0  0  0  0  0  0  0  0
  134.5959  138.2750  161.0977 C   0  0  0  0  0  0  0  0  0  0  0  0
  134.3978  139.4293  160.1131 C   0  0  0  0  0  0  0  0  0  0  0  0
  133.4328  138.9965  159.0075 C   0  0  0  0  0  0  0  0  0  0  0  0
  132.0859  138.6168  159.6259 C   0  0  0  0  0  0  0  0  0  0  0  0
  126.9979  136.1893  164.2243 C   0  0  0  0  0  0  0  0  0  0  0  0
  126.9794  137.4919  164.6891 C   0  0  0  0  0  0  0  0  0  0  0  0
  126.7563  137.7469  166.0271 C   0  0  0  0  0  0  0  0  0  0  0  0
  126.5499  136.6890  166.9102 C   0  0  0  0  0  0  0  0  0  0  0  0
  126.3100  136.9568  168.3499 C   0  0  0  0  0  0  0  0  0  0  0  0
  126.8633  138.0836  168.9645 C   0  0  0  0  0  0  0  0  0  0  0  0
  126.6094  138.2888  170.3095 C   0  0  0  0  0  0  0  0  0  0  0  0
  125.8236  137.3809  170.9960 C   0  0  0  0  0  0  0  0  0  0  0  0
  125.3154  136.3261  170.3889 N   0  0  0  0  0  0  0  0  0  0  0  0
  125.5249  136.0924  169.1093 C   0  0  0  0  0  0  0  0  0  0  0  0
  126.5691  135.3788  166.4365 C   0  0  0  0  0  0  0  0  0  0  0  0
  126.7932  135.1354  165.0965 C   0  0  0  0  0  0  0  0  0  0  0  0
  125.3277  136.2434  162.1859 H   0  0  0  0  0  0  0  0  0  0  0  0
  128.5295  137.5487  162.1964 H   0  0  0  0  0  0  0  0  0  0  0  0
  129.3280  136.2805  163.1568 H   0  0  0  0  0  0  0  0  0  0  0  0
  131.1988  136.0149  158.8230 H   0  0  0  0  0  0  0  0  0  0  0  0
  129.1274  134.1137  159.0900 H   0  0  0  0  0  0  0  0  0  0  0  0
  131.7950  133.2793  160.3165 H   0  0  0  0  0  0  0  0  0  0  0  0
  130.2787  133.5427  161.2107 H   0  0  0  0  0  0  0  0  0  0  0  0
  129.1891  131.7480  159.8914 H   0  0  0  0  0  0  0  0  0  0  0  0
  130.6276  131.1331  160.7404 H   0  0  0  0  0  0  0  0  0  0  0  0
  130.5713  130.3365  158.3929 H   0  0  0  0  0  0  0  0  0  0  0  0
  131.9660  131.4070  158.6710 H   0  0  0  0  0  0  0  0  0  0  0  0
  129.2983  132.2414  157.4445 H   0  0  0  0  0  0  0  0  0  0  0  0
  130.8147  131.9779  156.5504 H   0  0  0  0  0  0  0  0  0  0  0  0
  130.4658  134.3875  157.0207 H   0  0  0  0  0  0  0  0  0  0  0  0
  131.9044  133.7726  157.8697 H   0  0  0  0  0  0  0  0  0  0  0  0
  130.6967  137.5298  162.0190 H   0  0  0  0  0  0  0  0  0  0  0  0
  132.6974  136.6025  160.0836 H   0  0  0  0  0  0  0  0  0  0  0  0
  132.8357  138.7553  162.2430 H   0  0  0  0  0  0  0  0  0  0  0  0
  133.3902  137.0729  162.4175 H   0  0  0  0  0  0  0  0  0  0  0  0
  135.0093  137.4150  160.5709 H   0  0  0  0  0  0  0  0  0  0  0  0
  135.2834  138.5833  161.8853 H   0  0  0  0  0  0  0  0  0  0  0  0
  135.3574  139.6999  159.6725 H   0  0  0  0  0  0  0  0  0  0  0  0
  133.9846  140.2893  160.6400 H   0  0  0  0  0  0  0  0  0  0  0  0
  133.8461  138.1364  158.4806 H   0  0  0  0  0  0  0  0  0  0  0  0
  133.2917  139.8188  158.3060 H   0  0  0  0  0  0  0  0  0  0  0  0
  131.3985  138.3084  158.8382 H   0  0  0  0  0  0  0  0  0  0  0  0
  131.6727  139.4768  160.1528 H   0  0  0  0  0  0  0  0  0  0  0  0
  127.1395  138.3110  164.0036 H   0  0  0  0  0  0  0  0  0  0  0  0
  126.7462  138.7640  166.3896 H   0  0  0  0  0  0  0  0  0  0  0  0
  127.4737  138.7762  168.4041 H   0  0  0  0  0  0  0  0  0  0  0  0
  127.0200  139.1489  170.8175 H   0  0  0  0  0  0  0  0  0  0  0  0
  125.6234  137.5379  172.0456 H   0  0  0  0  0  0  0  0  0  0  0  0
  125.0877  135.2201  168.6461 H   0  0  0  0  0  0  0  0  0  0  0  0
  126.4092  134.5553  167.1166 H   0  0  0  0  0  0  0  0  0  0  0  0
  126.8081  134.1202  164.7282 H   0  0  0  0  0  0  0  0  0  0  0  0
  1  2  1  0
  1 34  1  0
  2  3  1  1
  2  4  1  0
  2 22  1  0
  4  5  1  0
  4 35  1  0
  4 36  1  0
  5  6  1  0
  5  7  2  0
  7  8  1  0
  7 15  1  0
  8  9  1  0
  8 37  1  0
  9 14  1  0
  9 10  1  0
  9 38  1  0
 10 11  1  0
 10 39  1  0
 10 40  1  0
 11 12  1  0
 11 41  1  0
 11 42  1  0
 12 13  1  0
 12 43  1  0
 12 44  1  0
 13 14  1  0
 13 45  1  0
 13 46  1  0
 14 47  1  0
 14 48  1  0
 15 16  1  0
 15 49  1  0
 16 21  1  0
 16 17  1  0
 16 50  1  0
 17 18  1  0
 17 51  1  0
 17 52  1  0
 18 19  1  0
 18 53  1  0
 18 54  1  0
 19 20  1  0
 19 55  1  0
 19 56  1  0
 20 21  1  0
 20 57  1  0
 20 58  1  0
 21 59  1  0
 21 60  1  0
 22 33  1  0
 22 23  2  0
 23 24  1  0
 23 61  1  0
 24 25  2  0
 24 62  1  0
 25 26  1  0
 25 32  1  0
 26 31  1  0
 26 27  2  0
 27 28  1  0
 27 63  1  0
 28 29  2  0
 28 64  1  0
 29 30  1  0
 29 65  1  0
 30 31  2  0
 31 66  1  0
 32 33  2  0
 32 67  1  0
 33 68  1  0
M  CHG  1   5   1
M  END
>  <DOCK_score>  (1) 
-45.84148

>  <SMILES>  (1) 
O[C@@H](C[NH+]=C(NC1CCCCC1)NC1CCCCC1)c1ccc(-c2cccnc2)cc1

$$$$
