CCc1ccc(C2=CC3CC[C@H](C2)[NH+]3C(c2ccccc2)c2ccccc2)cc1
     RDKit          3D

 59 63  0  0  1  0  0  0  0  0999 V2000
  136.2773  141.9924  161.3035 C   0  0  0  0  0  0  0  0  0  0  0  0
  136.7881  140.7954  160.4991 C   0  0  0  0  0  0  0  0  0  0  0  0
  135.7296  139.7232  160.4670 C   0  0  0  0  0  0  0  0  0  0  0  0
  134.7910  139.7122  159.4506 C   0  0  0  0  0  0  0  0  0  0  0  0
  133.8227  138.7301  159.4123 C   0  0  0  0  0  0  0  0  0  0  0  0
  133.7847  137.7529  160.4076 C   0  0  0  0  0  0  0  0  0  0  0  0
  132.7470  136.7007  160.3754 C   0  0  0  0  0  0  0  0  0  0  0  0
  131.4808  137.0647  160.4191 C   0  0  0  0  0  0  0  0  0  0  0  0
  130.3838  136.0182  160.4073 C   0  0  2  0  0  0  0  0  0  0  0  0
  130.3296  135.4428  161.8471 C   0  0  0  0  0  0  0  0  0  0  0  0
  131.4398  134.3708  161.8697 C   0  0  0  0  0  0  0  0  0  0  0  0
  131.9832  134.3261  160.4288 C   0  0  2  0  0  0  0  0  0  0  0  0
  132.2319  133.3070  160.1326 H   0  0  0  0  0  0  0  0  0  0  0  0
  133.1836  135.2657  160.2884 C   0  0  0  0  0  0  0  0  0  0  0  0
  130.8848  134.8783  159.5913 N   0  0  1  0  0  0  0  0  0  0  0  0
  131.2409  135.2033  158.7050 H   0  0  0  0  0  0  0  0  0  0  0  0
  129.8283  133.8769  159.3939 C   0  0  0  0  0  0  0  0  0  0  0  0
  128.6621  134.5110  158.6804 C   0  0  0  0  0  0  0  0  0  0  0  0
  127.3799  134.0445  158.9017 C   0  0  0  0  0  0  0  0  0  0  0  0
  126.3096  134.6289  158.2506 C   0  0  0  0  0  0  0  0  0  0  0  0
  126.5228  135.6738  157.3710 C   0  0  0  0  0  0  0  0  0  0  0  0
  127.8055  136.1371  157.1461 C   0  0  0  0  0  0  0  0  0  0  0  0
  128.8754  135.5555  157.8004 C   0  0  0  0  0  0  0  0  0  0  0  0
  130.3645  132.7375  158.5661 C   0  0  0  0  0  0  0  0  0  0  0  0
  130.2589  132.7747  157.1882 C   0  0  0  0  0  0  0  0  0  0  0  0
  130.7546  131.7317  156.4286 C   0  0  0  0  0  0  0  0  0  0  0  0
  131.3475  130.6469  157.0473 C   0  0  0  0  0  0  0  0  0  0  0  0
  131.4489  130.6075  158.4253 C   0  0  0  0  0  0  0  0  0  0  0  0
  130.9570  131.6526  159.1847 C   0  0  0  0  0  0  0  0  0  0  0  0
  134.7307  137.7729  161.4331 C   0  0  0  0  0  0  0  0  0  0  0  0
  135.6971  138.7575  161.4570 C   0  0  0  0  0  0  0  0  0  0  0  0
  136.0500  141.6757  162.3214 H   0  0  0  0  0  0  0  0  0  0  0  0
  135.3751  142.3863  160.8355 H   0  0  0  0  0  0  0  0  0  0  0  0
  137.0429  142.7679  161.3267 H   0  0  0  0  0  0  0  0  0  0  0  0
  137.0154  141.1120  159.4811 H   0  0  0  0  0  0  0  0  0  0  0  0
  137.6902  140.4014  160.9671 H   0  0  0  0  0  0  0  0  0  0  0  0
  134.8188  140.4718  158.6833 H   0  0  0  0  0  0  0  0  0  0  0  0
  133.0934  138.7199  158.6157 H   0  0  0  0  0  0  0  0  0  0  0  0
  131.2238  138.1126  160.4636 H   0  0  0  0  0  0  0  0  0  0  0  0
  129.4255  136.4116  160.0685 H   0  0  0  0  0  0  0  0  0  0  0  0
  130.5386  136.2239  162.5781 H   0  0  0  0  0  0  0  0  0  0  0  0
  129.3574  134.9891  162.0400 H   0  0  0  0  0  0  0  0  0  0  0  0
  132.2298  134.6588  162.5634 H   0  0  0  0  0  0  0  0  0  0  0  0
  131.0249  133.4020  162.1481 H   0  0  0  0  0  0  0  0  0  0  0  0
  133.6664  135.0950  159.3263 H   0  0  0  0  0  0  0  0  0  0  0  0
  133.8947  135.0577  161.0881 H   0  0  0  0  0  0  0  0  0  0  0  0
  129.5001  133.4993  160.3623 H   0  0  0  0  0  0  0  0  0  0  0  0
  127.2138  133.2254  159.5859 H   0  0  0  0  0  0  0  0  0  0  0  0
  125.3074  134.2670  158.4266 H   0  0  0  0  0  0  0  0  0  0  0  0
  125.6871  136.1281  156.8597 H   0  0  0  0  0  0  0  0  0  0  0  0
  127.9721  136.9534  156.4587 H   0  0  0  0  0  0  0  0  0  0  0  0
  129.8775  135.9173  157.6244 H   0  0  0  0  0  0  0  0  0  0  0  0
  129.7920  133.6203  156.7051 H   0  0  0  0  0  0  0  0  0  0  0  0
  130.6758  131.7626  155.3519 H   0  0  0  0  0  0  0  0  0  0  0  0
  131.7318  129.8304  156.4540 H   0  0  0  0  0  0  0  0  0  0  0  0
  131.9121  129.7600  158.9088 H   0  0  0  0  0  0  0  0  0  0  0  0
  131.0358  131.6217  160.2614 H   0  0  0  0  0  0  0  0  0  0  0  0
  134.7068  137.0192  162.2061 H   0  0  0  0  0  0  0  0  0  0  0  0
  136.4298  138.7742  162.2502 H   0  0  0  0  0  0  0  0  0  0  0  0
  1  2  1  0
  1 32  1  0
  1 33  1  0
  1 34  1  0
  2  3  1  0
  2 35  1  0
  2 36  1  0
  3 31  2  0
  3  4  1  0
  4  5  2  0
  4 37  1  0
  5  6  1  0
  5 38  1  0
  6  7  1  0
  6 30  2  0
  7 14  1  0
  7  8  2  0
  8  9  1  0
  8 39  1  0
  9 15  1  0
  9 10  1  0
  9 40  1  6
 10 11  1  0
 10 41  1  0
 10 42  1  0
 11 12  1  0
 11 43  1  0
 11 44  1  0
 12 13  1  6
 12 14  1  0
 12 15  1  0
 14 45  1  0
 14 46  1  0
 15 16  1  6
 15 17  1  0
 17 18  1  0
 17 24  1  0
 17 47  1  0
 18 23  1  0
 18 19  2  0
 19 20  1  0
 19 48  1  0
 20 21  2  0
 20 49  1  0
 21 22  1  0
 21 50  1  0
 22 23  2  0
 22 51  1  0
 23 52  1  0
 24 29  1  0
 24 25  2  0
 25 26  1  0
 25 53  1  0
 26 27  2  0
 26 54  1  0
 27 28  1  0
 27 55  1  0
 28 29  2  0
 28 56  1  0
 29 57  1  0
 30 31  1  0
 30 58  1  0
 31 59  1  0
M  CHG  1  15   1
M  END
>  <DOCK_score>  (1) 
-58.444305

>  <SMILES>  (1) 
CCc1ccc(C2=CC3CC[C@H](C2)[NH+]3C(c2ccccc2)c2ccccc2)cc1

$$$$
