O[C@H](c1c(N2CC[NH+](C(c3ccccc3)c3ccccc3)CC2)ccc2c1CCC2)C1CCCOC1
     RDKit          3D

 75 80  0  0  1  0  0  0  0  0999 V2000
  135.0590  134.1824  163.6381 O   0  0  0  0  0  0  0  0  0  0  0  0
  133.9367  135.0179  163.3472 C   0  0  2  0  0  0  0  0  0  0  0  0
  133.1327  134.4134  162.9274 H   0  0  0  0  0  0  0  0  0  0  0  0
  134.3419  136.0751  162.3526 C   0  0  0  0  0  0  0  0  0  0  0  0
  133.7012  136.1516  161.1236 C   0  0  0  0  0  0  0  0  0  0  0  0
  132.6823  135.2502  160.8073 N   0  0  0  0  0  0  0  0  0  0  0  0
  133.0610  134.4066  159.6649 C   0  0  0  0  0  0  0  0  0  0  0  0
  131.9457  133.3958  159.3890 C   0  0  0  0  0  0  0  0  0  0  0  0
  130.6968  134.1119  159.0979 N   0  0  0  0  0  0  0  0  0  0  0  0
  130.8303  134.7077  158.2946 H   0  0  0  0  0  0  0  0  0  0  0  0
  129.6308  133.1414  158.8155 C   0  0  0  0  0  0  0  0  0  0  0  0
  128.3491  133.8758  158.5169 C   0  0  0  0  0  0  0  0  0  0  0  0
  127.1322  133.2926  158.8170 C   0  0  0  0  0  0  0  0  0  0  0  0
  125.9568  133.9683  158.5474 C   0  0  0  0  0  0  0  0  0  0  0  0
  125.9979  135.2228  157.9682 C   0  0  0  0  0  0  0  0  0  0  0  0
  127.2146  135.8036  157.6632 C   0  0  0  0  0  0  0  0  0  0  0  0
  128.3902  135.1303  157.9376 C   0  0  0  0  0  0  0  0  0  0  0  0
  130.0179  132.3024  157.6251 C   0  0  0  0  0  0  0  0  0  0  0  0
  129.6639  132.7051  156.3510 C   0  0  0  0  0  0  0  0  0  0  0  0
  130.0233  131.9379  155.2587 C   0  0  0  0  0  0  0  0  0  0  0  0
  130.7276  130.7625  155.4413 C   0  0  0  0  0  0  0  0  0  0  0  0
  131.0770  130.3570  156.7158 C   0  0  0  0  0  0  0  0  0  0  0  0
  130.7222  131.1269  157.8077 C   0  0  0  0  0  0  0  0  0  0  0  0
  130.3184  134.9308  160.2572 C   0  0  0  0  0  0  0  0  0  0  0  0
  131.4200  135.9545  160.5402 C   0  0  0  0  0  0  0  0  0  0  0  0
  134.0806  137.1239  160.2073 C   0  0  0  0  0  0  0  0  0  0  0  0
  135.0841  138.0155  160.5274 C   0  0  0  0  0  0  0  0  0  0  0  0
  135.7228  137.9383  161.7543 C   0  0  0  0  0  0  0  0  0  0  0  0
  135.3511  136.9675  162.6669 C   0  0  0  0  0  0  0  0  0  0  0  0
  136.1929  137.0934  163.9189 C   0  0  0  0  0  0  0  0  0  0  0  0
  137.4050  137.9549  163.5057 C   0  0  0  0  0  0  0  0  0  0  0  0
  136.8392  138.7821  162.3320 C   0  0  0  0  0  0  0  0  0  0  0  0
  133.4523  135.6877  164.6347 C   0  0  1  0  0  0  0  0  0  0  0  0
  132.2453  136.5787  164.3253 C   0  0  0  0  0  0  0  0  0  0  0  0
  131.7215  137.1819  165.6321 C   0  0  0  0  0  0  0  0  0  0  0  0
  131.3749  136.0511  166.6043 C   0  0  0  0  0  0  0  0  0  0  0  0
  132.5327  135.2429  166.8248 O   0  0  0  0  0  0  0  0  0  0  0  0
  133.0403  134.6146  165.6460 C   0  0  0  0  0  0  0  0  0  0  0  0
  135.4192  133.7249  162.8661 H   0  0  0  0  0  0  0  0  0  0  0  0
  133.2110  135.0320  158.7849 H   0  0  0  0  0  0  0  0  0  0  0  0
  133.9844  133.8754  159.8955 H   0  0  0  0  0  0  0  0  0  0  0  0
  131.8055  132.7616  160.2644 H   0  0  0  0  0  0  0  0  0  0  0  0
  132.2185  132.7784  158.5332 H   0  0  0  0  0  0  0  0  0  0  0  0
  129.4867  132.4971  159.6828 H   0  0  0  0  0  0  0  0  0  0  0  0
  127.1002  132.3108  159.2655 H   0  0  0  0  0  0  0  0  0  0  0  0
  125.0062  133.5143  158.7854 H   0  0  0  0  0  0  0  0  0  0  0  0
  125.0795  135.7488  157.7535 H   0  0  0  0  0  0  0  0  0  0  0  0
  127.2467  136.7836  157.2103 H   0  0  0  0  0  0  0  0  0  0  0  0
  129.3407  135.5841  157.6990 H   0  0  0  0  0  0  0  0  0  0  0  0
  129.1099  133.6212  156.2086 H   0  0  0  0  0  0  0  0  0  0  0  0
  129.7500  132.2546  154.2629 H   0  0  0  0  0  0  0  0  0  0  0  0
  131.0044  130.1608  154.5883 H   0  0  0  0  0  0  0  0  0  0  0  0
  131.6269  129.4385  156.8585 H   0  0  0  0  0  0  0  0  0  0  0  0
  130.9949  130.8099  158.8034 H   0  0  0  0  0  0  0  0  0  0  0  0
  130.1865  134.2888  161.1281 H   0  0  0  0  0  0  0  0  0  0  0  0
  129.3846  135.4515  160.0448 H   0  0  0  0  0  0  0  0  0  0  0  0
  131.1463  136.5524  161.4095 H   0  0  0  0  0  0  0  0  0  0  0  0
  131.5430  136.6053  159.6745 H   0  0  0  0  0  0  0  0  0  0  0  0
  133.5884  137.1847  159.2479 H   0  0  0  0  0  0  0  0  0  0  0  0
  135.3757  138.7745  159.8166 H   0  0  0  0  0  0  0  0  0  0  0  0
  135.6268  137.5902  164.7067 H   0  0  0  0  0  0  0  0  0  0  0  0
  136.5239  136.1100  164.2525 H   0  0  0  0  0  0  0  0  0  0  0  0
  138.2317  137.3266  163.1740 H   0  0  0  0  0  0  0  0  0  0  0  0
  137.7183  138.6052  164.3225 H   0  0  0  0  0  0  0  0  0  0  0  0
  137.6117  138.9519  161.5820 H   0  0  0  0  0  0  0  0  0  0  0  0
  136.4467  139.7325  162.6936 H   0  0  0  0  0  0  0  0  0  0  0  0
  134.2549  136.2944  165.0540 H   0  0  0  0  0  0  0  0  0  0  0  0
  132.5465  137.3789  163.6492 H   0  0  0  0  0  0  0  0  0  0  0  0
  131.4619  135.9820  163.8579 H   0  0  0  0  0  0  0  0  0  0  0  0
  132.4888  137.8187  166.0727 H   0  0  0  0  0  0  0  0  0  0  0  0
  130.8289  137.7734  165.4283 H   0  0  0  0  0  0  0  0  0  0  0  0
  131.0421  136.4755  167.5515 H   0  0  0  0  0  0  0  0  0  0  0  0
  130.5792  135.4387  166.1805 H   0  0  0  0  0  0  0  0  0  0  0  0
  132.2667  133.9823  165.2102 H   0  0  0  0  0  0  0  0  0  0  0  0
  133.9067  134.0049  165.9021 H   0  0  0  0  0  0  0  0  0  0  0  0
  1  2  1  0
  1 39  1  0
  2  3  1  6
  2  4  1  0
  2 33  1  0
  4 29  2  0
  4  5  1  0
  5  6  1  0
  5 26  2  0
  6 25  1  0
  6  7  1  0
  7  8  1  0
  7 40  1  0
  7 41  1  0
  8  9  1  0
  8 42  1  0
  8 43  1  0
  9 10  1  0
  9 11  1  0
  9 24  1  0
 11 12  1  0
 11 18  1  0
 11 44  1  0
 12 17  1  0
 12 13  2  0
 13 14  1  0
 13 45  1  0
 14 15  2  0
 14 46  1  0
 15 16  1  0
 15 47  1  0
 16 17  2  0
 16 48  1  0
 17 49  1  0
 18 23  1  0
 18 19  2  0
 19 20  1  0
 19 50  1  0
 20 21  2  0
 20 51  1  0
 21 22  1  0
 21 52  1  0
 22 23  2  0
 22 53  1  0
 23 54  1  0
 24 25  1  0
 24 55  1  0
 24 56  1  0
 25 57  1  0
 25 58  1  0
 26 27  1  0
 26 59  1  0
 27 28  2  0
 27 60  1  0
 28 32  1  0
 28 29  1  0
 29 30  1  0
 30 31  1  0
 30 61  1  0
 30 62  1  0
 31 32  1  0
 31 63  1  0
 31 64  1  0
 32 65  1  0
 32 66  1  0
 33 38  1  0
 33 34  1  0
 33 67  1  1
 34 35  1  0
 34 68  1  0
 34 69  1  0
 35 36  1  0
 35 70  1  0
 35 71  1  0
 36 37  1  0
 36 72  1  0
 36 73  1  0
 37 38  1  0
 38 74  1  0
 38 75  1  0
M  CHG  1   9   1
M  END
>  <DOCK_score>  (1) 
-56.173317

>  <SMILES>  (1) 
O[C@H](c1c(N2CC[NH+](C(c3ccccc3)c3ccccc3)CC2)ccc2c1CCC2)C1CCCOC1

$$$$
