C(=C[C@H](Nc1[nH]cc(-c2ccncc2)[nH+]1)c1ccccc1)c1ccccc1
     RDKit          3D

 48 51  0  0  1  0  0  0  0  0999 V2000
  129.3407  137.2729  160.9974 C   0  0  0  0  0  0  0  0  0  0  0  0
  129.2400  137.0454  159.6953 C   0  0  0  0  0  0  0  0  0  0  0  0
  128.9123  135.6620  159.1953 C   0  0  2  0  0  0  0  0  0  0  0  0
  128.7944  134.9876  160.0434 H   0  0  0  0  0  0  0  0  0  0  0  0
  129.9991  135.1826  158.3377 N   0  0  0  0  0  0  0  0  0  0  0  0
  129.9217  133.9276  157.7587 C   0  0  0  0  0  0  0  0  0  0  0  0
  129.2825  132.8484  158.2879 N   0  0  0  0  0  0  0  0  0  0  0  0
  128.8033  132.8211  159.1310 H   0  0  0  0  0  0  0  0  0  0  0  0
  129.4406  131.8065  157.4093 C   0  0  0  0  0  0  0  0  0  0  0  0
  130.1716  132.2770  156.3676 C   0  0  0  0  0  0  0  0  0  0  0  0
  130.5900  131.5027  155.1751 C   0  0  0  0  0  0  0  0  0  0  0  0
  130.1945  131.8913  153.8909 C   0  0  0  0  0  0  0  0  0  0  0  0
  130.6059  131.1418  152.8090 C   0  0  0  0  0  0  0  0  0  0  0  0
  131.3616  130.0724  152.9735 N   0  0  0  0  0  0  0  0  0  0  0  0
  131.7565  129.6717  154.1672 C   0  0  0  0  0  0  0  0  0  0  0  0
  131.3906  130.3629  155.3030 C   0  0  0  0  0  0  0  0  0  0  0  0
  130.4567  133.5808  156.6138 N   0  0  0  0  0  0  0  0  0  0  0  0
  130.9720  134.1634  156.0343 H   0  0  0  0  0  0  0  0  0  0  0  0
  127.6300  135.7043  158.4048 C   0  0  0  0  0  0  0  0  0  0  0  0
  126.4191  135.5043  159.0410 C   0  0  0  0  0  0  0  0  0  0  0  0
  125.2425  135.5470  158.3166 C   0  0  0  0  0  0  0  0  0  0  0  0
  125.2774  135.7813  156.9547 C   0  0  0  0  0  0  0  0  0  0  0  0
  126.4887  135.9760  156.3177 C   0  0  0  0  0  0  0  0  0  0  0  0
  127.6649  135.9373  157.0428 C   0  0  0  0  0  0  0  0  0  0  0  0
  129.6621  138.6297  161.4880 C   0  0  0  0  0  0  0  0  0  0  0  0
  130.2600  139.5593  160.6361 C   0  0  0  0  0  0  0  0  0  0  0  0
  130.5530  140.8257  161.0988 C   0  0  0  0  0  0  0  0  0  0  0  0
  130.2646  141.1715  162.4069 C   0  0  0  0  0  0  0  0  0  0  0  0
  129.6766  140.2528  163.2579 C   0  0  0  0  0  0  0  0  0  0  0  0
  129.3741  138.9847  162.8062 C   0  0  0  0  0  0  0  0  0  0  0  0
  129.1877  136.4669  161.6999 H   0  0  0  0  0  0  0  0  0  0  0  0
  129.3931  137.8514  158.9929 H   0  0  0  0  0  0  0  0  0  0  0  0
  130.7729  135.7445  158.1756 H   0  0  0  0  0  0  0  0  0  0  0  0
  129.0563  130.8038  157.5247 H   0  0  0  0  0  0  0  0  0  0  0  0
  129.5764  132.7654  153.7490 H   0  0  0  0  0  0  0  0  0  0  0  0
  130.3095  131.4366  151.8131 H   0  0  0  0  0  0  0  0  0  0  0  0
  132.3748  128.7906  154.2558 H   0  0  0  0  0  0  0  0  0  0  0  0
  131.7177  130.0295  156.2767 H   0  0  0  0  0  0  0  0  0  0  0  0
  126.3921  135.3178  160.1044 H   0  0  0  0  0  0  0  0  0  0  0  0
  124.2961  135.3944  158.8141 H   0  0  0  0  0  0  0  0  0  0  0  0
  124.3584  135.8120  156.3883 H   0  0  0  0  0  0  0  0  0  0  0  0
  126.5161  136.1587  155.2537 H   0  0  0  0  0  0  0  0  0  0  0  0
  128.6113  136.0893  156.5451 H   0  0  0  0  0  0  0  0  0  0  0  0
  130.4897  139.2891  159.6160 H   0  0  0  0  0  0  0  0  0  0  0  0
  131.0124  141.5473  160.4394 H   0  0  0  0  0  0  0  0  0  0  0  0
  130.4996  142.1628  162.7653 H   0  0  0  0  0  0  0  0  0  0  0  0
  129.4541  140.5288  164.2781 H   0  0  0  0  0  0  0  0  0  0  0  0
  128.9158  138.2682  163.4718 H   0  0  0  0  0  0  0  0  0  0  0  0
  1  2  2  0
  1 25  1  0
  1 31  1  0
  2  3  1  0
  2 32  1  0
  3  4  1  1
  3  5  1  0
  3 19  1  0
  5 33  1  0
  6  5  1  0
  6 17  2  0
  6  7  1  0
  7  8  1  0
  7  9  1  0
  9 10  2  0
  9 34  1  0
 10 11  1  0
 10 17  1  0
 11 16  1  0
 11 12  2  0
 12 13  1  0
 12 35  1  0
 13 14  2  0
 13 36  1  0
 14 15  1  0
 15 16  2  0
 15 37  1  0
 16 38  1  0
 17 18  1  0
 19 24  1  0
 19 20  2  0
 20 21  1  0
 20 39  1  0
 21 22  2  0
 21 40  1  0
 22 23  1  0
 22 41  1  0
 23 24  2  0
 23 42  1  0
 24 43  1  0
 25 30  1  0
 25 26  2  0
 26 27  1  0
 26 44  1  0
 27 28  2  0
 27 45  1  0
 28 29  1  0
 28 46  1  0
 29 30  2  0
 29 47  1  0
 30 48  1  0
M  CHG  1  17   1
M  END
>  <DOCK_score>  (1) 
-58.146713

>  <SMILES>  (1) 
C(=C[C@H](Nc1[nH]cc(-c2ccncc2)[nH+]1)c1ccccc1)c1ccccc1

$$$$
