O=C1CC[C@H](NC(NC2CC2)=[NH+][C@@H](Cc2ccccc2O)C(=O)Nc2ccccc2)CN1
     RDKit          3D

 62 65  0  0  1  0  0  0  0  0999 V2000
  123.8080  134.1299  161.9846 O   0  0  0  0  0  0  0  0  0  0  0  0
  124.9868  134.3096  161.7630 C   0  0  0  0  0  0  0  0  0  0  0  0
  125.8021  133.1489  161.2699 C   0  0  0  0  0  0  0  0  0  0  0  0
  127.2919  133.4404  161.4665 C   0  0  0  0  0  0  0  0  0  0  0  0
  127.5898  134.8381  160.9108 C   0  0  2  0  0  0  0  0  0  0  0  0
  127.2155  134.9132  159.8897 H   0  0  0  0  0  0  0  0  0  0  0  0
  129.0356  135.0741  160.9227 N   0  0  0  0  0  0  0  0  0  0  0  0
  129.7973  134.7307  159.8308 C   0  0  0  0  0  0  0  0  0  0  0  0
  129.2021  134.1660  158.7276 N   0  0  0  0  0  0  0  0  0  0  0  0
  130.0137  133.8001  157.5641 C   0  0  0  0  0  0  0  0  0  0  0  0
  129.4407  132.7566  156.6030 C   0  0  0  0  0  0  0  0  0  0  0  0
  130.6023  132.3882  157.5293 C   0  0  0  0  0  0  0  0  0  0  0  0
  131.0835  134.9407  159.8415 N   0  0  0  0  0  0  0  0  0  0  0  0
  131.6210  134.6985  159.0713 H   0  0  0  0  0  0  0  0  0  0  0  0
  131.7177  135.5426  161.0170 C   0  0  1  0  0  0  0  0  0  0  0  0
  131.5471  134.9082  161.8867 H   0  0  0  0  0  0  0  0  0  0  0  0
  133.2217  135.6784  160.7717 C   0  0  0  0  0  0  0  0  0  0  0  0
  133.8740  136.2977  161.9810 C   0  0  0  0  0  0  0  0  0  0  0  0
  134.3524  135.4926  162.9968 C   0  0  0  0  0  0  0  0  0  0  0  0
  134.9517  136.0600  164.1058 C   0  0  0  0  0  0  0  0  0  0  0  0
  135.0738  137.4341  164.2016 C   0  0  0  0  0  0  0  0  0  0  0  0
  134.5972  138.2432  163.1888 C   0  0  0  0  0  0  0  0  0  0  0  0
  133.9999  137.6759  162.0721 C   0  0  0  0  0  0  0  0  0  0  0  0
  133.5352  138.4697  161.0717 O   0  0  0  0  0  0  0  0  0  0  0  0
  131.1242  136.9055  161.2654 C   0  0  0  0  0  0  0  0  0  0  0  0
  131.2059  137.7666  160.4152 O   0  0  0  0  0  0  0  0  0  0  0  0
  130.5026  137.1674  162.4324 N   0  0  0  0  0  0  0  0  0  0  0  0
  129.9517  138.4327  162.6628 C   0  0  0  0  0  0  0  0  0  0  0  0
  129.8760  138.9336  163.9560 C   0  0  0  0  0  0  0  0  0  0  0  0
  129.3376  140.1857  164.1795 C   0  0  0  0  0  0  0  0  0  0  0  0
  128.8627  140.9351  163.1189 C   0  0  0  0  0  0  0  0  0  0  0  0
  128.9310  140.4367  161.8308 C   0  0  0  0  0  0  0  0  0  0  0  0
  129.4742  139.1880  161.5998 C   0  0  0  0  0  0  0  0  0  0  0  0
  126.8901  135.8744  161.7911 C   0  0  0  0  0  0  0  0  0  0  0  0
  125.4862  135.5267  161.9709 N   0  0  0  0  0  0  0  0  0  0  0  0
  125.6012  132.9893  160.2105 H   0  0  0  0  0  0  0  0  0  0  0  0
  125.5317  132.2530  161.8287 H   0  0  0  0  0  0  0  0  0  0  0  0
  127.5351  133.4083  162.5285 H   0  0  0  0  0  0  0  0  0  0  0  0
  127.8848  132.6986  160.9312 H   0  0  0  0  0  0  0  0  0  0  0  0
  129.4555  135.4725  161.7010 H   0  0  0  0  0  0  0  0  0  0  0  0
  128.2447  134.0097  158.7197 H   0  0  0  0  0  0  0  0  0  0  0  0
  130.6108  134.6050  157.1356 H   0  0  0  0  0  0  0  0  0  0  0  0
  128.4598  132.3425  156.8362 H   0  0  0  0  0  0  0  0  0  0  0  0
  129.6611  132.8750  155.5421 H   0  0  0  0  0  0  0  0  0  0  0  0
  131.5864  132.2643  157.0773 H   0  0  0  0  0  0  0  0  0  0  0  0
  130.3857  131.7316  158.3718 H   0  0  0  0  0  0  0  0  0  0  0  0
  133.6509  134.6926  160.5921 H   0  0  0  0  0  0  0  0  0  0  0  0
  133.3923  136.3128  159.9020 H   0  0  0  0  0  0  0  0  0  0  0  0
  134.2582  134.4191  162.9243 H   0  0  0  0  0  0  0  0  0  0  0  0
  135.3258  135.4290  164.8985 H   0  0  0  0  0  0  0  0  0  0  0  0
  135.5424  137.8750  165.0691 H   0  0  0  0  0  0  0  0  0  0  0  0
  134.6930  139.3163  163.2639 H   0  0  0  0  0  0  0  0  0  0  0  0
  133.6682  139.4150  161.2258 H   0  0  0  0  0  0  0  0  0  0  0  0
  130.4374  136.4787  163.1122 H   0  0  0  0  0  0  0  0  0  0  0  0
  130.2421  138.3466  164.7854 H   0  0  0  0  0  0  0  0  0  0  0  0
  129.2829  140.5778  165.1843 H   0  0  0  0  0  0  0  0  0  0  0  0
  128.4377  141.9118  163.2969 H   0  0  0  0  0  0  0  0  0  0  0  0
  128.5594  141.0245  161.0045 H   0  0  0  0  0  0  0  0  0  0  0  0
  129.5280  138.7996  160.5937 H   0  0  0  0  0  0  0  0  0  0  0  0
  127.3799  135.9102  162.7641 H   0  0  0  0  0  0  0  0  0  0  0  0
  126.9577  136.8539  161.3176 H   0  0  0  0  0  0  0  0  0  0  0  0
  124.8781  136.2251  162.2596 H   0  0  0  0  0  0  0  0  0  0  0  0
  1  2  2  0
  2 35  1  0
  2  3  1  0
  3  4  1  0
  3 36  1  0
  3 37  1  0
  4  5  1  0
  4 38  1  0
  4 39  1  0
  5  6  1  6
  5  7  1  0
  5 34  1  0
  7 40  1  0
  8  7  1  0
  8  9  1  0
  8 13  2  0
  9 10  1  0
  9 41  1  0
 10 12  1  0
 10 11  1  0
 10 42  1  0
 11 12  1  0
 11 43  1  0
 11 44  1  0
 12 45  1  0
 12 46  1  0
 13 14  1  0
 13 15  1  0
 15 16  1  1
 15 17  1  0
 15 25  1  0
 17 18  1  0
 17 47  1  0
 17 48  1  0
 18 23  1  0
 18 19  2  0
 19 20  1  0
 19 49  1  0
 20 21  2  0
 20 50  1  0
 21 22  1  0
 21 51  1  0
 22 23  2  0
 22 52  1  0
 23 24  1  0
 24 53  1  0
 25 26  2  0
 25 27  1  0
 27 28  1  0
 27 54  1  0
 28 33  1  0
 28 29  2  0
 29 30  1  0
 29 55  1  0
 30 31  2  0
 30 56  1  0
 31 32  1  0
 31 57  1  0
 32 33  2  0
 32 58  1  0
 33 59  1  0
 34 35  1  0
 34 60  1  0
 34 61  1  0
 35 62  1  0
M  CHG  1  13   1
M  END
>  <DOCK_score>  (1) 
-49.138691

>  <SMILES>  (1) 
O=C1CC[C@H](NC(NC2CC2)=[NH+][C@@H](Cc2ccccc2O)C(=O)Nc2ccccc2)CN1

$$$$
