Nc1ccc(-c2c[nH]c(N[C@@H](/C=C/C(=O)OCCO)c3ccccc3)[nH+]2)cc1
     RDKit          3D

 51 53  0  0  1  0  0  0  0  0999 V2000
  131.6670  129.3971  151.5176 N   0  0  0  0  0  0  0  0  0  0  0  0
  131.2932  130.0936  152.6694 C   0  0  0  0  0  0  0  0  0  0  0  0
  130.5263  131.2479  152.5640 C   0  0  0  0  0  0  0  0  0  0  0  0
  130.1557  131.9368  153.6996 C   0  0  0  0  0  0  0  0  0  0  0  0
  130.5510  131.4748  154.9540 C   0  0  0  0  0  0  0  0  0  0  0  0
  130.1540  132.2146  156.1771 C   0  0  0  0  0  0  0  0  0  0  0  0
  129.4133  131.7237  157.2012 C   0  0  0  0  0  0  0  0  0  0  0  0
  129.2836  132.7374  158.1210 N   0  0  0  0  0  0  0  0  0  0  0  0
  128.8027  132.6920  158.9621 H   0  0  0  0  0  0  0  0  0  0  0  0
  129.9495  133.8178  157.6303 C   0  0  0  0  0  0  0  0  0  0  0  0
  130.0605  135.0485  158.2548 N   0  0  0  0  0  0  0  0  0  0  0  0
  128.9912  135.5209  159.1379 C   0  0  1  0  0  0  0  0  0  0  0  0
  128.8631  134.8183  159.9614 H   0  0  0  0  0  0  0  0  0  0  0  0
  129.3549  136.8768  159.6861 C   0  0  0  0  0  0  0  0  0  0  0  0
  129.4701  137.0541  161.0001 C   0  0  0  0  0  0  0  0  0  0  0  0
  129.8247  138.3761  161.5348 C   0  0  0  0  0  0  0  0  0  0  0  0
  130.0128  139.3076  160.7771 O   0  0  0  0  0  0  0  0  0  0  0  0
  129.9413  138.5558  162.8657 O   0  0  0  0  0  0  0  0  0  0  0  0
  130.2942  139.8880  163.3226 C   0  0  0  0  0  0  0  0  0  0  0  0
  129.0194  140.7003  163.5591 C   0  0  0  0  0  0  0  0  0  0  0  0
  129.3667  142.0115  164.0088 O   0  0  0  0  0  0  0  0  0  0  0  0
  127.7049  135.6225  158.3593 C   0  0  0  0  0  0  0  0  0  0  0  0
  126.4940  135.4274  158.9968 C   0  0  0  0  0  0  0  0  0  0  0  0
  125.3139  135.5245  158.2834 C   0  0  0  0  0  0  0  0  0  0  0  0
  125.3452  135.8085  156.9309 C   0  0  0  0  0  0  0  0  0  0  0  0
  126.5563  135.9983  156.2924 C   0  0  0  0  0  0  0  0  0  0  0  0
  127.7363  135.9052  157.0066 C   0  0  0  0  0  0  0  0  0  0  0  0
  130.4682  133.5016  156.4688 N   0  0  0  0  0  0  0  0  0  0  0  0
  130.9925  134.0936  155.9072 H   0  0  0  0  0  0  0  0  0  0  0  0
  131.3246  130.3199  155.0569 C   0  0  0  0  0  0  0  0  0  0  0  0
  131.6885  129.6312  153.9190 C   0  0  0  0  0  0  0  0  0  0  0  0
  131.3913  129.7191  150.6452 H   0  0  0  0  0  0  0  0  0  0  0  0
  132.2022  128.5914  151.5904 H   0  0  0  0  0  0  0  0  0  0  0  0
  130.2205  131.6057  151.5920 H   0  0  0  0  0  0  0  0  0  0  0  0
  129.5594  132.8335  153.6172 H   0  0  0  0  0  0  0  0  0  0  0  0
  129.0036  130.7276  157.2795 H   0  0  0  0  0  0  0  0  0  0  0  0
  130.8462  135.5978  158.1076 H   0  0  0  0  0  0  0  0  0  0  0  0
  129.5220  137.7044  159.0129 H   0  0  0  0  0  0  0  0  0  0  0  0
  129.3031  136.2263  161.6734 H   0  0  0  0  0  0  0  0  0  0  0  0
  130.8570  139.8158  164.2531 H   0  0  0  0  0  0  0  0  0  0  0  0
  130.9044  140.3818  162.5662 H   0  0  0  0  0  0  0  0  0  0  0  0
  128.4566  140.7725  162.6285 H   0  0  0  0  0  0  0  0  0  0  0  0
  128.4092  140.2066  164.3154 H   0  0  0  0  0  0  0  0  0  0  0  0
  129.8702  142.0238  164.8342 H   0  0  0  0  0  0  0  0  0  0  0  0
  126.4697  135.2022  160.0528 H   0  0  0  0  0  0  0  0  0  0  0  0
  124.3675  135.3758  158.7822 H   0  0  0  0  0  0  0  0  0  0  0  0
  124.4234  135.8817  156.3730 H   0  0  0  0  0  0  0  0  0  0  0  0
  126.5808  136.2198  155.2356 H   0  0  0  0  0  0  0  0  0  0  0  0
  128.6826  136.0533  156.5077 H   0  0  0  0  0  0  0  0  0  0  0  0
  131.6359  129.9626  156.0276 H   0  0  0  0  0  0  0  0  0  0  0  0
  132.2847  128.7341  153.9986 H   0  0  0  0  0  0  0  0  0  0  0  0
  1  2  1  0
  1 32  1  0
  1 33  1  0
  2 31  2  0
  2  3  1  0
  3  4  2  0
  3 34  1  0
  4  5  1  0
  4 35  1  0
  5  6  1  0
  5 30  2  0
  6 28  1  0
  6  7  2  0
  7  8  1  0
  7 36  1  0
  8  9  1  0
  8 10  1  0
 10 11  1  0
 10 28  2  0
 11 12  1  0
 11 37  1  0
 12 13  1  1
 12 14  1  0
 12 22  1  0
 14 15  2  0
 14 38  1  0
 15 16  1  0
 15 39  1  0
 16 17  2  0
 16 18  1  0
 18 19  1  0
 19 20  1  0
 19 40  1  0
 19 41  1  0
 20 21  1  0
 20 42  1  0
 20 43  1  0
 21 44  1  0
 22 27  1  0
 22 23  2  0
 23 24  1  0
 23 45  1  0
 24 25  2  0
 24 46  1  0
 25 26  1  0
 25 47  1  0
 26 27  2  0
 26 48  1  0
 27 49  1  0
 28 29  1  0
 30 31  1  0
 30 50  1  0
 31 51  1  0
M  CHG  1  28   1
M  END
>  <DOCK_score>  (1) 
-61.133984

>  <SMILES>  (1) 
Nc1ccc(-c2c[nH]c(N[C@@H](/C=C/C(=O)OCCO)c3ccccc3)[nH+]2)cc1

$$$$
