O=C1CC[C@H]([NH+]=C(NCCc2cccc3c2OCCC3)NC2CC2)CN1
     RDKit          3D

 55 58  0  0  1  0  0  0  0  0999 V2000
  123.4425  134.1044  161.3233 O   0  0  0  0  0  0  0  0  0  0  0  0
  124.6371  134.1707  161.1252 C   0  0  0  0  0  0  0  0  0  0  0  0
  125.2907  133.0660  160.3455 C   0  0  0  0  0  0  0  0  0  0  0  0
  126.8042  133.0933  160.5724 C   0  0  0  0  0  0  0  0  0  0  0  0
  127.2994  134.5300  160.3665 C   0  0  2  0  0  0  0  0  0  0  0  0
  126.9529  134.9016  159.4022 H   0  0  0  0  0  0  0  0  0  0  0  0
  128.7636  134.5557  160.4057 N   0  0  0  0  0  0  0  0  0  0  0  0
  129.2239  134.6915  161.2488 H   0  0  0  0  0  0  0  0  0  0  0  0
  129.4479  134.3960  159.3079 C   0  0  0  0  0  0  0  0  0  0  0  0
  130.6784  134.9939  159.1717 N   0  0  0  0  0  0  0  0  0  0  0  0
  131.2207  135.8104  160.2603 C   0  0  0  0  0  0  0  0  0  0  0  0
  132.0399  134.9258  161.2021 C   0  0  0  0  0  0  0  0  0  0  0  0
  132.5977  135.7659  162.3220 C   0  0  0  0  0  0  0  0  0  0  0  0
  133.8335  136.3645  162.1828 C   0  0  0  0  0  0  0  0  0  0  0  0
  134.3469  137.1348  163.2097 C   0  0  0  0  0  0  0  0  0  0  0  0
  133.6234  137.3035  164.3745 C   0  0  0  0  0  0  0  0  0  0  0  0
  132.3835  136.7047  164.5201 C   0  0  0  0  0  0  0  0  0  0  0  0
  131.8659  135.9350  163.4928 C   0  0  0  0  0  0  0  0  0  0  0  0
  130.6498  135.3372  163.5891 O   0  0  0  0  0  0  0  0  0  0  0  0
  130.0743  135.1990  164.8888 C   0  0  0  0  0  0  0  0  0  0  0  0
  130.1505  136.5570  165.5983 C   0  0  0  0  0  0  0  0  0  0  0  0
  131.6255  136.9092  165.8072 C   0  0  0  0  0  0  0  0  0  0  0  0
  128.9391  133.6297  158.2862 N   0  0  0  0  0  0  0  0  0  0  0  0
  129.7082  133.4501  157.0523 C   0  0  0  0  0  0  0  0  0  0  0  0
  129.3722  132.2386  156.1804 C   0  0  0  0  0  0  0  0  0  0  0  0
  130.6721  132.2637  156.9868 C   0  0  0  0  0  0  0  0  0  0  0  0
  126.7406  135.4060  161.4886 C   0  0  0  0  0  0  0  0  0  0  0  0
  125.3002  135.2208  161.6111 N   0  0  0  0  0  0  0  0  0  0  0  0
  125.0812  133.1991  159.2842 H   0  0  0  0  0  0  0  0  0  0  0  0
  124.8923  132.1068  160.6758 H   0  0  0  0  0  0  0  0  0  0  0  0
  127.2943  132.4306  159.8591 H   0  0  0  0  0  0  0  0  0  0  0  0
  127.0295  132.7697  161.5885 H   0  0  0  0  0  0  0  0  0  0  0  0
  131.1875  134.8749  158.3546 H   0  0  0  0  0  0  0  0  0  0  0  0
  130.4011  136.2691  160.8135 H   0  0  0  0  0  0  0  0  0  0  0  0
  131.8602  136.5898  159.8460 H   0  0  0  0  0  0  0  0  0  0  0  0
  132.8595  134.4673  160.6489 H   0  0  0  0  0  0  0  0  0  0  0  0
  131.4003  134.1464  161.6165 H   0  0  0  0  0  0  0  0  0  0  0  0
  134.3991  136.2311  161.2726 H   0  0  0  0  0  0  0  0  0  0  0  0
  135.3131  137.6048  163.1011 H   0  0  0  0  0  0  0  0  0  0  0  0
  134.0268  137.9058  165.1752 H   0  0  0  0  0  0  0  0  0  0  0  0
  130.6310  134.4552  165.4589 H   0  0  0  0  0  0  0  0  0  0  0  0
  129.0331  134.8896  164.7991 H   0  0  0  0  0  0  0  0  0  0  0  0
  129.6472  136.4959  166.5632 H   0  0  0  0  0  0  0  0  0  0  0  0
  129.6741  137.3202  164.9831 H   0  0  0  0  0  0  0  0  0  0  0  0
  131.7094  137.9512  166.1158 H   0  0  0  0  0  0  0  0  0  0  0  0
  132.0458  136.2667  166.5811 H   0  0  0  0  0  0  0  0  0  0  0  0
  128.0709  133.2078  158.3822 H   0  0  0  0  0  0  0  0  0  0  0  0
  130.0052  134.3684  156.5456 H   0  0  0  0  0  0  0  0  0  0  0  0
  128.5789  131.5751  156.5246 H   0  0  0  0  0  0  0  0  0  0  0  0
  129.4480  132.3598  155.0997 H   0  0  0  0  0  0  0  0  0  0  0  0
  131.6030  132.4014  156.4369 H   0  0  0  0  0  0  0  0  0  0  0  0
  130.7343  131.6171  157.8620 H   0  0  0  0  0  0  0  0  0  0  0  0
  127.2200  135.1354  162.4294 H   0  0  0  0  0  0  0  0  0  0  0  0
  126.9520  136.4523  161.2680 H   0  0  0  0  0  0  0  0  0  0  0  0
  124.7918  135.9044  162.0750 H   0  0  0  0  0  0  0  0  0  0  0  0
  1  2  2  0
  2 28  1  0
  2  3  1  0
  3  4  1  0
  3 29  1  0
  3 30  1  0
  4  5  1  0
  4 31  1  0
  4 32  1  0
  5  6  1  6
  5  7  1  0
  5 27  1  0
  7  8  1  0
  9  7  2  0
  9 10  1  0
  9 23  1  0
 10 11  1  0
 10 33  1  0
 11 12  1  0
 11 34  1  0
 11 35  1  0
 12 13  1  0
 12 36  1  0
 12 37  1  0
 13 18  1  0
 13 14  2  0
 14 15  1  0
 14 38  1  0
 15 16  2  0
 15 39  1  0
 16 17  1  0
 16 40  1  0
 17 22  1  0
 17 18  2  0
 18 19  1  0
 19 20  1  0
 20 21  1  0
 20 41  1  0
 20 42  1  0
 21 22  1  0
 21 43  1  0
 21 44  1  0
 22 45  1  0
 22 46  1  0
 23 24  1  0
 23 47  1  0
 24 26  1  0
 24 25  1  0
 24 48  1  0
 25 26  1  0
 25 49  1  0
 25 50  1  0
 26 51  1  0
 26 52  1  0
 27 28  1  0
 27 53  1  0
 27 54  1  0
 28 55  1  0
M  CHG  1   7   1
M  END
>  <DOCK_score>  (1) 
-41.373558

>  <SMILES>  (1) 
O=C1CC[C@H]([NH+]=C(NCCc2cccc3c2OCCC3)NC2CC2)CN1

$$$$
