Nc1ccc(-c2c[nH]c(N[C@H](c3ccnn3-c3ccccc3)C3CC(=O)CCC3=O)[nH+]2)cc1
     RDKit          3D

 58 62  0  0  1  0  0  0  0  0999 V2000
  131.0289  129.3846  152.0616 N   0  0  0  0  0  0  0  0  0  0  0  0
  130.8189  130.0856  153.2515 C   0  0  0  0  0  0  0  0  0  0  0  0
  129.9759  131.1908  153.2659 C   0  0  0  0  0  0  0  0  0  0  0  0
  129.7677  131.8851  154.4390 C   0  0  0  0  0  0  0  0  0  0  0  0
  130.4034  131.4778  155.6109 C   0  0  0  0  0  0  0  0  0  0  0  0
  130.1810  132.2231  156.8743 C   0  0  0  0  0  0  0  0  0  0  0  0
  129.6617  131.7153  158.0192 C   0  0  0  0  0  0  0  0  0  0  0  0
  129.6373  132.7405  158.9349 N   0  0  0  0  0  0  0  0  0  0  0  0
  129.3217  132.6859  159.8505 H   0  0  0  0  0  0  0  0  0  0  0  0
  130.1344  133.8470  158.3182 C   0  0  0  0  0  0  0  0  0  0  0  0
  130.2767  135.0969  158.8964 N   0  0  0  0  0  0  0  0  0  0  0  0
  129.8753  135.3098  160.2892 C   0  0  2  0  0  0  0  0  0  0  0  0
  130.1662  134.4461  160.8871 H   0  0  0  0  0  0  0  0  0  0  0  0
  128.3807  135.4890  160.3594 C   0  0  0  0  0  0  0  0  0  0  0  0
  127.5235  135.4615  159.3127 C   0  0  0  0  0  0  0  0  0  0  0  0
  126.2312  135.6664  159.8087 C   0  0  0  0  0  0  0  0  0  0  0  0
  126.3099  135.8195  161.1061 N   0  0  0  0  0  0  0  0  0  0  0  0
  127.6559  135.7121  161.4790 N   0  0  0  0  0  0  0  0  0  0  0  0
  128.1619  135.8176  162.7820 C   0  0  0  0  0  0  0  0  0  0  0  0
  127.9790  136.9876  163.5067 C   0  0  0  0  0  0  0  0  0  0  0  0
  128.4741  137.0865  164.7924 C   0  0  0  0  0  0  0  0  0  0  0  0
  129.1613  136.0258  165.3536 C   0  0  0  0  0  0  0  0  0  0  0  0
  129.3497  134.8612  164.6324 C   0  0  0  0  0  0  0  0  0  0  0  0
  128.8519  134.7542  163.3484 C   0  0  0  0  0  0  0  0  0  0  0  0
  130.5653  136.5625  160.8329 C   0  0  2  0  0  0  0  0  0  0  0  0
  130.1737  137.7768  159.9813 C   0  0  0  0  0  0  0  0  0  0  0  0
  131.0595  138.9404  160.3645 C   0  0  0  0  0  0  0  0  0  0  0  0
  130.5770  139.9893  160.7186 O   0  0  0  0  0  0  0  0  0  0  0  0
  132.5598  138.7676  160.2971 C   0  0  0  0  0  0  0  0  0  0  0  0
  132.9513  137.5533  161.1487 C   0  0  0  0  0  0  0  0  0  0  0  0
  132.0656  136.3896  160.7654 C   0  0  0  0  0  0  0  0  0  0  0  0
  132.5480  135.3405  160.4120 O   0  0  0  0  0  0  0  0  0  0  0  0
  130.4613  133.5330  157.0883 N   0  0  0  0  0  0  0  0  0  0  0  0
  130.8429  134.1404  156.4354 H   0  0  0  0  0  0  0  0  0  0  0  0
  131.2528  130.3726  155.5927 C   0  0  0  0  0  0  0  0  0  0  0  0
  131.4535  129.6780  154.4185 C   0  0  0  0  0  0  0  0  0  0  0  0
  130.5862  129.6686  151.2465 H   0  0  0  0  0  0  0  0  0  0  0  0
  131.6172  128.6135  152.0506 H   0  0  0  0  0  0  0  0  0  0  0  0
  129.4837  131.5060  152.3579 H   0  0  0  0  0  0  0  0  0  0  0  0
  129.1125  132.7435  154.4500 H   0  0  0  0  0  0  0  0  0  0  0  0
  129.3343  130.6992  158.1821 H   0  0  0  0  0  0  0  0  0  0  0  0
  130.6422  135.8316  158.3792 H   0  0  0  0  0  0  0  0  0  0  0  0
  127.7896  135.3064  158.2776 H   0  0  0  0  0  0  0  0  0  0  0  0
  125.3253  135.6966  159.2215 H   0  0  0  0  0  0  0  0  0  0  0  0
  127.4462  137.8179  163.0673 H   0  0  0  0  0  0  0  0  0  0  0  0
  128.3284  137.9948  165.3582 H   0  0  0  0  0  0  0  0  0  0  0  0
  129.5515  136.1072  166.3573 H   0  0  0  0  0  0  0  0  0  0  0  0
  129.8862  134.0343  165.0736 H   0  0  0  0  0  0  0  0  0  0  0  0
  128.9989  133.8441  162.7857 H   0  0  0  0  0  0  0  0  0  0  0  0
  130.2620  136.7276  161.8668 H   0  0  0  0  0  0  0  0  0  0  0  0
  130.3125  137.5434  158.9256 H   0  0  0  0  0  0  0  0  0  0  0  0
  129.1310  138.0337  160.1679 H   0  0  0  0  0  0  0  0  0  0  0  0
  132.8630  138.6025  159.2632 H   0  0  0  0  0  0  0  0  0  0  0  0
  133.0488  139.6605  160.6863 H   0  0  0  0  0  0  0  0  0  0  0  0
  133.9941  137.2963  160.9621 H   0  0  0  0  0  0  0  0  0  0  0  0
  132.8125  137.7867  162.2044 H   0  0  0  0  0  0  0  0  0  0  0  0
  131.7501  130.0582  156.4984 H   0  0  0  0  0  0  0  0  0  0  0  0
  132.1081  128.8190  154.4049 H   0  0  0  0  0  0  0  0  0  0  0  0
  1  2  1  0
  1 37  1  0
  1 38  1  0
  2 36  2  0
  2  3  1  0
  3  4  2  0
  3 39  1  0
  4  5  1  0
  4 40  1  0
  5  6  1  0
  5 35  2  0
  6 33  1  0
  6  7  2  0
  7  8  1  0
  7 41  1  0
  8  9  1  0
  8 10  1  0
 10 11  1  0
 10 33  2  0
 11 12  1  0
 11 42  1  0
 12 13  1  1
 12 14  1  0
 12 25  1  0
 14 18  1  0
 14 15  2  0
 15 16  1  0
 15 43  1  0
 16 17  2  0
 16 44  1  0
 17 18  1  0
 18 19  1  0
 19 24  1  0
 19 20  2  0
 20 21  1  0
 20 45  1  0
 21 22  2  0
 21 46  1  0
 22 23  1  0
 22 47  1  0
 23 24  2  0
 23 48  1  0
 24 49  1  0
 25 31  1  0
 25 26  1  0
 25 50  1  1
 26 27  1  0
 26 51  1  0
 26 52  1  0
 27 28  2  0
 27 29  1  0
 29 30  1  0
 29 53  1  0
 29 54  1  0
 30 31  1  0
 30 55  1  0
 30 56  1  0
 31 32  2  0
 33 34  1  0
 35 36  1  0
 35 57  1  0
 36 58  1  0
M  CHG  1  33   1
M  END
>  <DOCK_score>  (1) 
-57.942261

>  <SMILES>  (1) 
Nc1ccc(-c2c[nH]c(N[C@H](c3ccnn3-c3ccccc3)C3CC(=O)CCC3=O)[nH+]2)cc1

$$$$
