NC(=O)C[NH+]=C(NCc1ncccc1C1CC1)NC1CC1
     RDKit          3D

 43 45  0  0  1  0  0  0  0  0999 V2000
  125.8830  134.9982  161.1497 N   0  0  0  0  0  0  0  0  0  0  0  0
  127.1461  135.0158  160.6799 C   0  0  0  0  0  0  0  0  0  0  0  0
  127.5130  135.9208  159.9606 O   0  0  0  0  0  0  0  0  0  0  0  0
  128.1026  133.9110  161.0482 C   0  0  0  0  0  0  0  0  0  0  0  0
  129.0675  133.7183  159.9627 N   0  0  0  0  0  0  0  0  0  0  0  0
  129.1279  132.8605  159.5142 H   0  0  0  0  0  0  0  0  0  0  0  0
  129.8446  134.6998  159.5997 C   0  0  0  0  0  0  0  0  0  0  0  0
  130.2750  134.7900  158.2971 N   0  0  0  0  0  0  0  0  0  0  0  0
  129.8601  133.7832  157.3172 C   0  0  0  0  0  0  0  0  0  0  0  0
  130.3325  132.4234  157.7632 C   0  0  0  0  0  0  0  0  0  0  0  0
  130.1759  132.0593  159.0211 N   0  0  0  0  0  0  0  0  0  0  0  0
  130.5737  130.8799  159.4561 C   0  0  0  0  0  0  0  0  0  0  0  0
  131.1742  129.9761  158.5997 C   0  0  0  0  0  0  0  0  0  0  0  0
  131.3554  130.3234  157.2700 C   0  0  0  0  0  0  0  0  0  0  0  0
  130.9243  131.5725  156.8494 C   0  0  0  0  0  0  0  0  0  0  0  0
  131.0992  131.9966  155.4140 C   0  0  0  0  0  0  0  0  0  0  0  0
  129.8914  131.8599  154.4847 C   0  0  0  0  0  0  0  0  0  0  0  0
  131.0768  130.9013  154.3459 C   0  0  0  0  0  0  0  0  0  0  0  0
  130.2339  135.6447  160.5194 N   0  0  0  0  0  0  0  0  0  0  0  0
  131.1074  136.7477  160.1114 C   0  0  0  0  0  0  0  0  0  0  0  0
  131.1104  138.0057  160.9823 C   0  0  0  0  0  0  0  0  0  0  0  0
  130.4394  138.0283  159.6066 C   0  0  0  0  0  0  0  0  0  0  0  0
  125.5895  134.2743  161.7249 H   0  0  0  0  0  0  0  0  0  0  0  0
  125.2674  135.7092  160.9125 H   0  0  0  0  0  0  0  0  0  0  0  0
  127.5465  132.9873  161.2083 H   0  0  0  0  0  0  0  0  0  0  0  0
  128.6327  134.1790  161.9622 H   0  0  0  0  0  0  0  0  0  0  0  0
  130.8533  135.5204  158.0270 H   0  0  0  0  0  0  0  0  0  0  0  0
  130.2966  134.0192  156.3467 H   0  0  0  0  0  0  0  0  0  0  0  0
  128.7731  133.7816  157.2358 H   0  0  0  0  0  0  0  0  0  0  0  0
  130.4327  130.6187  160.4945 H   0  0  0  0  0  0  0  0  0  0  0  0
  131.4982  129.0117  158.9622 H   0  0  0  0  0  0  0  0  0  0  0  0
  131.8217  129.6376  156.5782 H   0  0  0  0  0  0  0  0  0  0  0  0
  131.7654  132.8439  155.2519 H   0  0  0  0  0  0  0  0  0  0  0  0
  128.9702  131.4631  154.9116 H   0  0  0  0  0  0  0  0  0  0  0  0
  129.7633  132.6171  153.7112 H   0  0  0  0  0  0  0  0  0  0  0  0
  131.7279  131.0282  153.4811 H   0  0  0  0  0  0  0  0  0  0  0  0
  130.9358  129.8739  154.6816 H   0  0  0  0  0  0  0  0  0  0  0  0
  129.9302  135.5810  161.4384 H   0  0  0  0  0  0  0  0  0  0  0  0
  132.0491  136.4547  159.6472 H   0  0  0  0  0  0  0  0  0  0  0  0
  130.4624  138.0126  161.8587 H   0  0  0  0  0  0  0  0  0  0  0  0
  132.0539  138.5405  161.0907 H   0  0  0  0  0  0  0  0  0  0  0  0
  130.9417  138.5779  158.8106 H   0  0  0  0  0  0  0  0  0  0  0  0
  129.3499  138.0498  159.5777 H   0  0  0  0  0  0  0  0  0  0  0  0
  1  2  1  0
  1 23  1  0
  1 24  1  0
  2  3  2  0
  2  4  1  0
  4  5  1  0
  4 25  1  0
  4 26  1  0
  5  6  1  0
  7  5  2  0
  7  8  1  0
  7 19  1  0
  8  9  1  0
  8 27  1  0
  9 10  1  0
  9 28  1  0
  9 29  1  0
 10 15  1  0
 10 11  2  0
 11 12  1  0
 12 13  2  0
 12 30  1  0
 13 14  1  0
 13 31  1  0
 14 15  2  0
 14 32  1  0
 15 16  1  0
 16 18  1  0
 16 17  1  0
 16 33  1  0
 17 18  1  0
 17 34  1  0
 17 35  1  0
 18 36  1  0
 18 37  1  0
 19 20  1  0
 19 38  1  0
 20 22  1  0
 20 21  1  0
 20 39  1  0
 21 22  1  0
 21 40  1  0
 21 41  1  0
 22 42  1  0
 22 43  1  0
M  CHG  1   5   1
M  END
>  <DOCK_score>  (1) 
-45.375168

>  <SMILES>  (1) 
NC(=O)C[NH+]=C(NCc1ncccc1C1CC1)NC1CC1

$$$$
