O=C1Nc2ccccc2CC[C@@H]1Sc1cc(Br)c(C[NH2+]C2=CCCC2)s1
     RDKit          3D

 48 51  0  0  1  0  0  0  0  0999 V2000
  134.4281  135.6688  162.9684 O   0  0  0  0  0  0  0  0  0  0  0  0
  134.4000  136.4070  162.0066 C   0  0  0  0  0  0  0  0  0  0  0  0
  135.3173  137.3309  161.9583 N   0  0  0  0  0  0  0  0  0  0  0  0
  135.5686  138.4429  161.1881 C   0  0  0  0  0  0  0  0  0  0  0  0
  136.6269  139.2494  161.6419 C   0  0  0  0  0  0  0  0  0  0  0  0
  137.0118  140.3775  160.9599 C   0  0  0  0  0  0  0  0  0  0  0  0
  136.3469  140.7341  159.8004 C   0  0  0  0  0  0  0  0  0  0  0  0
  135.3053  139.9554  159.3516 C   0  0  0  0  0  0  0  0  0  0  0  0
  134.9024  138.8094  160.0388 C   0  0  0  0  0  0  0  0  0  0  0  0
  133.7500  138.0717  159.4390 C   0  0  0  0  0  0  0  0  0  0  0  0
  132.8027  137.4419  160.4121 C   0  0  0  0  0  0  0  0  0  0  0  0
  133.3227  136.1581  161.0130 C   0  0  2  0  0  0  0  0  0  0  0  0
  133.7159  135.5271  160.2158 H   0  0  0  0  0  0  0  0  0  0  0  0
  131.9543  135.2920  161.8304 S   0  0  0  0  0  0  0  0  0  0  0  0
  131.0828  134.5661  160.4819 C   0  0  0  0  0  0  0  0  0  0  0  0
  129.7635  134.3225  160.4541 C   0  0  0  0  0  0  0  0  0  0  0  0
  129.3062  133.7431  159.2813 C   0  0  0  0  0  0  0  0  0  0  0  0
  127.4871  133.3066  159.0054 Br  0  0  0  0  0  0  0  0  0  0  0  0
  130.2445  133.5170  158.3620 C   0  0  0  0  0  0  0  0  0  0  0  0
  130.0009  132.9040  157.0070 C   0  0  0  0  0  0  0  0  0  0  0  0
  131.2712  132.8138  156.2748 N   0  0  0  0  0  0  0  0  0  0  0  0
  131.6601  133.7379  156.1609 H   0  0  0  0  0  0  0  0  0  0  0  0
  131.9180  132.2383  156.7930 H   0  0  0  0  0  0  0  0  0  0  0  0
  131.0452  132.2452  155.0179 C   0  0  0  0  0  0  0  0  0  0  0  0
  130.7575  132.9246  153.9411 C   0  0  0  0  0  0  0  0  0  0  0  0
  130.5773  132.0094  152.7523 C   0  0  0  0  0  0  0  0  0  0  0  0
  131.2067  130.6664  153.1893 C   0  0  0  0  0  0  0  0  0  0  0  0
  131.0956  130.7630  154.7287 C   0  0  0  0  0  0  0  0  0  0  0  0
  131.8083  134.0487  158.9657 S   0  0  0  0  0  0  0  0  0  0  0  0
  135.9967  137.2014  162.6385 H   0  0  0  0  0  0  0  0  0  0  0  0
  137.1490  138.9756  162.5468 H   0  0  0  0  0  0  0  0  0  0  0  0
  137.8279  140.9825  161.3265 H   0  0  0  0  0  0  0  0  0  0  0  0
  136.6430  141.6161  159.2520 H   0  0  0  0  0  0  0  0  0  0  0  0
  134.7876  140.2373  158.4466 H   0  0  0  0  0  0  0  0  0  0  0  0
  134.1461  137.2879  158.7932 H   0  0  0  0  0  0  0  0  0  0  0  0
  133.1870  138.7670  158.8165 H   0  0  0  0  0  0  0  0  0  0  0  0
  131.8639  137.2323  159.8997 H   0  0  0  0  0  0  0  0  0  0  0  0
  132.6075  138.1501  161.2173 H   0  0  0  0  0  0  0  0  0  0  0  0
  129.1099  134.5588  161.2807 H   0  0  0  0  0  0  0  0  0  0  0  0
  129.5808  131.9058  157.1300 H   0  0  0  0  0  0  0  0  0  0  0  0
  129.3022  133.5258  156.4474 H   0  0  0  0  0  0  0  0  0  0  0  0
  130.6628  133.9998  153.9041 H   0  0  0  0  0  0  0  0  0  0  0  0
  131.0981  132.4073  151.8812 H   0  0  0  0  0  0  0  0  0  0  0  0
  129.5175  131.8786  152.5332 H   0  0  0  0  0  0  0  0  0  0  0  0
  132.2486  130.6021  152.8755 H   0  0  0  0  0  0  0  0  0  0  0  0
  130.6326  129.8219  152.8079 H   0  0  0  0  0  0  0  0  0  0  0  0
  131.9687  130.3133  155.2014 H   0  0  0  0  0  0  0  0  0  0  0  0
  130.1830  130.2774  155.0746 H   0  0  0  0  0  0  0  0  0  0  0  0
  1  2  2  0
  2 12  1  0
  2  3  1  0
  3  4  1  0
  3 30  1  0
  4  9  2  0
  4  5  1  0
  5  6  2  0
  5 31  1  0
  6  7  1  0
  6 32  1  0
  7  8  2  0
  7 33  1  0
  8  9  1  0
  8 34  1  0
  9 10  1  0
 10 11  1  0
 10 35  1  0
 10 36  1  0
 11 12  1  0
 11 37  1  0
 11 38  1  0
 12 13  1  6
 12 14  1  0
 14 15  1  0
 15 29  1  0
 15 16  2  0
 16 17  1  0
 16 39  1  0
 17 18  1  0
 17 19  2  0
 19 20  1  0
 19 29  1  0
 20 21  1  0
 20 40  1  0
 20 41  1  0
 21 22  1  0
 21 23  1  0
 21 24  1  0
 24 28  1  0
 24 25  2  0
 25 26  1  0
 25 42  1  0
 26 27  1  0
 26 43  1  0
 26 44  1  0
 27 28  1  0
 27 45  1  0
 27 46  1  0
 28 47  1  0
 28 48  1  0
M  CHG  1  21   1
M  END
>  <DOCK_score>  (1) 
-56.326553

>  <SMILES>  (1) 
O=C1Nc2ccccc2CC[C@@H]1Sc1cc(Br)c(C[NH2+]C2=CCCC2)s1

$$$$
