O=C1CC[C@H](NC(NC2CCC2)=[NH+]CCc2cncc3ccccc23)CN1
     RDKit          3D

 55 58  0  0  1  0  0  0  0  0999 V2000
  123.9353  132.8861  160.8743 O   0  0  0  0  0  0  0  0  0  0  0  0
  125.1081  133.1412  160.6996 C   0  0  0  0  0  0  0  0  0  0  0  0
  126.0208  132.0292  160.2685 C   0  0  0  0  0  0  0  0  0  0  0  0
  127.4778  132.4233  160.5222 C   0  0  0  0  0  0  0  0  0  0  0  0
  127.7077  133.8266  159.9480 C   0  0  2  0  0  0  0  0  0  0  0  0
  127.3772  133.8582  158.9098 H   0  0  0  0  0  0  0  0  0  0  0  0
  129.1323  134.1601  160.0208 N   0  0  0  0  0  0  0  0  0  0  0  0
  129.9660  133.8471  158.9734 C   0  0  0  0  0  0  0  0  0  0  0  0
  129.4629  133.2210  157.8577 N   0  0  0  0  0  0  0  0  0  0  0  0
  130.3151  132.3226  157.0748 C   0  0  0  0  0  0  0  0  0  0  0  0
  129.5278  131.3056  156.2320 C   0  0  0  0  0  0  0  0  0  0  0  0
  130.5967  130.2718  156.6238 C   0  0  0  0  0  0  0  0  0  0  0  0
  130.8495  131.1250  157.8778 C   0  0  0  0  0  0  0  0  0  0  0  0
  131.2335  134.1439  159.0383 N   0  0  0  0  0  0  0  0  0  0  0  0
  131.8219  133.9231  158.2994 H   0  0  0  0  0  0  0  0  0  0  0  0
  131.7697  134.8112  160.2273 C   0  0  0  0  0  0  0  0  0  0  0  0
  133.2713  135.0435  160.0482 C   0  0  0  0  0  0  0  0  0  0  0  0
  133.8228  135.7298  161.2713 C   0  0  0  0  0  0  0  0  0  0  0  0
  134.2910  135.0032  162.3239 C   0  0  0  0  0  0  0  0  0  0  0  0
  134.7855  135.5820  163.4093 N   0  0  0  0  0  0  0  0  0  0  0  0
  134.8501  136.8851  163.5530 C   0  0  0  0  0  0  0  0  0  0  0  0
  134.3883  137.7256  162.5276 C   0  0  0  0  0  0  0  0  0  0  0  0
  134.4357  139.1247  162.6322 C   0  0  0  0  0  0  0  0  0  0  0  0
  133.9738  139.8903  161.6052 C   0  0  0  0  0  0  0  0  0  0  0  0
  133.4538  139.3078  160.4506 C   0  0  0  0  0  0  0  0  0  0  0  0
  133.3919  137.9539  160.3140 C   0  0  0  0  0  0  0  0  0  0  0  0
  133.8586  137.1335  161.3513 C   0  0  0  0  0  0  0  0  0  0  0  0
  126.9028  134.8312  160.7734 C   0  0  0  0  0  0  0  0  0  0  0  0
  125.5181  134.3941  160.9002 N   0  0  0  0  0  0  0  0  0  0  0  0
  125.7858  131.1278  160.8344 H   0  0  0  0  0  0  0  0  0  0  0  0
  125.8781  131.8352  159.2054 H   0  0  0  0  0  0  0  0  0  0  0  0
  128.1414  131.7123  160.0302 H   0  0  0  0  0  0  0  0  0  0  0  0
  127.6748  132.4287  161.5943 H   0  0  0  0  0  0  0  0  0  0  0  0
  129.4874  134.6019  160.8080 H   0  0  0  0  0  0  0  0  0  0  0  0
  128.5435  133.3740  157.5887 H   0  0  0  0  0  0  0  0  0  0  0  0
  131.0861  132.8519  156.5148 H   0  0  0  0  0  0  0  0  0  0  0  0
  128.5377  131.0822  156.6296 H   0  0  0  0  0  0  0  0  0  0  0  0
  129.5146  131.5378  155.1671 H   0  0  0  0  0  0  0  0  0  0  0  0
  131.4444  130.2394  155.9393 H   0  0  0  0  0  0  0  0  0  0  0  0
  130.1898  129.2844  156.8422 H   0  0  0  0  0  0  0  0  0  0  0  0
  131.9037  131.2118  158.1418 H   0  0  0  0  0  0  0  0  0  0  0  0
  130.2209  130.8524  158.7255 H   0  0  0  0  0  0  0  0  0  0  0  0
  131.6009  134.1842  161.1028 H   0  0  0  0  0  0  0  0  0  0  0  0
  131.2675  135.7688  160.3639 H   0  0  0  0  0  0  0  0  0  0  0  0
  133.7734  134.0858  159.9115 H   0  0  0  0  0  0  0  0  0  0  0  0
  133.4400  135.6704  159.1726 H   0  0  0  0  0  0  0  0  0  0  0  0
  134.2627  133.9249  162.2709 H   0  0  0  0  0  0  0  0  0  0  0  0
  135.2582  137.3100  164.4582 H   0  0  0  0  0  0  0  0  0  0  0  0
  134.8362  139.5907  163.5205 H   0  0  0  0  0  0  0  0  0  0  0  0
  134.0104  140.9665  161.6868 H   0  0  0  0  0  0  0  0  0  0  0  0
  133.0948  139.9397  159.6517 H   0  0  0  0  0  0  0  0  0  0  0  0
  132.9869  137.5156  159.4139 H   0  0  0  0  0  0  0  0  0  0  0  0
  127.3452  134.9189  161.7657 H   0  0  0  0  0  0  0  0  0  0  0  0
  126.9299  135.8042  160.2830 H   0  0  0  0  0  0  0  0  0  0  0  0
  124.8531  135.0561  161.1463 H   0  0  0  0  0  0  0  0  0  0  0  0
  1  2  2  0
  2 29  1  0
  2  3  1  0
  3  4  1  0
  3 30  1  0
  3 31  1  0
  4  5  1  0
  4 32  1  0
  4 33  1  0
  5  6  1  6
  5  7  1  0
  5 28  1  0
  7 34  1  0
  8  7  1  0
  8  9  1  0
  8 14  2  0
  9 10  1  0
  9 35  1  0
 10 13  1  0
 10 11  1  0
 10 36  1  0
 11 12  1  0
 11 37  1  0
 11 38  1  0
 12 13  1  0
 12 39  1  0
 12 40  1  0
 13 41  1  0
 13 42  1  0
 14 15  1  0
 14 16  1  0
 16 17  1  0
 16 43  1  0
 16 44  1  0
 17 18  1  0
 17 45  1  0
 17 46  1  0
 18 27  1  0
 18 19  2  0
 19 20  1  0
 19 47  1  0
 20 21  2  0
 21 22  1  0
 21 48  1  0
 22 27  2  0
 22 23  1  0
 23 24  2  0
 23 49  1  0
 24 25  1  0
 24 50  1  0
 25 26  2  0
 25 51  1  0
 26 27  1  0
 26 52  1  0
 28 29  1  0
 28 53  1  0
 28 54  1  0
 29 55  1  0
M  CHG  1  14   1
M  END
>  <DOCK_score>  (1) 
-42.803169

>  <SMILES>  (1) 
O=C1CC[C@H](NC(NC2CCC2)=[NH+]CCc2cncc3ccccc23)CN1

$$$$
