CCc1ccc(-c2c[nH]c(N[C@H](c3ccccc3)c3ccc(C4=CCCCC4)cc3)[nH+]2)cc1
     RDKit          3D

 65 69  0  0  1  0  0  0  0  0999 V2000
  129.7283  128.5708  150.6476 C   0  0  0  0  0  0  0  0  0  0  0  0
  130.8734  129.5718  150.8125 C   0  0  0  0  0  0  0  0  0  0  0  0
  130.8263  130.1658  152.1967 C   0  0  0  0  0  0  0  0  0  0  0  0
  131.5158  129.5590  153.2304 C   0  0  0  0  0  0  0  0  0  0  0  0
  131.4809  130.1015  154.4989 C   0  0  0  0  0  0  0  0  0  0  0  0
  130.7397  131.2569  154.7396 C   0  0  0  0  0  0  0  0  0  0  0  0
  130.6938  131.8417  156.1021 C   0  0  0  0  0  0  0  0  0  0  0  0
  130.2407  131.2237  157.2209 C   0  0  0  0  0  0  0  0  0  0  0  0
  130.3770  132.1190  158.2538 N   0  0  0  0  0  0  0  0  0  0  0  0
  130.1374  131.9669  159.1813 H   0  0  0  0  0  0  0  0  0  0  0  0
  130.9100  133.2590  157.7355 C   0  0  0  0  0  0  0  0  0  0  0  0
  131.2049  134.4081  158.4488 N   0  0  0  0  0  0  0  0  0  0  0  0
  130.9434  134.4635  159.8892 C   0  0  2  0  0  0  0  0  0  0  0  0
  131.2113  133.5100  160.3441 H   0  0  0  0  0  0  0  0  0  0  0  0
  129.4803  134.7385  160.1238 C   0  0  0  0  0  0  0  0  0  0  0  0
  128.8574  134.2462  161.2555 C   0  0  0  0  0  0  0  0  0  0  0  0
  127.5164  134.5022  161.4729 C   0  0  0  0  0  0  0  0  0  0  0  0
  126.7962  135.2427  160.5542 C   0  0  0  0  0  0  0  0  0  0  0  0
  127.4179  135.7305  159.4199 C   0  0  0  0  0  0  0  0  0  0  0  0
  128.7600  135.4782  159.2047 C   0  0  0  0  0  0  0  0  0  0  0  0
  131.7666  135.5641  160.5073 C   0  0  0  0  0  0  0  0  0  0  0  0
  131.5981  136.8705  160.0847 C   0  0  0  0  0  0  0  0  0  0  0  0
  132.3448  137.8835  160.6506 C   0  0  0  0  0  0  0  0  0  0  0  0
  133.2792  137.5864  161.6434 C   0  0  0  0  0  0  0  0  0  0  0  0
  134.0861  138.6659  162.2503 C   0  0  0  0  0  0  0  0  0  0  0  0
  133.4552  139.6329  162.8714 C   0  0  0  0  0  0  0  0  0  0  0  0
  134.1435  140.7955  163.5252 C   0  0  0  0  0  0  0  0  0  0  0  0
  135.6259  140.4801  163.7348 C   0  0  0  0  0  0  0  0  0  0  0  0
  136.2034  139.9563  162.4141 C   0  0  0  0  0  0  0  0  0  0  0  0
  135.5795  138.5876  162.1246 C   0  0  0  0  0  0  0  0  0  0  0  0
  133.4482  136.2658  162.0611 C   0  0  0  0  0  0  0  0  0  0  0  0
  132.6917  135.2628  161.4910 C   0  0  0  0  0  0  0  0  0  0  0  0
  131.1033  133.0873  156.4505 N   0  0  0  0  0  0  0  0  0  0  0  0
  131.4771  133.7464  155.8449 H   0  0  0  0  0  0  0  0  0  0  0  0
  130.0421  131.8613  153.6953 C   0  0  0  0  0  0  0  0  0  0  0  0
  130.0887  131.3132  152.4295 C   0  0  0  0  0  0  0  0  0  0  0  0
  129.7623  128.1413  149.6465 H   0  0  0  0  0  0  0  0  0  0  0  0
  129.8312  127.7768  151.3873 H   0  0  0  0  0  0  0  0  0  0  0  0
  128.7758  129.0806  150.7922 H   0  0  0  0  0  0  0  0  0  0  0  0
  131.8255  129.0626  150.6676 H   0  0  0  0  0  0  0  0  0  0  0  0
  130.7701  130.3665  150.0725 H   0  0  0  0  0  0  0  0  0  0  0  0
  132.0860  128.6609  153.0437 H   0  0  0  0  0  0  0  0  0  0  0  0
  132.0235  129.6292  155.3045 H   0  0  0  0  0  0  0  0  0  0  0  0
  129.8475  130.2200  157.2872 H   0  0  0  0  0  0  0  0  0  0  0  0
  131.5850  135.1766  157.9949 H   0  0  0  0  0  0  0  0  0  0  0  0
  129.4190  133.6647  161.9714 H   0  0  0  0  0  0  0  0  0  0  0  0
  127.0307  134.1215  162.3591 H   0  0  0  0  0  0  0  0  0  0  0  0
  125.7479  135.4404  160.7227 H   0  0  0  0  0  0  0  0  0  0  0  0
  126.8554  136.3090  158.7021 H   0  0  0  0  0  0  0  0  0  0  0  0
  129.2457  135.8592  158.3186 H   0  0  0  0  0  0  0  0  0  0  0  0
  130.8778  137.0987  159.3131 H   0  0  0  0  0  0  0  0  0  0  0  0
  132.2095  138.9036  160.3227 H   0  0  0  0  0  0  0  0  0  0  0  0
  132.3770  139.5902  162.9157 H   0  0  0  0  0  0  0  0  0  0  0  0
  134.0477  141.6759  162.8896 H   0  0  0  0  0  0  0  0  0  0  0  0
  133.6768  140.9961  164.4895 H   0  0  0  0  0  0  0  0  0  0  0  0
  136.1546  141.3858  164.0321 H   0  0  0  0  0  0  0  0  0  0  0  0
  135.7329  139.7222  164.5109 H   0  0  0  0  0  0  0  0  0  0  0  0
  135.9635  140.6505  161.6087 H   0  0  0  0  0  0  0  0  0  0  0  0
  137.2853  139.8567  162.5014 H   0  0  0  0  0  0  0  0  0  0  0  0
  135.9638  137.8540  162.8334 H   0  0  0  0  0  0  0  0  0  0  0  0
  135.8412  138.2800  161.1120 H   0  0  0  0  0  0  0  0  0  0  0  0
  134.1701  136.0292  162.8289 H   0  0  0  0  0  0  0  0  0  0  0  0
  132.8217  134.2403  161.8133 H   0  0  0  0  0  0  0  0  0  0  0  0
  129.4659  132.7567  153.8762 H   0  0  0  0  0  0  0  0  0  0  0  0
  129.5489  131.7810  151.6195 H   0  0  0  0  0  0  0  0  0  0  0  0
  1  2  1  0
  1 37  1  0
  1 38  1  0
  1 39  1  0
  2  3  1  0
  2 40  1  0
  2 41  1  0
  3 36  2  0
  3  4  1  0
  4  5  2  0
  4 42  1  0
  5  6  1  0
  5 43  1  0
  6  7  1  0
  6 35  2  0
  7 33  1  0
  7  8  2  0
  8  9  1  0
  8 44  1  0
  9 10  1  0
  9 11  1  0
 11 12  1  0
 11 33  2  0
 12 13  1  0
 12 45  1  0
 13 14  1  1
 13 15  1  0
 13 21  1  0
 15 20  1  0
 15 16  2  0
 16 17  1  0
 16 46  1  0
 17 18  2  0
 17 47  1  0
 18 19  1  0
 18 48  1  0
 19 20  2  0
 19 49  1  0
 20 50  1  0
 21 32  1  0
 21 22  2  0
 22 23  1  0
 22 51  1  0
 23 24  2  0
 23 52  1  0
 24 25  1  0
 24 31  1  0
 25 30  1  0
 25 26  2  0
 26 27  1  0
 26 53  1  0
 27 28  1  0
 27 54  1  0
 27 55  1  0
 28 29  1  0
 28 56  1  0
 28 57  1  0
 29 30  1  0
 29 58  1  0
 29 59  1  0
 30 60  1  0
 30 61  1  0
 31 32  2  0
 31 62  1  0
 32 63  1  0
 33 34  1  0
 35 36  1  0
 35 64  1  0
 36 65  1  0
M  CHG  1  33   1
M  END
>  <DOCK_score>  (1) 
-63.381218

>  <SMILES>  (1) 
CCc1ccc(-c2c[nH]c(N[C@H](c3ccccc3)c3ccc(C4=CCCCC4)cc3)[nH+]2)cc1

$$$$
