O=C(NC1CC=CC1)[C@H](Cc1cccc(Br)n1)Nc1[nH]cc(-c2ccccc2)[nH+]1
     RDKit          3D

 52 55  0  0  1  0  0  0  0  0999 V2000
  127.3993  135.6967  159.4742 O   0  0  0  0  0  0  0  0  0  0  0  0
  128.1204  135.0326  160.1883 C   0  0  0  0  0  0  0  0  0  0  0  0
  127.5951  134.0589  160.9577 N   0  0  0  0  0  0  0  0  0  0  0  0
  126.1530  133.8023  160.9315 C   0  0  0  0  0  0  0  0  0  0  0  0
  125.7899  132.5831  161.8107 C   0  0  0  0  0  0  0  0  0  0  0  0
  124.6871  131.8793  161.0547 C   0  0  0  0  0  0  0  0  0  0  0  0
  124.6384  132.2797  159.8133 C   0  0  0  0  0  0  0  0  0  0  0  0
  125.7007  133.3176  159.5345 C   0  0  0  0  0  0  0  0  0  0  0  0
  129.6039  135.2966  160.2154 C   0  0  2  0  0  0  0  0  0  0  0  0
  130.0830  134.6066  160.9100 H   0  0  0  0  0  0  0  0  0  0  0  0
  129.8577  136.7355  160.6692 C   0  0  0  0  0  0  0  0  0  0  0  0
  129.2866  136.9350  162.0495 C   0  0  0  0  0  0  0  0  0  0  0  0
  128.8259  138.1830  162.4242 C   0  0  0  0  0  0  0  0  0  0  0  0
  128.3022  138.3566  163.6962 C   0  0  0  0  0  0  0  0  0  0  0  0
  128.2660  137.2647  164.5497 C   0  0  0  0  0  0  0  0  0  0  0  0
  128.7402  136.0446  164.1032 C   0  0  0  0  0  0  0  0  0  0  0  0
  128.6894  134.5443  165.2533 Br  0  0  0  0  0  0  0  0  0  0  0  0
  129.2318  135.9166  162.8854 N   0  0  0  0  0  0  0  0  0  0  0  0
  130.1590  135.1027  158.8735 N   0  0  0  0  0  0  0  0  0  0  0  0
  130.0497  133.8711  158.2506 C   0  0  0  0  0  0  0  0  0  0  0  0
  129.4579  132.7653  158.7790 N   0  0  0  0  0  0  0  0  0  0  0  0
  129.0403  132.6988  159.6519 H   0  0  0  0  0  0  0  0  0  0  0  0
  129.5585  131.7616  157.8465 C   0  0  0  0  0  0  0  0  0  0  0  0
  130.2156  132.2799  156.7796 C   0  0  0  0  0  0  0  0  0  0  0  0
  130.5577  131.5577  155.5300 C   0  0  0  0  0  0  0  0  0  0  0  0
  130.0639  132.0053  154.3058 C   0  0  0  0  0  0  0  0  0  0  0  0
  130.3906  131.3329  153.1457 C   0  0  0  0  0  0  0  0  0  0  0  0
  131.1964  130.2097  153.1976 C   0  0  0  0  0  0  0  0  0  0  0  0
  131.6847  129.7578  154.4103 C   0  0  0  0  0  0  0  0  0  0  0  0
  131.3695  130.4257  155.5761 C   0  0  0  0  0  0  0  0  0  0  0  0
  130.5041  133.5763  157.0571 N   0  0  0  0  0  0  0  0  0  0  0  0
  130.9718  134.1873  156.4666 H   0  0  0  0  0  0  0  0  0  0  0  0
  128.1718  133.5278  161.5290 H   0  0  0  0  0  0  0  0  0  0  0  0
  125.5948  134.6869  161.2383 H   0  0  0  0  0  0  0  0  0  0  0  0
  126.6523  131.9261  161.9234 H   0  0  0  0  0  0  0  0  0  0  0  0
  125.4317  132.9116  162.7863 H   0  0  0  0  0  0  0  0  0  0  0  0
  124.0258  131.1418  161.4850 H   0  0  0  0  0  0  0  0  0  0  0  0
  123.9316  131.9172  159.0818 H   0  0  0  0  0  0  0  0  0  0  0  0
  125.2818  134.1455  158.9625 H   0  0  0  0  0  0  0  0  0  0  0  0
  126.5376  132.8697  158.9986 H   0  0  0  0  0  0  0  0  0  0  0  0
  129.3786  137.4254  159.9745 H   0  0  0  0  0  0  0  0  0  0  0  0
  130.9307  136.9264  160.6889 H   0  0  0  0  0  0  0  0  0  0  0  0
  128.8730  139.0127  161.7345 H   0  0  0  0  0  0  0  0  0  0  0  0
  127.9353  139.3206  164.0162 H   0  0  0  0  0  0  0  0  0  0  0  0
  127.8690  137.3648  165.5490 H   0  0  0  0  0  0  0  0  0  0  0  0
  130.6031  135.8370  158.4215 H   0  0  0  0  0  0  0  0  0  0  0  0
  129.1881  130.7519  157.9457 H   0  0  0  0  0  0  0  0  0  0  0  0
  129.4308  132.8792  154.2647 H   0  0  0  0  0  0  0  0  0  0  0  0
  130.0127  131.6819  152.1959 H   0  0  0  0  0  0  0  0  0  0  0  0
  131.4455  129.6839  152.2878 H   0  0  0  0  0  0  0  0  0  0  0  0
  132.3139  128.8807  154.4450 H   0  0  0  0  0  0  0  0  0  0  0  0
  131.7515  130.0722  156.5224 H   0  0  0  0  0  0  0  0  0  0  0  0
  1  2  2  0
  2  3  1  0
  2  9  1  0
  3  4  1  0
  3 33  1  0
  4  8  1  0
  4  5  1  0
  4 34  1  0
  5  6  1  0
  5 35  1  0
  5 36  1  0
  6  7  2  0
  6 37  1  0
  7  8  1  0
  7 38  1  0
  8 39  1  0
  8 40  1  0
  9 10  1  1
  9 11  1  0
  9 19  1  0
 11 12  1  0
 11 41  1  0
 11 42  1  0
 12 18  1  0
 12 13  2  0
 13 14  1  0
 13 43  1  0
 14 15  2  0
 14 44  1  0
 15 16  1  0
 15 45  1  0
 16 17  1  0
 16 18  2  0
 19 46  1  0
 20 19  1  0
 20 31  2  0
 20 21  1  0
 21 22  1  0
 21 23  1  0
 23 24  2  0
 23 47  1  0
 24 25  1  0
 24 31  1  0
 25 30  1  0
 25 26  2  0
 26 27  1  0
 26 48  1  0
 27 28  2  0
 27 49  1  0
 28 29  1  0
 28 50  1  0
 29 30  2  0
 29 51  1  0
 30 52  1  0
 31 32  1  0
M  CHG  1  31   1
M  END
>  <DOCK_score>  (1) 
-56.373856

>  <SMILES>  (1) 
O=C(NC1CC=CC1)[C@H](Cc1cccc(Br)n1)Nc1[nH]cc(-c2ccccc2)[nH+]1

$$$$
