CC(C)c1cccc(Oc2cccc([C@@H]([NH3+])C(=O)Nc3cccc(O)c3)c2)c1
     RDKit          3D

 53 55  0  0  1  0  0  0  0  0999 V2000
  136.2848  140.5694  161.1459 C   0  0  0  0  0  0  0  0  0  0  0  0
  134.9089  140.6331  160.4799 C   0  0  0  0  0  0  0  0  0  0  0  0
  135.0508  140.3322  158.9865 C   0  0  0  0  0  0  0  0  0  0  0  0
  133.9967  139.6143  161.1131 C   0  0  0  0  0  0  0  0  0  0  0  0
  132.8307  140.0225  161.7347 C   0  0  0  0  0  0  0  0  0  0  0  0
  131.9921  139.0905  162.3170 C   0  0  0  0  0  0  0  0  0  0  0  0
  132.3142  137.7477  162.2747 C   0  0  0  0  0  0  0  0  0  0  0  0
  133.4860  137.3359  161.6563 C   0  0  0  0  0  0  0  0  0  0  0  0
  133.8076  136.0163  161.6174 O   0  0  0  0  0  0  0  0  0  0  0  0
  132.8309  135.1312  161.2867 C   0  0  0  0  0  0  0  0  0  0  0  0
  132.6745  133.9628  162.0192 C   0  0  0  0  0  0  0  0  0  0  0  0
  131.6812  133.0648  161.6808 C   0  0  0  0  0  0  0  0  0  0  0  0
  130.8395  133.3316  160.6164 C   0  0  0  0  0  0  0  0  0  0  0  0
  130.9968  134.4919  159.8815 C   0  0  0  0  0  0  0  0  0  0  0  0
  130.0818  134.7763  158.7184 C   0  0  1  0  0  0  0  0  0  0  0  0
  129.9650  135.8539  158.6029 H   0  0  0  0  0  0  0  0  0  0  0  0
  130.6596  134.2121  157.4914 N   0  0  0  0  0  0  0  0  0  0  0  0
  130.0469  134.4026  156.7126 H   0  0  0  0  0  0  0  0  0  0  0  0
  131.5611  134.6316  157.3204 H   0  0  0  0  0  0  0  0  0  0  0  0
  130.7675  133.2146  157.5983 H   0  0  0  0  0  0  0  0  0  0  0  0
  128.7352  134.1497  158.9738 C   0  0  0  0  0  0  0  0  0  0  0  0
  128.2997  133.3153  158.2090 O   0  0  0  0  0  0  0  0  0  0  0  0
  128.0148  134.5166  160.0522 N   0  0  0  0  0  0  0  0  0  0  0  0
  126.7646  133.9348  160.2894 C   0  0  0  0  0  0  0  0  0  0  0  0
  126.5120  132.6344  159.8707 C   0  0  0  0  0  0  0  0  0  0  0  0
  125.2779  132.0599  160.1048 C   0  0  0  0  0  0  0  0  0  0  0  0
  124.2937  132.7742  160.7617 C   0  0  0  0  0  0  0  0  0  0  0  0
  124.5386  134.0754  161.1772 C   0  0  0  0  0  0  0  0  0  0  0  0
  123.5679  134.7787  161.8176 O   0  0  0  0  0  0  0  0  0  0  0  0
  125.7758  134.6555  160.9435 C   0  0  0  0  0  0  0  0  0  0  0  0
  131.9888  135.3936  160.2158 C   0  0  0  0  0  0  0  0  0  0  0  0
  134.3262  138.2736  161.0725 C   0  0  0  0  0  0  0  0  0  0  0  0
  136.7064  139.5730  161.0146 H   0  0  0  0  0  0  0  0  0  0  0  0
  136.9447  141.3064  160.6879 H   0  0  0  0  0  0  0  0  0  0  0  0
  136.1838  140.7838  162.2098 H   0  0  0  0  0  0  0  0  0  0  0  0
  134.4874  141.6296  160.6113 H   0  0  0  0  0  0  0  0  0  0  0  0
  135.4723  139.3356  158.8551 H   0  0  0  0  0  0  0  0  0  0  0  0
  134.0705  140.3776  158.5120 H   0  0  0  0  0  0  0  0  0  0  0  0
  135.7106  141.0692  158.5285 H   0  0  0  0  0  0  0  0  0  0  0  0
  132.5751  141.0715  161.7656 H   0  0  0  0  0  0  0  0  0  0  0  0
  131.0820  139.4120  162.8018 H   0  0  0  0  0  0  0  0  0  0  0  0
  131.6567  137.0195  162.7262 H   0  0  0  0  0  0  0  0  0  0  0  0
  133.3285  133.7564  162.8535 H   0  0  0  0  0  0  0  0  0  0  0  0
  131.5590  132.1556  162.2506 H   0  0  0  0  0  0  0  0  0  0  0  0
  130.0605  132.6302  160.3563 H   0  0  0  0  0  0  0  0  0  0  0  0
  128.3630  135.1840  160.6639 H   0  0  0  0  0  0  0  0  0  0  0  0
  127.2810  132.0724  159.3614 H   0  0  0  0  0  0  0  0  0  0  0  0
  125.0833  131.0491  159.7783 H   0  0  0  0  0  0  0  0  0  0  0  0
  123.3315  132.3206  160.9480 H   0  0  0  0  0  0  0  0  0  0  0  0
  123.8316  135.6748  162.0679 H   0  0  0  0  0  0  0  0  0  0  0  0
  125.9695  135.6667  161.2698 H   0  0  0  0  0  0  0  0  0  0  0  0
  132.1082  136.3022  159.6443 H   0  0  0  0  0  0  0  0  0  0  0  0
  135.2370  137.9553  160.5873 H   0  0  0  0  0  0  0  0  0  0  0  0
  1  2  1  0
  1 33  1  0
  1 34  1  0
  1 35  1  0
  2  3  1  0
  2  4  1  0
  2 36  1  0
  3 37  1  0
  3 38  1  0
  3 39  1  0
  4 32  2  0
  4  5  1  0
  5  6  2  0
  5 40  1  0
  6  7  1  0
  6 41  1  0
  7  8  2  0
  7 42  1  0
  8  9  1  0
  8 32  1  0
  9 10  1  0
 10 31  1  0
 10 11  2  0
 11 12  1  0
 11 43  1  0
 12 13  2  0
 12 44  1  0
 13 14  1  0
 13 45  1  0
 14 15  1  0
 14 31  2  0
 15 16  1  6
 15 17  1  0
 15 21  1  0
 17 18  1  0
 17 19  1  0
 17 20  1  0
 21 22  2  0
 21 23  1  0
 23 24  1  0
 23 46  1  0
 24 30  1  0
 24 25  2  0
 25 26  1  0
 25 47  1  0
 26 27  2  0
 26 48  1  0
 27 28  1  0
 27 49  1  0
 28 29  1  0
 28 30  2  0
 29 50  1  0
 30 51  1  0
 31 52  1  0
 32 53  1  0
M  CHG  1  17   1
M  END
>  <DOCK_score>  (1) 
-49.146427

>  <SMILES>  (1) 
CC(C)c1cccc(Oc2cccc([C@@H]([NH3+])C(=O)Nc3cccc(O)c3)c2)c1

$$$$
