C[C@@H](Nc1[nH]cc(-c2ccc(N)cc2)[nH+]1)c1cc(Cl)cc(Nc2ccc(C#N)cc2)c1
     RDKit          3D

 53 56  0  0  1  0  0  0  0  0999 V2000
  128.1483  135.9178  160.1415 C   0  0  0  0  0  0  0  0  0  0  0  0
  129.5513  135.3306  160.3087 C   0  0  1  0  0  0  0  0  0  0  0  0
  129.4855  134.3749  160.8288 H   0  0  0  0  0  0  0  0  0  0  0  0
  130.1562  135.1281  158.9898 N   0  0  0  0  0  0  0  0  0  0  0  0
  129.9835  133.9254  158.3262 C   0  0  0  0  0  0  0  0  0  0  0  0
  129.2726  132.8608  158.7875 N   0  0  0  0  0  0  0  0  0  0  0  0
  128.8003  132.8080  159.6330 H   0  0  0  0  0  0  0  0  0  0  0  0
  129.3478  131.8735  157.8336 C   0  0  0  0  0  0  0  0  0  0  0  0
  130.1018  132.3638  156.8189 C   0  0  0  0  0  0  0  0  0  0  0  0
  130.4531  131.6484  155.5677 C   0  0  0  0  0  0  0  0  0  0  0  0
  130.0639  132.1674  154.3339 C   0  0  0  0  0  0  0  0  0  0  0  0
  130.3966  131.5036  153.1719 C   0  0  0  0  0  0  0  0  0  0  0  0
  131.1093  130.3119  153.2308 C   0  0  0  0  0  0  0  0  0  0  0  0
  131.4404  129.6378  152.0530 N   0  0  0  0  0  0  0  0  0  0  0  0
  131.4936  129.7897  154.4603 C   0  0  0  0  0  0  0  0  0  0  0  0
  131.1681  130.4530  155.6243 C   0  0  0  0  0  0  0  0  0  0  0  0
  130.4730  133.6266  157.1476 N   0  0  0  0  0  0  0  0  0  0  0  0
  131.0160  134.2138  156.5988 H   0  0  0  0  0  0  0  0  0  0  0  0
  130.4017  136.2817  161.1107 C   0  0  0  0  0  0  0  0  0  0  0  0
  130.6289  137.5642  160.6462 C   0  0  0  0  0  0  0  0  0  0  0  0
  131.4139  138.4389  161.3770 C   0  0  0  0  0  0  0  0  0  0  0  0
  131.6964  140.0480  160.7899 Cl  0  0  0  0  0  0  0  0  0  0  0  0
  131.9732  138.0323  162.5738 C   0  0  0  0  0  0  0  0  0  0  0  0
  131.7463  136.7446  163.0423 C   0  0  0  0  0  0  0  0  0  0  0  0
  132.3096  136.3304  164.2518 N   0  0  0  0  0  0  0  0  0  0  0  0
  133.5692  135.7373  164.2662 C   0  0  0  0  0  0  0  0  0  0  0  0
  134.1315  135.3302  165.4726 C   0  0  0  0  0  0  0  0  0  0  0  0
  135.3742  134.7384  165.4895 C   0  0  0  0  0  0  0  0  0  0  0  0
  136.0766  134.5569  164.2944 C   0  0  0  0  0  0  0  0  0  0  0  0
  137.3724  133.9474  164.3090 C   0  0  0  0  0  0  0  0  0  0  0  0
  138.4003  133.4639  164.3206 N   0  0  0  0  0  0  0  0  0  0  0  0
  135.5114  134.9722  163.0849 C   0  0  0  0  0  0  0  0  0  0  0  0
  134.2658  135.5581  163.0744 C   0  0  0  0  0  0  0  0  0  0  0  0
  130.9575  135.8694  162.3056 C   0  0  0  0  0  0  0  0  0  0  0  0
  128.2142  136.8734  159.6212 H   0  0  0  0  0  0  0  0  0  0  0  0
  127.5333  135.2298  159.5612 H   0  0  0  0  0  0  0  0  0  0  0  0
  127.6983  136.0684  161.1226 H   0  0  0  0  0  0  0  0  0  0  0  0
  130.6778  135.8367  158.5816 H   0  0  0  0  0  0  0  0  0  0  0  0
  128.8934  130.8950  157.8830 H   0  0  0  0  0  0  0  0  0  0  0  0
  129.5057  133.0909  154.2879 H   0  0  0  0  0  0  0  0  0  0  0  0
  130.0987  131.9075  152.2156 H   0  0  0  0  0  0  0  0  0  0  0  0
  131.9385  128.8070  152.0928 H   0  0  0  0  0  0  0  0  0  0  0  0
  131.1730  130.0025  151.1943 H   0  0  0  0  0  0  0  0  0  0  0  0
  132.0472  128.8634  154.5035 H   0  0  0  0  0  0  0  0  0  0  0  0
  131.4671  130.0469  156.5794 H   0  0  0  0  0  0  0  0  0  0  0  0
  130.1929  137.8840  159.7113 H   0  0  0  0  0  0  0  0  0  0  0  0
  132.5855  138.7150  163.1442 H   0  0  0  0  0  0  0  0  0  0  0  0
  131.8231  136.4558  165.0816 H   0  0  0  0  0  0  0  0  0  0  0  0
  133.5903  135.4747  166.3958 H   0  0  0  0  0  0  0  0  0  0  0  0
  135.8078  134.4185  166.4254 H   0  0  0  0  0  0  0  0  0  0  0  0
  136.0514  134.8337  162.1599 H   0  0  0  0  0  0  0  0  0  0  0  0
  133.8288  135.8795  162.1405 H   0  0  0  0  0  0  0  0  0  0  0  0
  130.7797  134.8674  162.6671 H   0  0  0  0  0  0  0  0  0  0  0  0
  1  2  1  0
  1 35  1  0
  1 36  1  0
  1 37  1  0
  2  3  1  1
  2  4  1  0
  2 19  1  0
  4 38  1  0
  5  4  1  0
  5 17  2  0
  5  6  1  0
  6  7  1  0
  6  8  1  0
  8  9  2  0
  8 39  1  0
  9 10  1  0
  9 17  1  0
 10 16  1  0
 10 11  2  0
 11 12  1  0
 11 40  1  0
 12 13  2  0
 12 41  1  0
 13 14  1  0
 13 15  1  0
 14 42  1  0
 14 43  1  0
 15 16  2  0
 15 44  1  0
 16 45  1  0
 17 18  1  0
 19 34  1  0
 19 20  2  0
 20 21  1  0
 20 46  1  0
 21 22  1  0
 21 23  2  0
 23 24  1  0
 23 47  1  0
 24 25  1  0
 24 34  2  0
 25 26  1  0
 25 48  1  0
 26 33  1  0
 26 27  2  0
 27 28  1  0
 27 49  1  0
 28 29  2  0
 28 50  1  0
 29 30  1  0
 29 32  1  0
 30 31  3  0
 32 33  2  0
 32 51  1  0
 33 52  1  0
 34 53  1  0
M  CHG  1  17   1
M  END
>  <DOCK_score>  (1) 
-58.990753

>  <SMILES>  (1) 
C[C@@H](Nc1[nH]cc(-c2ccc(N)cc2)[nH+]1)c1cc(Cl)cc(Nc2ccc(C#N)cc2)c1

$$$$
