CCc1ccc(-c2c[nH]c(N[C@@H](c3ccc(CC)cc3)c3cccc4ccccc34)[nH+]2)cc1
     RDKit          3D

 63 67  0  0  1  0  0  0  0  0999 V2000
  129.7125  129.1525  150.7581 C   0  0  0  0  0  0  0  0  0  0  0  0
  131.0570  129.6781  151.2661 C   0  0  0  0  0  0  0  0  0  0  0  0
  130.8614  130.3502  152.6007 C   0  0  0  0  0  0  0  0  0  0  0  0
  130.9700  129.6128  153.7663 C   0  0  0  0  0  0  0  0  0  0  0  0
  130.7915  130.2234  154.9911 C   0  0  0  0  0  0  0  0  0  0  0  0
  130.5017  131.5852  155.0523 C   0  0  0  0  0  0  0  0  0  0  0  0
  130.3090  132.2470  156.3657 C   0  0  0  0  0  0  0  0  0  0  0  0
  129.8213  131.6644  157.4890 C   0  0  0  0  0  0  0  0  0  0  0  0
  129.8108  132.6296  158.4663 N   0  0  0  0  0  0  0  0  0  0  0  0
  129.5149  132.5157  159.3831 H   0  0  0  0  0  0  0  0  0  0  0  0
  130.2926  133.7750  157.9112 C   0  0  0  0  0  0  0  0  0  0  0  0
  130.4438  134.9861  158.5645 N   0  0  0  0  0  0  0  0  0  0  0  0
  130.0704  135.1088  159.9758 C   0  0  1  0  0  0  0  0  0  0  0  0
  130.3754  134.2100  160.5118 H   0  0  0  0  0  0  0  0  0  0  0  0
  130.7580  136.3085  160.5750 C   0  0  0  0  0  0  0  0  0  0  0  0
  130.5251  137.5688  160.0572 C   0  0  0  0  0  0  0  0  0  0  0  0
  131.1563  138.6691  160.6066 C   0  0  0  0  0  0  0  0  0  0  0  0
  132.0202  138.5091  161.6737 C   0  0  0  0  0  0  0  0  0  0  0  0
  132.7086  139.7087  162.2723 C   0  0  0  0  0  0  0  0  0  0  0  0
  131.8447  140.2844  163.3961 C   0  0  0  0  0  0  0  0  0  0  0  0
  132.2572  137.2482  162.1881 C   0  0  0  0  0  0  0  0  0  0  0  0
  131.6221  136.1485  161.6421 C   0  0  0  0  0  0  0  0  0  0  0  0
  128.5771  135.2778  160.0876 C   0  0  0  0  0  0  0  0  0  0  0  0
  127.8049  135.2967  158.9665 C   0  0  0  0  0  0  0  0  0  0  0  0
  126.4227  135.4515  159.0502 C   0  0  0  0  0  0  0  0  0  0  0  0
  125.8044  135.5885  160.2551 C   0  0  0  0  0  0  0  0  0  0  0  0
  126.5683  135.5738  161.4341 C   0  0  0  0  0  0  0  0  0  0  0  0
  125.9656  135.7118  162.6963 C   0  0  0  0  0  0  0  0  0  0  0  0
  126.7359  135.6761  163.8177 C   0  0  0  0  0  0  0  0  0  0  0  0
  128.1187  135.5216  163.7341 C   0  0  0  0  0  0  0  0  0  0  0  0
  128.7375  135.3904  162.5292 C   0  0  0  0  0  0  0  0  0  0  0  0
  127.9739  135.4109  161.3494 C   0  0  0  0  0  0  0  0  0  0  0  0
  130.5847  133.5437  156.6546 N   0  0  0  0  0  0  0  0  0  0  0  0
  130.9425  134.1950  156.0313 H   0  0  0  0  0  0  0  0  0  0  0  0
  130.3882  132.3218  153.8746 C   0  0  0  0  0  0  0  0  0  0  0  0
  130.5743  131.7020  152.6555 C   0  0  0  0  0  0  0  0  0  0  0  0
  129.3100  128.4335  151.4717 H   0  0  0  0  0  0  0  0  0  0  0  0
  129.0161  129.9836  150.6476 H   0  0  0  0  0  0  0  0  0  0  0  0
  129.8539  128.6661  149.7929 H   0  0  0  0  0  0  0  0  0  0  0  0
  131.4593  130.3965  150.5527 H   0  0  0  0  0  0  0  0  0  0  0  0
  131.7532  128.8464  151.3768 H   0  0  0  0  0  0  0  0  0  0  0  0
  131.1946  128.5577  153.7177 H   0  0  0  0  0  0  0  0  0  0  0  0
  130.8767  129.6469  155.9004 H   0  0  0  0  0  0  0  0  0  0  0  0
  129.5029  130.6379  157.5950 H   0  0  0  0  0  0  0  0  0  0  0  0
  130.7969  135.7535  158.0878 H   0  0  0  0  0  0  0  0  0  0  0  0
  129.8503  137.6938  159.2233 H   0  0  0  0  0  0  0  0  0  0  0  0
  130.9745  139.6539  160.2018 H   0  0  0  0  0  0  0  0  0  0  0  0
  132.8546  140.4658  161.5019 H   0  0  0  0  0  0  0  0  0  0  0  0
  133.6762  139.4090  162.6750 H   0  0  0  0  0  0  0  0  0  0  0  0
  130.8771  140.5841  162.9935 H   0  0  0  0  0  0  0  0  0  0  0  0
  132.3426  141.1520  163.8291 H   0  0  0  0  0  0  0  0  0  0  0  0
  131.6988  139.5271  164.1666 H   0  0  0  0  0  0  0  0  0  0  0  0
  132.9357  137.1226  163.0190 H   0  0  0  0  0  0  0  0  0  0  0  0
  131.8042  135.1637  162.0464 H   0  0  0  0  0  0  0  0  0  0  0  0
  128.2706  135.1904  157.9980 H   0  0  0  0  0  0  0  0  0  0  0  0
  125.8333  135.4636  158.1453 H   0  0  0  0  0  0  0  0  0  0  0  0
  124.7321  135.7074  160.3045 H   0  0  0  0  0  0  0  0  0  0  0  0
  124.8954  135.8330  162.7765 H   0  0  0  0  0  0  0  0  0  0  0  0
  126.2697  135.7779  164.7867 H   0  0  0  0  0  0  0  0  0  0  0  0
  128.7077  135.5055  164.6391 H   0  0  0  0  0  0  0  0  0  0  0  0
  129.8098  135.2713  162.4799 H   0  0  0  0  0  0  0  0  0  0  0  0
  130.1590  133.3763  153.9160 H   0  0  0  0  0  0  0  0  0  0  0  0
  130.4909  132.2728  151.7425 H   0  0  0  0  0  0  0  0  0  0  0  0
  1  2  1  0
  1 37  1  0
  1 38  1  0
  1 39  1  0
  2  3  1  0
  2 40  1  0
  2 41  1  0
  3 36  2  0
  3  4  1  0
  4  5  2  0
  4 42  1  0
  5  6  1  0
  5 43  1  0
  6  7  1  0
  6 35  2  0
  7 33  1  0
  7  8  2  0
  8  9  1  0
  8 44  1  0
  9 10  1  0
  9 11  1  0
 11 12  1  0
 11 33  2  0
 12 13  1  0
 12 45  1  0
 13 14  1  1
 13 15  1  0
 13 23  1  0
 15 22  1  0
 15 16  2  0
 16 17  1  0
 16 46  1  0
 17 18  2  0
 17 47  1  0
 18 19  1  0
 18 21  1  0
 19 20  1  0
 19 48  1  0
 19 49  1  0
 20 50  1  0
 20 51  1  0
 20 52  1  0
 21 22  2  0
 21 53  1  0
 22 54  1  0
 23 32  1  0
 23 24  2  0
 24 25  1  0
 24 55  1  0
 25 26  2  0
 25 56  1  0
 26 27  1  0
 26 57  1  0
 27 32  2  0
 27 28  1  0
 28 29  2  0
 28 58  1  0
 29 30  1  0
 29 59  1  0
 30 31  2  0
 30 60  1  0
 31 32  1  0
 31 61  1  0
 33 34  1  0
 35 36  1  0
 35 62  1  0
 36 63  1  0
M  CHG  1  33   1
M  END
>  <DOCK_score>  (1) 
-60.625637

>  <SMILES>  (1) 
CCc1ccc(-c2c[nH]c(N[C@@H](c3ccc(CC)cc3)c3cccc4ccccc34)[nH+]2)cc1

$$$$
