Cc1c[nH]c(Nc2ccc(Nc3ccc(O)cc3)cc2)[nH+]1
     RDKit          3D

 38 40  0  0  1  0  0  0  0  0999 V2000
  130.1827  131.7444  154.6780 C   0  0  0  0  0  0  0  0  0  0  0  0
  129.8991  132.4267  155.9914 C   0  0  0  0  0  0  0  0  0  0  0  0
  129.2829  131.8722  157.0494 C   0  0  0  0  0  0  0  0  0  0  0  0
  129.2284  132.8344  158.0317 N   0  0  0  0  0  0  0  0  0  0  0  0
  128.8410  132.7354  158.9155 H   0  0  0  0  0  0  0  0  0  0  0  0
  129.8206  133.9512  157.5283 C   0  0  0  0  0  0  0  0  0  0  0  0
  129.9767  135.1561  158.1944 N   0  0  0  0  0  0  0  0  0  0  0  0
  129.0420  135.5483  159.1605 C   0  0  0  0  0  0  0  0  0  0  0  0
  129.4385  136.3438  160.2277 C   0  0  0  0  0  0  0  0  0  0  0  0
  128.5171  136.7302  161.1804 C   0  0  0  0  0  0  0  0  0  0  0  0
  127.1934  136.3239  161.0713 C   0  0  0  0  0  0  0  0  0  0  0  0
  126.2592  136.7156  162.0371 N   0  0  0  0  0  0  0  0  0  0  0  0
  126.6684  136.9388  163.3565 C   0  0  0  0  0  0  0  0  0  0  0  0
  126.4858  138.1864  163.9389 C   0  0  0  0  0  0  0  0  0  0  0  0
  126.8953  138.4074  165.2392 C   0  0  0  0  0  0  0  0  0  0  0  0
  127.4783  137.3806  165.9672 C   0  0  0  0  0  0  0  0  0  0  0  0
  127.8759  137.5976  167.2495 O   0  0  0  0  0  0  0  0  0  0  0  0
  127.6552  136.1325  165.3884 C   0  0  0  0  0  0  0  0  0  0  0  0
  127.2517  135.9112  164.0865 C   0  0  0  0  0  0  0  0  0  0  0  0
  126.7980  135.5239  160.0067 C   0  0  0  0  0  0  0  0  0  0  0  0
  127.7183  135.1422  159.0511 C   0  0  0  0  0  0  0  0  0  0  0  0
  130.2135  133.6952  156.3028 N   0  0  0  0  0  0  0  0  0  0  0  0
  130.6626  134.3226  155.7149 H   0  0  0  0  0  0  0  0  0  0  0  0
  129.3433  131.8982  153.9999 H   0  0  0  0  0  0  0  0  0  0  0  0
  131.0870  132.1648  154.2379 H   0  0  0  0  0  0  0  0  0  0  0  0
  130.3231  130.6766  154.8462 H   0  0  0  0  0  0  0  0  0  0  0  0
  128.9031  130.8633  157.1160 H   0  0  0  0  0  0  0  0  0  0  0  0
  130.7336  135.7278  157.9915 H   0  0  0  0  0  0  0  0  0  0  0  0
  130.4677  136.6598  160.3125 H   0  0  0  0  0  0  0  0  0  0  0  0
  128.8255  137.3489  162.0103 H   0  0  0  0  0  0  0  0  0  0  0  0
  125.3281  136.8323  161.7916 H   0  0  0  0  0  0  0  0  0  0  0  0
  126.0277  138.9845  163.3738 H   0  0  0  0  0  0  0  0  0  0  0  0
  126.7576  139.3787  165.6909 H   0  0  0  0  0  0  0  0  0  0  0  0
  128.2706  136.8241  167.6753 H   0  0  0  0  0  0  0  0  0  0  0  0
  128.1085  135.3334  165.9563 H   0  0  0  0  0  0  0  0  0  0  0  0
  127.3893  134.9394  163.6360 H   0  0  0  0  0  0  0  0  0  0  0  0
  125.7697  135.2039  159.9246 H   0  0  0  0  0  0  0  0  0  0  0  0
  127.4100  134.5237  158.2212 H   0  0  0  0  0  0  0  0  0  0  0  0
  1  2  1  0
  1 24  1  0
  1 25  1  0
  1 26  1  0
  2 22  1  0
  2  3  2  0
  3  4  1  0
  3 27  1  0
  4  5  1  0
  4  6  1  0
  6  7  1  0
  6 22  2  0
  7  8  1  0
  7 28  1  0
  8 21  1  0
  8  9  2  0
  9 10  1  0
  9 29  1  0
 10 11  2  0
 10 30  1  0
 11 12  1  0
 11 20  1  0
 12 13  1  0
 12 31  1  0
 13 19  1  0
 13 14  2  0
 14 15  1  0
 14 32  1  0
 15 16  2  0
 15 33  1  0
 16 17  1  0
 16 18  1  0
 17 34  1  0
 18 19  2  0
 18 35  1  0
 19 36  1  0
 20 21  2  0
 20 37  1  0
 21 38  1  0
 22 23  1  0
M  CHG  1  22   1
M  END
>  <DOCK_score>  (1) 
-45.947701

>  <SMILES>  (1) 
Cc1c[nH]c(Nc2ccc(Nc3ccc(O)cc3)cc2)[nH+]1

$$$$
