CC1=CCC([C@@H](CCc2ccccc2)Nc2[nH]cc(-c3ccc(N)cc3)[nH+]2)=CC1
     RDKit          3D

 58 61  0  0  1  0  0  0  0  0999 V2000
  135.1185  135.6866  163.3818 C   0  0  0  0  0  0  0  0  0  0  0  0
  133.7223  135.6943  162.8144 C   0  0  0  0  0  0  0  0  0  0  0  0
  132.9550  134.6716  163.0390 C   0  0  0  0  0  0  0  0  0  0  0  0
  131.5514  134.5789  162.5205 C   0  0  0  0  0  0  0  0  0  0  0  0
  131.3323  135.5246  161.3781 C   0  0  0  0  0  0  0  0  0  0  0  0
  130.1715  135.2768  160.4495 C   0  0  1  0  0  0  0  0  0  0  0  0
  129.6314  134.3867  160.7726 H   0  0  0  0  0  0  0  0  0  0  0  0
  129.2300  136.4825  160.4770 C   0  0  0  0  0  0  0  0  0  0  0  0
  128.0516  136.2309  159.5343 C   0  0  0  0  0  0  0  0  0  0  0  0
  127.3049  135.0004  159.9808 C   0  0  0  0  0  0  0  0  0  0  0  0
  126.6427  134.2188  159.0524 C   0  0  0  0  0  0  0  0  0  0  0  0
  125.9619  133.0873  159.4614 C   0  0  0  0  0  0  0  0  0  0  0  0
  125.9345  132.7433  160.8000 C   0  0  0  0  0  0  0  0  0  0  0  0
  126.5924  133.5277  161.7288 C   0  0  0  0  0  0  0  0  0  0  0  0
  127.2775  134.6562  161.3193 C   0  0  0  0  0  0  0  0  0  0  0  0
  130.6704  135.0775  159.0866 N   0  0  0  0  0  0  0  0  0  0  0  0
  130.4204  133.8873  158.4250 C   0  0  0  0  0  0  0  0  0  0  0  0
  129.7220  132.8331  158.9272 N   0  0  0  0  0  0  0  0  0  0  0  0
  129.3136  132.7801  159.8055 H   0  0  0  0  0  0  0  0  0  0  0  0
  129.7023  131.8564  157.9598 C   0  0  0  0  0  0  0  0  0  0  0  0
  130.3886  132.3426  156.8963 C   0  0  0  0  0  0  0  0  0  0  0  0
  130.6281  131.6352  155.6144 C   0  0  0  0  0  0  0  0  0  0  0  0
  130.1587  132.1780  154.4193 C   0  0  0  0  0  0  0  0  0  0  0  0
  130.3873  131.5216  153.2284 C   0  0  0  0  0  0  0  0  0  0  0  0
  131.0752  130.3139  153.2203 C   0  0  0  0  0  0  0  0  0  0  0  0
  131.3011  129.6479  152.0133 N   0  0  0  0  0  0  0  0  0  0  0  0
  131.5391  129.7680  154.4113 C   0  0  0  0  0  0  0  0  0  0  0  0
  131.3177  130.4238  155.6038 C   0  0  0  0  0  0  0  0  0  0  0  0
  130.8126  133.5926  157.2096 N   0  0  0  0  0  0  0  0  0  0  0  0
  131.3260  134.1746  156.6277 H   0  0  0  0  0  0  0  0  0  0  0  0
  132.0995  136.5477  161.1540 C   0  0  0  0  0  0  0  0  0  0  0  0
  133.2795  136.8831  162.0156 C   0  0  0  0  0  0  0  0  0  0  0  0
  135.2819  134.7597  163.9317 H   0  0  0  0  0  0  0  0  0  0  0  0
  135.8413  135.7591  162.5691 H   0  0  0  0  0  0  0  0  0  0  0  0
  135.2420  136.5350  164.0548 H   0  0  0  0  0  0  0  0  0  0  0  0
  133.3446  133.8519  163.6243 H   0  0  0  0  0  0  0  0  0  0  0  0
  130.8568  134.8227  163.3244 H   0  0  0  0  0  0  0  0  0  0  0  0
  131.3629  133.5601  162.1822 H   0  0  0  0  0  0  0  0  0  0  0  0
  128.8589  136.6308  161.4911 H   0  0  0  0  0  0  0  0  0  0  0  0
  129.7702  137.3725  160.1540 H   0  0  0  0  0  0  0  0  0  0  0  0
  127.3808  137.0899  159.5537 H   0  0  0  0  0  0  0  0  0  0  0  0
  128.4227  136.0827  158.5201 H   0  0  0  0  0  0  0  0  0  0  0  0
  126.6604  134.4901  158.0073 H   0  0  0  0  0  0  0  0  0  0  0  0
  125.4477  132.4747  158.7357 H   0  0  0  0  0  0  0  0  0  0  0  0
  125.3989  131.8618  161.1201 H   0  0  0  0  0  0  0  0  0  0  0  0
  126.5708  133.2590  162.7747 H   0  0  0  0  0  0  0  0  0  0  0  0
  127.7912  135.2693  162.0451 H   0  0  0  0  0  0  0  0  0  0  0  0
  131.1759  135.7795  158.6477 H   0  0  0  0  0  0  0  0  0  0  0  0
  129.2306  130.8876  158.0329 H   0  0  0  0  0  0  0  0  0  0  0  0
  129.6200  133.1141  154.4256 H   0  0  0  0  0  0  0  0  0  0  0  0
  130.0275  131.9438  152.3018 H   0  0  0  0  0  0  0  0  0  0  0  0
  131.7812  128.8052  152.0066 H   0  0  0  0  0  0  0  0  0  0  0  0
  130.9775  130.0283  151.1816 H   0  0  0  0  0  0  0  0  0  0  0  0
  132.0730  128.8292  154.4027 H   0  0  0  0  0  0  0  0  0  0  0  0
  131.6787  129.9993  156.5291 H   0  0  0  0  0  0  0  0  0  0  0  0
  131.8809  137.1819  160.3076 H   0  0  0  0  0  0  0  0  0  0  0  0
  134.1023  137.2140  161.3817 H   0  0  0  0  0  0  0  0  0  0  0  0
  133.0072  137.6899  162.6961 H   0  0  0  0  0  0  0  0  0  0  0  0
  1  2  1  0
  1 33  1  0
  1 34  1  0
  1 35  1  0
  2 32  1  0
  2  3  2  0
  3  4  1  0
  3 36  1  0
  4  5  1  0
  4 37  1  0
  4 38  1  0
  5  6  1  0
  5 31  2  0
  6  7  1  1
  6  8  1  0
  6 16  1  0
  8  9  1  0
  8 39  1  0
  8 40  1  0
  9 10  1  0
  9 41  1  0
  9 42  1  0
 10 15  1  0
 10 11  2  0
 11 12  1  0
 11 43  1  0
 12 13  2  0
 12 44  1  0
 13 14  1  0
 13 45  1  0
 14 15  2  0
 14 46  1  0
 15 47  1  0
 16 48  1  0
 17 16  1  0
 17 29  2  0
 17 18  1  0
 18 19  1  0
 18 20  1  0
 20 21  2  0
 20 49  1  0
 21 22  1  0
 21 29  1  0
 22 28  1  0
 22 23  2  0
 23 24  1  0
 23 50  1  0
 24 25  2  0
 24 51  1  0
 25 26  1  0
 25 27  1  0
 26 52  1  0
 26 53  1  0
 27 28  2  0
 27 54  1  0
 28 55  1  0
 29 30  1  0
 31 32  1  0
 31 56  1  0
 32 57  1  0
 32 58  1  0
M  CHG  1  29   1
M  END
>  <DOCK_score>  (1) 
-57.002625

>  <SMILES>  (1) 
CC1=CCC([C@@H](CCc2ccccc2)Nc2[nH]cc(-c3ccc(N)cc3)[nH+]2)=CC1

$$$$
