NC1=CC(=C[C@H](CCc2ccccc2)Nc2[nH]cc(-c3ccc(F)cc3)[nH+]2)CC1
     RDKit          3D

 55 58  0  0  1  0  0  0  0  0999 V2000
  125.6329  134.2969  162.6130 N   0  0  0  0  0  0  0  0  0  0  0  0
  125.9641  134.5702  161.2998 C   0  0  0  0  0  0  0  0  0  0  0  0
  127.2061  134.7287  160.8474 C   0  0  0  0  0  0  0  0  0  0  0  0
  127.2367  135.0087  159.4109 C   0  0  0  0  0  0  0  0  0  0  0  0
  128.3247  135.2140  158.6720 C   0  0  0  0  0  0  0  0  0  0  0  0
  129.6925  135.0468  159.2820 C   0  0  2  0  0  0  0  0  0  0  0  0
  129.6492  134.2957  160.0707 H   0  0  0  0  0  0  0  0  0  0  0  0
  130.1540  136.3805  159.8728 C   0  0  0  0  0  0  0  0  0  0  0  0
  131.5427  136.2107  160.4921 C   0  0  0  0  0  0  0  0  0  0  0  0
  131.9973  137.5245  161.0739 C   0  0  0  0  0  0  0  0  0  0  0  0
  132.7132  138.4144  160.2953 C   0  0  0  0  0  0  0  0  0  0  0  0
  133.1260  139.6216  160.8275 C   0  0  0  0  0  0  0  0  0  0  0  0
  132.8320  139.9342  162.1417 C   0  0  0  0  0  0  0  0  0  0  0  0
  132.1207  139.0419  162.9219 C   0  0  0  0  0  0  0  0  0  0  0  0
  131.7033  137.8370  162.3881 C   0  0  0  0  0  0  0  0  0  0  0  0
  130.6386  134.6165  158.2494 N   0  0  0  0  0  0  0  0  0  0  0  0
  130.4283  133.4292  157.5694 C   0  0  0  0  0  0  0  0  0  0  0  0
  129.7983  132.3309  158.0682 N   0  0  0  0  0  0  0  0  0  0  0  0
  129.4194  132.2397  158.9566 H   0  0  0  0  0  0  0  0  0  0  0  0
  129.7985  131.3746  157.0813 C   0  0  0  0  0  0  0  0  0  0  0  0
  130.4280  131.9159  156.0092 C   0  0  0  0  0  0  0  0  0  0  0  0
  130.6651  131.2471  154.7065 C   0  0  0  0  0  0  0  0  0  0  0  0
  130.1351  131.7878  153.5365 C   0  0  0  0  0  0  0  0  0  0  0  0
  130.3631  131.1653  152.3263 C   0  0  0  0  0  0  0  0  0  0  0  0
  131.1079  129.9983  152.2747 C   0  0  0  0  0  0  0  0  0  0  0  0
  131.3244  129.3891  151.0884 F   0  0  0  0  0  0  0  0  0  0  0  0
  131.6321  129.4541  153.4359 C   0  0  0  0  0  0  0  0  0  0  0  0
  131.4140  130.0729  154.6498 C   0  0  0  0  0  0  0  0  0  0  0  0
  130.7981  133.1794  156.3370 N   0  0  0  0  0  0  0  0  0  0  0  0
  131.2642  133.7981  155.7533 H   0  0  0  0  0  0  0  0  0  0  0  0
  125.8053  135.0220  158.9193 C   0  0  0  0  0  0  0  0  0  0  0  0
  124.9670  134.7291  160.1757 C   0  0  0  0  0  0  0  0  0  0  0  0
  126.3308  134.2072  163.2807 H   0  0  0  0  0  0  0  0  0  0  0  0
  124.7024  134.1949  162.8673 H   0  0  0  0  0  0  0  0  0  0  0  0
  128.0876  134.6596  161.4675 H   0  0  0  0  0  0  0  0  0  0  0  0
  128.2272  135.5004  157.6352 H   0  0  0  0  0  0  0  0  0  0  0  0
  130.1974  137.1316  159.0841 H   0  0  0  0  0  0  0  0  0  0  0  0
  129.4502  136.7006  160.6409 H   0  0  0  0  0  0  0  0  0  0  0  0
  131.4995  135.4596  161.2808 H   0  0  0  0  0  0  0  0  0  0  0  0
  132.2466  135.8907  159.7238 H   0  0  0  0  0  0  0  0  0  0  0  0
  132.9468  138.1683  159.2701 H   0  0  0  0  0  0  0  0  0  0  0  0
  133.6821  140.3186  160.2182 H   0  0  0  0  0  0  0  0  0  0  0  0
  133.1583  140.8754  162.5587 H   0  0  0  0  0  0  0  0  0  0  0  0
  131.8913  139.2860  163.9486 H   0  0  0  0  0  0  0  0  0  0  0  0
  131.1479  137.1397  162.9977 H   0  0  0  0  0  0  0  0  0  0  0  0
  131.4122  135.1637  158.0422 H   0  0  0  0  0  0  0  0  0  0  0  0
  129.3775  130.3822  157.1468 H   0  0  0  0  0  0  0  0  0  0  0  0
  129.5506  132.6950  153.5763 H   0  0  0  0  0  0  0  0  0  0  0  0
  129.9561  131.5858  151.4186 H   0  0  0  0  0  0  0  0  0  0  0  0
  132.2119  128.5441  153.3911 H   0  0  0  0  0  0  0  0  0  0  0  0
  131.8232  129.6482  155.5546 H   0  0  0  0  0  0  0  0  0  0  0  0
  125.5514  136.0005  158.5112 H   0  0  0  0  0  0  0  0  0  0  0  0
  125.6525  134.2459  158.1695 H   0  0  0  0  0  0  0  0  0  0  0  0
  124.2950  135.5620  160.3826 H   0  0  0  0  0  0  0  0  0  0  0  0
  124.3976  133.8093  160.0423 H   0  0  0  0  0  0  0  0  0  0  0  0
  1  2  1  0
  1 33  1  0
  1 34  1  0
  2 32  1  0
  2  3  2  0
  3  4  1  0
  3 35  1  0
  4  5  2  0
  4 31  1  0
  5  6  1  0
  5 36  1  0
  6  7  1  1
  6  8  1  0
  6 16  1  0
  8  9  1  0
  8 37  1  0
  8 38  1  0
  9 10  1  0
  9 39  1  0
  9 40  1  0
 10 15  1  0
 10 11  2  0
 11 12  1  0
 11 41  1  0
 12 13  2  0
 12 42  1  0
 13 14  1  0
 13 43  1  0
 14 15  2  0
 14 44  1  0
 15 45  1  0
 16 46  1  0
 17 16  1  0
 17 29  2  0
 17 18  1  0
 18 19  1  0
 18 20  1  0
 20 21  2  0
 20 47  1  0
 21 22  1  0
 21 29  1  0
 22 28  1  0
 22 23  2  0
 23 24  1  0
 23 48  1  0
 24 25  2  0
 24 49  1  0
 25 26  1  0
 25 27  1  0
 27 28  2  0
 27 50  1  0
 28 51  1  0
 29 30  1  0
 31 32  1  0
 31 52  1  0
 31 53  1  0
 32 54  1  0
 32 55  1  0
M  CHG  1  29   1
M  END
>  <DOCK_score>  (1) 
-58.186172

>  <SMILES>  (1) 
NC1=CC(=C[C@H](CCc2ccccc2)Nc2[nH]cc(-c3ccc(F)cc3)[nH+]2)CC1

$$$$
