CCc1ccc(-c2c[nH]c(NC[C@H](C=O)c3ccncn3)[nH+]2)cc1
     RDKit          3D

 44 46  0  0  1  0  0  0  0  0999 V2000
  130.2460  128.5460  151.5755 C   0  0  0  0  0  0  0  0  0  0  0  0
  131.4047  129.4856  151.9153 C   0  0  0  0  0  0  0  0  0  0  0  0
  131.0768  130.2541  153.1695 C   0  0  0  0  0  0  0  0  0  0  0  0
  131.4324  129.7432  154.4042 C   0  0  0  0  0  0  0  0  0  0  0  0
  131.1387  130.4453  155.5553 C   0  0  0  0  0  0  0  0  0  0  0  0
  130.4733  131.6671  155.4726 C   0  0  0  0  0  0  0  0  0  0  0  0
  130.1508  132.4244  156.7066 C   0  0  0  0  0  0  0  0  0  0  0  0
  129.3720  131.9908  157.7285 C   0  0  0  0  0  0  0  0  0  0  0  0
  129.3412  132.9984  158.6616 N   0  0  0  0  0  0  0  0  0  0  0  0
  128.8667  132.9838  159.5075 H   0  0  0  0  0  0  0  0  0  0  0  0
  130.0959  134.0227  158.1783 C   0  0  0  0  0  0  0  0  0  0  0  0
  130.3173  135.2316  158.8155 N   0  0  0  0  0  0  0  0  0  0  0  0
  129.7142  135.4906  160.1253 C   0  0  0  0  0  0  0  0  0  0  0  0
  129.4494  136.9898  160.2773 C   0  0  2  0  0  0  0  0  0  0  0  0
  129.0804  137.3911  159.3334 H   0  0  0  0  0  0  0  0  0  0  0  0
  130.7291  137.6902  160.6552 C   0  0  0  0  0  0  0  0  0  0  0  0
  130.9142  138.8342  160.3156 O   0  0  0  0  0  0  0  0  0  0  0  0
  128.4187  137.2111  161.3544 C   0  0  0  0  0  0  0  0  0  0  0  0
  128.4330  138.3714  162.1126 C   0  0  0  0  0  0  0  0  0  0  0  0
  127.4656  138.5310  163.0916 C   0  0  0  0  0  0  0  0  0  0  0  0
  126.5659  137.5767  163.2693 N   0  0  0  0  0  0  0  0  0  0  0  0
  126.5830  136.4865  162.5293 C   0  0  0  0  0  0  0  0  0  0  0  0
  127.4847  136.3029  161.5854 N   0  0  0  0  0  0  0  0  0  0  0  0
  130.5780  133.6759  157.0099 N   0  0  0  0  0  0  0  0  0  0  0  0
  131.1487  134.2263  156.4512 H   0  0  0  0  0  0  0  0  0  0  0  0
  130.1125  132.1752  154.2258 C   0  0  0  0  0  0  0  0  0  0  0  0
  130.4155  131.4666  153.0810 C   0  0  0  0  0  0  0  0  0  0  0  0
  130.0900  127.8489  152.3988 H   0  0  0  0  0  0  0  0  0  0  0  0
  129.3394  129.1297  151.4169 H   0  0  0  0  0  0  0  0  0  0  0  0
  130.4834  127.9897  150.6686 H   0  0  0  0  0  0  0  0  0  0  0  0
  132.3115  128.9018  152.0740 H   0  0  0  0  0  0  0  0  0  0  0  0
  131.5608  130.1826  151.0920 H   0  0  0  0  0  0  0  0  0  0  0  0
  131.9447  128.7945  154.4673 H   0  0  0  0  0  0  0  0  0  0  0  0
  131.4210  130.0472  156.5188 H   0  0  0  0  0  0  0  0  0  0  0  0
  128.8734  131.0352  157.7967 H   0  0  0  0  0  0  0  0  0  0  0  0
  130.8716  135.9073  158.3945 H   0  0  0  0  0  0  0  0  0  0  0  0
  128.7738  134.9453  160.2064 H   0  0  0  0  0  0  0  0  0  0  0  0
  130.3946  135.1603  160.9101 H   0  0  0  0  0  0  0  0  0  0  0  0
  131.4807  137.1689  161.2294 H   0  0  0  0  0  0  0  0  0  0  0  0
  129.1806  139.1327  161.9444 H   0  0  0  0  0  0  0  0  0  0  0  0
  127.4456  139.4223  163.7012 H   0  0  0  0  0  0  0  0  0  0  0  0
  125.8360  135.7249  162.6978 H   0  0  0  0  0  0  0  0  0  0  0  0
  129.5964  133.1213  154.1558 H   0  0  0  0  0  0  0  0  0  0  0  0
  130.1365  131.8592  152.1144 H   0  0  0  0  0  0  0  0  0  0  0  0
  1  2  1  0
  1 28  1  0
  1 29  1  0
  1 30  1  0
  2  3  1  0
  2 31  1  0
  2 32  1  0
  3 27  2  0
  3  4  1  0
  4  5  2  0
  4 33  1  0
  5  6  1  0
  5 34  1  0
  6  7  1  0
  6 26  2  0
  7 24  1  0
  7  8  2  0
  8  9  1  0
  8 35  1  0
  9 10  1  0
  9 11  1  0
 11 12  1  0
 11 24  2  0
 12 13  1  0
 12 36  1  0
 13 14  1  0
 13 37  1  0
 13 38  1  0
 14 15  1  6
 14 16  1  0
 14 18  1  0
 16 17  2  0
 16 39  1  0
 18 23  1  0
 18 19  2  0
 19 20  1  0
 19 40  1  0
 20 21  2  0
 20 41  1  0
 21 22  1  0
 22 23  2  0
 22 42  1  0
 24 25  1  0
 26 27  1  0
 26 43  1  0
 27 44  1  0
M  CHG  1  24   1
M  END
>  <DOCK_score>  (1) 
-54.812698

>  <SMILES>  (1) 
CCc1ccc(-c2c[nH]c(NC[C@H](C=O)c3ccncn3)[nH+]2)cc1

$$$$
