Cc1nn(-c2ccc(F)cc2)cc1C[NH+]=C(NC=C1NCCN1)NC1CC1
     RDKit          3D

 52 55  0  0  1  0  0  0  0  0999 V2000
  135.3013  138.9359  158.1862 C   0  0  0  0  0  0  0  0  0  0  0  0
  134.9950  139.2609  159.6256 C   0  0  0  0  0  0  0  0  0  0  0  0
  135.7072  140.0337  160.4057 N   0  0  0  0  0  0  0  0  0  0  0  0
  135.0916  140.0730  161.6635 N   0  0  0  0  0  0  0  0  0  0  0  0
  135.5455  140.7860  162.7827 C   0  0  0  0  0  0  0  0  0  0  0  0
  134.8309  140.7407  163.9721 C   0  0  0  0  0  0  0  0  0  0  0  0
  135.2820  141.4397  165.0746 C   0  0  0  0  0  0  0  0  0  0  0  0
  136.4404  142.1939  164.9910 C   0  0  0  0  0  0  0  0  0  0  0  0
  136.8770  142.8815  166.0688 F   0  0  0  0  0  0  0  0  0  0  0  0
  137.1516  142.2444  163.8038 C   0  0  0  0  0  0  0  0  0  0  0  0
  136.7066  141.5426  162.7008 C   0  0  0  0  0  0  0  0  0  0  0  0
  133.9825  139.3016  161.6075 C   0  0  0  0  0  0  0  0  0  0  0  0
  133.8986  138.7914  160.3569 C   0  0  0  0  0  0  0  0  0  0  0  0
  132.8184  137.8741  159.8443 C   0  0  0  0  0  0  0  0  0  0  0  0
  131.8500  137.6151  160.9126 N   0  0  0  0  0  0  0  0  0  0  0  0
  131.6879  138.2867  161.5936 H   0  0  0  0  0  0  0  0  0  0  0  0
  131.2056  136.4811  160.9484 C   0  0  0  0  0  0  0  0  0  0  0  0
  131.4350  135.5304  159.9848 N   0  0  0  0  0  0  0  0  0  0  0  0
  131.2911  134.1618  160.2957 C   0  0  0  0  0  0  0  0  0  0  0  0
  130.9197  133.2996  159.3508 C   0  0  0  0  0  0  0  0  0  0  0  0
  130.6415  133.6572  158.0352 N   0  0  0  0  0  0  0  0  0  0  0  0
  130.2695  132.4523  157.2830 C   0  0  0  0  0  0  0  0  0  0  0  0
  130.3433  131.3034  158.3022 C   0  0  0  0  0  0  0  0  0  0  0  0
  130.7575  131.9339  159.5620 N   0  0  0  0  0  0  0  0  0  0  0  0
  130.2962  136.2379  161.9520 N   0  0  0  0  0  0  0  0  0  0  0  0
  130.0514  137.2524  162.9803 C   0  0  0  0  0  0  0  0  0  0  0  0
  128.7320  137.1734  163.7506 C   0  0  0  0  0  0  0  0  0  0  0  0
  128.9478  138.2776  162.7128 C   0  0  0  0  0  0  0  0  0  0  0  0
  134.8255  139.6720  157.5383 H   0  0  0  0  0  0  0  0  0  0  0  0
  136.3799  138.9578  158.0304 H   0  0  0  0  0  0  0  0  0  0  0  0
  134.9200  137.9426  157.9491 H   0  0  0  0  0  0  0  0  0  0  0  0
  133.9251  140.1563  164.0364 H   0  0  0  0  0  0  0  0  0  0  0  0
  134.7284  141.4018  166.0012 H   0  0  0  0  0  0  0  0  0  0  0  0
  138.0547  142.8334  163.7404 H   0  0  0  0  0  0  0  0  0  0  0  0
  137.2616  141.5820  161.7752 H   0  0  0  0  0  0  0  0  0  0  0  0
  133.2886  139.1241  162.4157 H   0  0  0  0  0  0  0  0  0  0  0  0
  133.2638  136.9329  159.5217 H   0  0  0  0  0  0  0  0  0  0  0  0
  132.3122  138.3443  159.0013 H   0  0  0  0  0  0  0  0  0  0  0  0
  131.6962  135.7997  159.0902 H   0  0  0  0  0  0  0  0  0  0  0  0
  131.4865  133.8125  161.2988 H   0  0  0  0  0  0  0  0  0  0  0  0
  130.6881  134.5559  157.6733 H   0  0  0  0  0  0  0  0  0  0  0  0
  130.9714  132.2799  156.4671 H   0  0  0  0  0  0  0  0  0  0  0  0
  129.2552  132.5501  156.8959 H   0  0  0  0  0  0  0  0  0  0  0  0
  131.0815  130.5656  157.9878 H   0  0  0  0  0  0  0  0  0  0  0  0
  129.3661  130.8345  158.4172 H   0  0  0  0  0  0  0  0  0  0  0  0
  130.8954  131.4733  160.4044 H   0  0  0  0  0  0  0  0  0  0  0  0
  129.8170  135.3949  161.9786 H   0  0  0  0  0  0  0  0  0  0  0  0
  130.9326  137.5920  163.5248 H   0  0  0  0  0  0  0  0  0  0  0  0
  128.0459  136.3667  163.4924 H   0  0  0  0  0  0  0  0  0  0  0  0
  128.7449  137.4614  164.8018 H   0  0  0  0  0  0  0  0  0  0  0  0
  129.1026  139.2916  163.0815 H   0  0  0  0  0  0  0  0  0  0  0  0
  128.4040  138.1976  161.7715 H   0  0  0  0  0  0  0  0  0  0  0  0
  1  2  1  0
  1 29  1  0
  1 30  1  0
  1 31  1  0
  2 13  1  0
  2  3  2  0
  3  4  1  0
  4  5  1  0
  4 12  1  0
  5 11  1  0
  5  6  2  0
  6  7  1  0
  6 32  1  0
  7  8  2  0
  7 33  1  0
  8  9  1  0
  8 10  1  0
 10 11  2  0
 10 34  1  0
 11 35  1  0
 12 13  2  0
 12 36  1  0
 13 14  1  0
 14 15  1  0
 14 37  1  0
 14 38  1  0
 15 16  1  0
 17 15  2  0
 17 18  1  0
 17 25  1  0
 18 19  1  0
 18 39  1  0
 19 20  2  0
 19 40  1  0
 20 24  1  0
 20 21  1  0
 21 22  1  0
 21 41  1  0
 22 23  1  0
 22 42  1  0
 22 43  1  0
 23 24  1  0
 23 44  1  0
 23 45  1  0
 24 46  1  0
 25 26  1  0
 25 47  1  0
 26 28  1  0
 26 27  1  0
 26 48  1  0
 27 28  1  0
 27 49  1  0
 27 50  1  0
 28 51  1  0
 28 52  1  0
M  CHG  1  15   1
M  END
>  <DOCK_score>  (1) 
-57.617905

>  <SMILES>  (1) 
Cc1nn(-c2ccc(F)cc2)cc1C[NH+]=C(NC=C1NCCN1)NC1CC1

$$$$
