Cc1ccc2c(c1)C[C@H]([NH+]=C(NC1CC1)NC1CC(O)C1(C)C)CO2
     RDKit          3D

 55 58  0  0  1  0  0  0  0  0999 V2000
  124.8047  132.0314  160.2770 C   0  0  0  0  0  0  0  0  0  0  0  0
  126.2253  132.2267  159.8135 C   0  0  0  0  0  0  0  0  0  0  0  0
  126.8727  131.2178  159.1239 C   0  0  0  0  0  0  0  0  0  0  0  0
  128.1737  131.3971  158.7013 C   0  0  0  0  0  0  0  0  0  0  0  0
  128.8374  132.5914  158.9652 C   0  0  0  0  0  0  0  0  0  0  0  0
  128.1863  133.6000  159.6533 C   0  0  0  0  0  0  0  0  0  0  0  0
  126.8790  133.4154  160.0723 C   0  0  0  0  0  0  0  0  0  0  0  0
  128.8664  134.9113  159.9547 C   0  0  0  0  0  0  0  0  0  0  0  0
  130.3816  134.7521  159.8070 C   0  0  2  0  0  0  0  0  0  0  0  0
  130.7697  134.1513  160.6295 H   0  0  0  0  0  0  0  0  0  0  0  0
  131.0205  136.0703  159.8140 N   0  0  0  0  0  0  0  0  0  0  0  0
  131.5413  136.3609  159.0490 H   0  0  0  0  0  0  0  0  0  0  0  0
  130.8892  136.8529  160.8481 C   0  0  0  0  0  0  0  0  0  0  0  0
  131.4889  138.0900  160.8545 N   0  0  0  0  0  0  0  0  0  0  0  0
  132.2755  138.5286  159.6992 C   0  0  0  0  0  0  0  0  0  0  0  0
  133.7168  138.0264  159.5941 C   0  0  0  0  0  0  0  0  0  0  0  0
  133.4396  139.4867  159.9599 C   0  0  0  0  0  0  0  0  0  0  0  0
  130.1510  136.4410  161.9324 N   0  0  0  0  0  0  0  0  0  0  0  0
  129.4496  137.4272  162.7581 C   0  0  1  0  0  0  0  0  0  0  0  0
  128.0904  137.8580  162.1821 C   0  0  0  0  0  0  0  0  0  0  0  0
  127.5575  137.8257  163.6243 C   0  0  1  0  0  0  0  0  0  0  0  0
  126.2385  137.2876  163.7352 O   0  0  0  0  0  0  0  0  0  0  0  0
  128.6705  136.8069  163.9299 C   0  0  0  0  0  0  0  0  0  0  0  0
  128.2547  135.3544  163.6891 C   0  0  0  0  0  0  0  0  0  0  0  0
  129.3390  137.0173  165.2900 C   0  0  0  0  0  0  0  0  0  0  0  0
  130.6642  134.0476  158.4739 C   0  0  0  0  0  0  0  0  0  0  0  0
  130.1193  132.7288  158.5370 O   0  0  0  0  0  0  0  0  0  0  0  0
  124.8052  131.5973  161.2769 H   0  0  0  0  0  0  0  0  0  0  0  0
  124.2873  131.3614  159.5903 H   0  0  0  0  0  0  0  0  0  0  0  0
  124.2942  132.9942  160.2991 H   0  0  0  0  0  0  0  0  0  0  0  0
  126.3603  130.2900  158.9167 H   0  0  0  0  0  0  0  0  0  0  0  0
  128.6787  130.6082  158.1638 H   0  0  0  0  0  0  0  0  0  0  0  0
  126.3699  134.2032  160.6075 H   0  0  0  0  0  0  0  0  0  0  0  0
  128.6313  135.2159  160.9745 H   0  0  0  0  0  0  0  0  0  0  0  0
  128.5121  135.6719  159.2589 H   0  0  0  0  0  0  0  0  0  0  0  0
  131.3911  138.6723  161.6241 H   0  0  0  0  0  0  0  0  0  0  0  0
  131.7176  138.6553  158.7714 H   0  0  0  0  0  0  0  0  0  0  0  0
  134.0798  137.3695  160.3844 H   0  0  0  0  0  0  0  0  0  0  0  0
  134.1074  137.8228  158.5969 H   0  0  0  0  0  0  0  0  0  0  0  0
  133.6480  140.2432  159.2033 H   0  0  0  0  0  0  0  0  0  0  0  0
  133.6201  139.7907  160.9909 H   0  0  0  0  0  0  0  0  0  0  0  0
  130.0945  135.4977  162.1507 H   0  0  0  0  0  0  0  0  0  0  0  0
  130.0849  138.2634  163.0501 H   0  0  0  0  0  0  0  0  0  0  0  0
  128.0990  138.8551  161.7420 H   0  0  0  0  0  0  0  0  0  0  0  0
  127.6352  137.1110  161.5316 H   0  0  0  0  0  0  0  0  0  0  0  0
  127.6750  138.7709  164.1543 H   0  0  0  0  0  0  0  0  0  0  0  0
  126.0784  136.5191  163.1707 H   0  0  0  0  0  0  0  0  0  0  0  0
  129.1435  134.7437  163.5299 H   0  0  0  0  0  0  0  0  0  0  0  0
  127.7099  134.9836  164.5572 H   0  0  0  0  0  0  0  0  0  0  0  0
  127.6147  135.3010  162.8084 H   0  0  0  0  0  0  0  0  0  0  0  0
  129.4301  138.0852  165.4888 H   0  0  0  0  0  0  0  0  0  0  0  0
  128.7333  136.5532  166.0682 H   0  0  0  0  0  0  0  0  0  0  0  0
  130.3300  136.5635  165.2818 H   0  0  0  0  0  0  0  0  0  0  0  0
  131.7401  133.9927  158.3084 H   0  0  0  0  0  0  0  0  0  0  0  0
  130.1952  134.5999  157.6595 H   0  0  0  0  0  0  0  0  0  0  0  0
  1  2  1  0
  1 28  1  0
  1 29  1  0
  1 30  1  0
  2  7  2  0
  2  3  1  0
  3  4  2  0
  3 31  1  0
  4  5  1  0
  4 32  1  0
  5 27  1  0
  5  6  2  0
  6  7  1  0
  6  8  1  0
  7 33  1  0
  8  9  1  0
  8 34  1  0
  8 35  1  0
  9 10  1  1
  9 11  1  0
  9 26  1  0
 11 12  1  0
 13 11  2  0
 13 14  1  0
 13 18  1  0
 14 15  1  0
 14 36  1  0
 15 17  1  0
 15 16  1  0
 15 37  1  0
 16 17  1  0
 16 38  1  0
 16 39  1  0
 17 40  1  0
 17 41  1  0
 18 19  1  0
 18 42  1  0
 19 23  1  0
 19 20  1  0
 19 43  1  1
 20 21  1  0
 20 44  1  0
 20 45  1  0
 21 22  1  0
 21 23  1  0
 21 46  1  1
 22 47  1  0
 23 24  1  0
 23 25  1  0
 24 48  1  0
 24 49  1  0
 24 50  1  0
 25 51  1  0
 25 52  1  0
 25 53  1  0
 26 27  1  0
 26 54  1  0
 26 55  1  0
M  CHG  1  11   1
M  END
>  <DOCK_score>  (1) 
-40.909561

>  <SMILES>  (1) 
Cc1ccc2c(c1)C[C@H]([NH+]=C(NC1CC1)NC1CC(O)C1(C)C)CO2

$$$$
