O[C@H]1[C@@H](Sc2ccc(-c3n[nH]cc3C[NH2+]Cc3ccccc3)cc2)[C@H]2C=C[C@@H]1C2
     RDKit          3D

 55 59  0  0  1  0  0  0  0  0999 V2000
  134.2405  141.9826  161.4792 O   0  0  0  0  0  0  0  0  0  0  0  0
  134.5880  140.7318  162.0767 C   0  0  1  0  0  0  0  0  0  0  0  0
  134.7945  140.8579  163.1395 H   0  0  0  0  0  0  0  0  0  0  0  0
  133.4598  139.6935  161.8610 C   0  0  1  0  0  0  0  0  0  0  0  0
  133.1080  139.3056  162.8169 H   0  0  0  0  0  0  0  0  0  0  0  0
  132.0867  140.4227  160.9264 S   0  0  0  0  0  0  0  0  0  0  0  0
  130.9407  139.0902  160.8010 C   0  0  0  0  0  0  0  0  0  0  0  0
  130.4187  138.5123  161.9532 C   0  0  0  0  0  0  0  0  0  0  0  0
  129.5184  137.4729  161.8568 C   0  0  0  0  0  0  0  0  0  0  0  0
  129.1394  136.9941  160.6036 C   0  0  0  0  0  0  0  0  0  0  0  0
  128.1750  135.8713  160.4980 C   0  0  0  0  0  0  0  0  0  0  0  0
  126.9425  135.8631  160.9598 N   0  0  0  0  0  0  0  0  0  0  0  0
  126.3707  134.6218  160.6525 N   0  0  0  0  0  0  0  0  0  0  0  0
  125.4686  134.3408  160.8719 H   0  0  0  0  0  0  0  0  0  0  0  0
  127.2950  133.8826  160.0025 C   0  0  0  0  0  0  0  0  0  0  0  0
  128.4187  134.6239  159.8909 C   0  0  0  0  0  0  0  0  0  0  0  0
  129.7047  134.1928  159.2339 C   0  0  0  0  0  0  0  0  0  0  0  0
  130.5728  133.5518  160.2306 N   0  0  0  0  0  0  0  0  0  0  0  0
  130.7764  134.2070  160.9705 H   0  0  0  0  0  0  0  0  0  0  0  0
  130.1047  132.7449  160.6153 H   0  0  0  0  0  0  0  0  0  0  0  0
  131.8263  133.1315  159.5903 C   0  0  0  0  0  0  0  0  0  0  0  0
  131.5226  132.1528  158.4854 C   0  0  0  0  0  0  0  0  0  0  0  0
  131.4819  130.7975  158.7544 C   0  0  0  0  0  0  0  0  0  0  0  0
  131.1983  129.9002  157.7419 C   0  0  0  0  0  0  0  0  0  0  0  0
  130.9660  130.3573  156.4581 C   0  0  0  0  0  0  0  0  0  0  0  0
  131.0118  131.7123  156.1880 C   0  0  0  0  0  0  0  0  0  0  0  0
  131.2902  132.6100  157.2017 C   0  0  0  0  0  0  0  0  0  0  0  0
  129.6677  137.5713  159.4498 C   0  0  0  0  0  0  0  0  0  0  0  0
  130.5638  138.6139  159.5499 C   0  0  0  0  0  0  0  0  0  0  0  0
  134.1505  138.5646  161.0311 C   0  0  1  0  0  0  0  0  0  0  0  0
  133.6422  137.6013  160.9889 H   0  0  0  0  0  0  0  0  0  0  0  0
  134.4617  139.2289  159.6843 C   0  0  0  0  0  0  0  0  0  0  0  0
  135.4219  140.1128  159.8681 C   0  0  0  0  0  0  0  0  0  0  0  0
  135.8169  140.0986  161.3497 C   0  0  2  0  0  0  0  0  0  0  0  0
  136.7981  140.5064  161.5926 H   0  0  0  0  0  0  0  0  0  0  0  0
  135.5856  138.5773  161.6738 C   0  0  0  0  0  0  0  0  0  0  0  0
  134.9469  142.6422  161.5082 H   0  0  0  0  0  0  0  0  0  0  0  0
  130.7161  138.8804  162.9240 H   0  0  0  0  0  0  0  0  0  0  0  0
  129.1098  137.0272  162.7517 H   0  0  0  0  0  0  0  0  0  0  0  0
  127.1594  132.8758  159.6357 H   0  0  0  0  0  0  0  0  0  0  0  0
  129.4849  133.4850  158.4347 H   0  0  0  0  0  0  0  0  0  0  0  0
  130.2105  135.0644  158.8186 H   0  0  0  0  0  0  0  0  0  0  0  0
  132.3321  134.0031  159.1748 H   0  0  0  0  0  0  0  0  0  0  0  0
  132.4705  132.6560  160.3300 H   0  0  0  0  0  0  0  0  0  0  0  0
  131.6678  130.4400  159.7564 H   0  0  0  0  0  0  0  0  0  0  0  0
  131.1629  128.8416  157.9527 H   0  0  0  0  0  0  0  0  0  0  0  0
  130.7490  129.6559  155.6661 H   0  0  0  0  0  0  0  0  0  0  0  0
  130.8307  132.0694  155.1851 H   0  0  0  0  0  0  0  0  0  0  0  0
  131.3263  133.6685  156.9906 H   0  0  0  0  0  0  0  0  0  0  0  0
  129.3749  137.2018  158.4782 H   0  0  0  0  0  0  0  0  0  0  0  0
  130.9730  139.0615  158.6562 H   0  0  0  0  0  0  0  0  0  0  0  0
  133.9768  139.0092  158.7447 H   0  0  0  0  0  0  0  0  0  0  0  0
  135.8572  140.7404  159.1044 H   0  0  0  0  0  0  0  0  0  0  0  0
  136.2845  137.9272  161.1476 H   0  0  0  0  0  0  0  0  0  0  0  0
  135.5651  138.3770  162.7452 H   0  0  0  0  0  0  0  0  0  0  0  0
  1  2  1  0
  1 37  1  0
  2  3  1  1
  2 34  1  0
  2  4  1  0
  4  5  1  1
  4  6  1  0
  4 30  1  0
  6  7  1  0
  7 29  1  0
  7  8  2  0
  8  9  1  0
  8 38  1  0
  9 10  2  0
  9 39  1  0
 10 11  1  0
 10 28  1  0
 11 16  1  0
 11 12  2  0
 12 13  1  0
 13 14  1  0
 13 15  1  0
 15 16  2  0
 15 40  1  0
 16 17  1  0
 17 18  1  0
 17 41  1  0
 17 42  1  0
 18 19  1  0
 18 20  1  0
 18 21  1  0
 21 22  1  0
 21 43  1  0
 21 44  1  0
 22 27  1  0
 22 23  2  0
 23 24  1  0
 23 45  1  0
 24 25  2  0
 24 46  1  0
 25 26  1  0
 25 47  1  0
 26 27  2  0
 26 48  1  0
 27 49  1  0
 28 29  2  0
 28 50  1  0
 29 51  1  0
 30 31  1  6
 30 36  1  0
 30 32  1  0
 32 33  2  0
 32 52  1  0
 33 34  1  0
 33 53  1  0
 34 35  1  6
 34 36  1  0
 36 54  1  0
 36 55  1  0
M  CHG  1  18   1
M  END
>  <DOCK_score>  (1) 
-42.947521

>  <SMILES>  (1) 
O[C@H]1[C@@H](Sc2ccc(-c3n[nH]cc3C[NH2+]Cc3ccccc3)cc2)[C@H]2C=C[C@@H]1C2

$$$$
