CCC=CSc1ccc([C@H](Nc2[nH]cc(-c3ccc(CC)cc3)[nH+]2)c2ccccc2)cc1
     RDKit          3D

 62 65  0  0  1  0  0  0  0  0999 V2000
  127.9989  142.5927  165.1382 C   0  0  0  0  0  0  0  0  0  0  0  0
  128.3553  141.1283  164.8750 C   0  0  0  0  0  0  0  0  0  0  0  0
  129.0537  141.0125  163.5447 C   0  0  0  0  0  0  0  0  0  0  0  0
  130.3693  141.1145  163.4781 C   0  0  0  0  0  0  0  0  0  0  0  0
  131.1860  140.9792  161.9223 S   0  0  0  0  0  0  0  0  0  0  0  0
  130.7351  139.3652  161.3783 C   0  0  0  0  0  0  0  0  0  0  0  0
  131.0756  138.2532  162.1393 C   0  0  0  0  0  0  0  0  0  0  0  0
  130.7211  136.9897  161.7096 C   0  0  0  0  0  0  0  0  0  0  0  0
  130.0281  136.8301  160.5233 C   0  0  0  0  0  0  0  0  0  0  0  0
  129.6430  135.4495  160.0578 C   0  0  2  0  0  0  0  0  0  0  0  0
  129.9929  134.7118  160.7798 H   0  0  0  0  0  0  0  0  0  0  0  0
  130.2557  135.1853  158.7536 N   0  0  0  0  0  0  0  0  0  0  0  0
  130.0429  133.9720  158.1218 C   0  0  0  0  0  0  0  0  0  0  0  0
  129.2929  132.9458  158.6083 N   0  0  0  0  0  0  0  0  0  0  0  0
  128.8152  132.9331  159.4525 H   0  0  0  0  0  0  0  0  0  0  0  0
  129.3368  131.9314  157.6830 C   0  0  0  0  0  0  0  0  0  0  0  0
  130.1116  132.3664  156.6587 C   0  0  0  0  0  0  0  0  0  0  0  0
  130.4432  131.6041  155.4302 C   0  0  0  0  0  0  0  0  0  0  0  0
  130.0835  132.1025  154.1792 C   0  0  0  0  0  0  0  0  0  0  0  0
  130.3948  131.3892  153.0396 C   0  0  0  0  0  0  0  0  0  0  0  0
  131.0625  130.1809  153.1376 C   0  0  0  0  0  0  0  0  0  0  0  0
  131.4000  129.4071  151.8894 C   0  0  0  0  0  0  0  0  0  0  0  0
  130.2483  128.4588  151.5504 C   0  0  0  0  0  0  0  0  0  0  0  0
  131.4173  129.6795  154.3764 C   0  0  0  0  0  0  0  0  0  0  0  0
  131.1160  130.3870  155.5224 C   0  0  0  0  0  0  0  0  0  0  0  0
  130.5346  133.6201  156.9590 N   0  0  0  0  0  0  0  0  0  0  0  0
  131.1077  134.1691  156.4012 H   0  0  0  0  0  0  0  0  0  0  0  0
  128.1436  135.3609  159.9356 C   0  0  0  0  0  0  0  0  0  0  0  0
  127.3850  134.9509  161.0160 C   0  0  0  0  0  0  0  0  0  0  0  0
  126.0092  134.8739  160.9053 C   0  0  0  0  0  0  0  0  0  0  0  0
  125.3928  135.1980  159.7111 C   0  0  0  0  0  0  0  0  0  0  0  0
  126.1518  135.6029  158.6292 C   0  0  0  0  0  0  0  0  0  0  0  0
  127.5270  135.6842  158.7412 C   0  0  0  0  0  0  0  0  0  0  0  0
  129.6929  137.9339  159.7605 C   0  0  0  0  0  0  0  0  0  0  0  0
  130.0400  139.2007  160.1864 C   0  0  0  0  0  0  0  0  0  0  0  0
  128.9096  143.1914  165.1526 H   0  0  0  0  0  0  0  0  0  0  0  0
  127.3393  142.9535  164.3490 H   0  0  0  0  0  0  0  0  0  0  0  0
  127.4937  142.6764  166.1005 H   0  0  0  0  0  0  0  0  0  0  0  0
  127.4446  140.5296  164.8605 H   0  0  0  0  0  0  0  0  0  0  0  0
  129.0149  140.7674  165.6643 H   0  0  0  0  0  0  0  0  0  0  0  0
  128.4788  140.8461  162.6457 H   0  0  0  0  0  0  0  0  0  0  0  0
  130.9440  141.2809  164.3771 H   0  0  0  0  0  0  0  0  0  0  0  0
  131.6167  138.3771  163.0657 H   0  0  0  0  0  0  0  0  0  0  0  0
  130.9848  136.1253  162.3008 H   0  0  0  0  0  0  0  0  0  0  0  0
  130.8105  135.8606  158.3326 H   0  0  0  0  0  0  0  0  0  0  0  0
  128.8475  130.9715  157.7570 H   0  0  0  0  0  0  0  0  0  0  0  0
  129.5617  133.0450  154.1020 H   0  0  0  0  0  0  0  0  0  0  0  0
  130.1169  131.7746  152.0698 H   0  0  0  0  0  0  0  0  0  0  0  0
  132.3096  128.8302  152.0542 H   0  0  0  0  0  0  0  0  0  0  0  0
  131.5545  130.1008  151.0621 H   0  0  0  0  0  0  0  0  0  0  0  0
  129.3386  129.0360  151.3853 H   0  0  0  0  0  0  0  0  0  0  0  0
  130.4923  127.8988  150.6477 H   0  0  0  0  0  0  0  0  0  0  0  0
  130.0936  127.7656  152.3773 H   0  0  0  0  0  0  0  0  0  0  0  0
  131.9344  128.7340  154.4469 H   0  0  0  0  0  0  0  0  0  0  0  0
  131.3974  129.9963  156.4892 H   0  0  0  0  0  0  0  0  0  0  0  0
  127.8670  134.6941  161.9478 H   0  0  0  0  0  0  0  0  0  0  0  0
  125.4163  134.5578  161.7507 H   0  0  0  0  0  0  0  0  0  0  0  0
  124.3182  135.1353  159.6238 H   0  0  0  0  0  0  0  0  0  0  0  0
  125.6701  135.8561  157.6962 H   0  0  0  0  0  0  0  0  0  0  0  0
  128.1200  136.0006  157.8958 H   0  0  0  0  0  0  0  0  0  0  0  0
  129.1558  137.8051  158.8324 H   0  0  0  0  0  0  0  0  0  0  0  0
  129.7740  140.0626  159.5924 H   0  0  0  0  0  0  0  0  0  0  0  0
  1  2  1  0
  1 36  1  0
  1 37  1  0
  1 38  1  0
  2  3  1  0
  2 39  1  0
  2 40  1  0
  3  4  2  0
  3 41  1  0
  4  5  1  0
  4 42  1  0
  5  6  1  0
  6 35  2  0
  6  7  1  0
  7  8  2  0
  7 43  1  0
  8  9  1  0
  8 44  1  0
  9 10  1  0
  9 34  2  0
 10 11  1  1
 10 12  1  0
 10 28  1  0
 12 45  1  0
 13 12  1  0
 13 26  2  0
 13 14  1  0
 14 15  1  0
 14 16  1  0
 16 17  2  0
 16 46  1  0
 17 18  1  0
 17 26  1  0
 18 25  1  0
 18 19  2  0
 19 20  1  0
 19 47  1  0
 20 21  2  0
 20 48  1  0
 21 22  1  0
 21 24  1  0
 22 23  1  0
 22 49  1  0
 22 50  1  0
 23 51  1  0
 23 52  1  0
 23 53  1  0
 24 25  2  0
 24 54  1  0
 25 55  1  0
 26 27  1  0
 28 33  1  0
 28 29  2  0
 29 30  1  0
 29 56  1  0
 30 31  2  0
 30 57  1  0
 31 32  1  0
 31 58  1  0
 32 33  2  0
 32 59  1  0
 33 60  1  0
 34 35  1  0
 34 61  1  0
 35 62  1  0
M  CHG  1  26   1
M  END
>  <DOCK_score>  (1) 
-65.307968

>  <SMILES>  (1) 
CCC=CSc1ccc([C@H](Nc2[nH]cc(-c3ccc(CC)cc3)[nH+]2)c2ccccc2)cc1

$$$$
