Nc1ccc(-c2c[nH]c(N[C@@H](CC3CC=C(C(Cl)Cl)CC3)c3ccccc3)[nH+]2)cc1
     RDKit          3D

 57 60  0  0  1  0  0  0  0  0999 V2000
  131.1707  129.6640  152.8351 N   0  0  0  0  0  0  0  0  0  0  0  0
  130.9524  130.4167  153.9915 C   0  0  0  0  0  0  0  0  0  0  0  0
  130.1094  131.5208  153.9519 C   0  0  0  0  0  0  0  0  0  0  0  0
  129.8925  132.2654  155.0921 C   0  0  0  0  0  0  0  0  0  0  0  0
  130.5196  131.9097  156.2852 C   0  0  0  0  0  0  0  0  0  0  0  0
  130.2879  132.7091  157.5132 C   0  0  0  0  0  0  0  0  0  0  0  0
  129.7557  132.2527  158.6738 C   0  0  0  0  0  0  0  0  0  0  0  0
  129.7216  133.3176  159.5428 N   0  0  0  0  0  0  0  0  0  0  0  0
  129.3929  133.3043  160.4553 H   0  0  0  0  0  0  0  0  0  0  0  0
  130.2344  134.3934  158.8862 C   0  0  0  0  0  0  0  0  0  0  0  0
  130.3764  135.6663  159.4117 N   0  0  0  0  0  0  0  0  0  0  0  0
  129.9567  135.9416  160.7880 C   0  0  1  0  0  0  0  0  0  0  0  0
  130.5210  135.3092  161.4734 H   0  0  0  0  0  0  0  0  0  0  0  0
  130.2201  137.4124  161.1172 C   0  0  0  0  0  0  0  0  0  0  0  0
  131.6991  137.6013  161.4601 C   0  0  2  0  0  0  0  0  0  0  0  0
  131.9723  139.0759  161.7644 C   0  0  0  0  0  0  0  0  0  0  0  0
  133.4506  139.3225  161.8415 C   0  0  0  0  0  0  0  0  0  0  0  0
  134.3462  138.5145  161.3715 C   0  0  0  0  0  0  0  0  0  0  0  0
  135.7947  138.9045  161.5153 C   0  0  0  0  0  0  0  0  0  0  0  0
  136.0829  140.4690  160.6667 Cl  0  0  0  0  0  0  0  0  0  0  0  0
  136.1977  139.0858  163.2632 Cl  0  0  0  0  0  0  0  0  0  0  0  0
  134.0316  137.2136  160.6929 C   0  0  0  0  0  0  0  0  0  0  0  0
  132.5633  137.1847  160.2632 C   0  0  0  0  0  0  0  0  0  0  0  0
  128.4852  135.6503  160.9322 C   0  0  0  0  0  0  0  0  0  0  0  0
  127.9807  135.2237  162.1465 C   0  0  0  0  0  0  0  0  0  0  0  0
  126.6302  134.9604  162.2798 C   0  0  0  0  0  0  0  0  0  0  0  0
  125.7856  135.1156  161.1966 C   0  0  0  0  0  0  0  0  0  0  0  0
  126.2909  135.5372  159.9810 C   0  0  0  0  0  0  0  0  0  0  0  0
  127.6406  135.8043  159.8487 C   0  0  0  0  0  0  0  0  0  0  0  0
  130.5664  134.0273  157.6721 N   0  0  0  0  0  0  0  0  0  0  0  0
  130.9518  134.6060  156.9958 H   0  0  0  0  0  0  0  0  0  0  0  0
  131.3692  130.8051  156.3213 C   0  0  0  0  0  0  0  0  0  0  0  0
  131.5783  130.0598  155.1802 C   0  0  0  0  0  0  0  0  0  0  0  0
  130.7339  129.9118  152.0055 H   0  0  0  0  0  0  0  0  0  0  0  0
  131.7588  128.8929  152.8621 H   0  0  0  0  0  0  0  0  0  0  0  0
  129.6240  131.7962  153.0273 H   0  0  0  0  0  0  0  0  0  0  0  0
  129.2371  133.1232  155.0608 H   0  0  0  0  0  0  0  0  0  0  0  0
  129.4223  131.2457  158.8766 H   0  0  0  0  0  0  0  0  0  0  0  0
  130.7540  136.3758  158.8687 H   0  0  0  0  0  0  0  0  0  0  0  0
  129.6088  137.7092  161.9694 H   0  0  0  0  0  0  0  0  0  0  0  0
  129.9655  138.0289  160.2550 H   0  0  0  0  0  0  0  0  0  0  0  0
  131.9542  136.9945  162.3290 H   0  0  0  0  0  0  0  0  0  0  0  0
  131.5437  139.6931  160.9748 H   0  0  0  0  0  0  0  0  0  0  0  0
  131.5120  139.3397  162.7166 H   0  0  0  0  0  0  0  0  0  0  0  0
  133.7883  140.2307  162.3184 H   0  0  0  0  0  0  0  0  0  0  0  0
  136.4244  138.1312  161.0754 H   0  0  0  0  0  0  0  0  0  0  0  0
  134.2225  136.3912  161.3823 H   0  0  0  0  0  0  0  0  0  0  0  0
  134.6675  137.1037  159.8145 H   0  0  0  0  0  0  0  0  0  0  0  0
  132.2931  136.1765  159.9494 H   0  0  0  0  0  0  0  0  0  0  0  0
  132.4088  137.8818  159.4395 H   0  0  0  0  0  0  0  0  0  0  0  0
  128.6412  135.0993  162.9918 H   0  0  0  0  0  0  0  0  0  0  0  0
  126.2356  134.6307  163.2295 H   0  0  0  0  0  0  0  0  0  0  0  0
  124.7309  134.9073  161.3000 H   0  0  0  0  0  0  0  0  0  0  0  0
  125.6309  135.6582  159.1346 H   0  0  0  0  0  0  0  0  0  0  0  0
  128.0355  136.1337  158.8989 H   0  0  0  0  0  0  0  0  0  0  0  0
  131.8595  130.5304  157.2436 H   0  0  0  0  0  0  0  0  0  0  0  0
  132.2329  129.2014  155.2087 H   0  0  0  0  0  0  0  0  0  0  0  0
  1  2  1  0
  1 34  1  0
  1 35  1  0
  2 33  2  0
  2  3  1  0
  3  4  2  0
  3 36  1  0
  4  5  1  0
  4 37  1  0
  5  6  1  0
  5 32  2  0
  6 30  1  0
  6  7  2  0
  7  8  1  0
  7 38  1  0
  8  9  1  0
  8 10  1  0
 10 11  1  0
 10 30  2  0
 11 12  1  0
 11 39  1  0
 12 13  1  1
 12 14  1  0
 12 24  1  0
 14 15  1  0
 14 40  1  0
 14 41  1  0
 15 23  1  0
 15 16  1  0
 15 42  1  1
 16 17  1  0
 16 43  1  0
 16 44  1  0
 17 18  2  0
 17 45  1  0
 18 19  1  0
 18 22  1  0
 19 20  1  0
 19 21  1  0
 19 46  1  0
 22 23  1  0
 22 47  1  0
 22 48  1  0
 23 49  1  0
 23 50  1  0
 24 29  1  0
 24 25  2  0
 25 26  1  0
 25 51  1  0
 26 27  2  0
 26 52  1  0
 27 28  1  0
 27 53  1  0
 28 29  2  0
 28 54  1  0
 29 55  1  0
 30 31  1  0
 32 33  1  0
 32 56  1  0
 33 57  1  0
M  CHG  1  30   1
M  END
>  <DOCK_score>  (1) 
-59.020565

>  <SMILES>  (1) 
Nc1ccc(-c2c[nH]c(N[C@@H](CC3CC=C(C(Cl)Cl)CC3)c3ccccc3)[nH+]2)cc1

$$$$
