O=C(N[C@H]1CC[NH2+]C2(CC2)C1)C(NCc1cc(C2=CC3CCC2C3)no1)c1cccnc1
     RDKit          3D

 64 69  0  0  1  0  0  0  0  0999 V2000
  126.7339  136.1975  160.6208 O   0  0  0  0  0  0  0  0  0  0  0  0
  127.7799  136.4191  161.1932 C   0  0  0  0  0  0  0  0  0  0  0  0
  128.9207  135.8491  160.7573 N   0  0  0  0  0  0  0  0  0  0  0  0
  128.8972  134.9615  159.5921 C   0  0  1  0  0  0  0  0  0  0  0  0
  127.9308  134.4609  159.5327 H   0  0  0  0  0  0  0  0  0  0  0  0
  129.1285  135.7808  158.3196 C   0  0  0  0  0  0  0  0  0  0  0  0
  129.1121  134.8543  157.1030 C   0  0  0  0  0  0  0  0  0  0  0  0
  130.2191  133.8931  157.1970 N   0  0  0  0  0  0  0  0  0  0  0  0
  130.2009  133.2792  156.3964 H   0  0  0  0  0  0  0  0  0  0  0  0
  131.0963  134.3909  157.2203 H   0  0  0  0  0  0  0  0  0  0  0  0
  130.0720  133.1008  158.4259 C   0  0  0  0  0  0  0  0  0  0  0  0
  130.7572  131.7354  158.4784 C   0  0  0  0  0  0  0  0  0  0  0  0
  129.2347  131.8237  158.3514 C   0  0  0  0  0  0  0  0  0  0  0  0
  130.0098  133.9150  159.7219 C   0  0  0  0  0  0  0  0  0  0  0  0
  127.8040  137.3322  162.3920 C   0  0  2  0  0  0  0  0  0  0  0  0
  129.1076  138.0050  162.4691 N   0  0  0  0  0  0  0  0  0  0  0  0
  129.1691  139.1416  161.5405 C   0  0  0  0  0  0  0  0  0  0  0  0
  130.5178  139.8053  161.6475 C   0  0  0  0  0  0  0  0  0  0  0  0
  131.6219  139.5101  160.9254 C   0  0  0  0  0  0  0  0  0  0  0  0
  132.6042  140.4183  161.4139 C   0  0  0  0  0  0  0  0  0  0  0  0
  134.0096  140.5322  160.9684 C   0  0  0  0  0  0  0  0  0  0  0  0
  134.5917  139.7967  160.0201 C   0  0  0  0  0  0  0  0  0  0  0  0
  136.0500  140.2534  159.8885 C   0  0  2  0  0  0  0  0  0  0  0  0
  136.7295  139.7395  161.1973 C   0  0  0  0  0  0  0  0  0  0  0  0
  136.0478  140.6230  162.3087 C   0  0  0  0  0  0  0  0  0  0  0  0
  135.0484  141.5207  161.5121 C   0  0  1  0  0  0  0  0  0  0  0  0
  135.8831  141.7833  160.2101 C   0  0  0  0  0  0  0  0  0  0  0  0
  132.0101  141.1329  162.3393 N   0  0  0  0  0  0  0  0  0  0  0  0
  130.8536  140.8065  162.4735 O   0  0  0  0  0  0  0  0  0  0  0  0
  127.5812  136.5235  163.6440 C   0  0  0  0  0  0  0  0  0  0  0  0
  128.6573  135.9808  164.3301 C   0  0  0  0  0  0  0  0  0  0  0  0
  128.4052  135.2479  165.4794 C   0  0  0  0  0  0  0  0  0  0  0  0
  127.0983  135.0755  165.8951 C   0  0  0  0  0  0  0  0  0  0  0  0
  126.0991  135.6020  165.2147 N   0  0  0  0  0  0  0  0  0  0  0  0
  126.3018  136.3086  164.1198 C   0  0  0  0  0  0  0  0  0  0  0  0
  129.7572  136.0264  161.2152 H   0  0  0  0  0  0  0  0  0  0  0  0
  130.0945  136.2820  158.3813 H   0  0  0  0  0  0  0  0  0  0  0  0
  128.3392  136.5258  158.2192 H   0  0  0  0  0  0  0  0  0  0  0  0
  128.1653  134.3151  157.0705 H   0  0  0  0  0  0  0  0  0  0  0  0
  129.2233  135.4466  156.1947 H   0  0  0  0  0  0  0  0  0  0  0  0
  131.3181  131.4195  157.5988 H   0  0  0  0  0  0  0  0  0  0  0  0
  131.1645  131.4131  159.4367 H   0  0  0  0  0  0  0  0  0  0  0  0
  128.6405  131.5597  159.2263 H   0  0  0  0  0  0  0  0  0  0  0  0
  128.7938  131.5664  157.3884 H   0  0  0  0  0  0  0  0  0  0  0  0
  129.7925  133.2525  160.5598 H   0  0  0  0  0  0  0  0  0  0  0  0
  130.9654  134.4125  159.8875 H   0  0  0  0  0  0  0  0  0  0  0  0
  127.0152  138.0783  162.2963 H   0  0  0  0  0  0  0  0  0  0  0  0
  129.3079  138.2982  163.4135 H   0  0  0  0  0  0  0  0  0  0  0  0
  129.0188  138.7864  160.5211 H   0  0  0  0  0  0  0  0  0  0  0  0
  128.3896  139.8601  161.7938 H   0  0  0  0  0  0  0  0  0  0  0  0
  131.7330  138.7599  160.1563 H   0  0  0  0  0  0  0  0  0  0  0  0
  134.1182  139.0152  159.4444 H   0  0  0  0  0  0  0  0  0  0  0  0
  136.5521  140.0028  158.9539 H   0  0  0  0  0  0  0  0  0  0  0  0
  136.5277  138.6782  161.3424 H   0  0  0  0  0  0  0  0  0  0  0  0
  137.8031  139.9258  161.1701 H   0  0  0  0  0  0  0  0  0  0  0  0
  136.7857  141.2366  162.8254 H   0  0  0  0  0  0  0  0  0  0  0  0
  135.5130  139.9888  163.0157 H   0  0  0  0  0  0  0  0  0  0  0  0
  134.6570  142.3988  162.0257 H   0  0  0  0  0  0  0  0  0  0  0  0
  136.8352  142.2726  160.4152 H   0  0  0  0  0  0  0  0  0  0  0  0
  135.3069  142.3091  159.4486 H   0  0  0  0  0  0  0  0  0  0  0  0
  129.6681  136.1288  163.9794 H   0  0  0  0  0  0  0  0  0  0  0  0
  129.2193  134.8139  166.0409 H   0  0  0  0  0  0  0  0  0  0  0  0
  126.8931  134.5024  166.7872 H   0  0  0  0  0  0  0  0  0  0  0  0
  125.4583  136.7246  163.5890 H   0  0  0  0  0  0  0  0  0  0  0  0
  1  2  2  0
  2  3  1  0
  2 15  1  0
  3  4  1  0
  3 36  1  0
  4  5  1  6
  4 14  1  0
  4  6  1  0
  6  7  1  0
  6 37  1  0
  6 38  1  0
  7  8  1  0
  7 39  1  0
  7 40  1  0
  8  9  1  0
  8 10  1  0
  8 11  1  0
 11 13  1  0
 11 12  1  0
 11 14  1  0
 12 13  1  0
 12 41  1  0
 12 42  1  0
 13 43  1  0
 13 44  1  0
 14 45  1  0
 14 46  1  0
 15 16  1  0
 15 30  1  0
 15 47  1  6
 16 17  1  0
 16 48  1  0
 17 18  1  0
 17 49  1  0
 17 50  1  0
 18 29  1  0
 18 19  2  0
 19 20  1  0
 19 51  1  0
 20 21  1  0
 20 28  2  0
 21 26  1  0
 21 22  2  0
 22 23  1  0
 22 52  1  0
 23 27  1  0
 23 24  1  0
 23 53  1  6
 24 25  1  0
 24 54  1  0
 24 55  1  0
 25 26  1  0
 25 56  1  0
 25 57  1  0
 26 27  1  0
 26 58  1  1
 27 59  1  0
 27 60  1  0
 28 29  1  0
 30 35  1  0
 30 31  2  0
 31 32  1  0
 31 61  1  0
 32 33  2  0
 32 62  1  0
 33 34  1  0
 33 63  1  0
 34 35  2  0
 35 64  1  0
M  CHG  1   8   1
M  END
>  <DOCK_score>  (1) 
-43.09129

>  <SMILES>  (1) 
O=C(N[C@H]1CC[NH2+]C2(CC2)C1)C(NCc1cc(C2=CC3CCC2C3)no1)c1cccnc1

$$$$
