CCc1ccc(-c2c[nH]c(Nc3ccc(Nc4nc(-c5ccc(N)cc5)c[nH]4)nc3OC)[nH+]2)cc1
     RDKit          3D

 62 66  0  0  1  0  0  0  0  0999 V2000
  130.1076  128.6571  151.4178 C   0  0  0  0  0  0  0  0  0  0  0  0
  131.2241  129.6554  151.7295 C   0  0  0  0  0  0  0  0  0  0  0  0
  130.9251  130.3533  153.0314 C   0  0  0  0  0  0  0  0  0  0  0  0
  131.3862  129.8195  154.2208 C   0  0  0  0  0  0  0  0  0  0  0  0
  131.1202  130.4570  155.4156 C   0  0  0  0  0  0  0  0  0  0  0  0
  130.3757  131.6353  155.4230 C   0  0  0  0  0  0  0  0  0  0  0  0
  130.0819  132.3222  156.7045 C   0  0  0  0  0  0  0  0  0  0  0  0
  129.4053  131.7956  157.7553 C   0  0  0  0  0  0  0  0  0  0  0  0
  129.3616  132.7649  158.7274 N   0  0  0  0  0  0  0  0  0  0  0  0
  128.9432  132.6861  159.5990 H   0  0  0  0  0  0  0  0  0  0  0  0
  130.0135  133.8569  158.2416 C   0  0  0  0  0  0  0  0  0  0  0  0
  130.1943  135.0536  158.9142 N   0  0  0  0  0  0  0  0  0  0  0  0
  130.2862  135.0647  160.3139 C   0  0  0  0  0  0  0  0  0  0  0  0
  131.5208  134.9279  160.9401 C   0  0  0  0  0  0  0  0  0  0  0  0
  131.5659  134.9495  162.3243 C   0  0  0  0  0  0  0  0  0  0  0  0
  130.3846  135.0948  163.0404 C   0  0  0  0  0  0  0  0  0  0  0  0
  130.4217  135.1120  164.4339 N   0  0  0  0  0  0  0  0  0  0  0  0
  129.2482  135.2571  165.1564 C   0  0  0  0  0  0  0  0  0  0  0  0
  129.1553  135.2879  166.4636 N   0  0  0  0  0  0  0  0  0  0  0  0
  127.8545  135.4454  166.8133 C   0  0  0  0  0  0  0  0  0  0  0  0
  127.3270  135.5319  168.1972 C   0  0  0  0  0  0  0  0  0  0  0  0
  126.0378  135.0843  168.4819 C   0  0  0  0  0  0  0  0  0  0  0  0
  125.5518  135.1599  169.7702 C   0  0  0  0  0  0  0  0  0  0  0  0
  126.3415  135.6933  170.7817 C   0  0  0  0  0  0  0  0  0  0  0  0
  125.8446  135.7746  172.0849 N   0  0  0  0  0  0  0  0  0  0  0  0
  127.6251  136.1452  170.4992 C   0  0  0  0  0  0  0  0  0  0  0  0
  128.1176  136.0659  169.2136 C   0  0  0  0  0  0  0  0  0  0  0  0
  127.1207  135.5044  165.6743 C   0  0  0  0  0  0  0  0  0  0  0  0
  128.0015  135.3854  164.6261 N   0  0  0  0  0  0  0  0  0  0  0  0
  127.7759  135.3913  163.6827 H   0  0  0  0  0  0  0  0  0  0  0  0
  129.2231  135.2179  162.4151 N   0  0  0  0  0  0  0  0  0  0  0  0
  129.1414  135.2069  161.0952 C   0  0  0  0  0  0  0  0  0  0  0  0
  127.9302  135.3359  160.4957 O   0  0  0  0  0  0  0  0  0  0  0  0
  126.7946  135.4782  161.3513 C   0  0  0  0  0  0  0  0  0  0  0  0
  130.4475  133.5860  157.0346 N   0  0  0  0  0  0  0  0  0  0  0  0
  130.9476  134.1933  156.4672 H   0  0  0  0  0  0  0  0  0  0  0  0
  129.9087  132.1659  154.2217 C   0  0  0  0  0  0  0  0  0  0  0  0
  130.1856  131.5229  153.0325 C   0  0  0  0  0  0  0  0  0  0  0  0
  130.0455  127.9205  152.2189 H   0  0  0  0  0  0  0  0  0  0  0  0
  129.1583  129.1866  151.3368 H   0  0  0  0  0  0  0  0  0  0  0  0
  130.3238  128.1525  150.4761 H   0  0  0  0  0  0  0  0  0  0  0  0
  132.1732  129.1265  151.8103 H   0  0  0  0  0  0  0  0  0  0  0  0
  131.2859  130.3927  150.9283 H   0  0  0  0  0  0  0  0  0  0  0  0
  131.9591  128.9039  154.2143 H   0  0  0  0  0  0  0  0  0  0  0  0
  131.4845  130.0414  156.3434 H   0  0  0  0  0  0  0  0  0  0  0  0
  128.9818  130.8041  157.8160 H   0  0  0  0  0  0  0  0  0  0  0  0
  130.2576  135.8844  158.4173 H   0  0  0  0  0  0  0  0  0  0  0  0
  132.4243  134.8120  160.3598 H   0  0  0  0  0  0  0  0  0  0  0  0
  132.5089  134.8501  162.8414 H   0  0  0  0  0  0  0  0  0  0  0  0
  131.2689  135.0224  164.8976 H   0  0  0  0  0  0  0  0  0  0  0  0
  125.4218  134.6747  167.6951 H   0  0  0  0  0  0  0  0  0  0  0  0
  124.5549  134.8089  169.9922 H   0  0  0  0  0  0  0  0  0  0  0  0
  126.3955  136.1463  172.7916 H   0  0  0  0  0  0  0  0  0  0  0  0
  124.9491  135.4593  172.2831 H   0  0  0  0  0  0  0  0  0  0  0  0
  128.2371  136.5592  171.2868 H   0  0  0  0  0  0  0  0  0  0  0  0
  129.1150  136.4170  168.9944 H   0  0  0  0  0  0  0  0  0  0  0  0
  126.0493  135.6217  165.6045 H   0  0  0  0  0  0  0  0  0  0  0  0
  126.9131  136.3698  161.9670 H   0  0  0  0  0  0  0  0  0  0  0  0
  125.8931  135.5719  160.7459 H   0  0  0  0  0  0  0  0  0  0  0  0
  126.7114  134.6015  161.9937 H   0  0  0  0  0  0  0  0  0  0  0  0
  129.3312  133.0786  154.2217 H   0  0  0  0  0  0  0  0  0  0  0  0
  129.8240  131.9329  152.1011 H   0  0  0  0  0  0  0  0  0  0  0  0
  1  2  1  0
  1 39  1  0
  1 40  1  0
  1 41  1  0
  2  3  1  0
  2 42  1  0
  2 43  1  0
  3 38  2  0
  3  4  1  0
  4  5  2  0
  4 44  1  0
  5  6  1  0
  5 45  1  0
  6  7  1  0
  6 37  2  0
  7 35  1  0
  7  8  2  0
  8  9  1  0
  8 46  1  0
  9 10  1  0
  9 11  1  0
 11 12  1  0
 11 35  2  0
 12 13  1  0
 12 47  1  0
 13 32  1  0
 13 14  2  0
 14 15  1  0
 14 48  1  0
 15 16  2  0
 15 49  1  0
 16 17  1  0
 16 31  1  0
 17 18  1  0
 17 50  1  0
 18 29  1  0
 18 19  2  0
 19 20  1  0
 20 21  1  0
 20 28  2  0
 21 27  1  0
 21 22  2  0
 22 23  1  0
 22 51  1  0
 23 24  2  0
 23 52  1  0
 24 25  1  0
 24 26  1  0
 25 53  1  0
 25 54  1  0
 26 27  2  0
 26 55  1  0
 27 56  1  0
 28 29  1  0
 28 57  1  0
 29 30  1  0
 31 32  2  0
 32 33  1  0
 33 34  1  0
 34 58  1  0
 34 59  1  0
 34 60  1  0
 35 36  1  0
 37 38  1  0
 37 61  1  0
 38 62  1  0
M  CHG  1  35   1
M  END
>  <DOCK_score>  (1) 
-58.699787

>  <SMILES>  (1) 
CCc1ccc(-c2c[nH]c(Nc3ccc(Nc4nc(-c5ccc(N)cc5)c[nH]4)nc3OC)[nH+]2)cc1

$$$$
