CNc1cccc(Oc2cccc([C@@H]([NH3+])C(=O)Nc3cccc(O)c3)c2)c1
     RDKit          3D

 49 51  0  0  1  0  0  0  0  0999 V2000
  136.8922  136.4109  166.8422 C   0  0  0  0  0  0  0  0  0  0  0  0
  136.7176  136.1491  165.4113 N   0  0  0  0  0  0  0  0  0  0  0  0
  135.4368  136.1411  164.8541 C   0  0  0  0  0  0  0  0  0  0  0  0
  134.3275  136.3813  165.6561 C   0  0  0  0  0  0  0  0  0  0  0  0
  133.0611  136.3739  165.1050 C   0  0  0  0  0  0  0  0  0  0  0  0
  132.8933  136.1276  163.7553 C   0  0  0  0  0  0  0  0  0  0  0  0
  133.9974  135.8869  162.9494 C   0  0  0  0  0  0  0  0  0  0  0  0
  133.8312  135.6506  161.6216 O   0  0  0  0  0  0  0  0  0  0  0  0
  132.8468  134.7931  161.2446 C   0  0  0  0  0  0  0  0  0  0  0  0
  132.6841  133.5859  161.9097 C   0  0  0  0  0  0  0  0  0  0  0  0
  131.6791  132.7187  161.5283 C   0  0  0  0  0  0  0  0  0  0  0  0
  130.8426  133.0473  160.4773 C   0  0  0  0  0  0  0  0  0  0  0  0
  131.0061  134.2466  159.8093 C   0  0  0  0  0  0  0  0  0  0  0  0
  130.0930  134.6011  158.6640 C   0  0  1  0  0  0  0  0  0  0  0  0
  129.9817  135.6841  158.6098 H   0  0  0  0  0  0  0  0  0  0  0  0
  130.6686  134.1046  157.4070 N   0  0  0  0  0  0  0  0  0  0  0  0
  130.0572  134.3418  156.6402 H   0  0  0  0  0  0  0  0  0  0  0  0
  131.5724  134.5286  157.2603 H   0  0  0  0  0  0  0  0  0  0  0  0
  130.7716  133.1020  157.4571 H   0  0  0  0  0  0  0  0  0  0  0  0
  128.7432  133.9678  158.8831 C   0  0  0  0  0  0  0  0  0  0  0  0
  128.3039  133.1803  158.0720 O   0  0  0  0  0  0  0  0  0  0  0  0
  128.0242  134.2766  159.9804 N   0  0  0  0  0  0  0  0  0  0  0  0
  126.7709  133.6887  160.1839 C   0  0  0  0  0  0  0  0  0  0  0  0
  126.5098  132.4179  159.6865 C   0  0  0  0  0  0  0  0  0  0  0  0
  125.2746  131.8352  159.8923 C   0  0  0  0  0  0  0  0  0  0  0  0
  124.2917  132.5186  160.5833 C   0  0  0  0  0  0  0  0  0  0  0  0
  124.5450  133.7903  161.0773 C   0  0  0  0  0  0  0  0  0  0  0  0
  123.5775  134.4612  161.7560 O   0  0  0  0  0  0  0  0  0  0  0  0
  125.7855  134.3762  160.8776 C   0  0  0  0  0  0  0  0  0  0  0  0
  132.0062  135.1202  160.1905 C   0  0  0  0  0  0  0  0  0  0  0  0
  135.2703  135.8936  163.4987 C   0  0  0  0  0  0  0  0  0  0  0  0
  136.4945  137.3968  167.0823 H   0  0  0  0  0  0  0  0  0  0  0  0
  136.3594  135.6540  167.4177 H   0  0  0  0  0  0  0  0  0  0  0  0
  137.9529  136.3766  167.0909 H   0  0  0  0  0  0  0  0  0  0  0  0
  137.4913  135.9812  164.8510 H   0  0  0  0  0  0  0  0  0  0  0  0
  134.4558  136.5737  166.7111 H   0  0  0  0  0  0  0  0  0  0  0  0
  132.2003  136.5609  165.7298 H   0  0  0  0  0  0  0  0  0  0  0  0
  131.9018  136.1228  163.3272 H   0  0  0  0  0  0  0  0  0  0  0  0
  133.3401  133.3268  162.7276 H   0  0  0  0  0  0  0  0  0  0  0  0
  131.5495  131.7810  162.0483 H   0  0  0  0  0  0  0  0  0  0  0  0
  130.0600  132.3660  160.1778 H   0  0  0  0  0  0  0  0  0  0  0  0
  128.3755  134.9065  160.6292 H   0  0  0  0  0  0  0  0  0  0  0  0
  127.2746  131.8836  159.1424 H   0  0  0  0  0  0  0  0  0  0  0  0
  125.0747  130.8457  159.5086 H   0  0  0  0  0  0  0  0  0  0  0  0
  123.3254  132.0620  160.7391 H   0  0  0  0  0  0  0  0  0  0  0  0
  123.8470  135.3384  162.0608 H   0  0  0  0  0  0  0  0  0  0  0  0
  125.9844  135.3657  161.2617 H   0  0  0  0  0  0  0  0  0  0  0  0
  132.1338  136.0568  159.6681 H   0  0  0  0  0  0  0  0  0  0  0  0
  136.1305  135.7061  162.8731 H   0  0  0  0  0  0  0  0  0  0  0  0
  1  2  1  0
  1 32  1  0
  1 33  1  0
  1 34  1  0
  2  3  1  0
  2 35  1  0
  3 31  2  0
  3  4  1  0
  4  5  2  0
  4 36  1  0
  5  6  1  0
  5 37  1  0
  6  7  2  0
  6 38  1  0
  7  8  1  0
  7 31  1  0
  8  9  1  0
  9 30  1  0
  9 10  2  0
 10 11  1  0
 10 39  1  0
 11 12  2  0
 11 40  1  0
 12 13  1  0
 12 41  1  0
 13 14  1  0
 13 30  2  0
 14 15  1  6
 14 16  1  0
 14 20  1  0
 16 17  1  0
 16 18  1  0
 16 19  1  0
 20 21  2  0
 20 22  1  0
 22 23  1  0
 22 42  1  0
 23 29  1  0
 23 24  2  0
 24 25  1  0
 24 43  1  0
 25 26  2  0
 25 44  1  0
 26 27  1  0
 26 45  1  0
 27 28  1  0
 27 29  2  0
 28 46  1  0
 29 47  1  0
 30 48  1  0
 31 49  1  0
M  CHG  1  16   1
M  END
>  <DOCK_score>  (1) 
-42.365856

>  <SMILES>  (1) 
CNc1cccc(Oc2cccc([C@@H]([NH3+])C(=O)Nc3cccc(O)c3)c2)c1

$$$$
