Cc1cccc(-c2cccc(C3=CCC[N@@H+](Cc4ccc(-c5ccccc5)[nH]4)C3)c2)c1
     RDKit          3D

 60 64  0  0  1  0  0  0  0  0999 V2000
  134.8016  141.7178  166.9472 C   0  0  0  0  0  0  0  0  0  0  0  0
  135.5833  141.8889  165.6703 C   0  0  0  0  0  0  0  0  0  0  0  0
  136.6738  142.7396  165.6369 C   0  0  0  0  0  0  0  0  0  0  0  0
  137.3957  142.9014  164.4687 C   0  0  0  0  0  0  0  0  0  0  0  0
  137.0310  142.2142  163.3283 C   0  0  0  0  0  0  0  0  0  0  0  0
  135.9338  141.3563  163.3560 C   0  0  0  0  0  0  0  0  0  0  0  0
  135.5368  140.6152  162.1330 C   0  0  0  0  0  0  0  0  0  0  0  0
  135.7791  141.1643  160.8743 C   0  0  0  0  0  0  0  0  0  0  0  0
  135.4116  140.4763  159.7347 C   0  0  0  0  0  0  0  0  0  0  0  0
  134.8064  139.2390  159.8335 C   0  0  0  0  0  0  0  0  0  0  0  0
  134.5535  138.6815  161.0877 C   0  0  0  0  0  0  0  0  0  0  0  0
  133.9005  137.3594  161.1930 C   0  0  0  0  0  0  0  0  0  0  0  0
  134.5468  136.3860  161.7971 C   0  0  0  0  0  0  0  0  0  0  0  0
  133.9664  135.0066  161.9478 C   0  0  0  0  0  0  0  0  0  0  0  0
  132.4598  135.0523  161.6809 C   0  0  0  0  0  0  0  0  0  0  0  0
  132.2288  135.7645  160.4142 N   0  0  1  0  0  0  0  0  0  0  0  0
  132.8298  135.3842  159.6985 H   0  0  0  0  0  0  0  0  0  0  0  0
  130.8248  135.6083  160.0113 C   0  0  0  0  0  0  0  0  0  0  0  0
  130.6351  134.2611  159.3632 C   0  0  0  0  0  0  0  0  0  0  0  0
  130.2982  133.1190  160.0006 C   0  0  0  0  0  0  0  0  0  0  0  0
  130.2245  132.0990  159.0381 C   0  0  0  0  0  0  0  0  0  0  0  0
  130.5220  132.6572  157.8315 C   0  0  0  0  0  0  0  0  0  0  0  0
  130.5648  131.9514  156.5328 C   0  0  0  0  0  0  0  0  0  0  0  0
  130.2558  132.6323  155.3545 C   0  0  0  0  0  0  0  0  0  0  0  0
  130.3028  131.9693  154.1455 C   0  0  0  0  0  0  0  0  0  0  0  0
  130.6452  130.6295  154.1008 C   0  0  0  0  0  0  0  0  0  0  0  0
  130.9473  129.9471  155.2659 C   0  0  0  0  0  0  0  0  0  0  0  0
  130.9090  130.5999  156.4807 C   0  0  0  0  0  0  0  0  0  0  0  0
  130.7688  133.9908  158.0338 N   0  0  0  0  0  0  0  0  0  0  0  0
  131.0022  134.6340  157.3461 H   0  0  0  0  0  0  0  0  0  0  0  0
  132.5295  137.1881  160.6051 C   0  0  0  0  0  0  0  0  0  0  0  0
  134.9230  139.3719  162.2406 C   0  0  0  0  0  0  0  0  0  0  0  0
  135.2070  141.2008  164.5348 C   0  0  0  0  0  0  0  0  0  0  0  0
  133.9984  142.4538  166.9828 H   0  0  0  0  0  0  0  0  0  0  0  0
  134.3768  140.7146  166.9815 H   0  0  0  0  0  0  0  0  0  0  0  0
  135.4640  141.8612  167.8008 H   0  0  0  0  0  0  0  0  0  0  0  0
  136.9621  143.2797  166.5269 H   0  0  0  0  0  0  0  0  0  0  0  0
  138.2462  143.5667  164.4482 H   0  0  0  0  0  0  0  0  0  0  0  0
  137.5952  142.3418  162.4162 H   0  0  0  0  0  0  0  0  0  0  0  0
  136.2558  142.1298  160.7905 H   0  0  0  0  0  0  0  0  0  0  0  0
  135.6018  140.9058  158.7623 H   0  0  0  0  0  0  0  0  0  0  0  0
  134.5249  138.7036  158.9387 H   0  0  0  0  0  0  0  0  0  0  0  0
  135.5293  136.5842  162.1995 H   0  0  0  0  0  0  0  0  0  0  0  0
  134.1450  134.6461  162.9610 H   0  0  0  0  0  0  0  0  0  0  0  0
  134.4414  134.3332  161.2344 H   0  0  0  0  0  0  0  0  0  0  0  0
  131.9600  135.5794  162.4936 H   0  0  0  0  0  0  0  0  0  0  0  0
  132.0706  134.0369  161.6060 H   0  0  0  0  0  0  0  0  0  0  0  0
  130.1843  135.6821  160.8901 H   0  0  0  0  0  0  0  0  0  0  0  0
  130.5608  136.3930  159.3023 H   0  0  0  0  0  0  0  0  0  0  0  0
  130.1184  133.0098  161.0599 H   0  0  0  0  0  0  0  0  0  0  0  0
  129.9779  131.0635  159.2208 H   0  0  0  0  0  0  0  0  0  0  0  0
  129.9839  133.6770  155.3885 H   0  0  0  0  0  0  0  0  0  0  0  0
  130.0678  132.4962  153.2325 H   0  0  0  0  0  0  0  0  0  0  0  0
  130.6765  130.1140  153.1522 H   0  0  0  0  0  0  0  0  0  0  0  0
  131.2138  128.9014  155.2242 H   0  0  0  0  0  0  0  0  0  0  0  0
  131.1446  130.0659  157.3896 H   0  0  0  0  0  0  0  0  0  0  0  0
  132.4835  137.6985  159.6431 H   0  0  0  0  0  0  0  0  0  0  0  0
  131.7917  137.6254  161.2777 H   0  0  0  0  0  0  0  0  0  0  0  0
  134.7340  138.9428  163.2135 H   0  0  0  0  0  0  0  0  0  0  0  0
  134.3531  140.5400  164.5607 H   0  0  0  0  0  0  0  0  0  0  0  0
  1  2  1  0
  1 34  1  0
  1 35  1  0
  1 36  1  0
  2 33  2  0
  2  3  1  0
  3  4  2  0
  3 37  1  0
  4  5  1  0
  4 38  1  0
  5  6  2  0
  5 39  1  0
  6  7  1  0
  6 33  1  0
  7 32  1  0
  7  8  2  0
  8  9  1  0
  8 40  1  0
  9 10  2  0
  9 41  1  0
 10 11  1  0
 10 42  1  0
 11 12  1  0
 11 32  2  0
 12 31  1  0
 12 13  2  0
 13 14  1  0
 13 43  1  0
 14 15  1  0
 14 44  1  0
 14 45  1  0
 15 16  1  0
 15 46  1  0
 15 47  1  0
 16 17  1  6
 16 18  1  0
 16 31  1  0
 18 19  1  0
 18 48  1  0
 18 49  1  0
 19 29  1  0
 19 20  2  0
 20 21  1  0
 20 50  1  0
 21 22  2  0
 21 51  1  0
 22 23  1  0
 22 29  1  0
 23 28  1  0
 23 24  2  0
 24 25  1  0
 24 52  1  0
 25 26  2  0
 25 53  1  0
 26 27  1  0
 26 54  1  0
 27 28  2  0
 27 55  1  0
 28 56  1  0
 29 30  1  0
 31 57  1  0
 31 58  1  0
 32 59  1  0
 33 60  1  0
M  CHG  1  16   1
M  END
>  <DOCK_score>  (1) 
-60.661774

>  <SMILES>  (1) 
Cc1cccc(-c2cccc(C3=CCC[N@@H+](Cc4ccc(-c5ccccc5)[nH]4)C3)c2)c1

$$$$
