Oc1ccc(-c2c[nH]c(N[C@@H](Cc3ccccc3Cl)c3ccccc3)[nH+]2)cc1
     RDKit          3D

 49 52  0  0  1  0  0  0  0  0999 V2000
  131.8121  129.6691  152.0833 O   0  0  0  0  0  0  0  0  0  0  0  0
  131.4421  130.3071  153.2248 C   0  0  0  0  0  0  0  0  0  0  0  0
  130.6670  131.4566  153.1565 C   0  0  0  0  0  0  0  0  0  0  0  0
  130.2902  132.1059  154.3136 C   0  0  0  0  0  0  0  0  0  0  0  0
  130.6885  131.6066  155.5525 C   0  0  0  0  0  0  0  0  0  0  0  0
  130.2854  132.3027  156.7990 C   0  0  0  0  0  0  0  0  0  0  0  0
  129.5531  131.7711  157.8087 C   0  0  0  0  0  0  0  0  0  0  0  0
  129.4127  132.7536  158.7596 N   0  0  0  0  0  0  0  0  0  0  0  0
  128.9374  132.6748  159.6015 H   0  0  0  0  0  0  0  0  0  0  0  0
  130.0641  133.8572  158.3019 C   0  0  0  0  0  0  0  0  0  0  0  0
  130.1618  135.0687  158.9648 N   0  0  0  0  0  0  0  0  0  0  0  0
  129.0893  135.4998  159.8650 C   0  0  1  0  0  0  0  0  0  0  0  0
  128.9722  134.7700  160.6660 H   0  0  0  0  0  0  0  0  0  0  0  0
  129.4433  136.8624  160.4641 C   0  0  0  0  0  0  0  0  0  0  0  0
  130.7329  136.7522  161.2359 C   0  0  0  0  0  0  0  0  0  0  0  0
  130.8240  135.8865  162.3098 C   0  0  0  0  0  0  0  0  0  0  0  0
  132.0082  135.7818  163.0149 C   0  0  0  0  0  0  0  0  0  0  0  0
  133.0991  136.5503  162.6530 C   0  0  0  0  0  0  0  0  0  0  0  0
  133.0077  137.4198  161.5827 C   0  0  0  0  0  0  0  0  0  0  0  0
  131.8240  137.5212  160.8733 C   0  0  0  0  0  0  0  0  0  0  0  0
  131.7086  138.6129  159.5285 Cl  0  0  0  0  0  0  0  0  0  0  0  0
  127.7997  135.6103  159.0932 C   0  0  0  0  0  0  0  0  0  0  0  0
  126.5930  135.3804  159.7270 C   0  0  0  0  0  0  0  0  0  0  0  0
  125.4097  135.4859  159.0201 C   0  0  0  0  0  0  0  0  0  0  0  0
  125.4338  135.8126  157.6772 C   0  0  0  0  0  0  0  0  0  0  0  0
  126.6408  136.0374  157.0419 C   0  0  0  0  0  0  0  0  0  0  0  0
  127.8238  135.9360  157.7499 C   0  0  0  0  0  0  0  0  0  0  0  0
  130.5892  133.5820  157.1328 N   0  0  0  0  0  0  0  0  0  0  0  0
  131.1099  134.1959  156.5917 H   0  0  0  0  0  0  0  0  0  0  0  0
  131.4669  130.4522  155.6178 C   0  0  0  0  0  0  0  0  0  0  0  0
  131.8405  129.8076  154.4570 C   0  0  0  0  0  0  0  0  0  0  0  0
  131.4880  130.0906  151.2749 H   0  0  0  0  0  0  0  0  0  0  0  0
  130.3548  131.8405  152.1964 H   0  0  0  0  0  0  0  0  0  0  0  0
  129.6868  133.0000  154.2599 H   0  0  0  0  0  0  0  0  0  0  0  0
  129.1559  130.7679  157.8565 H   0  0  0  0  0  0  0  0  0  0  0  0
  130.9403  135.6322  158.8331 H   0  0  0  0  0  0  0  0  0  0  0  0
  129.5606  137.5921  159.6629 H   0  0  0  0  0  0  0  0  0  0  0  0
  128.6453  137.1832  161.1337 H   0  0  0  0  0  0  0  0  0  0  0  0
  129.9709  135.2893  162.5958 H   0  0  0  0  0  0  0  0  0  0  0  0
  132.0800  135.1027  163.8516 H   0  0  0  0  0  0  0  0  0  0  0  0
  134.0231  136.4708  163.2066 H   0  0  0  0  0  0  0  0  0  0  0  0
  133.8598  138.0203  161.3003 H   0  0  0  0  0  0  0  0  0  0  0  0
  126.5744  135.1213  160.7754 H   0  0  0  0  0  0  0  0  0  0  0  0
  124.4667  135.3106  159.5163 H   0  0  0  0  0  0  0  0  0  0  0  0
  124.5095  135.8926  157.1241 H   0  0  0  0  0  0  0  0  0  0  0  0
  126.6597  136.2927  155.9927 H   0  0  0  0  0  0  0  0  0  0  0  0
  128.7669  136.1118  157.2537 H   0  0  0  0  0  0  0  0  0  0  0  0
  131.7774  130.0630  156.5762 H   0  0  0  0  0  0  0  0  0  0  0  0
  132.4437  128.9130  154.5070 H   0  0  0  0  0  0  0  0  0  0  0  0
  1  2  1  0
  1 32  1  0
  2 31  2  0
  2  3  1  0
  3  4  2  0
  3 33  1  0
  4  5  1  0
  4 34  1  0
  5  6  1  0
  5 30  2  0
  6 28  1  0
  6  7  2  0
  7  8  1  0
  7 35  1  0
  8  9  1  0
  8 10  1  0
 10 11  1  0
 10 28  2  0
 11 12  1  0
 11 36  1  0
 12 13  1  1
 12 14  1  0
 12 22  1  0
 14 15  1  0
 14 37  1  0
 14 38  1  0
 15 20  1  0
 15 16  2  0
 16 17  1  0
 16 39  1  0
 17 18  2  0
 17 40  1  0
 18 19  1  0
 18 41  1  0
 19 20  2  0
 19 42  1  0
 20 21  1  0
 22 27  1  0
 22 23  2  0
 23 24  1  0
 23 43  1  0
 24 25  2  0
 24 44  1  0
 25 26  1  0
 25 45  1  0
 26 27  2  0
 26 46  1  0
 27 47  1  0
 28 29  1  0
 30 31  1  0
 30 48  1  0
 31 49  1  0
M  CHG  1  28   1
M  END
>  <DOCK_score>  (1) 
-57.632137

>  <SMILES>  (1) 
Oc1ccc(-c2c[nH]c(N[C@@H](Cc3ccccc3Cl)c3ccccc3)[nH+]2)cc1

$$$$
