Nc1ccc(-c2c[nH]c(NC[C@@H]3CCC(NCc4cc5ccccc5[nH]4)=CC3=O)[nH+]2)cc1
     RDKit          3D

 59 63  0  0  1  0  0  0  0  0999 V2000
  131.1069  129.9381  151.6221 N   0  0  0  0  0  0  0  0  0  0  0  0
  130.8510  130.5494  152.8519 C   0  0  0  0  0  0  0  0  0  0  0  0
  130.4415  131.8768  152.8949 C   0  0  0  0  0  0  0  0  0  0  0  0
  130.1882  132.4823  154.1077 C   0  0  0  0  0  0  0  0  0  0  0  0
  130.3431  131.7619  155.2910 C   0  0  0  0  0  0  0  0  0  0  0  0
  130.0718  132.4113  156.5970 C   0  0  0  0  0  0  0  0  0  0  0  0
  129.6190  131.7941  157.7161 C   0  0  0  0  0  0  0  0  0  0  0  0
  129.5113  132.7603  158.6883 N   0  0  0  0  0  0  0  0  0  0  0  0
  129.2142  132.6256  159.6018 H   0  0  0  0  0  0  0  0  0  0  0  0
  129.8929  133.9413  158.1306 C   0  0  0  0  0  0  0  0  0  0  0  0
  129.9232  135.1655  158.7762 N   0  0  0  0  0  0  0  0  0  0  0  0
  129.1369  135.3703  159.9954 C   0  0  0  0  0  0  0  0  0  0  0  0
  130.0722  135.7326  161.1506 C   0  0  2  0  0  0  0  0  0  0  0  0
  129.4881  135.8851  162.0583 H   0  0  0  0  0  0  0  0  0  0  0  0
  130.8355  137.0161  160.8088 C   0  0  0  0  0  0  0  0  0  0  0  0
  131.8258  137.3179  161.9372 C   0  0  0  0  0  0  0  0  0  0  0  0
  132.7513  136.1447  162.1192 C   0  0  0  0  0  0  0  0  0  0  0  0
  134.0189  136.3560  162.5721 N   0  0  0  0  0  0  0  0  0  0  0  0
  134.4705  137.7159  162.8772 C   0  0  0  0  0  0  0  0  0  0  0  0
  135.6669  137.6547  163.7914 C   0  0  0  0  0  0  0  0  0  0  0  0
  136.7113  136.8253  163.6393 C   0  0  0  0  0  0  0  0  0  0  0  0
  137.6404  137.1005  164.7381 C   0  0  0  0  0  0  0  0  0  0  0  0
  138.8788  136.5779  165.1158 C   0  0  0  0  0  0  0  0  0  0  0  0
  139.5062  137.0580  166.2305 C   0  0  0  0  0  0  0  0  0  0  0  0
  138.9224  138.0623  166.9907 C   0  0  0  0  0  0  0  0  0  0  0  0
  137.7015  138.5925  166.6359 C   0  0  0  0  0  0  0  0  0  0  0  0
  137.0447  138.1182  165.5049 C   0  0  0  0  0  0  0  0  0  0  0  0
  135.8469  138.4324  164.9028 N   0  0  0  0  0  0  0  0  0  0  0  0
  135.2235  139.1047  165.2193 H   0  0  0  0  0  0  0  0  0  0  0  0
  132.3476  134.8862  161.8412 C   0  0  0  0  0  0  0  0  0  0  0  0
  131.0596  134.6154  161.3688 C   0  0  0  0  0  0  0  0  0  0  0  0
  130.7340  133.4688  161.1318 O   0  0  0  0  0  0  0  0  0  0  0  0
  130.2270  133.7287  156.8809 N   0  0  0  0  0  0  0  0  0  0  0  0
  130.5365  134.4054  156.2587 H   0  0  0  0  0  0  0  0  0  0  0  0
  130.7533  130.4304  155.2454 C   0  0  0  0  0  0  0  0  0  0  0  0
  131.0054  129.8290  154.0303 C   0  0  0  0  0  0  0  0  0  0  0  0
  130.9989  130.4400  150.7991 H   0  0  0  0  0  0  0  0  0  0  0  0
  131.3926  129.0116  151.5912 H   0  0  0  0  0  0  0  0  0  0  0  0
  130.3261  132.4359  151.9782 H   0  0  0  0  0  0  0  0  0  0  0  0
  129.8698  133.5138  154.1407 H   0  0  0  0  0  0  0  0  0  0  0  0
  129.3892  130.7444  157.8238 H   0  0  0  0  0  0  0  0  0  0  0  0
  130.4651  135.8876  158.4216 H   0  0  0  0  0  0  0  0  0  0  0  0
  128.4250  136.1803  159.8366 H   0  0  0  0  0  0  0  0  0  0  0  0
  128.5975  134.4548  160.2379 H   0  0  0  0  0  0  0  0  0  0  0  0
  131.3778  136.8802  159.8732 H   0  0  0  0  0  0  0  0  0  0  0  0
  130.1327  137.8431  160.7087 H   0  0  0  0  0  0  0  0  0  0  0  0
  131.2789  137.4964  162.8631 H   0  0  0  0  0  0  0  0  0  0  0  0
  132.4078  138.2036  161.6826 H   0  0  0  0  0  0  0  0  0  0  0  0
  134.6223  135.6062  162.6924 H   0  0  0  0  0  0  0  0  0  0  0  0
  134.7453  138.2236  161.9526 H   0  0  0  0  0  0  0  0  0  0  0  0
  133.6663  138.2644  163.3676 H   0  0  0  0  0  0  0  0  0  0  0  0
  136.8428  136.0949  162.8546 H   0  0  0  0  0  0  0  0  0  0  0  0
  139.3391  135.7966  164.5290 H   0  0  0  0  0  0  0  0  0  0  0  0
  140.4639  136.6532  166.5225 H   0  0  0  0  0  0  0  0  0  0  0  0
  139.4309  138.4321  167.8688 H   0  0  0  0  0  0  0  0  0  0  0  0
  137.2557  139.3738  167.2336 H   0  0  0  0  0  0  0  0  0  0  0  0
  133.0372  134.0679  161.9878 H   0  0  0  0  0  0  0  0  0  0  0  0
  130.8732  129.8702  156.1609 H   0  0  0  0  0  0  0  0  0  0  0  0
  131.3235  128.7977  153.9945 H   0  0  0  0  0  0  0  0  0  0  0  0
  1  2  1  0
  1 37  1  0
  1 38  1  0
  2 36  2  0
  2  3  1  0
  3  4  2  0
  3 39  1  0
  4  5  1  0
  4 40  1  0
  5  6  1  0
  5 35  2  0
  6 33  1  0
  6  7  2  0
  7  8  1  0
  7 41  1  0
  8  9  1  0
  8 10  1  0
 10 11  1  0
 10 33  2  0
 11 12  1  0
 11 42  1  0
 12 13  1  0
 12 43  1  0
 12 44  1  0
 13 14  1  1
 13 31  1  0
 13 15  1  0
 15 16  1  0
 15 45  1  0
 15 46  1  0
 16 17  1  0
 16 47  1  0
 16 48  1  0
 17 18  1  0
 17 30  2  0
 18 19  1  0
 18 49  1  0
 19 20  1  0
 19 50  1  0
 19 51  1  0
 20 28  1  0
 20 21  2  0
 21 22  1  0
 21 52  1  0
 22 27  2  0
 22 23  1  0
 23 24  2  0
 23 53  1  0
 24 25  1  0
 24 54  1  0
 25 26  2  0
 25 55  1  0
 26 27  1  0
 26 56  1  0
 27 28  1  0
 28 29  1  0
 30 31  1  0
 30 57  1  0
 31 32  2  0
 33 34  1  0
 35 36  1  0
 35 58  1  0
 36 59  1  0
M  CHG  1  33   1
M  END
>  <DOCK_score>  (1) 
-57.444756

>  <SMILES>  (1) 
Nc1ccc(-c2c[nH]c(NC[C@@H]3CCC(NCc4cc5ccccc5[nH]4)=CC3=O)[nH+]2)cc1

$$$$
