C1=C[C@H]2C=C(C(Cc3ccccc3)Nc3[nH]cc(-c4cccnc4)[nH+]3)C1CC2
     RDKit          3D

 53 57  0  0  1  0  0  0  0  0999 V2000
  127.1071  133.7047  159.5733 C   0  0  0  0  0  0  0  0  0  0  0  0
  126.6145  133.1371  160.6791 C   0  0  0  0  0  0  0  0  0  0  0  0
  126.8315  133.9689  161.9401 C   0  0  1  0  0  0  0  0  0  0  0  0
  126.4640  133.4635  162.8333 H   0  0  0  0  0  0  0  0  0  0  0  0
  128.3302  134.2467  162.0131 C   0  0  0  0  0  0  0  0  0  0  0  0
  128.8250  134.8079  160.9096 C   0  0  0  0  0  0  0  0  0  0  0  0
  130.2783  135.1739  160.7512 C   0  0  2  0  0  0  0  0  0  0  0  0
  130.5002  136.6059  161.2419 C   0  0  0  0  0  0  0  0  0  0  0  0
  131.9612  136.8107  161.5497 C   0  0  0  0  0  0  0  0  0  0  0  0
  132.4427  136.5529  162.8195 C   0  0  0  0  0  0  0  0  0  0  0  0
  133.7837  136.7366  163.1006 C   0  0  0  0  0  0  0  0  0  0  0  0
  134.6412  137.1873  162.1145 C   0  0  0  0  0  0  0  0  0  0  0  0
  134.1586  137.4497  160.8460 C   0  0  0  0  0  0  0  0  0  0  0  0
  132.8186  137.2619  160.5636 C   0  0  0  0  0  0  0  0  0  0  0  0
  130.6547  135.0778  159.3386 N   0  0  0  0  0  0  0  0  0  0  0  0
  130.5394  133.8699  158.6720 C   0  0  0  0  0  0  0  0  0  0  0  0
  130.0972  132.7034  159.2160 N   0  0  0  0  0  0  0  0  0  0  0  0
  129.8089  132.5699  160.1325 H   0  0  0  0  0  0  0  0  0  0  0  0
  130.1321  131.7507  158.2269 C   0  0  0  0  0  0  0  0  0  0  0  0
  130.6022  132.3598  157.1103 C   0  0  0  0  0  0  0  0  0  0  0  0
  130.8148  131.7184  155.7898 C   0  0  0  0  0  0  0  0  0  0  0  0
  130.6976  132.4620  154.6117 C   0  0  0  0  0  0  0  0  0  0  0  0
  130.9055  131.8170  153.4050 C   0  0  0  0  0  0  0  0  0  0  0  0
  131.2197  130.4699  153.4032 C   0  0  0  0  0  0  0  0  0  0  0  0
  131.3230  129.7941  154.5310 N   0  0  0  0  0  0  0  0  0  0  0  0
  131.1401  130.3662  155.7036 C   0  0  0  0  0  0  0  0  0  0  0  0
  130.8431  133.6598  157.4145 N   0  0  0  0  0  0  0  0  0  0  0  0
  131.1861  134.3272  156.7997 H   0  0  0  0  0  0  0  0  0  0  0  0
  127.7798  135.0513  159.8245 C   0  0  2  0  0  0  0  0  0  0  0  0
  126.7059  135.9861  160.4561 C   0  0  0  0  0  0  0  0  0  0  0  0
  126.1407  135.3262  161.7172 C   0  0  0  0  0  0  0  0  0  0  0  0
  127.0375  133.2526  158.5950 H   0  0  0  0  0  0  0  0  0  0  0  0
  126.1079  132.1833  160.6805 H   0  0  0  0  0  0  0  0  0  0  0  0
  128.9335  134.0107  162.8773 H   0  0  0  0  0  0  0  0  0  0  0  0
  130.8913  134.4896  161.3379 H   0  0  0  0  0  0  0  0  0  0  0  0
  129.9116  136.7764  162.1432 H   0  0  0  0  0  0  0  0  0  0  0  0
  130.1902  137.3075  160.4673 H   0  0  0  0  0  0  0  0  0  0  0  0
  131.7720  136.2046  163.5910 H   0  0  0  0  0  0  0  0  0  0  0  0
  134.1607  136.5313  164.0917 H   0  0  0  0  0  0  0  0  0  0  0  0
  135.6882  137.3340  162.3351 H   0  0  0  0  0  0  0  0  0  0  0  0
  134.8287  137.8018  160.0755 H   0  0  0  0  0  0  0  0  0  0  0  0
  132.4416  137.4673  159.5727 H   0  0  0  0  0  0  0  0  0  0  0  0
  130.9850  135.8605  158.8704 H   0  0  0  0  0  0  0  0  0  0  0  0
  129.8443  130.7141  158.3217 H   0  0  0  0  0  0  0  0  0  0  0  0
  130.4514  133.5131  154.6427 H   0  0  0  0  0  0  0  0  0  0  0  0
  130.8238  132.3596  152.4749 H   0  0  0  0  0  0  0  0  0  0  0  0
  131.3827  129.9634  152.4633 H   0  0  0  0  0  0  0  0  0  0  0  0
  131.2382  129.7807  156.6057 H   0  0  0  0  0  0  0  0  0  0  0  0
  128.2172  135.4772  158.9215 H   0  0  0  0  0  0  0  0  0  0  0  0
  125.9015  136.1456  159.7380 H   0  0  0  0  0  0  0  0  0  0  0  0
  127.1549  136.9442  160.7175 H   0  0  0  0  0  0  0  0  0  0  0  0
  125.0683  135.1728  161.5974 H   0  0  0  0  0  0  0  0  0  0  0  0
  126.3217  135.9714  162.5769 H   0  0  0  0  0  0  0  0  0  0  0  0
  1 29  1  0
  1  2  2  0
  1 32  1  0
  2  3  1  0
  2 33  1  0
  3  4  1  1
  3 31  1  0
  3  5  1  0
  5  6  2  0
  5 34  1  0
  6  7  1  0
  6 29  1  0
  7  8  1  0
  7 15  1  0
  7 35  1  1
  8  9  1  0
  8 36  1  0
  8 37  1  0
  9 14  1  0
  9 10  2  0
 10 11  1  0
 10 38  1  0
 11 12  2  0
 11 39  1  0
 12 13  1  0
 12 40  1  0
 13 14  2  0
 13 41  1  0
 14 42  1  0
 15 43  1  0
 16 15  1  0
 16 27  2  0
 16 17  1  0
 17 18  1  0
 17 19  1  0
 19 20  2  0
 19 44  1  0
 20 21  1  0
 20 27  1  0
 21 26  1  0
 21 22  2  0
 22 23  1  0
 22 45  1  0
 23 24  2  0
 23 46  1  0
 24 25  1  0
 24 47  1  0
 25 26  2  0
 26 48  1  0
 27 28  1  0
 29 30  1  0
 29 49  1  6
 30 31  1  0
 30 50  1  0
 30 51  1  0
 31 52  1  0
 31 53  1  0
M  CHG  1  27   1
M  END
>  <DOCK_score>  (1) 
-55.948532

>  <SMILES>  (1) 
C1=C[C@H]2C=C(C(Cc3ccccc3)Nc3[nH]cc(-c4cccnc4)[nH+]3)C1CC2

$$$$
