Cc1cccc(C(=O)[C@@H]2C[C@H](O)[C@H](Nc3[nH]c(C)c(C)[nH+]3)C2)n1
     RDKit          3D

 46 48  0  0  1  0  0  0  0  0999 V2000
  130.1000  141.9499  161.6088 C   0  0  0  0  0  0  0  0  0  0  0  0
  129.1149  141.0578  162.3193 C   0  0  0  0  0  0  0  0  0  0  0  0
  128.3430  141.5751  163.3491 C   0  0  0  0  0  0  0  0  0  0  0  0
  127.4341  140.7534  163.9966 C   0  0  0  0  0  0  0  0  0  0  0  0
  127.3364  139.4301  163.5958 C   0  0  0  0  0  0  0  0  0  0  0  0
  128.1481  138.9757  162.5560 C   0  0  0  0  0  0  0  0  0  0  0  0
  128.0572  137.5699  162.1173 C   0  0  0  0  0  0  0  0  0  0  0  0
  127.0077  137.1329  161.6970 O   0  0  0  0  0  0  0  0  0  0  0  0
  129.2693  136.6774  162.1917 C   0  0  2  0  0  0  0  0  0  0  0  0
  129.3160  136.1715  163.1560 H   0  0  0  0  0  0  0  0  0  0  0  0
  130.5636  137.4866  161.9285 C   0  0  0  0  0  0  0  0  0  0  0  0
  131.5754  136.4316  161.4355 C   0  0  2  0  0  0  0  0  0  0  0  0
  132.1884  136.0848  162.2674 H   0  0  0  0  0  0  0  0  0  0  0  0
  132.4053  136.9889  160.4143 O   0  0  0  0  0  0  0  0  0  0  0  0
  130.7508  135.2641  160.8658 C   0  0  2  0  0  0  0  0  0  0  0  0
  130.9634  134.3502  161.4206 H   0  0  0  0  0  0  0  0  0  0  0  0
  131.0636  135.0739  159.4473 N   0  0  0  0  0  0  0  0  0  0  0  0
  130.4352  134.0742  158.7291 C   0  0  0  0  0  0  0  0  0  0  0  0
  129.5368  133.2205  159.2115 N   0  0  0  0  0  0  0  0  0  0  0  0
  129.2117  133.1926  160.1250 H   0  0  0  0  0  0  0  0  0  0  0  0
  129.1503  132.3947  158.2014 C   0  0  0  0  0  0  0  0  0  0  0  0
  128.1443  131.2769  158.2993 C   0  0  0  0  0  0  0  0  0  0  0  0
  129.8345  132.7544  157.1020 C   0  0  0  0  0  0  0  0  0  0  0  0
  129.7362  132.1138  155.7414 C   0  0  0  0  0  0  0  0  0  0  0  0
  130.6327  133.8026  157.4423 N   0  0  0  0  0  0  0  0  0  0  0  0
  131.2403  134.2710  156.8487 H   0  0  0  0  0  0  0  0  0  0  0  0
  129.2666  135.6503  161.0325 C   0  0  0  0  0  0  0  0  0  0  0  0
  129.0031  139.7991  161.9581 N   0  0  0  0  0  0  0  0  0  0  0  0
  129.6120  142.4246  160.7576 H   0  0  0  0  0  0  0  0  0  0  0  0
  130.4576  142.7165  162.2963 H   0  0  0  0  0  0  0  0  0  0  0  0
  130.9429  141.3541  161.2586 H   0  0  0  0  0  0  0  0  0  0  0  0
  128.4464  142.6098  163.6409 H   0  0  0  0  0  0  0  0  0  0  0  0
  126.8190  141.1343  164.7984 H   0  0  0  0  0  0  0  0  0  0  0  0
  126.6422  138.7604  164.0814 H   0  0  0  0  0  0  0  0  0  0  0  0
  130.3928  138.2398  161.1595 H   0  0  0  0  0  0  0  0  0  0  0  0
  130.9161  137.9524  162.8488 H   0  0  0  0  0  0  0  0  0  0  0  0
  131.9162  137.3354  159.6556 H   0  0  0  0  0  0  0  0  0  0  0  0
  131.7118  135.6495  159.0121 H   0  0  0  0  0  0  0  0  0  0  0  0
  128.6529  130.3535  158.5765 H   0  0  0  0  0  0  0  0  0  0  0  0
  127.4001  131.5232  159.0567 H   0  0  0  0  0  0  0  0  0  0  0  0
  127.6522  131.1455  157.3356 H   0  0  0  0  0  0  0  0  0  0  0  0
  130.4636  131.3056  155.6669 H   0  0  0  0  0  0  0  0  0  0  0  0
  128.7322  131.7133  155.6002 H   0  0  0  0  0  0  0  0  0  0  0  0
  129.9414  132.8593  154.9732 H   0  0  0  0  0  0  0  0  0  0  0  0
  128.6726  134.7760  161.2988 H   0  0  0  0  0  0  0  0  0  0  0  0
  128.8864  136.1071  160.1188 H   0  0  0  0  0  0  0  0  0  0  0  0
  1  2  1  0
  1 29  1  0
  1 30  1  0
  1 31  1  0
  2 28  2  0
  2  3  1  0
  3  4  2  0
  3 32  1  0
  4  5  1  0
  4 33  1  0
  5  6  2  0
  5 34  1  0
  6  7  1  0
  6 28  1  0
  7  8  2  0
  7  9  1  0
  9 10  1  1
  9 27  1  0
  9 11  1  0
 11 12  1  0
 11 35  1  0
 11 36  1  0
 12 13  1  1
 12 14  1  0
 12 15  1  0
 14 37  1  0
 15 16  1  1
 15 17  1  0
 15 27  1  0
 17 38  1  0
 18 17  1  0
 18 25  1  0
 18 19  2  0
 19 20  1  0
 19 21  1  0
 21 22  1  0
 21 23  2  0
 22 39  1  0
 22 40  1  0
 22 41  1  0
 23 24  1  0
 23 25  1  0
 24 42  1  0
 24 43  1  0
 24 44  1  0
 25 26  1  0
 27 45  1  0
 27 46  1  0
M  CHG  1  19   1
M  END
>  <DOCK_score>  (1) 
-47.671844

>  <SMILES>  (1) 
Cc1cccc(C(=O)[C@@H]2C[C@H](O)[C@H](Nc3[nH]c(C)c(C)[nH+]3)C2)n1

$$$$
