C=CCCC=CCc1c(C)cccc1N1CC[NH+](C(c2ccccc2)c2ccccc2)CC1
     RDKit          3D

 70 73  0  0  1  0  0  0  0  0999 V2000
  127.3438  141.3218  164.6318 C   0  0  0  0  0  0  0  0  0  0  0  0
  128.4496  141.4387  165.3244 C   0  0  0  0  0  0  0  0  0  0  0  0
  129.6253  140.5456  165.0231 C   0  0  0  0  0  0  0  0  0  0  0  0
  130.8277  141.4031  164.6228 C   0  0  0  0  0  0  0  0  0  0  0  0
  132.0035  140.5100  164.3213 C   0  0  0  0  0  0  0  0  0  0  0  0
  132.5524  140.5289  163.1320 C   0  0  0  0  0  0  0  0  0  0  0  0
  133.7283  139.6358  162.8307 C   0  0  0  0  0  0  0  0  0  0  0  0
  134.1677  139.8479  161.4048 C   0  0  0  0  0  0  0  0  0  0  0  0
  135.1204  140.8035  161.1098 C   0  0  0  0  0  0  0  0  0  0  0  0
  135.7199  141.6348  162.2146 C   0  0  0  0  0  0  0  0  0  0  0  0
  135.5242  140.9988  159.8019 C   0  0  0  0  0  0  0  0  0  0  0  0
  134.9766  140.2378  158.7849 C   0  0  0  0  0  0  0  0  0  0  0  0
  134.0242  139.2805  159.0730 C   0  0  0  0  0  0  0  0  0  0  0  0
  133.6194  139.0787  160.3866 C   0  0  0  0  0  0  0  0  0  0  0  0
  132.6597  138.1078  160.6821 N   0  0  0  0  0  0  0  0  0  0  0  0
  133.1533  136.7626  160.3548 C   0  0  0  0  0  0  0  0  0  0  0  0
  132.0984  135.7260  160.7477 C   0  0  0  0  0  0  0  0  0  0  0  0
  130.8504  135.9982  160.0226 N   0  0  0  0  0  0  0  0  0  0  0  0
  131.0228  135.9569  159.0292 H   0  0  0  0  0  0  0  0  0  0  0  0
  129.8436  134.9921  160.3864 C   0  0  0  0  0  0  0  0  0  0  0  0
  128.5630  135.2711  159.6426 C   0  0  0  0  0  0  0  0  0  0  0  0
  127.3484  134.9213  160.2021 C   0  0  0  0  0  0  0  0  0  0  0  0
  126.1735  135.1816  159.5219 C   0  0  0  0  0  0  0  0  0  0  0  0
  126.2134  135.7823  158.2783 C   0  0  0  0  0  0  0  0  0  0  0  0
  127.4288  136.1273  157.7157 C   0  0  0  0  0  0  0  0  0  0  0  0
  128.6034  135.8717  158.3981 C   0  0  0  0  0  0  0  0  0  0  0  0
  130.3490  133.6205  160.0196 C   0  0  0  0  0  0  0  0  0  0  0  0
  129.9577  132.5194  160.7581 C   0  0  0  0  0  0  0  0  0  0  0  0
  130.4174  131.2607  160.4186 C   0  0  0  0  0  0  0  0  0  0  0  0
  131.2766  131.1044  159.3472 C   0  0  0  0  0  0  0  0  0  0  0  0
  131.6721  132.2062  158.6119 C   0  0  0  0  0  0  0  0  0  0  0  0
  131.2083  133.4641  158.9481 C   0  0  0  0  0  0  0  0  0  0  0  0
  130.3569  137.3351  160.3784 C   0  0  0  0  0  0  0  0  0  0  0  0
  131.3973  138.3851  159.9825 C   0  0  0  0  0  0  0  0  0  0  0  0
  126.5011  141.9619  164.8477 H   0  0  0  0  0  0  0  0  0  0  0  0
  127.2749  140.5856  163.8447 H   0  0  0  0  0  0  0  0  0  0  0  0
  128.5184  142.1750  166.1115 H   0  0  0  0  0  0  0  0  0  0  0  0
  129.3701  139.8729  164.2044 H   0  0  0  0  0  0  0  0  0  0  0  0
  129.8745  139.9616  165.9090 H   0  0  0  0  0  0  0  0  0  0  0  0
  131.0828  142.0759  165.4415 H   0  0  0  0  0  0  0  0  0  0  0  0
  130.5785  141.9870  163.7368 H   0  0  0  0  0  0  0  0  0  0  0  0
  132.3936  139.8544  165.0858 H   0  0  0  0  0  0  0  0  0  0  0  0
  132.1623  141.1844  162.3675 H   0  0  0  0  0  0  0  0  0  0  0  0
  133.4388  138.5943  162.9705 H   0  0  0  0  0  0  0  0  0  0  0  0
  134.5504  139.8779  163.5041 H   0  0  0  0  0  0  0  0  0  0  0  0
  136.6060  141.1345  162.6056 H   0  0  0  0  0  0  0  0  0  0  0  0
  135.9982  142.6133  161.8232 H   0  0  0  0  0  0  0  0  0  0  0  0
  134.9895  141.7576  163.0142 H   0  0  0  0  0  0  0  0  0  0  0  0
  136.2689  141.7469  159.5739 H   0  0  0  0  0  0  0  0  0  0  0  0
  135.2943  140.3928  157.7645 H   0  0  0  0  0  0  0  0  0  0  0  0
  133.5972  138.6865  158.2784 H   0  0  0  0  0  0  0  0  0  0  0  0
  133.3468  136.6968  159.2841 H   0  0  0  0  0  0  0  0  0  0  0  0
  134.0749  136.5698  160.9039 H   0  0  0  0  0  0  0  0  0  0  0  0
  131.9151  135.7829  161.8207 H   0  0  0  0  0  0  0  0  0  0  0  0
  132.4566  134.7286  160.4927 H   0  0  0  0  0  0  0  0  0  0  0  0
  129.6576  135.0358  161.4594 H   0  0  0  0  0  0  0  0  0  0  0  0
  127.3171  134.4480  161.1724 H   0  0  0  0  0  0  0  0  0  0  0  0
  125.2243  134.9117  159.9607 H   0  0  0  0  0  0  0  0  0  0  0  0
  125.2961  135.9816  157.7442 H   0  0  0  0  0  0  0  0  0  0  0  0
  127.4604  136.5963  156.7434 H   0  0  0  0  0  0  0  0  0  0  0  0
  129.5527  136.1411  157.9590 H   0  0  0  0  0  0  0  0  0  0  0  0
  129.2899  132.6420  161.5979 H   0  0  0  0  0  0  0  0  0  0  0  0
  130.1087  130.3999  160.9933 H   0  0  0  0  0  0  0  0  0  0  0  0
  131.6394  130.1215  159.0847 H   0  0  0  0  0  0  0  0  0  0  0  0
  132.3437  132.0842  157.7750 H   0  0  0  0  0  0  0  0  0  0  0  0
  131.5175  134.3251  158.3738 H   0  0  0  0  0  0  0  0  0  0  0  0
  130.1825  137.3837  161.4533 H   0  0  0  0  0  0  0  0  0  0  0  0
  129.4240  137.5305  159.8497 H   0  0  0  0  0  0  0  0  0  0  0  0
  131.0378  139.3760  160.2600 H   0  0  0  0  0  0  0  0  0  0  0  0
  131.5619  138.3459  158.9057 H   0  0  0  0  0  0  0  0  0  0  0  0
  1  2  2  0
  1 35  1  0
  1 36  1  0
  2  3  1  0
  2 37  1  0
  3  4  1  0
  3 38  1  0
  3 39  1  0
  4  5  1  0
  4 40  1  0
  4 41  1  0
  5  6  2  0
  5 42  1  0
  6  7  1  0
  6 43  1  0
  7  8  1  0
  7 44  1  0
  7 45  1  0
  8 14  2  0
  8  9  1  0
  9 10  1  0
  9 11  2  0
 10 46  1  0
 10 47  1  0
 10 48  1  0
 11 12  1  0
 11 49  1  0
 12 13  2  0
 12 50  1  0
 13 14  1  0
 13 51  1  0
 14 15  1  0
 15 34  1  0
 15 16  1  0
 16 17  1  0
 16 52  1  0
 16 53  1  0
 17 18  1  0
 17 54  1  0
 17 55  1  0
 18 19  1  0
 18 20  1  0
 18 33  1  0
 20 21  1  0
 20 27  1  0
 20 56  1  0
 21 26  1  0
 21 22  2  0
 22 23  1  0
 22 57  1  0
 23 24  2  0
 23 58  1  0
 24 25  1  0
 24 59  1  0
 25 26  2  0
 25 60  1  0
 26 61  1  0
 27 32  1  0
 27 28  2  0
 28 29  1  0
 28 62  1  0
 29 30  2  0
 29 63  1  0
 30 31  1  0
 30 64  1  0
 31 32  2  0
 31 65  1  0
 32 66  1  0
 33 34  1  0
 33 67  1  0
 33 68  1  0
 34 69  1  0
 34 70  1  0
M  CHG  1  18   1
M  END
>  <DOCK_score>  (1) 
-57.611732

>  <SMILES>  (1) 
C=CCCC=CCc1c(C)cccc1N1CC[NH+](C(c2ccccc2)c2ccccc2)CC1

$$$$
