CCc1ccc(-c2c[nH]c(N[C@@H](C3=CCCC3)c3cccc4c3CC=C4)[nH+]2)cc1
     RDKit          3D

 57 61  0  0  1  0  0  0  0  0999 V2000
  130.4881  128.4699  151.7136 C   0  0  0  0  0  0  0  0  0  0  0  0
  131.6035  129.4555  152.0667 C   0  0  0  0  0  0  0  0  0  0  0  0
  131.2349  130.2033  153.3221 C   0  0  0  0  0  0  0  0  0  0  0  0
  131.6043  129.7004  154.5566 C   0  0  0  0  0  0  0  0  0  0  0  0
  131.2744  130.3833  155.7097 C   0  0  0  0  0  0  0  0  0  0  0  0
  130.5577  131.5760  155.6291 C   0  0  0  0  0  0  0  0  0  0  0  0
  130.1954  132.3116  156.8650 C   0  0  0  0  0  0  0  0  0  0  0  0
  129.4391  131.8348  157.8848 C   0  0  0  0  0  0  0  0  0  0  0  0
  129.3531  132.8374  158.8199 N   0  0  0  0  0  0  0  0  0  0  0  0
  128.8764  132.7966  159.6637 H   0  0  0  0  0  0  0  0  0  0  0  0
  130.0600  133.8985  158.3439 C   0  0  0  0  0  0  0  0  0  0  0  0
  130.2222  135.1133  158.9876 N   0  0  0  0  0  0  0  0  0  0  0  0
  129.6039  135.3370  160.2968 C   0  0  1  0  0  0  0  0  0  0  0  0
  129.9888  134.6078  161.0097 H   0  0  0  0  0  0  0  0  0  0  0  0
  129.9303  136.7281  160.7754 C   0  0  0  0  0  0  0  0  0  0  0  0
  131.0221  137.3761  160.4724 C   0  0  0  0  0  0  0  0  0  0  0  0
  131.0372  138.7453  161.1111 C   0  0  0  0  0  0  0  0  0  0  0  0
  129.5721  138.9987  161.5358 C   0  0  0  0  0  0  0  0  0  0  0  0
  129.0395  137.5537  161.6744 C   0  0  0  0  0  0  0  0  0  0  0  0
  128.1093  135.1840  160.1791 C   0  0  0  0  0  0  0  0  0  0  0  0
  127.3713  134.7345  161.2616 C   0  0  0  0  0  0  0  0  0  0  0  0
  125.9984  134.5998  161.1576 C   0  0  0  0  0  0  0  0  0  0  0  0
  125.3560  134.8990  159.9741 C   0  0  0  0  0  0  0  0  0  0  0  0
  126.0934  135.3471  158.8756 C   0  0  0  0  0  0  0  0  0  0  0  0
  127.4779  135.4853  158.9953 C   0  0  0  0  0  0  0  0  0  0  0  0
  127.9715  135.9797  157.6574 C   0  0  0  0  0  0  0  0  0  0  0  0
  126.7382  136.1012  156.7929 C   0  0  0  0  0  0  0  0  0  0  0  0
  125.6909  135.7358  157.5113 C   0  0  0  0  0  0  0  0  0  0  0  0
  130.5667  133.5785  157.1782 N   0  0  0  0  0  0  0  0  0  0  0  0
  131.1170  134.1559  156.6265 H   0  0  0  0  0  0  0  0  0  0  0  0
  130.1833  132.0751  154.3827 C   0  0  0  0  0  0  0  0  0  0  0  0
  130.5236  131.3866  153.2361 C   0  0  0  0  0  0  0  0  0  0  0  0
  129.5586  129.0157  151.5521 H   0  0  0  0  0  0  0  0  0  0  0  0
  130.7548  127.9296  150.8055 H   0  0  0  0  0  0  0  0  0  0  0  0
  130.3565  127.7623  152.5322 H   0  0  0  0  0  0  0  0  0  0  0  0
  132.5332  128.9104  152.2279 H   0  0  0  0  0  0  0  0  0  0  0  0
  131.7351  130.1638  151.2478 H   0  0  0  0  0  0  0  0  0  0  0  0
  132.1555  128.7737  154.6181 H   0  0  0  0  0  0  0  0  0  0  0  0
  131.5675  129.9921  156.6727 H   0  0  0  0  0  0  0  0  0  0  0  0
  128.9902  130.8547  157.9491 H   0  0  0  0  0  0  0  0  0  0  0  0
  130.7454  135.8164  158.5718 H   0  0  0  0  0  0  0  0  0  0  0  0
  131.8102  136.9855  159.8457 H   0  0  0  0  0  0  0  0  0  0  0  0
  131.3601  139.4987  160.3925 H   0  0  0  0  0  0  0  0  0  0  0  0
  131.6910  138.7465  161.9833 H   0  0  0  0  0  0  0  0  0  0  0  0
  129.0293  139.5434  160.7632 H   0  0  0  0  0  0  0  0  0  0  0  0
  129.5265  139.5256  162.4889 H   0  0  0  0  0  0  0  0  0  0  0  0
  128.0039  137.4967  161.3389 H   0  0  0  0  0  0  0  0  0  0  0  0
  129.1226  137.2139  162.7068 H   0  0  0  0  0  0  0  0  0  0  0  0
  127.8678  134.4935  162.1899 H   0  0  0  0  0  0  0  0  0  0  0  0
  125.4270  134.2534  162.0061 H   0  0  0  0  0  0  0  0  0  0  0  0
  124.2847  134.7867  159.8969 H   0  0  0  0  0  0  0  0  0  0  0  0
  128.4516  136.9520  157.7685 H   0  0  0  0  0  0  0  0  0  0  0  0
  128.6687  135.2627  157.2240 H   0  0  0  0  0  0  0  0  0  0  0  0
  126.7165  136.4303  155.7645 H   0  0  0  0  0  0  0  0  0  0  0  0
  124.6743  135.7235  157.1469 H   0  0  0  0  0  0  0  0  0  0  0  0
  129.6276  132.9986  154.3145 H   0  0  0  0  0  0  0  0  0  0  0  0
  130.2336  131.7722  152.2699 H   0  0  0  0  0  0  0  0  0  0  0  0
  1  2  1  0
  1 33  1  0
  1 34  1  0
  1 35  1  0
  2  3  1  0
  2 36  1  0
  2 37  1  0
  3 32  2  0
  3  4  1  0
  4  5  2  0
  4 38  1  0
  5  6  1  0
  5 39  1  0
  6  7  1  0
  6 31  2  0
  7 29  1  0
  7  8  2  0
  8  9  1  0
  8 40  1  0
  9 10  1  0
  9 11  1  0
 11 12  1  0
 11 29  2  0
 12 13  1  0
 12 41  1  0
 13 14  1  1
 13 15  1  0
 13 20  1  0
 15 19  1  0
 15 16  2  0
 16 17  1  0
 16 42  1  0
 17 18  1  0
 17 43  1  0
 17 44  1  0
 18 19  1  0
 18 45  1  0
 18 46  1  0
 19 47  1  0
 19 48  1  0
 20 25  1  0
 20 21  2  0
 21 22  1  0
 21 49  1  0
 22 23  2  0
 22 50  1  0
 23 24  1  0
 23 51  1  0
 24 28  1  0
 24 25  2  0
 25 26  1  0
 26 27  1  0
 26 52  1  0
 26 53  1  0
 27 28  2  0
 27 54  1  0
 28 55  1  0
 29 30  1  0
 31 32  1  0
 31 56  1  0
 32 57  1  0
M  CHG  1  29   1
M  END
>  <DOCK_score>  (1) 
-64.413437

>  <SMILES>  (1) 
CCc1ccc(-c2c[nH]c(N[C@@H](C3=CCCC3)c3cccc4c3CC=C4)[nH+]2)cc1

$$$$
