C[C@H](Nc1cc(Nc2[nH]cc(-c3cccnc3)[nH+]2)ccn1)c1cccc(O)c1
     RDKit          3D

 49 52  0  0  1  0  0  0  0  0999 V2000
  127.1513  137.5054  164.8325 C   0  0  0  0  0  0  0  0  0  0  0  0
  127.1726  138.4563  163.6340 C   0  0  2  0  0  0  0  0  0  0  0  0
  126.2284  138.3823  163.0947 H   0  0  0  0  0  0  0  0  0  0  0  0
  128.2751  138.0917  162.7409 N   0  0  0  0  0  0  0  0  0  0  0  0
  128.0653  137.1767  161.7154 C   0  0  0  0  0  0  0  0  0  0  0  0
  129.1150  136.8361  160.8728 C   0  0  0  0  0  0  0  0  0  0  0  0
  128.8897  135.9191  159.8512 C   0  0  0  0  0  0  0  0  0  0  0  0
  129.9161  135.5499  158.9841 N   0  0  0  0  0  0  0  0  0  0  0  0
  129.9243  134.2845  158.4192 C   0  0  0  0  0  0  0  0  0  0  0  0
  129.4166  133.1580  158.9902 N   0  0  0  0  0  0  0  0  0  0  0  0
  128.9877  133.0971  159.8581 H   0  0  0  0  0  0  0  0  0  0  0  0
  129.6205  132.1247  158.1094 C   0  0  0  0  0  0  0  0  0  0  0  0
  130.2547  132.6467  157.0300 C   0  0  0  0  0  0  0  0  0  0  0  0
  130.6833  131.8985  155.8230 C   0  0  0  0  0  0  0  0  0  0  0  0
  130.7349  132.5299  154.5769 C   0  0  0  0  0  0  0  0  0  0  0  0
  131.1458  131.7892  153.4822 C   0  0  0  0  0  0  0  0  0  0  0  0
  131.4793  130.4576  153.6529 C   0  0  0  0  0  0  0  0  0  0  0  0
  131.4162  129.8876  154.8406 N   0  0  0  0  0  0  0  0  0  0  0  0
  131.0358  130.5533  155.9119 C   0  0  0  0  0  0  0  0  0  0  0  0
  130.4273  133.9738  157.2495 N   0  0  0  0  0  0  0  0  0  0  0  0
  130.8547  134.5941  156.6383 H   0  0  0  0  0  0  0  0  0  0  0  0
  127.6093  135.3775  159.7164 C   0  0  0  0  0  0  0  0  0  0  0  0
  126.6191  135.7652  160.5920 C   0  0  0  0  0  0  0  0  0  0  0  0
  126.8669  136.6345  161.5552 N   0  0  0  0  0  0  0  0  0  0  0  0
  127.3649  139.8705  164.1182 C   0  0  0  0  0  0  0  0  0  0  0  0
  126.4065  140.8298  163.8475 C   0  0  0  0  0  0  0  0  0  0  0  0
  126.5800  142.1279  164.2902 C   0  0  0  0  0  0  0  0  0  0  0  0
  127.7117  142.4696  165.0054 C   0  0  0  0  0  0  0  0  0  0  0  0
  128.6743  141.5090  165.2788 C   0  0  0  0  0  0  0  0  0  0  0  0
  129.7880  141.8425  165.9825 O   0  0  0  0  0  0  0  0  0  0  0  0
  128.4957  140.2059  164.8370 C   0  0  0  0  0  0  0  0  0  0  0  0
  126.3310  137.7768  165.4971 H   0  0  0  0  0  0  0  0  0  0  0  0
  127.0121  136.4827  164.4823 H   0  0  0  0  0  0  0  0  0  0  0  0
  128.0956  137.5795  165.3719 H   0  0  0  0  0  0  0  0  0  0  0  0
  129.1504  138.4918  162.8625 H   0  0  0  0  0  0  0  0  0  0  0  0
  130.0918  137.2763  161.0087 H   0  0  0  0  0  0  0  0  0  0  0  0
  130.6248  136.1786  158.7759 H   0  0  0  0  0  0  0  0  0  0  0  0
  129.3351  131.0927  158.2512 H   0  0  0  0  0  0  0  0  0  0  0  0
  130.4646  133.5702  154.4715 H   0  0  0  0  0  0  0  0  0  0  0  0
  131.2015  132.2448  152.5047 H   0  0  0  0  0  0  0  0  0  0  0  0
  131.7968  129.8758  152.8002 H   0  0  0  0  0  0  0  0  0  0  0  0
  130.9970  130.0519  156.8676 H   0  0  0  0  0  0  0  0  0  0  0  0
  127.3980  134.6630  158.9346 H   0  0  0  0  0  0  0  0  0  0  0  0
  125.6274  135.3494  160.4921 H   0  0  0  0  0  0  0  0  0  0  0  0
  125.5212  140.5647  163.2888 H   0  0  0  0  0  0  0  0  0  0  0  0
  125.8302  142.8754  164.0771 H   0  0  0  0  0  0  0  0  0  0  0  0
  127.8464  143.4837  165.3518 H   0  0  0  0  0  0  0  0  0  0  0  0
  130.3997  141.1069  166.1227 H   0  0  0  0  0  0  0  0  0  0  0  0
  129.2418  139.4552  165.0521 H   0  0  0  0  0  0  0  0  0  0  0  0
  1  2  1  0
  1 32  1  0
  1 33  1  0
  1 34  1  0
  2  3  1  6
  2  4  1  0
  2 25  1  0
  4  5  1  0
  4 35  1  0
  5 24  1  0
  5  6  2  0
  6  7  1  0
  6 36  1  0
  7  8  1  0
  7 22  2  0
  8 37  1  0
  9  8  1  0
  9 20  2  0
  9 10  1  0
 10 11  1  0
 10 12  1  0
 12 13  2  0
 12 38  1  0
 13 14  1  0
 13 20  1  0
 14 19  1  0
 14 15  2  0
 15 16  1  0
 15 39  1  0
 16 17  2  0
 16 40  1  0
 17 18  1  0
 17 41  1  0
 18 19  2  0
 19 42  1  0
 20 21  1  0
 22 23  1  0
 22 43  1  0
 23 24  2  0
 23 44  1  0
 25 31  1  0
 25 26  2  0
 26 27  1  0
 26 45  1  0
 27 28  2  0
 27 46  1  0
 28 29  1  0
 28 47  1  0
 29 30  1  0
 29 31  2  0
 30 48  1  0
 31 49  1  0
M  CHG  1  20   1
M  END
>  <DOCK_score>  (1) 
-51.532902

>  <SMILES>  (1) 
C[C@H](Nc1cc(Nc2[nH]cc(-c3cccnc3)[nH+]2)ccn1)c1cccc(O)c1

$$$$
