CCc1ccc(-c2c[nH]c(N[C@@H](Cc3ccsc3)c3ccsc3)[nH+]2)cc1
     RDKit          3D

 48 51  0  0  1  0  0  0  0  0999 V2000
  130.1869  128.6909  151.4461 C   0  0  0  0  0  0  0  0  0  0  0  0
  131.3617  129.6025  151.8057 C   0  0  0  0  0  0  0  0  0  0  0  0
  131.0504  130.3443  153.0801 C   0  0  0  0  0  0  0  0  0  0  0  0
  131.4026  129.7959  154.2997 C   0  0  0  0  0  0  0  0  0  0  0  0
  131.1253  130.4732  155.4698 C   0  0  0  0  0  0  0  0  0  0  0  0
  130.4786  131.7068  155.4212 C   0  0  0  0  0  0  0  0  0  0  0  0
  130.1728  132.4370  156.6757 C   0  0  0  0  0  0  0  0  0  0  0  0
  129.4009  131.9843  157.6947 C   0  0  0  0  0  0  0  0  0  0  0  0
  129.3835  132.9710  158.6503 N   0  0  0  0  0  0  0  0  0  0  0  0
  128.9142  132.9409  159.4986 H   0  0  0  0  0  0  0  0  0  0  0  0
  130.1460  133.9986  158.1870 C   0  0  0  0  0  0  0  0  0  0  0  0
  130.3856  135.1887  158.8524 N   0  0  0  0  0  0  0  0  0  0  0  0
  129.7952  135.4213  160.1728 C   0  0  1  0  0  0  0  0  0  0  0  0
  130.1445  134.6568  160.8667 H   0  0  0  0  0  0  0  0  0  0  0  0
  130.2135  136.8021  160.6823 C   0  0  0  0  0  0  0  0  0  0  0  0
  131.6088  136.7276  161.2470 C   0  0  0  0  0  0  0  0  0  0  0  0
  131.8595  136.4302  162.5755 C   0  0  0  0  0  0  0  0  0  0  0  0
  133.1500  136.4040  162.9117 C   0  0  0  0  0  0  0  0  0  0  0  0
  134.1346  136.7697  161.5010 S   0  0  0  0  0  0  0  0  0  0  0  0
  132.6959  136.9378  160.5032 C   0  0  0  0  0  0  0  0  0  0  0  0
  128.2931  135.3580  160.0697 C   0  0  0  0  0  0  0  0  0  0  0  0
  127.6101  135.7144  158.9197 C   0  0  0  0  0  0  0  0  0  0  0  0
  126.2833  135.5995  158.9956 C   0  0  0  0  0  0  0  0  0  0  0  0
  125.8324  135.0120  160.5910 S   0  0  0  0  0  0  0  0  0  0  0  0
  127.5213  134.9487  161.0778 C   0  0  0  0  0  0  0  0  0  0  0  0
  130.6207  133.6734  157.0093 N   0  0  0  0  0  0  0  0  0  0  0  0
  131.1979  134.2290  156.4625 H   0  0  0  0  0  0  0  0  0  0  0  0
  130.1209  132.2523  154.1895 C   0  0  0  0  0  0  0  0  0  0  0  0
  130.4084  131.5688  153.0255 C   0  0  0  0  0  0  0  0  0  0  0  0
  129.2890  129.2928  151.3063 H   0  0  0  0  0  0  0  0  0  0  0  0
  130.4120  128.1546  150.5243 H   0  0  0  0  0  0  0  0  0  0  0  0
  130.0229  127.9755  152.2519 H   0  0  0  0  0  0  0  0  0  0  0  0
  132.2594  129.0013  151.9450 H   0  0  0  0  0  0  0  0  0  0  0  0
  131.5255  130.3186  150.9994 H   0  0  0  0  0  0  0  0  0  0  0  0
  131.8994  128.8377  154.3364 H   0  0  0  0  0  0  0  0  0  0  0  0
  131.4049  130.0461  156.4215 H   0  0  0  0  0  0  0  0  0  0  0  0
  128.8962  131.0308  157.7450 H   0  0  0  0  0  0  0  0  0  0  0  0
  130.9446  135.8685  158.4444 H   0  0  0  0  0  0  0  0  0  0  0  0
  130.1926  137.5152  159.8584 H   0  0  0  0  0  0  0  0  0  0  0  0
  129.5233  137.1264  161.4612 H   0  0  0  0  0  0  0  0  0  0  0  0
  131.0699  136.2347  163.2860 H   0  0  0  0  0  0  0  0  0  0  0  0
  133.5319  136.1913  163.8993 H   0  0  0  0  0  0  0  0  0  0  0  0
  132.6931  137.1767  159.4500 H   0  0  0  0  0  0  0  0  0  0  0  0
  128.1132  136.0596  158.0285 H   0  0  0  0  0  0  0  0  0  0  0  0
  125.5917  135.8322  158.1995 H   0  0  0  0  0  0  0  0  0  0  0  0
  127.8787  134.6295  162.0456 H   0  0  0  0  0  0  0  0  0  0  0  0
  129.6195  133.2079  154.1460 H   0  0  0  0  0  0  0  0  0  0  0  0
  130.1314  131.9904  152.0705 H   0  0  0  0  0  0  0  0  0  0  0  0
  1  2  1  0
  1 30  1  0
  1 31  1  0
  1 32  1  0
  2  3  1  0
  2 33  1  0
  2 34  1  0
  3 29  2  0
  3  4  1  0
  4  5  2  0
  4 35  1  0
  5  6  1  0
  5 36  1  0
  6  7  1  0
  6 28  2  0
  7 26  1  0
  7  8  2  0
  8  9  1  0
  8 37  1  0
  9 10  1  0
  9 11  1  0
 11 12  1  0
 11 26  2  0
 12 13  1  0
 12 38  1  0
 13 14  1  1
 13 15  1  0
 13 21  1  0
 15 16  1  0
 15 39  1  0
 15 40  1  0
 16 20  2  0
 16 17  1  0
 17 18  2  0
 17 41  1  0
 18 19  1  0
 18 42  1  0
 19 20  1  0
 20 43  1  0
 21 25  2  0
 21 22  1  0
 22 23  2  0
 22 44  1  0
 23 24  1  0
 23 45  1  0
 24 25  1  0
 25 46  1  0
 26 27  1  0
 28 29  1  0
 28 47  1  0
 29 48  1  0
M  CHG  1  26   1
M  END
>  <DOCK_score>  (1) 
-60.936157

>  <SMILES>  (1) 
CCc1ccc(-c2c[nH]c(N[C@@H](Cc3ccsc3)c3ccsc3)[nH+]2)cc1

$$$$
