Nc1ccc(C2=CCN[NH2+]C2)c(Nc2cccc3cccnc23)c1
     RDKit          3D

 44 47  0  0  0  0  0  0  0  0999 V2000
  126.2683  137.5949  162.5602 N   0  0  0  0  0  0  0  0  0  0  0  0
  126.9249  136.7692  161.6471 C   0  0  0  0  0  0  0  0  0  0  0  0
  126.2467  135.7030  161.0638 C   0  0  0  0  0  0  0  0  0  0  0  0
  126.8868  134.8860  160.1575 C   0  0  0  0  0  0  0  0  0  0  0  0
  128.2230  135.1198  159.8295 C   0  0  0  0  0  0  0  0  0  0  0  0
  128.9125  134.2429  158.8627 C   0  0  0  0  0  0  0  0  0  0  0  0
  129.0157  132.9563  159.1322 C   0  0  0  0  0  0  0  0  0  0  0  0
  129.7072  131.9979  158.2017 C   0  0  0  0  0  0  0  0  0  0  0  0
  129.8601  132.6172  156.8781 N   0  0  0  0  0  0  0  0  0  0  0  0
  130.4567  133.9387  157.0052 N   0  0  0  0  0  0  0  0  0  0  0  0
  130.7194  134.2803  156.0928 H   0  0  0  0  0  0  0  0  0  0  0  0
  131.2729  133.8857  157.5958 H   0  0  0  0  0  0  0  0  0  0  0  0
  129.4729  134.8484  157.6062 C   0  0  0  0  0  0  0  0  0  0  0  0
  128.9070  136.1944  160.4172 C   0  0  0  0  0  0  0  0  0  0  0  0
  130.2404  136.4371  160.0909 N   0  0  0  0  0  0  0  0  0  0  0  0
  131.2594  135.8400  160.8321 C   0  0  0  0  0  0  0  0  0  0  0  0
  131.0559  134.6158  161.4320 C   0  0  0  0  0  0  0  0  0  0  0  0
  132.0658  134.0075  162.1711 C   0  0  0  0  0  0  0  0  0  0  0  0
  133.2780  134.6082  162.3290 C   0  0  0  0  0  0  0  0  0  0  0  0
  133.5228  135.8579  161.7375 C   0  0  0  0  0  0  0  0  0  0  0  0
  134.7650  136.5049  161.8826 C   0  0  0  0  0  0  0  0  0  0  0  0
  134.9332  137.7193  161.2809 C   0  0  0  0  0  0  0  0  0  0  0  0
  133.8902  138.2828  160.5488 C   0  0  0  0  0  0  0  0  0  0  0  0
  132.7352  137.6767  160.4160 N   0  0  0  0  0  0  0  0  0  0  0  0
  132.5060  136.4876  160.9788 C   0  0  0  0  0  0  0  0  0  0  0  0
  128.2526  137.0135  161.3237 C   0  0  0  0  0  0  0  0  0  0  0  0
  126.7396  138.3382  162.9680 H   0  0  0  0  0  0  0  0  0  0  0  0
  125.3406  137.4255  162.7874 H   0  0  0  0  0  0  0  0  0  0  0  0
  125.2138  135.5178  161.3193 H   0  0  0  0  0  0  0  0  0  0  0  0
  126.3556  134.0623  159.7040 H   0  0  0  0  0  0  0  0  0  0  0  0
  128.5898  132.5785  160.0499 H   0  0  0  0  0  0  0  0  0  0  0  0
  130.6902  131.7497  158.6018 H   0  0  0  0  0  0  0  0  0  0  0  0
  129.1128  131.0888  158.1103 H   0  0  0  0  0  0  0  0  0  0  0  0
  130.4083  132.0316  156.2660 H   0  0  0  0  0  0  0  0  0  0  0  0
  128.6635  135.0251  156.8978 H   0  0  0  0  0  0  0  0  0  0  0  0
  129.9571  135.7951  157.8457 H   0  0  0  0  0  0  0  0  0  0  0  0
  130.4594  137.0216  159.3483 H   0  0  0  0  0  0  0  0  0  0  0  0
  130.1021  134.1211  161.3242 H   0  0  0  0  0  0  0  0  0  0  0  0
  131.8847  133.0462  162.6289 H   0  0  0  0  0  0  0  0  0  0  0  0
  134.0499  134.1240  162.9088 H   0  0  0  0  0  0  0  0  0  0  0  0
  135.5627  136.0532  162.4536 H   0  0  0  0  0  0  0  0  0  0  0  0
  135.8735  138.2426  161.3729 H   0  0  0  0  0  0  0  0  0  0  0  0
  134.0370  139.2438  160.0784 H   0  0  0  0  0  0  0  0  0  0  0  0
  128.7757  137.8417  161.7788 H   0  0  0  0  0  0  0  0  0  0  0  0
  1  2  1  0
  1 27  1  0
  1 28  1  0
  2 26  2  0
  2  3  1  0
  3  4  2  0
  3 29  1  0
  4  5  1  0
  4 30  1  0
  5  6  1  0
  5 14  2  0
  6 13  1  0
  6  7  2  0
  7  8  1  0
  7 31  1  0
  8  9  1  0
  8 32  1  0
  8 33  1  0
  9 10  1  0
  9 34  1  0
 10 11  1  0
 10 12  1  0
 10 13  1  0
 13 35  1  0
 13 36  1  0
 14 15  1  0
 14 26  1  0
 15 16  1  0
 15 37  1  0
 16 25  1  0
 16 17  2  0
 17 18  1  0
 17 38  1  0
 18 19  2  0
 18 39  1  0
 19 20  1  0
 19 40  1  0
 20 25  2  0
 20 21  1  0
 21 22  2  0
 21 41  1  0
 22 23  1  0
 22 42  1  0
 23 24  2  0
 23 43  1  0
 24 25  1  0
 26 44  1  0
M  CHG  1  10   1
M  END
>  <DOCK_score>  (1) 
-43.494659

>  <SMILES>  (1) 
Nc1ccc(C2=CCN[NH2+]C2)c(Nc2cccc3cccnc23)c1

$$$$
