CCc1ccc(-c2c[nH]c(N[C@@H](Cc3ccncc3)C3=CCC3)[nH+]2)cc1
     RDKit          3D

 51 54  0  0  1  0  0  0  0  0999 V2000
  130.3250  128.4382  151.5411 C   0  0  0  0  0  0  0  0  0  0  0  0
  131.4439  129.4310  151.8620 C   0  0  0  0  0  0  0  0  0  0  0  0
  131.0674  130.2364  153.0789 C   0  0  0  0  0  0  0  0  0  0  0  0
  131.4198  129.7871  154.3383 C   0  0  0  0  0  0  0  0  0  0  0  0
  131.0827  130.5232  155.4560 C   0  0  0  0  0  0  0  0  0  0  0  0
  130.3756  131.7159  155.3143 C   0  0  0  0  0  0  0  0  0  0  0  0
  130.0055  132.5087  156.5121 C   0  0  0  0  0  0  0  0  0  0  0  0
  129.2352  132.0833  157.5440 C   0  0  0  0  0  0  0  0  0  0  0  0
  129.1467  133.1274  158.4323 N   0  0  0  0  0  0  0  0  0  0  0  0
  128.6609  133.1279  159.2718 H   0  0  0  0  0  0  0  0  0  0  0  0
  129.8662  134.1612  157.9168 C   0  0  0  0  0  0  0  0  0  0  0  0
  130.0305  135.4027  158.5070 N   0  0  0  0  0  0  0  0  0  0  0  0
  129.4000  135.6892  159.7980 C   0  0  1  0  0  0  0  0  0  0  0  0
  129.7721  134.9903  160.5470 H   0  0  0  0  0  0  0  0  0  0  0  0
  129.7365  137.1198  160.2234 C   0  0  0  0  0  0  0  0  0  0  0  0
  131.1209  137.1547  160.8178 C   0  0  0  0  0  0  0  0  0  0  0  0
  132.0962  136.2632  160.3980 C   0  0  0  0  0  0  0  0  0  0  0  0
  133.3558  136.3279  160.9630 C   0  0  0  0  0  0  0  0  0  0  0  0
  133.6315  137.2172  161.8969 N   0  0  0  0  0  0  0  0  0  0  0  0
  132.7275  138.0774  162.3237 C   0  0  0  0  0  0  0  0  0  0  0  0
  131.4478  138.0753  161.8016 C   0  0  0  0  0  0  0  0  0  0  0  0
  127.9057  135.5413  159.6711 C   0  0  0  0  0  0  0  0  0  0  0  0
  127.0340  135.7021  158.7050 C   0  0  0  0  0  0  0  0  0  0  0  0
  125.7825  135.3385  159.4633 C   0  0  0  0  0  0  0  0  0  0  0  0
  126.7865  135.1527  160.6035 C   0  0  0  0  0  0  0  0  0  0  0  0
  130.3827  133.7857  156.7721 N   0  0  0  0  0  0  0  0  0  0  0  0
  130.9430  134.3341  156.2010 H   0  0  0  0  0  0  0  0  0  0  0  0
  130.0180  132.1612  154.0429 C   0  0  0  0  0  0  0  0  0  0  0  0
  130.3655  131.4198  152.9319 C   0  0  0  0  0  0  0  0  0  0  0  0
  129.4010  128.9823  151.3453 H   0  0  0  0  0  0  0  0  0  0  0  0
  130.5973  127.8559  150.6609 H   0  0  0  0  0  0  0  0  0  0  0  0
  130.1797  127.7688  152.3890 H   0  0  0  0  0  0  0  0  0  0  0  0
  132.3676  128.8875  152.0573 H   0  0  0  0  0  0  0  0  0  0  0  0
  131.5890  130.1010  151.0136 H   0  0  0  0  0  0  0  0  0  0  0  0
  131.9635  128.8603  154.4472 H   0  0  0  0  0  0  0  0  0  0  0  0
  131.3625  130.1736  156.4388 H   0  0  0  0  0  0  0  0  0  0  0  0
  128.7785  131.1101  157.6474 H   0  0  0  0  0  0  0  0  0  0  0  0
  130.5632  136.0828  158.0658 H   0  0  0  0  0  0  0  0  0  0  0  0
  129.6976  137.7761  159.3542 H   0  0  0  0  0  0  0  0  0  0  0  0
  129.0136  137.4575  160.9662 H   0  0  0  0  0  0  0  0  0  0  0  0
  131.8753  135.5296  159.6368 H   0  0  0  0  0  0  0  0  0  0  0  0
  134.1221  135.6391  160.6390 H   0  0  0  0  0  0  0  0  0  0  0  0
  132.9901  138.7912  163.0903 H   0  0  0  0  0  0  0  0  0  0  0  0
  130.7120  138.7823  162.1552 H   0  0  0  0  0  0  0  0  0  0  0  0
  127.1710  136.0036  157.6772 H   0  0  0  0  0  0  0  0  0  0  0  0
  125.3008  134.4187  159.1316 H   0  0  0  0  0  0  0  0  0  0  0  0
  125.0877  136.1664  159.6041 H   0  0  0  0  0  0  0  0  0  0  0  0
  126.8556  134.1218  160.9506 H   0  0  0  0  0  0  0  0  0  0  0  0
  126.6435  135.8602  161.4204 H   0  0  0  0  0  0  0  0  0  0  0  0
  129.4699  133.0846  153.9274 H   0  0  0  0  0  0  0  0  0  0  0  0
  130.0886  131.7638  151.9463 H   0  0  0  0  0  0  0  0  0  0  0  0
  1  2  1  0
  1 30  1  0
  1 31  1  0
  1 32  1  0
  2  3  1  0
  2 33  1  0
  2 34  1  0
  3 29  2  0
  3  4  1  0
  4  5  2  0
  4 35  1  0
  5  6  1  0
  5 36  1  0
  6  7  1  0
  6 28  2  0
  7 26  1  0
  7  8  2  0
  8  9  1  0
  8 37  1  0
  9 10  1  0
  9 11  1  0
 11 12  1  0
 11 26  2  0
 12 13  1  0
 12 38  1  0
 13 14  1  1
 13 15  1  0
 13 22  1  0
 15 16  1  0
 15 39  1  0
 15 40  1  0
 16 21  1  0
 16 17  2  0
 17 18  1  0
 17 41  1  0
 18 19  2  0
 18 42  1  0
 19 20  1  0
 20 21  2  0
 20 43  1  0
 21 44  1  0
 22 25  1  0
 22 23  2  0
 23 24  1  0
 23 45  1  0
 24 25  1  0
 24 46  1  0
 24 47  1  0
 25 48  1  0
 25 49  1  0
 26 27  1  0
 28 29  1  0
 28 50  1  0
 29 51  1  0
M  CHG  1  26   1
M  END
>  <DOCK_score>  (1) 
-59.396351

>  <SMILES>  (1) 
CCc1ccc(-c2c[nH]c(N[C@@H](Cc3ccncc3)C3=CCC3)[nH+]2)cc1

$$$$
