Cc1cc(C)c(N2CC[NH+](C(c3ccccc3)c3ccccc3)CC2)cc1Br
     RDKit          3D

 56 59  0  0  0  0  0  0  0  0999 V2000
  136.4453  140.8170  162.1679 C   0  0  0  0  0  0  0  0  0  0  0  0
  135.4226  139.7357  161.9319 C   0  0  0  0  0  0  0  0  0  0  0  0
  134.8376  139.0928  163.0074 C   0  0  0  0  0  0  0  0  0  0  0  0
  133.8959  138.1055  162.7950 C   0  0  0  0  0  0  0  0  0  0  0  0
  133.2546  137.4099  163.9680 C   0  0  0  0  0  0  0  0  0  0  0  0
  133.5440  137.7500  161.4986 C   0  0  0  0  0  0  0  0  0  0  0  0
  132.5957  136.7480  161.2807 N   0  0  0  0  0  0  0  0  0  0  0  0
  131.4045  137.2871  160.6095 C   0  0  0  0  0  0  0  0  0  0  0  0
  130.3684  136.1733  160.4432 C   0  0  0  0  0  0  0  0  0  0  0  0
  130.9466  135.0810  159.6494 N   0  0  0  0  0  0  0  0  0  0  0  0
  131.2243  135.4329  158.7455 H   0  0  0  0  0  0  0  0  0  0  0  0
  129.9456  134.0202  159.4748 C   0  0  0  0  0  0  0  0  0  0  0  0
  128.7419  134.5780  158.7601 C   0  0  0  0  0  0  0  0  0  0  0  0
  127.4887  134.0452  158.9977 C   0  0  0  0  0  0  0  0  0  0  0  0
  126.3838  134.5600  158.3457 C   0  0  0  0  0  0  0  0  0  0  0  0
  126.5334  135.6008  157.4484 C   0  0  0  0  0  0  0  0  0  0  0  0
  127.7873  136.1303  157.2070 C   0  0  0  0  0  0  0  0  0  0  0  0
  128.8916  135.6189  157.8629 C   0  0  0  0  0  0  0  0  0  0  0  0
  130.5385  132.8993  158.6604 C   0  0  0  0  0  0  0  0  0  0  0  0
  130.4222  132.9093  157.2830 C   0  0  0  0  0  0  0  0  0  0  0  0
  130.9703  131.8836  156.5356 C   0  0  0  0  0  0  0  0  0  0  0  0
  131.6255  130.8426  157.1665 C   0  0  0  0  0  0  0  0  0  0  0  0
  131.7372  130.8299  158.5443 C   0  0  0  0  0  0  0  0  0  0  0  0
  131.1937  131.8583  159.2913 C   0  0  0  0  0  0  0  0  0  0  0  0
  132.1205  134.5367  160.3444 C   0  0  0  0  0  0  0  0  0  0  0  0
  133.1712  135.6369  160.5099 C   0  0  0  0  0  0  0  0  0  0  0  0
  134.1329  138.3972  160.4203 C   0  0  0  0  0  0  0  0  0  0  0  0
  135.0707  139.3886  160.6397 C   0  0  0  0  0  0  0  0  0  0  0  0
  135.8737  140.2708  159.1724 Br  0  0  0  0  0  0  0  0  0  0  0  0
  135.9438  141.7821  162.2393 H   0  0  0  0  0  0  0  0  0  0  0  0
  136.9796  140.6156  163.0964 H   0  0  0  0  0  0  0  0  0  0  0  0
  137.1526  140.8355  161.3385 H   0  0  0  0  0  0  0  0  0  0  0  0
  135.1143  139.3663  164.0149 H   0  0  0  0  0  0  0  0  0  0  0  0
  133.8473  136.5370  164.2413 H   0  0  0  0  0  0  0  0  0  0  0  0
  133.2055  138.0952  164.8143 H   0  0  0  0  0  0  0  0  0  0  0  0
  132.2470  137.0945  163.6969 H   0  0  0  0  0  0  0  0  0  0  0  0
  131.6833  137.6740  159.6293 H   0  0  0  0  0  0  0  0  0  0  0  0
  130.9808  138.0912  161.2110 H   0  0  0  0  0  0  0  0  0  0  0  0
  129.4897  136.5679  159.9328 H   0  0  0  0  0  0  0  0  0  0  0  0
  130.0798  135.7962  161.4243 H   0  0  0  0  0  0  0  0  0  0  0  0
  129.6448  133.6401  160.4511 H   0  0  0  0  0  0  0  0  0  0  0  0
  127.3723  133.2290  159.6954 H   0  0  0  0  0  0  0  0  0  0  0  0
  125.4041  134.1461  158.5340 H   0  0  0  0  0  0  0  0  0  0  0  0
  125.6708  136.0002  156.9358 H   0  0  0  0  0  0  0  0  0  0  0  0
  127.9044  136.9433  156.5057 H   0  0  0  0  0  0  0  0  0  0  0  0
  129.8712  136.0323  157.6739 H   0  0  0  0  0  0  0  0  0  0  0  0
  129.9065  133.7203  156.7905 H   0  0  0  0  0  0  0  0  0  0  0  0
  130.8827  131.8932  155.4593 H   0  0  0  0  0  0  0  0  0  0  0  0
  132.0498  130.0389  156.5829 H   0  0  0  0  0  0  0  0  0  0  0  0
  132.2487  130.0164  159.0370 H   0  0  0  0  0  0  0  0  0  0  0  0
  131.2806  131.8481  160.3677 H   0  0  0  0  0  0  0  0  0  0  0  0
  131.8229  134.1679  161.3260 H   0  0  0  0  0  0  0  0  0  0  0  0
  132.5408  133.7177  159.7607 H   0  0  0  0  0  0  0  0  0  0  0  0
  134.0363  135.2370  161.0387 H   0  0  0  0  0  0  0  0  0  0  0  0
  133.4791  135.9964  159.5280 H   0  0  0  0  0  0  0  0  0  0  0  0
  133.8589  138.1257  159.4115 H   0  0  0  0  0  0  0  0  0  0  0  0
  1  2  1  0
  1 30  1  0
  1 31  1  0
  1 32  1  0
  2 28  2  0
  2  3  1  0
  3  4  2  0
  3 33  1  0
  4  5  1  0
  4  6  1  0
  5 34  1  0
  5 35  1  0
  5 36  1  0
  6  7  1  0
  6 27  2  0
  7 26  1  0
  7  8  1  0
  8  9  1  0
  8 37  1  0
  8 38  1  0
  9 10  1  0
  9 39  1  0
  9 40  1  0
 10 11  1  0
 10 12  1  0
 10 25  1  0
 12 13  1  0
 12 19  1  0
 12 41  1  0
 13 18  1  0
 13 14  2  0
 14 15  1  0
 14 42  1  0
 15 16  2  0
 15 43  1  0
 16 17  1  0
 16 44  1  0
 17 18  2  0
 17 45  1  0
 18 46  1  0
 19 24  1  0
 19 20  2  0
 20 21  1  0
 20 47  1  0
 21 22  2  0
 21 48  1  0
 22 23  1  0
 22 49  1  0
 23 24  2  0
 23 50  1  0
 24 51  1  0
 25 26  1  0
 25 52  1  0
 25 53  1  0
 26 54  1  0
 26 55  1  0
 27 28  1  0
 27 56  1  0
 28 29  1  0
M  CHG  1  10   1
M  END
>  <DOCK_score>  (1) 
-57.337639

>  <SMILES>  (1) 
Cc1cc(C)c(N2CC[NH+](C(c3ccccc3)c3ccccc3)CC2)cc1Br

$$$$
