CCc1ccc(C[C@H](Nc2[nH]cc(-c3ccc(N)cc3)[nH+]2)c2ccnn2C)cc1
     RDKit          3D

 56 59  0  0  1  0  0  0  0  0999 V2000
  135.2469  139.0162  161.3534 C   0  0  0  0  0  0  0  0  0  0  0  0
  134.1544  140.0707  161.1654 C   0  0  0  0  0  0  0  0  0  0  0  0
  132.8292  139.3874  160.9465 C   0  0  0  0  0  0  0  0  0  0  0  0
  132.0235  139.0795  162.0266 C   0  0  0  0  0  0  0  0  0  0  0  0
  130.8053  138.4579  161.8253 C   0  0  0  0  0  0  0  0  0  0  0  0
  130.3954  138.1388  160.5443 C   0  0  0  0  0  0  0  0  0  0  0  0
  129.0679  137.4604  160.3248 C   0  0  0  0  0  0  0  0  0  0  0  0
  129.2574  135.9428  160.3672 C   0  0  2  0  0  0  0  0  0  0  0  0
  129.6570  135.6536  161.3393 H   0  0  0  0  0  0  0  0  0  0  0  0
  130.1927  135.5379  159.3148 N   0  0  0  0  0  0  0  0  0  0  0  0
  130.0788  134.2879  158.7309 C   0  0  0  0  0  0  0  0  0  0  0  0
  129.5963  133.1701  159.3387 N   0  0  0  0  0  0  0  0  0  0  0  0
  129.2733  133.1062  160.2512 H   0  0  0  0  0  0  0  0  0  0  0  0
  129.6516  132.1482  158.4208 C   0  0  0  0  0  0  0  0  0  0  0  0
  130.1658  132.6713  157.2805 C   0  0  0  0  0  0  0  0  0  0  0  0
  130.4103  131.9360  156.0154 C   0  0  0  0  0  0  0  0  0  0  0  0
  129.7675  132.3308  154.8431 C   0  0  0  0  0  0  0  0  0  0  0  0
  130.0003  131.6490  153.6672 C   0  0  0  0  0  0  0  0  0  0  0  0
  130.8659  130.5623  153.6525 C   0  0  0  0  0  0  0  0  0  0  0  0
  131.0955  129.8698  152.4613 N   0  0  0  0  0  0  0  0  0  0  0  0
  131.5041  130.1633  154.8214 C   0  0  0  0  0  0  0  0  0  0  0  0
  131.2787  130.8457  155.9983 C   0  0  0  0  0  0  0  0  0  0  0  0
  130.4128  133.9871  157.4996 N   0  0  0  0  0  0  0  0  0  0  0  0
  130.7801  134.6061  156.8494 H   0  0  0  0  0  0  0  0  0  0  0  0
  127.9298  135.2643  160.1478 C   0  0  0  0  0  0  0  0  0  0  0  0
  127.1425  135.3867  159.0542 C   0  0  0  0  0  0  0  0  0  0  0  0
  126.0062  134.5953  159.2511 C   0  0  0  0  0  0  0  0  0  0  0  0
  126.1075  134.0185  160.4211 N   0  0  0  0  0  0  0  0  0  0  0  0
  127.3159  134.4214  161.0043 N   0  0  0  0  0  0  0  0  0  0  0  0
  127.8223  134.0035  162.3140 C   0  0  0  0  0  0  0  0  0  0  0  0
  131.2036  138.4420  159.4644 C   0  0  0  0  0  0  0  0  0  0  0  0
  132.4211  139.0648  159.6656 C   0  0  0  0  0  0  0  0  0  0  0  0
  135.3039  138.3894  160.4633 H   0  0  0  0  0  0  0  0  0  0  0  0
  136.2056  139.5103  161.5118 H   0  0  0  0  0  0  0  0  0  0  0  0
  135.0098  138.3975  162.2189 H   0  0  0  0  0  0  0  0  0  0  0  0
  134.3916  140.6893  160.2999 H   0  0  0  0  0  0  0  0  0  0  0  0
  134.0974  140.6973  162.0554 H   0  0  0  0  0  0  0  0  0  0  0  0
  132.3436  139.3288  163.0275 H   0  0  0  0  0  0  0  0  0  0  0  0
  130.1739  138.2212  162.6689 H   0  0  0  0  0  0  0  0  0  0  0  0
  128.3720  137.7617  161.1079 H   0  0  0  0  0  0  0  0  0  0  0  0
  128.6682  137.7497  159.3528 H   0  0  0  0  0  0  0  0  0  0  0  0
  130.8917  136.1458  159.0271 H   0  0  0  0  0  0  0  0  0  0  0  0
  129.3444  131.1248  158.5779 H   0  0  0  0  0  0  0  0  0  0  0  0
  129.0909  133.1724  154.8549 H   0  0  0  0  0  0  0  0  0  0  0  0
  129.5060  131.9573  152.7579 H   0  0  0  0  0  0  0  0  0  0  0  0
  131.7004  129.1106  152.4507 H   0  0  0  0  0  0  0  0  0  0  0  0
  130.6512  130.1468  151.6455 H   0  0  0  0  0  0  0  0  0  0  0  0
  132.1764  129.3183  154.8080 H   0  0  0  0  0  0  0  0  0  0  0  0
  131.7749  130.5357  156.9063 H   0  0  0  0  0  0  0  0  0  0  0  0
  127.3540  135.9892  158.1831 H   0  0  0  0  0  0  0  0  0  0  0  0
  125.1862  134.4807  158.5575 H   0  0  0  0  0  0  0  0  0  0  0  0
  127.4681  134.6957  163.0780 H   0  0  0  0  0  0  0  0  0  0  0  0
  127.4632  132.9992  162.5388 H   0  0  0  0  0  0  0  0  0  0  0  0
  128.9122  134.0051  162.2995 H   0  0  0  0  0  0  0  0  0  0  0  0
  130.8835  138.1924  158.4636 H   0  0  0  0  0  0  0  0  0  0  0  0
  133.0523  139.3019  158.8220 H   0  0  0  0  0  0  0  0  0  0  0  0
  1  2  1  0
  1 33  1  0
  1 34  1  0
  1 35  1  0
  2  3  1  0
  2 36  1  0
  2 37  1  0
  3 32  2  0
  3  4  1  0
  4  5  2  0
  4 38  1  0
  5  6  1  0
  5 39  1  0
  6  7  1  0
  6 31  2  0
  7  8  1  0
  7 40  1  0
  7 41  1  0
  8  9  1  1
  8 10  1  0
  8 25  1  0
 10 42  1  0
 11 10  1  0
 11 23  2  0
 11 12  1  0
 12 13  1  0
 12 14  1  0
 14 15  2  0
 14 43  1  0
 15 16  1  0
 15 23  1  0
 16 22  1  0
 16 17  2  0
 17 18  1  0
 17 44  1  0
 18 19  2  0
 18 45  1  0
 19 20  1  0
 19 21  1  0
 20 46  1  0
 20 47  1  0
 21 22  2  0
 21 48  1  0
 22 49  1  0
 23 24  1  0
 25 29  1  0
 25 26  2  0
 26 27  1  0
 26 50  1  0
 27 28  2  0
 27 51  1  0
 28 29  1  0
 29 30  1  0
 30 52  1  0
 30 53  1  0
 30 54  1  0
 31 32  1  0
 31 55  1  0
 32 56  1  0
M  CHG  1  23   1
M  END
>  <DOCK_score>  (1) 
-56.979961

>  <SMILES>  (1) 
CCc1ccc(C[C@H](Nc2[nH]cc(-c3ccc(N)cc3)[nH+]2)c2ccnn2C)cc1

$$$$
