Cc1c(Cl)cccc1N1CC[NH+]([C@@H](c2ccc(N)cc2)c2nc(-c3ccc(N)cc3)no2)CC1
     RDKit          3D

 62 66  0  0  1  0  0  0  0  0999 V2000
  134.7600  134.4649  163.2499 C   0  0  0  0  0  0  0  0  0  0  0  0
  134.7028  135.8940  162.7751 C   0  0  0  0  0  0  0  0  0  0  0  0
  135.6152  136.8179  163.2493 C   0  0  0  0  0  0  0  0  0  0  0  0
  136.8275  136.3315  164.3926 Cl  0  0  0  0  0  0  0  0  0  0  0  0
  135.5592  138.1316  162.8177 C   0  0  0  0  0  0  0  0  0  0  0  0
  134.5946  138.5227  161.9073 C   0  0  0  0  0  0  0  0  0  0  0  0
  133.6839  137.6031  161.4256 C   0  0  0  0  0  0  0  0  0  0  0  0
  133.7369  136.2832  161.8565 C   0  0  0  0  0  0  0  0  0  0  0  0
  132.8167  135.3512  161.3710 N   0  0  0  0  0  0  0  0  0  0  0  0
  131.4471  135.7074  161.7680 C   0  0  0  0  0  0  0  0  0  0  0  0
  130.4789  134.6327  161.2687 C   0  0  0  0  0  0  0  0  0  0  0  0
  130.5724  134.5302  159.8065 N   0  0  0  0  0  0  0  0  0  0  0  0
  130.3442  135.4212  159.3918 H   0  0  0  0  0  0  0  0  0  0  0  0
  129.6297  133.5110  159.3261 C   0  0  1  0  0  0  0  0  0  0  0  0
  129.8758  132.5484  159.7743 H   0  0  0  0  0  0  0  0  0  0  0  0
  128.2269  133.9018  159.7137 C   0  0  0  0  0  0  0  0  0  0  0  0
  127.6922  135.0935  159.2593 C   0  0  0  0  0  0  0  0  0  0  0  0
  126.4049  135.4520  159.6080 C   0  0  0  0  0  0  0  0  0  0  0  0
  125.6510  134.6194  160.4255 C   0  0  0  0  0  0  0  0  0  0  0  0
  124.3506  134.9814  160.7844 N   0  0  0  0  0  0  0  0  0  0  0  0
  126.1933  133.4258  160.8848 C   0  0  0  0  0  0  0  0  0  0  0  0
  127.4792  133.0707  160.5276 C   0  0  0  0  0  0  0  0  0  0  0  0
  129.7254  133.4057  157.8258 C   0  0  0  0  0  0  0  0  0  0  0  0
  130.0507  132.3383  157.1402 N   0  0  0  0  0  0  0  0  0  0  0  0
  130.0107  132.7142  155.8417 C   0  0  0  0  0  0  0  0  0  0  0  0
  130.3017  131.8567  154.6672 C   0  0  0  0  0  0  0  0  0  0  0  0
  130.2141  132.3837  153.3792 C   0  0  0  0  0  0  0  0  0  0  0  0
  130.4908  131.5869  152.2895 C   0  0  0  0  0  0  0  0  0  0  0  0
  130.8459  130.2549  152.4732 C   0  0  0  0  0  0  0  0  0  0  0  0
  131.1203  129.4489  151.3689 N   0  0  0  0  0  0  0  0  0  0  0  0
  130.9283  129.7259  153.7565 C   0  0  0  0  0  0  0  0  0  0  0  0
  130.6582  130.5211  154.8491 C   0  0  0  0  0  0  0  0  0  0  0  0
  129.6666  133.9762  155.8158 N   0  0  0  0  0  0  0  0  0  0  0  0
  129.4999  134.3858  156.9452 O   0  0  0  0  0  0  0  0  0  0  0  0
  131.9395  134.1497  159.4273 C   0  0  0  0  0  0  0  0  0  0  0  0
  132.9199  135.2207  159.9108 C   0  0  0  0  0  0  0  0  0  0  0  0
  135.4135  133.8898  162.5940 H   0  0  0  0  0  0  0  0  0  0  0  0
  135.1494  134.4354  164.2674 H   0  0  0  0  0  0  0  0  0  0  0  0
  133.7581  134.0356  163.2317 H   0  0  0  0  0  0  0  0  0  0  0  0
  136.2706  138.8526  163.1923 H   0  0  0  0  0  0  0  0  0  0  0  0
  134.5535  139.5486  161.5726 H   0  0  0  0  0  0  0  0  0  0  0  0
  132.9314  137.9095  160.7141 H   0  0  0  0  0  0  0  0  0  0  0  0
  131.1801  136.6692  161.3299 H   0  0  0  0  0  0  0  0  0  0  0  0
  131.3884  135.7736  162.8542 H   0  0  0  0  0  0  0  0  0  0  0  0
  129.4607  134.9022  161.5496 H   0  0  0  0  0  0  0  0  0  0  0  0
  130.7378  133.6737  161.7176 H   0  0  0  0  0  0  0  0  0  0  0  0
  128.2806  135.7425  158.6277 H   0  0  0  0  0  0  0  0  0  0  0  0
  125.9863  136.3806  159.2492 H   0  0  0  0  0  0  0  0  0  0  0  0
  123.8251  134.3990  161.3549 H   0  0  0  0  0  0  0  0  0  0  0  0
  123.9730  135.8150  160.4630 H   0  0  0  0  0  0  0  0  0  0  0  0
  125.6099  132.7764  161.5208 H   0  0  0  0  0  0  0  0  0  0  0  0
  127.9013  132.1427  160.8840 H   0  0  0  0  0  0  0  0  0  0  0  0
  129.9339  133.4168  153.2359 H   0  0  0  0  0  0  0  0  0  0  0  0
  130.4270  131.9957  151.2918 H   0  0  0  0  0  0  0  0  0  0  0  0
  131.3685  128.5199  151.4963 H   0  0  0  0  0  0  0  0  0  0  0  0
  131.0629  129.8172  150.4734 H   0  0  0  0  0  0  0  0  0  0  0  0
  131.2041  128.6913  153.8970 H   0  0  0  0  0  0  0  0  0  0  0  0
  130.7227  130.1100  155.8458 H   0  0  0  0  0  0  0  0  0  0  0  0
  132.1907  133.1932  159.8856 H   0  0  0  0  0  0  0  0  0  0  0  0
  132.0044  134.0611  158.3428 H   0  0  0  0  0  0  0  0  0  0  0  0
  132.6771  136.1743  159.4422 H   0  0  0  0  0  0  0  0  0  0  0  0
  133.9360  134.9318  159.6423 H   0  0  0  0  0  0  0  0  0  0  0  0
  1  2  1  0
  1 37  1  0
  1 38  1  0
  1 39  1  0
  2  8  2  0
  2  3  1  0
  3  4  1  0
  3  5  2  0
  5  6  1  0
  5 40  1  0
  6  7  2  0
  6 41  1  0
  7  8  1  0
  7 42  1  0
  8  9  1  0
  9 36  1  0
  9 10  1  0
 10 11  1  0
 10 43  1  0
 10 44  1  0
 11 12  1  0
 11 45  1  0
 11 46  1  0
 12 13  1  0
 12 14  1  0
 12 35  1  0
 14 15  1  1
 14 16  1  0
 14 23  1  0
 16 22  1  0
 16 17  2  0
 17 18  1  0
 17 47  1  0
 18 19  2  0
 18 48  1  0
 19 20  1  0
 19 21  1  0
 20 49  1  0
 20 50  1  0
 21 22  2  0
 21 51  1  0
 22 52  1  0
 23 34  1  0
 23 24  2  0
 24 25  1  0
 25 26  1  0
 25 33  2  0
 26 32  1  0
 26 27  2  0
 27 28  1  0
 27 53  1  0
 28 29  2  0
 28 54  1  0
 29 30  1  0
 29 31  1  0
 30 55  1  0
 30 56  1  0
 31 32  2  0
 31 57  1  0
 32 58  1  0
 33 34  1  0
 35 36  1  0
 35 59  1  0
 35 60  1  0
 36 61  1  0
 36 62  1  0
M  CHG  1  12   1
M  END
>  <DOCK_score>  (1) 
-41.597599

>  <SMILES>  (1) 
Cc1c(Cl)cccc1N1CC[NH+]([C@@H](c2ccc(N)cc2)c2nc(-c3ccc(N)cc3)no2)CC1

$$$$
