Cc1ccc([C@H](Nc2[nH]cc(-c3cccnc3)[nH+]2)c2ccccc2)cc1
     RDKit          3D

 47 50  0  0  1  0  0  0  0  0999 V2000
  130.1177  141.1328  161.4452 C   0  0  0  0  0  0  0  0  0  0  0  0
  129.8050  139.7253  161.0065 C   0  0  0  0  0  0  0  0  0  0  0  0
  129.0273  138.9089  161.8061 C   0  0  0  0  0  0  0  0  0  0  0  0
  128.7395  137.6181  161.4033 C   0  0  0  0  0  0  0  0  0  0  0  0
  129.2313  137.1433  160.2017 C   0  0  0  0  0  0  0  0  0  0  0  0
  128.9182  135.7361  159.7627 C   0  0  2  0  0  0  0  0  0  0  0  0
  128.7926  135.1013  160.6400 H   0  0  0  0  0  0  0  0  0  0  0  0
  130.0188  135.2240  158.9428 N   0  0  0  0  0  0  0  0  0  0  0  0
  129.9563  133.9427  158.4222 C   0  0  0  0  0  0  0  0  0  0  0  0
  129.3162  132.8858  158.9926 N   0  0  0  0  0  0  0  0  0  0  0  0
  128.8260  132.8946  159.8295 H   0  0  0  0  0  0  0  0  0  0  0  0
  129.4900  131.8049  158.1627 C   0  0  0  0  0  0  0  0  0  0  0  0
  130.2379  132.2300  157.1144 C   0  0  0  0  0  0  0  0  0  0  0  0
  130.6819  131.4022  155.9663 C   0  0  0  0  0  0  0  0  0  0  0  0
  130.3001  131.7325  154.6626 C   0  0  0  0  0  0  0  0  0  0  0  0
  130.7456  130.9317  153.6254 C   0  0  0  0  0  0  0  0  0  0  0  0
  131.5370  129.8337  153.9103 C   0  0  0  0  0  0  0  0  0  0  0  0
  131.8767  129.5437  155.1513 N   0  0  0  0  0  0  0  0  0  0  0  0
  131.4815  130.2793  156.1702 C   0  0  0  0  0  0  0  0  0  0  0  0
  130.5085  133.5461  157.3017 N   0  0  0  0  0  0  0  0  0  0  0  0
  131.0275  134.1046  156.7018 H   0  0  0  0  0  0  0  0  0  0  0  0
  127.6462  135.7333  158.9546 C   0  0  0  0  0  0  0  0  0  0  0  0
  126.4281  135.5556  159.5835 C   0  0  0  0  0  0  0  0  0  0  0  0
  125.2611  135.5573  158.8428 C   0  0  0  0  0  0  0  0  0  0  0  0
  125.3127  135.7276  157.4719 C   0  0  0  0  0  0  0  0  0  0  0  0
  126.5312  135.9000  156.8424 C   0  0  0  0  0  0  0  0  0  0  0  0
  127.6980  135.9025  157.5837 C   0  0  0  0  0  0  0  0  0  0  0  0
  130.0105  137.9592  159.4030 C   0  0  0  0  0  0  0  0  0  0  0  0
  130.2973  139.2502  159.8054 C   0  0  0  0  0  0  0  0  0  0  0  0
  129.3489  141.8091  161.0717 H   0  0  0  0  0  0  0  0  0  0  0  0
  130.1424  141.1769  162.5341 H   0  0  0  0  0  0  0  0  0  0  0  0
  131.0879  141.4302  161.0473 H   0  0  0  0  0  0  0  0  0  0  0  0
  128.6429  139.2799  162.7447 H   0  0  0  0  0  0  0  0  0  0  0  0
  128.1271  136.9822  162.0252 H   0  0  0  0  0  0  0  0  0  0  0  0
  130.7916  135.7827  158.7646 H   0  0  0  0  0  0  0  0  0  0  0  0
  129.1078  130.8067  158.3176 H   0  0  0  0  0  0  0  0  0  0  0  0
  129.6770  132.5933  154.4695 H   0  0  0  0  0  0  0  0  0  0  0  0
  130.4743  131.1590  152.6051 H   0  0  0  0  0  0  0  0  0  0  0  0
  131.8826  129.2040  153.1038 H   0  0  0  0  0  0  0  0  0  0  0  0
  131.7802  130.0099  157.1726 H   0  0  0  0  0  0  0  0  0  0  0  0
  126.3880  135.4188  160.6542 H   0  0  0  0  0  0  0  0  0  0  0  0
  124.3091  135.4230  159.3348 H   0  0  0  0  0  0  0  0  0  0  0  0
  124.4010  135.7262  156.8929 H   0  0  0  0  0  0  0  0  0  0  0  0
  126.5715  136.0330  155.7713 H   0  0  0  0  0  0  0  0  0  0  0  0
  128.6499  136.0373  157.0917 H   0  0  0  0  0  0  0  0  0  0  0  0
  130.3949  137.5882  158.4644 H   0  0  0  0  0  0  0  0  0  0  0  0
  130.9058  139.8878  159.1812 H   0  0  0  0  0  0  0  0  0  0  0  0
  1  2  1  0
  1 30  1  0
  1 31  1  0
  1 32  1  0
  2 29  2  0
  2  3  1  0
  3  4  2  0
  3 33  1  0
  4  5  1  0
  4 34  1  0
  5  6  1  0
  5 28  2  0
  6  7  1  1
  6  8  1  0
  6 22  1  0
  8 35  1  0
  9  8  1  0
  9 20  2  0
  9 10  1  0
 10 11  1  0
 10 12  1  0
 12 13  2  0
 12 36  1  0
 13 14  1  0
 13 20  1  0
 14 19  1  0
 14 15  2  0
 15 16  1  0
 15 37  1  0
 16 17  2  0
 16 38  1  0
 17 18  1  0
 17 39  1  0
 18 19  2  0
 19 40  1  0
 20 21  1  0
 22 27  1  0
 22 23  2  0
 23 24  1  0
 23 41  1  0
 24 25  2  0
 24 42  1  0
 25 26  1  0
 25 43  1  0
 26 27  2  0
 26 44  1  0
 27 45  1  0
 28 29  1  0
 28 46  1  0
 29 47  1  0
M  CHG  1  20   1
M  END
>  <DOCK_score>  (1) 
-60.450634

>  <SMILES>  (1) 
Cc1ccc([C@H](Nc2[nH]cc(-c3cccnc3)[nH+]2)c2ccccc2)cc1

$$$$
