Cc1ccccc1N1CC[NH+]([C@H](c2ccccc2)c2ccccc2/C2=C/CC/C=C\CC2)CC1
     RDKit          3D

 71 75  0  0  1  0  0  0  0  0999 V2000
  132.8771  139.4370  163.2561 C   0  0  0  0  0  0  0  0  0  0  0  0
  133.5981  139.7475  161.9697 C   0  0  0  0  0  0  0  0  0  0  0  0
  134.5480  140.7498  161.9341 C   0  0  0  0  0  0  0  0  0  0  0  0
  135.2060  141.0391  160.7530 C   0  0  0  0  0  0  0  0  0  0  0  0
  134.9196  140.3232  159.6048 C   0  0  0  0  0  0  0  0  0  0  0  0
  133.9747  139.3167  159.6346 C   0  0  0  0  0  0  0  0  0  0  0  0
  133.3117  139.0233  160.8197 C   0  0  0  0  0  0  0  0  0  0  0  0
  132.3549  138.0063  160.8532 N   0  0  0  0  0  0  0  0  0  0  0  0
  131.2156  138.3260  159.9815 C   0  0  0  0  0  0  0  0  0  0  0  0
  130.1659  137.2180  160.0922 C   0  0  0  0  0  0  0  0  0  0  0  0
  130.7631  135.9361  159.6958 N   0  0  0  0  0  0  0  0  0  0  0  0
  131.0991  136.0009  158.7466 H   0  0  0  0  0  0  0  0  0  0  0  0
  129.7502  134.8759  159.7849 C   0  0  2  0  0  0  0  0  0  0  0  0
  129.3867  134.8060  160.8102 H   0  0  0  0  0  0  0  0  0  0  0  0
  130.3626  133.5604  159.3783 C   0  0  0  0  0  0  0  0  0  0  0  0
  130.3239  133.1594  158.0560 C   0  0  0  0  0  0  0  0  0  0  0  0
  130.8905  131.9551  157.6821 C   0  0  0  0  0  0  0  0  0  0  0  0
  131.4855  131.1466  158.6324 C   0  0  0  0  0  0  0  0  0  0  0  0
  131.5196  131.5452  159.9557 C   0  0  0  0  0  0  0  0  0  0  0  0
  130.9581  132.7521  160.3286 C   0  0  0  0  0  0  0  0  0  0  0  0
  128.6010  135.2005  158.8656 C   0  0  0  0  0  0  0  0  0  0  0  0
  128.8218  135.9241  157.7117 C   0  0  0  0  0  0  0  0  0  0  0  0
  127.7682  136.2229  156.8668 C   0  0  0  0  0  0  0  0  0  0  0  0
  126.4869  135.7977  157.1718 C   0  0  0  0  0  0  0  0  0  0  0  0
  126.2528  135.0749  158.3228 C   0  0  0  0  0  0  0  0  0  0  0  0
  127.3126  134.7651  159.1765 C   0  0  0  0  0  0  0  0  0  0  0  0
  127.0692  133.9820  160.4108 C   0  0  0  0  0  0  0  0  0  0  0  0
  127.1799  132.6594  160.3291 C   0  0  0  0  0  0  0  0  0  0  0  0
  126.9147  131.7822  161.5079 C   0  0  0  0  0  0  0  0  0  0  0  0
  125.4613  131.4463  161.7256 C   0  0  0  0  0  0  0  0  0  0  0  0
  124.5064  132.3940  161.0954 C   0  0  0  0  0  0  0  0  0  0  0  0
  124.5330  133.6708  161.3834 C   0  0  0  0  0  0  0  0  0  0  0  0
  125.5184  134.2082  162.3833 C   0  0  0  0  0  0  0  0  0  0  0  0
  126.7399  134.7342  161.6485 C   0  0  0  0  0  0  0  0  0  0  0  0
  131.8838  135.6185  160.5906 C   0  0  0  0  0  0  0  0  0  0  0  0
  132.9479  136.7131  160.4840 C   0  0  0  0  0  0  0  0  0  0  0  0
  133.4341  138.6827  163.8118 H   0  0  0  0  0  0  0  0  0  0  0  0
  132.7962  140.3438  163.8553 H   0  0  0  0  0  0  0  0  0  0  0  0
  131.8795  139.0597  163.0312 H   0  0  0  0  0  0  0  0  0  0  0  0
  134.7740  141.3108  162.8289 H   0  0  0  0  0  0  0  0  0  0  0  0
  135.9455  141.8258  160.7271 H   0  0  0  0  0  0  0  0  0  0  0  0
  135.4353  140.5519  158.6839 H   0  0  0  0  0  0  0  0  0  0  0  0
  133.7511  138.7586  158.7375 H   0  0  0  0  0  0  0  0  0  0  0  0
  131.5574  138.4013  158.9492 H   0  0  0  0  0  0  0  0  0  0  0  0
  130.7768  139.2749  160.2898 H   0  0  0  0  0  0  0  0  0  0  0  0
  129.3262  137.4462  159.4357 H   0  0  0  0  0  0  0  0  0  0  0  0
  129.8143  137.1522  161.1219 H   0  0  0  0  0  0  0  0  0  0  0  0
  129.8549  133.7888  157.3143 H   0  0  0  0  0  0  0  0  0  0  0  0
  130.8642  131.6438  156.6483 H   0  0  0  0  0  0  0  0  0  0  0  0
  131.9242  130.2037  158.3411 H   0  0  0  0  0  0  0  0  0  0  0  0
  131.9845  130.9136  160.6982 H   0  0  0  0  0  0  0  0  0  0  0  0
  130.9843  133.0634  161.3624 H   0  0  0  0  0  0  0  0  0  0  0  0
  129.8196  136.2583  157.4677 H   0  0  0  0  0  0  0  0  0  0  0  0
  127.9463  136.7896  155.9648 H   0  0  0  0  0  0  0  0  0  0  0  0
  125.6688  136.0349  156.5081 H   0  0  0  0  0  0  0  0  0  0  0  0
  125.2525  134.7442  158.5600 H   0  0  0  0  0  0  0  0  0  0  0  0
  127.4582  132.2083  159.3811 H   0  0  0  0  0  0  0  0  0  0  0  0
  127.4683  130.8495  161.3810 H   0  0  0  0  0  0  0  0  0  0  0  0
  127.2942  132.2757  162.4036 H   0  0  0  0  0  0  0  0  0  0  0  0
  125.2726  130.4513  161.3218 H   0  0  0  0  0  0  0  0  0  0  0  0
  125.2678  131.4202  162.7976 H   0  0  0  0  0  0  0  0  0  0  0  0
  123.7787  132.0242  160.3891 H   0  0  0  0  0  0  0  0  0  0  0  0
  123.8308  134.3398  160.9060 H   0  0  0  0  0  0  0  0  0  0  0  0
  125.0554  135.0210  162.9496 H   0  0  0  0  0  0  0  0  0  0  0  0
  125.8128  133.4212  163.0783 H   0  0  0  0  0  0  0  0  0  0  0  0
  127.5995  134.6929  162.3222 H   0  0  0  0  0  0  0  0  0  0  0  0
  126.5686  135.7806  161.3837 H   0  0  0  0  0  0  0  0  0  0  0  0
  131.5235  135.5609  161.6178 H   0  0  0  0  0  0  0  0  0  0  0  0
  132.3178  134.6607  160.3036 H   0  0  0  0  0  0  0  0  0  0  0  0
  133.3182  136.7619  159.4601 H   0  0  0  0  0  0  0  0  0  0  0  0
  133.7731  136.4855  161.1587 H   0  0  0  0  0  0  0  0  0  0  0  0
  1  2  1  0
  1 37  1  0
  1 38  1  0
  1 39  1  0
  2  7  2  0
  2  3  1  0
  3  4  2  0
  3 40  1  0
  4  5  1  0
  4 41  1  0
  5  6  2  0
  5 42  1  0
  6  7  1  0
  6 43  1  0
  7  8  1  0
  8 36  1  0
  8  9  1  0
  9 10  1  0
  9 44  1  0
  9 45  1  0
 10 11  1  0
 10 46  1  0
 10 47  1  0
 11 12  1  0
 11 13  1  0
 11 35  1  0
 13 14  1  1
 13 15  1  0
 13 21  1  0
 15 20  1  0
 15 16  2  0
 16 17  1  0
 16 48  1  0
 17 18  2  0
 17 49  1  0
 18 19  1  0
 18 50  1  0
 19 20  2  0
 19 51  1  0
 20 52  1  0
 21 26  1  0
 21 22  2  0
 22 23  1  0
 22 53  1  0
 23 24  2  0
 23 54  1  0
 24 25  1  0
 24 55  1  0
 25 26  2  0
 25 56  1  0
 26 27  1  0
 27 34  1  0
 27 28  2  0
 28 29  1  0
 28 57  1  0
 29 30  1  0
 29 58  1  0
 29 59  1  0
 30 31  1  0
 30 60  1  0
 30 61  1  0
 31 32  2  0
 31 62  1  0
 32 33  1  0
 32 63  1  0
 33 34  1  0
 33 64  1  0
 33 65  1  0
 34 66  1  0
 34 67  1  0
 35 36  1  0
 35 68  1  0
 35 69  1  0
 36 70  1  0
 36 71  1  0
M  CHG  1  11   1
M  END
>  <DOCK_score>  (1) 
-60.782181

>  <SMILES>  (1) 
Cc1ccccc1N1CC[NH+]([C@H](c2ccccc2)c2ccccc2/C2=C/CC/C=C\CC2)CC1

$$$$
