OCC[C@H](Nc1[nH]cc(-c2ccccc2)[nH+]1)c1ccccc1
     RDKit          3D

 42 44  0  0  1  0  0  0  0  0999 V2000
  129.1608  135.8369  162.0656 O   0  0  0  0  0  0  0  0  0  0  0  0
  128.8664  136.8879  161.1433 C   0  0  0  0  0  0  0  0  0  0  0  0
  129.6409  136.6581  159.8440 C   0  0  0  0  0  0  0  0  0  0  0  0
  129.2295  135.3156  159.2359 C   0  0  2  0  0  0  0  0  0  0  0  0
  129.1146  134.5774  160.0293 H   0  0  0  0  0  0  0  0  0  0  0  0
  130.2618  134.8677  158.2978 N   0  0  0  0  0  0  0  0  0  0  0  0
  130.1089  133.6701  157.6206 C   0  0  0  0  0  0  0  0  0  0  0  0
  129.4342  132.5807  158.0791 N   0  0  0  0  0  0  0  0  0  0  0  0
  128.9778  132.5044  158.9316 H   0  0  0  0  0  0  0  0  0  0  0  0
  129.5187  131.6091  157.1117 C   0  0  0  0  0  0  0  0  0  0  0  0
  130.2419  132.1321  156.0907 C   0  0  0  0  0  0  0  0  0  0  0  0
  130.5909  131.4420  154.8249 C   0  0  0  0  0  0  0  0  0  0  0  0
  130.1676  131.9641  153.6039 C   0  0  0  0  0  0  0  0  0  0  0  0
  130.5011  131.3214  152.4289 C   0  0  0  0  0  0  0  0  0  0  0  0
  131.2426  130.1536  152.4627 C   0  0  0  0  0  0  0  0  0  0  0  0
  131.6604  129.6282  153.6718 C   0  0  0  0  0  0  0  0  0  0  0  0
  131.3385  130.2660  154.8525 C   0  0  0  0  0  0  0  0  0  0  0  0
  130.5853  133.4002  156.4298 N   0  0  0  0  0  0  0  0  0  0  0  0
  131.1030  134.0089  155.8798 H   0  0  0  0  0  0  0  0  0  0  0  0
  127.9214  135.4752  158.5048 C   0  0  0  0  0  0  0  0  0  0  0  0
  126.7277  135.2705  159.1712 C   0  0  0  0  0  0  0  0  0  0  0  0
  125.5278  135.4207  158.5017 C   0  0  0  0  0  0  0  0  0  0  0  0
  125.5216  135.7676  157.1636 C   0  0  0  0  0  0  0  0  0  0  0  0
  126.7154  135.9673  156.4958 C   0  0  0  0  0  0  0  0  0  0  0  0
  127.9153  135.8209  157.1664 C   0  0  0  0  0  0  0  0  0  0  0  0
  130.0967  135.7693  162.2996 H   0  0  0  0  0  0  0  0  0  0  0  0
  127.7971  136.8972  160.9321 H   0  0  0  0  0  0  0  0  0  0  0  0
  129.1595  137.8442  161.5767 H   0  0  0  0  0  0  0  0  0  0  0  0
  129.4164  137.4597  159.1404 H   0  0  0  0  0  0  0  0  0  0  0  0
  130.7101  136.6489  160.0552 H   0  0  0  0  0  0  0  0  0  0  0  0
  131.0523  135.4103  158.1512 H   0  0  0  0  0  0  0  0  0  0  0  0
  129.0912  130.6183  157.1558 H   0  0  0  0  0  0  0  0  0  0  0  0
  129.5842  132.8724  153.5770 H   0  0  0  0  0  0  0  0  0  0  0  0
  130.1781  131.7278  151.4819 H   0  0  0  0  0  0  0  0  0  0  0  0
  131.4974  129.6520  151.5408 H   0  0  0  0  0  0  0  0  0  0  0  0
  132.2397  128.7170  153.6920 H   0  0  0  0  0  0  0  0  0  0  0  0
  131.6657  129.8549  155.7962 H   0  0  0  0  0  0  0  0  0  0  0  0
  126.7326  134.9961  160.2159 H   0  0  0  0  0  0  0  0  0  0  0  0
  124.5950  135.2643  159.0233 H   0  0  0  0  0  0  0  0  0  0  0  0
  124.5841  135.8824  156.6398 H   0  0  0  0  0  0  0  0  0  0  0  0
  126.7105  136.2380  155.4503 H   0  0  0  0  0  0  0  0  0  0  0  0
  128.8480  135.9768  156.6447 H   0  0  0  0  0  0  0  0  0  0  0  0
  1  2  1  0
  1 26  1  0
  2  3  1  0
  2 27  1  0
  2 28  1  0
  3  4  1  0
  3 29  1  0
  3 30  1  0
  4  5  1  1
  4  6  1  0
  4 20  1  0
  6 31  1  0
  7  6  1  0
  7 18  2  0
  7  8  1  0
  8  9  1  0
  8 10  1  0
 10 11  2  0
 10 32  1  0
 11 12  1  0
 11 18  1  0
 12 17  1  0
 12 13  2  0
 13 14  1  0
 13 33  1  0
 14 15  2  0
 14 34  1  0
 15 16  1  0
 15 35  1  0
 16 17  2  0
 16 36  1  0
 17 37  1  0
 18 19  1  0
 20 25  1  0
 20 21  2  0
 21 22  1  0
 21 38  1  0
 22 23  2  0
 22 39  1  0
 23 24  1  0
 23 40  1  0
 24 25  2  0
 24 41  1  0
 25 42  1  0
M  CHG  1  18   1
M  END
>  <DOCK_score>  (1) 
-56.91066

>  <SMILES>  (1) 
OCC[C@H](Nc1[nH]cc(-c2ccccc2)[nH+]1)c1ccccc1

$$$$
