C1=CCC(c2ccc(-c3c[nH]c(N[C@H](c4ccccc4)C4CCCC4)[nH+]3)cc2)=CC1
     RDKit          3D

 60 64  0  0  1  0  0  0  0  0999 V2000
  130.6301  128.7592  150.3234 C   0  0  0  0  0  0  0  0  0  0  0  0
  130.5754  130.0555  150.3277 C   0  0  0  0  0  0  0  0  0  0  0  0
  130.1984  130.8536  151.5391 C   0  0  0  0  0  0  0  0  0  0  0  0
  130.3631  130.0472  152.7926 C   0  0  0  0  0  0  0  0  0  0  0  0
  130.4677  130.7576  154.0833 C   0  0  0  0  0  0  0  0  0  0  0  0
  131.2086  130.2011  155.1286 C   0  0  0  0  0  0  0  0  0  0  0  0
  131.3059  130.8635  156.3316 C   0  0  0  0  0  0  0  0  0  0  0  0
  130.6647  132.0903  156.5068 C   0  0  0  0  0  0  0  0  0  0  0  0
  130.7700  132.8029  157.8022 C   0  0  0  0  0  0  0  0  0  0  0  0
  130.3640  132.3317  159.0082 C   0  0  0  0  0  0  0  0  0  0  0  0
  130.6471  133.3071  159.9328 N   0  0  0  0  0  0  0  0  0  0  0  0
  130.4718  133.2634  160.8858 H   0  0  0  0  0  0  0  0  0  0  0  0
  131.2180  134.3466  159.2651 C   0  0  0  0  0  0  0  0  0  0  0  0
  131.6511  135.5310  159.8361 N   0  0  0  0  0  0  0  0  0  0  0  0
  131.5099  135.7433  161.2786 C   0  0  2  0  0  0  0  0  0  0  0  0
  132.0652  134.9738  161.8152 H   0  0  0  0  0  0  0  0  0  0  0  0
  130.0533  135.6678  161.6574 C   0  0  0  0  0  0  0  0  0  0  0  0
  129.6878  135.2167  162.9120 C   0  0  0  0  0  0  0  0  0  0  0  0
  128.3518  135.1516  163.2608 C   0  0  0  0  0  0  0  0  0  0  0  0
  127.3809  135.5289  162.3521 C   0  0  0  0  0  0  0  0  0  0  0  0
  127.7461  135.9751  161.0958 C   0  0  0  0  0  0  0  0  0  0  0  0
  129.0823  136.0443  160.7483 C   0  0  0  0  0  0  0  0  0  0  0  0
  132.0621  137.1216  161.6478 C   0  0  0  0  0  0  0  0  0  0  0  0
  131.3327  138.2162  160.8418 C   0  0  0  0  0  0  0  0  0  0  0  0
  132.4384  139.2525  160.5215 C   0  0  0  0  0  0  0  0  0  0  0  0
  133.6729  138.3596  160.2421 C   0  0  0  0  0  0  0  0  0  0  0  0
  133.5500  137.2128  161.2664 C   0  0  0  0  0  0  0  0  0  0  0  0
  131.2899  134.0419  157.9924 N   0  0  0  0  0  0  0  0  0  0  0  0
  131.6561  134.6109  157.2975 H   0  0  0  0  0  0  0  0  0  0  0  0
  129.9197  132.6440  155.4650 C   0  0  0  0  0  0  0  0  0  0  0  0
  129.8255  131.9850  154.2599 C   0  0  0  0  0  0  0  0  0  0  0  0
  130.4233  128.7332  152.7876 C   0  0  0  0  0  0  0  0  0  0  0  0
  130.3219  127.9242  151.5293 C   0  0  0  0  0  0  0  0  0  0  0  0
  130.9109  128.2587  149.4085 H   0  0  0  0  0  0  0  0  0  0  0  0
  130.8121  130.5840  149.4161 H   0  0  0  0  0  0  0  0  0  0  0  0
  129.1585  131.1680  151.4504 H   0  0  0  0  0  0  0  0  0  0  0  0
  130.8348  131.7367  151.5962 H   0  0  0  0  0  0  0  0  0  0  0  0
  131.7049  129.2515  154.9932 H   0  0  0  0  0  0  0  0  0  0  0  0
  131.8791  130.4337  157.1399 H   0  0  0  0  0  0  0  0  0  0  0  0
  129.9096  131.3718  159.2042 H   0  0  0  0  0  0  0  0  0  0  0  0
  132.0481  136.2203  159.2810 H   0  0  0  0  0  0  0  0  0  0  0  0
  130.4462  134.9182  163.6205 H   0  0  0  0  0  0  0  0  0  0  0  0
  128.0665  134.8032  164.2426 H   0  0  0  0  0  0  0  0  0  0  0  0
  126.3370  135.4754  162.6238 H   0  0  0  0  0  0  0  0  0  0  0  0
  126.9876  136.2700  160.3858 H   0  0  0  0  0  0  0  0  0  0  0  0
  129.3676  136.3929  159.7667 H   0  0  0  0  0  0  0  0  0  0  0  0
  131.9389  137.2989  162.7163 H   0  0  0  0  0  0  0  0  0  0  0  0
  130.9202  137.8017  159.9220 H   0  0  0  0  0  0  0  0  0  0  0  0
  130.5456  138.6718  161.4428 H   0  0  0  0  0  0  0  0  0  0  0  0
  132.6180  139.9029  161.3775 H   0  0  0  0  0  0  0  0  0  0  0  0
  132.1765  139.8366  159.6393 H   0  0  0  0  0  0  0  0  0  0  0  0
  134.5936  138.9198  160.4050 H   0  0  0  0  0  0  0  0  0  0  0  0
  133.6407  137.9681  159.2253 H   0  0  0  0  0  0  0  0  0  0  0  0
  134.1489  137.4352  162.1495 H   0  0  0  0  0  0  0  0  0  0  0  0
  133.8787  136.2751  160.8184 H   0  0  0  0  0  0  0  0  0  0  0  0
  129.4201  133.5915  155.6029 H   0  0  0  0  0  0  0  0  0  0  0  0
  129.2522  132.4158  153.4521 H   0  0  0  0  0  0  0  0  0  0  0  0
  130.5469  128.2163  153.7278 H   0  0  0  0  0  0  0  0  0  0  0  0
  129.3121  127.5242  151.4382 H   0  0  0  0  0  0  0  0  0  0  0  0
  131.0303  127.0974  151.5817 H   0  0  0  0  0  0  0  0  0  0  0  0
  1 33  1  0
  1  2  2  0
  1 34  1  0
  2  3  1  0
  2 35  1  0
  3  4  1  0
  3 36  1  0
  3 37  1  0
  4  5  1  0
  4 32  2  0
  5 31  1  0
  5  6  2  0
  6  7  1  0
  6 38  1  0
  7  8  2  0
  7 39  1  0
  8  9  1  0
  8 30  1  0
  9 28  1  0
  9 10  2  0
 10 11  1  0
 10 40  1  0
 11 12  1  0
 11 13  1  0
 13 14  1  0
 13 28  2  0
 14 15  1  0
 14 41  1  0
 15 16  1  1
 15 17  1  0
 15 23  1  0
 17 22  1  0
 17 18  2  0
 18 19  1  0
 18 42  1  0
 19 20  2  0
 19 43  1  0
 20 21  1  0
 20 44  1  0
 21 22  2  0
 21 45  1  0
 22 46  1  0
 23 27  1  0
 23 24  1  0
 23 47  1  0
 24 25  1  0
 24 48  1  0
 24 49  1  0
 25 26  1  0
 25 50  1  0
 25 51  1  0
 26 27  1  0
 26 52  1  0
 26 53  1  0
 27 54  1  0
 27 55  1  0
 28 29  1  0
 30 31  2  0
 30 56  1  0
 31 57  1  0
 32 33  1  0
 32 58  1  0
 33 59  1  0
 33 60  1  0
M  CHG  1  28   1
M  END
>  <DOCK_score>  (1) 
-59.769684

>  <SMILES>  (1) 
C1=CCC(c2ccc(-c3c[nH]c(N[C@H](c4ccccc4)C4CCCC4)[nH+]3)cc2)=CC1

$$$$
