CCc1ccc(-c2c[nH]c(N[C@@H](C3=CCOCC3)c3cccc4ccccc34)[nH+]2)cc1
     RDKit          3D

 59 63  0  0  1  0  0  0  0  0999 V2000
  130.3460  129.1587  151.6683 C   0  0  0  0  0  0  0  0  0  0  0  0
  131.6073  129.6980  152.3459 C   0  0  0  0  0  0  0  0  0  0  0  0
  131.2213  130.4838  153.5725 C   0  0  0  0  0  0  0  0  0  0  0  0
  131.1164  129.8464  154.7951 C   0  0  0  0  0  0  0  0  0  0  0  0
  130.7691  130.5626  155.9224 C   0  0  0  0  0  0  0  0  0  0  0  0
  130.5133  131.9293  155.8252 C   0  0  0  0  0  0  0  0  0  0  0  0
  130.1342  132.7035  157.0323 C   0  0  0  0  0  0  0  0  0  0  0  0
  129.4672  132.2238  158.1111 C   0  0  0  0  0  0  0  0  0  0  0  0
  129.3262  133.2699  158.9902 N   0  0  0  0  0  0  0  0  0  0  0  0
  128.8901  133.2379  159.8560 H   0  0  0  0  0  0  0  0  0  0  0  0
  129.9117  134.3593  158.4223 C   0  0  0  0  0  0  0  0  0  0  0  0
  129.9863  135.6210  158.9871 N   0  0  0  0  0  0  0  0  0  0  0  0
  129.4031  135.8678  160.3082 C   0  0  1  0  0  0  0  0  0  0  0  0
  128.3345  135.6550  160.2792 H   0  0  0  0  0  0  0  0  0  0  0  0
  130.0659  134.9744  161.3247 C   0  0  0  0  0  0  0  0  0  0  0  0
  129.3329  134.1286  161.9861 C   0  0  0  0  0  0  0  0  0  0  0  0
  129.8950  133.2012  163.0256 C   0  0  0  0  0  0  0  0  0  0  0  0
  131.3175  133.1334  162.9069 O   0  0  0  0  0  0  0  0  0  0  0  0
  131.9377  134.4243  162.8562 C   0  0  0  0  0  0  0  0  0  0  0  0
  131.5509  135.0908  161.5310 C   0  0  0  0  0  0  0  0  0  0  0  0
  129.6179  137.3095  160.6908 C   0  0  0  0  0  0  0  0  0  0  0  0
  130.7087  137.9834  160.2338 C   0  0  0  0  0  0  0  0  0  0  0  0
  130.9206  139.3186  160.5714 C   0  0  0  0  0  0  0  0  0  0  0  0
  130.0493  139.9842  161.3781 C   0  0  0  0  0  0  0  0  0  0  0  0
  128.9151  139.3199  161.8743 C   0  0  0  0  0  0  0  0  0  0  0  0
  127.9933  139.9740  162.7096 C   0  0  0  0  0  0  0  0  0  0  0  0
  126.9061  139.2983  163.1719 C   0  0  0  0  0  0  0  0  0  0  0  0
  126.6911  137.9645  162.8294 C   0  0  0  0  0  0  0  0  0  0  0  0
  127.5619  137.2990  162.0224 C   0  0  0  0  0  0  0  0  0  0  0  0
  128.6961  137.9635  161.5255 C   0  0  0  0  0  0  0  0  0  0  0  0
  130.3986  134.0155  157.2550 N   0  0  0  0  0  0  0  0  0  0  0  0
  130.8702  134.6054  156.6464 H   0  0  0  0  0  0  0  0  0  0  0  0
  130.6154  132.5658  154.5894 C   0  0  0  0  0  0  0  0  0  0  0  0
  130.9689  131.8407  153.4698 C   0  0  0  0  0  0  0  0  0  0  0  0
  129.7044  129.9912  151.3794 H   0  0  0  0  0  0  0  0  0  0  0  0
  130.6249  128.5898  150.7815 H   0  0  0  0  0  0  0  0  0  0  0  0
  129.8100  128.5107  152.3619 H   0  0  0  0  0  0  0  0  0  0  0  0
  132.2488  128.8656  152.6349 H   0  0  0  0  0  0  0  0  0  0  0  0
  132.1434  130.3461  151.6523 H   0  0  0  0  0  0  0  0  0  0  0  0
  131.3102  128.7864  154.8683 H   0  0  0  0  0  0  0  0  0  0  0  0
  130.6918  130.0642  156.8775 H   0  0  0  0  0  0  0  0  0  0  0  0
  129.1142  131.2129  158.2520 H   0  0  0  0  0  0  0  0  0  0  0  0
  130.4245  136.3417  158.5081 H   0  0  0  0  0  0  0  0  0  0  0  0
  128.2735  134.0916  161.7795 H   0  0  0  0  0  0  0  0  0  0  0  0
  129.6323  133.5686  164.0177 H   0  0  0  0  0  0  0  0  0  0  0  0
  129.4731  132.2055  162.8877 H   0  0  0  0  0  0  0  0  0  0  0  0
  131.5900  135.0317  163.6918 H   0  0  0  0  0  0  0  0  0  0  0  0
  133.0207  134.3136  162.9084 H   0  0  0  0  0  0  0  0  0  0  0  0
  132.0712  134.5997  160.7087 H   0  0  0  0  0  0  0  0  0  0  0  0
  131.8318  136.1436  161.5607 H   0  0  0  0  0  0  0  0  0  0  0  0
  131.4181  137.4770  159.5959 H   0  0  0  0  0  0  0  0  0  0  0  0
  131.7916  139.8316  160.1912 H   0  0  0  0  0  0  0  0  0  0  0  0
  130.2288  141.0177  161.6353 H   0  0  0  0  0  0  0  0  0  0  0  0
  128.1468  141.0074  162.9831 H   0  0  0  0  0  0  0  0  0  0  0  0
  126.1996  139.8031  163.8140 H   0  0  0  0  0  0  0  0  0  0  0  0
  125.8202  137.4513  163.2099 H   0  0  0  0  0  0  0  0  0  0  0  0
  127.3818  136.2657  161.7650 H   0  0  0  0  0  0  0  0  0  0  0  0
  130.4180  133.6245  154.5083 H   0  0  0  0  0  0  0  0  0  0  0  0
  131.0488  132.3329  152.5118 H   0  0  0  0  0  0  0  0  0  0  0  0
  1  2  1  0
  1 35  1  0
  1 36  1  0
  1 37  1  0
  2  3  1  0
  2 38  1  0
  2 39  1  0
  3 34  2  0
  3  4  1  0
  4  5  2  0
  4 40  1  0
  5  6  1  0
  5 41  1  0
  6  7  1  0
  6 33  2  0
  7 31  1  0
  7  8  2  0
  8  9  1  0
  8 42  1  0
  9 10  1  0
  9 11  1  0
 11 12  1  0
 11 31  2  0
 12 13  1  0
 12 43  1  0
 13 14  1  6
 13 15  1  0
 13 21  1  0
 15 20  1  0
 15 16  2  0
 16 17  1  0
 16 44  1  0
 17 18  1  0
 17 45  1  0
 17 46  1  0
 18 19  1  0
 19 20  1  0
 19 47  1  0
 19 48  1  0
 20 49  1  0
 20 50  1  0
 21 30  1  0
 21 22  2  0
 22 23  1  0
 22 51  1  0
 23 24  2  0
 23 52  1  0
 24 25  1  0
 24 53  1  0
 25 30  2  0
 25 26  1  0
 26 27  2  0
 26 54  1  0
 27 28  1  0
 27 55  1  0
 28 29  2  0
 28 56  1  0
 29 30  1  0
 29 57  1  0
 31 32  1  0
 33 34  1  0
 33 58  1  0
 34 59  1  0
M  CHG  1  31   1
M  END
>  <DOCK_score>  (1) 
-59.385487

>  <SMILES>  (1) 
CCc1ccc(-c2c[nH]c(N[C@@H](C3=CCOCC3)c3cccc4ccccc34)[nH+]2)cc1

$$$$
