CCc1ccccc1NC(=O)N(c1ccccc1Nc1[nH]c2ccccc2[nH+]1)C1CC1
     RDKit          3D

 57 61  0  0  0  0  0  0  0  0999 V2000
  135.2515  139.5154  163.8370 C   0  0  0  0  0  0  0  0  0  0  0  0
  135.9217  138.4221  163.0024 C   0  0  0  0  0  0  0  0  0  0  0  0
  135.6534  138.6706  161.5404 C   0  0  0  0  0  0  0  0  0  0  0  0
  136.5209  139.4507  160.8011 C   0  0  0  0  0  0  0  0  0  0  0  0
  136.2753  139.6790  159.4597 C   0  0  0  0  0  0  0  0  0  0  0  0
  135.1612  139.1271  158.8539 C   0  0  0  0  0  0  0  0  0  0  0  0
  134.2903  138.3458  159.5875 C   0  0  0  0  0  0  0  0  0  0  0  0
  134.5311  138.1194  160.9365 C   0  0  0  0  0  0  0  0  0  0  0  0
  133.6477  137.3325  161.6839 N   0  0  0  0  0  0  0  0  0  0  0  0
  132.3398  137.2953  161.3606 C   0  0  0  0  0  0  0  0  0  0  0  0
  131.9275  137.9453  160.4194 O   0  0  0  0  0  0  0  0  0  0  0  0
  131.4890  136.5376  162.0805 N   0  0  0  0  0  0  0  0  0  0  0  0
  130.1290  136.4987  161.7442 C   0  0  0  0  0  0  0  0  0  0  0  0
  129.1737  136.9084  162.6622 C   0  0  0  0  0  0  0  0  0  0  0  0
  127.8330  136.8697  162.3282 C   0  0  0  0  0  0  0  0  0  0  0  0
  127.4396  136.4222  161.0802 C   0  0  0  0  0  0  0  0  0  0  0  0
  128.3848  136.0110  160.1596 C   0  0  0  0  0  0  0  0  0  0  0  0
  129.7330  136.0533  160.4837 C   0  0  0  0  0  0  0  0  0  0  0  0
  130.6929  135.6435  159.5499 N   0  0  0  0  0  0  0  0  0  0  0  0
  130.6707  134.3583  159.0592 C   0  0  0  0  0  0  0  0  0  0  0  0
  131.0834  133.9980  157.8457 N   0  0  0  0  0  0  0  0  0  0  0  0
  131.4451  134.5926  157.1702 H   0  0  0  0  0  0  0  0  0  0  0  0
  130.9134  132.6452  157.7141 C   0  0  0  0  0  0  0  0  0  0  0  0
  131.1660  131.7382  156.6888 C   0  0  0  0  0  0  0  0  0  0  0  0
  130.8712  130.4038  156.8667 C   0  0  0  0  0  0  0  0  0  0  0  0
  130.3240  129.9574  158.0608 C   0  0  0  0  0  0  0  0  0  0  0  0
  130.0681  130.8417  159.0861 C   0  0  0  0  0  0  0  0  0  0  0  0
  130.3600  132.1931  158.9232 C   0  0  0  0  0  0  0  0  0  0  0  0
  130.2281  133.2946  159.7268 N   0  0  0  0  0  0  0  0  0  0  0  0
  129.8721  133.2991  160.6290 H   0  0  0  0  0  0  0  0  0  0  0  0
  131.9857  135.7542  163.2143 C   0  0  0  0  0  0  0  0  0  0  0  0
  133.1920  134.8451  162.9705 C   0  0  0  0  0  0  0  0  0  0  0  0
  131.8010  134.2364  163.1595 C   0  0  0  0  0  0  0  0  0  0  0  0
  134.1765  139.5018  163.6575 H   0  0  0  0  0  0  0  0  0  0  0  0
  135.4456  139.3357  164.8943 H   0  0  0  0  0  0  0  0  0  0  0  0
  135.6548  140.4875  163.5535 H   0  0  0  0  0  0  0  0  0  0  0  0
  135.5184  137.4499  163.2859 H   0  0  0  0  0  0  0  0  0  0  0  0
  136.9968  138.4358  163.1819 H   0  0  0  0  0  0  0  0  0  0  0  0
  137.3917  139.8830  161.2712 H   0  0  0  0  0  0  0  0  0  0  0  0
  136.9551  140.2893  158.8838 H   0  0  0  0  0  0  0  0  0  0  0  0
  134.9724  139.3069  157.8059 H   0  0  0  0  0  0  0  0  0  0  0  0
  133.4205  137.9152  159.1138 H   0  0  0  0  0  0  0  0  0  0  0  0
  133.9766  136.8139  162.4347 H   0  0  0  0  0  0  0  0  0  0  0  0
  129.4773  137.2582  163.6378 H   0  0  0  0  0  0  0  0  0  0  0  0
  127.0904  137.1896  163.0443 H   0  0  0  0  0  0  0  0  0  0  0  0
  126.3908  136.3935  160.8245 H   0  0  0  0  0  0  0  0  0  0  0  0
  128.0741  135.6617  159.1860 H   0  0  0  0  0  0  0  0  0  0  0  0
  131.3734  136.2658  159.2490 H   0  0  0  0  0  0  0  0  0  0  0  0
  131.5921  132.0791  155.7569 H   0  0  0  0  0  0  0  0  0  0  0  0
  131.0677  129.7005  156.0710 H   0  0  0  0  0  0  0  0  0  0  0  0
  130.0974  128.9091  158.1879 H   0  0  0  0  0  0  0  0  0  0  0  0
  129.6428  130.4875  160.0134 H   0  0  0  0  0  0  0  0  0  0  0  0
  131.9070  136.2359  164.1890 H   0  0  0  0  0  0  0  0  0  0  0  0
  133.6158  134.8299  161.9665 H   0  0  0  0  0  0  0  0  0  0  0  0
  133.9072  134.7286  163.7847 H   0  0  0  0  0  0  0  0  0  0  0  0
  131.6011  133.7195  164.0980 H   0  0  0  0  0  0  0  0  0  0  0  0
  131.3098  133.8207  162.2797 H   0  0  0  0  0  0  0  0  0  0  0  0
  1  2  1  0
  1 34  1  0
  1 35  1  0
  1 36  1  0
  2  3  1  0
  2 37  1  0
  2 38  1  0
  3  8  2  0
  3  4  1  0
  4  5  2  0
  4 39  1  0
  5  6  1  0
  5 40  1  0
  6  7  2  0
  6 41  1  0
  7  8  1  0
  7 42  1  0
  8  9  1  0
  9 10  1  0
  9 43  1  0
 10 11  2  0
 10 12  1  0
 12 13  1  0
 12 31  1  0
 13 18  1  0
 13 14  2  0
 14 15  1  0
 14 44  1  0
 15 16  2  0
 15 45  1  0
 16 17  1  0
 16 46  1  0
 17 18  2  0
 17 47  1  0
 18 19  1  0
 19 20  1  0
 19 48  1  0
 20 29  1  0
 20 21  2  0
 21 22  1  0
 21 23  1  0
 23 28  2  0
 23 24  1  0
 24 25  2  0
 24 49  1  0
 25 26  1  0
 25 50  1  0
 26 27  2  0
 26 51  1  0
 27 28  1  0
 27 52  1  0
 28 29  1  0
 29 30  1  0
 31 33  1  0
 31 32  1  0
 31 53  1  0
 32 33  1  0
 32 54  1  0
 32 55  1  0
 33 56  1  0
 33 57  1  0
M  CHG  1  21   1
M  END
>  <DOCK_score>  (1) 
-56.990818

>  <SMILES>  (1) 
CCc1ccccc1NC(=O)N(c1ccccc1Nc1[nH]c2ccccc2[nH+]1)C1CC1

$$$$
