Cn1nccc1[C@H](C=Cc1nc(-c2ccccc2)c[nH]1)Nc1[nH]cc(-c2ccc(N)cc2)[nH+]1
     RDKit          3D

 58 62  0  0  1  0  0  0  0  0999 V2000
  127.5032  134.6744  162.2321 C   0  0  0  0  0  0  0  0  0  0  0  0
  127.2022  135.1007  160.8632 N   0  0  0  0  0  0  0  0  0  0  0  0
  125.9282  135.1814  160.2865 N   0  0  0  0  0  0  0  0  0  0  0  0
  126.0629  135.6006  159.0544 C   0  0  0  0  0  0  0  0  0  0  0  0
  127.4247  135.8048  158.8089 C   0  0  0  0  0  0  0  0  0  0  0  0
  128.1033  135.4855  159.9353 C   0  0  0  0  0  0  0  0  0  0  0  0
  129.5971  135.5537  160.1220 C   0  0  2  0  0  0  0  0  0  0  0  0
  129.9078  134.7990  160.8446 H   0  0  0  0  0  0  0  0  0  0  0  0
  129.9782  136.9210  160.6282 C   0  0  0  0  0  0  0  0  0  0  0  0
  131.0458  137.0679  161.4061 C   0  0  0  0  0  0  0  0  0  0  0  0
  131.4179  138.4037  161.9007 C   0  0  0  0  0  0  0  0  0  0  0  0
  132.0251  138.6591  163.0387 N   0  0  0  0  0  0  0  0  0  0  0  0
  132.2052  139.9868  163.1545 C   0  0  0  0  0  0  0  0  0  0  0  0
  132.8553  140.6816  164.2931 C   0  0  0  0  0  0  0  0  0  0  0  0
  132.1471  141.6275  165.0317 C   0  0  0  0  0  0  0  0  0  0  0  0
  132.7552  142.2672  166.0926 C   0  0  0  0  0  0  0  0  0  0  0  0
  134.0685  141.9783  166.4171 C   0  0  0  0  0  0  0  0  0  0  0  0
  134.7781  141.0444  165.6838 C   0  0  0  0  0  0  0  0  0  0  0  0
  134.1783  140.3948  164.6241 C   0  0  0  0  0  0  0  0  0  0  0  0
  131.6818  140.5826  162.0487 C   0  0  0  0  0  0  0  0  0  0  0  0
  131.1849  139.5862  161.2568 N   0  0  0  0  0  0  0  0  0  0  0  0
  130.7482  139.6974  160.3978 H   0  0  0  0  0  0  0  0  0  0  0  0
  130.2614  135.3051  158.8401 N   0  0  0  0  0  0  0  0  0  0  0  0
  130.0615  134.1057  158.1781 C   0  0  0  0  0  0  0  0  0  0  0  0
  129.2765  133.0824  158.6117 N   0  0  0  0  0  0  0  0  0  0  0  0
  128.7601  133.0622  159.4326 H   0  0  0  0  0  0  0  0  0  0  0  0
  129.3501  132.0824  157.6711 C   0  0  0  0  0  0  0  0  0  0  0  0
  130.1773  132.5240  156.6916 C   0  0  0  0  0  0  0  0  0  0  0  0
  130.5556  131.7783  155.4662 C   0  0  0  0  0  0  0  0  0  0  0  0
  130.2548  132.3017  154.2097 C   0  0  0  0  0  0  0  0  0  0  0  0
  130.6126  131.6095  153.0721 C   0  0  0  0  0  0  0  0  0  0  0  0
  131.2620  130.3854  153.1775 C   0  0  0  0  0  0  0  0  0  0  0  0
  131.6179  129.6831  152.0235 N   0  0  0  0  0  0  0  0  0  0  0  0
  131.5583  129.8590  154.4294 C   0  0  0  0  0  0  0  0  0  0  0  0
  131.2075  130.5503  155.5697 C   0  0  0  0  0  0  0  0  0  0  0  0
  130.5980  133.7684  157.0306 N   0  0  0  0  0  0  0  0  0  0  0  0
  131.1997  134.3206  156.5073 H   0  0  0  0  0  0  0  0  0  0  0  0
  127.4936  135.5411  162.8930 H   0  0  0  0  0  0  0  0  0  0  0  0
  126.7521  133.9571  162.5627 H   0  0  0  0  0  0  0  0  0  0  0  0
  128.4879  134.2078  162.2591 H   0  0  0  0  0  0  0  0  0  0  0  0
  125.2610  135.7641  158.3498 H   0  0  0  0  0  0  0  0  0  0  0  0
  127.8582  136.1535  157.8832 H   0  0  0  0  0  0  0  0  0  0  0  0
  129.3837  137.7816  160.3591 H   0  0  0  0  0  0  0  0  0  0  0  0
  131.6402  136.2073  161.6751 H   0  0  0  0  0  0  0  0  0  0  0  0
  131.1228  141.8566  164.7768 H   0  0  0  0  0  0  0  0  0  0  0  0
  132.2060  142.9973  166.6685 H   0  0  0  0  0  0  0  0  0  0  0  0
  134.5417  142.4841  167.2457 H   0  0  0  0  0  0  0  0  0  0  0  0
  135.8033  140.8229  165.9412 H   0  0  0  0  0  0  0  0  0  0  0  0
  134.7330  139.6653  164.0526 H   0  0  0  0  0  0  0  0  0  0  0  0
  131.6625  141.6416  161.8374 H   0  0  0  0  0  0  0  0  0  0  0  0
  130.8411  135.9808  158.4552 H   0  0  0  0  0  0  0  0  0  0  0  0
  128.8490  131.1264  157.7076 H   0  0  0  0  0  0  0  0  0  0  0  0
  129.7460  133.2507  154.1274 H   0  0  0  0  0  0  0  0  0  0  0  0
  130.3834  132.0166  152.0983 H   0  0  0  0  0  0  0  0  0  0  0  0
  132.0715  128.8285  152.0965 H   0  0  0  0  0  0  0  0  0  0  0  0
  131.4115  130.0495  151.1496 H   0  0  0  0  0  0  0  0  0  0  0  0
  132.0632  128.9077  154.5090 H   0  0  0  0  0  0  0  0  0  0  0  0
  131.4379  130.1410  156.5422 H   0  0  0  0  0  0  0  0  0  0  0  0
  1  2  1  0
  1 38  1  0
  1 39  1  0
  1 40  1  0
  2  6  1  0
  2  3  1  0
  3  4  2  0
  4  5  1  0
  4 41  1  0
  5  6  2  0
  5 42  1  0
  6  7  1  0
  7  8  1  1
  7  9  1  0
  7 23  1  0
  9 10  2  0
  9 43  1  0
 10 11  1  0
 10 44  1  0
 11 21  1  0
 11 12  2  0
 12 13  1  0
 13 14  1  0
 13 20  2  0
 14 19  1  0
 14 15  2  0
 15 16  1  0
 15 45  1  0
 16 17  2  0
 16 46  1  0
 17 18  1  0
 17 47  1  0
 18 19  2  0
 18 48  1  0
 19 49  1  0
 20 21  1  0
 20 50  1  0
 21 22  1  0
 23 51  1  0
 24 23  1  0
 24 36  2  0
 24 25  1  0
 25 26  1  0
 25 27  1  0
 27 28  2  0
 27 52  1  0
 28 29  1  0
 28 36  1  0
 29 35  1  0
 29 30  2  0
 30 31  1  0
 30 53  1  0
 31 32  2  0
 31 54  1  0
 32 33  1  0
 32 34  1  0
 33 55  1  0
 33 56  1  0
 34 35  2  0
 34 57  1  0
 35 58  1  0
 36 37  1  0
M  CHG  1  36   1
M  END
>  <DOCK_score>  (1) 
-59.721909

>  <SMILES>  (1) 
Cn1nccc1[C@H](C=Cc1nc(-c2ccccc2)c[nH]1)Nc1[nH]cc(-c2ccc(N)cc2)[nH+]1

$$$$
