Cc1cccc(N2CC[NH+]([C@@H](c3ccccc3)c3cccc(Oc4ccc(N)c(O)c4)c3)CC2)c1C
     RDKit          3D

 70 74  0  0  1  0  0  0  0  0999 V2000
  135.7098  138.1777  164.1415 C   0  0  0  0  0  0  0  0  0  0  0  0
  135.1902  137.9503  162.7452 C   0  0  0  0  0  0  0  0  0  0  0  0
  135.7545  138.6271  161.6793 C   0  0  0  0  0  0  0  0  0  0  0  0
  135.2806  138.4218  160.3968 C   0  0  0  0  0  0  0  0  0  0  0  0
  134.2413  137.5390  160.1761 C   0  0  0  0  0  0  0  0  0  0  0  0
  133.6723  136.8577  161.2441 C   0  0  0  0  0  0  0  0  0  0  0  0
  132.6210  135.9646  161.0246 N   0  0  0  0  0  0  0  0  0  0  0  0
  131.4390  136.6617  160.4985 C   0  0  0  0  0  0  0  0  0  0  0  0
  130.2940  135.6608  160.3283 C   0  0  0  0  0  0  0  0  0  0  0  0
  130.7071  134.5961  159.4047 N   0  0  0  0  0  0  0  0  0  0  0  0
  130.9491  135.0004  158.5124 H   0  0  0  0  0  0  0  0  0  0  0  0
  129.6015  133.6454  159.2277 C   0  0  1  0  0  0  0  0  0  0  0  0
  129.3396  133.2089  160.1917 H   0  0  0  0  0  0  0  0  0  0  0  0
  128.4052  134.3659  158.6611 C   0  0  0  0  0  0  0  0  0  0  0  0
  127.1289  133.9249  158.9567 C   0  0  0  0  0  0  0  0  0  0  0  0
  126.0314  134.5883  158.4406 C   0  0  0  0  0  0  0  0  0  0  0  0
  126.2105  135.6871  157.6211 C   0  0  0  0  0  0  0  0  0  0  0  0
  127.4869  136.1252  157.3217 C   0  0  0  0  0  0  0  0  0  0  0  0
  128.5843  135.4644  157.8413 C   0  0  0  0  0  0  0  0  0  0  0  0
  130.0251  132.5528  158.2801 C   0  0  0  0  0  0  0  0  0  0  0  0
  130.0332  131.2363  158.7031 C   0  0  0  0  0  0  0  0  0  0  0  0
  130.4217  130.2316  157.8365 C   0  0  0  0  0  0  0  0  0  0  0  0
  130.7980  130.5402  156.5435 C   0  0  0  0  0  0  0  0  0  0  0  0
  130.7959  131.8608  156.1182 C   0  0  0  0  0  0  0  0  0  0  0  0
  131.1700  132.1676  154.8484 O   0  0  0  0  0  0  0  0  0  0  0  0
  130.6781  131.4047  153.8361 C   0  0  0  0  0  0  0  0  0  0  0  0
  129.3337  131.0632  153.8162 C   0  0  0  0  0  0  0  0  0  0  0  0
  128.8294  130.2928  152.7855 C   0  0  0  0  0  0  0  0  0  0  0  0
  129.6696  129.8499  151.7747 C   0  0  0  0  0  0  0  0  0  0  0  0
  129.1592  129.0629  150.7324 N   0  0  0  0  0  0  0  0  0  0  0  0
  131.0208  130.1871  151.7963 C   0  0  0  0  0  0  0  0  0  0  0  0
  131.8466  129.7545  150.8061 O   0  0  0  0  0  0  0  0  0  0  0  0
  131.5221  130.9641  152.8273 C   0  0  0  0  0  0  0  0  0  0  0  0
  130.4054  132.8674  156.9901 C   0  0  0  0  0  0  0  0  0  0  0  0
  131.8733  133.8933  159.9558 C   0  0  0  0  0  0  0  0  0  0  0  0
  133.0316  134.8794  160.1224 C   0  0  0  0  0  0  0  0  0  0  0  0
  134.1472  137.0706  162.5322 C   0  0  0  0  0  0  0  0  0  0  0  0
  133.5287  136.3382  163.6951 C   0  0  0  0  0  0  0  0  0  0  0  0
  135.1592  138.9963  164.6051 H   0  0  0  0  0  0  0  0  0  0  0  0
  135.5767  137.2706  164.7308 H   0  0  0  0  0  0  0  0  0  0  0  0
  136.7691  138.4308  164.0981 H   0  0  0  0  0  0  0  0  0  0  0  0
  136.5672  139.3180  161.8492 H   0  0  0  0  0  0  0  0  0  0  0  0
  135.7234  138.9519  159.5667 H   0  0  0  0  0  0  0  0  0  0  0  0
  133.8716  137.3790  159.1741 H   0  0  0  0  0  0  0  0  0  0  0  0
  131.6791  137.1070  159.5329 H   0  0  0  0  0  0  0  0  0  0  0  0
  131.1379  137.4438  161.1953 H   0  0  0  0  0  0  0  0  0  0  0  0
  129.4205  136.1731  159.9248 H   0  0  0  0  0  0  0  0  0  0  0  0
  130.0448  135.2258  161.2963 H   0  0  0  0  0  0  0  0  0  0  0  0
  126.9890  133.0640  159.5937 H   0  0  0  0  0  0  0  0  0  0  0  0
  125.0343  134.2463  158.6749 H   0  0  0  0  0  0  0  0  0  0  0  0
  125.3532  136.2034  157.2152 H   0  0  0  0  0  0  0  0  0  0  0  0
  127.6269  136.9837  156.6813 H   0  0  0  0  0  0  0  0  0  0  0  0
  129.5816  135.8064  157.6070 H   0  0  0  0  0  0  0  0  0  0  0  0
  129.7351  130.9924  159.7122 H   0  0  0  0  0  0  0  0  0  0  0  0
  130.4272  129.2041  158.1693 H   0  0  0  0  0  0  0  0  0  0  0  0
  131.0972  129.7545  155.8656 H   0  0  0  0  0  0  0  0  0  0  0  0
  128.6793  131.4034  154.6052 H   0  0  0  0  0  0  0  0  0  0  0  0
  127.7817  130.0315  152.7695 H   0  0  0  0  0  0  0  0  0  0  0  0
  129.7473  128.7532  150.0259 H   0  0  0  0  0  0  0  0  0  0  0  0
  128.2181  128.8284  150.7179 H   0  0  0  0  0  0  0  0  0  0  0  0
  132.7652  130.0390  150.9076 H   0  0  0  0  0  0  0  0  0  0  0  0
  132.5694  131.2270  152.8457 H   0  0  0  0  0  0  0  0  0  0  0  0
  130.3993  133.8958  156.6604 H   0  0  0  0  0  0  0  0  0  0  0  0
  131.6160  133.4675  160.9256 H   0  0  0  0  0  0  0  0  0  0  0  0
  132.1710  133.0949  159.2759 H   0  0  0  0  0  0  0  0  0  0  0  0
  133.2979  135.2954  159.1507 H   0  0  0  0  0  0  0  0  0  0  0  0
  133.8925  134.3612  160.5449 H   0  0  0  0  0  0  0  0  0  0  0  0
  134.0550  135.3969  163.8529 H   0  0  0  0  0  0  0  0  0  0  0  0
  133.6046  136.9519  164.5927 H   0  0  0  0  0  0  0  0  0  0  0  0
  132.4794  136.1364  163.4806 H   0  0  0  0  0  0  0  0  0  0  0  0
  1  2  1  0
  1 39  1  0
  1 40  1  0
  1 41  1  0
  2 37  2  0
  2  3  1  0
  3  4  2  0
  3 42  1  0
  4  5  1  0
  4 43  1  0
  5  6  2  0
  5 44  1  0
  6  7  1  0
  6 37  1  0
  7 36  1  0
  7  8  1  0
  8  9  1  0
  8 45  1  0
  8 46  1  0
  9 10  1  0
  9 47  1  0
  9 48  1  0
 10 11  1  0
 10 12  1  0
 10 35  1  0
 12 13  1  1
 12 14  1  0
 12 20  1  0
 14 19  1  0
 14 15  2  0
 15 16  1  0
 15 49  1  0
 16 17  2  0
 16 50  1  0
 17 18  1  0
 17 51  1  0
 18 19  2  0
 18 52  1  0
 19 53  1  0
 20 34  1  0
 20 21  2  0
 21 22  1  0
 21 54  1  0
 22 23  2  0
 22 55  1  0
 23 24  1  0
 23 56  1  0
 24 25  1  0
 24 34  2  0
 25 26  1  0
 26 33  1  0
 26 27  2  0
 27 28  1  0
 27 57  1  0
 28 29  2  0
 28 58  1  0
 29 30  1  0
 29 31  1  0
 30 59  1  0
 30 60  1  0
 31 32  1  0
 31 33  2  0
 32 61  1  0
 33 62  1  0
 34 63  1  0
 35 36  1  0
 35 64  1  0
 35 65  1  0
 36 66  1  0
 36 67  1  0
 37 38  1  0
 38 68  1  0
 38 69  1  0
 38 70  1  0
M  CHG  1  10   1
M  END
>  <DOCK_score>  (1) 
-56.583916

>  <SMILES>  (1) 
Cc1cccc(N2CC[NH+]([C@@H](c3ccccc3)c3cccc(Oc4ccc(N)c(O)c4)c3)CC2)c1C

$$$$
