[NH3+][C@@H](C(=O)Nc1cccc(O)c1)c1cccc(NC(c2ccccc2)c2ccccc2)c1
     RDKit          3D

 58 61  0  0  1  0  0  0  0  0999 V2000
  130.6499  134.0204  157.4750 N   0  0  0  0  0  0  0  0  0  0  0  0
  131.5423  134.4403  157.2627 H   0  0  0  0  0  0  0  0  0  0  0  0
  130.7762  133.0361  157.6575 H   0  0  0  0  0  0  0  0  0  0  0  0
  130.0268  134.1396  156.6904 H   0  0  0  0  0  0  0  0  0  0  0  0
  130.0735  134.6683  158.6608 C   0  0  1  0  0  0  0  0  0  0  0  0
  129.9370  135.7316  158.4637 H   0  0  0  0  0  0  0  0  0  0  0  0
  128.7405  134.0409  158.9779 C   0  0  0  0  0  0  0  0  0  0  0  0
  128.3128  133.1426  158.2844 O   0  0  0  0  0  0  0  0  0  0  0  0
  128.0212  134.4818  160.0290 N   0  0  0  0  0  0  0  0  0  0  0  0
  126.7810  133.9032  160.3201 C   0  0  0  0  0  0  0  0  0  0  0  0
  126.5426  132.5722  160.0014 C   0  0  0  0  0  0  0  0  0  0  0  0
  125.3201  131.9994  160.2941 C   0  0  0  0  0  0  0  0  0  0  0  0
  124.3276  132.7513  160.8939 C   0  0  0  0  0  0  0  0  0  0  0  0
  124.5583  134.0828  161.2092 C   0  0  0  0  0  0  0  0  0  0  0  0
  123.5813  134.8211  161.7986 O   0  0  0  0  0  0  0  0  0  0  0  0
  125.7858  134.6596  160.9223 C   0  0  0  0  0  0  0  0  0  0  0  0
  131.0041  134.4900  159.8327 C   0  0  0  0  0  0  0  0  0  0  0  0
  130.8736  133.3873  160.6569 C   0  0  0  0  0  0  0  0  0  0  0  0
  131.7290  133.2171  161.7299 C   0  0  0  0  0  0  0  0  0  0  0  0
  132.7099  134.1544  161.9886 C   0  0  0  0  0  0  0  0  0  0  0  0
  132.8401  135.2660  161.1662 C   0  0  0  0  0  0  0  0  0  0  0  0
  133.8312  136.2157  161.4245 N   0  0  0  0  0  0  0  0  0  0  0  0
  133.6148  137.6180  161.0601 C   0  0  0  0  0  0  0  0  0  0  0  0
  132.4061  138.1457  161.7891 C   0  0  0  0  0  0  0  0  0  0  0  0
  131.6373  139.1440  161.2205 C   0  0  0  0  0  0  0  0  0  0  0  0
  130.5257  139.6248  161.8870 C   0  0  0  0  0  0  0  0  0  0  0  0
  130.1891  139.1147  163.1269 C   0  0  0  0  0  0  0  0  0  0  0  0
  130.9608  138.1200  163.6979 C   0  0  0  0  0  0  0  0  0  0  0  0
  132.0693  137.6355  163.0290 C   0  0  0  0  0  0  0  0  0  0  0  0
  134.8258  138.4292  161.4427 C   0  0  0  0  0  0  0  0  0  0  0  0
  135.1667  139.5502  160.7090 C   0  0  0  0  0  0  0  0  0  0  0  0
  136.2748  140.2971  161.0629 C   0  0  0  0  0  0  0  0  0  0  0  0
  137.0481  139.9171  162.1438 C   0  0  0  0  0  0  0  0  0  0  0  0
  136.7103  138.7930  162.8742 C   0  0  0  0  0  0  0  0  0  0  0  0
  135.5991  138.0491  162.5236 C   0  0  0  0  0  0  0  0  0  0  0  0
  131.9825  135.4311  160.0856 C   0  0  0  0  0  0  0  0  0  0  0  0
  128.3634  135.2003  160.5837 H   0  0  0  0  0  0  0  0  0  0  0  0
  127.3149  131.9837  159.5287 H   0  0  0  0  0  0  0  0  0  0  0  0
  125.1380  130.9634  160.0494 H   0  0  0  0  0  0  0  0  0  0  0  0
  123.3715  132.3019  161.1178 H   0  0  0  0  0  0  0  0  0  0  0  0
  123.8351  135.7365  161.9796 H   0  0  0  0  0  0  0  0  0  0  0  0
  125.9672  135.6957  161.1673 H   0  0  0  0  0  0  0  0  0  0  0  0
  130.1044  132.6551  160.4599 H   0  0  0  0  0  0  0  0  0  0  0  0
  131.6271  132.3524  162.3690 H   0  0  0  0  0  0  0  0  0  0  0  0
  133.3746  134.0234  162.8297 H   0  0  0  0  0  0  0  0  0  0  0  0
  134.6628  135.9466  161.8452 H   0  0  0  0  0  0  0  0  0  0  0  0
  133.4521  137.6931  159.9849 H   0  0  0  0  0  0  0  0  0  0  0  0
  131.9029  139.5458  160.2538 H   0  0  0  0  0  0  0  0  0  0  0  0
  129.9231  140.4021  161.4412 H   0  0  0  0  0  0  0  0  0  0  0  0
  129.3232  139.4934  163.6497 H   0  0  0  0  0  0  0  0  0  0  0  0
  130.6980  137.7218  164.6667 H   0  0  0  0  0  0  0  0  0  0  0  0
  132.6724  136.8588  163.4753 H   0  0  0  0  0  0  0  0  0  0  0  0
  134.5651  139.8447  159.8618 H   0  0  0  0  0  0  0  0  0  0  0  0
  136.5390  141.1751  160.4920 H   0  0  0  0  0  0  0  0  0  0  0  0
  137.9164  140.4981  162.4176 H   0  0  0  0  0  0  0  0  0  0  0  0
  137.3146  138.4960  163.7185 H   0  0  0  0  0  0  0  0  0  0  0  0
  135.3354  137.1708  163.0939 H   0  0  0  0  0  0  0  0  0  0  0  0
  132.0813  136.2941  159.4439 H   0  0  0  0  0  0  0  0  0  0  0  0
  1  2  1  0
  1  3  1  0
  1  4  1  0
  1  5  1  0
  5  6  1  6
  5  7  1  0
  5 17  1  0
  7  8  2  0
  7  9  1  0
  9 10  1  0
  9 37  1  0
 10 16  1  0
 10 11  2  0
 11 12  1  0
 11 38  1  0
 12 13  2  0
 12 39  1  0
 13 14  1  0
 13 40  1  0
 14 15  1  0
 14 16  2  0
 15 41  1  0
 16 42  1  0
 17 36  1  0
 17 18  2  0
 18 19  1  0
 18 43  1  0
 19 20  2  0
 19 44  1  0
 20 21  1  0
 20 45  1  0
 21 22  1  0
 21 36  2  0
 22 23  1  0
 22 46  1  0
 23 24  1  0
 23 30  1  0
 23 47  1  0
 24 29  1  0
 24 25  2  0
 25 26  1  0
 25 48  1  0
 26 27  2  0
 26 49  1  0
 27 28  1  0
 27 50  1  0
 28 29  2  0
 28 51  1  0
 29 52  1  0
 30 35  1  0
 30 31  2  0
 31 32  1  0
 31 53  1  0
 32 33  2  0
 32 54  1  0
 33 34  1  0
 33 55  1  0
 34 35  2  0
 34 56  1  0
 35 57  1  0
 36 58  1  0
M  CHG  1   1   1
M  END
>  <DOCK_score>  (1) 
-51.411747

>  <SMILES>  (1) 
[NH3+][C@@H](C(=O)Nc1cccc(O)c1)c1cccc(NC(c2ccccc2)c2ccccc2)c1

$$$$
