Cc1ccccc1[C@H](Nc1[nH]cc(-c2ccc(N)cc2)[nH+]1)c1ccccc1
     RDKit          3D

 50 53  0  0  1  0  0  0  0  0999 V2000
  133.1780  136.2125  160.6652 C   0  0  0  0  0  0  0  0  0  0  0  0
  132.1767  137.2503  161.1027 C   0  0  0  0  0  0  0  0  0  0  0  0
  132.6084  138.4995  161.5086 C   0  0  0  0  0  0  0  0  0  0  0  0
  131.6893  139.4532  161.9048 C   0  0  0  0  0  0  0  0  0  0  0  0
  130.3400  139.1540  161.9061 C   0  0  0  0  0  0  0  0  0  0  0  0
  129.9088  137.9035  161.5053 C   0  0  0  0  0  0  0  0  0  0  0  0
  130.8272  136.9515  161.1035 C   0  0  0  0  0  0  0  0  0  0  0  0
  130.3572  135.5878  160.6669 C   0  0  2  0  0  0  0  0  0  0  0  0
  130.7955  134.8280  161.3140 H   0  0  0  0  0  0  0  0  0  0  0  0
  130.7720  135.3486  159.2824 N   0  0  0  0  0  0  0  0  0  0  0  0
  130.4513  134.1540  158.6604 C   0  0  0  0  0  0  0  0  0  0  0  0
  129.7531  133.1301  159.2225 N   0  0  0  0  0  0  0  0  0  0  0  0
  129.3941  133.1059  160.1233 H   0  0  0  0  0  0  0  0  0  0  0  0
  129.6509  132.1366  158.2778 C   0  0  0  0  0  0  0  0  0  0  0  0
  130.2892  132.5824  157.1677 C   0  0  0  0  0  0  0  0  0  0  0  0
  130.4352  131.8443  155.8890 C   0  0  0  0  0  0  0  0  0  0  0  0
  129.9142  132.3783  154.7115 C   0  0  0  0  0  0  0  0  0  0  0  0
  130.0561  131.6934  153.5231 C   0  0  0  0  0  0  0  0  0  0  0  0
  130.7081  130.4659  153.5009 C   0  0  0  0  0  0  0  0  0  0  0  0
  130.8460  129.7711  152.2970 N   0  0  0  0  0  0  0  0  0  0  0  0
  131.2230  129.9290  154.6747 C   0  0  0  0  0  0  0  0  0  0  0  0
  131.0884  130.6131  155.8643 C   0  0  0  0  0  0  0  0  0  0  0  0
  130.7652  133.8250  157.4310 N   0  0  0  0  0  0  0  0  0  0  0  0
  131.2609  134.3808  156.8094 H   0  0  0  0  0  0  0  0  0  0  0  0
  128.8547  135.5209  160.7600 C   0  0  0  0  0  0  0  0  0  0  0  0
  128.2528  135.0935  161.9289 C   0  0  0  0  0  0  0  0  0  0  0  0
  126.8744  135.0362  162.0157 C   0  0  0  0  0  0  0  0  0  0  0  0
  126.0979  135.3972  160.9304 C   0  0  0  0  0  0  0  0  0  0  0  0
  126.6999  135.8200  159.7601 C   0  0  0  0  0  0  0  0  0  0  0  0
  128.0781  135.8814  159.6747 C   0  0  0  0  0  0  0  0  0  0  0  0
  133.2682  136.2299  159.5791 H   0  0  0  0  0  0  0  0  0  0  0  0
  132.8428  135.2262  160.9860 H   0  0  0  0  0  0  0  0  0  0  0  0
  134.1471  136.4307  161.1137 H   0  0  0  0  0  0  0  0  0  0  0  0
  133.6632  138.7315  161.5121 H   0  0  0  0  0  0  0  0  0  0  0  0
  132.0261  140.4304  162.2176 H   0  0  0  0  0  0  0  0  0  0  0  0
  129.6224  139.8977  162.2200 H   0  0  0  0  0  0  0  0  0  0  0  0
  128.8543  137.6699  161.5063 H   0  0  0  0  0  0  0  0  0  0  0  0
  131.2712  136.0270  158.8015 H   0  0  0  0  0  0  0  0  0  0  0  0
  129.1570  131.1836  158.3971 H   0  0  0  0  0  0  0  0  0  0  0  0
  129.4035  133.3297  154.7292 H   0  0  0  0  0  0  0  0  0  0  0  0
  129.6570  132.1090  152.6097 H   0  0  0  0  0  0  0  0  0  0  0  0
  131.3008  128.9148  152.2803 H   0  0  0  0  0  0  0  0  0  0  0  0
  130.4865  130.1455  151.4771 H   0  0  0  0  0  0  0  0  0  0  0  0
  131.7287  128.9749  154.6552 H   0  0  0  0  0  0  0  0  0  0  0  0
  131.4892  130.1956  156.7763 H   0  0  0  0  0  0  0  0  0  0  0  0
  128.8596  134.8076  162.7754 H   0  0  0  0  0  0  0  0  0  0  0  0
  126.4042  134.7063  162.9302 H   0  0  0  0  0  0  0  0  0  0  0  0
  125.0210  135.3492  160.9971 H   0  0  0  0  0  0  0  0  0  0  0  0
  126.0931  136.1020  158.9122 H   0  0  0  0  0  0  0  0  0  0  0  0
  128.5484  136.2113  158.7601 H   0  0  0  0  0  0  0  0  0  0  0  0
  1  2  1  0
  1 31  1  0
  1 32  1  0
  1 33  1  0
  2  7  2  0
  2  3  1  0
  3  4  2  0
  3 34  1  0
  4  5  1  0
  4 35  1  0
  5  6  2  0
  5 36  1  0
  6  7  1  0
  6 37  1  0
  7  8  1  0
  8  9  1  1
  8 10  1  0
  8 25  1  0
 10 38  1  0
 11 10  1  0
 11 23  2  0
 11 12  1  0
 12 13  1  0
 12 14  1  0
 14 15  2  0
 14 39  1  0
 15 16  1  0
 15 23  1  0
 16 22  1  0
 16 17  2  0
 17 18  1  0
 17 40  1  0
 18 19  2  0
 18 41  1  0
 19 20  1  0
 19 21  1  0
 20 42  1  0
 20 43  1  0
 21 22  2  0
 21 44  1  0
 22 45  1  0
 23 24  1  0
 25 30  1  0
 25 26  2  0
 26 27  1  0
 26 46  1  0
 27 28  2  0
 27 47  1  0
 28 29  1  0
 28 48  1  0
 29 30  2  0
 29 49  1  0
 30 50  1  0
M  CHG  1  23   1
M  END
>  <DOCK_score>  (1) 
-57.103886

>  <SMILES>  (1) 
Cc1ccccc1[C@H](Nc1[nH]cc(-c2ccc(N)cc2)[nH+]1)c1ccccc1

$$$$
