N#Cc1ccc(Sc2cccc(-c3ccccc3)c2)c(Nc2[nH]cc(-c3ccccc3)[nH+]2)c1
     RDKit          3D

 54 58  0  0  1  0  0  0  0  0999 V2000
  126.2888  135.4003  162.7249 N   0  0  0  0  0  0  0  0  0  0  0  0
  127.3787  135.4559  162.4095 C   0  0  0  0  0  0  0  0  0  0  0  0
  128.7526  135.5259  162.0120 C   0  0  0  0  0  0  0  0  0  0  0  0
  129.7417  135.8099  162.9586 C   0  0  0  0  0  0  0  0  0  0  0  0
  131.0632  135.8778  162.5761 C   0  0  0  0  0  0  0  0  0  0  0  0
  131.4175  135.6696  161.2480 C   0  0  0  0  0  0  0  0  0  0  0  0
  133.1089  135.7648  160.7632 S   0  0  0  0  0  0  0  0  0  0  0  0
  133.5524  137.4148  161.1943 C   0  0  0  0  0  0  0  0  0  0  0  0
  133.3930  138.4420  160.2705 C   0  0  0  0  0  0  0  0  0  0  0  0
  133.7356  139.7373  160.6066 C   0  0  0  0  0  0  0  0  0  0  0  0
  134.2474  140.0180  161.8583 C   0  0  0  0  0  0  0  0  0  0  0  0
  134.4158  138.9942  162.7889 C   0  0  0  0  0  0  0  0  0  0  0  0
  134.9664  139.2946  164.1337 C   0  0  0  0  0  0  0  0  0  0  0  0
  135.7002  138.3294  164.8205 C   0  0  0  0  0  0  0  0  0  0  0  0
  136.2141  138.6158  166.0690 C   0  0  0  0  0  0  0  0  0  0  0  0
  135.9927  139.8545  166.6433 C   0  0  0  0  0  0  0  0  0  0  0  0
  135.2610  140.8147  165.9681 C   0  0  0  0  0  0  0  0  0  0  0  0
  134.7469  140.5408  164.7168 C   0  0  0  0  0  0  0  0  0  0  0  0
  134.0664  137.6890  162.4536 C   0  0  0  0  0  0  0  0  0  0  0  0
  130.4343  135.3800  160.2974 C   0  0  0  0  0  0  0  0  0  0  0  0
  130.7933  135.1657  158.9607 N   0  0  0  0  0  0  0  0  0  0  0  0
  130.5071  133.9548  158.3525 C   0  0  0  0  0  0  0  0  0  0  0  0
  129.8890  132.8964  158.9447 N   0  0  0  0  0  0  0  0  0  0  0  0
  129.5728  132.8547  159.8608 H   0  0  0  0  0  0  0  0  0  0  0  0
  129.7931  131.8996  158.0049 C   0  0  0  0  0  0  0  0  0  0  0  0
  130.3630  132.3733  156.8689 C   0  0  0  0  0  0  0  0  0  0  0  0
  130.4945  131.6393  155.5867 C   0  0  0  0  0  0  0  0  0  0  0  0
  129.9012  132.1409  154.4296 C   0  0  0  0  0  0  0  0  0  0  0  0
  130.0316  131.4568  153.2381 C   0  0  0  0  0  0  0  0  0  0  0  0
  130.7398  130.2697  153.1931 C   0  0  0  0  0  0  0  0  0  0  0  0
  131.3258  129.7637  154.3399 C   0  0  0  0  0  0  0  0  0  0  0  0
  131.2071  130.4426  155.5356 C   0  0  0  0  0  0  0  0  0  0  0  0
  130.7918  133.6367  157.1130 N   0  0  0  0  0  0  0  0  0  0  0  0
  131.2381  134.2128  156.4729 H   0  0  0  0  0  0  0  0  0  0  0  0
  129.1069  135.3108  160.6766 C   0  0  0  0  0  0  0  0  0  0  0  0
  129.4694  135.9760  163.9903 H   0  0  0  0  0  0  0  0  0  0  0  0
  131.8254  136.0978  163.3090 H   0  0  0  0  0  0  0  0  0  0  0  0
  132.9967  138.2271  159.2891 H   0  0  0  0  0  0  0  0  0  0  0  0
  133.6067  140.5323  159.8870 H   0  0  0  0  0  0  0  0  0  0  0  0
  134.5176  141.0314  162.1160 H   0  0  0  0  0  0  0  0  0  0  0  0
  135.8699  137.3604  164.3748 H   0  0  0  0  0  0  0  0  0  0  0  0
  136.7865  137.8699  166.6004 H   0  0  0  0  0  0  0  0  0  0  0  0
  136.3929  140.0728  167.6224 H   0  0  0  0  0  0  0  0  0  0  0  0
  135.0914  141.7805  166.4210 H   0  0  0  0  0  0  0  0  0  0  0  0
  134.1757  141.2913  164.1906 H   0  0  0  0  0  0  0  0  0  0  0  0
  134.1947  136.8924  163.1715 H   0  0  0  0  0  0  0  0  0  0  0  0
  131.2424  135.8653  158.4611 H   0  0  0  0  0  0  0  0  0  0  0  0
  129.3520  130.9237  158.1448 H   0  0  0  0  0  0  0  0  0  0  0  0
  129.3441  133.0654  154.4644 H   0  0  0  0  0  0  0  0  0  0  0  0
  129.5763  131.8469  152.3400 H   0  0  0  0  0  0  0  0  0  0  0  0
  130.8356  129.7352  152.2596 H   0  0  0  0  0  0  0  0  0  0  0  0
  131.8777  128.8363  154.2992 H   0  0  0  0  0  0  0  0  0  0  0  0
  131.6657  130.0475  156.4300 H   0  0  0  0  0  0  0  0  0  0  0  0
  128.3451  135.0910  159.9433 H   0  0  0  0  0  0  0  0  0  0  0  0
  1  2  3  0
  2  3  1  0
  3 35  2  0
  3  4  1  0
  4  5  2  0
  4 36  1  0
  5  6  1  0
  5 37  1  0
  6  7  1  0
  6 20  2  0
  7  8  1  0
  8 19  1  0
  8  9  2  0
  9 10  1  0
  9 38  1  0
 10 11  2  0
 10 39  1  0
 11 12  1  0
 11 40  1  0
 12 13  1  0
 12 19  2  0
 13 18  1  0
 13 14  2  0
 14 15  1  0
 14 41  1  0
 15 16  2  0
 15 42  1  0
 16 17  1  0
 16 43  1  0
 17 18  2  0
 17 44  1  0
 18 45  1  0
 19 46  1  0
 20 21  1  0
 20 35  1  0
 21 47  1  0
 22 21  1  0
 22 33  2  0
 22 23  1  0
 23 24  1  0
 23 25  1  0
 25 26  2  0
 25 48  1  0
 26 27  1  0
 26 33  1  0
 27 32  1  0
 27 28  2  0
 28 29  1  0
 28 49  1  0
 29 30  2  0
 29 50  1  0
 30 31  1  0
 30 51  1  0
 31 32  2  0
 31 52  1  0
 32 53  1  0
 33 34  1  0
 35 54  1  0
M  CHG  1  33   1
M  END
>  <DOCK_score>  (1) 
-59.0075

>  <SMILES>  (1) 
N#Cc1ccc(Sc2cccc(-c3ccccc3)c2)c(Nc2[nH]cc(-c3ccccc3)[nH+]2)c1

$$$$
