CNC(=[NH2+])N[C@@H]1C[C@@H]1NCc1ccc(O)cc1-c1ccnn1C
     RDKit          3D

 46 48  0  0  1  0  0  0  0  0999 V2000
  130.4532  132.7589  153.2218 C   0  0  0  0  0  0  0  0  0  0  0  0
  129.9106  132.8200  154.5812 N   0  0  0  0  0  0  0  0  0  0  0  0
  130.5074  132.1049  155.5924 C   0  0  0  0  0  0  0  0  0  0  0  0
  131.5561  131.3725  155.3416 N   0  0  0  0  0  0  0  0  0  0  0  0
  131.9772  130.8680  156.0549 H   0  0  0  0  0  0  0  0  0  0  0  0
  131.9154  131.3320  154.4415 H   0  0  0  0  0  0  0  0  0  0  0  0
  129.9982  132.1623  156.8681 N   0  0  0  0  0  0  0  0  0  0  0  0
  130.6342  131.4002  157.9456 C   0  0  2  0  0  0  0  0  0  0  0  0
  131.7074  131.2422  157.8397 H   0  0  0  0  0  0  0  0  0  0  0  0
  129.8169  130.2840  158.5990 C   0  0  0  0  0  0  0  0  0  0  0  0
  130.0830  131.5836  159.3611 C   0  0  2  0  0  0  0  0  0  0  0  0
  130.7938  131.5464  160.1866 H   0  0  0  0  0  0  0  0  0  0  0  0
  128.9566  132.5104  159.5356 N   0  0  0  0  0  0  0  0  0  0  0  0
  128.8452  132.9458  160.9341 C   0  0  0  0  0  0  0  0  0  0  0  0
  127.4551  133.4697  161.1878 C   0  0  0  0  0  0  0  0  0  0  0  0
  126.4604  132.6116  161.6115 C   0  0  0  0  0  0  0  0  0  0  0  0
  125.1856  133.0892  161.8511 C   0  0  0  0  0  0  0  0  0  0  0  0
  124.8942  134.4326  161.6553 C   0  0  0  0  0  0  0  0  0  0  0  0
  123.6377  134.8960  161.8866 O   0  0  0  0  0  0  0  0  0  0  0  0
  125.8836  135.3005  161.2248 C   0  0  0  0  0  0  0  0  0  0  0  0
  127.1714  134.8210  160.9887 C   0  0  0  0  0  0  0  0  0  0  0  0
  128.2338  135.7425  160.5281 C   0  0  0  0  0  0  0  0  0  0  0  0
  128.5484  136.0312  159.2303 C   0  0  0  0  0  0  0  0  0  0  0  0
  129.6035  136.9437  159.2387 C   0  0  0  0  0  0  0  0  0  0  0  0
  129.9269  137.1962  160.4817 N   0  0  0  0  0  0  0  0  0  0  0  0
  129.0835  136.4557  161.3199 N   0  0  0  0  0  0  0  0  0  0  0  0
  129.1097  136.4493  162.7846 C   0  0  0  0  0  0  0  0  0  0  0  0
  131.4828  133.1166  153.2251 H   0  0  0  0  0  0  0  0  0  0  0  0
  130.4276  131.7287  152.8663 H   0  0  0  0  0  0  0  0  0  0  0  0
  129.8529  133.3858  152.5624 H   0  0  0  0  0  0  0  0  0  0  0  0
  129.1303  133.3652  154.7678 H   0  0  0  0  0  0  0  0  0  0  0  0
  129.2178  132.7074  157.0547 H   0  0  0  0  0  0  0  0  0  0  0  0
  128.8060  130.1165  158.2271 H   0  0  0  0  0  0  0  0  0  0  0  0
  130.3526  129.3916  158.9231 H   0  0  0  0  0  0  0  0  0  0  0  0
  129.0406  133.3022  158.9159 H   0  0  0  0  0  0  0  0  0  0  0  0
  129.0411  132.1011  161.5945 H   0  0  0  0  0  0  0  0  0  0  0  0
  129.5718  133.7347  161.1281 H   0  0  0  0  0  0  0  0  0  0  0  0
  126.6800  131.5647  161.7605 H   0  0  0  0  0  0  0  0  0  0  0  0
  124.4122  132.4143  162.1870 H   0  0  0  0  0  0  0  0  0  0  0  0
  123.5314  135.8430  161.7229 H   0  0  0  0  0  0  0  0  0  0  0  0
  125.6583  136.3456  161.0721 H   0  0  0  0  0  0  0  0  0  0  0  0
  128.0649  135.6264  158.3534 H   0  0  0  0  0  0  0  0  0  0  0  0
  130.0770  137.3679  158.3658 H   0  0  0  0  0  0  0  0  0  0  0  0
  129.7461  135.6360  163.1331 H   0  0  0  0  0  0  0  0  0  0  0  0
  129.5042  137.3994  163.1451 H   0  0  0  0  0  0  0  0  0  0  0  0
  128.0982  136.3080  163.1655 H   0  0  0  0  0  0  0  0  0  0  0  0
  1  2  1  0
  1 28  1  0
  1 29  1  0
  1 30  1  0
  2  3  1  0
  2 31  1  0
  3  4  2  0
  3  7  1  0
  4  5  1  0
  4  6  1  0
  7  8  1  0
  7 32  1  0
  8  9  1  1
  8 11  1  0
  8 10  1  0
 10 11  1  0
 10 33  1  0
 10 34  1  0
 11 12  1  1
 11 13  1  0
 13 14  1  0
 13 35  1  0
 14 15  1  0
 14 36  1  0
 14 37  1  0
 15 21  1  0
 15 16  2  0
 16 17  1  0
 16 38  1  0
 17 18  2  0
 17 39  1  0
 18 19  1  0
 18 20  1  0
 19 40  1  0
 20 21  2  0
 20 41  1  0
 21 22  1  0
 22 26  1  0
 22 23  2  0
 23 24  1  0
 23 42  1  0
 24 25  2  0
 24 43  1  0
 25 26  1  0
 26 27  1  0
 27 44  1  0
 27 45  1  0
 27 46  1  0
M  CHG  1   4   1
M  END
>  <DOCK_score>  (1) 
-42.624706

>  <SMILES>  (1) 
CNC(=[NH2+])N[C@@H]1C[C@@H]1NCc1ccc(O)cc1-c1ccnn1C

$$$$
