Cc1ccc([C@H](Nc2[nH]cc(-c3cccc(O)c3)[nH+]2)c2ccccc2)cc1
     RDKit          3D

 49 52  0  0  1  0  0  0  0  0999 V2000
  129.5943  141.1631  161.9557 C   0  0  0  0  0  0  0  0  0  0  0  0
  129.3730  139.7679  161.4310 C   0  0  0  0  0  0  0  0  0  0  0  0
  128.6689  138.8490  162.1865 C   0  0  0  0  0  0  0  0  0  0  0  0
  128.4659  137.5690  161.7053 C   0  0  0  0  0  0  0  0  0  0  0  0
  128.9670  137.2081  160.4686 C   0  0  0  0  0  0  0  0  0  0  0  0
  128.7460  135.8127  159.9441 C   0  0  2  0  0  0  0  0  0  0  0  0
  128.6827  135.1162  160.7802 H   0  0  0  0  0  0  0  0  0  0  0  0
  129.8645  135.4341  159.0770 N   0  0  0  0  0  0  0  0  0  0  0  0
  129.8830  134.1872  158.4757 C   0  0  0  0  0  0  0  0  0  0  0  0
  129.3302  133.0530  158.9856 N   0  0  0  0  0  0  0  0  0  0  0  0
  128.8561  132.9735  159.8282 H   0  0  0  0  0  0  0  0  0  0  0  0
  129.5648  132.0422  158.0854 C   0  0  0  0  0  0  0  0  0  0  0  0
  130.2604  132.5855  157.0562 C   0  0  0  0  0  0  0  0  0  0  0  0
  130.7402  131.8662  155.8507 C   0  0  0  0  0  0  0  0  0  0  0  0
  131.0722  130.5144  155.9291 C   0  0  0  0  0  0  0  0  0  0  0  0
  131.5132  129.8462  154.8050 C   0  0  0  0  0  0  0  0  0  0  0  0
  131.6372  130.5162  153.6019 C   0  0  0  0  0  0  0  0  0  0  0  0
  131.3141  131.8634  153.5166 C   0  0  0  0  0  0  0  0  0  0  0  0
  131.4383  132.5181  152.3322 O   0  0  0  0  0  0  0  0  0  0  0  0
  130.8656  132.5408  154.6387 C   0  0  0  0  0  0  0  0  0  0  0  0
  130.4405  133.9033  157.3240 N   0  0  0  0  0  0  0  0  0  0  0  0
  130.9078  134.5343  156.7545 H   0  0  0  0  0  0  0  0  0  0  0  0
  127.4623  135.7696  159.1560 C   0  0  0  0  0  0  0  0  0  0  0  0
  126.2713  135.4704  159.7906 C   0  0  0  0  0  0  0  0  0  0  0  0
  125.0938  135.4313  159.0677 C   0  0  0  0  0  0  0  0  0  0  0  0
  125.1071  135.6920  157.7102 C   0  0  0  0  0  0  0  0  0  0  0  0
  126.2981  135.9917  157.0757 C   0  0  0  0  0  0  0  0  0  0  0  0
  127.4760  136.0289  157.7982 C   0  0  0  0  0  0  0  0  0  0  0  0
  129.6755  138.1254  159.7153 C   0  0  0  0  0  0  0  0  0  0  0  0
  129.8737  139.4071  160.1941 C   0  0  0  0  0  0  0  0  0  0  0  0
  130.5227  141.1939  162.5259 H   0  0  0  0  0  0  0  0  0  0  0  0
  129.6580  141.8598  161.1197 H   0  0  0  0  0  0  0  0  0  0  0  0
  128.7621  141.4450  162.6008 H   0  0  0  0  0  0  0  0  0  0  0  0
  128.2778  139.1309  163.1529 H   0  0  0  0  0  0  0  0  0  0  0  0
  127.9161  136.8510  162.2957 H   0  0  0  0  0  0  0  0  0  0  0  0
  130.5921  136.0571  158.9242 H   0  0  0  0  0  0  0  0  0  0  0  0
  129.2574  131.0112  158.1812 H   0  0  0  0  0  0  0  0  0  0  0  0
  130.9807  129.9893  156.8685 H   0  0  0  0  0  0  0  0  0  0  0  0
  131.7663  128.7980  154.8662 H   0  0  0  0  0  0  0  0  0  0  0  0
  131.9868  129.9898  152.7260 H   0  0  0  0  0  0  0  0  0  0  0  0
  131.7582  131.9632  151.6078 H   0  0  0  0  0  0  0  0  0  0  0  0
  130.6143  133.5890  154.5739 H   0  0  0  0  0  0  0  0  0  0  0  0
  126.2608  135.2675  160.8513 H   0  0  0  0  0  0  0  0  0  0  0  0
  124.1631  135.1976  159.5634 H   0  0  0  0  0  0  0  0  0  0  0  0
  124.1877  135.6572  157.1444 H   0  0  0  0  0  0  0  0  0  0  0  0
  126.3086  136.1950  156.0149 H   0  0  0  0  0  0  0  0  0  0  0  0
  128.4066  136.2624  157.3023 H   0  0  0  0  0  0  0  0  0  0  0  0
  130.0707  137.8420  158.7510 H   0  0  0  0  0  0  0  0  0  0  0  0
  130.4234  140.1250  159.6036 H   0  0  0  0  0  0  0  0  0  0  0  0
  1  2  1  0
  1 31  1  0
  1 32  1  0
  1 33  1  0
  2 30  2  0
  2  3  1  0
  3  4  2  0
  3 34  1  0
  4  5  1  0
  4 35  1  0
  5  6  1  0
  5 29  2  0
  6  7  1  1
  6  8  1  0
  6 23  1  0
  8 36  1  0
  9  8  1  0
  9 21  2  0
  9 10  1  0
 10 11  1  0
 10 12  1  0
 12 13  2  0
 12 37  1  0
 13 14  1  0
 13 21  1  0
 14 20  1  0
 14 15  2  0
 15 16  1  0
 15 38  1  0
 16 17  2  0
 16 39  1  0
 17 18  1  0
 17 40  1  0
 18 19  1  0
 18 20  2  0
 19 41  1  0
 20 42  1  0
 21 22  1  0
 23 28  1  0
 23 24  2  0
 24 25  1  0
 24 43  1  0
 25 26  2  0
 25 44  1  0
 26 27  1  0
 26 45  1  0
 27 28  2  0
 27 46  1  0
 28 47  1  0
 29 30  1  0
 29 48  1  0
 30 49  1  0
M  CHG  1  21   1
M  END
>  <DOCK_score>  (1) 
-56.278034

>  <SMILES>  (1) 
Cc1ccc([C@H](Nc2[nH]cc(-c3cccc(O)c3)[nH+]2)c2ccccc2)cc1

$$$$
