OCC[NH+]=C(NCc1cccs1)N[C@H]1C[C@@H](O)C1
     RDKit          3D

 38 39  0  0  1  0  0  0  0  0999 V2000
  131.2850  138.7304  159.0599 O   0  0  0  0  0  0  0  0  0  0  0  0
  131.1591  138.4379  160.4530 C   0  0  0  0  0  0  0  0  0  0  0  0
  130.0043  137.4570  160.6657 C   0  0  0  0  0  0  0  0  0  0  0  0
  130.2728  136.2193  159.9292 N   0  0  0  0  0  0  0  0  0  0  0  0
  131.0885  136.1299  159.4121 H   0  0  0  0  0  0  0  0  0  0  0  0
  129.4156  135.2383  159.9688 C   0  0  0  0  0  0  0  0  0  0  0  0
  129.6677  134.0768  159.2775 N   0  0  0  0  0  0  0  0  0  0  0  0
  130.8997  133.9421  158.4965 C   0  0  0  0  0  0  0  0  0  0  0  0
  130.9332  132.5855  157.8412 C   0  0  0  0  0  0  0  0  0  0  0  0
  131.4538  131.4829  158.3819 C   0  0  0  0  0  0  0  0  0  0  0  0
  131.3647  130.3486  157.5935 C   0  0  0  0  0  0  0  0  0  0  0  0
  130.7719  130.5300  156.4125 C   0  0  0  0  0  0  0  0  0  0  0  0
  130.2852  132.2122  156.2492 S   0  0  0  0  0  0  0  0  0  0  0  0
  128.2594  135.3649  160.7017 N   0  0  0  0  0  0  0  0  0  0  0  0
  127.2959  134.2622  160.7462 C   0  0  1  0  0  0  0  0  0  0  0  0
  127.7663  133.2845  160.6410 H   0  0  0  0  0  0  0  0  0  0  0  0
  126.3139  134.3493  161.9265 C   0  0  0  0  0  0  0  0  0  0  0  0
  125.2235  133.8727  160.9524 C   0  0  1  0  0  0  0  0  0  0  0  0
  125.1253  132.7882  160.9038 H   0  0  0  0  0  0  0  0  0  0  0  0
  123.9700  134.5361  161.1272 O   0  0  0  0  0  0  0  0  0  0  0  0
  126.0826  134.4666  159.8237 C   0  0  0  0  0  0  0  0  0  0  0  0
  131.4640  137.9556  158.5099 H   0  0  0  0  0  0  0  0  0  0  0  0
  130.9592  139.3587  161.0010 H   0  0  0  0  0  0  0  0  0  0  0  0
  132.0854  137.9927  160.8159 H   0  0  0  0  0  0  0  0  0  0  0  0
  129.0779  137.9021  160.3026 H   0  0  0  0  0  0  0  0  0  0  0  0
  129.9082  137.2339  161.7284 H   0  0  0  0  0  0  0  0  0  0  0  0
  129.0298  133.3467  159.3070 H   0  0  0  0  0  0  0  0  0  0  0  0
  131.7612  134.0486  159.1557 H   0  0  0  0  0  0  0  0  0  0  0  0
  130.9308  134.7167  157.7302 H   0  0  0  0  0  0  0  0  0  0  0  0
  131.9098  131.4756  159.3608 H   0  0  0  0  0  0  0  0  0  0  0  0
  131.7466  129.3894  157.9105 H   0  0  0  0  0  0  0  0  0  0  0  0
  130.6154  129.7617  155.6698 H   0  0  0  0  0  0  0  0  0  0  0  0
  128.0815  136.1842  161.1894 H   0  0  0  0  0  0  0  0  0  0  0  0
  126.5268  133.6388  162.7251 H   0  0  0  0  0  0  0  0  0  0  0  0
  126.1594  135.3647  162.2918 H   0  0  0  0  0  0  0  0  0  0  0  0
  124.0112  135.4941  161.0023 H   0  0  0  0  0  0  0  0  0  0  0  0
  125.8649  135.5139  159.6141 H   0  0  0  0  0  0  0  0  0  0  0  0
  126.1090  133.8506  158.9248 H   0  0  0  0  0  0  0  0  0  0  0  0
  1  2  1  0
  1 22  1  0
  2  3  1  0
  2 23  1  0
  2 24  1  0
  3  4  1  0
  3 25  1  0
  3 26  1  0
  4  5  1  0
  6  4  2  0
  6  7  1  0
  6 14  1  0
  7  8  1  0
  7 27  1  0
  8  9  1  0
  8 28  1  0
  8 29  1  0
  9 13  1  0
  9 10  2  0
 10 11  1  0
 10 30  1  0
 11 12  2  0
 11 31  1  0
 12 13  1  0
 12 32  1  0
 14 15  1  0
 14 33  1  0
 15 16  1  6
 15 21  1  0
 15 17  1  0
 17 18  1  0
 17 34  1  0
 17 35  1  0
 18 19  1  6
 18 20  1  0
 18 21  1  0
 20 36  1  0
 21 37  1  0
 21 38  1  0
M  CHG  1   4   1
M  END
>  <DOCK_score>  (1) 
-42.952656

>  <SMILES>  (1) 
OCC[NH+]=C(NCc1cccs1)N[C@H]1C[C@@H](O)C1

$$$$
