O=C1NCC(NC(NC2CNC(=O)NC2)=[NH+][C@H]2COc3ccc(-c4cccc(F)c4)cc3C2)CN1
     RDKit          3D

 64 68  0  0  1  0  0  0  0  0999 V2000
  125.5169  136.7429  164.1389 O   0  0  0  0  0  0  0  0  0  0  0  0
  126.6658  136.7239  163.7412 C   0  0  0  0  0  0  0  0  0  0  0  0
  127.6579  136.6488  164.6417 N   0  0  0  0  0  0  0  0  0  0  0  0
  129.0616  136.6340  164.2270 C   0  0  0  0  0  0  0  0  0  0  0  0
  129.1690  136.0045  162.8339 C   0  0  0  0  0  0  0  0  0  0  0  0
  130.5539  136.0852  162.3630 N   0  0  0  0  0  0  0  0  0  0  0  0
  130.8910  135.5805  161.1294 C   0  0  0  0  0  0  0  0  0  0  0  0
  131.9240  136.1412  160.4162 N   0  0  0  0  0  0  0  0  0  0  0  0
  132.6656  137.2764  160.9707 C   0  0  0  0  0  0  0  0  0  0  0  0
  131.7110  138.4540  161.1957 C   0  0  0  0  0  0  0  0  0  0  0  0
  132.4812  139.6187  161.6364 N   0  0  0  0  0  0  0  0  0  0  0  0
  133.7606  139.7899  161.2718 C   0  0  0  0  0  0  0  0  0  0  0  0
  134.3510  140.7793  161.6604 O   0  0  0  0  0  0  0  0  0  0  0  0
  134.4148  138.9128  160.4959 N   0  0  0  0  0  0  0  0  0  0  0  0
  133.7565  137.7092  159.9854 C   0  0  0  0  0  0  0  0  0  0  0  0
  130.2313  134.5704  160.6360 N   0  0  0  0  0  0  0  0  0  0  0  0
  129.2973  134.4427  160.8648 H   0  0  0  0  0  0  0  0  0  0  0  0
  130.9004  133.6279  159.7359 C   0  0  1  0  0  0  0  0  0  0  0  0
  131.9385  133.9287  159.5946 H   0  0  0  0  0  0  0  0  0  0  0  0
  130.8478  132.2160  160.3334 C   0  0  0  0  0  0  0  0  0  0  0  0
  131.5959  131.3413  159.4879 O   0  0  0  0  0  0  0  0  0  0  0  0
  131.3421  131.3765  158.1536 C   0  0  0  0  0  0  0  0  0  0  0  0
  131.7739  130.3096  157.3694 C   0  0  0  0  0  0  0  0  0  0  0  0
  131.5423  130.3044  156.0118 C   0  0  0  0  0  0  0  0  0  0  0  0
  130.8722  131.3732  155.4187 C   0  0  0  0  0  0  0  0  0  0  0  0
  130.6211  131.3756  153.9565 C   0  0  0  0  0  0  0  0  0  0  0  0
  130.5567  132.5812  153.2600 C   0  0  0  0  0  0  0  0  0  0  0  0
  130.3234  132.5789  151.8999 C   0  0  0  0  0  0  0  0  0  0  0  0
  130.1532  131.3831  151.2262 C   0  0  0  0  0  0  0  0  0  0  0  0
  130.2164  130.1813  151.9121 C   0  0  0  0  0  0  0  0  0  0  0  0
  130.0499  129.0161  151.2489 F   0  0  0  0  0  0  0  0  0  0  0  0
  130.4545  130.1726  153.2741 C   0  0  0  0  0  0  0  0  0  0  0  0
  130.4399  132.4382  156.2039 C   0  0  0  0  0  0  0  0  0  0  0  0
  130.6729  132.4378  157.5669 C   0  0  0  0  0  0  0  0  0  0  0  0
  130.1807  133.6049  158.3851 C   0  0  0  0  0  0  0  0  0  0  0  0
  128.2509  136.7745  161.8787 C   0  0  0  0  0  0  0  0  0  0  0  0
  126.8910  136.7805  162.4201 N   0  0  0  0  0  0  0  0  0  0  0  0
  127.4410  136.6026  165.5862 H   0  0  0  0  0  0  0  0  0  0  0  0
  129.6453  136.0484  164.9373 H   0  0  0  0  0  0  0  0  0  0  0  0
  129.4431  137.6546  164.1959 H   0  0  0  0  0  0  0  0  0  0  0  0
  128.8579  134.9608  162.8789 H   0  0  0  0  0  0  0  0  0  0  0  0
  131.2330  136.4949  162.9215 H   0  0  0  0  0  0  0  0  0  0  0  0
  132.1618  135.7851  159.5458 H   0  0  0  0  0  0  0  0  0  0  0  0
  133.1212  136.9884  161.9180 H   0  0  0  0  0  0  0  0  0  0  0  0
  131.1987  138.6909  160.2632 H   0  0  0  0  0  0  0  0  0  0  0  0
  130.9782  138.1884  161.9578 H   0  0  0  0  0  0  0  0  0  0  0  0
  132.0571  140.2793  162.2060 H   0  0  0  0  0  0  0  0  0  0  0  0
  135.3428  139.0796  160.2683 H   0  0  0  0  0  0  0  0  0  0  0  0
  134.4899  136.9098  159.8798 H   0  0  0  0  0  0  0  0  0  0  0  0
  133.3075  137.9221  159.0152 H   0  0  0  0  0  0  0  0  0  0  0  0
  131.2844  132.2234  161.3321 H   0  0  0  0  0  0  0  0  0  0  0  0
  129.8128  131.8786  160.3876 H   0  0  0  0  0  0  0  0  0  0  0  0
  132.2932  129.4814  157.8286 H   0  0  0  0  0  0  0  0  0  0  0  0
  131.8788  129.4743  155.4085 H   0  0  0  0  0  0  0  0  0  0  0  0
  130.6898  133.5161  153.7841 H   0  0  0  0  0  0  0  0  0  0  0  0
  130.2739  133.5132  151.3602 H   0  0  0  0  0  0  0  0  0  0  0  0
  129.9708  131.3862  150.1617 H   0  0  0  0  0  0  0  0  0  0  0  0
  130.5075  129.2355  153.8083 H   0  0  0  0  0  0  0  0  0  0  0  0
  129.9206  133.2676  155.7469 H   0  0  0  0  0  0  0  0  0  0  0  0
  129.1074  133.5069  158.5476 H   0  0  0  0  0  0  0  0  0  0  0  0
  130.3826  134.5334  157.8508 H   0  0  0  0  0  0  0  0  0  0  0  0
  128.6074  137.7996  161.7778 H   0  0  0  0  0  0  0  0  0  0  0  0
  128.2531  136.2903  160.9020 H   0  0  0  0  0  0  0  0  0  0  0  0
  126.1373  136.8259  161.8111 H   0  0  0  0  0  0  0  0  0  0  0  0
  1  2  2  0
  2 37  1  0
  2  3  1  0
  3  4  1  0
  3 38  1  0
  4  5  1  0
  4 39  1  0
  4 40  1  0
  5  6  1  0
  5 36  1  0
  5 41  1  0
  6  7  1  0
  6 42  1  0
  7  8  1  0
  7 16  2  0
  8  9  1  0
  8 43  1  0
  9 15  1  0
  9 10  1  0
  9 44  1  0
 10 11  1  0
 10 45  1  0
 10 46  1  0
 11 12  1  0
 11 47  1  0
 12 13  2  0
 12 14  1  0
 14 15  1  0
 14 48  1  0
 15 49  1  0
 15 50  1  0
 16 17  1  0
 16 18  1  0
 18 19  1  6
 18 35  1  0
 18 20  1  0
 20 21  1  0
 20 51  1  0
 20 52  1  0
 21 22  1  0
 22 34  2  0
 22 23  1  0
 23 24  2  0
 23 53  1  0
 24 25  1  0
 24 54  1  0
 25 26  1  0
 25 33  2  0
 26 32  1  0
 26 27  2  0
 27 28  1  0
 27 55  1  0
 28 29  2  0
 28 56  1  0
 29 30  1  0
 29 57  1  0
 30 31  1  0
 30 32  2  0
 32 58  1  0
 33 34  1  0
 33 59  1  0
 34 35  1  0
 35 60  1  0
 35 61  1  0
 36 37  1  0
 36 62  1  0
 36 63  1  0
 37 64  1  0
M  CHG  1  16   1
M  END
>  <DOCK_score>  (1) 
-55.500172

>  <SMILES>  (1) 
O=C1NCC(NC(NC2CNC(=O)NC2)=[NH+][C@H]2COc3ccc(-c4cccc(F)c4)cc3C2)CN1

$$$$
