Cc1ccc([C@H](c2ccccc2Cl)[NH+]2CCN(c3cccc4cc[nH]c34)CC2)cc1
     RDKit          3D

 57 61  0  0  1  0  0  0  0  0999 V2000
  131.5755  129.9197  154.8813 C   0  0  0  0  0  0  0  0  0  0  0  0
  131.0663  130.8465  155.9552 C   0  0  0  0  0  0  0  0  0  0  0  0
  130.6479  130.3342  157.1689 C   0  0  0  0  0  0  0  0  0  0  0  0
  130.1809  131.1842  158.1539 C   0  0  0  0  0  0  0  0  0  0  0  0
  130.1332  132.5466  157.9254 C   0  0  0  0  0  0  0  0  0  0  0  0
  129.6242  133.4734  158.9993 C   0  0  2  0  0  0  0  0  0  0  0  0
  129.3420  132.8921  159.8770 H   0  0  0  0  0  0  0  0  0  0  0  0
  128.4225  134.2244  158.4864 C   0  0  0  0  0  0  0  0  0  0  0  0
  128.5877  135.4363  157.8423 C   0  0  0  0  0  0  0  0  0  0  0  0
  127.4857  136.1250  157.3716 C   0  0  0  0  0  0  0  0  0  0  0  0
  126.2173  135.6028  157.5454 C   0  0  0  0  0  0  0  0  0  0  0  0
  126.0508  134.3915  158.1896 C   0  0  0  0  0  0  0  0  0  0  0  0
  127.1542  133.6984  158.6552 C   0  0  0  0  0  0  0  0  0  0  0  0
  126.9466  132.1729  159.4572 Cl  0  0  0  0  0  0  0  0  0  0  0  0
  130.6797  134.4282  159.3628 N   0  0  0  0  0  0  0  0  0  0  0  0
  130.9407  134.9661  158.5499 H   0  0  0  0  0  0  0  0  0  0  0  0
  131.8512  133.6960  159.8618 C   0  0  0  0  0  0  0  0  0  0  0  0
  132.9580  134.6891  160.2229 C   0  0  0  0  0  0  0  0  0  0  0  0
  132.4640  135.6162  161.2507 N   0  0  0  0  0  0  0  0  0  0  0  0
  133.4669  136.5068  161.6461 C   0  0  0  0  0  0  0  0  0  0  0  0
  133.8822  136.5455  162.9660 C   0  0  0  0  0  0  0  0  0  0  0  0
  134.8816  137.4209  163.3660 C   0  0  0  0  0  0  0  0  0  0  0  0
  135.4638  138.2691  162.4670 C   0  0  0  0  0  0  0  0  0  0  0  0
  135.0570  138.2533  161.1297 C   0  0  0  0  0  0  0  0  0  0  0  0
  135.4561  139.0030  159.9363 C   0  0  0  0  0  0  0  0  0  0  0  0
  134.7072  138.5493  158.9184 C   0  0  0  0  0  0  0  0  0  0  0  0
  133.8615  137.5708  159.3626 N   0  0  0  0  0  0  0  0  0  0  0  0
  133.2237  137.0923  158.8102 H   0  0  0  0  0  0  0  0  0  0  0  0
  134.0509  137.3660  160.7125 C   0  0  0  0  0  0  0  0  0  0  0  0
  131.2759  136.3386  160.7745 C   0  0  0  0  0  0  0  0  0  0  0  0
  130.1831  135.3319  160.4088 C   0  0  0  0  0  0  0  0  0  0  0  0
  130.5472  133.0586  156.7099 C   0  0  0  0  0  0  0  0  0  0  0  0
  131.0183  132.2089  155.7264 C   0  0  0  0  0  0  0  0  0  0  0  0
  130.7441  129.6002  154.2530 H   0  0  0  0  0  0  0  0  0  0  0  0
  132.3127  130.4412  154.2709 H   0  0  0  0  0  0  0  0  0  0  0  0
  132.0378  129.0475  155.3433 H   0  0  0  0  0  0  0  0  0  0  0  0
  130.6855  129.2696  157.3476 H   0  0  0  0  0  0  0  0  0  0  0  0
  129.8537  130.7839  159.1020 H   0  0  0  0  0  0  0  0  0  0  0  0
  129.5782  135.8449  157.7065 H   0  0  0  0  0  0  0  0  0  0  0  0
  127.6153  137.0717  156.8681 H   0  0  0  0  0  0  0  0  0  0  0  0
  125.3565  136.1417  157.1780 H   0  0  0  0  0  0  0  0  0  0  0  0
  125.0601  133.9834  158.3249 H   0  0  0  0  0  0  0  0  0  0  0  0
  132.2109  133.0162  159.0892 H   0  0  0  0  0  0  0  0  0  0  0  0
  131.5725  133.1246  160.7472 H   0  0  0  0  0  0  0  0  0  0  0  0
  133.8219  134.1469  160.6071 H   0  0  0  0  0  0  0  0  0  0  0  0
  133.2465  135.2510  159.3347 H   0  0  0  0  0  0  0  0  0  0  0  0
  133.4279  135.8850  163.6897 H   0  0  0  0  0  0  0  0  0  0  0  0
  135.1983  137.4357  164.3985 H   0  0  0  0  0  0  0  0  0  0  0  0
  136.2373  138.9505  162.7888 H   0  0  0  0  0  0  0  0  0  0  0  0
  136.2097  139.7748  159.8849 H   0  0  0  0  0  0  0  0  0  0  0  0
  134.7638  138.9050  157.9003 H   0  0  0  0  0  0  0  0  0  0  0  0
  131.5367  136.9277  159.8954 H   0  0  0  0  0  0  0  0  0  0  0  0
  130.9126  137.0002  161.5610 H   0  0  0  0  0  0  0  0  0  0  0  0
  129.3060  135.8650  160.0419 H   0  0  0  0  0  0  0  0  0  0  0  0
  129.9129  134.7522  161.2915 H   0  0  0  0  0  0  0  0  0  0  0  0
  130.5058  134.1226  156.5297 H   0  0  0  0  0  0  0  0  0  0  0  0
  131.3455  132.6092  154.7783 H   0  0  0  0  0  0  0  0  0  0  0  0
  1  2  1  0
  1 34  1  0
  1 35  1  0
  1 36  1  0
  2 33  2  0
  2  3  1  0
  3  4  2  0
  3 37  1  0
  4  5  1  0
  4 38  1  0
  5  6  1  0
  5 32  2  0
  6  7  1  1
  6  8  1  0
  6 15  1  0
  8 13  1  0
  8  9  2  0
  9 10  1  0
  9 39  1  0
 10 11  2  0
 10 40  1  0
 11 12  1  0
 11 41  1  0
 12 13  2  0
 12 42  1  0
 13 14  1  0
 15 16  1  0
 15 31  1  0
 15 17  1  0
 17 18  1  0
 17 43  1  0
 17 44  1  0
 18 19  1  0
 18 45  1  0
 18 46  1  0
 19 20  1  0
 19 30  1  0
 20 29  1  0
 20 21  2  0
 21 22  1  0
 21 47  1  0
 22 23  2  0
 22 48  1  0
 23 24  1  0
 23 49  1  0
 24 29  2  0
 24 25  1  0
 25 26  2  0
 25 50  1  0
 26 27  1  0
 26 51  1  0
 27 28  1  0
 27 29  1  0
 30 31  1  0
 30 52  1  0
 30 53  1  0
 31 54  1  0
 31 55  1  0
 32 33  1  0
 32 56  1  0
 33 57  1  0
M  CHG  1  15   1
M  END
>  <DOCK_score>  (1) 
-56.824711

>  <SMILES>  (1) 
Cc1ccc([C@H](c2ccccc2Cl)[NH+]2CCN(c3cccc4cc[nH]c34)CC2)cc1

$$$$
