Fc1ccc(C[C@@H](Nc2[nH]cc(-c3ccc(-c4ccccc4)cc3)[nH+]2)c2ccccc2)cc1
     RDKit          3D

 58 62  0  0  1  0  0  0  0  0999 V2000
  126.0745  132.9834  159.8291 F   0  0  0  0  0  0  0  0  0  0  0  0
  127.0410  133.8273  160.2520 C   0  0  0  0  0  0  0  0  0  0  0  0
  127.5342  134.7994  159.3982 C   0  0  0  0  0  0  0  0  0  0  0  0
  128.5190  135.6658  159.8337 C   0  0  0  0  0  0  0  0  0  0  0  0
  129.0150  135.5589  161.1197 C   0  0  0  0  0  0  0  0  0  0  0  0
  130.0888  136.5042  161.5934 C   0  0  0  0  0  0  0  0  0  0  0  0
  131.4644  135.9084  161.2867 C   0  0  1  0  0  0  0  0  0  0  0  0
  131.5691  134.9527  161.8006 H   0  0  0  0  0  0  0  0  0  0  0  0
  131.5968  135.7033  159.8423 N   0  0  0  0  0  0  0  0  0  0  0  0
  131.2067  134.5023  159.2750 C   0  0  0  0  0  0  0  0  0  0  0  0
  130.6825  133.4415  159.9474 N   0  0  0  0  0  0  0  0  0  0  0  0
  130.5170  133.3911  160.9019 H   0  0  0  0  0  0  0  0  0  0  0  0
  130.4315  132.4550  159.0253 C   0  0  0  0  0  0  0  0  0  0  0  0
  130.8093  132.9410  157.8163 C   0  0  0  0  0  0  0  0  0  0  0  0
  130.7229  132.2237  156.5218 C   0  0  0  0  0  0  0  0  0  0  0  0
  129.9486  132.7455  155.4855 C   0  0  0  0  0  0  0  0  0  0  0  0
  129.8718  132.0812  154.2814 C   0  0  0  0  0  0  0  0  0  0  0  0
  130.5601  130.8823  154.1013 C   0  0  0  0  0  0  0  0  0  0  0  0
  130.4728  130.1634  152.8071 C   0  0  0  0  0  0  0  0  0  0  0  0
  130.5887  128.7749  152.7682 C   0  0  0  0  0  0  0  0  0  0  0  0
  130.5021  128.1115  151.5612 C   0  0  0  0  0  0  0  0  0  0  0  0
  130.3106  128.8226  150.3903 C   0  0  0  0  0  0  0  0  0  0  0  0
  130.1996  130.2010  150.4223 C   0  0  0  0  0  0  0  0  0  0  0  0
  130.2798  130.8747  151.6240 C   0  0  0  0  0  0  0  0  0  0  0  0
  131.3307  130.3574  155.1392 C   0  0  0  0  0  0  0  0  0  0  0  0
  131.4114  131.0239  156.3418 C   0  0  0  0  0  0  0  0  0  0  0  0
  131.2762  134.2017  158.0013 N   0  0  0  0  0  0  0  0  0  0  0  0
  131.6100  134.7861  157.3027 H   0  0  0  0  0  0  0  0  0  0  0  0
  132.5382  136.8537  161.7605 C   0  0  0  0  0  0  0  0  0  0  0  0
  133.7580  136.8951  161.1116 C   0  0  0  0  0  0  0  0  0  0  0  0
  134.7415  137.7652  161.5436 C   0  0  0  0  0  0  0  0  0  0  0  0
  134.5079  138.5879  162.6301 C   0  0  0  0  0  0  0  0  0  0  0  0
  133.2901  138.5424  163.2822 C   0  0  0  0  0  0  0  0  0  0  0  0
  132.3053  137.6752  162.8475 C   0  0  0  0  0  0  0  0  0  0  0  0
  128.5271  134.5854  161.9713 C   0  0  0  0  0  0  0  0  0  0  0  0
  127.5427  133.7176  161.5378 C   0  0  0  0  0  0  0  0  0  0  0  0
  127.1464  134.8836  158.3937 H   0  0  0  0  0  0  0  0  0  0  0  0
  128.9010  136.4267  159.1693 H   0  0  0  0  0  0  0  0  0  0  0  0
  129.9842  137.4598  161.0796 H   0  0  0  0  0  0  0  0  0  0  0  0
  129.9904  136.6568  162.6682 H   0  0  0  0  0  0  0  0  0  0  0  0
  131.9578  136.4092  159.2833 H   0  0  0  0  0  0  0  0  0  0  0  0
  130.0132  131.4794  159.2243 H   0  0  0  0  0  0  0  0  0  0  0  0
  129.4122  133.6724  155.6260 H   0  0  0  0  0  0  0  0  0  0  0  0
  129.2753  132.4871  153.4777 H   0  0  0  0  0  0  0  0  0  0  0  0
  130.7428  128.2191  153.6814 H   0  0  0  0  0  0  0  0  0  0  0  0
  130.5877  127.0352  151.5303 H   0  0  0  0  0  0  0  0  0  0  0  0
  130.2479  128.2995  149.4475 H   0  0  0  0  0  0  0  0  0  0  0  0
  130.0502  130.7511  149.5049 H   0  0  0  0  0  0  0  0  0  0  0  0
  130.1937  131.9510  151.6478 H   0  0  0  0  0  0  0  0  0  0  0  0
  131.8637  129.4285  154.9998 H   0  0  0  0  0  0  0  0  0  0  0  0
  132.0080  130.6180  157.1453 H   0  0  0  0  0  0  0  0  0  0  0  0
  133.9416  136.2500  160.2651 H   0  0  0  0  0  0  0  0  0  0  0  0
  135.6929  137.8008  161.0338 H   0  0  0  0  0  0  0  0  0  0  0  0
  135.2776  139.2655  162.9690 H   0  0  0  0  0  0  0  0  0  0  0  0
  133.1080  139.1848  164.1310 H   0  0  0  0  0  0  0  0  0  0  0  0
  131.3536  137.6399  163.3571 H   0  0  0  0  0  0  0  0  0  0  0  0
  128.9151  134.5030  162.9758 H   0  0  0  0  0  0  0  0  0  0  0  0
  127.1616  132.9571  162.2032 H   0  0  0  0  0  0  0  0  0  0  0  0
  1  2  1  0
  2 36  2  0
  2  3  1  0
  3  4  2  0
  3 37  1  0
  4  5  1  0
  4 38  1  0
  5  6  1  0
  5 35  2  0
  6  7  1  0
  6 39  1  0
  6 40  1  0
  7  8  1  1
  7  9  1  0
  7 29  1  0
  9 41  1  0
 10  9  1  0
 10 27  2  0
 10 11  1  0
 11 12  1  0
 11 13  1  0
 13 14  2  0
 13 42  1  0
 14 15  1  0
 14 27  1  0
 15 26  1  0
 15 16  2  0
 16 17  1  0
 16 43  1  0
 17 18  2  0
 17 44  1  0
 18 19  1  0
 18 25  1  0
 19 24  1  0
 19 20  2  0
 20 21  1  0
 20 45  1  0
 21 22  2  0
 21 46  1  0
 22 23  1  0
 22 47  1  0
 23 24  2  0
 23 48  1  0
 24 49  1  0
 25 26  2  0
 25 50  1  0
 26 51  1  0
 27 28  1  0
 29 34  1  0
 29 30  2  0
 30 31  1  0
 30 52  1  0
 31 32  2  0
 31 53  1  0
 32 33  1  0
 32 54  1  0
 33 34  2  0
 33 55  1  0
 34 56  1  0
 35 36  1  0
 35 57  1  0
 36 58  1  0
M  CHG  1  27   1
M  END
>  <DOCK_score>  (1) 
-63.092896

>  <SMILES>  (1) 
Fc1ccc(C[C@@H](Nc2[nH]cc(-c3ccc(-c4ccccc4)cc3)[nH+]2)c2ccccc2)cc1

$$$$
