Brc1ccc(Nc2cccc(C3=CC[N@@H+](Cc4ccc(-c5ccccc5)[nH]4)CC3)c2)cc1
     RDKit          3D

 59 63  0  0  1  0  0  0  0  0999 V2000
  135.9406  134.6118  167.4855 Br  0  0  0  0  0  0  0  0  0  0  0  0
  136.1758  135.9837  166.2055 C   0  0  0  0  0  0  0  0  0  0  0  0
  136.7766  135.7002  164.9917 C   0  0  0  0  0  0  0  0  0  0  0  0
  136.9496  136.7000  164.0551 C   0  0  0  0  0  0  0  0  0  0  0  0
  136.5201  137.9918  164.3325 C   0  0  0  0  0  0  0  0  0  0  0  0
  136.6944  139.0059  163.3868 N   0  0  0  0  0  0  0  0  0  0  0  0
  136.1041  138.8938  162.1254 C   0  0  0  0  0  0  0  0  0  0  0  0
  136.7081  139.4824  161.0199 C   0  0  0  0  0  0  0  0  0  0  0  0
  136.1252  139.3787  159.7715 C   0  0  0  0  0  0  0  0  0  0  0  0
  134.9453  138.6799  159.6115 C   0  0  0  0  0  0  0  0  0  0  0  0
  134.3311  138.0853  160.7145 C   0  0  0  0  0  0  0  0  0  0  0  0
  133.0642  137.3424  160.5467 C   0  0  0  0  0  0  0  0  0  0  0  0
  133.0266  136.0699  160.8780 C   0  0  0  0  0  0  0  0  0  0  0  0
  131.7889  135.2292  160.7512 C   0  0  0  0  0  0  0  0  0  0  0  0
  130.8275  135.8673  159.8445 N   0  0  1  0  0  0  0  0  0  0  0  0
  131.1979  135.8680  158.9059 H   0  0  0  0  0  0  0  0  0  0  0  0
  129.5587  135.1276  159.8737 C   0  0  0  0  0  0  0  0  0  0  0  0
  129.6697  133.9048  158.9998 C   0  0  0  0  0  0  0  0  0  0  0  0
  129.2456  132.6637  159.3218 C   0  0  0  0  0  0  0  0  0  0  0  0
  129.5356  131.8191  158.2378 C   0  0  0  0  0  0  0  0  0  0  0  0
  130.1337  132.5801  157.2790 C   0  0  0  0  0  0  0  0  0  0  0  0
  130.6105  132.1048  155.9626 C   0  0  0  0  0  0  0  0  0  0  0  0
  130.6132  132.9670  154.8651 C   0  0  0  0  0  0  0  0  0  0  0  0
  131.0643  132.5188  153.6407 C   0  0  0  0  0  0  0  0  0  0  0  0
  131.5036  131.2148  153.4971 C   0  0  0  0  0  0  0  0  0  0  0  0
  131.4981  130.3533  154.5796 C   0  0  0  0  0  0  0  0  0  0  0  0
  131.0544  130.7905  155.8107 C   0  0  0  0  0  0  0  0  0  0  0  0
  130.2097  133.8662  157.7489 N   0  0  0  0  0  0  0  0  0  0  0  0
  130.5871  134.6218  157.2717 H   0  0  0  0  0  0  0  0  0  0  0  0
  130.6003  137.2526  160.2853 C   0  0  0  0  0  0  0  0  0  0  0  0
  131.8627  138.0700  160.0089 C   0  0  0  0  0  0  0  0  0  0  0  0
  134.9158  138.1948  161.9756 C   0  0  0  0  0  0  0  0  0  0  0  0
  135.9222  138.2746  165.5541 C   0  0  0  0  0  0  0  0  0  0  0  0
  135.7474  137.2696  166.4849 C   0  0  0  0  0  0  0  0  0  0  0  0
  137.1106  134.6959  164.7768 H   0  0  0  0  0  0  0  0  0  0  0  0
  137.4188  136.4782  163.1080 H   0  0  0  0  0  0  0  0  0  0  0  0
  137.2253  139.7875  163.6061 H   0  0  0  0  0  0  0  0  0  0  0  0
  137.6335  140.0264  161.1383 H   0  0  0  0  0  0  0  0  0  0  0  0
  136.5964  139.8420  158.9173 H   0  0  0  0  0  0  0  0  0  0  0  0
  134.4952  138.5973  158.6332 H   0  0  0  0  0  0  0  0  0  0  0  0
  133.9264  135.6090  161.2580 H   0  0  0  0  0  0  0  0  0  0  0  0
  132.0579  134.2483  160.3593 H   0  0  0  0  0  0  0  0  0  0  0  0
  131.3326  135.1088  161.7338 H   0  0  0  0  0  0  0  0  0  0  0  0
  129.3387  134.8240  160.8971 H   0  0  0  0  0  0  0  0  0  0  0  0
  128.7569  135.7668  159.5041 H   0  0  0  0  0  0  0  0  0  0  0  0
  128.7696  132.3728  160.2466 H   0  0  0  0  0  0  0  0  0  0  0  0
  129.3239  130.7620  158.1758 H   0  0  0  0  0  0  0  0  0  0  0  0
  130.2663  133.9840  154.9749 H   0  0  0  0  0  0  0  0  0  0  0  0
  131.0708  133.1862  152.7916 H   0  0  0  0  0  0  0  0  0  0  0  0
  131.8518  130.8676  152.5355 H   0  0  0  0  0  0  0  0  0  0  0  0
  131.8422  129.3365  154.4609 H   0  0  0  0  0  0  0  0  0  0  0  0
  131.0502  130.1169  156.6549 H   0  0  0  0  0  0  0  0  0  0  0  0
  129.7601  137.6780  159.7364 H   0  0  0  0  0  0  0  0  0  0  0  0
  130.3869  137.2662  161.3541 H   0  0  0  0  0  0  0  0  0  0  0  0
  131.7809  139.0431  160.4932 H   0  0  0  0  0  0  0  0  0  0  0  0
  131.9734  138.2082  158.9334 H   0  0  0  0  0  0  0  0  0  0  0  0
  134.4448  137.7370  162.8328 H   0  0  0  0  0  0  0  0  0  0  0  0
  135.5914  139.2788  165.7743 H   0  0  0  0  0  0  0  0  0  0  0  0
  135.2792  137.4880  167.4334 H   0  0  0  0  0  0  0  0  0  0  0  0
  1  2  1  0
  2 34  2  0
  2  3  1  0
  3  4  2  0
  3 35  1  0
  4  5  1  0
  4 36  1  0
  5  6  1  0
  5 33  2  0
  6  7  1  0
  6 37  1  0
  7 32  1  0
  7  8  2  0
  8  9  1  0
  8 38  1  0
  9 10  2  0
  9 39  1  0
 10 11  1  0
 10 40  1  0
 11 12  1  0
 11 32  2  0
 12 31  1  0
 12 13  2  0
 13 14  1  0
 13 41  1  0
 14 15  1  0
 14 42  1  0
 14 43  1  0
 15 16  1  6
 15 17  1  0
 15 30  1  0
 17 18  1  0
 17 44  1  0
 17 45  1  0
 18 28  1  0
 18 19  2  0
 19 20  1  0
 19 46  1  0
 20 21  2  0
 20 47  1  0
 21 22  1  0
 21 28  1  0
 22 27  1  0
 22 23  2  0
 23 24  1  0
 23 48  1  0
 24 25  2  0
 24 49  1  0
 25 26  1  0
 25 50  1  0
 26 27  2  0
 26 51  1  0
 27 52  1  0
 28 29  1  0
 30 31  1  0
 30 53  1  0
 30 54  1  0
 31 55  1  0
 31 56  1  0
 32 57  1  0
 33 34  1  0
 33 58  1  0
 34 59  1  0
M  CHG  1  15   1
M  END
>  <DOCK_score>  (1) 
-60.797958

>  <SMILES>  (1) 
Brc1ccc(Nc2cccc(C3=CC[N@@H+](Cc4ccc(-c5ccccc5)[nH]4)CC3)c2)cc1

$$$$
