FC(F)(F)c1ccc(-c2cc(Cl)ccc2Nc2[nH]cc(-c3ccccc3)[nH+]2)cc1
     RDKit          3D

 45 48  0  0  1  0  0  0  0  0999 V2000
  135.9456  137.7926  161.4423 F   0  0  0  0  0  0  0  0  0  0  0  0
  135.0914  138.6291  160.7157 C   0  0  0  0  0  0  0  0  0  0  0  0
  135.5664  138.7563  159.4059 F   0  0  0  0  0  0  0  0  0  0  0  0
  135.0478  139.8898  161.3204 F   0  0  0  0  0  0  0  0  0  0  0  0
  133.7067  138.0349  160.6923 C   0  0  0  0  0  0  0  0  0  0  0  0
  132.6866  138.6909  160.0271 C   0  0  0  0  0  0  0  0  0  0  0  0
  131.4164  138.1519  160.0026 C   0  0  0  0  0  0  0  0  0  0  0  0
  131.1625  136.9437  160.6496 C   0  0  0  0  0  0  0  0  0  0  0  0
  129.7997  136.3595  160.6274 C   0  0  0  0  0  0  0  0  0  0  0  0
  128.8838  136.6821  161.6261 C   0  0  0  0  0  0  0  0  0  0  0  0
  127.6157  136.1359  161.6009 C   0  0  0  0  0  0  0  0  0  0  0  0
  126.4757  136.5385  162.8467 Cl  0  0  0  0  0  0  0  0  0  0  0  0
  127.2499  135.2675  160.5854 C   0  0  0  0  0  0  0  0  0  0  0  0
  128.1480  134.9445  159.5869 C   0  0  0  0  0  0  0  0  0  0  0  0
  129.4275  135.4818  159.6026 C   0  0  0  0  0  0  0  0  0  0  0  0
  130.3380  135.1526  158.5968 N   0  0  0  0  0  0  0  0  0  0  0  0
  130.2707  133.9141  157.9798 C   0  0  0  0  0  0  0  0  0  0  0  0
  129.8280  132.7636  158.5570 N   0  0  0  0  0  0  0  0  0  0  0  0
  129.5059  132.6642  159.4665 H   0  0  0  0  0  0  0  0  0  0  0  0
  129.9217  131.7698  157.6142 C   0  0  0  0  0  0  0  0  0  0  0  0
  130.4139  132.3416  156.4869 C   0  0  0  0  0  0  0  0  0  0  0  0
  130.6795  131.6500  155.2018 C   0  0  0  0  0  0  0  0  0  0  0  0
  130.5708  132.3445  153.9983 C   0  0  0  0  0  0  0  0  0  0  0  0
  130.8250  131.6976  152.8060 C   0  0  0  0  0  0  0  0  0  0  0  0
  131.1758  130.3595  152.8032 C   0  0  0  0  0  0  0  0  0  0  0  0
  131.2792  129.6637  153.9943 C   0  0  0  0  0  0  0  0  0  0  0  0
  131.0333  130.3019  155.1930 C   0  0  0  0  0  0  0  0  0  0  0  0
  130.6227  133.6568  156.7436 N   0  0  0  0  0  0  0  0  0  0  0  0
  130.9728  134.3045  156.1120 H   0  0  0  0  0  0  0  0  0  0  0  0
  132.1932  136.2895  161.3225 C   0  0  0  0  0  0  0  0  0  0  0  0
  133.4607  136.8353  161.3357 C   0  0  0  0  0  0  0  0  0  0  0  0
  132.8845  139.6270  159.5260 H   0  0  0  0  0  0  0  0  0  0  0  0
  130.6207  138.6653  159.4836 H   0  0  0  0  0  0  0  0  0  0  0  0
  129.1651  137.3590  162.4192 H   0  0  0  0  0  0  0  0  0  0  0  0
  126.2562  134.8444  160.5719 H   0  0  0  0  0  0  0  0  0  0  0  0
  127.8557  134.2701  158.7957 H   0  0  0  0  0  0  0  0  0  0  0  0
  131.0179  135.7910  158.3300 H   0  0  0  0  0  0  0  0  0  0  0  0
  129.6510  130.7323  157.7439 H   0  0  0  0  0  0  0  0  0  0  0  0
  130.2922  133.3880  153.9991 H   0  0  0  0  0  0  0  0  0  0  0  0
  130.7461  132.2360  151.8731 H   0  0  0  0  0  0  0  0  0  0  0  0
  131.3699  129.8562  151.8676 H   0  0  0  0  0  0  0  0  0  0  0  0
  131.5536  128.6192  153.9862 H   0  0  0  0  0  0  0  0  0  0  0  0
  131.1152  129.7579  156.1223 H   0  0  0  0  0  0  0  0  0  0  0  0
  132.0012  135.3550  161.8289 H   0  0  0  0  0  0  0  0  0  0  0  0
  134.2610  136.3272  161.8530 H   0  0  0  0  0  0  0  0  0  0  0  0
  1  2  1  0
  2  3  1  0
  2  4  1  0
  2  5  1  0
  5 31  2  0
  5  6  1  0
  6  7  2  0
  6 32  1  0
  7  8  1  0
  7 33  1  0
  8  9  1  0
  8 30  2  0
  9 15  1  0
  9 10  2  0
 10 11  1  0
 10 34  1  0
 11 12  1  0
 11 13  2  0
 13 14  1  0
 13 35  1  0
 14 15  2  0
 14 36  1  0
 15 16  1  0
 16 37  1  0
 17 16  1  0
 17 28  2  0
 17 18  1  0
 18 19  1  0
 18 20  1  0
 20 21  2  0
 20 38  1  0
 21 22  1  0
 21 28  1  0
 22 27  1  0
 22 23  2  0
 23 24  1  0
 23 39  1  0
 24 25  2  0
 24 40  1  0
 25 26  1  0
 25 41  1  0
 26 27  2  0
 26 42  1  0
 27 43  1  0
 28 29  1  0
 30 31  1  0
 30 44  1  0
 31 45  1  0
M  CHG  1  28   1
M  END
>  <DOCK_score>  (1) 
-57.380524

>  <SMILES>  (1) 
FC(F)(F)c1ccc(-c2cc(Cl)ccc2Nc2[nH]cc(-c3ccccc3)[nH+]2)cc1

$$$$
