CCc1ccc(-c2c[nH]c(N[C@@H](CC3=C[C@@H]4C[C@H]3[C@H](O)[C@@H]4O)c3ccc(C)cc3)[nH+]2)cc1
     RDKit          3D

 64 68  0  0  1  0  0  0  0  0999 V2000
  132.2427  129.7647  152.5229 C   0  0  0  0  0  0  0  0  0  0  0  0
  130.8384  129.6360  153.1183 C   0  0  0  0  0  0  0  0  0  0  0  0
  130.7391  130.4887  154.3571 C   0  0  0  0  0  0  0  0  0  0  0  0
  130.3253  131.8049  154.2558 C   0  0  0  0  0  0  0  0  0  0  0  0
  130.2321  132.5905  155.3866 C   0  0  0  0  0  0  0  0  0  0  0  0
  130.5559  132.0555  156.6322 C   0  0  0  0  0  0  0  0  0  0  0  0
  130.4577  132.8949  157.8512 C   0  0  0  0  0  0  0  0  0  0  0  0
  130.1764  132.4549  159.1027 C   0  0  0  0  0  0  0  0  0  0  0  0
  130.1901  133.5554  159.9247 N   0  0  0  0  0  0  0  0  0  0  0  0
  130.0272  133.5603  160.8808 H   0  0  0  0  0  0  0  0  0  0  0  0
  130.4717  134.6378  159.1494 C   0  0  0  0  0  0  0  0  0  0  0  0
  130.5756  135.9443  159.5956 N   0  0  0  0  0  0  0  0  0  0  0  0
  130.3758  136.2520  161.0139 C   0  0  1  0  0  0  0  0  0  0  0  0
  131.1105  135.7108  161.6102 H   0  0  0  0  0  0  0  0  0  0  0  0
  130.5446  137.7559  161.2384 C   0  0  0  0  0  0  0  0  0  0  0  0
  132.0121  138.0922  161.3049 C   0  0  0  0  0  0  0  0  0  0  0  0
  132.7506  138.1077  162.3963 C   0  0  0  0  0  0  0  0  0  0  0  0
  134.1817  138.4990  162.0079 C   0  0  2  0  0  0  0  0  0  0  0  0
  134.8243  138.8740  162.8044 H   0  0  0  0  0  0  0  0  0  0  0  0
  133.8736  139.4888  160.8253 C   0  0  0  0  0  0  0  0  0  0  0  0
  132.8979  138.4809  160.1148 C   0  0  1  0  0  0  0  0  0  0  0  0
  132.3810  138.8303  159.2211 H   0  0  0  0  0  0  0  0  0  0  0  0
  133.8461  137.2534  159.9300 C   0  0  2  0  0  0  0  0  0  0  0  0
  134.4664  137.3784  159.0426 H   0  0  0  0  0  0  0  0  0  0  0  0
  133.0908  136.0432  159.8468 O   0  0  0  0  0  0  0  0  0  0  0  0
  134.7151  137.2657  161.2115 C   0  0  2  0  0  0  0  0  0  0  0  0
  135.7673  137.3981  160.9598 H   0  0  0  0  0  0  0  0  0  0  0  0
  134.5236  136.0636  161.9599 O   0  0  0  0  0  0  0  0  0  0  0  0
  128.9880  135.8349  161.4277 C   0  0  0  0  0  0  0  0  0  0  0  0
  127.8853  136.3911  160.8068 C   0  0  0  0  0  0  0  0  0  0  0  0
  126.6123  136.0055  161.1832 C   0  0  0  0  0  0  0  0  0  0  0  0
  126.4417  135.0706  162.1869 C   0  0  0  0  0  0  0  0  0  0  0  0
  125.0542  134.6527  162.6004 C   0  0  0  0  0  0  0  0  0  0  0  0
  127.5445  134.5183  162.8117 C   0  0  0  0  0  0  0  0  0  0  0  0
  128.8176  134.9008  162.4323 C   0  0  0  0  0  0  0  0  0  0  0  0
  130.6340  134.2388  157.9115 N   0  0  0  0  0  0  0  0  0  0  0  0
  130.8457  134.8127  157.1586 H   0  0  0  0  0  0  0  0  0  0  0  0
  130.9779  130.7305  156.7274 C   0  0  0  0  0  0  0  0  0  0  0  0
  131.0618  129.9525  155.5906 C   0  0  0  0  0  0  0  0  0  0  0  0
  132.9796  129.4316  153.2538 H   0  0  0  0  0  0  0  0  0  0  0  0
  132.3152  129.1479  151.6270 H   0  0  0  0  0  0  0  0  0  0  0  0
  132.4333  130.8061  152.2635 H   0  0  0  0  0  0  0  0  0  0  0  0
  130.6487  128.5948  153.3778 H   0  0  0  0  0  0  0  0  0  0  0  0
  130.1024  129.9691  152.3875 H   0  0  0  0  0  0  0  0  0  0  0  0
  130.0749  132.2184  153.2901 H   0  0  0  0  0  0  0  0  0  0  0  0
  129.9092  133.6179  155.3065 H   0  0  0  0  0  0  0  0  0  0  0  0
  129.9831  131.4340  159.3975 H   0  0  0  0  0  0  0  0  0  0  0  0
  130.7806  136.6559  158.9692 H   0  0  0  0  0  0  0  0  0  0  0  0
  130.0842  138.3002  160.4138 H   0  0  0  0  0  0  0  0  0  0  0  0
  130.0640  138.0398  162.1744 H   0  0  0  0  0  0  0  0  0  0  0  0
  132.4067  137.8811  163.3948 H   0  0  0  0  0  0  0  0  0  0  0  0
  134.7561  139.7094  160.2247 H   0  0  0  0  0  0  0  0  0  0  0  0
  133.3676  140.3943  161.1599 H   0  0  0  0  0  0  0  0  0  0  0  0
  132.4643  136.0204  159.1104 H   0  0  0  0  0  0  0  0  0  0  0  0
  134.7773  135.2602  161.4851 H   0  0  0  0  0  0  0  0  0  0  0  0
  128.0183  137.1243  160.0250 H   0  0  0  0  0  0  0  0  0  0  0  0
  125.7509  136.4366  160.6950 H   0  0  0  0  0  0  0  0  0  0  0  0
  124.7008  135.3054  163.3987 H   0  0  0  0  0  0  0  0  0  0  0  0
  124.3822  134.7286  161.7452 H   0  0  0  0  0  0  0  0  0  0  0  0
  125.0753  133.6228  162.9556 H   0  0  0  0  0  0  0  0  0  0  0  0
  127.4114  133.7878  163.5960 H   0  0  0  0  0  0  0  0  0  0  0  0
  129.6790  134.4693  162.9202 H   0  0  0  0  0  0  0  0  0  0  0  0
  131.2343  130.3122  157.6895 H   0  0  0  0  0  0  0  0  0  0  0  0
  131.3847  128.9245  155.6637 H   0  0  0  0  0  0  0  0  0  0  0  0
  1  2  1  0
  1 40  1  0
  1 41  1  0
  1 42  1  0
  2  3  1  0
  2 43  1  0
  2 44  1  0
  3 39  2  0
  3  4  1  0
  4  5  2  0
  4 45  1  0
  5  6  1  0
  5 46  1  0
  6  7  1  0
  6 38  2  0
  7 36  1  0
  7  8  2  0
  8  9  1  0
  8 47  1  0
  9 10  1  0
  9 11  1  0
 11 12  1  0
 11 36  2  0
 12 13  1  0
 12 48  1  0
 13 14  1  1
 13 15  1  0
 13 29  1  0
 15 16  1  0
 15 49  1  0
 15 50  1  0
 16 21  1  0
 16 17  2  0
 17 18  1  0
 17 51  1  0
 18 19  1  1
 18 26  1  0
 18 20  1  0
 20 21  1  0
 20 52  1  0
 20 53  1  0
 21 22  1  6
 21 23  1  0
 23 24  1  6
 23 25  1  0
 23 26  1  0
 25 54  1  0
 26 27  1  6
 26 28  1  0
 28 55  1  0
 29 35  1  0
 29 30  2  0
 30 31  1  0
 30 56  1  0
 31 32  2  0
 31 57  1  0
 32 33  1  0
 32 34  1  0
 33 58  1  0
 33 59  1  0
 33 60  1  0
 34 35  2  0
 34 61  1  0
 35 62  1  0
 36 37  1  0
 38 39  1  0
 38 63  1  0
 39 64  1  0
M  CHG  1  36   1
M  END
>  <DOCK_score>  (1) 
-60.780205

>  <SMILES>  (1) 
CCc1ccc(-c2c[nH]c(N[C@@H](CC3=C[C@@H]4C[C@H]3[C@H](O)[C@@H]4O)c3ccc(C)cc3)[nH+]2)cc1

$$$$
