CC1(c2ccccc2)CC([NH+]=C(N[C@@H]2CCC(=O)NC2)N[C@H]2CCC(=O)NC2)C1
     RDKit          3D

 61 64  0  0  1  0  0  0  0  0999 V2000
  133.0430  136.8698  163.4748 C   0  0  0  0  0  0  0  0  0  0  0  0
  133.0415  137.0767  161.9589 C   0  0  1  0  0  0  0  0  0  0  0  0
  133.9070  138.2316  161.5249 C   0  0  0  0  0  0  0  0  0  0  0  0
  135.2398  138.0217  161.2241 C   0  0  0  0  0  0  0  0  0  0  0  0
  136.0350  139.0821  160.8312 C   0  0  0  0  0  0  0  0  0  0  0  0
  135.4950  140.3504  160.7295 C   0  0  0  0  0  0  0  0  0  0  0  0
  134.1611  140.5595  161.0261 C   0  0  0  0  0  0  0  0  0  0  0  0
  133.3671  139.5002  161.4237 C   0  0  0  0  0  0  0  0  0  0  0  0
  133.2890  135.7868  161.1589 C   0  0  0  0  0  0  0  0  0  0  0  0
  131.7666  135.5722  161.1844 C   0  0  2  0  0  0  0  0  0  0  0  0
  131.2244  135.0624  159.9224 N   0  0  0  0  0  0  0  0  0  0  0  0
  131.8168  134.8939  159.1731 H   0  0  0  0  0  0  0  0  0  0  0  0
  129.9462  134.8355  159.8067 C   0  0  0  0  0  0  0  0  0  0  0  0
  129.4371  134.3572  158.6226 N   0  0  0  0  0  0  0  0  0  0  0  0
  130.2627  133.5076  157.7606 C   0  0  2  0  0  0  0  0  0  0  0  0
  131.1578  134.0519  157.4599 H   0  0  0  0  0  0  0  0  0  0  0  0
  129.4611  133.1024  156.5177 C   0  0  0  0  0  0  0  0  0  0  0  0
  130.3998  132.3732  155.5533 C   0  0  0  0  0  0  0  0  0  0  0  0
  131.1677  131.3139  156.2908 C   0  0  0  0  0  0  0  0  0  0  0  0
  131.7044  130.4393  155.6443 O   0  0  0  0  0  0  0  0  0  0  0  0
  131.2910  131.2838  157.6183 N   0  0  0  0  0  0  0  0  0  0  0  0
  130.6627  132.2417  158.5195 C   0  0  0  0  0  0  0  0  0  0  0  0
  129.1067  135.0748  160.8689 N   0  0  0  0  0  0  0  0  0  0  0  0
  127.6699  134.8200  160.7390 C   0  0  1  0  0  0  0  0  0  0  0  0
  127.3641  134.9696  159.7035 H   0  0  0  0  0  0  0  0  0  0  0  0
  127.3626  133.3788  161.1630 C   0  0  0  0  0  0  0  0  0  0  0  0
  125.8944  133.0838  160.8459 C   0  0  0  0  0  0  0  0  0  0  0  0
  125.0256  134.1894  161.3732 C   0  0  0  0  0  0  0  0  0  0  0  0
  123.8389  133.9751  161.5020 O   0  0  0  0  0  0  0  0  0  0  0  0
  125.4894  135.3941  161.7079 N   0  0  0  0  0  0  0  0  0  0  0  0
  126.8953  135.7740  161.6492 C   0  0  0  0  0  0  0  0  0  0  0  0
  131.6333  137.0961  161.3411 C   0  0  0  0  0  0  0  0  0  0  0  0
  132.5127  137.6925  163.9542 H   0  0  0  0  0  0  0  0  0  0  0  0
  132.5464  135.9293  163.7136 H   0  0  0  0  0  0  0  0  0  0  0  0
  134.0708  136.8400  163.8364 H   0  0  0  0  0  0  0  0  0  0  0  0
  135.6606  137.0299  161.2993 H   0  0  0  0  0  0  0  0  0  0  0  0
  137.0770  138.9185  160.5995 H   0  0  0  0  0  0  0  0  0  0  0  0
  136.1151  141.1781  160.4186 H   0  0  0  0  0  0  0  0  0  0  0  0
  133.7393  141.5506  160.9470 H   0  0  0  0  0  0  0  0  0  0  0  0
  132.3250  139.6635  161.6555 H   0  0  0  0  0  0  0  0  0  0  0  0
  133.6885  135.9625  160.1600 H   0  0  0  0  0  0  0  0  0  0  0  0
  133.8460  135.0303  161.7116 H   0  0  0  0  0  0  0  0  0  0  0  0
  131.4178  135.0119  162.0520 H   0  0  0  0  0  0  0  0  0  0  0  0
  128.5316  134.5822  158.3578 H   0  0  0  0  0  0  0  0  0  0  0  0
  128.6451  132.4402  156.8072 H   0  0  0  0  0  0  0  0  0  0  0  0
  129.0582  133.9927  156.0347 H   0  0  0  0  0  0  0  0  0  0  0  0
  131.0973  133.0882  155.1168 H   0  0  0  0  0  0  0  0  0  0  0  0
  129.8145  131.9095  154.7594 H   0  0  0  0  0  0  0  0  0  0  0  0
  131.8331  130.5804  158.0085 H   0  0  0  0  0  0  0  0  0  0  0  0
  131.3631  132.5032  159.3125 H   0  0  0  0  0  0  0  0  0  0  0  0
  129.7742  131.7909  158.9617 H   0  0  0  0  0  0  0  0  0  0  0  0
  129.4658  135.4123  161.7044 H   0  0  0  0  0  0  0  0  0  0  0  0
  128.0026  132.6897  160.6120 H   0  0  0  0  0  0  0  0  0  0  0  0
  127.5373  133.2659  162.2330 H   0  0  0  0  0  0  0  0  0  0  0  0
  125.7657  133.0057  159.7663 H   0  0  0  0  0  0  0  0  0  0  0  0
  125.6048  132.1429  161.3140 H   0  0  0  0  0  0  0  0  0  0  0  0
  124.8509  136.0594  162.0092 H   0  0  0  0  0  0  0  0  0  0  0  0
  127.3200  135.7391  162.6524 H   0  0  0  0  0  0  0  0  0  0  0  0
  126.9784  136.7891  161.2611 H   0  0  0  0  0  0  0  0  0  0  0  0
  130.8536  137.3966  162.0410 H   0  0  0  0  0  0  0  0  0  0  0  0
  131.5802  137.6297  160.3920 H   0  0  0  0  0  0  0  0  0  0  0  0
  1 33  1  0
  1 34  1  0
  1 35  1  0
  2  1  1  1
  2 32  1  0
  2  3  1  0
  2  9  1  0
  3  8  1  0
  3  4  2  0
  4  5  1  0
  4 36  1  0
  5  6  2  0
  5 37  1  0
  6  7  1  0
  6 38  1  0
  7  8  2  0
  7 39  1  0
  8 40  1  0
  9 10  1  0
  9 41  1  0
  9 42  1  0
 10 11  1  0
 10 32  1  0
 10 43  1  1
 11 12  1  0
 13 11  2  0
 13 14  1  0
 13 23  1  0
 14 15  1  0
 14 44  1  0
 15 16  1  6
 15 22  1  0
 15 17  1  0
 17 18  1  0
 17 45  1  0
 17 46  1  0
 18 19  1  0
 18 47  1  0
 18 48  1  0
 19 20  2  0
 19 21  1  0
 21 22  1  0
 21 49  1  0
 22 50  1  0
 22 51  1  0
 23 24  1  0
 23 52  1  0
 24 25  1  6
 24 31  1  0
 24 26  1  0
 26 27  1  0
 26 53  1  0
 26 54  1  0
 27 28  1  0
 27 55  1  0
 27 56  1  0
 28 29  2  0
 28 30  1  0
 30 31  1  0
 30 57  1  0
 31 58  1  0
 31 59  1  0
 32 60  1  0
 32 61  1  0
M  CHG  1  11   1
M  END
>  <DOCK_score>  (1) 
-46.087173

>  <SMILES>  (1) 
CC1(c2ccccc2)CC([NH+]=C(N[C@@H]2CCC(=O)NC2)N[C@H]2CCC(=O)NC2)C1

$$$$
