CCc1ccc(-c2c[nH]c(N[C@@H](c3ccc(Cl)cc3)c3ccccc3Cl)[nH+]2)cc1
     RDKit          3D

 51 54  0  0  1  0  0  0  0  0999 V2000
  130.3804  128.3068  151.6584 C   0  0  0  0  0  0  0  0  0  0  0  0
  131.3307  129.4976  151.8054 C   0  0  0  0  0  0  0  0  0  0  0  0
  131.0568  130.2005  153.1100 C   0  0  0  0  0  0  0  0  0  0  0  0
  131.7300  129.8155  154.2554 C   0  0  0  0  0  0  0  0  0  0  0  0
  131.4824  130.4558  155.4526 C   0  0  0  0  0  0  0  0  0  0  0  0
  130.5519  131.4921  155.5061 C   0  0  0  0  0  0  0  0  0  0  0  0
  130.2815  132.1842  156.7899 C   0  0  0  0  0  0  0  0  0  0  0  0
  129.8098  131.6081  157.9232 C   0  0  0  0  0  0  0  0  0  0  0  0
  129.7076  132.6039  158.8639 N   0  0  0  0  0  0  0  0  0  0  0  0
  129.3989  132.5015  159.7778 H   0  0  0  0  0  0  0  0  0  0  0  0
  130.1203  133.7606  158.2775 C   0  0  0  0  0  0  0  0  0  0  0  0
  130.1697  135.0017  158.8887 N   0  0  0  0  0  0  0  0  0  0  0  0
  129.7551  135.1469  160.2863 C   0  0  1  0  0  0  0  0  0  0  0  0
  130.1101  134.2918  160.8614 H   0  0  0  0  0  0  0  0  0  0  0  0
  130.3414  136.4132  160.8553 C   0  0  0  0  0  0  0  0  0  0  0  0
  131.5782  136.3855  161.4724 C   0  0  0  0  0  0  0  0  0  0  0  0
  132.1189  137.5475  161.9894 C   0  0  0  0  0  0  0  0  0  0  0  0
  131.4172  138.7366  161.8995 C   0  0  0  0  0  0  0  0  0  0  0  0
  132.0929  140.1953  162.5546 Cl  0  0  0  0  0  0  0  0  0  0  0  0
  130.1770  138.7625  161.2869 C   0  0  0  0  0  0  0  0  0  0  0  0
  129.6397  137.6009  160.7651 C   0  0  0  0  0  0  0  0  0  0  0  0
  128.2513  135.2124  160.3599 C   0  0  0  0  0  0  0  0  0  0  0  0
  127.5301  135.7449  159.3076 C   0  0  0  0  0  0  0  0  0  0  0  0
  126.1509  135.8040  159.3747 C   0  0  0  0  0  0  0  0  0  0  0  0
  125.4916  135.3308  160.4940 C   0  0  0  0  0  0  0  0  0  0  0  0
  126.2115  134.7986  161.5468 C   0  0  0  0  0  0  0  0  0  0  0  0
  127.5926  134.7447  161.4829 C   0  0  0  0  0  0  0  0  0  0  0  0
  128.4980  134.0835  162.8084 Cl  0  0  0  0  0  0  0  0  0  0  0  0
  130.4578  133.5067  157.0367 N   0  0  0  0  0  0  0  0  0  0  0  0
  130.7834  134.1597  156.3975 H   0  0  0  0  0  0  0  0  0  0  0  0
  129.8723  131.8719  154.3501 C   0  0  0  0  0  0  0  0  0  0  0  0
  130.1322  131.2284  153.1572 C   0  0  0  0  0  0  0  0  0  0  0  0
  130.5789  127.7979  150.7150 H   0  0  0  0  0  0  0  0  0  0  0  0
  130.5356  127.6133  152.4849 H   0  0  0  0  0  0  0  0  0  0  0  0
  129.3497  128.6613  151.6701 H   0  0  0  0  0  0  0  0  0  0  0  0
  131.1757  130.1902  150.9794 H   0  0  0  0  0  0  0  0  0  0  0  0
  132.3615  129.1422  151.7941 H   0  0  0  0  0  0  0  0  0  0  0  0
  132.4508  129.0124  154.2128 H   0  0  0  0  0  0  0  0  0  0  0  0
  132.0089  130.1548  156.3462 H   0  0  0  0  0  0  0  0  0  0  0  0
  129.5614  130.5659  158.0599 H   0  0  0  0  0  0  0  0  0  0  0  0
  130.4789  135.7751  158.3917 H   0  0  0  0  0  0  0  0  0  0  0  0
  132.1239  135.4565  161.5464 H   0  0  0  0  0  0  0  0  0  0  0  0
  133.0871  137.5267  162.4675 H   0  0  0  0  0  0  0  0  0  0  0  0
  129.6286  139.6904  161.2166 H   0  0  0  0  0  0  0  0  0  0  0  0
  128.6718  137.6211  160.2866 H   0  0  0  0  0  0  0  0  0  0  0  0
  128.0445  136.1144  158.4328 H   0  0  0  0  0  0  0  0  0  0  0  0
  125.5877  136.2199  158.5521 H   0  0  0  0  0  0  0  0  0  0  0  0
  124.4138  135.3766  160.5455 H   0  0  0  0  0  0  0  0  0  0  0  0
  125.6963  134.4289  162.4212 H   0  0  0  0  0  0  0  0  0  0  0  0
  129.1467  132.6711  154.3869 H   0  0  0  0  0  0  0  0  0  0  0  0
  129.6094  131.5247  152.2599 H   0  0  0  0  0  0  0  0  0  0  0  0
  1  2  1  0
  1 33  1  0
  1 34  1  0
  1 35  1  0
  2  3  1  0
  2 36  1  0
  2 37  1  0
  3 32  2  0
  3  4  1  0
  4  5  2  0
  4 38  1  0
  5  6  1  0
  5 39  1  0
  6  7  1  0
  6 31  2  0
  7 29  1  0
  7  8  2  0
  8  9  1  0
  8 40  1  0
  9 10  1  0
  9 11  1  0
 11 12  1  0
 11 29  2  0
 12 13  1  0
 12 41  1  0
 13 14  1  1
 13 15  1  0
 13 22  1  0
 15 21  1  0
 15 16  2  0
 16 17  1  0
 16 42  1  0
 17 18  2  0
 17 43  1  0
 18 19  1  0
 18 20  1  0
 20 21  2  0
 20 44  1  0
 21 45  1  0
 22 27  1  0
 22 23  2  0
 23 24  1  0
 23 46  1  0
 24 25  2  0
 24 47  1  0
 25 26  1  0
 25 48  1  0
 26 27  2  0
 26 49  1  0
 27 28  1  0
 29 30  1  0
 31 32  1  0
 31 50  1  0
 32 51  1  0
M  CHG  1  29   1
M  END
>  <DOCK_score>  (1) 
-56.674736

>  <SMILES>  (1) 
CCc1ccc(-c2c[nH]c(N[C@@H](c3ccc(Cl)cc3)c3ccccc3Cl)[nH+]2)cc1

$$$$
