CCc1ccc(-c2c[nH]c(N[C@H](C=CC=O)c3cccc(N4CC=CC4)c3C)[nH+]2)cc1
     RDKit          3D

 60 63  0  0  1  0  0  0  0  0999 V2000
  130.0733  128.3569  151.2318 C   0  0  0  0  0  0  0  0  0  0  0  0
  131.1010  129.4778  151.4070 C   0  0  0  0  0  0  0  0  0  0  0  0
  130.9152  130.1222  152.7566 C   0  0  0  0  0  0  0  0  0  0  0  0
  131.6025  129.6342  153.8533 C   0  0  0  0  0  0  0  0  0  0  0  0
  131.4364  130.2201  155.0918 C   0  0  0  0  0  0  0  0  0  0  0  0
  130.5744  131.3058  155.2360 C   0  0  0  0  0  0  0  0  0  0  0  0
  130.3918  131.9400  156.5645 C   0  0  0  0  0  0  0  0  0  0  0  0
  129.9246  131.3308  157.6821 C   0  0  0  0  0  0  0  0  0  0  0  0
  129.9168  132.2768  158.6782 N   0  0  0  0  0  0  0  0  0  0  0  0
  129.6339  132.1422  159.5962 H   0  0  0  0  0  0  0  0  0  0  0  0
  130.3799  133.4376  158.1394 C   0  0  0  0  0  0  0  0  0  0  0  0
  130.5272  134.6374  158.8142 N   0  0  0  0  0  0  0  0  0  0  0  0
  130.1707  134.7289  160.2322 C   0  0  2  0  0  0  0  0  0  0  0  0
  130.4917  133.8230  160.7467 H   0  0  0  0  0  0  0  0  0  0  0  0
  128.6774  134.8803  160.3660 C   0  0  0  0  0  0  0  0  0  0  0  0
  127.9800  135.4913  159.4061 C   0  0  0  0  0  0  0  0  0  0  0  0
  126.5305  135.6383  159.5359 C   0  0  0  0  0  0  0  0  0  0  0  0
  125.8965  136.1938  158.6633 O   0  0  0  0  0  0  0  0  0  0  0  0
  130.8538  135.9239  160.8459 C   0  0  0  0  0  0  0  0  0  0  0  0
  130.0994  136.9352  161.4125 C   0  0  0  0  0  0  0  0  0  0  0  0
  130.7220  138.0307  161.9816 C   0  0  0  0  0  0  0  0  0  0  0  0
  132.1003  138.1238  161.9758 C   0  0  0  0  0  0  0  0  0  0  0  0
  132.8606  137.1127  161.4026 C   0  0  0  0  0  0  0  0  0  0  0  0
  134.2544  137.2036  161.3955 N   0  0  0  0  0  0  0  0  0  0  0  0
  134.7001  138.4857  160.8002 C   0  0  0  0  0  0  0  0  0  0  0  0
  135.9378  138.8775  161.5740 C   0  0  0  0  0  0  0  0  0  0  0  0
  135.9880  138.1957  162.6909 C   0  0  0  0  0  0  0  0  0  0  0  0
  134.7889  137.2798  162.7758 C   0  0  0  0  0  0  0  0  0  0  0  0
  132.2318  136.0107  160.8367 C   0  0  0  0  0  0  0  0  0  0  0  0
  133.0528  134.9114  160.2132 C   0  0  0  0  0  0  0  0  0  0  0  0
  130.6582  133.2337  156.8750 N   0  0  0  0  0  0  0  0  0  0  0  0
  131.0014  133.9006  156.2600 H   0  0  0  0  0  0  0  0  0  0  0  0
  129.8803  131.7898  154.1285 C   0  0  0  0  0  0  0  0  0  0  0  0
  130.0584  131.1996  152.8939 C   0  0  0  0  0  0  0  0  0  0  0  0
  130.2136  127.6101  152.0134 H   0  0  0  0  0  0  0  0  0  0  0  0
  129.0677  128.7713  151.3015 H   0  0  0  0  0  0  0  0  0  0  0  0
  130.2072  127.8906  150.2558 H   0  0  0  0  0  0  0  0  0  0  0  0
  130.9600  130.2241  150.6255 H   0  0  0  0  0  0  0  0  0  0  0  0
  132.1058  129.0629  151.3373 H   0  0  0  0  0  0  0  0  0  0  0  0
  132.2702  128.7928  153.7404 H   0  0  0  0  0  0  0  0  0  0  0  0
  131.9736  129.8385  155.9474 H   0  0  0  0  0  0  0  0  0  0  0  0
  129.6168  130.2995  157.7720 H   0  0  0  0  0  0  0  0  0  0  0  0
  130.8665  135.4175  158.3481 H   0  0  0  0  0  0  0  0  0  0  0  0
  128.1715  134.4944  161.2386 H   0  0  0  0  0  0  0  0  0  0  0  0
  128.4859  135.8771  158.5333 H   0  0  0  0  0  0  0  0  0  0  0  0
  126.0247  135.2523  160.4086 H   0  0  0  0  0  0  0  0  0  0  0  0
  129.0215  136.8670  161.4141 H   0  0  0  0  0  0  0  0  0  0  0  0
  130.1302  138.8165  162.4271 H   0  0  0  0  0  0  0  0  0  0  0  0
  132.5859  138.9817  162.4169 H   0  0  0  0  0  0  0  0  0  0  0  0
  134.9413  138.3492  159.7462 H   0  0  0  0  0  0  0  0  0  0  0  0
  133.9265  139.2449  160.9161 H   0  0  0  0  0  0  0  0  0  0  0  0
  136.6679  139.6066  161.2550 H   0  0  0  0  0  0  0  0  0  0  0  0
  136.7658  138.2755  163.4359 H   0  0  0  0  0  0  0  0  0  0  0  0
  134.0403  137.6992  163.4481 H   0  0  0  0  0  0  0  0  0  0  0  0
  135.0929  136.2906  163.1183 H   0  0  0  0  0  0  0  0  0  0  0  0
  133.2928  135.1768  159.1835 H   0  0  0  0  0  0  0  0  0  0  0  0
  133.9751  134.7811  160.7793 H   0  0  0  0  0  0  0  0  0  0  0  0
  132.4843  133.9815  160.2258 H   0  0  0  0  0  0  0  0  0  0  0  0
  129.2074  132.6278  154.2355 H   0  0  0  0  0  0  0  0  0  0  0  0
  129.5245  131.5765  152.0340 H   0  0  0  0  0  0  0  0  0  0  0  0
  1  2  1  0
  1 35  1  0
  1 36  1  0
  1 37  1  0
  2  3  1  0
  2 38  1  0
  2 39  1  0
  3 34  2  0
  3  4  1  0
  4  5  2  0
  4 40  1  0
  5  6  1  0
  5 41  1  0
  6  7  1  0
  6 33  2  0
  7 31  1  0
  7  8  2  0
  8  9  1  0
  8 42  1  0
  9 10  1  0
  9 11  1  0
 11 12  1  0
 11 31  2  0
 12 13  1  0
 12 43  1  0
 13 14  1  1
 13 15  1  0
 13 19  1  0
 15 16  2  0
 15 44  1  0
 16 17  1  0
 16 45  1  0
 17 18  2  0
 17 46  1  0
 19 29  1  0
 19 20  2  0
 20 21  1  0
 20 47  1  0
 21 22  2  0
 21 48  1  0
 22 23  1  0
 22 49  1  0
 23 24  1  0
 23 29  2  0
 24 28  1  0
 24 25  1  0
 25 26  1  0
 25 50  1  0
 25 51  1  0
 26 27  2  0
 26 52  1  0
 27 28  1  0
 27 53  1  0
 28 54  1  0
 28 55  1  0
 29 30  1  0
 30 56  1  0
 30 57  1  0
 30 58  1  0
 31 32  1  0
 33 34  1  0
 33 59  1  0
 34 60  1  0
M  CHG  1  31   1
M  END
>  <DOCK_score>  (1) 
-56.981838

>  <SMILES>  (1) 
CCc1ccc(-c2c[nH]c(N[C@H](C=CC=O)c3cccc(N4CC=CC4)c3C)[nH+]2)cc1

$$$$
