N#Cc1ccc(Nc2[nH]cc(-c3ccc(N)cc3)[nH+]2)cc1
     RDKit          3D

 35 37  0  0  1  0  0  0  0  0999 V2000
  126.2259  136.5242  163.8748 N   0  0  0  0  0  0  0  0  0  0  0  0
  126.9363  136.2628  163.0276 C   0  0  0  0  0  0  0  0  0  0  0  0
  127.8315  135.9327  161.9596 C   0  0  0  0  0  0  0  0  0  0  0  0
  129.0298  135.2657  162.2307 C   0  0  0  0  0  0  0  0  0  0  0  0
  129.8884  134.9510  161.2017 C   0  0  0  0  0  0  0  0  0  0  0  0
  129.5651  135.2970  159.8931 C   0  0  0  0  0  0  0  0  0  0  0  0
  130.4366  134.9772  158.8543 N   0  0  0  0  0  0  0  0  0  0  0  0
  130.3145  133.7640  158.1963 C   0  0  0  0  0  0  0  0  0  0  0  0
  129.8566  132.6064  158.7463 N   0  0  0  0  0  0  0  0  0  0  0  0
  129.5599  132.4830  159.6615 H   0  0  0  0  0  0  0  0  0  0  0  0
  129.8902  131.6453  157.7649 C   0  0  0  0  0  0  0  0  0  0  0  0
  130.3752  132.2411  156.6472 C   0  0  0  0  0  0  0  0  0  0  0  0
  130.5918  131.5872  155.3332 C   0  0  0  0  0  0  0  0  0  0  0  0
  129.9198  132.0509  154.2034 C   0  0  0  0  0  0  0  0  0  0  0  0
  130.1277  131.4457  152.9820 C   0  0  0  0  0  0  0  0  0  0  0  0
  130.9965  130.3658  152.8793 C   0  0  0  0  0  0  0  0  0  0  0  0
  131.2006  129.7500  151.6421 N   0  0  0  0  0  0  0  0  0  0  0  0
  131.6635  129.8983  154.0055 C   0  0  0  0  0  0  0  0  0  0  0  0
  131.4635  130.5046  155.2277 C   0  0  0  0  0  0  0  0  0  0  0  0
  130.6261  133.5405  156.9427 N   0  0  0  0  0  0  0  0  0  0  0  0
  130.9804  134.1994  156.3253 H   0  0  0  0  0  0  0  0  0  0  0  0
  128.3758  135.9666  159.6204 C   0  0  0  0  0  0  0  0  0  0  0  0
  127.5099  136.2790  160.6436 C   0  0  0  0  0  0  0  0  0  0  0  0
  129.2815  134.9976  163.2461 H   0  0  0  0  0  0  0  0  0  0  0  0
  130.8141  134.4352  161.4104 H   0  0  0  0  0  0  0  0  0  0  0  0
  131.1262  135.6056  158.5890 H   0  0  0  0  0  0  0  0  0  0  0  0
  129.5919  130.6121  157.8655 H   0  0  0  0  0  0  0  0  0  0  0  0
  129.2405  132.8867  154.2838 H   0  0  0  0  0  0  0  0  0  0  0  0
  129.6108  131.8078  152.1055 H   0  0  0  0  0  0  0  0  0  0  0  0
  131.8076  128.9969  151.5694 H   0  0  0  0  0  0  0  0  0  0  0  0
  130.7360  130.0761  150.8555 H   0  0  0  0  0  0  0  0  0  0  0  0
  132.3384  129.0591  153.9232 H   0  0  0  0  0  0  0  0  0  0  0  0
  131.9821  130.1409  156.1026 H   0  0  0  0  0  0  0  0  0  0  0  0
  128.1302  136.2376  158.6041 H   0  0  0  0  0  0  0  0  0  0  0  0
  126.5851  136.7948  160.4310 H   0  0  0  0  0  0  0  0  0  0  0  0
  1  2  3  0
  2  3  1  0
  3 23  2  0
  3  4  1  0
  4  5  2  0
  4 24  1  0
  5  6  1  0
  5 25  1  0
  6  7  1  0
  6 22  2  0
  7 26  1  0
  8  7  1  0
  8 20  2  0
  8  9  1  0
  9 10  1  0
  9 11  1  0
 11 12  2  0
 11 27  1  0
 12 13  1  0
 12 20  1  0
 13 19  1  0
 13 14  2  0
 14 15  1  0
 14 28  1  0
 15 16  2  0
 15 29  1  0
 16 17  1  0
 16 18  1  0
 17 30  1  0
 17 31  1  0
 18 19  2  0
 18 32  1  0
 19 33  1  0
 20 21  1  0
 22 23  1  0
 22 34  1  0
 23 35  1  0
M  CHG  1  20   1
M  END
>  <DOCK_score>  (1) 
-47.09446

>  <SMILES>  (1) 
N#Cc1ccc(Nc2[nH]cc(-c3ccc(N)cc3)[nH+]2)cc1

$$$$
