CCC(F)(F)c1ccc(Nc2ccc(-c3c[nH]c(Nc4ccc(O)c(O)c4)[nH+]3)cc2)cc1
     RDKit          3D

 55 58  0  0  1  0  0  0  0  0999 V2000
  140.2992  138.2680  168.8408 C   0  0  0  0  0  0  0  0  0  0  0  0
  139.5488  138.5388  167.5353 C   0  0  0  0  0  0  0  0  0  0  0  0
  138.7377  137.3008  167.1471 C   0  0  0  0  0  0  0  0  0  0  0  0
  137.8193  137.0082  168.1610 F   0  0  0  0  0  0  0  0  0  0  0  0
  139.6010  136.2139  166.9722 F   0  0  0  0  0  0  0  0  0  0  0  0
  137.9987  137.5673  165.8612 C   0  0  0  0  0  0  0  0  0  0  0  0
  138.5950  137.2726  164.6489 C   0  0  0  0  0  0  0  0  0  0  0  0
  137.9205  137.5156  163.4686 C   0  0  0  0  0  0  0  0  0  0  0  0
  136.6414  138.0569  163.5001 C   0  0  0  0  0  0  0  0  0  0  0  0
  135.9561  138.3040  162.3081 N   0  0  0  0  0  0  0  0  0  0  0  0
  134.7346  137.6724  162.0609 C   0  0  0  0  0  0  0  0  0  0  0  0
  133.7737  138.3033  161.2783 C   0  0  0  0  0  0  0  0  0  0  0  0
  132.5671  137.6825  161.0331 C   0  0  0  0  0  0  0  0  0  0  0  0
  132.3110  136.4223  161.5709 C   0  0  0  0  0  0  0  0  0  0  0  0
  131.0133  135.7526  161.3090 C   0  0  0  0  0  0  0  0  0  0  0  0
  130.1129  135.3632  162.2455 C   0  0  0  0  0  0  0  0  0  0  0  0
  129.0611  134.7888  161.5727 N   0  0  0  0  0  0  0  0  0  0  0  0
  128.2605  134.4132  161.9713 H   0  0  0  0  0  0  0  0  0  0  0  0
  129.3506  134.8444  160.2440 C   0  0  0  0  0  0  0  0  0  0  0  0
  128.5448  134.3702  159.2221 N   0  0  0  0  0  0  0  0  0  0  0  0
  127.3149  133.7718  159.5209 C   0  0  0  0  0  0  0  0  0  0  0  0
  127.0730  132.4569  159.1455 C   0  0  0  0  0  0  0  0  0  0  0  0
  125.8595  131.8648  159.4397 C   0  0  0  0  0  0  0  0  0  0  0  0
  124.8815  132.5818  160.1098 C   0  0  0  0  0  0  0  0  0  0  0  0
  123.6869  131.9975  160.3983 O   0  0  0  0  0  0  0  0  0  0  0  0
  125.1206  133.8997  160.4873 C   0  0  0  0  0  0  0  0  0  0  0  0
  124.1614  134.6040  161.1455 O   0  0  0  0  0  0  0  0  0  0  0  0
  126.3369  134.4931  160.1925 C   0  0  0  0  0  0  0  0  0  0  0  0
  130.5204  135.4161  160.0911 N   0  0  0  0  0  0  0  0  0  0  0  0
  130.9621  135.5751  159.2423 H   0  0  0  0  0  0  0  0  0  0  0  0
  133.2735  135.7944  162.3600 C   0  0  0  0  0  0  0  0  0  0  0  0
  134.4810  136.4163  162.5978 C   0  0  0  0  0  0  0  0  0  0  0  0
  136.0475  138.3571  164.7196 C   0  0  0  0  0  0  0  0  0  0  0  0
  136.7253  138.1058  165.8963 C   0  0  0  0  0  0  0  0  0  0  0  0
  140.8770  139.1501  169.1174 H   0  0  0  0  0  0  0  0  0  0  0  0
  139.5835  138.0402  169.6307 H   0  0  0  0  0  0  0  0  0  0  0  0
  140.9718  137.4213  168.7045 H   0  0  0  0  0  0  0  0  0  0  0  0
  140.2644  138.7667  166.7453 H   0  0  0  0  0  0  0  0  0  0  0  0
  138.8762  139.3856  167.6716 H   0  0  0  0  0  0  0  0  0  0  0  0
  139.5895  136.8522  164.6250 H   0  0  0  0  0  0  0  0  0  0  0  0
  138.3870  137.2855  162.5220 H   0  0  0  0  0  0  0  0  0  0  0  0
  136.3287  138.9135  161.6519 H   0  0  0  0  0  0  0  0  0  0  0  0
  133.9725  139.2799  160.8622 H   0  0  0  0  0  0  0  0  0  0  0  0
  131.8214  138.1724  160.4248 H   0  0  0  0  0  0  0  0  0  0  0  0
  130.2048  135.4817  163.3150 H   0  0  0  0  0  0  0  0  0  0  0  0
  128.8325  134.4527  158.2994 H   0  0  0  0  0  0  0  0  0  0  0  0
  127.8342  131.8962  158.6234 H   0  0  0  0  0  0  0  0  0  0  0  0
  125.6731  130.8423  159.1466 H   0  0  0  0  0  0  0  0  0  0  0  0
  123.6139  131.0817  160.0965 H   0  0  0  0  0  0  0  0  0  0  0  0
  124.4196  135.5095  161.3655 H   0  0  0  0  0  0  0  0  0  0  0  0
  126.5227  135.5172  160.4808 H   0  0  0  0  0  0  0  0  0  0  0  0
  133.0756  134.8197  162.7809 H   0  0  0  0  0  0  0  0  0  0  0  0
  135.2287  135.9285  163.2056 H   0  0  0  0  0  0  0  0  0  0  0  0
  135.0551  138.7822  164.7476 H   0  0  0  0  0  0  0  0  0  0  0  0
  136.2624  138.3344  166.8449 H   0  0  0  0  0  0  0  0  0  0  0  0
  1  2  1  0
  1 35  1  0
  1 36  1  0
  1 37  1  0
  2  3  1  0
  2 38  1  0
  2 39  1  0
  3  4  1  0
  3  5  1  0
  3  6  1  0
  6 34  2  0
  6  7  1  0
  7  8  2  0
  7 40  1  0
  8  9  1  0
  8 41  1  0
  9 10  1  0
  9 33  2  0
 10 11  1  0
 10 42  1  0
 11 32  1  0
 11 12  2  0
 12 13  1  0
 12 43  1  0
 13 14  2  0
 13 44  1  0
 14 15  1  0
 14 31  1  0
 15 29  1  0
 15 16  2  0
 16 17  1  0
 16 45  1  0
 17 18  1  0
 17 19  1  0
 19 20  1  0
 19 29  2  0
 20 21  1  0
 20 46  1  0
 21 28  1  0
 21 22  2  0
 22 23  1  0
 22 47  1  0
 23 24  2  0
 23 48  1  0
 24 25  1  0
 24 26  1  0
 25 49  1  0
 26 27  1  0
 26 28  2  0
 27 50  1  0
 28 51  1  0
 29 30  1  0
 31 32  2  0
 31 52  1  0
 32 53  1  0
 33 34  1  0
 33 54  1  0
 34 55  1  0
M  CHG  1  29   1
M  END
>  <DOCK_score>  (1) 
-41.578922

>  <SMILES>  (1) 
CCC(F)(F)c1ccc(Nc2ccc(-c3c[nH]c(Nc4ccc(O)c(O)c4)[nH+]3)cc2)cc1

$$$$
