F[C@@H]1C[C@H]([NH2+]Cc2c[nH]nc2-c2ccc(N[C@H]3C[C@@H](Br)C3)o2)C[C@@H]1F
     RDKit          3D

 47 50  0  0  1  0  0  0  0  0999 V2000
  135.1767  136.6379  162.5144 F   0  0  0  0  0  0  0  0  0  0  0  0
  134.2175  137.6429  162.6793 C   0  0  2  0  0  0  0  0  0  0  0  0
  134.2333  138.0227  163.7009 H   0  0  0  0  0  0  0  0  0  0  0  0
  132.8134  137.1131  162.3219 C   0  0  0  0  0  0  0  0  0  0  0  0
  132.5598  137.4962  160.8534 C   0  0  2  0  0  0  0  0  0  0  0  0
  131.6873  138.1457  160.7822 H   0  0  0  0  0  0  0  0  0  0  0  0
  132.3530  136.2863  160.0463 N   0  0  0  0  0  0  0  0  0  0  0  0
  132.9967  135.5688  160.3446 H   0  0  0  0  0  0  0  0  0  0  0  0
  132.5142  136.4994  159.0733 H   0  0  0  0  0  0  0  0  0  0  0  0
  130.9742  135.8106  160.2214 C   0  0  0  0  0  0  0  0  0  0  0  0
  130.7620  134.5694  159.3935 C   0  0  0  0  0  0  0  0  0  0  0  0
  131.6819  133.9718  158.6061 C   0  0  0  0  0  0  0  0  0  0  0  0
  131.1054  132.8926  158.0342 N   0  0  0  0  0  0  0  0  0  0  0  0
  131.5347  132.2772  157.4195 H   0  0  0  0  0  0  0  0  0  0  0  0
  129.7803  132.8160  158.4816 N   0  0  0  0  0  0  0  0  0  0  0  0
  129.5668  133.8255  159.3026 C   0  0  0  0  0  0  0  0  0  0  0  0
  128.2989  134.1276  159.9986 C   0  0  0  0  0  0  0  0  0  0  0  0
  127.1480  133.4110  159.9032 C   0  0  0  0  0  0  0  0  0  0  0  0
  126.2008  134.0484  160.7288 C   0  0  0  0  0  0  0  0  0  0  0  0
  126.8163  135.1246  161.2793 C   0  0  0  0  0  0  0  0  0  0  0  0
  126.2340  136.0322  162.1565 N   0  0  0  0  0  0  0  0  0  0  0  0
  127.0568  136.7117  163.1603 C   0  0  1  0  0  0  0  0  0  0  0  0
  127.1149  136.1639  164.1011 H   0  0  0  0  0  0  0  0  0  0  0  0
  128.4241  137.1713  162.6275 C   0  0  0  0  0  0  0  0  0  0  0  0
  128.2242  138.4559  163.4491 C   0  0  1  0  0  0  0  0  0  0  0  0
  128.6029  138.3854  164.4688 H   0  0  0  0  0  0  0  0  0  0  0  0
  128.8200  140.0842  162.5223 Br  0  0  0  0  0  0  0  0  0  0  0  0
  126.7121  138.2001  163.3345 C   0  0  0  0  0  0  0  0  0  0  0  0
  128.0834  135.1658  160.8335 O   0  0  0  0  0  0  0  0  0  0  0  0
  133.8185  138.2453  160.3696 C   0  0  0  0  0  0  0  0  0  0  0  0
  134.4580  138.7928  161.6697 C   0  0  2  0  0  0  0  0  0  0  0  0
  133.9542  139.7034  161.9943 H   0  0  0  0  0  0  0  0  0  0  0  0
  135.8270  139.0211  161.4952 F   0  0  0  0  0  0  0  0  0  0  0  0
  132.0646  137.5775  162.9636 H   0  0  0  0  0  0  0  0  0  0  0  0
  132.7822  136.0296  162.4360 H   0  0  0  0  0  0  0  0  0  0  0  0
  130.2788  136.5856  159.8991 H   0  0  0  0  0  0  0  0  0  0  0  0
  130.8000  135.5803  161.2724 H   0  0  0  0  0  0  0  0  0  0  0  0
  132.7005  134.2994  158.4595 H   0  0  0  0  0  0  0  0  0  0  0  0
  126.9903  132.5226  159.3098 H   0  0  0  0  0  0  0  0  0  0  0  0
  125.1781  133.7411  160.8896 H   0  0  0  0  0  0  0  0  0  0  0  0
  125.2830  136.2158  162.1040 H   0  0  0  0  0  0  0  0  0  0  0  0
  129.2560  136.5574  162.9727 H   0  0  0  0  0  0  0  0  0  0  0  0
  128.4390  137.3397  161.5508 H   0  0  0  0  0  0  0  0  0  0  0  0
  126.2591  138.6496  162.4509 H   0  0  0  0  0  0  0  0  0  0  0  0
  126.1608  138.4167  164.2495 H   0  0  0  0  0  0  0  0  0  0  0  0
  134.5015  137.5595  159.8680 H   0  0  0  0  0  0  0  0  0  0  0  0
  133.5431  139.0647  159.7055 H   0  0  0  0  0  0  0  0  0  0  0  0
  1  2  1  0
  2  3  1  1
  2 31  1  0
  2  4  1  0
  4  5  1  0
  4 34  1  0
  4 35  1  0
  5  6  1  1
  5  7  1  0
  5 30  1  0
  7  8  1  0
  7  9  1  0
  7 10  1  0
 10 11  1  0
 10 36  1  0
 10 37  1  0
 11 16  1  0
 11 12  2  0
 12 13  1  0
 12 38  1  0
 13 14  1  0
 13 15  1  0
 15 16  2  0
 16 17  1  0
 17 29  1  0
 17 18  2  0
 18 19  1  0
 18 39  1  0
 19 20  2  0
 19 40  1  0
 20 21  1  0
 20 29  1  0
 21 22  1  0
 21 41  1  0
 22 23  1  1
 22 28  1  0
 22 24  1  0
 24 25  1  0
 24 42  1  0
 24 43  1  0
 25 26  1  1
 25 27  1  0
 25 28  1  0
 28 44  1  0
 28 45  1  0
 30 31  1  0
 30 46  1  0
 30 47  1  0
 31 32  1  1
 31 33  1  0
M  CHG  1   7   1
M  END
>  <DOCK_score>  (1) 
-44.095383

>  <SMILES>  (1) 
F[C@@H]1C[C@H]([NH2+]Cc2c[nH]nc2-c2ccc(N[C@H]3C[C@@H](Br)C3)o2)C[C@@H]1F

$$$$
