O=C1CC[C@H](NC(N[C@H]2COc3cc(NCc4cccc5cc[nH]c45)ccc3C2)=[NH+]C2CC2)CN1
     RDKit          3D

 68 73  0  0  1  0  0  0  0  0999 V2000
  124.2231  133.8272  161.6463 O   0  0  0  0  0  0  0  0  0  0  0  0
  125.3634  134.1289  161.3640 C   0  0  0  0  0  0  0  0  0  0  0  0
  126.2736  133.0553  160.8404 C   0  0  0  0  0  0  0  0  0  0  0  0
  127.7318  133.5055  160.9589 C   0  0  0  0  0  0  0  0  0  0  0  0
  127.8517  134.9187  160.3762 C   0  0  2  0  0  0  0  0  0  0  0  0
  127.4244  134.9385  159.3736 H   0  0  0  0  0  0  0  0  0  0  0  0
  129.2629  135.3078  160.3167 N   0  0  0  0  0  0  0  0  0  0  0  0
  130.1494  134.5669  159.5714 C   0  0  0  0  0  0  0  0  0  0  0  0
  131.4697  134.4926  159.9477 N   0  0  0  0  0  0  0  0  0  0  0  0
  131.9319  135.2028  161.1429 C   0  0  1  0  0  0  0  0  0  0  0  0
  131.3289  136.0980  161.2943 H   0  0  0  0  0  0  0  0  0  0  0  0
  131.8142  134.2858  162.3670 C   0  0  0  0  0  0  0  0  0  0  0  0
  132.1723  135.0364  163.5281 O   0  0  0  0  0  0  0  0  0  0  0  0
  133.3270  135.7512  163.4914 C   0  0  0  0  0  0  0  0  0  0  0  0
  133.8756  136.1848  164.6930 C   0  0  0  0  0  0  0  0  0  0  0  0
  135.0505  136.9206  164.6968 C   0  0  0  0  0  0  0  0  0  0  0  0
  135.6008  137.3549  165.9047 N   0  0  0  0  0  0  0  0  0  0  0  0
  137.0149  137.7323  165.9717 C   0  0  0  0  0  0  0  0  0  0  0  0
  137.5450  137.4506  167.3541 C   0  0  0  0  0  0  0  0  0  0  0  0
  137.2442  136.2607  167.9806 C   0  0  0  0  0  0  0  0  0  0  0  0
  137.7302  135.9875  169.2515 C   0  0  0  0  0  0  0  0  0  0  0  0
  138.5078  136.8993  169.9083 C   0  0  0  0  0  0  0  0  0  0  0  0
  138.8205  138.1134  169.2945 C   0  0  0  0  0  0  0  0  0  0  0  0
  139.6035  139.2850  169.6948 C   0  0  0  0  0  0  0  0  0  0  0  0
  139.5494  140.1594  168.6778 C   0  0  0  0  0  0  0  0  0  0  0  0
  138.7956  139.6438  167.6588 N   0  0  0  0  0  0  0  0  0  0  0  0
  138.6136  140.0923  166.8181 H   0  0  0  0  0  0  0  0  0  0  0  0
  138.3346  138.3931  168.0040 C   0  0  0  0  0  0  0  0  0  0  0  0
  135.6790  137.2247  163.4952 C   0  0  0  0  0  0  0  0  0  0  0  0
  135.1329  136.7919  162.3045 C   0  0  0  0  0  0  0  0  0  0  0  0
  133.9598  136.0543  162.2978 C   0  0  0  0  0  0  0  0  0  0  0  0
  133.4023  135.5933  160.9746 C   0  0  0  0  0  0  0  0  0  0  0  0
  129.7382  133.9351  158.5081 N   0  0  0  0  0  0  0  0  0  0  0  0
  128.8067  133.9875  158.2428 H   0  0  0  0  0  0  0  0  0  0  0  0
  130.6828  133.1459  157.7139 C   0  0  0  0  0  0  0  0  0  0  0  0
  130.1066  132.0527  156.8117 C   0  0  0  0  0  0  0  0  0  0  0  0
  130.8616  131.6730  158.0871 C   0  0  0  0  0  0  0  0  0  0  0  0
  127.0892  135.8903  161.2780 C   0  0  0  0  0  0  0  0  0  0  0  0
  125.7416  135.3961  161.5349 N   0  0  0  0  0  0  0  0  0  0  0  0
  126.0389  132.8602  159.7940 H   0  0  0  0  0  0  0  0  0  0  0  0
  126.1281  132.1432  161.4190 H   0  0  0  0  0  0  0  0  0  0  0  0
  128.3730  132.8229  160.4012 H   0  0  0  0  0  0  0  0  0  0  0  0
  128.0290  133.5145  162.0076 H   0  0  0  0  0  0  0  0  0  0  0  0
  129.5718  136.0880  160.8032 H   0  0  0  0  0  0  0  0  0  0  0  0
  132.0952  133.9700  159.4217 H   0  0  0  0  0  0  0  0  0  0  0  0
  132.4890  133.4370  162.2560 H   0  0  0  0  0  0  0  0  0  0  0  0
  130.7883  133.9300  162.4619 H   0  0  0  0  0  0  0  0  0  0  0  0
  133.3853  135.9478  165.6256 H   0  0  0  0  0  0  0  0  0  0  0  0
  135.0469  137.4070  166.6992 H   0  0  0  0  0  0  0  0  0  0  0  0
  137.5802  137.1539  165.2410 H   0  0  0  0  0  0  0  0  0  0  0  0
  137.1182  138.7950  165.7525 H   0  0  0  0  0  0  0  0  0  0  0  0
  136.6271  135.5320  167.4760 H   0  0  0  0  0  0  0  0  0  0  0  0
  137.4882  135.0485  169.7270 H   0  0  0  0  0  0  0  0  0  0  0  0
  138.8794  136.6813  170.8987 H   0  0  0  0  0  0  0  0  0  0  0  0
  140.1257  139.4194  170.6305 H   0  0  0  0  0  0  0  0  0  0  0  0
  140.0295  141.1268  168.6656 H   0  0  0  0  0  0  0  0  0  0  0  0
  136.5939  137.7986  163.4935 H   0  0  0  0  0  0  0  0  0  0  0  0
  135.6228  137.0292  161.3718 H   0  0  0  0  0  0  0  0  0  0  0  0
  133.4823  136.4002  160.2463 H   0  0  0  0  0  0  0  0  0  0  0  0
  133.9682  134.7303  160.6236 H   0  0  0  0  0  0  0  0  0  0  0  0
  131.5601  133.6843  157.3552 H   0  0  0  0  0  0  0  0  0  0  0  0
  129.0246  131.9207  156.8093 H   0  0  0  0  0  0  0  0  0  0  0  0
  130.6047  131.8719  155.8592 H   0  0  0  0  0  0  0  0  0  0  0  0
  131.8565  131.2422  157.9736 H   0  0  0  0  0  0  0  0  0  0  0  0
  130.2764  131.2910  158.9236 H   0  0  0  0  0  0  0  0  0  0  0  0
  127.6191  135.9942  162.2249 H   0  0  0  0  0  0  0  0  0  0  0  0
  127.0324  136.8642  160.7917 H   0  0  0  0  0  0  0  0  0  0  0  0
  125.0778  136.0305  161.8476 H   0  0  0  0  0  0  0  0  0  0  0  0
  1  2  2  0
  2 39  1  0
  2  3  1  0
  3  4  1  0
  3 40  1  0
  3 41  1  0
  4  5  1  0
  4 42  1  0
  4 43  1  0
  5  6  1  6
  5  7  1  0
  5 38  1  0
  7 44  1  0
  8  7  1  0
  8  9  1  0
  8 33  2  0
  9 10  1  0
  9 45  1  0
 10 11  1  1
 10 32  1  0
 10 12  1  0
 12 13  1  0
 12 46  1  0
 12 47  1  0
 13 14  1  0
 14 31  2  0
 14 15  1  0
 15 16  2  0
 15 48  1  0
 16 17  1  0
 16 29  1  0
 17 18  1  0
 17 49  1  0
 18 19  1  0
 18 50  1  0
 18 51  1  0
 19 28  1  0
 19 20  2  0
 20 21  1  0
 20 52  1  0
 21 22  2  0
 21 53  1  0
 22 23  1  0
 22 54  1  0
 23 28  2  0
 23 24  1  0
 24 25  2  0
 24 55  1  0
 25 26  1  0
 25 56  1  0
 26 27  1  0
 26 28  1  0
 29 30  2  0
 29 57  1  0
 30 31  1  0
 30 58  1  0
 31 32  1  0
 32 59  1  0
 32 60  1  0
 33 34  1  0
 33 35  1  0
 35 37  1  0
 35 36  1  0
 35 61  1  0
 36 37  1  0
 36 62  1  0
 36 63  1  0
 37 64  1  0
 37 65  1  0
 38 39  1  0
 38 66  1  0
 38 67  1  0
 39 68  1  0
M  CHG  1  33   1
M  END
>  <DOCK_score>  (1) 
-45.069901

>  <SMILES>  (1) 
O=C1CC[C@H](NC(N[C@H]2COc3cc(NCc4cccc5cc[nH]c45)ccc3C2)=[NH+]C2CC2)CN1

$$$$
