Nc1ccc(-c2c[nH]c(Nc3cccc(Nc4cccnc4)c3)[nH+]2)cc1
     RDKit          3D

 45 48  0  0  1  0  0  0  0  0999 V2000
  131.2172  129.4252  152.0242 N   0  0  0  0  0  0  0  0  0  0  0  0
  130.9697  130.1189  153.2112 C   0  0  0  0  0  0  0  0  0  0  0  0
  130.0654  131.1751  153.2221 C   0  0  0  0  0  0  0  0  0  0  0  0
  129.8198  131.8612  154.3926 C   0  0  0  0  0  0  0  0  0  0  0  0
  130.4787  131.4953  155.5652 C   0  0  0  0  0  0  0  0  0  0  0  0
  130.2160  132.2322  156.8259 C   0  0  0  0  0  0  0  0  0  0  0  0
  129.7217  131.7018  157.9720 C   0  0  0  0  0  0  0  0  0  0  0  0
  129.6366  132.7283  158.8819 N   0  0  0  0  0  0  0  0  0  0  0  0
  129.3183  132.6612  159.7958 H   0  0  0  0  0  0  0  0  0  0  0  0
  130.0820  133.8561  158.2639 C   0  0  0  0  0  0  0  0  0  0  0  0
  130.1575  135.1147  158.8381 N   0  0  0  0  0  0  0  0  0  0  0  0
  129.7556  135.3035  160.1635 C   0  0  0  0  0  0  0  0  0  0  0  0
  130.3867  134.6073  161.1877 C   0  0  0  0  0  0  0  0  0  0  0  0
  129.9900  134.7930  162.4978 C   0  0  0  0  0  0  0  0  0  0  0  0
  128.9650  135.6707  162.7948 C   0  0  0  0  0  0  0  0  0  0  0  0
  128.3298  136.3699  161.7756 C   0  0  0  0  0  0  0  0  0  0  0  0
  127.2973  137.2615  162.0772 N   0  0  0  0  0  0  0  0  0  0  0  0
  127.5402  138.3547  162.9132 C   0  0  0  0  0  0  0  0  0  0  0  0
  128.8037  138.9398  162.9628 C   0  0  0  0  0  0  0  0  0  0  0  0
  128.9938  140.0245  163.8025 C   0  0  0  0  0  0  0  0  0  0  0  0
  127.9355  140.4805  164.5670 C   0  0  0  0  0  0  0  0  0  0  0  0
  126.7529  139.9012  164.5013 N   0  0  0  0  0  0  0  0  0  0  0  0
  126.5272  138.8704  163.7114 C   0  0  0  0  0  0  0  0  0  0  0  0
  128.7260  136.1857  160.4581 C   0  0  0  0  0  0  0  0  0  0  0  0
  130.4222  133.5563  157.0340 N   0  0  0  0  0  0  0  0  0  0  0  0
  130.7686  134.1814  156.3781 H   0  0  0  0  0  0  0  0  0  0  0  0
  131.3892  130.4398  155.5503 C   0  0  0  0  0  0  0  0  0  0  0  0
  131.6278  129.7531  154.3787 C   0  0  0  0  0  0  0  0  0  0  0  0
  130.7578  129.6808  151.2082 H   0  0  0  0  0  0  0  0  0  0  0  0
  131.8480  128.6891  152.0151 H   0  0  0  0  0  0  0  0  0  0  0  0
  129.5551  131.4581  152.3133 H   0  0  0  0  0  0  0  0  0  0  0  0
  129.1170  132.6813  154.4010 H   0  0  0  0  0  0  0  0  0  0  0  0
  129.4472  130.6705  158.1378 H   0  0  0  0  0  0  0  0  0  0  0  0
  130.4893  135.8649  158.3204 H   0  0  0  0  0  0  0  0  0  0  0  0
  131.1885  133.9207  160.9591 H   0  0  0  0  0  0  0  0  0  0  0  0
  130.4823  134.2509  163.2917 H   0  0  0  0  0  0  0  0  0  0  0  0
  128.6575  135.8136  163.8201 H   0  0  0  0  0  0  0  0  0  0  0  0
  126.4120  137.1217  161.7064 H   0  0  0  0  0  0  0  0  0  0  0  0
  129.6138  138.5595  162.3582 H   0  0  0  0  0  0  0  0  0  0  0  0
  129.9587  140.5057  163.8633 H   0  0  0  0  0  0  0  0  0  0  0  0
  128.0797  141.3232  165.2269 H   0  0  0  0  0  0  0  0  0  0  0  0
  125.5450  138.4222  163.6848 H   0  0  0  0  0  0  0  0  0  0  0  0
  128.2337  136.7276  159.6640 H   0  0  0  0  0  0  0  0  0  0  0  0
  131.9045  130.1578  156.4567 H   0  0  0  0  0  0  0  0  0  0  0  0
  132.3302  128.9327  154.3676 H   0  0  0  0  0  0  0  0  0  0  0  0
  1  2  1  0
  1 29  1  0
  1 30  1  0
  2 28  2  0
  2  3  1  0
  3  4  2  0
  3 31  1  0
  4  5  1  0
  4 32  1  0
  5  6  1  0
  5 27  2  0
  6 25  1  0
  6  7  2  0
  7  8  1  0
  7 33  1  0
  8  9  1  0
  8 10  1  0
 10 11  1  0
 10 25  2  0
 11 12  1  0
 11 34  1  0
 12 24  1  0
 12 13  2  0
 13 14  1  0
 13 35  1  0
 14 15  2  0
 14 36  1  0
 15 16  1  0
 15 37  1  0
 16 17  1  0
 16 24  2  0
 17 18  1  0
 17 38  1  0
 18 23  1  0
 18 19  2  0
 19 20  1  0
 19 39  1  0
 20 21  2  0
 20 40  1  0
 21 22  1  0
 21 41  1  0
 22 23  2  0
 23 42  1  0
 24 43  1  0
 25 26  1  0
 27 28  1  0
 27 44  1  0
 28 45  1  0
M  CHG  1  25   1
M  END
>  <DOCK_score>  (1) 
-49.864502

>  <SMILES>  (1) 
Nc1ccc(-c2c[nH]c(Nc3cccc(Nc4cccnc4)c3)[nH+]2)cc1

$$$$
