C[C@H](CCNc1ccc(-c2n[nH]cc2C[NH2+]C2CCC2)o1)Cc1ccccc1
     RDKit          3D

 59 62  0  0  1  0  0  0  0  0999 V2000
  127.3420  139.7060  164.5256 C   0  0  0  0  0  0  0  0  0  0  0  0
  127.2690  138.2767  165.0666 C   0  0  2  0  0  0  0  0  0  0  0  0
  128.2720  137.8517  165.1064 H   0  0  0  0  0  0  0  0  0  0  0  0
  126.3913  137.4270  164.1455 C   0  0  0  0  0  0  0  0  0  0  0  0
  127.2038  136.9938  162.9236 C   0  0  0  0  0  0  0  0  0  0  0  0
  126.3632  136.1802  162.0418 N   0  0  0  0  0  0  0  0  0  0  0  0
  126.9374  135.1892  161.2541 C   0  0  0  0  0  0  0  0  0  0  0  0
  126.2818  134.1405  160.6971 C   0  0  0  0  0  0  0  0  0  0  0  0
  127.2377  133.3895  159.9850 C   0  0  0  0  0  0  0  0  0  0  0  0
  128.4314  134.0196  160.1439 C   0  0  0  0  0  0  0  0  0  0  0  0
  129.7220  133.5860  159.5700 C   0  0  0  0  0  0  0  0  0  0  0  0
  129.9172  132.5257  158.8109 N   0  0  0  0  0  0  0  0  0  0  0  0
  131.2769  132.4729  158.4793 N   0  0  0  0  0  0  0  0  0  0  0  0
  131.7025  131.7967  157.9293 H   0  0  0  0  0  0  0  0  0  0  0  0
  131.8933  133.5267  159.0574 C   0  0  0  0  0  0  0  0  0  0  0  0
  130.9635  134.2363  159.7319 C   0  0  0  0  0  0  0  0  0  0  0  0
  131.2091  135.4967  160.5209 C   0  0  0  0  0  0  0  0  0  0  0  0
  131.0397  136.6636  159.6448 N   0  0  0  0  0  0  0  0  0  0  0  0
  131.6986  136.6103  158.8824 H   0  0  0  0  0  0  0  0  0  0  0  0
  130.1002  136.6746  159.2770 H   0  0  0  0  0  0  0  0  0  0  0  0
  131.2790  137.8922  160.4137 C   0  0  0  0  0  0  0  0  0  0  0  0
  131.1832  139.1749  159.5709 C   0  0  0  0  0  0  0  0  0  0  0  0
  132.3957  139.6920  160.3660 C   0  0  0  0  0  0  0  0  0  0  0  0
  132.7694  138.2193  160.6039 C   0  0  0  0  0  0  0  0  0  0  0  0
  128.2346  135.1122  160.9114 O   0  0  0  0  0  0  0  0  0  0  0  0
  126.6662  138.2939  166.4727 C   0  0  0  0  0  0  0  0  0  0  0  0
  127.0313  137.0206  167.1914 C   0  0  0  0  0  0  0  0  0  0  0  0
  126.2032  135.9171  167.1063 C   0  0  0  0  0  0  0  0  0  0  0  0
  126.5406  134.7476  167.7616 C   0  0  0  0  0  0  0  0  0  0  0  0
  127.7008  134.6850  168.5105 C   0  0  0  0  0  0  0  0  0  0  0  0
  128.5263  135.7901  168.5998 C   0  0  0  0  0  0  0  0  0  0  0  0
  128.1916  136.9579  167.9403 C   0  0  0  0  0  0  0  0  0  0  0  0
  127.9674  140.3115  165.1817 H   0  0  0  0  0  0  0  0  0  0  0  0
  127.7714  139.6939  163.5238 H   0  0  0  0  0  0  0  0  0  0  0  0
  126.3390  140.1311  164.4857 H   0  0  0  0  0  0  0  0  0  0  0  0
  125.5313  138.0129  163.8211 H   0  0  0  0  0  0  0  0  0  0  0  0
  126.0470  136.5444  164.6845 H   0  0  0  0  0  0  0  0  0  0  0  0
  127.5480  137.8766  162.3847 H   0  0  0  0  0  0  0  0  0  0  0  0
  128.0636  136.4081  163.2482 H   0  0  0  0  0  0  0  0  0  0  0  0
  125.4059  136.3330  162.0075 H   0  0  0  0  0  0  0  0  0  0  0  0
  125.2275  133.9229  160.7829 H   0  0  0  0  0  0  0  0  0  0  0  0
  127.0567  132.4860  159.4216 H   0  0  0  0  0  0  0  0  0  0  0  0
  132.9448  133.7629  158.9882 H   0  0  0  0  0  0  0  0  0  0  0  0
  130.4972  135.5543  161.3443 H   0  0  0  0  0  0  0  0  0  0  0  0
  132.2239  135.4847  160.9181 H   0  0  0  0  0  0  0  0  0  0  0  0
  130.7017  137.9326  161.3373 H   0  0  0  0  0  0  0  0  0  0  0  0
  131.3900  139.0181  158.5122 H   0  0  0  0  0  0  0  0  0  0  0  0
  130.2704  139.7446  159.7450 H   0  0  0  0  0  0  0  0  0  0  0  0
  132.1235  140.2260  161.2765 H   0  0  0  0  0  0  0  0  0  0  0  0
  133.1198  140.2334  159.7571 H   0  0  0  0  0  0  0  0  0  0  0  0
  133.1355  138.0189  161.6108 H   0  0  0  0  0  0  0  0  0  0  0  0
  133.4110  137.7997  159.8291 H   0  0  0  0  0  0  0  0  0  0  0  0
  127.0575  139.1480  167.0254 H   0  0  0  0  0  0  0  0  0  0  0  0
  125.5814  138.3729  166.4020 H   0  0  0  0  0  0  0  0  0  0  0  0
  125.2945  135.9674  166.5249 H   0  0  0  0  0  0  0  0  0  0  0  0
  125.8955  133.8842  167.6920 H   0  0  0  0  0  0  0  0  0  0  0  0
  127.9622  133.7727  169.0261 H   0  0  0  0  0  0  0  0  0  0  0  0
  129.4326  135.7413  169.1852 H   0  0  0  0  0  0  0  0  0  0  0  0
  128.8364  137.8215  168.0104 H   0  0  0  0  0  0  0  0  0  0  0  0
  1  2  1  0
  1 33  1  0
  1 34  1  0
  1 35  1  0
  2  3  1  1
  2  4  1  0
  2 26  1  0
  4  5  1  0
  4 36  1  0
  4 37  1  0
  5  6  1  0
  5 38  1  0
  5 39  1  0
  6  7  1  0
  6 40  1  0
  7 25  1  0
  7  8  2  0
  8  9  1  0
  8 41  1  0
  9 10  2  0
  9 42  1  0
 10 11  1  0
 10 25  1  0
 11 16  1  0
 11 12  2  0
 12 13  1  0
 13 14  1  0
 13 15  1  0
 15 16  2  0
 15 43  1  0
 16 17  1  0
 17 18  1  0
 17 44  1  0
 17 45  1  0
 18 19  1  0
 18 20  1  0
 18 21  1  0
 21 24  1  0
 21 22  1  0
 21 46  1  0
 22 23  1  0
 22 47  1  0
 22 48  1  0
 23 24  1  0
 23 49  1  0
 23 50  1  0
 24 51  1  0
 24 52  1  0
 26 27  1  0
 26 53  1  0
 26 54  1  0
 27 32  1  0
 27 28  2  0
 28 29  1  0
 28 55  1  0
 29 30  2  0
 29 56  1  0
 30 31  1  0
 30 57  1  0
 31 32  2  0
 31 58  1  0
 32 59  1  0
M  CHG  1  18   1
M  END
>  <DOCK_score>  (1) 
-46.011303

>  <SMILES>  (1) 
C[C@H](CCNc1ccc(-c2n[nH]cc2C[NH2+]C2CCC2)o1)Cc1ccccc1

$$$$
