Oc1ccc(-c2c[nH]c(Nc3cc(O)cc(O)c3)[nH+]2)cc1
     RDKit          3D

 35 37  0  0  1  0  0  0  0  0999 V2000
  131.2064  129.8633  152.4464 O   0  0  0  0  0  0  0  0  0  0  0  0
  130.9263  130.5698  153.5730 C   0  0  0  0  0  0  0  0  0  0  0  0
  130.2955  131.8026  153.4786 C   0  0  0  0  0  0  0  0  0  0  0  0
  130.0047  132.5196  154.6204 C   0  0  0  0  0  0  0  0  0  0  0  0
  130.3497  132.0072  155.8700 C   0  0  0  0  0  0  0  0  0  0  0  0
  130.0388  132.7760  157.1002 C   0  0  0  0  0  0  0  0  0  0  0  0
  129.2555  132.3585  158.1255 C   0  0  0  0  0  0  0  0  0  0  0  0
  129.2373  133.3732  159.0519 N   0  0  0  0  0  0  0  0  0  0  0  0
  128.7609  133.3713  159.8969 H   0  0  0  0  0  0  0  0  0  0  0  0
  130.0108  134.3815  158.5647 C   0  0  0  0  0  0  0  0  0  0  0  0
  130.2540  135.5898  159.1971 N   0  0  0  0  0  0  0  0  0  0  0  0
  129.6826  135.8528  160.4452 C   0  0  0  0  0  0  0  0  0  0  0  0
  130.4958  136.1052  161.5421 C   0  0  0  0  0  0  0  0  0  0  0  0
  129.9280  136.3698  162.7791 C   0  0  0  0  0  0  0  0  0  0  0  0
  130.7235  136.6209  163.8518 O   0  0  0  0  0  0  0  0  0  0  0  0
  128.5486  136.3734  162.9228 C   0  0  0  0  0  0  0  0  0  0  0  0
  127.7357  136.1167  161.8286 C   0  0  0  0  0  0  0  0  0  0  0  0
  126.3842  136.1200  161.9707 O   0  0  0  0  0  0  0  0  0  0  0  0
  128.3017  135.8562  160.5902 C   0  0  0  0  0  0  0  0  0  0  0  0
  130.4925  134.0181  157.4009 N   0  0  0  0  0  0  0  0  0  0  0  0
  131.0783  134.5533  156.8428 H   0  0  0  0  0  0  0  0  0  0  0  0
  130.9879  130.7714  155.9612 C   0  0  0  0  0  0  0  0  0  0  0  0
  131.2760  130.0594  154.8156 C   0  0  0  0  0  0  0  0  0  0  0  0
  130.9259  130.2981  151.6295 H   0  0  0  0  0  0  0  0  0  0  0  0
  130.0280  132.1989  152.5101 H   0  0  0  0  0  0  0  0  0  0  0  0
  129.5098  133.4767  154.5465 H   0  0  0  0  0  0  0  0  0  0  0  0
  128.7436  131.4105  158.1994 H   0  0  0  0  0  0  0  0  0  0  0  0
  130.8208  136.2535  158.7737 H   0  0  0  0  0  0  0  0  0  0  0  0
  131.5701  136.0984  161.4313 H   0  0  0  0  0  0  0  0  0  0  0  0
  131.6698  136.5932  163.6549 H   0  0  0  0  0  0  0  0  0  0  0  0
  128.1070  136.5758  163.8873 H   0  0  0  0  0  0  0  0  0  0  0  0
  125.9024  135.9310  161.1538 H   0  0  0  0  0  0  0  0  0  0  0  0
  127.6686  135.6557  159.7385 H   0  0  0  0  0  0  0  0  0  0  0  0
  131.2568  130.3720  156.9280 H   0  0  0  0  0  0  0  0  0  0  0  0
  131.7703  129.1017  154.8857 H   0  0  0  0  0  0  0  0  0  0  0  0
  1  2  1  0
  1 24  1  0
  2 23  2  0
  2  3  1  0
  3  4  2  0
  3 25  1  0
  4  5  1  0
  4 26  1  0
  5  6  1  0
  5 22  2  0
  6 20  1  0
  6  7  2  0
  7  8  1  0
  7 27  1  0
  8  9  1  0
  8 10  1  0
 10 11  1  0
 10 20  2  0
 11 12  1  0
 11 28  1  0
 12 19  1  0
 12 13  2  0
 13 14  1  0
 13 29  1  0
 14 15  1  0
 14 16  2  0
 15 30  1  0
 16 17  1  0
 16 31  1  0
 17 18  1  0
 17 19  2  0
 18 32  1  0
 19 33  1  0
 20 21  1  0
 22 23  1  0
 22 34  1  0
 23 35  1  0
M  CHG  1  20   1
M  END
>  <DOCK_score>  (1) 
-43.681564

>  <SMILES>  (1) 
Oc1ccc(-c2c[nH]c(Nc3cc(O)cc(O)c3)[nH+]2)cc1

$$$$
