CC1=CCCN(c2ccc(Cl)c(C[C@@H](Nc3[nH]cc(-c4ccc(N)cc4)[nH+]3)c3ccc(C)cc3)c2)C1
     RDKit          3D

 69 73  0  0  1  0  0  0  0  0999 V2000
  130.5981  140.4995  165.7518 C   0  0  0  0  0  0  0  0  0  0  0  0
  129.3060  140.2799  165.0080 C   0  0  0  0  0  0  0  0  0  0  0  0
  128.4598  141.2621  164.9386 C   0  0  0  0  0  0  0  0  0  0  0  0
  127.1389  141.1528  164.2301 C   0  0  0  0  0  0  0  0  0  0  0  0
  127.1473  139.9323  163.3065 C   0  0  0  0  0  0  0  0  0  0  0  0
  127.6369  138.7724  164.0700 N   0  0  0  0  0  0  0  0  0  0  0  0
  127.4113  137.5825  163.3728 C   0  0  0  0  0  0  0  0  0  0  0  0
  126.6195  136.5875  163.9321 C   0  0  0  0  0  0  0  0  0  0  0  0
  126.3980  135.4129  163.2409 C   0  0  0  0  0  0  0  0  0  0  0  0
  126.9597  135.2286  161.9893 C   0  0  0  0  0  0  0  0  0  0  0  0
  126.6735  133.7534  161.1201 Cl  0  0  0  0  0  0  0  0  0  0  0  0
  127.7528  136.2157  161.4321 C   0  0  0  0  0  0  0  0  0  0  0  0
  128.3669  136.0091  160.0713 C   0  0  0  0  0  0  0  0  0  0  0  0
  129.7393  135.3507  160.2258 C   0  0  1  0  0  0  0  0  0  0  0  0
  129.6262  134.3875  160.7234 H   0  0  0  0  0  0  0  0  0  0  0  0
  130.3361  135.1497  158.9030 N   0  0  0  0  0  0  0  0  0  0  0  0
  130.1063  133.9725  158.2115 C   0  0  0  0  0  0  0  0  0  0  0  0
  129.3491  132.9306  158.6501 N   0  0  0  0  0  0  0  0  0  0  0  0
  128.8770  132.8793  159.4960 H   0  0  0  0  0  0  0  0  0  0  0  0
  129.3770  131.9638  157.6730 C   0  0  0  0  0  0  0  0  0  0  0  0
  130.1450  132.4458  156.6649 C   0  0  0  0  0  0  0  0  0  0  0  0
  130.4548  131.7477  155.3931 C   0  0  0  0  0  0  0  0  0  0  0  0
  130.0806  132.3153  154.1762 C   0  0  0  0  0  0  0  0  0  0  0  0
  130.3746  131.6674  152.9949 C   0  0  0  0  0  0  0  0  0  0  0  0
  131.0331  130.4438  153.0177 C   0  0  0  0  0  0  0  0  0  0  0  0
  131.3244  129.7865  151.8198 N   0  0  0  0  0  0  0  0  0  0  0  0
  131.4026  129.8735  154.2301 C   0  0  0  0  0  0  0  0  0  0  0  0
  131.1156  130.5205  155.4135 C   0  0  0  0  0  0  0  0  0  0  0  0
  130.5830  133.6777  157.0265 N   0  0  0  0  0  0  0  0  0  0  0  0
  131.1544  134.2508  156.4918 H   0  0  0  0  0  0  0  0  0  0  0  0
  130.6333  136.2404  161.0504 C   0  0  0  0  0  0  0  0  0  0  0  0
  130.9241  137.5205  160.6172 C   0  0  0  0  0  0  0  0  0  0  0  0
  131.7407  138.3382  161.3757 C   0  0  0  0  0  0  0  0  0  0  0  0
  132.2740  137.8724  162.5630 C   0  0  0  0  0  0  0  0  0  0  0  0
  133.1673  138.7626  163.3882 C   0  0  0  0  0  0  0  0  0  0  0  0
  131.9875  136.5905  162.9936 C   0  0  0  0  0  0  0  0  0  0  0  0
  131.1675  135.7744  162.2372 C   0  0  0  0  0  0  0  0  0  0  0  0
  127.9779  137.3927  162.1191 C   0  0  0  0  0  0  0  0  0  0  0  0
  129.0620  138.9365  164.3835 C   0  0  0  0  0  0  0  0  0  0  0  0
  131.3547  140.8752  165.0629 H   0  0  0  0  0  0  0  0  0  0  0  0
  130.4397  141.2260  166.5487 H   0  0  0  0  0  0  0  0  0  0  0  0
  130.9347  139.5561  166.1818 H   0  0  0  0  0  0  0  0  0  0  0  0
  128.7166  142.1989  165.4107 H   0  0  0  0  0  0  0  0  0  0  0  0
  126.3409  141.0459  164.9648 H   0  0  0  0  0  0  0  0  0  0  0  0
  126.9690  142.0528  163.6388 H   0  0  0  0  0  0  0  0  0  0  0  0
  127.8079  140.1188  162.4599 H   0  0  0  0  0  0  0  0  0  0  0  0
  126.1363  139.7355  162.9498 H   0  0  0  0  0  0  0  0  0  0  0  0
  126.1781  136.7324  164.9072 H   0  0  0  0  0  0  0  0  0  0  0  0
  125.7828  134.6389  163.6755 H   0  0  0  0  0  0  0  0  0  0  0  0
  128.4800  136.9723  159.5737 H   0  0  0  0  0  0  0  0  0  0  0  0
  127.7202  135.3658  159.4748 H   0  0  0  0  0  0  0  0  0  0  0  0
  130.8922  135.8414  158.5117 H   0  0  0  0  0  0  0  0  0  0  0  0
  128.8786  131.0061  157.7011 H   0  0  0  0  0  0  0  0  0  0  0  0
  129.5641  133.2637  154.1583 H   0  0  0  0  0  0  0  0  0  0  0  0
  130.0887  132.1089  152.0517 H   0  0  0  0  0  0  0  0  0  0  0  0
  131.7843  128.9322  151.8350 H   0  0  0  0  0  0  0  0  0  0  0  0
  131.0668  130.1835  150.9735 H   0  0  0  0  0  0  0  0  0  0  0  0
  131.9146  128.9225  154.2454 H   0  0  0  0  0  0  0  0  0  0  0  0
  131.4030  130.0770  156.3553 H   0  0  0  0  0  0  0  0  0  0  0  0
  130.5103  137.8831  159.6877 H   0  0  0  0  0  0  0  0  0  0  0  0
  131.9643  139.3398  161.0395 H   0  0  0  0  0  0  0  0  0  0  0  0
  134.2036  138.6234  163.0799 H   0  0  0  0  0  0  0  0  0  0  0  0
  132.8807  139.8035  163.2391 H   0  0  0  0  0  0  0  0  0  0  0  0
  133.0640  138.5044  164.4421 H   0  0  0  0  0  0  0  0  0  0  0  0
  132.4043  136.2266  163.9212 H   0  0  0  0  0  0  0  0  0  0  0  0
  130.9436  134.7728  162.5736 H   0  0  0  0  0  0  0  0  0  0  0  0
  128.5936  138.1647  161.6816 H   0  0  0  0  0  0  0  0  0  0  0  0
  129.3715  138.1546  165.0770 H   0  0  0  0  0  0  0  0  0  0  0  0
  129.6450  138.8564  163.4659 H   0  0  0  0  0  0  0  0  0  0  0  0
  1  2  1  0
  1 40  1  0
  1 41  1  0
  1 42  1  0
  2 39  1  0
  2  3  2  0
  3  4  1  0
  3 43  1  0
  4  5  1  0
  4 44  1  0
  4 45  1  0
  5  6  1  0
  5 46  1  0
  5 47  1  0
  6  7  1  0
  6 39  1  0
  7 38  1  0
  7  8  2  0
  8  9  1  0
  8 48  1  0
  9 10  2  0
  9 49  1  0
 10 11  1  0
 10 12  1  0
 12 13  1  0
 12 38  2  0
 13 14  1  0
 13 50  1  0
 13 51  1  0
 14 15  1  1
 14 16  1  0
 14 31  1  0
 16 52  1  0
 17 16  1  0
 17 29  2  0
 17 18  1  0
 18 19  1  0
 18 20  1  0
 20 21  2  0
 20 53  1  0
 21 22  1  0
 21 29  1  0
 22 28  1  0
 22 23  2  0
 23 24  1  0
 23 54  1  0
 24 25  2  0
 24 55  1  0
 25 26  1  0
 25 27  1  0
 26 56  1  0
 26 57  1  0
 27 28  2  0
 27 58  1  0
 28 59  1  0
 29 30  1  0
 31 37  1  0
 31 32  2  0
 32 33  1  0
 32 60  1  0
 33 34  2  0
 33 61  1  0
 34 35  1  0
 34 36  1  0
 35 62  1  0
 35 63  1  0
 35 64  1  0
 36 37  2  0
 36 65  1  0
 37 66  1  0
 38 67  1  0
 39 68  1  0
 39 69  1  0
M  CHG  1  29   1
M  END
>  <DOCK_score>  (1) 
-59.966915

>  <SMILES>  (1) 
CC1=CCCN(c2ccc(Cl)c(C[C@@H](Nc3[nH]cc(-c4ccc(N)cc4)[nH+]3)c3ccc(C)cc3)c2)C1

$$$$
