CCc1ccc(-c2c[nH]c(N[C@H](C3=CCCC3)C3=Cc4ccccc4C3)[nH+]2)cc1
     RDKit          3D

 57 61  0  0  1  0  0  0  0  0999 V2000
  129.9390  129.3035  151.4182 C   0  0  0  0  0  0  0  0  0  0  0  0
  131.2822  129.8078  151.9497 C   0  0  0  0  0  0  0  0  0  0  0  0
  131.0813  130.4414  153.3022 C   0  0  0  0  0  0  0  0  0  0  0  0
  131.1800  129.6697  154.4460 C   0  0  0  0  0  0  0  0  0  0  0  0
  131.0026  130.2457  155.6875 C   0  0  0  0  0  0  0  0  0  0  0  0
  130.7123  131.6052  155.7869 C   0  0  0  0  0  0  0  0  0  0  0  0
  130.5151  132.2290  157.1182 C   0  0  0  0  0  0  0  0  0  0  0  0
  130.0342  131.6114  158.2256 C   0  0  0  0  0  0  0  0  0  0  0  0
  130.0161  132.5494  159.2290 N   0  0  0  0  0  0  0  0  0  0  0  0
  129.7218  132.4079  160.1424 H   0  0  0  0  0  0  0  0  0  0  0  0
  130.4870  133.7138  158.7051 C   0  0  0  0  0  0  0  0  0  0  0  0
  130.6285  134.9077  159.3913 N   0  0  0  0  0  0  0  0  0  0  0  0
  129.7262  135.2266  160.5004 C   0  0  2  0  0  0  0  0  0  0  0  0
  129.8192  134.4652  161.2748 H   0  0  0  0  0  0  0  0  0  0  0  0
  128.3058  135.2616  159.9983 C   0  0  0  0  0  0  0  0  0  0  0  0
  127.3485  134.4901  160.4366 C   0  0  0  0  0  0  0  0  0  0  0  0
  126.0473  134.7799  159.7254 C   0  0  0  0  0  0  0  0  0  0  0  0
  126.4566  135.5826  158.4687 C   0  0  0  0  0  0  0  0  0  0  0  0
  127.8011  136.1987  158.9258 C   0  0  0  0  0  0  0  0  0  0  0  0
  130.0899  136.5724  161.0729 C   0  0  0  0  0  0  0  0  0  0  0  0
  130.6246  137.5792  160.4044 C   0  0  0  0  0  0  0  0  0  0  0  0
  130.8428  138.7428  161.2835 C   0  0  0  0  0  0  0  0  0  0  0  0
  131.3700  140.0132  161.0370 C   0  0  0  0  0  0  0  0  0  0  0  0
  131.4678  140.9279  162.0644 C   0  0  0  0  0  0  0  0  0  0  0  0
  131.0466  140.5953  163.3398 C   0  0  0  0  0  0  0  0  0  0  0  0
  130.5235  139.3385  163.5928 C   0  0  0  0  0  0  0  0  0  0  0  0
  130.4212  138.4195  162.5746 C   0  0  0  0  0  0  0  0  0  0  0  0
  129.9116  137.0002  162.5109 C   0  0  0  0  0  0  0  0  0  0  0  0
  130.7895  133.5168  157.4451 N   0  0  0  0  0  0  0  0  0  0  0  0
  131.1498  134.1857  156.8420 H   0  0  0  0  0  0  0  0  0  0  0  0
  130.6084  132.3766  154.6307 C   0  0  0  0  0  0  0  0  0  0  0  0
  130.7933  131.7912  153.3948 C   0  0  0  0  0  0  0  0  0  0  0  0
  130.0844  128.8451  150.4400 H   0  0  0  0  0  0  0  0  0  0  0  0
  129.5293  128.5655  152.1079 H   0  0  0  0  0  0  0  0  0  0  0  0
  129.2465  130.1403  151.3281 H   0  0  0  0  0  0  0  0  0  0  0  0
  131.9747  128.9708  152.0398 H   0  0  0  0  0  0  0  0  0  0  0  0
  131.6919  130.5457  151.2600 H   0  0  0  0  0  0  0  0  0  0  0  0
  131.4003  128.6153  154.3675 H   0  0  0  0  0  0  0  0  0  0  0  0
  131.0845  129.6433  156.5802 H   0  0  0  0  0  0  0  0  0  0  0  0
  129.7243  130.5797  158.3036 H   0  0  0  0  0  0  0  0  0  0  0  0
  131.3254  135.5331  159.1378 H   0  0  0  0  0  0  0  0  0  0  0  0
  127.4706  133.7423  161.2063 H   0  0  0  0  0  0  0  0  0  0  0  0
  125.5559  133.8501  159.4386 H   0  0  0  0  0  0  0  0  0  0  0  0
  125.3922  135.3764  160.3603 H   0  0  0  0  0  0  0  0  0  0  0  0
  126.5951  134.9238  157.6114 H   0  0  0  0  0  0  0  0  0  0  0  0
  125.7268  136.3613  158.2469 H   0  0  0  0  0  0  0  0  0  0  0  0
  127.6446  137.1963  159.3363 H   0  0  0  0  0  0  0  0  0  0  0  0
  128.5032  136.2358  158.0928 H   0  0  0  0  0  0  0  0  0  0  0  0
  130.8679  137.5538  159.3525 H   0  0  0  0  0  0  0  0  0  0  0  0
  131.7000  140.2782  160.0435 H   0  0  0  0  0  0  0  0  0  0  0  0
  131.8758  141.9092  161.8725 H   0  0  0  0  0  0  0  0  0  0  0  0
  131.1263  141.3171  164.1392 H   0  0  0  0  0  0  0  0  0  0  0  0
  130.1951  139.0804  164.5888 H   0  0  0  0  0  0  0  0  0  0  0  0
  128.8578  136.9652  162.7871 H   0  0  0  0  0  0  0  0  0  0  0  0
  130.4966  136.3593  163.1705 H   0  0  0  0  0  0  0  0  0  0  0  0
  130.3834  133.4307  154.7020 H   0  0  0  0  0  0  0  0  0  0  0  0
  130.7135  132.3880  152.4984 H   0  0  0  0  0  0  0  0  0  0  0  0
  1  2  1  0
  1 33  1  0
  1 34  1  0
  1 35  1  0
  2  3  1  0
  2 36  1  0
  2 37  1  0
  3 32  2  0
  3  4  1  0
  4  5  2  0
  4 38  1  0
  5  6  1  0
  5 39  1  0
  6  7  1  0
  6 31  2  0
  7 29  1  0
  7  8  2  0
  8  9  1  0
  8 40  1  0
  9 10  1  0
  9 11  1  0
 11 12  1  0
 11 29  2  0
 12 13  1  0
 12 41  1  0
 13 14  1  1
 13 15  1  0
 13 20  1  0
 15 19  1  0
 15 16  2  0
 16 17  1  0
 16 42  1  0
 17 18  1  0
 17 43  1  0
 17 44  1  0
 18 19  1  0
 18 45  1  0
 18 46  1  0
 19 47  1  0
 19 48  1  0
 20 28  1  0
 20 21  2  0
 21 22  1  0
 21 49  1  0
 22 27  2  0
 22 23  1  0
 23 24  2  0
 23 50  1  0
 24 25  1  0
 24 51  1  0
 25 26  2  0
 25 52  1  0
 26 27  1  0
 26 53  1  0
 27 28  1  0
 28 54  1  0
 28 55  1  0
 29 30  1  0
 31 32  1  0
 31 56  1  0
 32 57  1  0
M  CHG  1  29   1
M  END
>  <DOCK_score>  (1) 
-57.682358

>  <SMILES>  (1) 
CCc1ccc(-c2c[nH]c(N[C@H](C3=CCCC3)C3=Cc4ccccc4C3)[nH+]2)cc1

$$$$
