O=C(Nc1ccc(N[C@H]2c3ccccc3CC2Cl)cc1)[C@@H]1[NH2+]CC[C@H](O)[C@@H]1O
     RDKit          3D

 53 56  0  0  1  0  0  0  0  0999 V2000
  132.6809  134.3536  161.2672 O   0  0  0  0  0  0  0  0  0  0  0  0
  132.0726  134.7860  160.3111 C   0  0  0  0  0  0  0  0  0  0  0  0
  132.0921  136.1063  160.0409 N   0  0  0  0  0  0  0  0  0  0  0  0
  132.8153  136.9794  160.8647 C   0  0  0  0  0  0  0  0  0  0  0  0
  133.3677  138.1374  160.3335 C   0  0  0  0  0  0  0  0  0  0  0  0
  134.0797  138.9979  161.1450 C   0  0  0  0  0  0  0  0  0  0  0  0
  134.2440  138.7051  162.4926 C   0  0  0  0  0  0  0  0  0  0  0  0
  134.9659  139.5767  163.3150 N   0  0  0  0  0  0  0  0  0  0  0  0
  135.1392  139.2678  164.7365 C   0  0  1  0  0  0  0  0  0  0  0  0
  134.2176  138.8565  165.1486 H   0  0  0  0  0  0  0  0  0  0  0  0
  136.2808  138.2921  164.9266 C   0  0  0  0  0  0  0  0  0  0  0  0
  136.6070  137.1444  164.2233 C   0  0  0  0  0  0  0  0  0  0  0  0
  137.7133  136.3999  164.5827 C   0  0  0  0  0  0  0  0  0  0  0  0
  138.4986  136.8010  165.6475 C   0  0  0  0  0  0  0  0  0  0  0  0
  138.1752  137.9454  166.3497 C   0  0  0  0  0  0  0  0  0  0  0  0
  137.0661  138.6933  165.9909 C   0  0  0  0  0  0  0  0  0  0  0  0
  136.5054  139.9656  166.5894 C   0  0  0  0  0  0  0  0  0  0  0  0
  135.5570  140.5346  165.5129 C   0  0  1  0  0  0  0  0  0  0  0  0
  136.4288  141.6880  164.4357 Cl  0  0  0  0  0  0  0  0  0  0  0  0
  133.6963  137.5440  163.0226 C   0  0  0  0  0  0  0  0  0  0  0  0
  132.9799  136.6863  162.2119 C   0  0  0  0  0  0  0  0  0  0  0  0
  131.2949  133.8471  159.4252 C   0  0  2  0  0  0  0  0  0  0  0  0
  131.3967  132.8281  159.7986 H   0  0  0  0  0  0  0  0  0  0  0  0
  131.8195  133.9199  158.0563 N   0  0  0  0  0  0  0  0  0  0  0  0
  131.6804  134.8509  157.6930 H   0  0  0  0  0  0  0  0  0  0  0  0
  132.8059  133.7077  158.0634 H   0  0  0  0  0  0  0  0  0  0  0  0
  131.1188  132.9533  157.2023 C   0  0  0  0  0  0  0  0  0  0  0  0
  129.6349  133.3187  157.1231 C   0  0  0  0  0  0  0  0  0  0  0  0
  129.0318  133.2901  158.5304 C   0  0  2  0  0  0  0  0  0  0  0  0
  129.0923  132.2786  158.9323 H   0  0  0  0  0  0  0  0  0  0  0  0
  127.6649  133.7023  158.4730 O   0  0  0  0  0  0  0  0  0  0  0  0
  129.8179  134.2469  159.4314 C   0  0  2  0  0  0  0  0  0  0  0  0
  129.4301  134.1912  160.4486 H   0  0  0  0  0  0  0  0  0  0  0  0
  129.6830  135.5826  158.9418 O   0  0  0  0  0  0  0  0  0  0  0  0
  131.6058  136.4522  159.2762 H   0  0  0  0  0  0  0  0  0  0  0  0
  133.2399  138.3651  159.2855 H   0  0  0  0  0  0  0  0  0  0  0  0
  134.5093  139.8985  160.7318 H   0  0  0  0  0  0  0  0  0  0  0  0
  135.3517  140.3856  162.9439 H   0  0  0  0  0  0  0  0  0  0  0  0
  135.9940  136.8305  163.3914 H   0  0  0  0  0  0  0  0  0  0  0  0
  137.9646  135.5051  164.0328 H   0  0  0  0  0  0  0  0  0  0  0  0
  139.3642  136.2203  165.9298 H   0  0  0  0  0  0  0  0  0  0  0  0
  138.7865  138.2558  167.1841 H   0  0  0  0  0  0  0  0  0  0  0  0
  137.3092  140.6719  166.7969 H   0  0  0  0  0  0  0  0  0  0  0  0
  135.9521  139.7445  167.5021 H   0  0  0  0  0  0  0  0  0  0  0  0
  134.6908  141.0109  165.9722 H   0  0  0  0  0  0  0  0  0  0  0  0
  133.8278  137.3139  164.0696 H   0  0  0  0  0  0  0  0  0  0  0  0
  132.5509  135.7853  162.6248 H   0  0  0  0  0  0  0  0  0  0  0  0
  131.2243  131.9536  157.6236 H   0  0  0  0  0  0  0  0  0  0  0  0
  131.5513  132.9731  156.2020 H   0  0  0  0  0  0  0  0  0  0  0  0
  129.1162  132.5988  156.4900 H   0  0  0  0  0  0  0  0  0  0  0  0
  129.5276  134.3181  156.7014 H   0  0  0  0  0  0  0  0  0  0  0  0
  127.2211  133.7136  159.3322 H   0  0  0  0  0  0  0  0  0  0  0  0
  130.0078  135.7053  158.0394 H   0  0  0  0  0  0  0  0  0  0  0  0
  1  2  2  0
  2  3  1  0
  2 22  1  0
  3  4  1  0
  3 35  1  0
  4 21  1  0
  4  5  2  0
  5  6  1  0
  5 36  1  0
  6  7  2  0
  6 37  1  0
  7  8  1  0
  7 20  1  0
  8  9  1  0
  8 38  1  0
  9 10  1  1
  9 18  1  0
  9 11  1  0
 11 16  1  0
 11 12  2  0
 12 13  1  0
 12 39  1  0
 13 14  2  0
 13 40  1  0
 14 15  1  0
 14 41  1  0
 15 16  2  0
 15 42  1  0
 16 17  1  0
 17 18  1  0
 17 43  1  0
 17 44  1  0
 18 19  1  0
 18 45  1  1
 20 21  2  0
 20 46  1  0
 21 47  1  0
 22 23  1  1
 22 32  1  0
 22 24  1  0
 24 25  1  0
 24 26  1  0
 24 27  1  0
 27 28  1  0
 27 48  1  0
 27 49  1  0
 28 29  1  0
 28 50  1  0
 28 51  1  0
 29 30  1  1
 29 31  1  0
 29 32  1  0
 31 52  1  0
 32 33  1  1
 32 34  1  0
 34 53  1  0
M  CHG  1  24   1
M  END
>  <DOCK_score>  (1) 
-56.302586

>  <SMILES>  (1) 
O=C(Nc1ccc(N[C@H]2c3ccccc3CC2Cl)cc1)[C@@H]1[NH2+]CC[C@H](O)[C@@H]1O

$$$$
