O=C1CC=C(NC(N[C@@H]2C=C[C@@H](O)[C@H]2Br)=[NH+][C@H]2[C@@H]3CC=CC[C@@H]32)N1
     RDKit          3D

 46 49  0  0  1  0  0  0  0  0999 V2000
  128.8674  130.0017  158.6312 O   0  0  0  0  0  0  0  0  0  0  0  0
  129.3536  131.0831  158.3758 C   0  0  0  0  0  0  0  0  0  0  0  0
  130.0844  131.4795  157.1086 C   0  0  0  0  0  0  0  0  0  0  0  0
  130.4610  132.9270  157.3487 C   0  0  0  0  0  0  0  0  0  0  0  0
  130.0004  133.2412  158.5526 C   0  0  0  0  0  0  0  0  0  0  0  0
  130.1495  134.4963  159.1378 N   0  0  0  0  0  0  0  0  0  0  0  0
  129.2012  134.9609  160.0215 C   0  0  0  0  0  0  0  0  0  0  0  0
  128.1072  134.1858  160.3263 N   0  0  0  0  0  0  0  0  0  0  0  0
  127.4751  134.2962  161.6434 C   0  0  2  0  0  0  0  0  0  0  0  0
  128.2133  134.5738  162.3959 H   0  0  0  0  0  0  0  0  0  0  0  0
  126.8038  132.9948  162.0159 C   0  0  0  0  0  0  0  0  0  0  0  0
  125.5120  133.0663  161.8441 C   0  0  0  0  0  0  0  0  0  0  0  0
  125.1062  134.4274  161.3283 C   0  0  1  0  0  0  0  0  0  0  0  0
  124.9014  134.3826  160.2586 H   0  0  0  0  0  0  0  0  0  0  0  0
  123.9603  134.9083  162.0338 O   0  0  0  0  0  0  0  0  0  0  0  0
  126.3286  135.3331  161.6053 C   0  0  1  0  0  0  0  0  0  0  0  0
  126.4756  136.0497  160.7972 H   0  0  0  0  0  0  0  0  0  0  0  0
  126.1503  136.2519  163.3342 Br  0  0  0  0  0  0  0  0  0  0  0  0
  129.3408  136.1352  160.5692 N   0  0  0  0  0  0  0  0  0  0  0  0
  128.6728  136.4625  161.1918 H   0  0  0  0  0  0  0  0  0  0  0  0
  130.5065  136.9610  160.2445 C   0  0  1  0  0  0  0  0  0  0  0  0
  130.9183  136.8201  159.2453 H   0  0  0  0  0  0  0  0  0  0  0  0
  130.5591  138.3711  160.8362 C   0  0  2  0  0  0  0  0  0  0  0  0
  129.7290  138.6982  161.4624 H   0  0  0  0  0  0  0  0  0  0  0  0
  131.2543  139.4558  159.9976 C   0  0  0  0  0  0  0  0  0  0  0  0
  132.5582  139.8161  160.6665 C   0  0  0  0  0  0  0  0  0  0  0  0
  133.3500  138.8790  161.1254 C   0  0  0  0  0  0  0  0  0  0  0  0
  132.9700  137.4245  160.9926 C   0  0  0  0  0  0  0  0  0  0  0  0
  131.4896  137.2694  161.3756 C   0  0  2  0  0  0  0  0  0  0  0  0
  131.2924  136.8442  162.3596 H   0  0  0  0  0  0  0  0  0  0  0  0
  129.3600  132.1768  159.1625 N   0  0  0  0  0  0  0  0  0  0  0  0
  129.4263  131.3933  156.2440 H   0  0  0  0  0  0  0  0  0  0  0  0
  130.9770  130.8690  156.9716 H   0  0  0  0  0  0  0  0  0  0  0  0
  130.9982  133.5758  156.6727 H   0  0  0  0  0  0  0  0  0  0  0  0
  130.9193  135.0447  158.9196 H   0  0  0  0  0  0  0  0  0  0  0  0
  127.7539  133.5658  159.6693 H   0  0  0  0  0  0  0  0  0  0  0  0
  127.3247  132.1202  162.3766 H   0  0  0  0  0  0  0  0  0  0  0  0
  124.8234  132.2588  162.0446 H   0  0  0  0  0  0  0  0  0  0  0  0
  123.6989  135.8076  161.7931 H   0  0  0  0  0  0  0  0  0  0  0  0
  130.6169  140.3380  159.9389 H   0  0  0  0  0  0  0  0  0  0  0  0
  131.4501  139.0747  158.9953 H   0  0  0  0  0  0  0  0  0  0  0  0
  132.8405  140.8536  160.7672 H   0  0  0  0  0  0  0  0  0  0  0  0
  134.2809  139.1489  161.6016 H   0  0  0  0  0  0  0  0  0  0  0  0
  133.5860  136.8227  161.6609 H   0  0  0  0  0  0  0  0  0  0  0  0
  133.1184  137.0968  159.9637 H   0  0  0  0  0  0  0  0  0  0  0  0
  128.9619  132.2144  160.0463 H   0  0  0  0  0  0  0  0  0  0  0  0
  1  2  2  0
  2 31  1  0
  2  3  1  0
  3  4  1  0
  3 32  1  0
  3 33  1  0
  4  5  2  0
  4 34  1  0
  5  6  1  0
  5 31  1  0
  6 35  1  0
  7  6  1  0
  7  8  1  0
  7 19  2  0
  8  9  1  0
  8 36  1  0
  9 10  1  1
  9 16  1  0
  9 11  1  0
 11 12  2  0
 11 37  1  0
 12 13  1  0
 12 38  1  0
 13 14  1  6
 13 15  1  0
 13 16  1  0
 15 39  1  0
 16 17  1  6
 16 18  1  0
 19 20  1  0
 19 21  1  0
 21 22  1  6
 21 29  1  0
 21 23  1  0
 23 24  1  1
 23 29  1  0
 23 25  1  0
 25 26  1  0
 25 40  1  0
 25 41  1  0
 26 27  2  0
 26 42  1  0
 27 28  1  0
 27 43  1  0
 28 29  1  0
 28 44  1  0
 28 45  1  0
 29 30  1  1
 31 46  1  0
M  CHG  1  19   1
M  END
>  <DOCK_score>  (1) 
-42.635841

>  <SMILES>  (1) 
O=C1CC=C(NC(N[C@@H]2C=C[C@@H](O)[C@H]2Br)=[NH+][C@H]2[C@@H]3CC=CC[C@@H]32)N1

$$$$
