CCc1ccc(-c2c[nH]c(N[C@H](C)c3ccc(CC)cc3)[nH+]2)cc1
     RDKit          3D

 50 52  0  0  1  0  0  0  0  0999 V2000
  130.1262  129.0370  151.4424 C   0  0  0  0  0  0  0  0  0  0  0  0
  131.4148  129.6307  152.0150 C   0  0  0  0  0  0  0  0  0  0  0  0
  131.0984  130.3993  153.2721 C   0  0  0  0  0  0  0  0  0  0  0  0
  131.1229  129.7569  154.4970 C   0  0  0  0  0  0  0  0  0  0  0  0
  130.8387  130.4569  155.6519 C   0  0  0  0  0  0  0  0  0  0  0  0
  130.5163  131.8110  155.5815 C   0  0  0  0  0  0  0  0  0  0  0  0
  130.2050  132.5675  156.8188 C   0  0  0  0  0  0  0  0  0  0  0  0
  129.6513  132.0586  157.9473 C   0  0  0  0  0  0  0  0  0  0  0  0
  129.5388  133.0971  158.8394 N   0  0  0  0  0  0  0  0  0  0  0  0
  129.1774  133.0458  159.7382 H   0  0  0  0  0  0  0  0  0  0  0  0
  130.0276  134.2112  158.2295 C   0  0  0  0  0  0  0  0  0  0  0  0
  130.0937  135.4748  158.7913 N   0  0  0  0  0  0  0  0  0  0  0  0
  129.1023  135.8857  159.7885 C   0  0  2  0  0  0  0  0  0  0  0  0
  129.1488  135.2138  160.6455 H   0  0  0  0  0  0  0  0  0  0  0  0
  127.7036  135.8287  159.1710 C   0  0  0  0  0  0  0  0  0  0  0  0
  129.3958  137.2940  160.2379 C   0  0  0  0  0  0  0  0  0  0  0  0
  129.9951  138.1861  159.3686 C   0  0  0  0  0  0  0  0  0  0  0  0
  130.2609  139.4790  159.7796 C   0  0  0  0  0  0  0  0  0  0  0  0
  129.9352  139.8771  161.0621 C   0  0  0  0  0  0  0  0  0  0  0  0
  130.2292  141.2853  161.5114 C   0  0  0  0  0  0  0  0  0  0  0  0
  131.6301  141.3431  162.1242 C   0  0  0  0  0  0  0  0  0  0  0  0
  129.3400  138.9836  161.9335 C   0  0  0  0  0  0  0  0  0  0  0  0
  129.0708  137.6919  161.5213 C   0  0  0  0  0  0  0  0  0  0  0  0
  130.4293  133.8897  157.0241 N   0  0  0  0  0  0  0  0  0  0  0  0
  130.8226  134.5000  156.3808 H   0  0  0  0  0  0  0  0  0  0  0  0
  130.4881  132.4518  154.3441 C   0  0  0  0  0  0  0  0  0  0  0  0
  130.7790  131.7431  153.1962 C   0  0  0  0  0  0  0  0  0  0  0  0
  130.3551  128.4810  150.5332 H   0  0  0  0  0  0  0  0  0  0  0  0
  129.6783  128.3660  152.1754 H   0  0  0  0  0  0  0  0  0  0  0  0
  129.4274  129.8406  151.2108 H   0  0  0  0  0  0  0  0  0  0  0  0
  132.1137  128.8270  152.2468 H   0  0  0  0  0  0  0  0  0  0  0  0
  131.8628  130.3017  151.2820 H   0  0  0  0  0  0  0  0  0  0  0  0
  131.3686  128.7065  154.5499 H   0  0  0  0  0  0  0  0  0  0  0  0
  130.8626  129.9554  156.6082 H   0  0  0  0  0  0  0  0  0  0  0  0
  129.3551  131.0333  158.1128 H   0  0  0  0  0  0  0  0  0  0  0  0
  130.7963  136.0880  158.5247 H   0  0  0  0  0  0  0  0  0  0  0  0
  126.9661  136.1344  159.9129 H   0  0  0  0  0  0  0  0  0  0  0  0
  127.6571  136.5006  158.3140 H   0  0  0  0  0  0  0  0  0  0  0  0
  127.4914  134.8100  158.8459 H   0  0  0  0  0  0  0  0  0  0  0  0
  130.2533  137.8739  158.3675 H   0  0  0  0  0  0  0  0  0  0  0  0
  130.7262  140.1769  159.0993 H   0  0  0  0  0  0  0  0  0  0  0  0
  130.1784  141.9579  160.6560 H   0  0  0  0  0  0  0  0  0  0  0  0
  129.4941  141.5895  162.2574 H   0  0  0  0  0  0  0  0  0  0  0  0
  131.8426  142.3615  162.4493 H   0  0  0  0  0  0  0  0  0  0  0  0
  131.6805  140.6703  162.9804 H   0  0  0  0  0  0  0  0  0  0  0  0
  132.3649  141.0387  161.3791 H   0  0  0  0  0  0  0  0  0  0  0  0
  129.0857  139.2945  162.9360 H   0  0  0  0  0  0  0  0  0  0  0  0
  128.6063  136.9936  162.2018 H   0  0  0  0  0  0  0  0  0  0  0  0
  130.2386  133.5008  154.2836 H   0  0  0  0  0  0  0  0  0  0  0  0
  130.7572  132.2385  152.2368 H   0  0  0  0  0  0  0  0  0  0  0  0
  1  2  1  0
  1 28  1  0
  1 29  1  0
  1 30  1  0
  2  3  1  0
  2 31  1  0
  2 32  1  0
  3 27  2  0
  3  4  1  0
  4  5  2  0
  4 33  1  0
  5  6  1  0
  5 34  1  0
  6  7  1  0
  6 26  2  0
  7 24  1  0
  7  8  2  0
  8  9  1  0
  8 35  1  0
  9 10  1  0
  9 11  1  0
 11 12  1  0
 11 24  2  0
 12 13  1  0
 12 36  1  0
 13 14  1  1
 13 15  1  0
 13 16  1  0
 15 37  1  0
 15 38  1  0
 15 39  1  0
 16 23  1  0
 16 17  2  0
 17 18  1  0
 17 40  1  0
 18 19  2  0
 18 41  1  0
 19 20  1  0
 19 22  1  0
 20 21  1  0
 20 42  1  0
 20 43  1  0
 21 44  1  0
 21 45  1  0
 21 46  1  0
 22 23  2  0
 22 47  1  0
 23 48  1  0
 24 25  1  0
 26 27  1  0
 26 49  1  0
 27 50  1  0
M  CHG  1  24   1
M  END
>  <DOCK_score>  (1) 
-57.278362

>  <SMILES>  (1) 
CCc1ccc(-c2c[nH]c(N[C@H](C)c3ccc(CC)cc3)[nH+]2)cc1

$$$$
