Nc1ccc(-c2c[nH]c(N[C@H](C3=CCCCC3)C3CCCCC3)[nH+]2)cc1
     RDKit          3D

 57 60  0  0  1  0  0  0  0  0999 V2000
  131.5903  129.8302  151.8692 N   0  0  0  0  0  0  0  0  0  0  0  0
  131.3069  130.4426  153.0924 C   0  0  0  0  0  0  0  0  0  0  0  0
  130.8566  131.7577  153.1221 C   0  0  0  0  0  0  0  0  0  0  0  0
  130.5758  132.3640  154.3283 C   0  0  0  0  0  0  0  0  0  0  0  0
  130.7441  131.6575  155.5183 C   0  0  0  0  0  0  0  0  0  0  0  0
  130.4431  132.3078  156.8172 C   0  0  0  0  0  0  0  0  0  0  0  0
  130.0104  131.6838  157.9406 C   0  0  0  0  0  0  0  0  0  0  0  0
  129.8535  132.6550  158.9008 N   0  0  0  0  0  0  0  0  0  0  0  0
  129.5517  132.5183  159.8126 H   0  0  0  0  0  0  0  0  0  0  0  0
  130.2006  133.8434  158.3363 C   0  0  0  0  0  0  0  0  0  0  0  0
  130.1816  135.0737  158.9709 N   0  0  0  0  0  0  0  0  0  0  0  0
  129.7610  135.1693  160.3710 C   0  0  2  0  0  0  0  0  0  0  0  0
  130.1637  134.3245  160.9298 H   0  0  0  0  0  0  0  0  0  0  0  0
  128.2561  135.1498  160.4459 C   0  0  0  0  0  0  0  0  0  0  0  0
  127.5922  135.6388  159.4479 C   0  0  0  0  0  0  0  0  0  0  0  0
  126.0942  135.6934  159.3806 C   0  0  0  0  0  0  0  0  0  0  0  0
  125.4837  134.7476  160.4171 C   0  0  0  0  0  0  0  0  0  0  0  0
  126.1577  135.0101  161.7698 C   0  0  0  0  0  0  0  0  0  0  0  0
  127.6202  134.5700  161.6754 C   0  0  0  0  0  0  0  0  0  0  0  0
  130.2847  136.4749  160.9729 C   0  0  0  0  0  0  0  0  0  0  0  0
  129.7197  137.6608  160.1886 C   0  0  0  0  0  0  0  0  0  0  0  0
  130.2433  138.9663  160.7905 C   0  0  0  0  0  0  0  0  0  0  0  0
  131.7713  138.9862  160.7146 C   0  0  0  0  0  0  0  0  0  0  0  0
  132.3363  137.8002  161.4989 C   0  0  0  0  0  0  0  0  0  0  0  0
  131.8127  136.4946  160.8969 C   0  0  0  0  0  0  0  0  0  0  0  0
  130.5553  133.6314  157.0923 N   0  0  0  0  0  0  0  0  0  0  0  0
  130.8474  134.3129  156.4669 H   0  0  0  0  0  0  0  0  0  0  0  0
  131.2010  130.3410  155.4859 C   0  0  0  0  0  0  0  0  0  0  0  0
  131.4757  129.7370  154.2771 C   0  0  0  0  0  0  0  0  0  0  0  0
  131.4728  130.3230  151.0414 H   0  0  0  0  0  0  0  0  0  0  0  0
  131.9051  128.9135  151.8471 H   0  0  0  0  0  0  0  0  0  0  0  0
  130.7265  132.3048  152.2001 H   0  0  0  0  0  0  0  0  0  0  0  0
  130.2253  133.3853  154.3513 H   0  0  0  0  0  0  0  0  0  0  0  0
  129.8206  130.6270  158.0571 H   0  0  0  0  0  0  0  0  0  0  0  0
  130.4470  135.8723  158.4886 H   0  0  0  0  0  0  0  0  0  0  0  0
  128.1514  136.0285  158.6102 H   0  0  0  0  0  0  0  0  0  0  0  0
  125.7641  135.3993  158.3844 H   0  0  0  0  0  0  0  0  0  0  0  0
  125.7655  136.7127  159.5838 H   0  0  0  0  0  0  0  0  0  0  0  0
  125.6559  133.7141  160.1163 H   0  0  0  0  0  0  0  0  0  0  0  0
  124.4131  134.9351  160.4987 H   0  0  0  0  0  0  0  0  0  0  0  0
  125.6524  134.4381  162.5480 H   0  0  0  0  0  0  0  0  0  0  0  0
  126.1094  136.0738  162.0029 H   0  0  0  0  0  0  0  0  0  0  0  0
  127.6679  133.4821  161.6281 H   0  0  0  0  0  0  0  0  0  0  0  0
  128.1591  134.9152  162.5578 H   0  0  0  0  0  0  0  0  0  0  0  0
  129.9718  136.5459  162.0146 H   0  0  0  0  0  0  0  0  0  0  0  0
  130.0326  137.5898  159.1469 H   0  0  0  0  0  0  0  0  0  0  0  0
  128.6311  137.6467  160.2427 H   0  0  0  0  0  0  0  0  0  0  0  0
  129.9304  139.0374  161.8323 H   0  0  0  0  0  0  0  0  0  0  0  0
  129.8408  139.8112  160.2318 H   0  0  0  0  0  0  0  0  0  0  0  0
  132.1444  139.9162  161.1434 H   0  0  0  0  0  0  0  0  0  0  0  0
  132.0842  138.9151  159.6729 H   0  0  0  0  0  0  0  0  0  0  0  0
  132.0235  137.8712  162.5405 H   0  0  0  0  0  0  0  0  0  0  0  0
  133.4250  137.8144  161.4448 H   0  0  0  0  0  0  0  0  0  0  0  0
  132.2152  135.6497  161.4557 H   0  0  0  0  0  0  0  0  0  0  0  0
  132.1257  136.4237  159.8552 H   0  0  0  0  0  0  0  0  0  0  0  0
  131.3364  129.7932  156.4068 H   0  0  0  0  0  0  0  0  0  0  0  0
  131.8262  128.7158  154.2515 H   0  0  0  0  0  0  0  0  0  0  0  0
  1  2  1  0
  1 30  1  0
  1 31  1  0
  2 29  2  0
  2  3  1  0
  3  4  2  0
  3 32  1  0
  4  5  1  0
  4 33  1  0
  5  6  1  0
  5 28  2  0
  6 26  1  0
  6  7  2  0
  7  8  1  0
  7 34  1  0
  8  9  1  0
  8 10  1  0
 10 11  1  0
 10 26  2  0
 11 12  1  0
 11 35  1  0
 12 13  1  1
 12 14  1  0
 12 20  1  0
 14 19  1  0
 14 15  2  0
 15 16  1  0
 15 36  1  0
 16 17  1  0
 16 37  1  0
 16 38  1  0
 17 18  1  0
 17 39  1  0
 17 40  1  0
 18 19  1  0
 18 41  1  0
 18 42  1  0
 19 43  1  0
 19 44  1  0
 20 25  1  0
 20 21  1  0
 20 45  1  0
 21 22  1  0
 21 46  1  0
 21 47  1  0
 22 23  1  0
 22 48  1  0
 22 49  1  0
 23 24  1  0
 23 50  1  0
 23 51  1  0
 24 25  1  0
 24 52  1  0
 24 53  1  0
 25 54  1  0
 25 55  1  0
 26 27  1  0
 28 29  1  0
 28 56  1  0
 29 57  1  0
M  CHG  1  26   1
M  END
>  <DOCK_score>  (1) 
-56.602848

>  <SMILES>  (1) 
Nc1ccc(-c2c[nH]c(N[C@H](C3=CCCCC3)C3CCCCC3)[nH+]2)cc1

$$$$
