O=C1C[C@H](c2ccccc2N2CC[NH+](C(c3ccccc3)c3ccccc3Cl)CC2)N1
     RDKit          3D

 58 62  0  0  1  0  0  0  0  0999 V2000
  135.6736  139.9886  165.4919 O   0  0  0  0  0  0  0  0  0  0  0  0
  134.9593  139.8511  164.5215 C   0  0  0  0  0  0  0  0  0  0  0  0
  134.6830  138.6637  163.6378 C   0  0  0  0  0  0  0  0  0  0  0  0
  133.7699  139.6613  162.9249 C   0  0  2  0  0  0  0  0  0  0  0  0
  132.7156  139.3913  162.9846 H   0  0  0  0  0  0  0  0  0  0  0  0
  134.2081  139.9585  161.5140 C   0  0  0  0  0  0  0  0  0  0  0  0
  135.0836  140.9978  161.2663 C   0  0  0  0  0  0  0  0  0  0  0  0
  135.4816  141.2746  159.9714 C   0  0  0  0  0  0  0  0  0  0  0  0
  135.0092  140.5093  158.9208 C   0  0  0  0  0  0  0  0  0  0  0  0
  134.1376  139.4658  159.1619 C   0  0  0  0  0  0  0  0  0  0  0  0
  133.7355  139.1849  160.4617 C   0  0  0  0  0  0  0  0  0  0  0  0
  132.8536  138.1304  160.7092 N   0  0  0  0  0  0  0  0  0  0  0  0
  131.5511  138.3728  160.0730 C   0  0  0  0  0  0  0  0  0  0  0  0
  130.5976  137.2265  160.4167 C   0  0  0  0  0  0  0  0  0  0  0  0
  131.1653  135.9579  159.9415 N   0  0  0  0  0  0  0  0  0  0  0  0
  131.3044  136.0049  158.9432 H   0  0  0  0  0  0  0  0  0  0  0  0
  130.2413  134.8599  160.2557 C   0  0  1  0  0  0  0  0  0  0  0  0
  128.9196  135.1053  159.5746 C   0  0  0  0  0  0  0  0  0  0  0  0
  127.7514  134.6310  160.1416 C   0  0  0  0  0  0  0  0  0  0  0  0
  126.5385  134.8599  159.5191 C   0  0  0  0  0  0  0  0  0  0  0  0
  126.4948  135.5550  158.3249 C   0  0  0  0  0  0  0  0  0  0  0  0
  127.6635  136.0251  157.7556 C   0  0  0  0  0  0  0  0  0  0  0  0
  128.8759  135.7999  158.3803 C   0  0  0  0  0  0  0  0  0  0  0  0
  130.8236  133.5583  159.7682 C   0  0  0  0  0  0  0  0  0  0  0  0
  131.1028  133.3858  158.4253 C   0  0  0  0  0  0  0  0  0  0  0  0
  131.6417  132.1938  157.9788 C   0  0  0  0  0  0  0  0  0  0  0  0
  131.8913  131.1693  158.8731 C   0  0  0  0  0  0  0  0  0  0  0  0
  131.6077  131.3387  160.2150 C   0  0  0  0  0  0  0  0  0  0  0  0
  131.0735  132.5338  160.6635 C   0  0  0  0  0  0  0  0  0  0  0  0
  130.7165  132.7472  162.3489 Cl  0  0  0  0  0  0  0  0  0  0  0  0
  132.4541  135.7176  160.6040 C   0  0  0  0  0  0  0  0  0  0  0  0
  133.4230  136.8514  160.2618 C   0  0  0  0  0  0  0  0  0  0  0  0
  134.1478  140.7085  163.8751 N   0  0  0  0  0  0  0  0  0  0  0  0
  134.1576  137.8470  164.1329 H   0  0  0  0  0  0  0  0  0  0  0  0
  135.5376  138.3341  163.0470 H   0  0  0  0  0  0  0  0  0  0  0  0
  135.4543  141.5975  162.0844 H   0  0  0  0  0  0  0  0  0  0  0  0
  136.1633  142.0902  159.7802 H   0  0  0  0  0  0  0  0  0  0  0  0
  135.3222  140.7282  157.9105 H   0  0  0  0  0  0  0  0  0  0  0  0
  133.7686  138.8689  158.3410 H   0  0  0  0  0  0  0  0  0  0  0  0
  131.6790  138.4277  158.9919 H   0  0  0  0  0  0  0  0  0  0  0  0
  131.1367  139.3125  160.4384 H   0  0  0  0  0  0  0  0  0  0  0  0
  129.6352  137.3972  159.9341 H   0  0  0  0  0  0  0  0  0  0  0  0
  130.4592  137.1804  161.4970 H   0  0  0  0  0  0  0  0  0  0  0  0
  130.0905  134.8092  161.3340 H   0  0  0  0  0  0  0  0  0  0  0  0
  127.7860  134.0845  161.0725 H   0  0  0  0  0  0  0  0  0  0  0  0
  125.6255  134.4929  159.9641 H   0  0  0  0  0  0  0  0  0  0  0  0
  125.5475  135.7309  157.8369 H   0  0  0  0  0  0  0  0  0  0  0  0
  127.6293  136.5680  156.8227 H   0  0  0  0  0  0  0  0  0  0  0  0
  129.7889  136.1669  157.9354 H   0  0  0  0  0  0  0  0  0  0  0  0
  130.9036  134.1838  157.7255 H   0  0  0  0  0  0  0  0  0  0  0  0
  131.8634  132.0608  156.9302 H   0  0  0  0  0  0  0  0  0  0  0  0
  132.3082  130.2366  158.5230 H   0  0  0  0  0  0  0  0  0  0  0  0
  131.8033  130.5387  160.9135 H   0  0  0  0  0  0  0  0  0  0  0  0
  132.3062  135.6794  161.6833 H   0  0  0  0  0  0  0  0  0  0  0  0
  132.8681  134.7696  160.2603 H   0  0  0  0  0  0  0  0  0  0  0  0
  133.5818  136.8812  159.1838 H   0  0  0  0  0  0  0  0  0  0  0  0
  134.3747  136.6810  160.7654 H   0  0  0  0  0  0  0  0  0  0  0  0
  133.9100  141.6417  163.9915 H   0  0  0  0  0  0  0  0  0  0  0  0
  1  2  2  0
  2 33  1  0
  2  3  1  0
  3  4  1  0
  3 34  1  0
  3 35  1  0
  4  5  1  6
  4  6  1  0
  4 33  1  0
  6 11  1  0
  6  7  2  0
  7  8  1  0
  7 36  1  0
  8  9  2  0
  8 37  1  0
  9 10  1  0
  9 38  1  0
 10 11  2  0
 10 39  1  0
 11 12  1  0
 12 32  1  0
 12 13  1  0
 13 14  1  0
 13 40  1  0
 13 41  1  0
 14 15  1  0
 14 42  1  0
 14 43  1  0
 15 16  1  0
 15 17  1  0
 15 31  1  0
 17 18  1  0
 17 24  1  0
 17 44  1  1
 18 23  1  0
 18 19  2  0
 19 20  1  0
 19 45  1  0
 20 21  2  0
 20 46  1  0
 21 22  1  0
 21 47  1  0
 22 23  2  0
 22 48  1  0
 23 49  1  0
 24 29  1  0
 24 25  2  0
 25 26  1  0
 25 50  1  0
 26 27  2  0
 26 51  1  0
 27 28  1  0
 27 52  1  0
 28 29  2  0
 28 53  1  0
 29 30  1  0
 31 32  1  0
 31 54  1  0
 31 55  1  0
 32 56  1  0
 32 57  1  0
 33 58  1  0
M  CHG  1  15   1
M  END
>  <DOCK_score>  (1) 
-57.898251

>  <SMILES>  (1) 
O=C1C[C@H](c2ccccc2N2CC[NH+](C(c3ccccc3)c3ccccc3Cl)CC2)N1

$$$$
