CC=Cc1ccc([C@@H](O)C[NH+]=C(NC2CCCCC2)NC2CCCCC2)cc1
     RDKit          3D

 66 68  0  0  1  0  0  0  0  0999 V2000
  126.2012  138.1631  170.6443 C   0  0  0  0  0  0  0  0  0  0  0  0
  126.5630  137.5268  169.3271 C   0  0  0  0  0  0  0  0  0  0  0  0
  126.2747  138.1456  168.1907 C   0  0  0  0  0  0  0  0  0  0  0  0
  126.6296  137.5215  166.8986 C   0  0  0  0  0  0  0  0  0  0  0  0
  126.8729  136.1494  166.8266 C   0  0  0  0  0  0  0  0  0  0  0  0
  127.2042  135.5731  165.6176 C   0  0  0  0  0  0  0  0  0  0  0  0
  127.2948  136.3525  164.4782 C   0  0  0  0  0  0  0  0  0  0  0  0
  127.6567  135.7163  163.1608 C   0  0  1  0  0  0  0  0  0  0  0  0
  127.8079  134.6463  163.3035 H   0  0  0  0  0  0  0  0  0  0  0  0
  126.5986  135.9269  162.2236 O   0  0  0  0  0  0  0  0  0  0  0  0
  128.9444  136.3467  162.6266 C   0  0  0  0  0  0  0  0  0  0  0  0
  129.2961  135.7281  161.3460 N   0  0  0  0  0  0  0  0  0  0  0  0
  128.7340  135.0309  160.9735 H   0  0  0  0  0  0  0  0  0  0  0  0
  130.3643  136.1148  160.7070 C   0  0  0  0  0  0  0  0  0  0  0  0
  130.6944  135.5344  159.5053 N   0  0  0  0  0  0  0  0  0  0  0  0
  130.3243  134.1423  159.2380 C   0  0  0  0  0  0  0  0  0  0  0  0
  130.9775  133.2320  160.2799 C   0  0  0  0  0  0  0  0  0  0  0  0
  130.5910  131.7781  160.0009 C   0  0  0  0  0  0  0  0  0  0  0  0
  131.0723  131.3816  158.6037 C   0  0  0  0  0  0  0  0  0  0  0  0
  130.4192  132.2920  157.5618 C   0  0  0  0  0  0  0  0  0  0  0  0
  130.8057  133.7458  157.8409 C   0  0  0  0  0  0  0  0  0  0  0  0
  131.1609  137.1032  161.2348 N   0  0  0  0  0  0  0  0  0  0  0  0
  132.3616  137.5378  160.5166 C   0  0  0  0  0  0  0  0  0  0  0  0
  133.4127  138.0136  161.5215 C   0  0  0  0  0  0  0  0  0  0  0  0
  134.6666  138.4676  160.7715 C   0  0  0  0  0  0  0  0  0  0  0  0
  134.3078  139.6161  159.8264 C   0  0  0  0  0  0  0  0  0  0  0  0
  133.2568  139.1404  158.8216 C   0  0  0  0  0  0  0  0  0  0  0  0
  132.0028  138.6864  159.5716 C   0  0  0  0  0  0  0  0  0  0  0  0
  127.0604  137.7143  164.5439 C   0  0  0  0  0  0  0  0  0  0  0  0
  126.7231  138.3020  165.7458 C   0  0  0  0  0  0  0  0  0  0  0  0
  126.5147  137.5121  171.4606 H   0  0  0  0  0  0  0  0  0  0  0  0
  126.7048  139.1256  170.7335 H   0  0  0  0  0  0  0  0  0  0  0  0
  125.1224  138.3116  170.6919 H   0  0  0  0  0  0  0  0  0  0  0  0
  127.0575  136.5667  169.3087 H   0  0  0  0  0  0  0  0  0  0  0  0
  125.7802  139.1056  168.2090 H   0  0  0  0  0  0  0  0  0  0  0  0
  126.8023  135.5400  167.7154 H   0  0  0  0  0  0  0  0  0  0  0  0
  127.3927  134.5113  165.5605 H   0  0  0  0  0  0  0  0  0  0  0  0
  125.7501  135.5528  162.4977 H   0  0  0  0  0  0  0  0  0  0  0  0
  128.7931  137.4166  162.4839 H   0  0  0  0  0  0  0  0  0  0  0  0
  129.7513  136.1859  163.3415 H   0  0  0  0  0  0  0  0  0  0  0  0
  131.1722  136.0466  158.8343 H   0  0  0  0  0  0  0  0  0  0  0  0
  129.2407  134.0376  159.2922 H   0  0  0  0  0  0  0  0  0  0  0  0
  132.0610  133.3367  160.2256 H   0  0  0  0  0  0  0  0  0  0  0  0
  130.6345  133.5144  161.2753 H   0  0  0  0  0  0  0  0  0  0  0  0
  129.5074  131.6734  160.0551 H   0  0  0  0  0  0  0  0  0  0  0  0
  131.0564  131.1295  160.7430 H   0  0  0  0  0  0  0  0  0  0  0  0
  130.7970  130.3459  158.4048 H   0  0  0  0  0  0  0  0  0  0  0  0
  132.1559  131.4863  158.5494 H   0  0  0  0  0  0  0  0  0  0  0  0
  129.3356  132.1873  157.6161 H   0  0  0  0  0  0  0  0  0  0  0  0
  130.7622  132.0095  156.5665 H   0  0  0  0  0  0  0  0  0  0  0  0
  130.3404  134.3944  157.0986 H   0  0  0  0  0  0  0  0  0  0  0  0
  131.8893  133.8506  157.7867 H   0  0  0  0  0  0  0  0  0  0  0  0
  130.9281  137.5128  162.0827 H   0  0  0  0  0  0  0  0  0  0  0  0
  132.7618  136.7042  159.9397 H   0  0  0  0  0  0  0  0  0  0  0  0
  133.0127  138.8474  162.0984 H   0  0  0  0  0  0  0  0  0  0  0  0
  133.6683  137.1955  162.1948 H   0  0  0  0  0  0  0  0  0  0  0  0
  135.0668  137.6339  160.1945 H   0  0  0  0  0  0  0  0  0  0  0  0
  135.4155  138.8065  161.4874 H   0  0  0  0  0  0  0  0  0  0  0  0
  135.2011  139.9395  159.2921 H   0  0  0  0  0  0  0  0  0  0  0  0
  133.9078  140.4499  160.4035 H   0  0  0  0  0  0  0  0  0  0  0  0
  133.6568  138.3067  158.2447 H   0  0  0  0  0  0  0  0  0  0  0  0
  133.0012  139.9586  158.1483 H   0  0  0  0  0  0  0  0  0  0  0  0
  131.2540  138.3474  158.8557 H   0  0  0  0  0  0  0  0  0  0  0  0
  131.6027  139.5201  160.1486 H   0  0  0  0  0  0  0  0  0  0  0  0
  127.1371  138.3180  163.6516 H   0  0  0  0  0  0  0  0  0  0  0  0
  126.5358  139.3646  165.7950 H   0  0  0  0  0  0  0  0  0  0  0  0
  1  2  1  0
  1 31  1  0
  1 32  1  0
  1 33  1  0
  2  3  2  0
  2 34  1  0
  3  4  1  0
  3 35  1  0
  4 30  2  0
  4  5  1  0
  5  6  2  0
  5 36  1  0
  6  7  1  0
  6 37  1  0
  7  8  1  0
  7 29  2  0
  8  9  1  1
  8 10  1  0
  8 11  1  0
 10 38  1  0
 11 12  1  0
 11 39  1  0
 11 40  1  0
 12 13  1  0
 12 14  2  0
 14 15  1  0
 14 22  1  0
 15 16  1  0
 15 41  1  0
 16 21  1  0
 16 17  1  0
 16 42  1  0
 17 18  1  0
 17 43  1  0
 17 44  1  0
 18 19  1  0
 18 45  1  0
 18 46  1  0
 19 20  1  0
 19 47  1  0
 19 48  1  0
 20 21  1  0
 20 49  1  0
 20 50  1  0
 21 51  1  0
 21 52  1  0
 22 23  1  0
 22 53  1  0
 23 28  1  0
 23 24  1  0
 23 54  1  0
 24 25  1  0
 24 55  1  0
 24 56  1  0
 25 26  1  0
 25 57  1  0
 25 58  1  0
 26 27  1  0
 26 59  1  0
 26 60  1  0
 27 28  1  0
 27 61  1  0
 27 62  1  0
 28 63  1  0
 28 64  1  0
 29 30  1  0
 29 65  1  0
 30 66  1  0
M  CHG  1  12   1
M  END
>  <DOCK_score>  (1) 
-44.262131

>  <SMILES>  (1) 
CC=Cc1ccc([C@@H](O)C[NH+]=C(NC2CCCCC2)NC2CCCCC2)cc1

$$$$
