NNc1ccc([C@H](Nc2[nH]cc(-c3ccc(Br)cc3)[nH+]2)C2=CCCCC2)cn1
     RDKit          3D

 52 55  0  0  1  0  0  0  0  0999 V2000
  132.1440  141.1271  161.5977 N   0  0  0  0  0  0  0  0  0  0  0  0
  131.9371  140.1037  162.4785 N   0  0  0  0  0  0  0  0  0  0  0  0
  131.4918  138.8699  162.0184 C   0  0  0  0  0  0  0  0  0  0  0  0
  131.2832  137.8317  162.9209 C   0  0  0  0  0  0  0  0  0  0  0  0
  130.8401  136.6095  162.4492 C   0  0  0  0  0  0  0  0  0  0  0  0
  130.6194  136.4657  161.0856 C   0  0  0  0  0  0  0  0  0  0  0  0
  130.1424  135.1501  160.5263 C   0  0  2  0  0  0  0  0  0  0  0  0
  130.5139  134.3351  161.1476 H   0  0  0  0  0  0  0  0  0  0  0  0
  130.6441  134.9898  159.1593 N   0  0  0  0  0  0  0  0  0  0  0  0
  130.3334  133.8503  158.4371 C   0  0  0  0  0  0  0  0  0  0  0  0
  129.5699  132.8146  158.8801 N   0  0  0  0  0  0  0  0  0  0  0  0
  129.1494  132.7425  159.7512 H   0  0  0  0  0  0  0  0  0  0  0  0
  129.5047  131.8903  157.8659 C   0  0  0  0  0  0  0  0  0  0  0  0
  130.2296  132.3873  156.8333 C   0  0  0  0  0  0  0  0  0  0  0  0
  130.4419  131.7310  155.5201 C   0  0  0  0  0  0  0  0  0  0  0  0
  130.0185  132.3569  154.3489 C   0  0  0  0  0  0  0  0  0  0  0  0
  130.2240  131.7449  153.1292 C   0  0  0  0  0  0  0  0  0  0  0  0
  130.8384  130.5060  153.0688 C   0  0  0  0  0  0  0  0  0  0  0  0
  131.1092  129.6693  151.3947 Br  0  0  0  0  0  0  0  0  0  0  0  0
  131.2555  129.8776  154.2293 C   0  0  0  0  0  0  0  0  0  0  0  0
  131.0604  130.4837  155.4534 C   0  0  0  0  0  0  0  0  0  0  0  0
  130.7215  133.5937  157.2117 N   0  0  0  0  0  0  0  0  0  0  0  0
  131.2740  134.1728  156.6638 H   0  0  0  0  0  0  0  0  0  0  0  0
  128.6357  135.1260  160.5145 C   0  0  0  0  0  0  0  0  0  0  0  0
  128.0379  134.2032  161.1976 C   0  0  0  0  0  0  0  0  0  0  0  0
  126.5475  134.0460  161.2743 C   0  0  0  0  0  0  0  0  0  0  0  0
  125.8574  135.3308  160.8110 C   0  0  0  0  0  0  0  0  0  0  0  0
  126.4700  135.7541  159.4698 C   0  0  0  0  0  0  0  0  0  0  0  0
  127.9215  136.1772  159.7162 C   0  0  0  0  0  0  0  0  0  0  0  0
  130.8470  137.5381  160.2471 C   0  0  0  0  0  0  0  0  0  0  0  0
  131.2703  138.6931  160.7251 N   0  0  0  0  0  0  0  0  0  0  0  0
  132.4648  141.9559  162.0754 H   0  0  0  0  0  0  0  0  0  0  0  0
  132.7904  140.8548  160.8723 H   0  0  0  0  0  0  0  0  0  0  0  0
  132.1008  140.2379  163.4251 H   0  0  0  0  0  0  0  0  0  0  0  0
  131.4647  137.9784  163.9752 H   0  0  0  0  0  0  0  0  0  0  0  0
  130.6691  135.7855  163.1261 H   0  0  0  0  0  0  0  0  0  0  0  0
  131.1942  135.6820  158.7603 H   0  0  0  0  0  0  0  0  0  0  0  0
  128.9766  130.9483  157.8868 H   0  0  0  0  0  0  0  0  0  0  0  0
  129.5344  133.3212  154.3956 H   0  0  0  0  0  0  0  0  0  0  0  0
  129.9007  132.2312  152.2209 H   0  0  0  0  0  0  0  0  0  0  0  0
  131.7344  128.9109  154.1766 H   0  0  0  0  0  0  0  0  0  0  0  0
  131.3866  129.9927  156.3583 H   0  0  0  0  0  0  0  0  0  0  0  0
  128.6499  133.5025  161.7462 H   0  0  0  0  0  0  0  0  0  0  0  0
  126.2380  133.2190  160.6351 H   0  0  0  0  0  0  0  0  0  0  0  0
  126.2592  133.8319  162.3034 H   0  0  0  0  0  0  0  0  0  0  0  0
  124.7901  135.1485  160.6850 H   0  0  0  0  0  0  0  0  0  0  0  0
  126.0133  136.1173  161.5494 H   0  0  0  0  0  0  0  0  0  0  0  0
  126.4422  134.9159  158.7735 H   0  0  0  0  0  0  0  0  0  0  0  0
  125.9069  136.5914  159.0578 H   0  0  0  0  0  0  0  0  0  0  0  0
  127.9386  137.1200  160.2633 H   0  0  0  0  0  0  0  0  0  0  0  0
  128.4253  136.3083  158.7586 H   0  0  0  0  0  0  0  0  0  0  0  0
  130.6769  137.4305  159.1860 H   0  0  0  0  0  0  0  0  0  0  0  0
  1  2  1  0
  1 32  1  0
  1 33  1  0
  2  3  1  0
  2 34  1  0
  3 31  2  0
  3  4  1  0
  4  5  2  0
  4 35  1  0
  5  6  1  0
  5 36  1  0
  6  7  1  0
  6 30  2  0
  7  8  1  1
  7  9  1  0
  7 24  1  0
  9 37  1  0
 10  9  1  0
 10 22  2  0
 10 11  1  0
 11 12  1  0
 11 13  1  0
 13 14  2  0
 13 38  1  0
 14 15  1  0
 14 22  1  0
 15 21  1  0
 15 16  2  0
 16 17  1  0
 16 39  1  0
 17 18  2  0
 17 40  1  0
 18 19  1  0
 18 20  1  0
 20 21  2  0
 20 41  1  0
 21 42  1  0
 22 23  1  0
 24 29  1  0
 24 25  2  0
 25 26  1  0
 25 43  1  0
 26 27  1  0
 26 44  1  0
 26 45  1  0
 27 28  1  0
 27 46  1  0
 27 47  1  0
 28 29  1  0
 28 48  1  0
 28 49  1  0
 29 50  1  0
 29 51  1  0
 30 31  1  0
 30 52  1  0
M  CHG  1  22   1
M  END
>  <DOCK_score>  (1) 
-57.372402

>  <SMILES>  (1) 
NNc1ccc([C@H](Nc2[nH]cc(-c3ccc(Br)cc3)[nH+]2)C2=CCCCC2)cn1

$$$$
