Clc1ccc2c(c1)OC[C@@H]2Nc1ccc(-c2n[nH]cc2C[NH2+]CC2CC2)o1
     RDKit          3D

 49 53  0  0  1  0  0  0  0  0999 V2000
  129.2036  135.9617  168.2845 Cl  0  0  0  0  0  0  0  0  0  0  0  0
  128.6927  136.3262  166.6660 C   0  0  0  0  0  0  0  0  0  0  0  0
  129.3539  135.7585  165.5909 C   0  0  0  0  0  0  0  0  0  0  0  0
  128.9480  136.0533  164.3017 C   0  0  0  0  0  0  0  0  0  0  0  0
  127.8892  136.9090  164.0920 C   0  0  0  0  0  0  0  0  0  0  0  0
  127.2124  137.4792  165.1625 C   0  0  0  0  0  0  0  0  0  0  0  0
  127.6291  137.1812  166.4576 C   0  0  0  0  0  0  0  0  0  0  0  0
  126.1972  138.2791  164.7349 O   0  0  0  0  0  0  0  0  0  0  0  0
  126.4125  138.6233  163.3558 C   0  0  0  0  0  0  0  0  0  0  0  0
  127.2296  137.4212  162.8260 C   0  0  2  0  0  0  0  0  0  0  0  0
  127.9761  137.7464  162.1013 H   0  0  0  0  0  0  0  0  0  0  0  0
  126.3489  136.4043  162.2462 N   0  0  0  0  0  0  0  0  0  0  0  0
  126.8502  135.4968  161.3201 C   0  0  0  0  0  0  0  0  0  0  0  0
  126.1424  134.5121  160.7126 C   0  0  0  0  0  0  0  0  0  0  0  0
  127.0317  133.8372  159.8530 C   0  0  0  0  0  0  0  0  0  0  0  0
  128.2420  134.4409  159.9858 C   0  0  0  0  0  0  0  0  0  0  0  0
  129.4801  134.0638  159.2731 C   0  0  0  0  0  0  0  0  0  0  0  0
  129.6045  133.0869  158.3965 N   0  0  0  0  0  0  0  0  0  0  0  0
  130.9360  133.0592  157.9626 N   0  0  0  0  0  0  0  0  0  0  0  0
  131.3117  132.4386  157.3186 H   0  0  0  0  0  0  0  0  0  0  0  0
  131.6063  134.0465  158.5952 C   0  0  0  0  0  0  0  0  0  0  0  0
  130.7387  134.6871  159.4075 C   0  0  0  0  0  0  0  0  0  0  0  0
  131.0592  135.8560  160.3031 C   0  0  0  0  0  0  0  0  0  0  0  0
  132.4774  136.2100  160.1575 N   0  0  0  0  0  0  0  0  0  0  0  0
  133.0496  135.4206  160.4172 H   0  0  0  0  0  0  0  0  0  0  0  0
  132.6648  136.4601  159.1981 H   0  0  0  0  0  0  0  0  0  0  0  0
  132.7899  137.3495  161.0305 C   0  0  0  0  0  0  0  0  0  0  0  0
  134.2670  137.7181  160.8786 C   0  0  0  0  0  0  0  0  0  0  0  0
  134.6501  139.1886  161.0575 C   0  0  0  0  0  0  0  0  0  0  0  0
  134.6643  138.5578  159.6629 C   0  0  0  0  0  0  0  0  0  0  0  0
  128.1177  135.4476  160.8762 O   0  0  0  0  0  0  0  0  0  0  0  0
  130.1841  135.0880  165.7576 H   0  0  0  0  0  0  0  0  0  0  0  0
  129.4610  135.6122  163.4599 H   0  0  0  0  0  0  0  0  0  0  0  0
  127.1182  137.6202  167.3017 H   0  0  0  0  0  0  0  0  0  0  0  0
  126.9862  139.5465  163.2733 H   0  0  0  0  0  0  0  0  0  0  0  0
  125.4636  138.7085  162.8264 H   0  0  0  0  0  0  0  0  0  0  0  0
  125.4158  136.3641  162.5085 H   0  0  0  0  0  0  0  0  0  0  0  0
  125.0955  134.2900  160.8573 H   0  0  0  0  0  0  0  0  0  0  0  0
  126.7970  132.9997  159.2128 H   0  0  0  0  0  0  0  0  0  0  0  0
  132.6533  134.2821  158.4729 H   0  0  0  0  0  0  0  0  0  0  0  0
  130.4411  136.7089  160.0228 H   0  0  0  0  0  0  0  0  0  0  0  0
  130.8569  135.5858  161.3395 H   0  0  0  0  0  0  0  0  0  0  0  0
  132.1718  138.2024  160.7498 H   0  0  0  0  0  0  0  0  0  0  0  0
  132.5875  137.0793  162.0669 H   0  0  0  0  0  0  0  0  0  0  0  0
  134.9771  136.9674  161.2254 H   0  0  0  0  0  0  0  0  0  0  0  0
  133.8498  139.8933  161.2833 H   0  0  0  0  0  0  0  0  0  0  0  0
  135.6122  139.4052  161.5216 H   0  0  0  0  0  0  0  0  0  0  0  0
  135.6357  138.3597  159.2101 H   0  0  0  0  0  0  0  0  0  0  0  0
  133.8731  138.8475  158.9712 H   0  0  0  0  0  0  0  0  0  0  0  0
  1  2  1  0
  2  7  2  0
  2  3  1  0
  3  4  2  0
  3 32  1  0
  4  5  1  0
  4 33  1  0
  5 10  1  0
  5  6  2  0
  6  7  1  0
  6  8  1  0
  7 34  1  0
  8  9  1  0
  9 10  1  0
  9 35  1  0
  9 36  1  0
 10 11  1  6
 10 12  1  0
 12 13  1  0
 12 37  1  0
 13 31  1  0
 13 14  2  0
 14 15  1  0
 14 38  1  0
 15 16  2  0
 15 39  1  0
 16 17  1  0
 16 31  1  0
 17 22  1  0
 17 18  2  0
 18 19  1  0
 19 20  1  0
 19 21  1  0
 21 22  2  0
 21 40  1  0
 22 23  1  0
 23 24  1  0
 23 41  1  0
 23 42  1  0
 24 25  1  0
 24 26  1  0
 24 27  1  0
 27 28  1  0
 27 43  1  0
 27 44  1  0
 28 30  1  0
 28 29  1  0
 28 45  1  0
 29 30  1  0
 29 46  1  0
 29 47  1  0
 30 48  1  0
 30 49  1  0
M  CHG  1  24   1
M  END
>  <DOCK_score>  (1) 
-41.662407

>  <SMILES>  (1) 
Clc1ccc2c(c1)OC[C@@H]2Nc1ccc(-c2n[nH]cc2C[NH2+]CC2CC2)o1

$$$$
