C[C@H](Cc1ccc(-c2ccc3c(c2)CCCC3)cc1)Nc1[nH]cc(-c2ccc(N)cc2)[nH+]1
     RDKit          3D

 63 67  0  0  1  0  0  0  0  0999 V2000
  129.7000  136.7311  160.6090 C   0  0  0  0  0  0  0  0  0  0  0  0
  129.9626  135.2471  160.3443 C   0  0  2  0  0  0  0  0  0  0  0  0
  129.0320  134.6893  160.4489 H   0  0  0  0  0  0  0  0  0  0  0  0
  130.9876  134.7229  161.3520 C   0  0  0  0  0  0  0  0  0  0  0  0
  130.4520  134.8968  162.7499 C   0  0  0  0  0  0  0  0  0  0  0  0
  129.7062  133.8881  163.3323 C   0  0  0  0  0  0  0  0  0  0  0  0
  129.2173  134.0401  164.6142 C   0  0  0  0  0  0  0  0  0  0  0  0
  129.4676  135.2166  165.3174 C   0  0  0  0  0  0  0  0  0  0  0  0
  128.9393  135.3882  166.6935 C   0  0  0  0  0  0  0  0  0  0  0  0
  127.7564  134.7579  167.0750 C   0  0  0  0  0  0  0  0  0  0  0  0
  127.2762  134.9276  168.3543 C   0  0  0  0  0  0  0  0  0  0  0  0
  127.9582  135.7213  169.2696 C   0  0  0  0  0  0  0  0  0  0  0  0
  129.1313  136.3420  168.8991 C   0  0  0  0  0  0  0  0  0  0  0  0
  129.6239  136.1745  167.6133 C   0  0  0  0  0  0  0  0  0  0  0  0
  129.9279  137.2011  169.8464 C   0  0  0  0  0  0  0  0  0  0  0  0
  129.0677  137.6330  171.0323 C   0  0  0  0  0  0  0  0  0  0  0  0
  128.4090  136.3850  171.6315 C   0  0  0  0  0  0  0  0  0  0  0  0
  127.3623  135.8714  170.6452 C   0  0  0  0  0  0  0  0  0  0  0  0
  130.2149  136.2316  164.7237 C   0  0  0  0  0  0  0  0  0  0  0  0
  130.7034  136.0668  163.4433 C   0  0  0  0  0  0  0  0  0  0  0  0
  130.4832  135.0782  158.9854 N   0  0  0  0  0  0  0  0  0  0  0  0
  130.2284  133.9105  158.2868 C   0  0  0  0  0  0  0  0  0  0  0  0
  129.5119  132.8503  158.7495 N   0  0  0  0  0  0  0  0  0  0  0  0
  129.0912  132.7773  159.6204 H   0  0  0  0  0  0  0  0  0  0  0  0
  129.4948  131.9016  157.7546 C   0  0  0  0  0  0  0  0  0  0  0  0
  130.1960  132.4122  156.7123 C   0  0  0  0  0  0  0  0  0  0  0  0
  130.4394  131.7414  155.4118 C   0  0  0  0  0  0  0  0  0  0  0  0
  129.9868  132.3253  154.2296 C   0  0  0  0  0  0  0  0  0  0  0  0
  130.2193  131.7029  153.0213 C   0  0  0  0  0  0  0  0  0  0  0  0
  130.8940  130.4886  152.9825 C   0  0  0  0  0  0  0  0  0  0  0  0
  131.1226  129.8564  151.7579 N   0  0  0  0  0  0  0  0  0  0  0  0
  131.3412  129.9016  154.1603 C   0  0  0  0  0  0  0  0  0  0  0  0
  131.1160  130.5233  155.3703 C   0  0  0  0  0  0  0  0  0  0  0  0
  130.6385  133.6435  157.0706 N   0  0  0  0  0  0  0  0  0  0  0  0
  131.1699  134.2340  156.5140 H   0  0  0  0  0  0  0  0  0  0  0  0
  129.3126  136.8568  161.6201 H   0  0  0  0  0  0  0  0  0  0  0  0
  130.6305  137.2890  160.5045 H   0  0  0  0  0  0  0  0  0  0  0  0
  128.9698  137.1045  159.8911 H   0  0  0  0  0  0  0  0  0  0  0  0
  131.1745  133.6657  161.1635 H   0  0  0  0  0  0  0  0  0  0  0  0
  131.9181  135.2807  161.2474 H   0  0  0  0  0  0  0  0  0  0  0  0
  129.5093  132.9782  162.7848 H   0  0  0  0  0  0  0  0  0  0  0  0
  128.6384  133.2501  165.0695 H   0  0  0  0  0  0  0  0  0  0  0  0
  127.2191  134.1398  166.3710 H   0  0  0  0  0  0  0  0  0  0  0  0
  126.3594  134.4391  168.6499 H   0  0  0  0  0  0  0  0  0  0  0  0
  130.5432  136.6614  167.3235 H   0  0  0  0  0  0  0  0  0  0  0  0
  130.7846  136.6348  170.2112 H   0  0  0  0  0  0  0  0  0  0  0  0
  130.2816  138.0863  169.3177 H   0  0  0  0  0  0  0  0  0  0  0  0
  129.6935  138.1145  171.7836 H   0  0  0  0  0  0  0  0  0  0  0  0
  128.2987  138.3277  170.6941 H   0  0  0  0  0  0  0  0  0  0  0  0
  129.1634  135.6165  171.7993 H   0  0  0  0  0  0  0  0  0  0  0  0
  127.9289  136.6411  172.5760 H   0  0  0  0  0  0  0  0  0  0  0  0
  126.5324  136.5768  170.6024 H   0  0  0  0  0  0  0  0  0  0  0  0
  126.9933  134.9035  170.9845 H   0  0  0  0  0  0  0  0  0  0  0  0
  130.4121  137.1454  165.2646 H   0  0  0  0  0  0  0  0  0  0  0  0
  131.2827  136.8531  162.9821 H   0  0  0  0  0  0  0  0  0  0  0  0
  131.0065  135.7844  158.5752 H   0  0  0  0  0  0  0  0  0  0  0  0
  129.0114  130.9366  157.7938 H   0  0  0  0  0  0  0  0  0  0  0  0
  129.4581  133.2666  154.2598 H   0  0  0  0  0  0  0  0  0  0  0  0
  129.8728  132.1572  152.1048 H   0  0  0  0  0  0  0  0  0  0  0  0
  131.5935  129.0089  151.7299 H   0  0  0  0  0  0  0  0  0  0  0  0
  130.8107  130.2652  150.9354 H   0  0  0  0  0  0  0  0  0  0  0  0
  131.8654  128.9579  154.1279 H   0  0  0  0  0  0  0  0  0  0  0  0
  131.4639  130.0670  156.2854 H   0  0  0  0  0  0  0  0  0  0  0  0
  1  2  1  0
  1 36  1  0
  1 37  1  0
  1 38  1  0
  2  3  1  6
  2  4  1  0
  2 21  1  0
  4  5  1  0
  4 39  1  0
  4 40  1  0
  5 20  1  0
  5  6  2  0
  6  7  1  0
  6 41  1  0
  7  8  2  0
  7 42  1  0
  8  9  1  0
  8 19  1  0
  9 14  1  0
  9 10  2  0
 10 11  1  0
 10 43  1  0
 11 12  2  0
 11 44  1  0
 12 18  1  0
 12 13  1  0
 13 14  2  0
 13 15  1  0
 14 45  1  0
 15 16  1  0
 15 46  1  0
 15 47  1  0
 16 17  1  0
 16 48  1  0
 16 49  1  0
 17 18  1  0
 17 50  1  0
 17 51  1  0
 18 52  1  0
 18 53  1  0
 19 20  2  0
 19 54  1  0
 20 55  1  0
 21 56  1  0
 22 21  1  0
 22 34  2  0
 22 23  1  0
 23 24  1  0
 23 25  1  0
 25 26  2  0
 25 57  1  0
 26 27  1  0
 26 34  1  0
 27 33  1  0
 27 28  2  0
 28 29  1  0
 28 58  1  0
 29 30  2  0
 29 59  1  0
 30 31  1  0
 30 32  1  0
 31 60  1  0
 31 61  1  0
 32 33  2  0
 32 62  1  0
 33 63  1  0
 34 35  1  0
M  CHG  1  34   1
M  END
>  <DOCK_score>  (1) 
-57.628105

>  <SMILES>  (1) 
C[C@H](Cc1ccc(-c2ccc3c(c2)CCCC3)cc1)Nc1[nH]cc(-c2ccc(N)cc2)[nH+]1

$$$$
