Fc1ccc([C@H](Nc2[nH]cc(-c3cccnc3)[nH+]2)c2ccccc2)cc1
     RDKit          3D

 44 47  0  0  1  0  0  0  0  0999 V2000
  130.8798  141.1367  161.1849 F   0  0  0  0  0  0  0  0  0  0  0  0
  130.5720  139.8514  160.9044 C   0  0  0  0  0  0  0  0  0  0  0  0
  130.3274  138.9573  161.9329 C   0  0  0  0  0  0  0  0  0  0  0  0
  130.0075  137.6440  161.6448 C   0  0  0  0  0  0  0  0  0  0  0  0
  129.9429  137.2203  160.3304 C   0  0  0  0  0  0  0  0  0  0  0  0
  129.6002  135.7866  160.0176 C   0  0  2  0  0  0  0  0  0  0  0  0
  129.9477  135.1449  160.8272 H   0  0  0  0  0  0  0  0  0  0  0  0
  130.2514  135.3905  158.7665 N   0  0  0  0  0  0  0  0  0  0  0  0
  130.0815  134.1082  158.2734 C   0  0  0  0  0  0  0  0  0  0  0  0
  129.3424  133.1258  158.8574 N   0  0  0  0  0  0  0  0  0  0  0  0
  128.8445  133.1975  159.6867 H   0  0  0  0  0  0  0  0  0  0  0  0
  129.4296  132.0148  158.0540 C   0  0  0  0  0  0  0  0  0  0  0  0
  130.2255  132.3474  157.0077 C   0  0  0  0  0  0  0  0  0  0  0  0
  130.6083  131.4570  155.8846 C   0  0  0  0  0  0  0  0  0  0  0  0
  130.2738  131.7897  154.5686 C   0  0  0  0  0  0  0  0  0  0  0  0
  130.6590  130.9287  153.5558 C   0  0  0  0  0  0  0  0  0  0  0  0
  131.3459  129.7716  153.8762 C   0  0  0  0  0  0  0  0  0  0  0  0
  131.6428  129.4814  155.1281 N   0  0  0  0  0  0  0  0  0  0  0  0
  131.3020  130.2727  156.1248 C   0  0  0  0  0  0  0  0  0  0  0  0
  130.6101  133.6382  157.1700 N   0  0  0  0  0  0  0  0  0  0  0  0
  131.1842  134.1344  156.5656 H   0  0  0  0  0  0  0  0  0  0  0  0
  128.1066  135.6474  159.8723 C   0  0  0  0  0  0  0  0  0  0  0  0
  127.3301  135.3445  160.9751 C   0  0  0  0  0  0  0  0  0  0  0  0
  125.9597  135.2211  160.8427 C   0  0  0  0  0  0  0  0  0  0  0  0
  125.3667  135.3916  159.6056 C   0  0  0  0  0  0  0  0  0  0  0  0
  126.1438  135.6892  158.5018 C   0  0  0  0  0  0  0  0  0  0  0  0
  127.5138  135.8170  158.6351 C   0  0  0  0  0  0  0  0  0  0  0  0
  130.1921  138.1109  159.3028 C   0  0  0  0  0  0  0  0  0  0  0  0
  130.5065  139.4260  159.5885 C   0  0  0  0  0  0  0  0  0  0  0  0
  130.3821  139.2871  162.9600 H   0  0  0  0  0  0  0  0  0  0  0  0
  129.8120  136.9477  162.4467 H   0  0  0  0  0  0  0  0  0  0  0  0
  130.8018  136.0269  158.2837 H   0  0  0  0  0  0  0  0  0  0  0  0
  128.9581  131.0584  158.2253 H   0  0  0  0  0  0  0  0  0  0  0  0
  129.7323  132.6976  154.3475 H   0  0  0  0  0  0  0  0  0  0  0  0
  130.4219  131.1555  152.5269 H   0  0  0  0  0  0  0  0  0  0  0  0
  131.6441  129.0952  153.0888 H   0  0  0  0  0  0  0  0  0  0  0  0
  131.5630  130.0011  157.1370 H   0  0  0  0  0  0  0  0  0  0  0  0
  127.7938  135.2077  161.9409 H   0  0  0  0  0  0  0  0  0  0  0  0
  125.3525  134.9889  161.7051 H   0  0  0  0  0  0  0  0  0  0  0  0
  124.2963  135.2925  159.5016 H   0  0  0  0  0  0  0  0  0  0  0  0
  125.6806  135.8224  157.5354 H   0  0  0  0  0  0  0  0  0  0  0  0
  128.1209  136.0495  157.7727 H   0  0  0  0  0  0  0  0  0  0  0  0
  130.1407  137.7789  158.2764 H   0  0  0  0  0  0  0  0  0  0  0  0
  130.7007  140.1216  158.7856 H   0  0  0  0  0  0  0  0  0  0  0  0
  1  2  1  0
  2 29  2  0
  2  3  1  0
  3  4  2  0
  3 30  1  0
  4  5  1  0
  4 31  1  0
  5  6  1  0
  5 28  2  0
  6  7  1  1
  6  8  1  0
  6 22  1  0
  8 32  1  0
  9  8  1  0
  9 20  2  0
  9 10  1  0
 10 11  1  0
 10 12  1  0
 12 13  2  0
 12 33  1  0
 13 14  1  0
 13 20  1  0
 14 19  1  0
 14 15  2  0
 15 16  1  0
 15 34  1  0
 16 17  2  0
 16 35  1  0
 17 18  1  0
 17 36  1  0
 18 19  2  0
 19 37  1  0
 20 21  1  0
 22 27  1  0
 22 23  2  0
 23 24  1  0
 23 38  1  0
 24 25  2  0
 24 39  1  0
 25 26  1  0
 25 40  1  0
 26 27  2  0
 26 41  1  0
 27 42  1  0
 28 29  1  0
 28 43  1  0
 29 44  1  0
M  CHG  1  20   1
M  END
>  <DOCK_score>  (1) 
-58.313938

>  <SMILES>  (1) 
Fc1ccc([C@H](Nc2[nH]cc(-c3cccnc3)[nH+]2)c2ccccc2)cc1

$$$$
