COc1ccc(OCCc2cccc3[nH]c(CN[C@H]4CC[NH+]5CCCCC45)cc23)cc1
     RDKit          3D

 65 69  0  0  1  0  0  0  0  0999 V2000
  140.0471  133.7557  164.3396 C   0  0  0  0  0  0  0  0  0  0  0  0
  138.8409  133.7082  163.5747 O   0  0  0  0  0  0  0  0  0  0  0  0
  138.0510  134.8147  163.5984 C   0  0  0  0  0  0  0  0  0  0  0  0
  136.8660  134.8363  162.8781 C   0  0  0  0  0  0  0  0  0  0  0  0
  136.0637  135.9605  162.9018 C   0  0  0  0  0  0  0  0  0  0  0  0
  136.4431  137.0678  163.6460 C   0  0  0  0  0  0  0  0  0  0  0  0
  135.6536  138.1746  163.6690 O   0  0  0  0  0  0  0  0  0  0  0  0
  136.3060  139.4333  163.8478 C   0  0  0  0  0  0  0  0  0  0  0  0
  135.5045  140.5282  163.1408 C   0  0  0  0  0  0  0  0  0  0  0  0
  135.4138  140.2138  161.6697 C   0  0  0  0  0  0  0  0  0  0  0  0
  136.3661  140.6817  160.8085 C   0  0  0  0  0  0  0  0  0  0  0  0
  136.2936  140.3932  159.4529 C   0  0  0  0  0  0  0  0  0  0  0  0
  135.2560  139.6392  158.9494 C   0  0  0  0  0  0  0  0  0  0  0  0
  134.2728  139.1572  159.8069 C   0  0  0  0  0  0  0  0  0  0  0  0
  133.1402  138.3971  159.6188 N   0  0  0  0  0  0  0  0  0  0  0  0
  132.8356  138.0531  158.7645 H   0  0  0  0  0  0  0  0  0  0  0  0
  132.5082  138.1998  160.8162 C   0  0  0  0  0  0  0  0  0  0  0  0
  131.2358  137.4144  161.0037 C   0  0  0  0  0  0  0  0  0  0  0  0
  131.3189  136.1589  160.2455 N   0  0  0  0  0  0  0  0  0  0  0  0
  129.9821  135.5994  160.0054 C   0  0  1  0  0  0  0  0  0  0  0  0
  129.3546  135.7195  160.8885 H   0  0  0  0  0  0  0  0  0  0  0  0
  129.3250  136.2725  158.7730 C   0  0  0  0  0  0  0  0  0  0  0  0
  129.1586  135.1301  157.7354 C   0  0  0  0  0  0  0  0  0  0  0  0
  130.1878  134.1556  158.1311 N   0  0  2  0  0  0  0  0  0  0  0  0
  131.0998  134.4918  157.8608 H   0  0  0  0  0  0  0  0  0  0  0  0
  129.9857  132.8010  157.6343 C   0  0  0  0  0  0  0  0  0  0  0  0
  131.1713  131.9461  158.1067 C   0  0  0  0  0  0  0  0  0  0  0  0
  131.2829  131.9685  159.6307 C   0  0  0  0  0  0  0  0  0  0  0  0
  131.3117  133.4121  160.1594 C   0  0  0  0  0  0  0  0  0  0  0  0
  130.0811  134.1217  159.6143 C   0  0  1  0  0  0  0  0  0  0  0  0
  133.1898  138.8087  161.7994 C   0  0  0  0  0  0  0  0  0  0  0  0
  134.3536  139.4484  161.1811 C   0  0  0  0  0  0  0  0  0  0  0  0
  137.6308  137.0481  164.3622 C   0  0  0  0  0  0  0  0  0  0  0  0
  138.4305  135.9220  164.3426 C   0  0  0  0  0  0  0  0  0  0  0  0
  139.8052  133.9205  165.3895 H   0  0  0  0  0  0  0  0  0  0  0  0
  140.5818  132.8118  164.2336 H   0  0  0  0  0  0  0  0  0  0  0  0
  140.6742  134.5709  163.9789 H   0  0  0  0  0  0  0  0  0  0  0  0
  136.5706  133.9743  162.2984 H   0  0  0  0  0  0  0  0  0  0  0  0
  135.1410  135.9775  162.3406 H   0  0  0  0  0  0  0  0  0  0  0  0
  137.3091  139.3862  163.4238 H   0  0  0  0  0  0  0  0  0  0  0  0
  136.3716  139.6607  164.9118 H   0  0  0  0  0  0  0  0  0  0  0  0
  134.5014  140.5753  163.5648 H   0  0  0  0  0  0  0  0  0  0  0  0
  136.0021  141.4883  163.2772 H   0  0  0  0  0  0  0  0  0  0  0  0
  137.1836  141.2779  161.1863 H   0  0  0  0  0  0  0  0  0  0  0  0
  137.0561  140.7666  158.7853 H   0  0  0  0  0  0  0  0  0  0  0  0
  135.2062  139.4236  157.8923 H   0  0  0  0  0  0  0  0  0  0  0  0
  131.0990  137.1915  162.0618 H   0  0  0  0  0  0  0  0  0  0  0  0
  130.3904  138.0010  160.6438 H   0  0  0  0  0  0  0  0  0  0  0  0
  131.8162  136.2928  159.3779 H   0  0  0  0  0  0  0  0  0  0  0  0
  128.3527  136.6862  159.0405 H   0  0  0  0  0  0  0  0  0  0  0  0
  129.9740  137.0533  158.3764 H   0  0  0  0  0  0  0  0  0  0  0  0
  129.3456  135.4976  156.7264 H   0  0  0  0  0  0  0  0  0  0  0  0
  128.1645  134.6888  157.8063 H   0  0  0  0  0  0  0  0  0  0  0  0
  129.0561  132.3961  158.0340 H   0  0  0  0  0  0  0  0  0  0  0  0
  129.9463  132.8095  156.5451 H   0  0  0  0  0  0  0  0  0  0  0  0
  131.0282  130.9185  157.7725 H   0  0  0  0  0  0  0  0  0  0  0  0
  132.0916  132.3384  157.6738 H   0  0  0  0  0  0  0  0  0  0  0  0
  130.4242  131.4536  160.0615 H   0  0  0  0  0  0  0  0  0  0  0  0
  132.1970  131.4569  159.9318 H   0  0  0  0  0  0  0  0  0  0  0  0
  132.2139  133.9111  159.8056 H   0  0  0  0  0  0  0  0  0  0  0  0
  131.2888  133.4153  161.2491 H   0  0  0  0  0  0  0  0  0  0  0  0
  129.1775  133.5914  159.9153 H   0  0  0  0  0  0  0  0  0  0  0  0
  132.9293  138.8244  162.8473 H   0  0  0  0  0  0  0  0  0  0  0  0
  137.9285  137.9120  164.9380 H   0  0  0  0  0  0  0  0  0  0  0  0
  139.3534  135.9052  164.9033 H   0  0  0  0  0  0  0  0  0  0  0  0
  1  2  1  0
  1 35  1  0
  1 36  1  0
  1 37  1  0
  2  3  1  0
  3 34  2  0
  3  4  1  0
  4  5  2  0
  4 38  1  0
  5  6  1  0
  5 39  1  0
  6  7  1  0
  6 33  2  0
  7  8  1  0
  8  9  1  0
  8 40  1  0
  8 41  1  0
  9 10  1  0
  9 42  1  0
  9 43  1  0
 10 32  1  0
 10 11  2  0
 11 12  1  0
 11 44  1  0
 12 13  2  0
 12 45  1  0
 13 14  1  0
 13 46  1  0
 14 32  2  0
 14 15  1  0
 15 16  1  0
 15 17  1  0
 17 18  1  0
 17 31  2  0
 18 19  1  0
 18 47  1  0
 18 48  1  0
 19 20  1  0
 19 49  1  0
 20 21  1  1
 20 30  1  0
 20 22  1  0
 22 23  1  0
 22 50  1  0
 22 51  1  0
 23 24  1  0
 23 52  1  0
 23 53  1  0
 24 25  1  1
 24 30  1  0
 24 26  1  0
 26 27  1  0
 26 54  1  0
 26 55  1  0
 27 28  1  0
 27 56  1  0
 27 57  1  0
 28 29  1  0
 28 58  1  0
 28 59  1  0
 29 30  1  0
 29 60  1  0
 29 61  1  0
 30 62  1  6
 31 32  1  0
 31 63  1  0
 33 34  1  0
 33 64  1  0
 34 65  1  0
M  CHG  1  24   1
M  END
>  <DOCK_score>  (1) 
-63.341949

>  <SMILES>  (1) 
COc1ccc(OCCc2cccc3[nH]c(CN[C@H]4CC[NH+]5CCCCC45)cc23)cc1

$$$$
