CCc1ccc(-c2c[nH]c(NCc3ccc(Br)cc3)[nH+]2)cc1
     RDKit          3D

 41 43  0  0  1  0  0  0  0  0999 V2000
  130.3724  128.6064  151.6054 C   0  0  0  0  0  0  0  0  0  0  0  0
  131.5024  129.5784  151.9487 C   0  0  0  0  0  0  0  0  0  0  0  0
  131.1470  130.3414  153.1988 C   0  0  0  0  0  0  0  0  0  0  0  0
  131.5085  129.8442  154.4373 C   0  0  0  0  0  0  0  0  0  0  0  0
  131.1890  130.5418  155.5843 C   0  0  0  0  0  0  0  0  0  0  0  0
  130.4915  131.7451  155.4933 C   0  0  0  0  0  0  0  0  0  0  0  0
  130.1410  132.4973  156.7228 C   0  0  0  0  0  0  0  0  0  0  0  0
  129.3679  132.0461  157.7414 C   0  0  0  0  0  0  0  0  0  0  0  0
  129.3043  133.0556  158.6709 N   0  0  0  0  0  0  0  0  0  0  0  0
  128.8251  133.0309  159.5139 H   0  0  0  0  0  0  0  0  0  0  0  0
  130.0341  134.0982  158.1888 C   0  0  0  0  0  0  0  0  0  0  0  0
  130.2189  135.3147  158.8232 N   0  0  0  0  0  0  0  0  0  0  0  0
  129.6011  135.5616  160.1284 C   0  0  0  0  0  0  0  0  0  0  0  0
  129.9541  136.9496  160.5969 C   0  0  0  0  0  0  0  0  0  0  0  0
  130.0486  137.2192  161.9496 C   0  0  0  0  0  0  0  0  0  0  0  0
  130.3772  138.4910  162.3796 C   0  0  0  0  0  0  0  0  0  0  0  0
  130.6016  139.4964  161.4574 C   0  0  0  0  0  0  0  0  0  0  0  0
  131.0431  141.2387  162.0447 Br  0  0  0  0  0  0  0  0  0  0  0  0
  130.5014  139.2277  160.1035 C   0  0  0  0  0  0  0  0  0  0  0  0
  130.1780  137.9543  159.6742 C   0  0  0  0  0  0  0  0  0  0  0  0
  130.5326  133.7608  157.0245 N   0  0  0  0  0  0  0  0  0  0  0  0
  131.0922  134.3245  156.4676 H   0  0  0  0  0  0  0  0  0  0  0  0
  130.1248  132.2392  154.2427 C   0  0  0  0  0  0  0  0  0  0  0  0
  130.4539  131.5354  153.1021 C   0  0  0  0  0  0  0  0  0  0  0  0
  130.2300  127.9081  152.4302 H   0  0  0  0  0  0  0  0  0  0  0  0
  129.4513  129.1650  151.4394 H   0  0  0  0  0  0  0  0  0  0  0  0
  130.6302  128.0539  150.7019 H   0  0  0  0  0  0  0  0  0  0  0  0
  132.4243  129.0194  152.1153 H   0  0  0  0  0  0  0  0  0  0  0  0
  131.6455  130.2764  151.1245 H   0  0  0  0  0  0  0  0  0  0  0  0
  132.0458  128.9099  154.5067 H   0  0  0  0  0  0  0  0  0  0  0  0
  131.4759  130.1546  156.5507 H   0  0  0  0  0  0  0  0  0  0  0  0
  128.8949  131.0777  157.8098 H   0  0  0  0  0  0  0  0  0  0  0  0
  130.7575  136.0037  158.4034 H   0  0  0  0  0  0  0  0  0  0  0  0
  128.5182  135.4722  160.0405 H   0  0  0  0  0  0  0  0  0  0  0  0
  129.9686  134.8305  160.8484 H   0  0  0  0  0  0  0  0  0  0  0  0
  129.8697  136.4349  162.6702 H   0  0  0  0  0  0  0  0  0  0  0  0
  130.4546  138.7006  163.4362 H   0  0  0  0  0  0  0  0  0  0  0  0
  130.6759  140.0127  159.3826 H   0  0  0  0  0  0  0  0  0  0  0  0
  130.0997  137.7444  158.6177 H   0  0  0  0  0  0  0  0  0  0  0  0
  129.5839  133.1709  154.1664 H   0  0  0  0  0  0  0  0  0  0  0  0
  130.1703  131.9173  152.1326 H   0  0  0  0  0  0  0  0  0  0  0  0
  1  2  1  0
  1 25  1  0
  1 26  1  0
  1 27  1  0
  2  3  1  0
  2 28  1  0
  2 29  1  0
  3 24  2  0
  3  4  1  0
  4  5  2  0
  4 30  1  0
  5  6  1  0
  5 31  1  0
  6  7  1  0
  6 23  2  0
  7 21  1  0
  7  8  2  0
  8  9  1  0
  8 32  1  0
  9 10  1  0
  9 11  1  0
 11 12  1  0
 11 21  2  0
 12 13  1  0
 12 33  1  0
 13 14  1  0
 13 34  1  0
 13 35  1  0
 14 20  1  0
 14 15  2  0
 15 16  1  0
 15 36  1  0
 16 17  2  0
 16 37  1  0
 17 18  1  0
 17 19  1  0
 19 20  2  0
 19 38  1  0
 20 39  1  0
 21 22  1  0
 23 24  1  0
 23 40  1  0
 24 41  1  0
M  CHG  1  21   1
M  END
>  <DOCK_score>  (1) 
-56.533134

>  <SMILES>  (1) 
CCc1ccc(-c2c[nH]c(NCc3ccc(Br)cc3)[nH+]2)cc1

$$$$
