[NH3+][C@H](CCC1=C[C@@H](CBr)C=CC1)C(=O)Nc1cccc(O)c1
     RDKit          3D

 44 45  0  0  1  0  0  0  0  0999 V2000
  131.3957  133.8279  157.8299 N   0  0  0  0  0  0  0  0  0  0  0  0
  131.5225  132.8287  157.8884 H   0  0  0  0  0  0  0  0  0  0  0  0
  130.7417  134.0415  157.0919 H   0  0  0  0  0  0  0  0  0  0  0  0
  132.2816  134.2685  157.6321 H   0  0  0  0  0  0  0  0  0  0  0  0
  130.8734  134.3308  159.1075 C   0  0  2  0  0  0  0  0  0  0  0  0
  130.7363  135.4104  159.0444 H   0  0  0  0  0  0  0  0  0  0  0  0
  131.8651  134.0071  160.2267 C   0  0  0  0  0  0  0  0  0  0  0  0
  131.6011  134.9239  161.4230 C   0  0  0  0  0  0  0  0  0  0  0  0
  131.7706  136.3608  161.0018 C   0  0  0  0  0  0  0  0  0  0  0  0
  130.7573  137.1646  161.1144 C   0  0  0  0  0  0  0  0  0  0  0  0
  130.8197  138.6109  160.7245 C   0  0  1  0  0  0  0  0  0  0  0  0
  130.3539  138.7379  159.7473 H   0  0  0  0  0  0  0  0  0  0  0  0
  130.0533  139.4418  161.7556 C   0  0  0  0  0  0  0  0  0  0  0  0
  129.5734  141.1794  160.9710 Br  0  0  0  0  0  0  0  0  0  0  0  0
  132.2374  139.0938  160.6597 C   0  0  0  0  0  0  0  0  0  0  0  0
  133.2505  138.2901  160.5466 C   0  0  0  0  0  0  0  0  0  0  0  0
  133.1036  136.8018  160.4764 C   0  0  0  0  0  0  0  0  0  0  0  0
  129.5501  133.6729  159.4032 C   0  0  0  0  0  0  0  0  0  0  0  0
  129.4837  132.4670  159.5137 O   0  0  0  0  0  0  0  0  0  0  0  0
  128.4406  134.4248  159.5446 N   0  0  0  0  0  0  0  0  0  0  0  0
  127.2110  133.8135  159.8132 C   0  0  0  0  0  0  0  0  0  0  0  0
  126.9530  132.5327  159.3408 C   0  0  0  0  0  0  0  0  0  0  0  0
  125.7413  131.9271  159.6108 C   0  0  0  0  0  0  0  0  0  0  0  0
  124.7784  132.5975  160.3414 C   0  0  0  0  0  0  0  0  0  0  0  0
  125.0284  133.8791  160.8108 C   0  0  0  0  0  0  0  0  0  0  0  0
  124.0804  134.5372  161.5286 O   0  0  0  0  0  0  0  0  0  0  0  0
  126.2453  134.4880  160.5467 C   0  0  0  0  0  0  0  0  0  0  0  0
  131.7425  132.9678  160.5316 H   0  0  0  0  0  0  0  0  0  0  0  0
  132.8822  134.1628  159.8672 H   0  0  0  0  0  0  0  0  0  0  0  0
  130.5840  134.7681  161.7827 H   0  0  0  0  0  0  0  0  0  0  0  0
  132.3077  134.6932  162.2203 H   0  0  0  0  0  0  0  0  0  0  0  0
  129.8296  136.7747  161.5064 H   0  0  0  0  0  0  0  0  0  0  0  0
  129.1465  138.9121  162.0476 H   0  0  0  0  0  0  0  0  0  0  0  0
  130.6802  139.6000  162.6332 H   0  0  0  0  0  0  0  0  0  0  0  0
  132.4239  140.1566  160.7089 H   0  0  0  0  0  0  0  0  0  0  0  0
  134.2435  138.7129  160.5058 H   0  0  0  0  0  0  0  0  0  0  0  0
  133.8923  136.3345  161.0660 H   0  0  0  0  0  0  0  0  0  0  0  0
  133.2005  136.4858  159.4377 H   0  0  0  0  0  0  0  0  0  0  0  0
  128.4936  135.3893  159.4561 H   0  0  0  0  0  0  0  0  0  0  0  0
  127.7019  132.0086  158.7656 H   0  0  0  0  0  0  0  0  0  0  0  0
  125.5441  130.9298  159.2463 H   0  0  0  0  0  0  0  0  0  0  0  0
  123.8300  132.1232  160.5468 H   0  0  0  0  0  0  0  0  0  0  0  0
  124.3459  135.4227  161.8119 H   0  0  0  0  0  0  0  0  0  0  0  0
  126.4415  135.4856  160.9110 H   0  0  0  0  0  0  0  0  0  0  0  0
  1  2  1  0
  1  3  1  0
  1  4  1  0
  1  5  1  0
  5  6  1  6
  5  7  1  0
  5 18  1  0
  7  8  1  0
  7 28  1  0
  7 29  1  0
  8  9  1  0
  8 30  1  0
  8 31  1  0
  9 17  1  0
  9 10  2  0
 10 11  1  0
 10 32  1  0
 11 12  1  6
 11 13  1  0
 11 15  1  0
 13 14  1  0
 13 33  1  0
 13 34  1  0
 15 16  2  0
 15 35  1  0
 16 17  1  0
 16 36  1  0
 17 37  1  0
 17 38  1  0
 18 19  2  0
 18 20  1  0
 20 21  1  0
 20 39  1  0
 21 27  1  0
 21 22  2  0
 22 23  1  0
 22 40  1  0
 23 24  2  0
 23 41  1  0
 24 25  1  0
 24 42  1  0
 25 26  1  0
 25 27  2  0
 26 43  1  0
 27 44  1  0
M  CHG  1   1   1
M  END
>  <DOCK_score>  (1) 
-43.561501

>  <SMILES>  (1) 
[NH3+][C@H](CCC1=C[C@@H](CBr)C=CC1)C(=O)Nc1cccc(O)c1

$$$$
