C1=C(C[NH2+]Cc2c[nH]nc2-c2ccc(NCCc3cccc4c3OCO4)o2)CCCC1
     RDKit          3D

 60 64  0  0  0  0  0  0  0  0999 V2000
  132.6760  138.2762  162.0949 C   0  0  0  0  0  0  0  0  0  0  0  0
  132.4246  138.3110  160.8256 C   0  0  0  0  0  0  0  0  0  0  0  0
  130.9820  138.2887  160.3901 C   0  0  0  0  0  0  0  0  0  0  0  0
  130.7431  137.1095  159.5473 N   0  0  0  0  0  0  0  0  0  0  0  0
  131.3392  137.1509  158.7343 H   0  0  0  0  0  0  0  0  0  0  0  0
  129.7773  137.0947  159.2558 H   0  0  0  0  0  0  0  0  0  0  0  0
  131.0424  135.8919  160.3127 C   0  0  0  0  0  0  0  0  0  0  0  0
  130.7973  134.6821  159.4480 C   0  0  0  0  0  0  0  0  0  0  0  0
  131.7017  134.0827  158.6444 C   0  0  0  0  0  0  0  0  0  0  0  0
  131.0984  133.0329  158.0456 N   0  0  0  0  0  0  0  0  0  0  0  0
  131.5131  132.4209  157.4176 H   0  0  0  0  0  0  0  0  0  0  0  0
  129.7703  132.9812  158.4878 N   0  0  0  0  0  0  0  0  0  0  0  0
  129.5813  133.9762  159.3320 C   0  0  0  0  0  0  0  0  0  0  0  0
  128.3214  134.2921  160.0364 C   0  0  0  0  0  0  0  0  0  0  0  0
  127.1538  133.6053  159.9260 C   0  0  0  0  0  0  0  0  0  0  0  0
  126.2218  134.2472  160.7652 C   0  0  0  0  0  0  0  0  0  0  0  0
  126.8648  135.2913  161.3451 C   0  0  0  0  0  0  0  0  0  0  0  0
  126.3064  136.1888  162.2478 N   0  0  0  0  0  0  0  0  0  0  0  0
  127.1200  137.2755  162.7987 C   0  0  0  0  0  0  0  0  0  0  0  0
  126.2715  138.1115  163.7589 C   0  0  0  0  0  0  0  0  0  0  0  0
  127.1085  139.2293  164.3257 C   0  0  0  0  0  0  0  0  0  0  0  0
  127.1666  140.4477  163.6744 C   0  0  0  0  0  0  0  0  0  0  0  0
  127.9279  141.4772  164.1949 C   0  0  0  0  0  0  0  0  0  0  0  0
  128.6455  141.2888  165.3619 C   0  0  0  0  0  0  0  0  0  0  0  0
  128.5967  140.0692  166.0162 C   0  0  0  0  0  0  0  0  0  0  0  0
  127.8237  139.0337  165.4955 C   0  0  0  0  0  0  0  0  0  0  0  0
  127.9409  137.9479  166.3142 O   0  0  0  0  0  0  0  0  0  0  0  0
  129.1112  138.1948  167.1157 C   0  0  0  0  0  0  0  0  0  0  0  0
  129.1976  139.6315  167.1610 O   0  0  0  0  0  0  0  0  0  0  0  0
  128.1344  135.3085  160.9044 O   0  0  0  0  0  0  0  0  0  0  0  0
  133.4800  138.3781  159.7610 C   0  0  0  0  0  0  0  0  0  0  0  0
  134.8146  138.8154  160.3687 C   0  0  0  0  0  0  0  0  0  0  0  0
  135.0912  137.9507  161.6050 C   0  0  0  0  0  0  0  0  0  0  0  0
  134.0580  138.2974  162.6792 C   0  0  0  0  0  0  0  0  0  0  0  0
  131.8391  138.2253  162.7757 H   0  0  0  0  0  0  0  0  0  0  0  0
  130.7599  139.1923  159.8223 H   0  0  0  0  0  0  0  0  0  0  0  0
  130.3380  138.2441  161.2683 H   0  0  0  0  0  0  0  0  0  0  0  0
  130.3984  135.8472  161.1908 H   0  0  0  0  0  0  0  0  0  0  0  0
  132.0859  135.9079  160.6276 H   0  0  0  0  0  0  0  0  0  0  0  0
  132.7291  134.3864  158.5078 H   0  0  0  0  0  0  0  0  0  0  0  0
  126.9748  132.7344  159.3128 H   0  0  0  0  0  0  0  0  0  0  0  0
  125.1915  133.9619  160.9181 H   0  0  0  0  0  0  0  0  0  0  0  0
  125.3780  136.0956  162.5128 H   0  0  0  0  0  0  0  0  0  0  0  0
  127.9704  136.8560  163.3362 H   0  0  0  0  0  0  0  0  0  0  0  0
  127.4794  137.9079  161.9868 H   0  0  0  0  0  0  0  0  0  0  0  0
  125.4211  138.5309  163.2214 H   0  0  0  0  0  0  0  0  0  0  0  0
  125.9122  137.4791  164.5708 H   0  0  0  0  0  0  0  0  0  0  0  0
  126.6114  140.5970  162.7601 H   0  0  0  0  0  0  0  0  0  0  0  0
  127.9671  142.4288  163.6859 H   0  0  0  0  0  0  0  0  0  0  0  0
  129.2439  142.0932  165.7632 H   0  0  0  0  0  0  0  0  0  0  0  0
  129.9968  137.7728  166.6407 H   0  0  0  0  0  0  0  0  0  0  0  0
  128.9845  137.7870  168.1185 H   0  0  0  0  0  0  0  0  0  0  0  0
  133.5957  137.3951  159.3044 H   0  0  0  0  0  0  0  0  0  0  0  0
  133.1794  139.0972  158.9989 H   0  0  0  0  0  0  0  0  0  0  0  0
  135.6123  138.6771  159.6388 H   0  0  0  0  0  0  0  0  0  0  0  0
  134.7584  139.8641  160.6603 H   0  0  0  0  0  0  0  0  0  0  0  0
  135.0059  136.8964  161.3414 H   0  0  0  0  0  0  0  0  0  0  0  0
  136.0948  138.1549  161.9780 H   0  0  0  0  0  0  0  0  0  0  0  0
  134.1214  137.5709  163.4893 H   0  0  0  0  0  0  0  0  0  0  0  0
  134.2655  139.2928  163.0721 H   0  0  0  0  0  0  0  0  0  0  0  0
  1 34  1  0
  1  2  2  0
  1 35  1  0
  2  3  1  0
  2 31  1  0
  3  4  1  0
  3 36  1  0
  3 37  1  0
  4  5  1  0
  4  6  1  0
  4  7  1  0
  7  8  1  0
  7 38  1  0
  7 39  1  0
  8 13  1  0
  8  9  2  0
  9 10  1  0
  9 40  1  0
 10 11  1  0
 10 12  1  0
 12 13  2  0
 13 14  1  0
 14 30  1  0
 14 15  2  0
 15 16  1  0
 15 41  1  0
 16 17  2  0
 16 42  1  0
 17 18  1  0
 17 30  1  0
 18 19  1  0
 18 43  1  0
 19 20  1  0
 19 44  1  0
 19 45  1  0
 20 21  1  0
 20 46  1  0
 20 47  1  0
 21 26  1  0
 21 22  2  0
 22 23  1  0
 22 48  1  0
 23 24  2  0
 23 49  1  0
 24 25  1  0
 24 50  1  0
 25 29  1  0
 25 26  2  0
 26 27  1  0
 27 28  1  0
 28 29  1  0
 28 51  1  0
 28 52  1  0
 31 32  1  0
 31 53  1  0
 31 54  1  0
 32 33  1  0
 32 55  1  0
 32 56  1  0
 33 34  1  0
 33 57  1  0
 33 58  1  0
 34 59  1  0
 34 60  1  0
M  CHG  1   4   1
M  END
>  <DOCK_score>  (1) 
-43.609158

>  <SMILES>  (1) 
C1=C(C[NH2+]Cc2c[nH]nc2-c2ccc(NCCc3cccc4c3OCO4)o2)CCCC1

$$$$
