O=C1CC[C@H](NC(NC2CCCCC2)=[NH+][C@H]2COc3ccc(F)cc3C2)CN1
     RDKit          3D

 58 61  0  0  1  0  0  0  0  0999 V2000
  123.9308  133.6366  161.4974 O   0  0  0  0  0  0  0  0  0  0  0  0
  125.0943  133.9122  161.2940 C   0  0  0  0  0  0  0  0  0  0  0  0
  125.9978  132.8355  160.7651 C   0  0  0  0  0  0  0  0  0  0  0  0
  127.4606  133.2273  160.9875 C   0  0  0  0  0  0  0  0  0  0  0  0
  127.6590  134.6635  160.4880 C   0  0  2  0  0  0  0  0  0  0  0  0
  127.2903  134.7494  159.4659 H   0  0  0  0  0  0  0  0  0  0  0  0
  129.0831  135.0051  160.5270 N   0  0  0  0  0  0  0  0  0  0  0  0
  129.8788  134.7608  159.4328 C   0  0  0  0  0  0  0  0  0  0  0  0
  129.3380  134.1959  158.3020 N   0  0  0  0  0  0  0  0  0  0  0  0
  130.1663  133.3521  157.4369 C   0  0  0  0  0  0  0  0  0  0  0  0
  129.6718  133.4617  155.9930 C   0  0  0  0  0  0  0  0  0  0  0  0
  130.5368  132.5803  155.0897 C   0  0  0  0  0  0  0  0  0  0  0  0
  130.4402  131.1254  155.5528 C   0  0  0  0  0  0  0  0  0  0  0  0
  130.9345  131.0159  156.9966 C   0  0  0  0  0  0  0  0  0  0  0  0
  130.0696  131.8970  157.9001 C   0  0  0  0  0  0  0  0  0  0  0  0
  131.1458  135.0646  159.4674 N   0  0  0  0  0  0  0  0  0  0  0  0
  131.6074  135.3132  158.6512 H   0  0  0  0  0  0  0  0  0  0  0  0
  131.8728  135.0305  160.7388 C   0  0  1  0  0  0  0  0  0  0  0  0
  131.1973  134.7320  161.5404 H   0  0  0  0  0  0  0  0  0  0  0  0
  133.0354  134.0341  160.6442 C   0  0  0  0  0  0  0  0  0  0  0  0
  133.6584  133.9459  161.9264 O   0  0  0  0  0  0  0  0  0  0  0  0
  133.9830  135.1057  162.5561 C   0  0  0  0  0  0  0  0  0  0  0  0
  134.8919  135.0572  163.6083 C   0  0  0  0  0  0  0  0  0  0  0  0
  135.2453  136.2092  164.2752 C   0  0  0  0  0  0  0  0  0  0  0  0
  134.6936  137.4221  163.8984 C   0  0  0  0  0  0  0  0  0  0  0  0
  135.0366  138.5534  164.5525 F   0  0  0  0  0  0  0  0  0  0  0  0
  133.7907  137.4742  162.8522 C   0  0  0  0  0  0  0  0  0  0  0  0
  133.4350  136.3175  162.1781 C   0  0  0  0  0  0  0  0  0  0  0  0
  132.4507  136.4157  161.0401 C   0  0  0  0  0  0  0  0  0  0  0  0
  126.8788  135.6112  161.3998 C   0  0  0  0  0  0  0  0  0  0  0  0
  125.5029  135.1550  161.5523 N   0  0  0  0  0  0  0  0  0  0  0  0
  125.8167  132.7024  159.6985 H   0  0  0  0  0  0  0  0  0  0  0  0
  125.7902  131.9006  161.2857 H   0  0  0  0  0  0  0  0  0  0  0  0
  128.1102  132.5520  160.4306 H   0  0  0  0  0  0  0  0  0  0  0  0
  127.6985  133.1722  162.0498 H   0  0  0  0  0  0  0  0  0  0  0  0
  129.4645  135.4037  161.3249 H   0  0  0  0  0  0  0  0  0  0  0  0
  128.4081  134.3561  158.0770 H   0  0  0  0  0  0  0  0  0  0  0  0
  131.2033  133.6828  157.4919 H   0  0  0  0  0  0  0  0  0  0  0  0
  128.6347  133.1309  155.9381 H   0  0  0  0  0  0  0  0  0  0  0  0
  129.7407  134.4982  155.6632 H   0  0  0  0  0  0  0  0  0  0  0  0
  131.5739  132.9112  155.1447 H   0  0  0  0  0  0  0  0  0  0  0  0
  130.1847  132.6584  154.0611 H   0  0  0  0  0  0  0  0  0  0  0  0
  131.0563  130.4975  154.9092 H   0  0  0  0  0  0  0  0  0  0  0  0
  129.4030  130.7947  155.4978 H   0  0  0  0  0  0  0  0  0  0  0  0
  131.9718  131.3466  157.0517 H   0  0  0  0  0  0  0  0  0  0  0  0
  130.8657  129.9792  157.3266 H   0  0  0  0  0  0  0  0  0  0  0  0
  130.4218  131.8191  158.9286 H   0  0  0  0  0  0  0  0  0  0  0  0
  129.0324  131.5664  157.8450 H   0  0  0  0  0  0  0  0  0  0  0  0
  132.6567  133.0546  160.3519 H   0  0  0  0  0  0  0  0  0  0  0  0
  133.7588  134.3829  159.9072 H   0  0  0  0  0  0  0  0  0  0  0  0
  135.3232  134.1120  163.9034 H   0  0  0  0  0  0  0  0  0  0  0  0
  135.9516  136.1667  165.0911 H   0  0  0  0  0  0  0  0  0  0  0  0
  133.3615  138.4208  162.5592 H   0  0  0  0  0  0  0  0  0  0  0  0
  132.9577  136.7977  160.1541 H   0  0  0  0  0  0  0  0  0  0  0  0
  131.6430  137.0935  161.3164 H   0  0  0  0  0  0  0  0  0  0  0  0
  127.3576  135.6452  162.3784 H   0  0  0  0  0  0  0  0  0  0  0  0
  126.8808  136.6113  160.9662 H   0  0  0  0  0  0  0  0  0  0  0  0
  124.8431  135.7955  161.8611 H   0  0  0  0  0  0  0  0  0  0  0  0
  1  2  2  0
  2 31  1  0
  2  3  1  0
  3  4  1  0
  3 32  1  0
  3 33  1  0
  4  5  1  0
  4 34  1  0
  4 35  1  0
  5  6  1  6
  5  7  1  0
  5 30  1  0
  7 36  1  0
  8  7  1  0
  8  9  1  0
  8 16  2  0
  9 10  1  0
  9 37  1  0
 10 15  1  0
 10 11  1  0
 10 38  1  0
 11 12  1  0
 11 39  1  0
 11 40  1  0
 12 13  1  0
 12 41  1  0
 12 42  1  0
 13 14  1  0
 13 43  1  0
 13 44  1  0
 14 15  1  0
 14 45  1  0
 14 46  1  0
 15 47  1  0
 15 48  1  0
 16 17  1  0
 16 18  1  0
 18 19  1  1
 18 29  1  0
 18 20  1  0
 20 21  1  0
 20 49  1  0
 20 50  1  0
 21 22  1  0
 22 28  2  0
 22 23  1  0
 23 24  2  0
 23 51  1  0
 24 25  1  0
 24 52  1  0
 25 26  1  0
 25 27  2  0
 27 28  1  0
 27 53  1  0
 28 29  1  0
 29 54  1  0
 29 55  1  0
 30 31  1  0
 30 56  1  0
 30 57  1  0
 31 58  1  0
M  CHG  1  16   1
M  END
>  <DOCK_score>  (1) 
-47.441635

>  <SMILES>  (1) 
O=C1CC[C@H](NC(NC2CCCCC2)=[NH+][C@H]2COc3ccc(F)cc3C2)CN1

$$$$
