CC=Cc1cc(N(Cc2cccc3ccccc23)C2CNC(=S)NC2)cc[nH+]1
     RDKit          3D

 53 56  0  0  1  0  0  0  0  0999 V2000
  132.5417  135.9713  166.1490 C   0  0  0  0  0  0  0  0  0  0  0  0
  132.6391  135.6713  164.6753 C   0  0  0  0  0  0  0  0  0  0  0  0
  131.5705  135.7993  163.9008 C   0  0  0  0  0  0  0  0  0  0  0  0
  131.6660  135.5051  162.4558 C   0  0  0  0  0  0  0  0  0  0  0  0
  130.5497  135.0285  161.7733 C   0  0  0  0  0  0  0  0  0  0  0  0
  130.6574  134.7561  160.4125 C   0  0  0  0  0  0  0  0  0  0  0  0
  129.5646  134.2831  159.6913 N   0  0  0  0  0  0  0  0  0  0  0  0
  129.6978  134.0023  158.2597 C   0  0  0  0  0  0  0  0  0  0  0  0
  130.1252  132.5702  158.0662 C   0  0  0  0  0  0  0  0  0  0  0  0
  130.3184  131.7622  159.1446 C   0  0  0  0  0  0  0  0  0  0  0  0
  130.7126  130.4354  158.9852 C   0  0  0  0  0  0  0  0  0  0  0  0
  130.9166  129.9086  157.7468 C   0  0  0  0  0  0  0  0  0  0  0  0
  130.7275  130.7122  156.6098 C   0  0  0  0  0  0  0  0  0  0  0  0
  130.9289  130.2040  155.3150 C   0  0  0  0  0  0  0  0  0  0  0  0
  130.7365  131.0121  154.2371 C   0  0  0  0  0  0  0  0  0  0  0  0
  130.3423  132.3395  154.3963 C   0  0  0  0  0  0  0  0  0  0  0  0
  130.1386  132.8661  155.6345 C   0  0  0  0  0  0  0  0  0  0  0  0
  130.3208  132.0604  156.7717 C   0  0  0  0  0  0  0  0  0  0  0  0
  128.2815  134.0660  160.3641 C   0  0  0  0  0  0  0  0  0  0  0  0
  127.5137  132.9434  159.6580 C   0  0  0  0  0  0  0  0  0  0  0  0
  126.1882  132.8123  160.2651 N   0  0  0  0  0  0  0  0  0  0  0  0
  125.5692  133.8637  160.8224 C   0  0  0  0  0  0  0  0  0  0  0  0
  124.0132  133.6372  161.4997 S   0  0  0  0  0  0  0  0  0  0  0  0
  126.1211  135.0853  160.8707 N   0  0  0  0  0  0  0  0  0  0  0  0
  127.4427  135.3468  160.2983 C   0  0  0  0  0  0  0  0  0  0  0  0
  131.8864  134.9744  159.7874 C   0  0  0  0  0  0  0  0  0  0  0  0
  132.9474  135.4490  160.5306 C   0  0  0  0  0  0  0  0  0  0  0  0
  132.8165  135.6980  161.8188 N   0  0  0  0  0  0  0  0  0  0  0  0
  133.5807  136.0305  162.3152 H   0  0  0  0  0  0  0  0  0  0  0  0
  131.8044  135.3114  166.6062 H   0  0  0  0  0  0  0  0  0  0  0  0
  133.5128  135.8109  166.6174 H   0  0  0  0  0  0  0  0  0  0  0  0
  132.2375  137.0085  166.2894 H   0  0  0  0  0  0  0  0  0  0  0  0
  133.5791  135.3521  164.2503 H   0  0  0  0  0  0  0  0  0  0  0  0
  130.6306  136.1186  164.3260 H   0  0  0  0  0  0  0  0  0  0  0  0
  129.6152  134.8725  162.2917 H   0  0  0  0  0  0  0  0  0  0  0  0
  128.7393  134.1651  157.7668 H   0  0  0  0  0  0  0  0  0  0  0  0
  130.4462  134.6664  157.8272 H   0  0  0  0  0  0  0  0  0  0  0  0
  130.1635  132.1554  160.1384 H   0  0  0  0  0  0  0  0  0  0  0  0
  130.8590  129.8155  159.8576 H   0  0  0  0  0  0  0  0  0  0  0  0
  131.2223  128.8785  157.6386 H   0  0  0  0  0  0  0  0  0  0  0  0
  131.2349  129.1776  155.1763 H   0  0  0  0  0  0  0  0  0  0  0  0
  130.8917  130.6190  153.2433 H   0  0  0  0  0  0  0  0  0  0  0  0
  130.1969  132.9594  153.5242 H   0  0  0  0  0  0  0  0  0  0  0  0
  129.8333  133.8964  155.7427 H   0  0  0  0  0  0  0  0  0  0  0  0
  128.4554  133.7954  161.4055 H   0  0  0  0  0  0  0  0  0  0  0  0
  127.4078  133.1840  158.6002 H   0  0  0  0  0  0  0  0  0  0  0  0
  128.0584  132.0054  159.7663 H   0  0  0  0  0  0  0  0  0  0  0  0
  125.7484  131.9479  160.2637 H   0  0  0  0  0  0  0  0  0  0  0  0
  125.6344  135.8102  161.2933 H   0  0  0  0  0  0  0  0  0  0  0  0
  127.9364  136.1351  160.8668 H   0  0  0  0  0  0  0  0  0  0  0  0
  127.3356  135.6592  159.2596 H   0  0  0  0  0  0  0  0  0  0  0  0
  132.0053  134.7740  158.7328 H   0  0  0  0  0  0  0  0  0  0  0  0
  133.8995  135.6190  160.0501 H   0  0  0  0  0  0  0  0  0  0  0  0
  1  2  1  0
  1 30  1  0
  1 31  1  0
  1 32  1  0
  2  3  2  0
  2 33  1  0
  3 34  1  0
  4  3  1  0
  4 28  2  0
  4  5  1  0
  5  6  2  0
  5 35  1  0
  6  7  1  0
  6 26  1  0
  7  8  1  0
  7 19  1  0
  8  9  1  0
  8 36  1  0
  8 37  1  0
  9 18  1  0
  9 10  2  0
 10 11  1  0
 10 38  1  0
 11 12  2  0
 11 39  1  0
 12 13  1  0
 12 40  1  0
 13 18  2  0
 13 14  1  0
 14 15  2  0
 14 41  1  0
 15 16  1  0
 15 42  1  0
 16 17  2  0
 16 43  1  0
 17 18  1  0
 17 44  1  0
 19 25  1  0
 19 20  1  0
 19 45  1  0
 20 21  1  0
 20 46  1  0
 20 47  1  0
 21 22  1  0
 21 48  1  0
 22 23  2  0
 22 24  1  0
 24 25  1  0
 24 49  1  0
 25 50  1  0
 25 51  1  0
 26 27  2  0
 26 52  1  0
 27 28  1  0
 27 53  1  0
 28 29  1  0
M  CHG  1  28   1
M  END
>  <DOCK_score>  (1) 
-42.962532

>  <SMILES>  (1) 
CC=Cc1cc(N(Cc2cccc3ccccc23)C2CNC(=S)NC2)cc[nH+]1

$$$$
