Fc1ccc(C[NH2+]Cc2c[nH]nc2-c2ccc(N[C@H]3C=CCCCC3)o2)c(F)c1
     RDKit          3D

 54 57  0  0  1  0  0  0  0  0999 V2000
  131.9606  129.2003  157.9311 F   0  0  0  0  0  0  0  0  0  0  0  0
  131.3732  130.4131  157.8348 C   0  0  0  0  0  0  0  0  0  0  0  0
  131.4630  131.1342  156.6554 C   0  0  0  0  0  0  0  0  0  0  0  0
  130.8577  132.3723  156.5543 C   0  0  0  0  0  0  0  0  0  0  0  0
  130.1712  132.8972  157.6331 C   0  0  0  0  0  0  0  0  0  0  0  0
  129.5168  134.2504  157.5235 C   0  0  0  0  0  0  0  0  0  0  0  0
  128.8571  134.5797  158.7940 N   0  0  0  0  0  0  0  0  0  0  0  0
  129.5424  134.5966  159.5343 H   0  0  0  0  0  0  0  0  0  0  0  0
  128.1568  133.8830  158.9998 H   0  0  0  0  0  0  0  0  0  0  0  0
  128.2191  135.8986  158.6870 C   0  0  0  0  0  0  0  0  0  0  0  0
  127.5423  136.2365  159.9905 C   0  0  0  0  0  0  0  0  0  0  0  0
  126.2675  135.9426  160.3239 C   0  0  0  0  0  0  0  0  0  0  0  0
  126.0423  136.4119  161.5703 N   0  0  0  0  0  0  0  0  0  0  0  0
  125.2098  136.3410  162.0631 H   0  0  0  0  0  0  0  0  0  0  0  0
  127.2186  137.0191  162.0281 N   0  0  0  0  0  0  0  0  0  0  0  0
  128.1280  136.9166  161.0788 C   0  0  0  0  0  0  0  0  0  0  0  0
  129.5139  137.4247  161.1434 C   0  0  0  0  0  0  0  0  0  0  0  0
  130.0720  138.0845  162.1924 C   0  0  0  0  0  0  0  0  0  0  0  0
  131.4011  138.3784  161.8290 C   0  0  0  0  0  0  0  0  0  0  0  0
  131.5855  137.8930  160.5761 C   0  0  0  0  0  0  0  0  0  0  0  0
  132.7603  137.9763  159.8376 N   0  0  0  0  0  0  0  0  0  0  0  0
  133.9386  138.6344  160.4075 C   0  0  1  0  0  0  0  0  0  0  0  0
  133.6309  139.5244  160.9563 H   0  0  0  0  0  0  0  0  0  0  0  0
  134.6525  137.6794  161.3400 C   0  0  0  0  0  0  0  0  0  0  0  0
  135.5870  138.1093  162.1273 C   0  0  0  0  0  0  0  0  0  0  0  0
  135.9771  139.5718  162.1247 C   0  0  0  0  0  0  0  0  0  0  0  0
  136.7333  139.8734  160.8288 C   0  0  0  0  0  0  0  0  0  0  0  0
  135.7660  140.2036  159.7059 C   0  0  0  0  0  0  0  0  0  0  0  0
  134.8994  139.0302  159.2840 C   0  0  0  0  0  0  0  0  0  0  0  0
  130.4413  137.3181  160.1684 O   0  0  0  0  0  0  0  0  0  0  0  0
  130.0799  132.1780  158.8126 C   0  0  0  0  0  0  0  0  0  0  0  0
  129.4039  132.6888  159.8651 F   0  0  0  0  0  0  0  0  0  0  0  0
  130.6813  130.9352  158.9131 C   0  0  0  0  0  0  0  0  0  0  0  0
  132.0025  130.7268  155.8131 H   0  0  0  0  0  0  0  0  0  0  0  0
  130.9243  132.9319  155.6330 H   0  0  0  0  0  0  0  0  0  0  0  0
  128.7765  134.2321  156.7236 H   0  0  0  0  0  0  0  0  0  0  0  0
  130.2733  135.0029  157.3011 H   0  0  0  0  0  0  0  0  0  0  0  0
  127.4789  135.8803  157.8871 H   0  0  0  0  0  0  0  0  0  0  0  0
  128.9757  136.6511  158.4646 H   0  0  0  0  0  0  0  0  0  0  0  0
  125.5527  135.4231  159.7029 H   0  0  0  0  0  0  0  0  0  0  0  0
  129.5899  138.3334  163.1261 H   0  0  0  0  0  0  0  0  0  0  0  0
  132.1329  138.8956  162.4322 H   0  0  0  0  0  0  0  0  0  0  0  0
  132.7999  137.5986  158.9450 H   0  0  0  0  0  0  0  0  0  0  0  0
  134.3813  136.6342  161.3491 H   0  0  0  0  0  0  0  0  0  0  0  0
  136.0907  137.4203  162.7892 H   0  0  0  0  0  0  0  0  0  0  0  0
  136.6195  139.7807  162.9802 H   0  0  0  0  0  0  0  0  0  0  0  0
  135.0824  140.1919  162.1789 H   0  0  0  0  0  0  0  0  0  0  0  0
  137.3255  139.0025  160.5479 H   0  0  0  0  0  0  0  0  0  0  0  0
  137.3984  140.7218  160.9906 H   0  0  0  0  0  0  0  0  0  0  0  0
  136.3376  140.5430  158.8420 H   0  0  0  0  0  0  0  0  0  0  0  0
  135.1173  141.0155  160.0345 H   0  0  0  0  0  0  0  0  0  0  0  0
  135.5383  138.1808  159.0424 H   0  0  0  0  0  0  0  0  0  0  0  0
  134.3240  139.3089  158.4012 H   0  0  0  0  0  0  0  0  0  0  0  0
  130.6108  130.3735  159.8330 H   0  0  0  0  0  0  0  0  0  0  0  0
  1  2  1  0
  2 33  2  0
  2  3  1  0
  3  4  2  0
  3 34  1  0
  4  5  1  0
  4 35  1  0
  5  6  1  0
  5 31  2  0
  6  7  1  0
  6 36  1  0
  6 37  1  0
  7  8  1  0
  7  9  1  0
  7 10  1  0
 10 11  1  0
 10 38  1  0
 10 39  1  0
 11 16  1  0
 11 12  2  0
 12 13  1  0
 12 40  1  0
 13 14  1  0
 13 15  1  0
 15 16  2  0
 16 17  1  0
 17 30  1  0
 17 18  2  0
 18 19  1  0
 18 41  1  0
 19 20  2  0
 19 42  1  0
 20 21  1  0
 20 30  1  0
 21 22  1  0
 21 43  1  0
 22 23  1  1
 22 29  1  0
 22 24  1  0
 24 25  2  0
 24 44  1  0
 25 26  1  0
 25 45  1  0
 26 27  1  0
 26 46  1  0
 26 47  1  0
 27 28  1  0
 27 48  1  0
 27 49  1  0
 28 29  1  0
 28 50  1  0
 28 51  1  0
 29 52  1  0
 29 53  1  0
 31 32  1  0
 31 33  1  0
 33 54  1  0
M  CHG  1   7   1
M  END
>  <DOCK_score>  (1) 
-47.214088

>  <SMILES>  (1) 
Fc1ccc(C[NH2+]Cc2c[nH]nc2-c2ccc(N[C@H]3C=CCCCC3)o2)c(F)c1

$$$$
