O=C1CC[C@H](NC(NC2CC2)=[NH+][C@H]2COc3ccc(CCI)cc3C2)CN1
     RDKit          3D

 55 58  0  0  1  0  0  0  0  0999 V2000
  123.7906  133.8940  161.8698 O   0  0  0  0  0  0  0  0  0  0  0  0
  124.9352  134.1490  161.5602 C   0  0  0  0  0  0  0  0  0  0  0  0
  125.8251  133.0171  161.1336 C   0  0  0  0  0  0  0  0  0  0  0  0
  127.2912  133.4502  161.2095 C   0  0  0  0  0  0  0  0  0  0  0  0
  127.4341  134.8033  160.5023 C   0  0  2  0  0  0  0  0  0  0  0  0
  127.0044  134.7407  159.5026 H   0  0  0  0  0  0  0  0  0  0  0  0
  128.8516  135.1606  160.4064 N   0  0  0  0  0  0  0  0  0  0  0  0
  129.5859  134.7719  159.3110 C   0  0  0  0  0  0  0  0  0  0  0  0
  128.9899  134.0480  158.3056 N   0  0  0  0  0  0  0  0  0  0  0  0
  129.7723  133.6337  157.1383 C   0  0  0  0  0  0  0  0  0  0  0  0
  129.7249  132.1561  156.7443 C   0  0  0  0  0  0  0  0  0  0  0  0
  130.9874  132.7369  157.3845 C   0  0  0  0  0  0  0  0  0  0  0  0
  130.8470  135.0900  159.2255 N   0  0  0  0  0  0  0  0  0  0  0  0
  131.2553  135.2252  158.3561 H   0  0  0  0  0  0  0  0  0  0  0  0
  131.6479  135.2432  160.4427 C   0  0  1  0  0  0  0  0  0  0  0  0
  131.0260  135.0546  161.3178 H   0  0  0  0  0  0  0  0  0  0  0  0
  132.8208  134.2548  160.4178 C   0  0  0  0  0  0  0  0  0  0  0  0
  133.5207  134.3554  161.6587 O   0  0  0  0  0  0  0  0  0  0  0  0
  133.8625  135.5952  162.0961 C   0  0  0  0  0  0  0  0  0  0  0  0
  134.8332  135.7055  163.0868 C   0  0  0  0  0  0  0  0  0  0  0  0
  135.2010  136.9469  163.5635 C   0  0  0  0  0  0  0  0  0  0  0  0
  134.6042  138.0862  163.0555 C   0  0  0  0  0  0  0  0  0  0  0  0
  135.0035  139.4426  163.5769 C   0  0  0  0  0  0  0  0  0  0  0  0
  136.1639  139.9882  162.7422 C   0  0  0  0  0  0  0  0  0  0  0  0
  136.7368  141.9342  163.4901 I   0  0  0  0  0  0  0  0  0  0  0  0
  133.6418  137.9806  162.0706 C   0  0  0  0  0  0  0  0  0  0  0  0
  133.2689  136.7371  161.5879 C   0  0  0  0  0  0  0  0  0  0  0  0
  132.2168  136.6627  160.5104 C   0  0  0  0  0  0  0  0  0  0  0  0
  126.6913  135.8649  161.3146 C   0  0  0  0  0  0  0  0  0  0  0  0
  125.3359  135.4196  161.6164 N   0  0  0  0  0  0  0  0  0  0  0  0
  125.5840  132.7331  160.1093 H   0  0  0  0  0  0  0  0  0  0  0  0
  125.6653  132.1630  161.7918 H   0  0  0  0  0  0  0  0  0  0  0  0
  127.9189  132.7092  160.7143 H   0  0  0  0  0  0  0  0  0  0  0  0
  127.5915  133.5479  162.2527 H   0  0  0  0  0  0  0  0  0  0  0  0
  129.2731  135.6678  161.1177 H   0  0  0  0  0  0  0  0  0  0  0  0
  128.0513  133.8115  158.3692 H   0  0  0  0  0  0  0  0  0  0  0  0
  129.8424  134.3671  156.3351 H   0  0  0  0  0  0  0  0  0  0  0  0
  129.1117  131.4922  157.3535 H   0  0  0  0  0  0  0  0  0  0  0  0
  129.7637  131.9171  155.6815 H   0  0  0  0  0  0  0  0  0  0  0  0
  131.8567  132.8803  156.7429 H   0  0  0  0  0  0  0  0  0  0  0  0
  131.2048  132.4557  158.4149 H   0  0  0  0  0  0  0  0  0  0  0  0
  132.4432  133.2403  160.2903 H   0  0  0  0  0  0  0  0  0  0  0  0
  133.4927  134.5030  159.5961 H   0  0  0  0  0  0  0  0  0  0  0  0
  135.3001  134.8163  163.4843 H   0  0  0  0  0  0  0  0  0  0  0  0
  135.9543  137.0288  164.3332 H   0  0  0  0  0  0  0  0  0  0  0  0
  134.1547  140.1229  163.5076 H   0  0  0  0  0  0  0  0  0  0  0  0
  135.3147  139.3545  164.6178 H   0  0  0  0  0  0  0  0  0  0  0  0
  137.0127  139.3079  162.8115 H   0  0  0  0  0  0  0  0  0  0  0  0
  135.8528  140.0762  161.7012 H   0  0  0  0  0  0  0  0  0  0  0  0
  133.1775  138.8720  161.6753 H   0  0  0  0  0  0  0  0  0  0  0  0
  132.6625  136.9212  159.5500 H   0  0  0  0  0  0  0  0  0  0  0  0
  131.4145  137.3647  160.7379 H   0  0  0  0  0  0  0  0  0  0  0  0
  127.2255  136.0439  162.2476 H   0  0  0  0  0  0  0  0  0  0  0  0
  126.6500  136.7922  160.7430 H   0  0  0  0  0  0  0  0  0  0  0  0
  124.6841  136.0910  161.8718 H   0  0  0  0  0  0  0  0  0  0  0  0
  1  2  2  0
  2 30  1  0
  2  3  1  0
  3  4  1  0
  3 31  1  0
  3 32  1  0
  4  5  1  0
  4 33  1  0
  4 34  1  0
  5  6  1  6
  5  7  1  0
  5 29  1  0
  7 35  1  0
  8  7  1  0
  8  9  1  0
  8 13  2  0
  9 10  1  0
  9 36  1  0
 10 12  1  0
 10 11  1  0
 10 37  1  0
 11 12  1  0
 11 38  1  0
 11 39  1  0
 12 40  1  0
 12 41  1  0
 13 14  1  0
 13 15  1  0
 15 16  1  1
 15 28  1  0
 15 17  1  0
 17 18  1  0
 17 42  1  0
 17 43  1  0
 18 19  1  0
 19 27  2  0
 19 20  1  0
 20 21  2  0
 20 44  1  0
 21 22  1  0
 21 45  1  0
 22 23  1  0
 22 26  2  0
 23 24  1  0
 23 46  1  0
 23 47  1  0
 24 25  1  0
 24 48  1  0
 24 49  1  0
 26 27  1  0
 26 50  1  0
 27 28  1  0
 28 51  1  0
 28 52  1  0
 29 30  1  0
 29 53  1  0
 29 54  1  0
 30 55  1  0
M  CHG  1  13   1
M  END
>  <DOCK_score>  (1) 
-50.641491

>  <SMILES>  (1) 
O=C1CC[C@H](NC(NC2CC2)=[NH+][C@H]2COc3ccc(CCI)cc3C2)CN1

$$$$
