O=C1CC[C@H](Nc2ccc(O)cc2Nc2[nH]cc(-c3ccccc3)[nH+]2)CN1
     RDKit          3D

 49 52  0  0  1  0  0  0  0  0999 V2000
  124.8900  134.9406  158.6104 O   0  0  0  0  0  0  0  0  0  0  0  0
  125.9692  134.4243  158.8098 C   0  0  0  0  0  0  0  0  0  0  0  0
  127.2014  135.1591  158.3657 C   0  0  0  0  0  0  0  0  0  0  0  0
  128.3874  134.1937  158.2981 C   0  0  0  0  0  0  0  0  0  0  0  0
  128.4391  133.3971  159.6074 C   0  0  2  0  0  0  0  0  0  0  0  0
  128.4281  134.0837  160.4539 H   0  0  0  0  0  0  0  0  0  0  0  0
  129.6619  132.5910  159.6443 N   0  0  0  0  0  0  0  0  0  0  0  0
  130.8358  133.1227  160.1969 C   0  0  0  0  0  0  0  0  0  0  0  0
  131.1056  132.9548  161.5463 C   0  0  0  0  0  0  0  0  0  0  0  0
  132.2605  133.4834  162.0926 C   0  0  0  0  0  0  0  0  0  0  0  0
  133.1548  134.1784  161.2919 C   0  0  0  0  0  0  0  0  0  0  0  0
  134.2895  134.6973  161.8330 O   0  0  0  0  0  0  0  0  0  0  0  0
  132.8933  134.3453  159.9405 C   0  0  0  0  0  0  0  0  0  0  0  0
  131.7360  133.8164  159.3889 C   0  0  0  0  0  0  0  0  0  0  0  0
  131.4691  133.9838  158.0243 N   0  0  0  0  0  0  0  0  0  0  0  0
  131.3224  132.8759  157.2064 C   0  0  0  0  0  0  0  0  0  0  0  0
  131.4175  131.5777  157.6050 N   0  0  0  0  0  0  0  0  0  0  0  0
  131.5989  131.2650  158.5051 H   0  0  0  0  0  0  0  0  0  0  0  0
  131.2030  130.7929  156.4987 C   0  0  0  0  0  0  0  0  0  0  0  0
  130.9892  131.6326  155.4555 C   0  0  0  0  0  0  0  0  0  0  0  0
  130.7132  131.2313  154.0543 C   0  0  0  0  0  0  0  0  0  0  0  0
  130.5055  132.2027  153.0766 C   0  0  0  0  0  0  0  0  0  0  0  0
  130.2550  131.8235  151.7733 C   0  0  0  0  0  0  0  0  0  0  0  0
  130.1983  130.4825  151.4392 C   0  0  0  0  0  0  0  0  0  0  0  0
  130.3980  129.5141  152.4066 C   0  0  0  0  0  0  0  0  0  0  0  0
  130.6549  129.8815  153.7117 C   0  0  0  0  0  0  0  0  0  0  0  0
  131.0722  132.9043  155.9199 N   0  0  0  0  0  0  0  0  0  0  0  0
  130.9601  133.7065  155.3862 H   0  0  0  0  0  0  0  0  0  0  0  0
  127.2176  132.4797  159.6750 C   0  0  0  0  0  0  0  0  0  0  0  0
  125.9982  133.2346  159.4113 N   0  0  0  0  0  0  0  0  0  0  0  0
  127.4233  135.9560  159.0754 H   0  0  0  0  0  0  0  0  0  0  0  0
  127.0297  135.5913  157.3799 H   0  0  0  0  0  0  0  0  0  0  0  0
  129.3124  134.7569  158.1743 H   0  0  0  0  0  0  0  0  0  0  0  0
  128.2575  133.5112  157.4582 H   0  0  0  0  0  0  0  0  0  0  0  0
  129.6593  131.6895  159.2864 H   0  0  0  0  0  0  0  0  0  0  0  0
  130.4113  132.4138  162.1721 H   0  0  0  0  0  0  0  0  0  0  0  0
  132.4669  133.3547  163.1448 H   0  0  0  0  0  0  0  0  0  0  0  0
  134.8502  135.1640  161.1983 H   0  0  0  0  0  0  0  0  0  0  0  0
  133.5902  134.8868  159.3180 H   0  0  0  0  0  0  0  0  0  0  0  0
  131.3870  134.8758  157.6520 H   0  0  0  0  0  0  0  0  0  0  0  0
  131.2042  129.7133  156.4659 H   0  0  0  0  0  0  0  0  0  0  0  0
  130.5450  133.2499  153.3372 H   0  0  0  0  0  0  0  0  0  0  0  0
  130.0982  132.5753  151.0140 H   0  0  0  0  0  0  0  0  0  0  0  0
  129.9971  130.1902  150.4191 H   0  0  0  0  0  0  0  0  0  0  0  0
  130.3524  128.4684  152.1401 H   0  0  0  0  0  0  0  0  0  0  0  0
  130.8105  129.1248  154.4664 H   0  0  0  0  0  0  0  0  0  0  0  0
  127.3181  131.6904  158.9300 H   0  0  0  0  0  0  0  0  0  0  0  0
  127.1592  132.0300  160.6662 H   0  0  0  0  0  0  0  0  0  0  0  0
  125.1549  132.8475  159.6940 H   0  0  0  0  0  0  0  0  0  0  0  0
  1  2  2  0
  2 30  1  0
  2  3  1  0
  3  4  1  0
  3 31  1  0
  3 32  1  0
  4  5  1  0
  4 33  1  0
  4 34  1  0
  5  6  1  1
  5  7  1  0
  5 29  1  0
  7  8  1  0
  7 35  1  0
  8 14  1  0
  8  9  2  0
  9 10  1  0
  9 36  1  0
 10 11  2  0
 10 37  1  0
 11 12  1  0
 11 13  1  0
 12 38  1  0
 13 14  2  0
 13 39  1  0
 14 15  1  0
 15 40  1  0
 16 15  1  0
 16 27  2  0
 16 17  1  0
 17 18  1  0
 17 19  1  0
 19 20  2  0
 19 41  1  0
 20 21  1  0
 20 27  1  0
 21 26  1  0
 21 22  2  0
 22 23  1  0
 22 42  1  0
 23 24  2  0
 23 43  1  0
 24 25  1  0
 24 44  1  0
 25 26  2  0
 25 45  1  0
 26 46  1  0
 27 28  1  0
 29 30  1  0
 29 47  1  0
 29 48  1  0
 30 49  1  0
M  CHG  1  27   1
M  END
>  <DOCK_score>  (1) 
-56.281998

>  <SMILES>  (1) 
O=C1CC[C@H](Nc2ccc(O)cc2Nc2[nH]cc(-c3ccccc3)[nH+]2)CN1

$$$$
