O=C1NCC(NC(NC2CCCCCC2)=[NH+][C@@H]2COc3ccccc3C2)CN1
     RDKit          3D

 60 63  0  0  1  0  0  0  0  0999 V2000
  126.1204  135.0582  165.1862 O   0  0  0  0  0  0  0  0  0  0  0  0
  126.8796  135.6203  164.4205 C   0  0  0  0  0  0  0  0  0  0  0  0
  128.1998  135.5288  164.6394 N   0  0  0  0  0  0  0  0  0  0  0  0
  129.1649  136.1929  163.7619 C   0  0  0  0  0  0  0  0  0  0  0  0
  128.5739  136.2969  162.3519 C   0  0  0  0  0  0  0  0  0  0  0  0
  129.4821  137.0608  161.4929 N   0  0  0  0  0  0  0  0  0  0  0  0
  130.0145  136.4796  160.3666 C   0  0  0  0  0  0  0  0  0  0  0  0
  129.3090  135.5093  159.6947 N   0  0  0  0  0  0  0  0  0  0  0  0
  130.0221  134.4572  158.9664 C   0  0  0  0  0  0  0  0  0  0  0  0
  128.9921  133.5555  158.2557 C   0  0  0  0  0  0  0  0  0  0  0  0
  129.6868  132.8287  157.1350 C   0  0  0  0  0  0  0  0  0  0  0  0
  130.1854  131.4341  157.5593 C   0  0  0  0  0  0  0  0  0  0  0  0
  130.8159  131.4271  158.9651 C   0  0  0  0  0  0  0  0  0  0  0  0
  131.6935  132.6250  159.2083 C   0  0  0  0  0  0  0  0  0  0  0  0
  130.8528  133.7153  159.9035 C   0  0  0  0  0  0  0  0  0  0  0  0
  131.1881  136.8481  159.9355 N   0  0  0  0  0  0  0  0  0  0  0  0
  131.5636  136.4380  159.1408 H   0  0  0  0  0  0  0  0  0  0  0  0
  131.9398  137.8818  160.6515 C   0  0  2  0  0  0  0  0  0  0  0  0
  131.6878  137.8517  161.7115 H   0  0  0  0  0  0  0  0  0  0  0  0
  131.5964  139.2623  160.0772 C   0  0  0  0  0  0  0  0  0  0  0  0
  132.2625  140.2540  160.8601 O   0  0  0  0  0  0  0  0  0  0  0  0
  133.5867  140.0819  161.1097 C   0  0  0  0  0  0  0  0  0  0  0  0
  134.3287  141.1768  161.5419 C   0  0  0  0  0  0  0  0  0  0  0  0
  135.6755  141.0410  161.8089 C   0  0  0  0  0  0  0  0  0  0  0  0
  136.2911  139.8132  161.6478 C   0  0  0  0  0  0  0  0  0  0  0  0
  135.5579  138.7246  161.2184 C   0  0  0  0  0  0  0  0  0  0  0  0
  134.2061  138.8553  160.9466 C   0  0  0  0  0  0  0  0  0  0  0  0
  133.4416  137.6462  160.4704 C   0  0  0  0  0  0  0  0  0  0  0  0
  127.2235  137.0157  162.4408 C   0  0  0  0  0  0  0  0  0  0  0  0
  126.3637  136.3069  163.3901 N   0  0  0  0  0  0  0  0  0  0  0  0
  128.5215  135.0122  165.3949 H   0  0  0  0  0  0  0  0  0  0  0  0
  130.0868  135.6122  163.7286 H   0  0  0  0  0  0  0  0  0  0  0  0
  129.3763  137.1920  164.1430 H   0  0  0  0  0  0  0  0  0  0  0  0
  128.4335  135.2979  161.9393 H   0  0  0  0  0  0  0  0  0  0  0  0
  129.7110  137.9754  161.7210 H   0  0  0  0  0  0  0  0  0  0  0  0
  128.3391  135.5216  159.7031 H   0  0  0  0  0  0  0  0  0  0  0  0
  130.6633  134.9199  158.2162 H   0  0  0  0  0  0  0  0  0  0  0  0
  128.5853  132.8347  158.9650 H   0  0  0  0  0  0  0  0  0  0  0  0
  128.1873  134.1684  157.8499 H   0  0  0  0  0  0  0  0  0  0  0  0
  130.5390  133.4221  156.8036 H   0  0  0  0  0  0  0  0  0  0  0  0
  128.9909  132.7166  156.3036 H   0  0  0  0  0  0  0  0  0  0  0  0
  130.9287  131.0923  156.8390 H   0  0  0  0  0  0  0  0  0  0  0  0
  129.3438  130.7415  157.5482 H   0  0  0  0  0  0  0  0  0  0  0  0
  131.4137  130.5229  159.0790 H   0  0  0  0  0  0  0  0  0  0  0  0
  130.0192  131.4168  159.7089 H   0  0  0  0  0  0  0  0  0  0  0  0
  132.0691  133.0029  158.2574 H   0  0  0  0  0  0  0  0  0  0  0  0
  132.5290  132.3427  159.8490 H   0  0  0  0  0  0  0  0  0  0  0  0
  131.5239  134.4109  160.4075 H   0  0  0  0  0  0  0  0  0  0  0  0
  130.2109  133.2448  160.6484 H   0  0  0  0  0  0  0  0  0  0  0  0
  131.9335  139.3237  159.0426 H   0  0  0  0  0  0  0  0  0  0  0  0
  130.5189  139.4208  160.1223 H   0  0  0  0  0  0  0  0  0  0  0  0
  133.8490  142.1361  161.6685 H   0  0  0  0  0  0  0  0  0  0  0  0
  136.2487  141.8931  162.1433 H   0  0  0  0  0  0  0  0  0  0  0  0
  137.3449  139.7057  161.8582 H   0  0  0  0  0  0  0  0  0  0  0  0
  136.0410  137.7667  161.0935 H   0  0  0  0  0  0  0  0  0  0  0  0
  133.7444  136.7743  161.0502 H   0  0  0  0  0  0  0  0  0  0  0  0
  133.6570  137.4729  159.4162 H   0  0  0  0  0  0  0  0  0  0  0  0
  127.3773  138.0392  162.7828 H   0  0  0  0  0  0  0  0  0  0  0  0
  126.7508  137.0259  161.4587 H   0  0  0  0  0  0  0  0  0  0  0  0
  125.4014  136.3342  163.2716 H   0  0  0  0  0  0  0  0  0  0  0  0
  1  2  2  0
  2 30  1  0
  2  3  1  0
  3  4  1  0
  3 31  1  0
  4  5  1  0
  4 32  1  0
  4 33  1  0
  5  6  1  0
  5 29  1  0
  5 34  1  0
  6 35  1  0
  7  6  1  0
  7  8  1  0
  7 16  2  0
  8  9  1  0
  8 36  1  0
  9 15  1  0
  9 10  1  0
  9 37  1  0
 10 11  1  0
 10 38  1  0
 10 39  1  0
 11 12  1  0
 11 40  1  0
 11 41  1  0
 12 13  1  0
 12 42  1  0
 12 43  1  0
 13 14  1  0
 13 44  1  0
 13 45  1  0
 14 15  1  0
 14 46  1  0
 14 47  1  0
 15 48  1  0
 15 49  1  0
 16 17  1  0
 16 18  1  0
 18 19  1  1
 18 28  1  0
 18 20  1  0
 20 21  1  0
 20 50  1  0
 20 51  1  0
 21 22  1  0
 22 27  2  0
 22 23  1  0
 23 24  2  0
 23 52  1  0
 24 25  1  0
 24 53  1  0
 25 26  2  0
 25 54  1  0
 26 27  1  0
 26 55  1  0
 27 28  1  0
 28 56  1  0
 28 57  1  0
 29 30  1  0
 29 58  1  0
 29 59  1  0
 30 60  1  0
M  CHG  1  16   1
M  END
>  <DOCK_score>  (1) 
-44.009438

>  <SMILES>  (1) 
O=C1NCC(NC(NC2CCCCCC2)=[NH+][C@@H]2COc3ccccc3C2)CN1

$$$$
