C=C(F)C[C@@H](Nc1[nH]cc(-c2ccc(CC)cc2)[nH+]1)c1ccc(C)cc1
     RDKit          3D

 51 53  0  0  1  0  0  0  0  0999 V2000
  126.4888  136.1387  159.2866 C   0  0  0  0  0  0  0  0  0  0  0  0
  127.7393  136.1214  158.8869 C   0  0  0  0  0  0  0  0  0  0  0  0
  128.0280  135.9463  157.5788 F   0  0  0  0  0  0  0  0  0  0  0  0
  128.8527  136.2968  159.8873 C   0  0  0  0  0  0  0  0  0  0  0  0
  129.7535  135.0602  159.8699 C   0  0  1  0  0  0  0  0  0  0  0  0
  129.1664  134.1794  160.1302 H   0  0  0  0  0  0  0  0  0  0  0  0
  130.3226  134.8894  158.5308 N   0  0  0  0  0  0  0  0  0  0  0  0
  130.0714  133.7318  157.8143 C   0  0  0  0  0  0  0  0  0  0  0  0
  129.3199  132.6814  158.2433 N   0  0  0  0  0  0  0  0  0  0  0  0
  128.8675  132.6098  159.0984 H   0  0  0  0  0  0  0  0  0  0  0  0
  129.3196  131.7413  157.2417 C   0  0  0  0  0  0  0  0  0  0  0  0
  130.0703  132.2438  156.2303 C   0  0  0  0  0  0  0  0  0  0  0  0
  130.3528  131.5746  154.9369 C   0  0  0  0  0  0  0  0  0  0  0  0
  129.9639  132.1735  153.7399 C   0  0  0  0  0  0  0  0  0  0  0  0
  130.2298  131.5465  152.5396 C   0  0  0  0  0  0  0  0  0  0  0  0
  130.8810  130.3257  152.5233 C   0  0  0  0  0  0  0  0  0  0  0  0
  131.1685  129.6458  151.2094 C   0  0  0  0  0  0  0  0  0  0  0  0
  129.9919  128.7428  150.8341 C   0  0  0  0  0  0  0  0  0  0  0  0
  131.2641  129.7244  153.7081 C   0  0  0  0  0  0  0  0  0  0  0  0
  131.0085  130.3450  154.9141 C   0  0  0  0  0  0  0  0  0  0  0  0
  130.5224  133.4645  156.6131 N   0  0  0  0  0  0  0  0  0  0  0  0
  131.0873  134.0471  156.0818 H   0  0  0  0  0  0  0  0  0  0  0  0
  130.8667  135.2355  160.8703 C   0  0  0  0  0  0  0  0  0  0  0  0
  130.5714  135.4147  162.2088 C   0  0  0  0  0  0  0  0  0  0  0  0
  131.5928  135.5707  163.1270 C   0  0  0  0  0  0  0  0  0  0  0  0
  132.9089  135.5581  162.7058 C   0  0  0  0  0  0  0  0  0  0  0  0
  134.0219  135.7344  163.7064 C   0  0  0  0  0  0  0  0  0  0  0  0
  133.2044  135.3843  161.3662 C   0  0  0  0  0  0  0  0  0  0  0  0
  132.1832  135.2231  160.4487 C   0  0  0  0  0  0  0  0  0  0  0  0
  126.2580  136.2787  160.3324 H   0  0  0  0  0  0  0  0  0  0  0  0
  125.6910  136.0131  158.5697 H   0  0  0  0  0  0  0  0  0  0  0  0
  128.4293  136.4238  160.8837 H   0  0  0  0  0  0  0  0  0  0  0  0
  129.4397  137.1776  159.6270 H   0  0  0  0  0  0  0  0  0  0  0  0
  130.8754  135.5876  158.1462 H   0  0  0  0  0  0  0  0  0  0  0  0
  128.8174  130.7854  157.2565 H   0  0  0  0  0  0  0  0  0  0  0  0
  129.4553  133.1261  153.7517 H   0  0  0  0  0  0  0  0  0  0  0  0
  129.9286  132.0095  151.6115 H   0  0  0  0  0  0  0  0  0  0  0  0
  132.0731  129.0458  151.3009 H   0  0  0  0  0  0  0  0  0  0  0  0
  131.3093  130.3995  150.4336 H   0  0  0  0  0  0  0  0  0  0  0  0
  130.1999  128.2512  149.8838 H   0  0  0  0  0  0  0  0  0  0  0  0
  129.8508  127.9898  151.6095 H   0  0  0  0  0  0  0  0  0  0  0  0
  129.0871  129.3435  150.7422 H   0  0  0  0  0  0  0  0  0  0  0  0
  131.7679  128.7694  153.6895 H   0  0  0  0  0  0  0  0  0  0  0  0
  131.3122  129.8766  155.8387 H   0  0  0  0  0  0  0  0  0  0  0  0
  129.5428  135.4289  162.5375 H   0  0  0  0  0  0  0  0  0  0  0  0
  131.3622  135.7068  164.1733 H   0  0  0  0  0  0  0  0  0  0  0  0
  134.2555  136.7945  163.8069 H   0  0  0  0  0  0  0  0  0  0  0  0
  133.7097  135.3374  164.6714 H   0  0  0  0  0  0  0  0  0  0  0  0
  134.9078  135.1991  163.3622 H   0  0  0  0  0  0  0  0  0  0  0  0
  134.2329  135.3749  161.0367 H   0  0  0  0  0  0  0  0  0  0  0  0
  132.4137  135.0876  159.4023 H   0  0  0  0  0  0  0  0  0  0  0  0
  1  2  2  0
  1 30  1  0
  1 31  1  0
  2  3  1  0
  2  4  1  0
  4  5  1  0
  4 32  1  0
  4 33  1  0
  5  6  1  1
  5  7  1  0
  5 23  1  0
  7 34  1  0
  8  7  1  0
  8 21  2  0
  8  9  1  0
  9 10  1  0
  9 11  1  0
 11 12  2  0
 11 35  1  0
 12 13  1  0
 12 21  1  0
 13 20  1  0
 13 14  2  0
 14 15  1  0
 14 36  1  0
 15 16  2  0
 15 37  1  0
 16 17  1  0
 16 19  1  0
 17 18  1  0
 17 38  1  0
 17 39  1  0
 18 40  1  0
 18 41  1  0
 18 42  1  0
 19 20  2  0
 19 43  1  0
 20 44  1  0
 21 22  1  0
 23 29  1  0
 23 24  2  0
 24 25  1  0
 24 45  1  0
 25 26  2  0
 25 46  1  0
 26 27  1  0
 26 28  1  0
 27 47  1  0
 27 48  1  0
 27 49  1  0
 28 29  2  0
 28 50  1  0
 29 51  1  0
M  CHG  1  21   1
M  END
>  <DOCK_score>  (1) 
-58.257084

>  <SMILES>  (1) 
C=C(F)C[C@@H](Nc1[nH]cc(-c2ccc(CC)cc2)[nH+]1)c1ccc(C)cc1

$$$$
