Cc1n[nH]cc1C[NH2+]Cc1c[nH]nc1-c1ccc(NCCCO)o1
     RDKit          3D

 47 49  0  0  0  0  0  0  0  0999 V2000
  133.8834  140.6169  161.9534 C   0  0  0  0  0  0  0  0  0  0  0  0
  134.2277  139.9830  160.6304 C   0  0  0  0  0  0  0  0  0  0  0  0
  135.0481  140.4716  159.7359 N   0  0  0  0  0  0  0  0  0  0  0  0
  135.0935  139.5846  158.6527 N   0  0  0  0  0  0  0  0  0  0  0  0
  135.6214  139.6949  157.8465 H   0  0  0  0  0  0  0  0  0  0  0  0
  134.2771  138.5467  158.9312 C   0  0  0  0  0  0  0  0  0  0  0  0
  133.7249  138.7709  160.1461 C   0  0  0  0  0  0  0  0  0  0  0  0
  132.7462  137.8705  160.8549 C   0  0  0  0  0  0  0  0  0  0  0  0
  132.4670  136.6958  160.0183 N   0  0  0  0  0  0  0  0  0  0  0  0
  133.3248  136.1924  159.8481 H   0  0  0  0  0  0  0  0  0  0  0  0
  132.0727  136.9951  159.1390 H   0  0  0  0  0  0  0  0  0  0  0  0
  131.5128  135.8181  160.7091 C   0  0  0  0  0  0  0  0  0  0  0  0
  131.2264  134.6130  159.8508 C   0  0  0  0  0  0  0  0  0  0  0  0
  132.1407  133.8755  159.1850 C   0  0  0  0  0  0  0  0  0  0  0  0
  131.4885  132.8858  158.5375 N   0  0  0  0  0  0  0  0  0  0  0  0
  131.8971  132.2041  157.9814 H   0  0  0  0  0  0  0  0  0  0  0  0
  130.1196  133.0175  158.8028 N   0  0  0  0  0  0  0  0  0  0  0  0
  129.9546  134.0584  159.5951 C   0  0  0  0  0  0  0  0  0  0  0  0
  128.6669  134.5552  160.1222 C   0  0  0  0  0  0  0  0  0  0  0  0
  127.4444  134.0138  159.8775 C   0  0  0  0  0  0  0  0  0  0  0  0
  126.5038  134.7988  160.5732 C   0  0  0  0  0  0  0  0  0  0  0  0
  127.1966  135.7781  161.2064 C   0  0  0  0  0  0  0  0  0  0  0  0
  126.6479  136.7734  162.0067 N   0  0  0  0  0  0  0  0  0  0  0  0
  127.5176  137.7726  162.6325 C   0  0  0  0  0  0  0  0  0  0  0  0
  127.9650  137.2702  164.0067 C   0  0  0  0  0  0  0  0  0  0  0  0
  128.8733  138.3137  164.6603 C   0  0  0  0  0  0  0  0  0  0  0  0
  130.0200  138.5304  163.8357 O   0  0  0  0  0  0  0  0  0  0  0  0
  128.5031  135.6209  160.9340 O   0  0  0  0  0  0  0  0  0  0  0  0
  134.5809  140.2689  162.7155 H   0  0  0  0  0  0  0  0  0  0  0  0
  133.9522  141.7011  161.8658 H   0  0  0  0  0  0  0  0  0  0  0  0
  132.8681  140.3390  162.2363 H   0  0  0  0  0  0  0  0  0  0  0  0
  134.0951  137.6918  158.2971 H   0  0  0  0  0  0  0  0  0  0  0  0
  131.8195  138.4143  161.0387 H   0  0  0  0  0  0  0  0  0  0  0  0
  133.1721  137.5471  161.8048 H   0  0  0  0  0  0  0  0  0  0  0  0
  130.5862  136.3619  160.8928 H   0  0  0  0  0  0  0  0  0  0  0  0
  131.9387  135.4948  161.6591 H   0  0  0  0  0  0  0  0  0  0  0  0
  133.2071  134.0459  159.1740 H   0  0  0  0  0  0  0  0  0  0  0  0
  127.2345  133.1477  159.2675 H   0  0  0  0  0  0  0  0  0  0  0  0
  125.4345  134.6494  160.5975 H   0  0  0  0  0  0  0  0  0  0  0  0
  125.6894  136.8063  162.1510 H   0  0  0  0  0  0  0  0  0  0  0  0
  128.3924  137.9378  162.0036 H   0  0  0  0  0  0  0  0  0  0  0  0
  126.9710  138.7085  162.7481 H   0  0  0  0  0  0  0  0  0  0  0  0
  127.0902  137.1050  164.6357 H   0  0  0  0  0  0  0  0  0  0  0  0
  128.5115  136.3342  163.8912 H   0  0  0  0  0  0  0  0  0  0  0  0
  128.3268  139.2498  164.7758 H   0  0  0  0  0  0  0  0  0  0  0  0
  129.1920  137.9559  165.6392 H   0  0  0  0  0  0  0  0  0  0  0  0
  130.5548  137.7381  163.6895 H   0  0  0  0  0  0  0  0  0  0  0  0
  1  2  1  0
  1 29  1  0
  1 30  1  0
  1 31  1  0
  2  7  1  0
  2  3  2  0
  3  4  1  0
  4  5  1  0
  4  6  1  0
  6  7  2  0
  6 32  1  0
  7  8  1  0
  8  9  1  0
  8 33  1  0
  8 34  1  0
  9 10  1  0
  9 11  1  0
  9 12  1  0
 12 13  1  0
 12 35  1  0
 12 36  1  0
 13 18  1  0
 13 14  2  0
 14 15  1  0
 14 37  1  0
 15 16  1  0
 15 17  1  0
 17 18  2  0
 18 19  1  0
 19 28  1  0
 19 20  2  0
 20 21  1  0
 20 38  1  0
 21 22  2  0
 21 39  1  0
 22 23  1  0
 22 28  1  0
 23 24  1  0
 23 40  1  0
 24 25  1  0
 24 41  1  0
 24 42  1  0
 25 26  1  0
 25 43  1  0
 25 44  1  0
 26 27  1  0
 26 45  1  0
 26 46  1  0
 27 47  1  0
M  CHG  1   9   1
M  END
>  <DOCK_score>  (1) 
-43.724537

>  <SMILES>  (1) 
Cc1n[nH]cc1C[NH2+]Cc1c[nH]nc1-c1ccc(NCCCO)o1

$$$$
