Cc1cc(N[C@H]2CC=C(C(C)C)CC2)cc(C2=C(CNc3nc(C4CC4)cs3)CCCC2)[nH+]1
     RDKit          3D

 72 76  0  0  1  0  0  0  0  0999 V2000
  127.7291  135.5373  157.5319 C   0  0  0  0  0  0  0  0  0  0  0  0
  128.1364  136.1812  158.8320 C   0  0  0  0  0  0  0  0  0  0  0  0
  127.2093  136.3114  159.8457 C   0  0  0  0  0  0  0  0  0  0  0  0
  127.5910  136.9080  161.0484 C   0  0  0  0  0  0  0  0  0  0  0  0
  126.6811  137.0556  162.0915 N   0  0  0  0  0  0  0  0  0  0  0  0
  127.1009  137.6845  163.3463 C   0  0  1  0  0  0  0  0  0  0  0  0
  127.7536  138.5305  163.1315 H   0  0  0  0  0  0  0  0  0  0  0  0
  125.8701  138.1669  164.1170 C   0  0  0  0  0  0  0  0  0  0  0  0
  126.2573  138.5696  165.5097 C   0  0  0  0  0  0  0  0  0  0  0  0
  127.3664  138.2262  166.0820 C   0  0  0  0  0  0  0  0  0  0  0  0
  127.6106  138.7003  167.4916 C   0  0  0  0  0  0  0  0  0  0  0  0
  127.0608  137.6689  168.4790 C   0  0  0  0  0  0  0  0  0  0  0  0
  129.1137  138.8728  167.7185 C   0  0  0  0  0  0  0  0  0  0  0  0
  128.4269  137.3904  165.4272 C   0  0  0  0  0  0  0  0  0  0  0  0
  127.8452  136.6605  164.2125 C   0  0  0  0  0  0  0  0  0  0  0  0
  128.9026  137.3572  161.1771 C   0  0  0  0  0  0  0  0  0  0  0  0
  129.7813  137.1862  160.1110 C   0  0  0  0  0  0  0  0  0  0  0  0
  131.1784  137.6523  160.2315 C   0  0  0  0  0  0  0  0  0  0  0  0
  132.0693  136.8158  160.7068 C   0  0  0  0  0  0  0  0  0  0  0  0
  131.6102  135.4321  161.0887 C   0  0  0  0  0  0  0  0  0  0  0  0
  131.7293  134.5413  159.9319 N   0  0  0  0  0  0  0  0  0  0  0  0
  130.8602  133.4711  159.7888 C   0  0  0  0  0  0  0  0  0  0  0  0
  130.8789  132.6250  158.8061 N   0  0  0  0  0  0  0  0  0  0  0  0
  129.9744  131.6623  158.8297 C   0  0  0  0  0  0  0  0  0  0  0  0
  129.8773  130.6095  157.7559 C   0  0  0  0  0  0  0  0  0  0  0  0
  130.5228  129.2513  158.0379 C   0  0  0  0  0  0  0  0  0  0  0  0
  131.1685  130.2120  157.0375 C   0  0  0  0  0  0  0  0  0  0  0  0
  129.1546  131.6973  159.8807 C   0  0  0  0  0  0  0  0  0  0  0  0
  129.6121  133.0695  160.8862 S   0  0  0  0  0  0  0  0  0  0  0  0
  133.5204  137.1536  160.8880 C   0  0  0  0  0  0  0  0  0  0  0  0
  133.8766  138.4034  160.0803 C   0  0  0  0  0  0  0  0  0  0  0  0
  132.8413  139.4924  160.3871 C   0  0  0  0  0  0  0  0  0  0  0  0
  131.4932  139.0575  159.8084 C   0  0  0  0  0  0  0  0  0  0  0  0
  129.3733  136.6115  158.9838 N   0  0  0  0  0  0  0  0  0  0  0  0
  130.0025  136.5062  158.2531 H   0  0  0  0  0  0  0  0  0  0  0  0
  127.3562  136.3010  156.8493 H   0  0  0  0  0  0  0  0  0  0  0  0
  128.5914  135.0414  157.0862 H   0  0  0  0  0  0  0  0  0  0  0  0
  126.9451  134.8036  157.7198 H   0  0  0  0  0  0  0  0  0  0  0  0
  126.1987  135.9555  159.7099 H   0  0  0  0  0  0  0  0  0  0  0  0
  125.7691  136.7420  161.9877 H   0  0  0  0  0  0  0  0  0  0  0  0
  125.1355  137.3631  164.1644 H   0  0  0  0  0  0  0  0  0  0  0  0
  125.4336  139.0224  163.6017 H   0  0  0  0  0  0  0  0  0  0  0  0
  125.5677  139.1839  166.0695 H   0  0  0  0  0  0  0  0  0  0  0  0
  127.1080  139.6551  167.6459 H   0  0  0  0  0  0  0  0  0  0  0  0
  127.2374  138.0119  169.4986 H   0  0  0  0  0  0  0  0  0  0  0  0
  127.5636  136.7142  168.3246 H   0  0  0  0  0  0  0  0  0  0  0  0
  125.9899  137.5460  168.3174 H   0  0  0  0  0  0  0  0  0  0  0  0
  129.6165  137.9181  167.5639 H   0  0  0  0  0  0  0  0  0  0  0  0
  129.5054  139.6075  167.0150 H   0  0  0  0  0  0  0  0  0  0  0  0
  129.2904  139.2157  168.7379 H   0  0  0  0  0  0  0  0  0  0  0  0
  129.2474  138.0330  165.1079 H   0  0  0  0  0  0  0  0  0  0  0  0
  128.8017  136.6575  166.1416 H   0  0  0  0  0  0  0  0  0  0  0  0
  127.1518  135.8871  164.5429 H   0  0  0  0  0  0  0  0  0  0  0  0
  128.6529  136.2105  163.6354 H   0  0  0  0  0  0  0  0  0  0  0  0
  129.2338  137.8281  162.0909 H   0  0  0  0  0  0  0  0  0  0  0  0
  132.2298  135.0555  161.9026 H   0  0  0  0  0  0  0  0  0  0  0  0
  130.5699  135.4709  161.4121 H   0  0  0  0  0  0  0  0  0  0  0  0
  132.4163  134.7006  159.2659 H   0  0  0  0  0  0  0  0  0  0  0  0
  128.9579  130.6185  157.1704 H   0  0  0  0  0  0  0  0  0  0  0  0
  131.0174  129.1191  159.0002 H   0  0  0  0  0  0  0  0  0  0  0  0
  130.0279  128.3662  157.6381 H   0  0  0  0  0  0  0  0  0  0  0  0
  131.0984  129.9592  155.9795 H   0  0  0  0  0  0  0  0  0  0  0  0
  132.0880  130.7124  157.3414 H   0  0  0  0  0  0  0  0  0  0  0  0
  128.3524  131.0030  160.0824 H   0  0  0  0  0  0  0  0  0  0  0  0
  134.1333  136.3180  160.5501 H   0  0  0  0  0  0  0  0  0  0  0  0
  133.7135  137.3392  161.9446 H   0  0  0  0  0  0  0  0  0  0  0  0
  133.8574  138.1692  159.0158 H   0  0  0  0  0  0  0  0  0  0  0  0
  134.8702  138.7532  160.3603 H   0  0  0  0  0  0  0  0  0  0  0  0
  133.1508  140.4315  159.9284 H   0  0  0  0  0  0  0  0  0  0  0  0
  132.7527  139.6201  161.4659 H   0  0  0  0  0  0  0  0  0  0  0  0
  131.5344  139.1066  158.7202 H   0  0  0  0  0  0  0  0  0  0  0  0
  130.7135  139.7273  160.1711 H   0  0  0  0  0  0  0  0  0  0  0  0
  1 36  1  0
  1 37  1  0
  1 38  1  0
  2  1  1  0
  2 34  2  0
  2  3  1  0
  3  4  2  0
  3 39  1  0
  4  5  1  0
  4 16  1  0
  5  6  1  0
  5 40  1  0
  6  7  1  6
  6 15  1  0
  6  8  1  0
  8  9  1  0
  8 41  1  0
  8 42  1  0
  9 10  2  0
  9 43  1  0
 10 11  1  0
 10 14  1  0
 11 12  1  0
 11 13  1  0
 11 44  1  0
 12 45  1  0
 12 46  1  0
 12 47  1  0
 13 48  1  0
 13 49  1  0
 13 50  1  0
 14 15  1  0
 14 51  1  0
 14 52  1  0
 15 53  1  0
 15 54  1  0
 16 17  2  0
 16 55  1  0
 17 18  1  0
 17 34  1  0
 18 33  1  0
 18 19  2  0
 19 20  1  0
 19 30  1  0
 20 21  1  0
 20 56  1  0
 20 57  1  0
 21 22  1  0
 21 58  1  0
 22 29  1  0
 22 23  2  0
 23 24  1  0
 24 25  1  0
 24 28  2  0
 25 27  1  0
 25 26  1  0
 25 59  1  0
 26 27  1  0
 26 60  1  0
 26 61  1  0
 27 62  1  0
 27 63  1  0
 28 29  1  0
 28 64  1  0
 30 31  1  0
 30 65  1  0
 30 66  1  0
 31 32  1  0
 31 67  1  0
 31 68  1  0
 32 33  1  0
 32 69  1  0
 32 70  1  0
 33 71  1  0
 33 72  1  0
 34 35  1  0
M  CHG  1  34   1
M  END
>  <DOCK_score>  (1) 
-48.464195

>  <SMILES>  (1) 
Cc1cc(N[C@H]2CC=C(C(C)C)CC2)cc(C2=C(CNc3nc(C4CC4)cs3)CCCC2)[nH+]1

$$$$
