Fc1ccc(Nc2c(Br)cccc2N2CC=CC2)cc1CN1CC[NH2+]CC1
     RDKit          3D

 52 55  0  0  0  0  0  0  0  0999 V2000
  125.9481  129.4648  160.6845 F   0  0  0  0  0  0  0  0  0  0  0  0
  125.8365  130.8102  160.7364 C   0  0  0  0  0  0  0  0  0  0  0  0
  124.7907  131.3908  161.4344 C   0  0  0  0  0  0  0  0  0  0  0  0
  124.6714  132.7656  161.4841 C   0  0  0  0  0  0  0  0  0  0  0  0
  125.6079  133.5666  160.8427 C   0  0  0  0  0  0  0  0  0  0  0  0
  125.4922  134.9589  160.8961 N   0  0  0  0  0  0  0  0  0  0  0  0
  126.6402  135.7596  160.8432 C   0  0  0  0  0  0  0  0  0  0  0  0
  127.1249  136.2013  159.6203 C   0  0  0  0  0  0  0  0  0  0  0  0
  126.2364  135.7214  158.0215 Br  0  0  0  0  0  0  0  0  0  0  0  0
  128.2586  136.9924  159.5710 C   0  0  0  0  0  0  0  0  0  0  0  0
  128.9113  137.3452  160.7383 C   0  0  0  0  0  0  0  0  0  0  0  0
  128.4354  136.9088  161.9602 C   0  0  0  0  0  0  0  0  0  0  0  0
  127.2962  136.1201  162.0198 C   0  0  0  0  0  0  0  0  0  0  0  0
  126.8094  135.6828  163.2572 N   0  0  0  0  0  0  0  0  0  0  0  0
  127.8699  134.9970  164.0332 C   0  0  0  0  0  0  0  0  0  0  0  0
  127.6050  135.3557  165.4771 C   0  0  0  0  0  0  0  0  0  0  0  0
  126.8070  136.3928  165.5296 C   0  0  0  0  0  0  0  0  0  0  0  0
  126.4586  136.8315  164.1261 C   0  0  0  0  0  0  0  0  0  0  0  0
  126.6556  132.9820  160.1430 C   0  0  0  0  0  0  0  0  0  0  0  0
  126.7677  131.6063  160.0914 C   0  0  0  0  0  0  0  0  0  0  0  0
  127.9045  130.9714  159.3327 C   0  0  0  0  0  0  0  0  0  0  0  0
  128.7466  132.0210  158.7435 N   0  0  0  0  0  0  0  0  0  0  0  0
  129.4899  131.5102  157.5830 C   0  0  0  0  0  0  0  0  0  0  0  0
  130.3067  132.6465  156.9638 C   0  0  0  0  0  0  0  0  0  0  0  0
  131.2373  133.1831  157.9655 N   0  0  0  0  0  0  0  0  0  0  0  0
  131.7845  133.9240  157.5534 H   0  0  0  0  0  0  0  0  0  0  0  0
  131.8516  132.4475  158.2815 H   0  0  0  0  0  0  0  0  0  0  0  0
  130.4792  133.7116  159.1073 C   0  0  0  0  0  0  0  0  0  0  0  0
  129.6639  132.5842  159.7443 C   0  0  0  0  0  0  0  0  0  0  0  0
  124.0654  130.7677  161.9365 H   0  0  0  0  0  0  0  0  0  0  0  0
  123.8531  133.2178  162.0247 H   0  0  0  0  0  0  0  0  0  0  0  0
  124.6169  135.3703  160.9698 H   0  0  0  0  0  0  0  0  0  0  0  0
  128.6344  137.3357  158.6186 H   0  0  0  0  0  0  0  0  0  0  0  0
  129.7961  137.9628  160.6938 H   0  0  0  0  0  0  0  0  0  0  0  0
  128.9484  137.1860  162.8693 H   0  0  0  0  0  0  0  0  0  0  0  0
  127.8021  133.9181  163.8936 H   0  0  0  0  0  0  0  0  0  0  0  0
  128.8528  135.3568  163.7289 H   0  0  0  0  0  0  0  0  0  0  0  0
  128.0105  134.8370  166.3331 H   0  0  0  0  0  0  0  0  0  0  0  0
  126.4528  136.8619  166.4356 H   0  0  0  0  0  0  0  0  0  0  0  0
  127.0439  137.7078  163.8480 H   0  0  0  0  0  0  0  0  0  0  0  0
  125.3930  137.0493  164.0522 H   0  0  0  0  0  0  0  0  0  0  0  0
  127.3819  133.6027  159.6395 H   0  0  0  0  0  0  0  0  0  0  0  0
  128.5024  130.3657  160.0138 H   0  0  0  0  0  0  0  0  0  0  0  0
  127.5042  130.3391  158.5403 H   0  0  0  0  0  0  0  0  0  0  0  0
  130.1606  130.7127  157.9031 H   0  0  0  0  0  0  0  0  0  0  0  0
  128.7889  131.1218  156.8443 H   0  0  0  0  0  0  0  0  0  0  0  0
  129.6347  133.4377  156.6316 H   0  0  0  0  0  0  0  0  0  0  0  0
  130.8699  132.2664  156.1114 H   0  0  0  0  0  0  0  0  0  0  0  0
  129.8063  134.4974  158.7641 H   0  0  0  0  0  0  0  0  0  0  0  0
  131.1703  134.1212  159.8440 H   0  0  0  0  0  0  0  0  0  0  0  0
  129.0897  132.9792  160.5823 H   0  0  0  0  0  0  0  0  0  0  0  0
  130.3371  131.8042  160.1001 H   0  0  0  0  0  0  0  0  0  0  0  0
  1  2  1  0
  2 20  2  0
  2  3  1  0
  3  4  2  0
  3 30  1  0
  4  5  1  0
  4 31  1  0
  5  6  1  0
  5 19  2  0
  6  7  1  0
  6 32  1  0
  7 13  1  0
  7  8  2  0
  8  9  1  0
  8 10  1  0
 10 11  2  0
 10 33  1  0
 11 12  1  0
 11 34  1  0
 12 13  2  0
 12 35  1  0
 13 14  1  0
 14 18  1  0
 14 15  1  0
 15 16  1  0
 15 36  1  0
 15 37  1  0
 16 17  2  0
 16 38  1  0
 17 18  1  0
 17 39  1  0
 18 40  1  0
 18 41  1  0
 19 20  1  0
 19 42  1  0
 20 21  1  0
 21 22  1  0
 21 43  1  0
 21 44  1  0
 22 29  1  0
 22 23  1  0
 23 24  1  0
 23 45  1  0
 23 46  1  0
 24 25  1  0
 24 47  1  0
 24 48  1  0
 25 26  1  0
 25 27  1  0
 25 28  1  0
 28 29  1  0
 28 49  1  0
 28 50  1  0
 29 51  1  0
 29 52  1  0
M  CHG  1  25   1
M  END
>  <DOCK_score>  (1) 
-41.68298

>  <SMILES>  (1) 
Fc1ccc(Nc2c(Br)cccc2N2CC=CC2)cc1CN1CC[NH2+]CC1

$$$$
