Cc1ccc(-c2cc(CNc3[nH]cc(-c4ccc(Br)cc4)[nH+]3)ccc2C)cc1
     RDKit          3D

 51 54  0  0  1  0  0  0  0  0999 V2000
  136.7586  141.0184  160.2883 C   0  0  0  0  0  0  0  0  0  0  0  0
  135.3466  140.5088  160.4219 C   0  0  0  0  0  0  0  0  0  0  0  0
  134.7396  140.4787  161.6644 C   0  0  0  0  0  0  0  0  0  0  0  0
  133.4469  140.0124  161.7926 C   0  0  0  0  0  0  0  0  0  0  0  0
  132.7532  139.5717  160.6674 C   0  0  0  0  0  0  0  0  0  0  0  0
  131.3633  139.0690  160.7992 C   0  0  0  0  0  0  0  0  0  0  0  0
  131.0540  137.7622  160.4268 C   0  0  0  0  0  0  0  0  0  0  0  0
  129.7597  137.2999  160.5514 C   0  0  0  0  0  0  0  0  0  0  0  0
  129.4238  135.8870  160.1492 C   0  0  0  0  0  0  0  0  0  0  0  0
  130.0504  135.5843  158.8599 N   0  0  0  0  0  0  0  0  0  0  0  0
  129.8816  134.3365  158.2844 C   0  0  0  0  0  0  0  0  0  0  0  0
  129.1660  133.3085  158.8162 N   0  0  0  0  0  0  0  0  0  0  0  0
  128.6861  133.3181  159.6592 H   0  0  0  0  0  0  0  0  0  0  0  0
  129.2457  132.2556  157.9372 C   0  0  0  0  0  0  0  0  0  0  0  0
  130.0142  132.6675  156.8986 C   0  0  0  0  0  0  0  0  0  0  0  0
  130.3797  131.8602  155.7091 C   0  0  0  0  0  0  0  0  0  0  0  0
  130.0087  132.2850  154.4346 C   0  0  0  0  0  0  0  0  0  0  0  0
  130.3557  131.5331  153.3309 C   0  0  0  0  0  0  0  0  0  0  0  0
  131.0617  130.3534  153.4885 C   0  0  0  0  0  0  0  0  0  0  0  0
  131.5276  129.3242  151.9720 Br  0  0  0  0  0  0  0  0  0  0  0  0
  131.4280  129.9238  154.7527 C   0  0  0  0  0  0  0  0  0  0  0  0
  131.0904  130.6711  155.8625 C   0  0  0  0  0  0  0  0  0  0  0  0
  130.3897  133.9487  157.1401 N   0  0  0  0  0  0  0  0  0  0  0  0
  130.9456  134.4908  156.5589 H   0  0  0  0  0  0  0  0  0  0  0  0
  128.7701  138.1314  161.0444 C   0  0  0  0  0  0  0  0  0  0  0  0
  129.0713  139.4292  161.4151 C   0  0  0  0  0  0  0  0  0  0  0  0
  130.3639  139.8999  161.3009 C   0  0  0  0  0  0  0  0  0  0  0  0
  130.6921  141.3124  161.7114 C   0  0  0  0  0  0  0  0  0  0  0  0
  133.3696  139.6043  159.4183 C   0  0  0  0  0  0  0  0  0  0  0  0
  134.6626  140.0726  159.3016 C   0  0  0  0  0  0  0  0  0  0  0  0
  136.7412  142.0926  160.1040 H   0  0  0  0  0  0  0  0  0  0  0  0
  137.3063  140.8165  161.2087 H   0  0  0  0  0  0  0  0  0  0  0  0
  137.2493  140.5149  159.4554 H   0  0  0  0  0  0  0  0  0  0  0  0
  135.2784  140.8204  162.5358 H   0  0  0  0  0  0  0  0  0  0  0  0
  132.9723  139.9934  162.7626 H   0  0  0  0  0  0  0  0  0  0  0  0
  131.8258  137.1126  160.0411 H   0  0  0  0  0  0  0  0  0  0  0  0
  129.7962  135.1957  160.9053 H   0  0  0  0  0  0  0  0  0  0  0  0
  128.3425  135.7815  160.0614 H   0  0  0  0  0  0  0  0  0  0  0  0
  130.5833  136.2581  158.4096 H   0  0  0  0  0  0  0  0  0  0  0  0
  128.7875  131.2846  158.0531 H   0  0  0  0  0  0  0  0  0  0  0  0
  129.4539  133.2035  154.3108 H   0  0  0  0  0  0  0  0  0  0  0  0
  130.0723  131.8636  152.3426 H   0  0  0  0  0  0  0  0  0  0  0  0
  131.9787  129.0021  154.8704 H   0  0  0  0  0  0  0  0  0  0  0  0
  131.3768  130.3353  156.8483 H   0  0  0  0  0  0  0  0  0  0  0  0
  127.7584  137.7655  161.1400 H   0  0  0  0  0  0  0  0  0  0  0  0
  128.2948  140.0741  161.7991 H   0  0  0  0  0  0  0  0  0  0  0  0
  130.5633  141.9780  160.8580 H   0  0  0  0  0  0  0  0  0  0  0  0
  130.0254  141.6208  162.5167 H   0  0  0  0  0  0  0  0  0  0  0  0
  131.7249  141.3597  162.0567 H   0  0  0  0  0  0  0  0  0  0  0  0
  132.8362  139.2643  158.5428 H   0  0  0  0  0  0  0  0  0  0  0  0
  135.1411  140.0986  158.3337 H   0  0  0  0  0  0  0  0  0  0  0  0
  1  2  1  0
  1 31  1  0
  1 32  1  0
  1 33  1  0
  2 30  2  0
  2  3  1  0
  3  4  2  0
  3 34  1  0
  4  5  1  0
  4 35  1  0
  5  6  1  0
  5 29  2  0
  6 27  1  0
  6  7  2  0
  7  8  1  0
  7 36  1  0
  8  9  1  0
  8 25  2  0
  9 10  1  0
  9 37  1  0
  9 38  1  0
 10 39  1  0
 11 10  1  0
 11 23  2  0
 11 12  1  0
 12 13  1  0
 12 14  1  0
 14 15  2  0
 14 40  1  0
 15 16  1  0
 15 23  1  0
 16 22  1  0
 16 17  2  0
 17 18  1  0
 17 41  1  0
 18 19  2  0
 18 42  1  0
 19 20  1  0
 19 21  1  0
 21 22  2  0
 21 43  1  0
 22 44  1  0
 23 24  1  0
 25 26  1  0
 25 45  1  0
 26 27  2  0
 26 46  1  0
 27 28  1  0
 28 47  1  0
 28 48  1  0
 28 49  1  0
 29 30  1  0
 29 50  1  0
 30 51  1  0
M  CHG  1  23   1
M  END
>  <DOCK_score>  (1) 
-61.935013

>  <SMILES>  (1) 
Cc1ccc(-c2cc(CNc3[nH]cc(-c4ccc(Br)cc4)[nH+]3)ccc2C)cc1

$$$$
