Cc1cccc(-c2ccc(-c3n[nH]cc3C[N@@H+]3CC=C(Br)CC3)cc2)c1
     RDKit          3D

 49 52  0  0  1  0  0  0  0  0999 V2000
  131.8913  131.8056  153.0207 C   0  0  0  0  0  0  0  0  0  0  0  0
  131.3783  131.3896  154.3753 C   0  0  0  0  0  0  0  0  0  0  0  0
  131.3314  130.0492  154.7136 C   0  0  0  0  0  0  0  0  0  0  0  0
  130.8615  129.6599  155.9552 C   0  0  0  0  0  0  0  0  0  0  0  0
  130.4426  130.6086  156.8660 C   0  0  0  0  0  0  0  0  0  0  0  0
  130.4825  131.9601  156.5283 C   0  0  0  0  0  0  0  0  0  0  0  0
  130.0280  132.9839  157.5004 C   0  0  0  0  0  0  0  0  0  0  0  0
  129.4740  134.1800  157.0455 C   0  0  0  0  0  0  0  0  0  0  0  0
  129.0514  135.1307  157.9484 C   0  0  0  0  0  0  0  0  0  0  0  0
  129.1780  134.8972  159.3172 C   0  0  0  0  0  0  0  0  0  0  0  0
  128.7237  135.9214  160.2895 C   0  0  0  0  0  0  0  0  0  0  0  0
  127.4976  136.3857  160.4094 N   0  0  0  0  0  0  0  0  0  0  0  0
  127.4918  137.3394  161.4353 N   0  0  0  0  0  0  0  0  0  0  0  0
  126.7217  137.8465  161.7367 H   0  0  0  0  0  0  0  0  0  0  0  0
  128.7443  137.4305  161.9318 C   0  0  0  0  0  0  0  0  0  0  0  0
  129.5274  136.5667  161.2498 C   0  0  0  0  0  0  0  0  0  0  0  0
  131.0002  136.3386  161.4724 C   0  0  0  0  0  0  0  0  0  0  0  0
  131.7716  137.2619  160.6295 N   0  0  2  0  0  0  0  0  0  0  0  0
  131.3330  137.3392  159.7241 H   0  0  0  0  0  0  0  0  0  0  0  0
  133.1407  136.7568  160.4731 C   0  0  0  0  0  0  0  0  0  0  0  0
  133.9980  137.7737  159.7768 C   0  0  0  0  0  0  0  0  0  0  0  0
  133.6785  139.0305  159.6862 C   0  0  0  0  0  0  0  0  0  0  0  0
  134.8569  140.2043  158.7868 Br  0  0  0  0  0  0  0  0  0  0  0  0
  132.4087  139.5871  160.2685 C   0  0  0  0  0  0  0  0  0  0  0  0
  131.8213  138.5870  161.2676 C   0  0  0  0  0  0  0  0  0  0  0  0
  129.7366  133.7034  159.7721 C   0  0  0  0  0  0  0  0  0  0  0  0
  130.1541  132.7502  158.8694 C   0  0  0  0  0  0  0  0  0  0  0  0
  130.9568  132.3464  155.2757 C   0  0  0  0  0  0  0  0  0  0  0  0
  132.9677  131.9682  153.0741 H   0  0  0  0  0  0  0  0  0  0  0  0
  131.6778  131.0211  152.2947 H   0  0  0  0  0  0  0  0  0  0  0  0
  131.3991  132.7285  152.7136 H   0  0  0  0  0  0  0  0  0  0  0  0
  131.6625  129.3039  154.0057 H   0  0  0  0  0  0  0  0  0  0  0  0
  130.8268  128.6119  156.2142 H   0  0  0  0  0  0  0  0  0  0  0  0
  130.0806  130.3040  157.8369 H   0  0  0  0  0  0  0  0  0  0  0  0
  129.3766  134.3612  155.9852 H   0  0  0  0  0  0  0  0  0  0  0  0
  128.6224  136.0571  157.5960 H   0  0  0  0  0  0  0  0  0  0  0  0
  129.0638  138.0800  162.7334 H   0  0  0  0  0  0  0  0  0  0  0  0
  131.2523  135.3109  161.2107 H   0  0  0  0  0  0  0  0  0  0  0  0
  131.2412  136.5161  162.5205 H   0  0  0  0  0  0  0  0  0  0  0  0
  133.5608  136.5436  161.4560 H   0  0  0  0  0  0  0  0  0  0  0  0
  133.1214  135.8389  159.8857 H   0  0  0  0  0  0  0  0  0  0  0  0
  134.9247  137.4454  159.3299 H   0  0  0  0  0  0  0  0  0  0  0  0
  131.6902  139.7656  159.4686 H   0  0  0  0  0  0  0  0  0  0  0  0
  132.6243  140.5258  160.7788 H   0  0  0  0  0  0  0  0  0  0  0  0
  132.4526  138.5424  162.1552 H   0  0  0  0  0  0  0  0  0  0  0  0
  130.8154  138.8987  161.5491 H   0  0  0  0  0  0  0  0  0  0  0  0
  129.8384  133.5243  160.8323 H   0  0  0  0  0  0  0  0  0  0  0  0
  130.5831  131.8238  159.2218 H   0  0  0  0  0  0  0  0  0  0  0  0
  130.9938  133.3928  155.0104 H   0  0  0  0  0  0  0  0  0  0  0  0
  1  2  1  0
  1 29  1  0
  1 30  1  0
  1 31  1  0
  2 28  2  0
  2  3  1  0
  3  4  2  0
  3 32  1  0
  4  5  1  0
  4 33  1  0
  5  6  2  0
  5 34  1  0
  6  7  1  0
  6 28  1  0
  7 27  1  0
  7  8  2  0
  8  9  1  0
  8 35  1  0
  9 10  2  0
  9 36  1  0
 10 11  1  0
 10 26  1  0
 11 16  1  0
 11 12  2  0
 12 13  1  0
 13 14  1  0
 13 15  1  0
 15 16  2  0
 15 37  1  0
 16 17  1  0
 17 18  1  0
 17 38  1  0
 17 39  1  0
 18 19  1  6
 18 25  1  0
 18 20  1  0
 20 21  1  0
 20 40  1  0
 20 41  1  0
 21 22  2  0
 21 42  1  0
 22 23  1  0
 22 24  1  0
 24 25  1  0
 24 43  1  0
 24 44  1  0
 25 45  1  0
 25 46  1  0
 26 27  2  0
 26 47  1  0
 27 48  1  0
 28 49  1  0
M  CHG  1  18   1
M  END
>  <DOCK_score>  (1) 
-41.515022

>  <SMILES>  (1) 
Cc1cccc(-c2ccc(-c3n[nH]cc3C[N@@H+]3CC=C(Br)CC3)cc2)c1

$$$$
