Fc1ccccc1C[C@H](Nc1[nH]cc(-c2ccc(Br)cc2)[nH+]1)c1ccccc1
     RDKit          3D

 48 51  0  0  1  0  0  0  0  0999 V2000
  132.2890  136.0672  162.3203 F   0  0  0  0  0  0  0  0  0  0  0  0
  132.7275  136.9696  161.4153 C   0  0  0  0  0  0  0  0  0  0  0  0
  134.0851  137.1992  161.2677 C   0  0  0  0  0  0  0  0  0  0  0  0
  134.5325  138.1223  160.3431 C   0  0  0  0  0  0  0  0  0  0  0  0
  133.6250  138.8173  159.5638 C   0  0  0  0  0  0  0  0  0  0  0  0
  132.2699  138.5847  159.7063 C   0  0  0  0  0  0  0  0  0  0  0  0
  131.8199  137.6655  160.6353 C   0  0  0  0  0  0  0  0  0  0  0  0
  130.3422  137.4167  160.7948 C   0  0  0  0  0  0  0  0  0  0  0  0
  130.0372  135.9478  160.4948 C   0  0  2  0  0  0  0  0  0  0  0  0
  130.5894  135.3130  161.1877 H   0  0  0  0  0  0  0  0  0  0  0  0
  130.4392  135.6361  159.1209 N   0  0  0  0  0  0  0  0  0  0  0  0
  130.2594  134.3582  158.6199 C   0  0  0  0  0  0  0  0  0  0  0  0
  129.7173  133.3101  159.2979 N   0  0  0  0  0  0  0  0  0  0  0  0
  129.3908  133.3236  160.2112 H   0  0  0  0  0  0  0  0  0  0  0  0
  129.7182  132.2289  158.4501 C   0  0  0  0  0  0  0  0  0  0  0  0
  130.2603  132.6474  157.2795 C   0  0  0  0  0  0  0  0  0  0  0  0
  130.4641  131.8185  156.0665 C   0  0  0  0  0  0  0  0  0  0  0  0
  129.8447  132.1688  154.8680 C   0  0  0  0  0  0  0  0  0  0  0  0
  130.0426  131.3977  153.7407 C   0  0  0  0  0  0  0  0  0  0  0  0
  130.8449  130.2711  153.8020 C   0  0  0  0  0  0  0  0  0  0  0  0
  131.1049  129.2143  152.2555 Br  0  0  0  0  0  0  0  0  0  0  0  0
  131.4577  129.9160  154.9909 C   0  0  0  0  0  0  0  0  0  0  0  0
  131.2713  130.6835  156.1225 C   0  0  0  0  0  0  0  0  0  0  0  0
  130.5778  133.9597  157.4126 N   0  0  0  0  0  0  0  0  0  0  0  0
  130.9785  134.5139  156.7247 H   0  0  0  0  0  0  0  0  0  0  0  0
  128.5594  135.6987  160.6543 C   0  0  0  0  0  0  0  0  0  0  0  0
  128.0516  135.3154  161.8815 C   0  0  0  0  0  0  0  0  0  0  0  0
  126.6960  135.0875  162.0279 C   0  0  0  0  0  0  0  0  0  0  0  0
  125.8483  135.2430  160.9472 C   0  0  0  0  0  0  0  0  0  0  0  0
  126.3560  135.6268  159.7200 C   0  0  0  0  0  0  0  0  0  0  0  0
  127.7115  135.8555  159.5739 C   0  0  0  0  0  0  0  0  0  0  0  0
  134.7941  136.6567  161.8754 H   0  0  0  0  0  0  0  0  0  0  0  0
  135.5910  138.3023  160.2271 H   0  0  0  0  0  0  0  0  0  0  0  0
  133.9755  139.5387  158.8404 H   0  0  0  0  0  0  0  0  0  0  0  0
  131.5623  139.1245  159.0945 H   0  0  0  0  0  0  0  0  0  0  0  0
  129.7899  138.0513  160.1017 H   0  0  0  0  0  0  0  0  0  0  0  0
  130.0430  137.6485  161.8170 H   0  0  0  0  0  0  0  0  0  0  0  0
  130.8317  136.3253  158.5623 H   0  0  0  0  0  0  0  0  0  0  0  0
  129.3560  131.2362  158.6729 H   0  0  0  0  0  0  0  0  0  0  0  0
  129.2144  133.0444  154.8206 H   0  0  0  0  0  0  0  0  0  0  0  0
  129.5668  131.6708  152.8104 H   0  0  0  0  0  0  0  0  0  0  0  0
  132.0826  129.0362  155.0334 H   0  0  0  0  0  0  0  0  0  0  0  0
  131.7502  130.4055  157.0496 H   0  0  0  0  0  0  0  0  0  0  0  0
  128.7134  135.1983  162.7270 H   0  0  0  0  0  0  0  0  0  0  0  0
  126.2994  134.7877  162.9867 H   0  0  0  0  0  0  0  0  0  0  0  0
  124.7894  135.0642  161.0614 H   0  0  0  0  0  0  0  0  0  0  0  0
  125.6938  135.7476  158.8755 H   0  0  0  0  0  0  0  0  0  0  0  0
  128.1082  136.1552  158.6150 H   0  0  0  0  0  0  0  0  0  0  0  0
  1  2  1  0
  2  7  2  0
  2  3  1  0
  3  4  2  0
  3 32  1  0
  4  5  1  0
  4 33  1  0
  5  6  2  0
  5 34  1  0
  6  7  1  0
  6 35  1  0
  7  8  1  0
  8  9  1  0
  8 36  1  0
  8 37  1  0
  9 10  1  1
  9 11  1  0
  9 26  1  0
 11 38  1  0
 12 11  1  0
 12 24  2  0
 12 13  1  0
 13 14  1  0
 13 15  1  0
 15 16  2  0
 15 39  1  0
 16 17  1  0
 16 24  1  0
 17 23  1  0
 17 18  2  0
 18 19  1  0
 18 40  1  0
 19 20  2  0
 19 41  1  0
 20 21  1  0
 20 22  1  0
 22 23  2  0
 22 42  1  0
 23 43  1  0
 24 25  1  0
 26 31  1  0
 26 27  2  0
 27 28  1  0
 27 44  1  0
 28 29  2  0
 28 45  1  0
 29 30  1  0
 29 46  1  0
 30 31  2  0
 30 47  1  0
 31 48  1  0
M  CHG  1  24   1
M  END
>  <DOCK_score>  (1) 
-60.207893

>  <SMILES>  (1) 
Fc1ccccc1C[C@H](Nc1[nH]cc(-c2ccc(Br)cc2)[nH+]1)c1ccccc1

$$$$
