Clc1ccccc1[C@H](c1ccccc1)[NH+]1CCN(c2cncc3c2CCCC3)CC1
     RDKit          3D

 59 63  0  0  1  0  0  0  0  0999 V2000
  130.7491  132.5177  162.0888 Cl  0  0  0  0  0  0  0  0  0  0  0  0
  131.0150  132.3860  160.3783 C   0  0  0  0  0  0  0  0  0  0  0  0
  131.4646  131.1944  159.8374 C   0  0  0  0  0  0  0  0  0  0  0  0
  131.6815  131.0920  158.4765 C   0  0  0  0  0  0  0  0  0  0  0  0
  131.4446  132.1783  157.6546 C   0  0  0  0  0  0  0  0  0  0  0  0
  130.9900  133.3671  158.1936 C   0  0  0  0  0  0  0  0  0  0  0  0
  130.7722  133.4707  159.5547 C   0  0  0  0  0  0  0  0  0  0  0  0
  130.2762  134.7668  160.1421 C   0  0  2  0  0  0  0  0  0  0  0  0
  130.1696  134.6593  161.2215 H   0  0  0  0  0  0  0  0  0  0  0  0
  128.9400  135.1135  159.5374 C   0  0  0  0  0  0  0  0  0  0  0  0
  127.7754  134.6615  160.1290 C   0  0  0  0  0  0  0  0  0  0  0  0
  126.5496  134.9828  159.5768 C   0  0  0  0  0  0  0  0  0  0  0  0
  126.4888  135.7491  158.4278 C   0  0  0  0  0  0  0  0  0  0  0  0
  127.6536  136.1972  157.8335 C   0  0  0  0  0  0  0  0  0  0  0  0
  128.8792  135.8792  158.3880 C   0  0  0  0  0  0  0  0  0  0  0  0
  131.2386  135.8372  159.8493 N   0  0  0  0  0  0  0  0  0  0  0  0
  131.3370  135.9365  158.8500 H   0  0  0  0  0  0  0  0  0  0  0  0
  130.7545  137.1006  160.4212 C   0  0  0  0  0  0  0  0  0  0  0  0
  131.7477  138.2197  160.1003 C   0  0  0  0  0  0  0  0  0  0  0  0
  133.0626  137.8798  160.6619 N   0  0  0  0  0  0  0  0  0  0  0  0
  133.9841  138.9052  160.4351 C   0  0  0  0  0  0  0  0  0  0  0  0
  134.2953  139.2965  159.1401 C   0  0  0  0  0  0  0  0  0  0  0  0
  135.1646  140.2634  158.9249 N   0  0  0  0  0  0  0  0  0  0  0  0
  135.7667  140.8866  159.9164 C   0  0  0  0  0  0  0  0  0  0  0  0
  135.5102  140.5505  161.2381 C   0  0  0  0  0  0  0  0  0  0  0  0
  134.6040  139.5489  161.5083 C   0  0  0  0  0  0  0  0  0  0  0  0
  134.2498  139.1253  162.9065 C   0  0  0  0  0  0  0  0  0  0  0  0
  135.3064  139.6136  163.8967 C   0  0  0  0  0  0  0  0  0  0  0  0
  135.5338  141.1119  163.6653 C   0  0  0  0  0  0  0  0  0  0  0  0
  136.2412  141.2938  162.3232 C   0  0  0  0  0  0  0  0  0  0  0  0
  133.5490  136.6044  160.1171 C   0  0  0  0  0  0  0  0  0  0  0  0
  132.5411  135.4986  160.4379 C   0  0  0  0  0  0  0  0  0  0  0  0
  131.6501  130.3459  160.4793 H   0  0  0  0  0  0  0  0  0  0  0  0
  132.0360  130.1630  158.0546 H   0  0  0  0  0  0  0  0  0  0  0  0
  131.6143  132.0978  156.5911 H   0  0  0  0  0  0  0  0  0  0  0  0
  130.8047  134.2153  157.5510 H   0  0  0  0  0  0  0  0  0  0  0  0
  127.8231  134.0596  161.0246 H   0  0  0  0  0  0  0  0  0  0  0  0
  125.6396  134.6323  160.0409 H   0  0  0  0  0  0  0  0  0  0  0  0
  125.5313  135.9973  157.9943 H   0  0  0  0  0  0  0  0  0  0  0  0
  127.6062  136.7957  156.9357 H   0  0  0  0  0  0  0  0  0  0  0  0
  129.7893  136.2290  157.9235 H   0  0  0  0  0  0  0  0  0  0  0  0
  130.6602  136.9974  161.5022 H   0  0  0  0  0  0  0  0  0  0  0  0
  129.7821  137.3440  159.9933 H   0  0  0  0  0  0  0  0  0  0  0  0
  131.3960  139.1543  160.5373 H   0  0  0  0  0  0  0  0  0  0  0  0
  131.8319  138.3324  159.0194 H   0  0  0  0  0  0  0  0  0  0  0  0
  133.8212  138.8054  158.3030 H   0  0  0  0  0  0  0  0  0  0  0  0
  136.4733  141.6734  159.6968 H   0  0  0  0  0  0  0  0  0  0  0  0
  133.2813  139.5466  163.1762 H   0  0  0  0  0  0  0  0  0  0  0  0
  134.1909  138.0378  162.9496 H   0  0  0  0  0  0  0  0  0  0  0  0
  136.2385  139.0723  163.7343 H   0  0  0  0  0  0  0  0  0  0  0  0
  134.9603  139.4490  164.9172 H   0  0  0  0  0  0  0  0  0  0  0  0
  136.1552  141.5158  164.4645 H   0  0  0  0  0  0  0  0  0  0  0  0
  134.5746  141.6293  163.6466 H   0  0  0  0  0  0  0  0  0  0  0  0
  137.2596  140.9125  162.3981 H   0  0  0  0  0  0  0  0  0  0  0  0
  136.2742  142.3545  162.0742 H   0  0  0  0  0  0  0  0  0  0  0  0
  133.6630  136.6904  159.0365 H   0  0  0  0  0  0  0  0  0  0  0  0
  134.5118  136.3606  160.5664 H   0  0  0  0  0  0  0  0  0  0  0  0
  132.4377  135.4037  161.5188 H   0  0  0  0  0  0  0  0  0  0  0  0
  132.8932  134.5545  160.0223 H   0  0  0  0  0  0  0  0  0  0  0  0
  1  2  1  0
  2  7  2  0
  2  3  1  0
  3  4  2  0
  3 33  1  0
  4  5  1  0
  4 34  1  0
  5  6  2  0
  5 35  1  0
  6  7  1  0
  6 36  1  0
  7  8  1  0
  8  9  1  1
  8 10  1  0
  8 16  1  0
 10 15  1  0
 10 11  2  0
 11 12  1  0
 11 37  1  0
 12 13  2  0
 12 38  1  0
 13 14  1  0
 13 39  1  0
 14 15  2  0
 14 40  1  0
 15 41  1  0
 16 17  1  0
 16 32  1  0
 16 18  1  0
 18 19  1  0
 18 42  1  0
 18 43  1  0
 19 20  1  0
 19 44  1  0
 19 45  1  0
 20 21  1  0
 20 31  1  0
 21 26  1  0
 21 22  2  0
 22 23  1  0
 22 46  1  0
 23 24  2  0
 24 25  1  0
 24 47  1  0
 25 30  1  0
 25 26  2  0
 26 27  1  0
 27 28  1  0
 27 48  1  0
 27 49  1  0
 28 29  1  0
 28 50  1  0
 28 51  1  0
 29 30  1  0
 29 52  1  0
 29 53  1  0
 30 54  1  0
 30 55  1  0
 31 32  1  0
 31 56  1  0
 31 57  1  0
 32 58  1  0
 32 59  1  0
M  CHG  1  16   1
M  END
>  <DOCK_score>  (1) 
-59.196178

>  <SMILES>  (1) 
Clc1ccccc1[C@H](c1ccccc1)[NH+]1CCN(c2cncc3c2CCCC3)CC1

$$$$
