Cc1ccc(C[C@H](COc2ccccc2C(C)(F)F)Nc2[nH]c(C)c(C)[nH+]2)cc1
     RDKit          3D

 57 59  0  0  1  0  0  0  0  0999 V2000
  125.6135  135.1437  158.5565 C   0  0  0  0  0  0  0  0  0  0  0  0
  126.8647  135.6498  159.2269 C   0  0  0  0  0  0  0  0  0  0  0  0
  127.8751  136.2128  158.4698 C   0  0  0  0  0  0  0  0  0  0  0  0
  129.0228  136.6771  159.0848 C   0  0  0  0  0  0  0  0  0  0  0  0
  129.1597  136.5790  160.4568 C   0  0  0  0  0  0  0  0  0  0  0  0
  130.4109  137.0850  161.1273 C   0  0  0  0  0  0  0  0  0  0  0  0
  131.4445  135.9591  161.1945 C   0  0  2  0  0  0  0  0  0  0  0  0
  131.0373  135.1256  161.7669 H   0  0  0  0  0  0  0  0  0  0  0  0
  132.7148  136.4729  161.8754 C   0  0  0  0  0  0  0  0  0  0  0  0
  133.4929  137.2150  160.9342 O   0  0  0  0  0  0  0  0  0  0  0  0
  134.6619  137.7443  161.3813 C   0  0  0  0  0  0  0  0  0  0  0  0
  135.3681  137.1125  162.3951 C   0  0  0  0  0  0  0  0  0  0  0  0
  136.5563  137.6525  162.8475 C   0  0  0  0  0  0  0  0  0  0  0  0
  137.0423  138.8217  162.2906 C   0  0  0  0  0  0  0  0  0  0  0  0
  136.3410  139.4523  161.2805 C   0  0  0  0  0  0  0  0  0  0  0  0
  135.1488  138.9198  160.8286 C   0  0  0  0  0  0  0  0  0  0  0  0
  134.3815  139.6115  159.7314 C   0  0  0  0  0  0  0  0  0  0  0  0
  134.2435  138.6697  158.5337 C   0  0  0  0  0  0  0  0  0  0  0  0
  133.1102  139.9599  160.1997 F   0  0  0  0  0  0  0  0  0  0  0  0
  135.0670  140.7666  159.3399 F   0  0  0  0  0  0  0  0  0  0  0  0
  131.7656  135.5092  159.8377 N   0  0  0  0  0  0  0  0  0  0  0  0
  131.0347  134.4906  159.2565 C   0  0  0  0  0  0  0  0  0  0  0  0
  130.0249  133.8384  159.8256 N   0  0  0  0  0  0  0  0  0  0  0  0
  129.6768  133.9954  160.7173 H   0  0  0  0  0  0  0  0  0  0  0  0
  129.5628  132.9145  158.9398 C   0  0  0  0  0  0  0  0  0  0  0  0
  128.4227  131.9553  159.1657 C   0  0  0  0  0  0  0  0  0  0  0  0
  130.3132  133.0100  157.8290 C   0  0  0  0  0  0  0  0  0  0  0  0
  130.1685  132.1774  156.5812 C   0  0  0  0  0  0  0  0  0  0  0  0
  131.2278  133.9957  158.0373 N   0  0  0  0  0  0  0  0  0  0  0  0
  131.9035  134.2875  157.4054 H   0  0  0  0  0  0  0  0  0  0  0  0
  128.1515  136.0115  161.2133 C   0  0  0  0  0  0  0  0  0  0  0  0
  127.0019  135.5513  160.5989 C   0  0  0  0  0  0  0  0  0  0  0  0
  125.7450  134.0964  158.2848 H   0  0  0  0  0  0  0  0  0  0  0  0
  124.7707  135.2384  159.2411 H   0  0  0  0  0  0  0  0  0  0  0  0
  125.4197  135.7305  157.6585 H   0  0  0  0  0  0  0  0  0  0  0  0
  127.7678  136.2898  157.3979 H   0  0  0  0  0  0  0  0  0  0  0  0
  129.8123  137.1165  158.4933 H   0  0  0  0  0  0  0  0  0  0  0  0
  130.1721  137.4198  162.1368 H   0  0  0  0  0  0  0  0  0  0  0  0
  130.8182  137.9186  160.5550 H   0  0  0  0  0  0  0  0  0  0  0  0
  133.2974  135.6280  162.2424 H   0  0  0  0  0  0  0  0  0  0  0  0
  132.4435  137.1177  162.7113 H   0  0  0  0  0  0  0  0  0  0  0  0
  134.9889  136.1997  162.8300 H   0  0  0  0  0  0  0  0  0  0  0  0
  137.1063  137.1610  163.6365 H   0  0  0  0  0  0  0  0  0  0  0  0
  137.9716  139.2423  162.6453 H   0  0  0  0  0  0  0  0  0  0  0  0
  136.7229  140.3649  160.8471 H   0  0  0  0  0  0  0  0  0  0  0  0
  133.7095  137.7698  158.8387 H   0  0  0  0  0  0  0  0  0  0  0  0
  133.6886  139.1700  157.7400 H   0  0  0  0  0  0  0  0  0  0  0  0
  135.2342  138.3982  158.1688 H   0  0  0  0  0  0  0  0  0  0  0  0
  132.4911  135.9263  159.3475 H   0  0  0  0  0  0  0  0  0  0  0  0
  128.8048  131.0336  159.6047 H   0  0  0  0  0  0  0  0  0  0  0  0
  127.6970  132.4063  159.8425 H   0  0  0  0  0  0  0  0  0  0  0  0
  127.9416  131.7320  158.2134 H   0  0  0  0  0  0  0  0  0  0  0  0
  130.7907  131.2863  156.6649 H   0  0  0  0  0  0  0  0  0  0  0  0
  129.1262  131.8826  156.4599 H   0  0  0  0  0  0  0  0  0  0  0  0
  130.4842  132.7609  155.7164 H   0  0  0  0  0  0  0  0  0  0  0  0
  128.2603  135.9309  162.2848 H   0  0  0  0  0  0  0  0  0  0  0  0
  126.2124  135.1118  161.1904 H   0  0  0  0  0  0  0  0  0  0  0  0
  1  2  1  0
  1 33  1  0
  1 34  1  0
  1 35  1  0
  2 32  2  0
  2  3  1  0
  3  4  2  0
  3 36  1  0
  4  5  1  0
  4 37  1  0
  5  6  1  0
  5 31  2  0
  6  7  1  0
  6 38  1  0
  6 39  1  0
  7  8  1  1
  7  9  1  0
  7 21  1  0
  9 10  1  0
  9 40  1  0
  9 41  1  0
 10 11  1  0
 11 16  1  0
 11 12  2  0
 12 13  1  0
 12 42  1  0
 13 14  2  0
 13 43  1  0
 14 15  1  0
 14 44  1  0
 15 16  2  0
 15 45  1  0
 16 17  1  0
 17 18  1  0
 17 19  1  0
 17 20  1  0
 18 46  1  0
 18 47  1  0
 18 48  1  0
 21 49  1  0
 22 21  1  0
 22 29  1  0
 22 23  2  0
 23 24  1  0
 23 25  1  0
 25 26  1  0
 25 27  2  0
 26 50  1  0
 26 51  1  0
 26 52  1  0
 27 28  1  0
 27 29  1  0
 28 53  1  0
 28 54  1  0
 28 55  1  0
 29 30  1  0
 31 32  1  0
 31 56  1  0
 32 57  1  0
M  CHG  1  23   1
M  END
>  <DOCK_score>  (1) 
-57.828373

>  <SMILES>  (1) 
Cc1ccc(C[C@H](COc2ccccc2C(C)(F)F)Nc2[nH]c(C)c(C)[nH+]2)cc1

$$$$
