Cc1cccc(C[NH+]=C(NCCc2cccs2)N[C@H]2C[C@@H](O)C2)c1C
     RDKit          3D

 53 55  0  0  1  0  0  0  0  0999 V2000
  134.5939  139.7357  162.3147 C   0  0  0  0  0  0  0  0  0  0  0  0
  133.5465  139.3996  161.2846 C   0  0  0  0  0  0  0  0  0  0  0  0
  133.6195  139.9509  160.0184 C   0  0  0  0  0  0  0  0  0  0  0  0
  132.6585  139.6433  159.0745 C   0  0  0  0  0  0  0  0  0  0  0  0
  131.6250  138.7828  159.3949 C   0  0  0  0  0  0  0  0  0  0  0  0
  131.5529  138.2301  160.6596 C   0  0  0  0  0  0  0  0  0  0  0  0
  130.4263  137.2921  161.0090 C   0  0  0  0  0  0  0  0  0  0  0  0
  130.2363  136.3302  159.9205 N   0  0  0  0  0  0  0  0  0  0  0  0
  130.8011  136.3715  159.1328 H   0  0  0  0  0  0  0  0  0  0  0  0
  129.3122  135.4158  160.0126 C   0  0  0  0  0  0  0  0  0  0  0  0
  129.1340  134.5131  158.9910 N   0  0  0  0  0  0  0  0  0  0  0  0
  129.9829  134.5792  157.7988 C   0  0  0  0  0  0  0  0  0  0  0  0
  129.5799  133.4711  156.8238 C   0  0  0  0  0  0  0  0  0  0  0  0
  129.7514  132.1298  157.4890 C   0  0  0  0  0  0  0  0  0  0  0  0
  130.8623  131.3922  157.4572 C   0  0  0  0  0  0  0  0  0  0  0  0
  130.7864  130.1933  158.1452 C   0  0  0  0  0  0  0  0  0  0  0  0
  129.6108  129.9533  158.7280 C   0  0  0  0  0  0  0  0  0  0  0  0
  128.5149  131.2940  158.4196 S   0  0  0  0  0  0  0  0  0  0  0  0
  128.5154  135.3539  161.1313 N   0  0  0  0  0  0  0  0  0  0  0  0
  127.4767  134.3261  161.2349 C   0  0  1  0  0  0  0  0  0  0  0  0
  127.8772  133.3135  161.1898 H   0  0  0  0  0  0  0  0  0  0  0  0
  126.5014  134.5515  162.4025 C   0  0  0  0  0  0  0  0  0  0  0  0
  125.3817  134.0961  161.4519 C   0  0  1  0  0  0  0  0  0  0  0  0
  125.2074  133.0202  161.4663 H   0  0  0  0  0  0  0  0  0  0  0  0
  124.1778  134.8551  161.5804 O   0  0  0  0  0  0  0  0  0  0  0  0
  126.2834  134.5592  160.2932 C   0  0  0  0  0  0  0  0  0  0  0  0
  132.5112  138.5422  161.6062 C   0  0  0  0  0  0  0  0  0  0  0  0
  132.4290  137.9445  162.9871 C   0  0  0  0  0  0  0  0  0  0  0  0
  134.2803  140.6146  162.8782 H   0  0  0  0  0  0  0  0  0  0  0  0
  134.7180  138.8932  162.9950 H   0  0  0  0  0  0  0  0  0  0  0  0
  135.5406  139.9427  161.8160 H   0  0  0  0  0  0  0  0  0  0  0  0
  134.4268  140.6234  159.7685 H   0  0  0  0  0  0  0  0  0  0  0  0
  132.7152  140.0746  158.0860 H   0  0  0  0  0  0  0  0  0  0  0  0
  130.8742  138.5421  158.6568 H   0  0  0  0  0  0  0  0  0  0  0  0
  129.5093  137.8633  161.1532 H   0  0  0  0  0  0  0  0  0  0  0  0
  130.6699  136.7578  161.9275 H   0  0  0  0  0  0  0  0  0  0  0  0
  128.4461  133.8326  159.0595 H   0  0  0  0  0  0  0  0  0  0  0  0
  129.8587  135.5493  157.3176 H   0  0  0  0  0  0  0  0  0  0  0  0
  131.0257  134.4475  158.0875 H   0  0  0  0  0  0  0  0  0  0  0  0
  128.5370  133.6027  156.5351 H   0  0  0  0  0  0  0  0  0  0  0  0
  130.2113  133.5202  155.9367 H   0  0  0  0  0  0  0  0  0  0  0  0
  131.7543  131.7076  156.9365 H   0  0  0  0  0  0  0  0  0  0  0  0
  131.6149  129.5029  158.2024 H   0  0  0  0  0  0  0  0  0  0  0  0
  129.3690  129.0709  159.3018 H   0  0  0  0  0  0  0  0  0  0  0  0
  128.6413  135.9908  161.8521 H   0  0  0  0  0  0  0  0  0  0  0  0
  126.6627  133.8759  163.2426 H   0  0  0  0  0  0  0  0  0  0  0  0
  126.4184  135.5948  162.7068 H   0  0  0  0  0  0  0  0  0  0  0  0
  124.2867  135.7989  161.3998 H   0  0  0  0  0  0  0  0  0  0  0  0
  126.1407  135.6047  160.0199 H   0  0  0  0  0  0  0  0  0  0  0  0
  126.2689  133.8900  159.4330 H   0  0  0  0  0  0  0  0  0  0  0  0
  132.9770  137.0025  163.0085 H   0  0  0  0  0  0  0  0  0  0  0  0
  132.8655  138.6352  163.7086 H   0  0  0  0  0  0  0  0  0  0  0  0
  131.3850  137.7634  163.2432 H   0  0  0  0  0  0  0  0  0  0  0  0
  1  2  1  0
  1 29  1  0
  1 30  1  0
  1 31  1  0
  2 27  2  0
  2  3  1  0
  3  4  2  0
  3 32  1  0
  4  5  1  0
  4 33  1  0
  5  6  2  0
  5 34  1  0
  6  7  1  0
  6 27  1  0
  7  8  1  0
  7 35  1  0
  7 36  1  0
  8  9  1  0
 10  8  2  0
 10 11  1  0
 10 19  1  0
 11 12  1  0
 11 37  1  0
 12 13  1  0
 12 38  1  0
 12 39  1  0
 13 14  1  0
 13 40  1  0
 13 41  1  0
 14 18  1  0
 14 15  2  0
 15 16  1  0
 15 42  1  0
 16 17  2  0
 16 43  1  0
 17 18  1  0
 17 44  1  0
 19 20  1  0
 19 45  1  0
 20 21  1  1
 20 26  1  0
 20 22  1  0
 22 23  1  0
 22 46  1  0
 22 47  1  0
 23 24  1  6
 23 25  1  0
 23 26  1  0
 25 48  1  0
 26 49  1  0
 26 50  1  0
 27 28  1  0
 28 51  1  0
 28 52  1  0
 28 53  1  0
M  CHG  1   8   1
M  END
>  <DOCK_score>  (1) 
-51.567463

>  <SMILES>  (1) 
Cc1cccc(C[NH+]=C(NCCc2cccs2)N[C@H]2C[C@@H](O)C2)c1C

$$$$
