Cc1cc(C[N@H+]2CC=C(c3ccccc3)C2)cc(Sc2ccc(N)nc2C)c1
     RDKit          3D

 54 57  0  0  1  0  0  0  0  0999 V2000
  131.0231  130.9112  156.8601 C   0  0  0  0  0  0  0  0  0  0  0  0
  130.4604  131.7963  157.9424 C   0  0  0  0  0  0  0  0  0  0  0  0
  131.3027  132.6154  158.6723 C   0  0  0  0  0  0  0  0  0  0  0  0
  130.7911  133.4295  159.6662 C   0  0  0  0  0  0  0  0  0  0  0  0
  131.7128  134.3205  160.4583 C   0  0  0  0  0  0  0  0  0  0  0  0
  131.8277  135.6237  159.7902 N   0  0  1  0  0  0  0  0  0  0  0  0
  131.8798  135.5098  158.7890 H   0  0  0  0  0  0  0  0  0  0  0  0
  130.6937  136.5057  160.1588 C   0  0  0  0  0  0  0  0  0  0  0  0
  131.2713  137.9011  160.2198 C   0  0  0  0  0  0  0  0  0  0  0  0
  132.5927  137.8228  160.2975 C   0  0  0  0  0  0  0  0  0  0  0  0
  133.5158  138.9747  160.3741 C   0  0  0  0  0  0  0  0  0  0  0  0
  134.4893  139.1590  159.3917 C   0  0  0  0  0  0  0  0  0  0  0  0
  135.3448  140.2390  159.4665 C   0  0  0  0  0  0  0  0  0  0  0  0
  135.2456  141.1321  160.5183 C   0  0  0  0  0  0  0  0  0  0  0  0
  134.2860  140.9521  161.4985 C   0  0  0  0  0  0  0  0  0  0  0  0
  133.4211  139.8792  161.4324 C   0  0  0  0  0  0  0  0  0  0  0  0
  133.0052  136.3688  160.2945 C   0  0  0  0  0  0  0  0  0  0  0  0
  129.4370  133.4228  159.9373 C   0  0  0  0  0  0  0  0  0  0  0  0
  128.5870  132.6047  159.2029 C   0  0  0  0  0  0  0  0  0  0  0  0
  126.8577  132.5977  159.5409 S   0  0  0  0  0  0  0  0  0  0  0  0
  126.7063  133.7602  160.8563 C   0  0  0  0  0  0  0  0  0  0  0  0
  126.8055  133.3418  162.1832 C   0  0  0  0  0  0  0  0  0  0  0  0
  126.6810  134.2885  163.1830 C   0  0  0  0  0  0  0  0  0  0  0  0
  126.4623  135.6175  162.8353 C   0  0  0  0  0  0  0  0  0  0  0  0
  126.3360  136.5789  163.8351 N   0  0  0  0  0  0  0  0  0  0  0  0
  126.3736  135.9790  161.5653 N   0  0  0  0  0  0  0  0  0  0  0  0
  126.4927  135.1034  160.5851 C   0  0  0  0  0  0  0  0  0  0  0  0
  126.3903  135.5676  159.1551 C   0  0  0  0  0  0  0  0  0  0  0  0
  129.1050  131.7881  158.2044 C   0  0  0  0  0  0  0  0  0  0  0  0
  131.2956  129.9454  157.2856 H   0  0  0  0  0  0  0  0  0  0  0  0
  130.2732  130.7670  156.0824 H   0  0  0  0  0  0  0  0  0  0  0  0
  131.9073  131.3811  156.4297 H   0  0  0  0  0  0  0  0  0  0  0  0
  132.3628  132.6193  158.4655 H   0  0  0  0  0  0  0  0  0  0  0  0
  132.6974  133.8578  160.5240 H   0  0  0  0  0  0  0  0  0  0  0  0
  131.3096  134.4605  161.4612 H   0  0  0  0  0  0  0  0  0  0  0  0
  130.2955  136.2192  161.1321 H   0  0  0  0  0  0  0  0  0  0  0  0
  129.9115  136.4539  159.4015 H   0  0  0  0  0  0  0  0  0  0  0  0
  130.6986  138.8165  160.2026 H   0  0  0  0  0  0  0  0  0  0  0  0
  134.5704  138.4601  158.5723 H   0  0  0  0  0  0  0  0  0  0  0  0
  136.0962  140.3849  158.7046 H   0  0  0  0  0  0  0  0  0  0  0  0
  135.9200  141.9737  160.5753 H   0  0  0  0  0  0  0  0  0  0  0  0
  134.2135  141.6531  162.3167 H   0  0  0  0  0  0  0  0  0  0  0  0
  132.6726  139.7396  162.1983 H   0  0  0  0  0  0  0  0  0  0  0  0
  133.8580  136.2198  159.6322 H   0  0  0  0  0  0  0  0  0  0  0  0
  133.2522  136.0446  161.3055 H   0  0  0  0  0  0  0  0  0  0  0  0
  129.0385  134.0556  160.7166 H   0  0  0  0  0  0  0  0  0  0  0  0
  126.9752  132.3028  162.4239 H   0  0  0  0  0  0  0  0  0  0  0  0
  126.7529  133.9997  164.2213 H   0  0  0  0  0  0  0  0  0  0  0  0
  126.4004  136.3201  164.7678 H   0  0  0  0  0  0  0  0  0  0  0  0
  126.1834  137.5073  163.5990 H   0  0  0  0  0  0  0  0  0  0  0  0
  125.3501  135.5225  158.8321 H   0  0  0  0  0  0  0  0  0  0  0  0
  126.7500  136.5937  159.0793 H   0  0  0  0  0  0  0  0  0  0  0  0
  126.9962  134.9222  158.5192 H   0  0  0  0  0  0  0  0  0  0  0  0
  128.4479  131.1483  157.6342 H   0  0  0  0  0  0  0  0  0  0  0  0
  1  2  1  0
  1 30  1  0
  1 31  1  0
  1 32  1  0
  2 29  2  0
  2  3  1  0
  3  4  2  0
  3 33  1  0
  4  5  1  0
  4 18  1  0
  5  6  1  0
  5 34  1  0
  5 35  1  0
  6  7  1  6
  6 17  1  0
  6  8  1  0
  8  9  1  0
  8 36  1  0
  8 37  1  0
  9 10  2  0
  9 38  1  0
 10 11  1  0
 10 17  1  0
 11 16  1  0
 11 12  2  0
 12 13  1  0
 12 39  1  0
 13 14  2  0
 13 40  1  0
 14 15  1  0
 14 41  1  0
 15 16  2  0
 15 42  1  0
 16 43  1  0
 17 44  1  0
 17 45  1  0
 18 19  2  0
 18 46  1  0
 19 20  1  0
 19 29  1  0
 20 21  1  0
 21 27  1  0
 21 22  2  0
 22 23  1  0
 22 47  1  0
 23 24  2  0
 23 48  1  0
 24 25  1  0
 24 26  1  0
 25 49  1  0
 25 50  1  0
 26 27  2  0
 27 28  1  0
 28 51  1  0
 28 52  1  0
 28 53  1  0
 29 54  1  0
M  CHG  1   6   1
M  END
>  <DOCK_score>  (1) 
-44.817528

>  <SMILES>  (1) 
Cc1cc(C[N@H+]2CC=C(c3ccccc3)C2)cc(Sc2ccc(N)nc2C)c1

$$$$
