C[C@H](Cc1c[nH]c2ccc(O)cc12)[NH2+][C@H]1C[C@H](O)C1
     RDKit          3D

 40 42  0  0  1  0  0  0  0  0999 V2000
  128.5710  136.0438  160.9037 C   0  0  0  0  0  0  0  0  0  0  0  0
  129.1818  136.0711  159.5011 C   0  0  2  0  0  0  0  0  0  0  0  0
  129.5540  137.0729  159.2865 H   0  0  0  0  0  0  0  0  0  0  0  0
  128.1143  135.6926  158.4725 C   0  0  0  0  0  0  0  0  0  0  0  0
  127.5996  134.3077  158.7691 C   0  0  0  0  0  0  0  0  0  0  0  0
  128.0936  133.1535  158.2937 C   0  0  0  0  0  0  0  0  0  0  0  0
  127.3693  132.1002  158.7810 N   0  0  0  0  0  0  0  0  0  0  0  0
  127.5377  131.1667  158.5784 H   0  0  0  0  0  0  0  0  0  0  0  0
  126.3645  132.5637  159.6040 C   0  0  0  0  0  0  0  0  0  0  0  0
  125.3655  131.9340  160.3391 C   0  0  0  0  0  0  0  0  0  0  0  0
  124.4850  132.6834  161.0867 C   0  0  0  0  0  0  0  0  0  0  0  0
  124.5827  134.0722  161.1163 C   0  0  0  0  0  0  0  0  0  0  0  0
  123.7046  134.7973  161.8595 O   0  0  0  0  0  0  0  0  0  0  0  0
  125.5672  134.7160  160.3937 C   0  0  0  0  0  0  0  0  0  0  0  0
  126.4693  133.9656  159.6360 C   0  0  0  0  0  0  0  0  0  0  0  0
  130.2913  135.1110  159.4313 N   0  0  0  0  0  0  0  0  0  0  0  0
  130.0423  134.2722  159.9337 H   0  0  0  0  0  0  0  0  0  0  0  0
  130.4782  134.8824  158.4665 H   0  0  0  0  0  0  0  0  0  0  0  0
  131.4917  135.7052  160.0349 C   0  0  1  0  0  0  0  0  0  0  0  0
  131.6141  136.7589  159.7844 H   0  0  0  0  0  0  0  0  0  0  0  0
  131.6375  135.4082  161.5367 C   0  0  0  0  0  0  0  0  0  0  0  0
  133.1428  135.2231  161.2721 C   0  0  2  0  0  0  0  0  0  0  0  0
  133.5850  134.3929  161.8229 H   0  0  0  0  0  0  0  0  0  0  0  0
  133.8971  136.4311  161.3885 O   0  0  0  0  0  0  0  0  0  0  0  0
  132.7654  134.8696  159.8238 C   0  0  0  0  0  0  0  0  0  0  0  0
  127.7476  136.7562  160.9553 H   0  0  0  0  0  0  0  0  0  0  0  0
  128.1987  135.0421  161.1183 H   0  0  0  0  0  0  0  0  0  0  0  0
  129.3315  136.3134  161.6365 H   0  0  0  0  0  0  0  0  0  0  0  0
  127.2911  136.4050  158.5242 H   0  0  0  0  0  0  0  0  0  0  0  0
  128.5495  135.7121  157.4732 H   0  0  0  0  0  0  0  0  0  0  0  0
  128.9376  133.0690  157.6252 H   0  0  0  0  0  0  0  0  0  0  0  0
  125.2807  130.8575  160.3237 H   0  0  0  0  0  0  0  0  0  0  0  0
  123.7110  132.1894  161.6553 H   0  0  0  0  0  0  0  0  0  0  0  0
  123.8497  135.7525  161.8188 H   0  0  0  0  0  0  0  0  0  0  0  0
  125.6420  135.7931  160.4174 H   0  0  0  0  0  0  0  0  0  0  0  0
  131.4071  136.2612  162.1749 H   0  0  0  0  0  0  0  0  0  0  0  0
  131.1339  134.4942  161.8520 H   0  0  0  0  0  0  0  0  0  0  0  0
  134.1376  136.6586  162.2972 H   0  0  0  0  0  0  0  0  0  0  0  0
  132.5707  133.8083  159.6698 H   0  0  0  0  0  0  0  0  0  0  0  0
  133.4442  135.2888  159.0810 H   0  0  0  0  0  0  0  0  0  0  0  0
  1  2  1  0
  1 26  1  0
  1 27  1  0
  1 28  1  0
  2  3  1  6
  2  4  1  0
  2 16  1  0
  4  5  1  0
  4 29  1  0
  4 30  1  0
  5 15  1  0
  5  6  2  0
  6  7  1  0
  6 31  1  0
  7  8  1  0
  7  9  1  0
  9 15  2  0
  9 10  1  0
 10 11  2  0
 10 32  1  0
 11 12  1  0
 11 33  1  0
 12 13  1  0
 12 14  2  0
 13 34  1  0
 14 15  1  0
 14 35  1  0
 16 17  1  0
 16 18  1  0
 16 19  1  0
 19 20  1  1
 19 25  1  0
 19 21  1  0
 21 22  1  0
 21 36  1  0
 21 37  1  0
 22 23  1  1
 22 24  1  0
 22 25  1  0
 24 38  1  0
 25 39  1  0
 25 40  1  0
M  CHG  1  16   1
M  END
>  <DOCK_score>  (1) 
-41.103642

>  <SMILES>  (1) 
C[C@H](Cc1c[nH]c2ccc(O)cc12)[NH2+][C@H]1C[C@H](O)C1

$$$$
