ClC=CC[NH2+]Cc1c[nH]nc1-c1ccc(N[C@H]2C=CCC2)o1
     RDKit          3D

 42 44  0  0  1  0  0  0  0  0999 V2000
  134.5109  139.9920  158.5513 Cl  0  0  0  0  0  0  0  0  0  0  0  0
  133.3405  138.9890  159.3499 C   0  0  0  0  0  0  0  0  0  0  0  0
  133.7364  138.0430  160.1677 C   0  0  0  0  0  0  0  0  0  0  0  0
  132.7203  137.1723  160.8609 C   0  0  0  0  0  0  0  0  0  0  0  0
  132.4357  135.9951  160.0296 N   0  0  0  0  0  0  0  0  0  0  0  0
  133.2859  135.4710  159.8863 H   0  0  0  0  0  0  0  0  0  0  0  0
  132.0702  136.2935  159.1376 H   0  0  0  0  0  0  0  0  0  0  0  0
  131.4451  135.1464  160.7053 C   0  0  0  0  0  0  0  0  0  0  0  0
  131.1531  133.9387  159.8525 C   0  0  0  0  0  0  0  0  0  0  0  0
  132.0674  133.1688  159.2244 C   0  0  0  0  0  0  0  0  0  0  0  0
  131.4087  132.1937  158.5615 N   0  0  0  0  0  0  0  0  0  0  0  0
  131.8154  131.4983  158.0211 H   0  0  0  0  0  0  0  0  0  0  0  0
  130.0368  132.3598  158.7894 N   0  0  0  0  0  0  0  0  0  0  0  0
  129.8760  133.4098  159.5707 C   0  0  0  0  0  0  0  0  0  0  0  0
  128.5869  133.9415  160.0590 C   0  0  0  0  0  0  0  0  0  0  0  0
  127.3587  133.4279  159.7851 C   0  0  0  0  0  0  0  0  0  0  0  0
  126.4193  134.2377  160.4537 C   0  0  0  0  0  0  0  0  0  0  0  0
  127.1181  135.2076  161.0946 C   0  0  0  0  0  0  0  0  0  0  0  0
  126.5725  136.2212  161.8739 N   0  0  0  0  0  0  0  0  0  0  0  0
  127.4487  137.2072  162.5113 C   0  0  1  0  0  0  0  0  0  0  0  0
  128.0219  137.7480  161.7581 H   0  0  0  0  0  0  0  0  0  0  0  0
  126.6375  138.1701  163.3467 C   0  0  0  0  0  0  0  0  0  0  0  0
  126.7260  137.8806  164.6164 C   0  0  0  0  0  0  0  0  0  0  0  0
  127.6112  136.6765  164.8394 C   0  0  0  0  0  0  0  0  0  0  0  0
  128.3981  136.5170  163.5180 C   0  0  0  0  0  0  0  0  0  0  0  0
  128.4270  135.0204  160.8541 O   0  0  0  0  0  0  0  0  0  0  0  0
  132.2863  139.1438  159.1733 H   0  0  0  0  0  0  0  0  0  0  0  0
  134.7905  137.8881  160.3443 H   0  0  0  0  0  0  0  0  0  0  0  0
  131.8018  137.7385  161.0156 H   0  0  0  0  0  0  0  0  0  0  0  0
  133.1149  136.8499  161.8244 H   0  0  0  0  0  0  0  0  0  0  0  0
  130.5266  135.7126  160.8601 H   0  0  0  0  0  0  0  0  0  0  0  0
  131.8399  134.8240  161.6688 H   0  0  0  0  0  0  0  0  0  0  0  0
  133.1378  133.3104  159.2452 H   0  0  0  0  0  0  0  0  0  0  0  0
  127.1442  132.5632  159.1747 H   0  0  0  0  0  0  0  0  0  0  0  0
  125.3468  134.1112  160.4544 H   0  0  0  0  0  0  0  0  0  0  0  0
  125.6118  136.2754  161.9959 H   0  0  0  0  0  0  0  0  0  0  0  0
  126.0603  138.9902  162.9459 H   0  0  0  0  0  0  0  0  0  0  0  0
  126.2319  138.4299  165.4041 H   0  0  0  0  0  0  0  0  0  0  0  0
  128.2947  136.8562  165.6692 H   0  0  0  0  0  0  0  0  0  0  0  0
  127.0058  135.7908  165.0322 H   0  0  0  0  0  0  0  0  0  0  0  0
  128.5349  135.4648  163.2684 H   0  0  0  0  0  0  0  0  0  0  0  0
  129.3569  137.0331  163.5688 H   0  0  0  0  0  0  0  0  0  0  0  0
  1  2  1  0
  2  3  2  0
  2 27  1  0
  3  4  1  0
  3 28  1  0
  4  5  1  0
  4 29  1  0
  4 30  1  0
  5  6  1  0
  5  7  1  0
  5  8  1  0
  8  9  1  0
  8 31  1  0
  8 32  1  0
  9 14  1  0
  9 10  2  0
 10 11  1  0
 10 33  1  0
 11 12  1  0
 11 13  1  0
 13 14  2  0
 14 15  1  0
 15 26  1  0
 15 16  2  0
 16 17  1  0
 16 34  1  0
 17 18  2  0
 17 35  1  0
 18 19  1  0
 18 26  1  0
 19 20  1  0
 19 36  1  0
 20 21  1  6
 20 25  1  0
 20 22  1  0
 22 23  2  0
 22 37  1  0
 23 24  1  0
 23 38  1  0
 24 25  1  0
 24 39  1  0
 24 40  1  0
 25 41  1  0
 25 42  1  0
M  CHG  1   5   1
M  END
>  <DOCK_score>  (1) 
-41.835991

>  <SMILES>  (1) 
ClC=CC[NH2+]Cc1c[nH]nc1-c1ccc(N[C@H]2C=CCC2)o1

$$$$
