Oc1ccc2c(c1)CC[C@@H](NC(NC1Cc3ccccc3C1)=[NH+][C@@H]1C[C@@H](O)[C@@H]1Cl)C2
     RDKit          3D

 59 63  0  0  1  0  0  0  0  0999 V2000
  135.7596  139.1534  162.0384 O   0  0  0  0  0  0  0  0  0  0  0  0
  134.5142  138.7878  161.6358 C   0  0  0  0  0  0  0  0  0  0  0  0
  134.0961  139.0475  160.3385 C   0  0  0  0  0  0  0  0  0  0  0  0
  132.8303  138.6742  159.9409 C   0  0  0  0  0  0  0  0  0  0  0  0
  131.9684  138.0397  160.8271 C   0  0  0  0  0  0  0  0  0  0  0  0
  132.3827  137.7765  162.1137 C   0  0  0  0  0  0  0  0  0  0  0  0
  133.6562  138.1537  162.5178 C   0  0  0  0  0  0  0  0  0  0  0  0
  131.5062  137.0791  163.1211 C   0  0  0  0  0  0  0  0  0  0  0  0
  130.0441  137.1216  162.6826 C   0  0  0  0  0  0  0  0  0  0  0  0
  129.9583  136.6208  161.2360 C   0  0  1  0  0  0  0  0  0  0  0  0
  130.4931  135.6755  161.1424 H   0  0  0  0  0  0  0  0  0  0  0  0
  128.5545  136.4326  160.8614 N   0  0  0  0  0  0  0  0  0  0  0  0
  128.2119  135.4714  159.9401 C   0  0  0  0  0  0  0  0  0  0  0  0
  129.0968  135.1253  158.9464 N   0  0  0  0  0  0  0  0  0  0  0  0
  129.0903  133.7657  158.4007 C   0  0  0  0  0  0  0  0  0  0  0  0
  129.5452  132.7402  159.4585 C   0  0  0  0  0  0  0  0  0  0  0  0
  130.3268  131.6960  158.6904 C   0  0  0  0  0  0  0  0  0  0  0  0
  130.6955  130.4093  159.0461 C   0  0  0  0  0  0  0  0  0  0  0  0
  131.4144  129.6240  158.1665 C   0  0  0  0  0  0  0  0  0  0  0  0
  131.7671  130.1228  156.9262 C   0  0  0  0  0  0  0  0  0  0  0  0
  131.3999  131.4055  156.5695 C   0  0  0  0  0  0  0  0  0  0  0  0
  130.6793  132.1946  157.4504 C   0  0  0  0  0  0  0  0  0  0  0  0
  130.1638  133.6101  157.3026 C   0  0  0  0  0  0  0  0  0  0  0  0
  127.0481  134.8884  160.0085 N   0  0  0  0  0  0  0  0  0  0  0  0
  126.8064  134.2103  159.3584 H   0  0  0  0  0  0  0  0  0  0  0  0
  126.1051  135.2572  161.0673 C   0  0  2  0  0  0  0  0  0  0  0  0
  125.8257  136.3104  161.0372 H   0  0  0  0  0  0  0  0  0  0  0  0
  126.5249  134.7688  162.4637 C   0  0  0  0  0  0  0  0  0  0  0  0
  125.0430  134.4376  162.7070 C   0  0  1  0  0  0  0  0  0  0  0  0
  124.8858  133.5017  163.2432 H   0  0  0  0  0  0  0  0  0  0  0  0
  124.2964  135.5246  163.2574 O   0  0  0  0  0  0  0  0  0  0  0  0
  124.9036  134.3043  161.1814 C   0  0  2  0  0  0  0  0  0  0  0  0
  123.9762  134.7222  160.7896 H   0  0  0  0  0  0  0  0  0  0  0  0
  125.2382  132.6430  160.5656 Cl  0  0  0  0  0  0  0  0  0  0  0  0
  130.5981  137.6662  160.3247 C   0  0  0  0  0  0  0  0  0  0  0  0
  135.9575  138.9294  162.9580 H   0  0  0  0  0  0  0  0  0  0  0  0
  134.7599  139.5398  159.6431 H   0  0  0  0  0  0  0  0  0  0  0  0
  132.5052  138.8773  158.9313 H   0  0  0  0  0  0  0  0  0  0  0  0
  133.9797  137.9513  163.5282 H   0  0  0  0  0  0  0  0  0  0  0  0
  131.8228  136.0402  163.2146 H   0  0  0  0  0  0  0  0  0  0  0  0
  131.6058  137.5733  164.0874 H   0  0  0  0  0  0  0  0  0  0  0  0
  129.6740  138.1452  162.7393 H   0  0  0  0  0  0  0  0  0  0  0  0
  129.4475  136.4785  163.3297 H   0  0  0  0  0  0  0  0  0  0  0  0
  127.8668  136.9860  161.2635 H   0  0  0  0  0  0  0  0  0  0  0  0
  129.7255  135.7813  158.6066 H   0  0  0  0  0  0  0  0  0  0  0  0
  128.1030  133.5089  158.0166 H   0  0  0  0  0  0  0  0  0  0  0  0
  128.6830  132.2849  159.9456 H   0  0  0  0  0  0  0  0  0  0  0  0
  130.1850  133.2249  160.1960 H   0  0  0  0  0  0  0  0  0  0  0  0
  130.4209  130.0191  160.0150 H   0  0  0  0  0  0  0  0  0  0  0  0
  131.7007  128.6212  158.4471 H   0  0  0  0  0  0  0  0  0  0  0  0
  132.3292  129.5100  156.2372 H   0  0  0  0  0  0  0  0  0  0  0  0
  131.6761  131.7945  155.6006 H   0  0  0  0  0  0  0  0  0  0  0  0
  130.9714  134.3251  157.4592 H   0  0  0  0  0  0  0  0  0  0  0  0
  129.7196  133.7499  156.3170 H   0  0  0  0  0  0  0  0  0  0  0  0
  127.1709  133.8912  162.4434 H   0  0  0  0  0  0  0  0  0  0  0  0
  126.9064  135.5617  163.1070 H   0  0  0  0  0  0  0  0  0  0  0  0
  124.5484  136.3910  162.9096 H   0  0  0  0  0  0  0  0  0  0  0  0
  130.6832  137.2604  159.3166 H   0  0  0  0  0  0  0  0  0  0  0  0
  129.9693  138.5562  160.3019 H   0  0  0  0  0  0  0  0  0  0  0  0
  1  2  1  0
  1 36  1  0
  2  7  2  0
  2  3  1  0
  3  4  2  0
  3 37  1  0
  4  5  1  0
  4 38  1  0
  5 35  1  0
  5  6  2  0
  6  7  1  0
  6  8  1  0
  7 39  1  0
  8  9  1  0
  8 40  1  0
  8 41  1  0
  9 10  1  0
  9 42  1  0
  9 43  1  0
 10 11  1  1
 10 12  1  0
 10 35  1  0
 12 44  1  0
 13 12  1  0
 13 14  1  0
 13 24  2  0
 14 15  1  0
 14 45  1  0
 15 23  1  0
 15 16  1  0
 15 46  1  0
 16 17  1  0
 16 47  1  0
 16 48  1  0
 17 22  2  0
 17 18  1  0
 18 19  2  0
 18 49  1  0
 19 20  1  0
 19 50  1  0
 20 21  2  0
 20 51  1  0
 21 22  1  0
 21 52  1  0
 22 23  1  0
 23 53  1  0
 23 54  1  0
 24 25  1  0
 24 26  1  0
 26 27  1  1
 26 32  1  0
 26 28  1  0
 28 29  1  0
 28 55  1  0
 28 56  1  0
 29 30  1  1
 29 31  1  0
 29 32  1  0
 31 57  1  0
 32 33  1  6
 32 34  1  0
 35 58  1  0
 35 59  1  0
M  CHG  1  24   1
M  END
>  <DOCK_score>  (1) 
-46.269184

>  <SMILES>  (1) 
Oc1ccc2c(c1)CC[C@@H](NC(NC1Cc3ccccc3C1)=[NH+][C@@H]1C[C@@H](O)[C@@H]1Cl)C2

$$$$
