O[C@@H]1C=C[C@@H]([NH+]=C(NC2CC=CC2)N[C@@H]2CCc3ccccc3C2)[C@@H]1Cl
     RDKit          3D

 53 56  0  0  1  0  0  0  0  0999 V2000
  124.6893  135.1855  161.9884 O   0  0  0  0  0  0  0  0  0  0  0  0
  125.8793  135.3588  161.2164 C   0  0  2  0  0  0  0  0  0  0  0  0
  126.3048  136.3472  161.3897 H   0  0  0  0  0  0  0  0  0  0  0  0
  125.5869  135.1618  159.7472 C   0  0  0  0  0  0  0  0  0  0  0  0
  126.5014  134.4223  159.1810 C   0  0  0  0  0  0  0  0  0  0  0  0
  127.5530  133.9980  160.1795 C   0  0  1  0  0  0  0  0  0  0  0  0
  127.7862  132.9401  160.0590 H   0  0  0  0  0  0  0  0  0  0  0  0
  128.7636  134.8076  160.0210 N   0  0  0  0  0  0  0  0  0  0  0  0
  128.8644  135.6326  160.5212 H   0  0  0  0  0  0  0  0  0  0  0  0
  129.7053  134.4195  159.2076 C   0  0  0  0  0  0  0  0  0  0  0  0
  129.3890  133.6802  158.0925 N   0  0  0  0  0  0  0  0  0  0  0  0
  130.4473  133.2440  157.1783 C   0  0  0  0  0  0  0  0  0  0  0  0
  129.8761  132.9339  155.7753 C   0  0  0  0  0  0  0  0  0  0  0  0
  130.6610  131.7345  155.2974 C   0  0  0  0  0  0  0  0  0  0  0  0
  131.2766  131.1503  156.2892 C   0  0  0  0  0  0  0  0  0  0  0  0
  131.0050  131.8627  157.5937 C   0  0  0  0  0  0  0  0  0  0  0  0
  131.0150  134.7494  159.4649 N   0  0  0  0  0  0  0  0  0  0  0  0
  131.4693  134.9207  160.8471 C   0  0  2  0  0  0  0  0  0  0  0  0
  130.8858  134.2793  161.5074 H   0  0  0  0  0  0  0  0  0  0  0  0
  131.3004  136.3853  161.2683 C   0  0  0  0  0  0  0  0  0  0  0  0
  131.5514  136.4866  162.7715 C   0  0  0  0  0  0  0  0  0  0  0  0
  132.8551  135.8263  163.1367 C   0  0  0  0  0  0  0  0  0  0  0  0
  133.4180  136.1423  164.3668 C   0  0  0  0  0  0  0  0  0  0  0  0
  134.6079  135.5673  164.7616 C   0  0  0  0  0  0  0  0  0  0  0  0
  135.2462  134.6683  163.9274 C   0  0  0  0  0  0  0  0  0  0  0  0
  134.6900  134.3547  162.7047 C   0  0  0  0  0  0  0  0  0  0  0  0
  133.4932  134.9349  162.3040 C   0  0  0  0  0  0  0  0  0  0  0  0
  132.9489  134.5563  160.9513 C   0  0  0  0  0  0  0  0  0  0  0  0
  126.9096  134.2561  161.5617 C   0  0  2  0  0  0  0  0  0  0  0  0
  127.6478  134.6234  162.2746 H   0  0  0  0  0  0  0  0  0  0  0  0
  126.0962  132.7724  162.1843 Cl  0  0  0  0  0  0  0  0  0  0  0  0
  123.9881  135.8169  161.7773 H   0  0  0  0  0  0  0  0  0  0  0  0
  124.7355  135.5815  159.2320 H   0  0  0  0  0  0  0  0  0  0  0  0
  126.5057  134.1493  158.1361 H   0  0  0  0  0  0  0  0  0  0  0  0
  128.4649  133.4475  157.9110 H   0  0  0  0  0  0  0  0  0  0  0  0
  131.2434  133.9865  157.1221 H   0  0  0  0  0  0  0  0  0  0  0  0
  128.8154  132.6916  155.8423 H   0  0  0  0  0  0  0  0  0  0  0  0
  130.0315  133.7804  155.1065 H   0  0  0  0  0  0  0  0  0  0  0  0
  130.7067  131.4039  154.2704 H   0  0  0  0  0  0  0  0  0  0  0  0
  131.8982  130.2725  156.1902 H   0  0  0  0  0  0  0  0  0  0  0  0
  131.9282  131.9809  158.1610 H   0  0  0  0  0  0  0  0  0  0  0  0
  130.2669  131.3160  158.1804 H   0  0  0  0  0  0  0  0  0  0  0  0
  131.6383  134.8685  158.7312 H   0  0  0  0  0  0  0  0  0  0  0  0
  132.0192  137.0063  160.7336 H   0  0  0  0  0  0  0  0  0  0  0  0
  130.2874  136.7179  161.0421 H   0  0  0  0  0  0  0  0  0  0  0  0
  131.5875  137.5372  163.0598 H   0  0  0  0  0  0  0  0  0  0  0  0
  130.7379  135.9956  163.3055 H   0  0  0  0  0  0  0  0  0  0  0  0
  132.9202  136.8446  165.0190 H   0  0  0  0  0  0  0  0  0  0  0  0
  135.0395  135.8182  165.7194 H   0  0  0  0  0  0  0  0  0  0  0  0
  136.1769  134.2128  164.2321 H   0  0  0  0  0  0  0  0  0  0  0  0
  135.1892  133.6526  162.0534 H   0  0  0  0  0  0  0  0  0  0  0  0
  133.0659  133.4827  160.8035 H   0  0  0  0  0  0  0  0  0  0  0  0
  133.5052  135.0876  160.1791 H   0  0  0  0  0  0  0  0  0  0  0  0
  1  2  1  0
  1 32  1  0
  2  3  1  6
  2 29  1  0
  2  4  1  0
  4  5  2  0
  4 33  1  0
  5  6  1  0
  5 34  1  0
  6  7  1  6
  6  8  1  0
  6 29  1  0
  8  9  1  0
 10  8  2  0
 10 11  1  0
 10 17  1  0
 11 12  1  0
 11 35  1  0
 12 16  1  0
 12 13  1  0
 12 36  1  0
 13 14  1  0
 13 37  1  0
 13 38  1  0
 14 15  2  0
 14 39  1  0
 15 16  1  0
 15 40  1  0
 16 41  1  0
 16 42  1  0
 17 18  1  0
 17 43  1  0
 18 19  1  1
 18 28  1  0
 18 20  1  0
 20 21  1  0
 20 44  1  0
 20 45  1  0
 21 22  1  0
 21 46  1  0
 21 47  1  0
 22 27  2  0
 22 23  1  0
 23 24  2  0
 23 48  1  0
 24 25  1  0
 24 49  1  0
 25 26  2  0
 25 50  1  0
 26 27  1  0
 26 51  1  0
 27 28  1  0
 28 52  1  0
 28 53  1  0
 29 30  1  1
 29 31  1  0
M  CHG  1   8   1
M  END
>  <DOCK_score>  (1) 
-45.611141

>  <SMILES>  (1) 
O[C@@H]1C=C[C@@H]([NH+]=C(NC2CC=CC2)N[C@@H]2CCc3ccccc3C2)[C@@H]1Cl

$$$$
