Nc1ccc(-c2c[nH]c(N[C@@H](CCSc3ccc(Cl)cn3)c3ccccc3)[nH+]2)cc1
     RDKit          3D

 53 56  0  0  1  0  0  0  0  0999 V2000
  131.2727  129.8333  152.3795 N   0  0  0  0  0  0  0  0  0  0  0  0
  131.0470  130.5392  153.5636 C   0  0  0  0  0  0  0  0  0  0  0  0
  130.3570  131.7452  153.5318 C   0  0  0  0  0  0  0  0  0  0  0  0
  130.1331  132.4436  154.6994 C   0  0  0  0  0  0  0  0  0  0  0  0
  130.5993  131.9392  155.9125 C   0  0  0  0  0  0  0  0  0  0  0  0
  130.3596  132.6888  157.1701 C   0  0  0  0  0  0  0  0  0  0  0  0
  129.6708  132.2392  158.2481 C   0  0  0  0  0  0  0  0  0  0  0  0
  129.6924  133.2466  159.1834 N   0  0  0  0  0  0  0  0  0  0  0  0
  129.2832  133.2232  160.0626 H   0  0  0  0  0  0  0  0  0  0  0  0
  130.3943  134.2820  158.6482 C   0  0  0  0  0  0  0  0  0  0  0  0
  130.6476  135.4921  159.2715 N   0  0  0  0  0  0  0  0  0  0  0  0
  130.1427  135.7390  160.6243 C   0  0  1  0  0  0  0  0  0  0  0  0
  130.5582  134.9986  161.3079 H   0  0  0  0  0  0  0  0  0  0  0  0
  130.5587  137.1403  161.0760 C   0  0  0  0  0  0  0  0  0  0  0  0
  129.9755  138.1796  160.1165 C   0  0  0  0  0  0  0  0  0  0  0  0
  130.4687  139.8410  160.6520 S   0  0  0  0  0  0  0  0  0  0  0  0
  132.2282  139.7722  160.5879 C   0  0  0  0  0  0  0  0  0  0  0  0
  132.9811  140.5500  161.4630 C   0  0  0  0  0  0  0  0  0  0  0  0
  134.3610  140.4861  161.4022 C   0  0  0  0  0  0  0  0  0  0  0  0
  134.9453  139.6428  160.4644 C   0  0  0  0  0  0  0  0  0  0  0  0
  136.6734  139.5260  160.3466 Cl  0  0  0  0  0  0  0  0  0  0  0  0
  134.1369  138.8992  159.6270 C   0  0  0  0  0  0  0  0  0  0  0  0
  132.8222  138.9768  159.7112 N   0  0  0  0  0  0  0  0  0  0  0  0
  128.6392  135.6363  160.6260 C   0  0  0  0  0  0  0  0  0  0  0  0
  127.9767  135.2122  161.7626 C   0  0  0  0  0  0  0  0  0  0  0  0
  126.5975  135.1178  161.7640 C   0  0  0  0  0  0  0  0  0  0  0  0
  125.8810  135.4460  160.6283 C   0  0  0  0  0  0  0  0  0  0  0  0
  126.5437  135.8687  159.4912 C   0  0  0  0  0  0  0  0  0  0  0  0
  127.9228  135.9637  159.4900 C   0  0  0  0  0  0  0  0  0  0  0  0
  130.7866  133.9472  157.4431 N   0  0  0  0  0  0  0  0  0  0  0  0
  131.3018  134.5087  156.8430 H   0  0  0  0  0  0  0  0  0  0  0  0
  131.2960  130.7321  155.9413 C   0  0  0  0  0  0  0  0  0  0  0  0
  131.5123  130.0339  154.7720 C   0  0  0  0  0  0  0  0  0  0  0  0
  130.9479  130.1848  151.5359 H   0  0  0  0  0  0  0  0  0  0  0  0
  131.7540  128.9914  152.4010 H   0  0  0  0  0  0  0  0  0  0  0  0
  129.9963  132.1357  152.5918 H   0  0  0  0  0  0  0  0  0  0  0  0
  129.5966  133.3807  154.6742 H   0  0  0  0  0  0  0  0  0  0  0  0
  129.1959  131.2748  158.3518 H   0  0  0  0  0  0  0  0  0  0  0  0
  131.1593  136.1763  158.8122 H   0  0  0  0  0  0  0  0  0  0  0  0
  130.1831  137.3241  162.0827 H   0  0  0  0  0  0  0  0  0  0  0  0
  131.6462  137.2146  161.0749 H   0  0  0  0  0  0  0  0  0  0  0  0
  130.3512  137.9959  159.1099 H   0  0  0  0  0  0  0  0  0  0  0  0
  128.8881  138.1053  160.1177 H   0  0  0  0  0  0  0  0  0  0  0  0
  132.4940  141.1949  162.1793 H   0  0  0  0  0  0  0  0  0  0  0  0
  134.9710  141.0778  162.0687 H   0  0  0  0  0  0  0  0  0  0  0  0
  134.5865  138.2429  158.8966 H   0  0  0  0  0  0  0  0  0  0  0  0
  128.5363  134.9561  162.6500 H   0  0  0  0  0  0  0  0  0  0  0  0
  126.0794  134.7917  162.6539 H   0  0  0  0  0  0  0  0  0  0  0  0
  124.8037  135.3717  160.6293 H   0  0  0  0  0  0  0  0  0  0  0  0
  125.9841  136.1244  158.6036 H   0  0  0  0  0  0  0  0  0  0  0  0
  128.4407  136.2934  158.6014 H   0  0  0  0  0  0  0  0  0  0  0  0
  131.6620  130.3417  156.8795 H   0  0  0  0  0  0  0  0  0  0  0  0
  132.0481  129.0966  154.7945 H   0  0  0  0  0  0  0  0  0  0  0  0
  1  2  1  0
  1 34  1  0
  1 35  1  0
  2 33  2  0
  2  3  1  0
  3  4  2  0
  3 36  1  0
  4  5  1  0
  4 37  1  0
  5  6  1  0
  5 32  2  0
  6 30  1  0
  6  7  2  0
  7  8  1  0
  7 38  1  0
  8  9  1  0
  8 10  1  0
 10 11  1  0
 10 30  2  0
 11 12  1  0
 11 39  1  0
 12 13  1  1
 12 14  1  0
 12 24  1  0
 14 15  1  0
 14 40  1  0
 14 41  1  0
 15 16  1  0
 15 42  1  0
 15 43  1  0
 16 17  1  0
 17 23  1  0
 17 18  2  0
 18 19  1  0
 18 44  1  0
 19 20  2  0
 19 45  1  0
 20 21  1  0
 20 22  1  0
 22 23  2  0
 22 46  1  0
 24 29  1  0
 24 25  2  0
 25 26  1  0
 25 47  1  0
 26 27  2  0
 26 48  1  0
 27 28  1  0
 27 49  1  0
 28 29  2  0
 28 50  1  0
 29 51  1  0
 30 31  1  0
 32 33  1  0
 32 52  1  0
 33 53  1  0
M  CHG  1  30   1
M  END
>  <DOCK_score>  (1) 
-66.122429

>  <SMILES>  (1) 
Nc1ccc(-c2c[nH]c(N[C@@H](CCSc3ccc(Cl)cn3)c3ccccc3)[nH+]2)cc1

$$$$
