COc1ccccc1Nc1cccc(C2=CC[N@@H+](CC3=Cc4ccccc4OC3)CC2)c1
     RDKit          3D

 61 65  0  0  1  0  0  0  0  0999 V2000
  135.3622  142.0706  166.1966 C   0  0  0  0  0  0  0  0  0  0  0  0
  134.6978  140.9565  165.5969 O   0  0  0  0  0  0  0  0  0  0  0  0
  135.4490  139.8505  165.3481 C   0  0  0  0  0  0  0  0  0  0  0  0
  135.5647  138.8593  166.3085 C   0  0  0  0  0  0  0  0  0  0  0  0
  136.3285  137.7351  166.0540 C   0  0  0  0  0  0  0  0  0  0  0  0
  136.9785  137.5961  164.8415 C   0  0  0  0  0  0  0  0  0  0  0  0
  136.8639  138.5780  163.8757 C   0  0  0  0  0  0  0  0  0  0  0  0
  136.1036  139.7114  164.1259 C   0  0  0  0  0  0  0  0  0  0  0  0
  135.9899  140.7096  163.1512 N   0  0  0  0  0  0  0  0  0  0  0  0
  135.4485  140.4055  161.8998 C   0  0  0  0  0  0  0  0  0  0  0  0
  135.8680  141.1031  160.7725 C   0  0  0  0  0  0  0  0  0  0  0  0
  135.3311  140.8096  159.5336 C   0  0  0  0  0  0  0  0  0  0  0  0
  134.3829  139.8145  159.4051 C   0  0  0  0  0  0  0  0  0  0  0  0
  133.9593  139.1046  160.5296 C   0  0  0  0  0  0  0  0  0  0  0  0
  132.9446  138.0383  160.3943 C   0  0  0  0  0  0  0  0  0  0  0  0
  133.2624  136.8118  160.7483 C   0  0  0  0  0  0  0  0  0  0  0  0
  132.3016  135.6613  160.6600 C   0  0  0  0  0  0  0  0  0  0  0  0
  131.1957  135.9886  159.7525 N   0  0  1  0  0  0  0  0  0  0  0  0
  131.5453  136.0687  158.8094 H   0  0  0  0  0  0  0  0  0  0  0  0
  130.1790  134.9297  159.8115 C   0  0  0  0  0  0  0  0  0  0  0  0
  130.6167  133.7651  158.9611 C   0  0  0  0  0  0  0  0  0  0  0  0
  130.2739  133.7160  157.6773 C   0  0  0  0  0  0  0  0  0  0  0  0
  130.6949  132.5418  156.8848 C   0  0  0  0  0  0  0  0  0  0  0  0
  130.6500  132.5498  155.4947 C   0  0  0  0  0  0  0  0  0  0  0  0
  131.0679  131.4356  154.7931 C   0  0  0  0  0  0  0  0  0  0  0  0
  131.5281  130.3177  155.4672 C   0  0  0  0  0  0  0  0  0  0  0  0
  131.5702  130.2987  156.8497 C   0  0  0  0  0  0  0  0  0  0  0  0
  131.1502  131.4048  157.5656 C   0  0  0  0  0  0  0  0  0  0  0  0
  131.1663  131.4138  158.9231 O   0  0  0  0  0  0  0  0  0  0  0  0
  131.4356  132.6576  159.5693 C   0  0  0  0  0  0  0  0  0  0  0  0
  130.5988  137.2681  160.1669 C   0  0  0  0  0  0  0  0  0  0  0  0
  131.5877  138.3932  159.8513 C   0  0  0  0  0  0  0  0  0  0  0  0
  134.4965  139.4042  161.7808 C   0  0  0  0  0  0  0  0  0  0  0  0
  135.7728  141.7723  167.1613 H   0  0  0  0  0  0  0  0  0  0  0  0
  136.1697  142.4054  165.5459 H   0  0  0  0  0  0  0  0  0  0  0  0
  134.6505  142.8837  166.3404 H   0  0  0  0  0  0  0  0  0  0  0  0
  135.0587  138.9647  167.2569 H   0  0  0  0  0  0  0  0  0  0  0  0
  136.4178  136.9635  166.8044 H   0  0  0  0  0  0  0  0  0  0  0  0
  137.5739  136.7162  164.6471 H   0  0  0  0  0  0  0  0  0  0  0  0
  137.3690  138.4649  162.9277 H   0  0  0  0  0  0  0  0  0  0  0  0
  136.2870  141.6124  163.3447 H   0  0  0  0  0  0  0  0  0  0  0  0
  136.6126  141.8796  160.8661 H   0  0  0  0  0  0  0  0  0  0  0  0
  135.6574  141.3577  158.6621 H   0  0  0  0  0  0  0  0  0  0  0  0
  133.9687  139.5854  158.4344 H   0  0  0  0  0  0  0  0  0  0  0  0
  134.2581  136.6247  161.1226 H   0  0  0  0  0  0  0  0  0  0  0  0
  131.9026  135.4436  161.6507 H   0  0  0  0  0  0  0  0  0  0  0  0
  132.8277  134.7832  160.2854 H   0  0  0  0  0  0  0  0  0  0  0  0
  130.0570  134.6006  160.8434 H   0  0  0  0  0  0  0  0  0  0  0  0
  129.2304  135.3158  159.4385 H   0  0  0  0  0  0  0  0  0  0  0  0
  129.7058  134.5152  157.2245 H   0  0  0  0  0  0  0  0  0  0  0  0
  130.2912  133.4214  154.9675 H   0  0  0  0  0  0  0  0  0  0  0  0
  131.0350  131.4367  153.7136 H   0  0  0  0  0  0  0  0  0  0  0  0
  131.8573  129.4536  154.9093 H   0  0  0  0  0  0  0  0  0  0  0  0
  131.9303  129.4227  157.3685 H   0  0  0  0  0  0  0  0  0  0  0  0
  132.4943  132.8946  159.4634 H   0  0  0  0  0  0  0  0  0  0  0  0
  131.1917  132.5709  160.6281 H   0  0  0  0  0  0  0  0  0  0  0  0
  130.3970  137.2479  161.2378 H   0  0  0  0  0  0  0  0  0  0  0  0
  129.6704  137.4328  159.6200 H   0  0  0  0  0  0  0  0  0  0  0  0
  131.2431  139.3191  160.3118 H   0  0  0  0  0  0  0  0  0  0  0  0
  131.6524  138.5269  158.7715 H   0  0  0  0  0  0  0  0  0  0  0  0
  134.1727  138.8580  162.6544 H   0  0  0  0  0  0  0  0  0  0  0  0
  1  2  1  0
  1 34  1  0
  1 35  1  0
  1 36  1  0
  2  3  1  0
  3  8  2  0
  3  4  1  0
  4  5  2  0
  4 37  1  0
  5  6  1  0
  5 38  1  0
  6  7  2  0
  6 39  1  0
  7  8  1  0
  7 40  1  0
  8  9  1  0
  9 10  1  0
  9 41  1  0
 10 33  1  0
 10 11  2  0
 11 12  1  0
 11 42  1  0
 12 13  2  0
 12 43  1  0
 13 14  1  0
 13 44  1  0
 14 15  1  0
 14 33  2  0
 15 32  1  0
 15 16  2  0
 16 17  1  0
 16 45  1  0
 17 18  1  0
 17 46  1  0
 17 47  1  0
 18 19  1  6
 18 20  1  0
 18 31  1  0
 20 21  1  0
 20 48  1  0
 20 49  1  0
 21 30  1  0
 21 22  2  0
 22 23  1  0
 22 50  1  0
 23 28  2  0
 23 24  1  0
 24 25  2  0
 24 51  1  0
 25 26  1  0
 25 52  1  0
 26 27  2  0
 26 53  1  0
 27 28  1  0
 27 54  1  0
 28 29  1  0
 29 30  1  0
 30 55  1  0
 30 56  1  0
 31 32  1  0
 31 57  1  0
 31 58  1  0
 32 59  1  0
 32 60  1  0
 33 61  1  0
M  CHG  1  18   1
M  END
>  <DOCK_score>  (1) 
-56.943153

>  <SMILES>  (1) 
COc1ccccc1Nc1cccc(C2=CC[N@@H+](CC3=Cc4ccccc4OC3)CC2)c1

$$$$
