CCCNc1ccc(Nc2[nH]cc(-c3ccc(CC)cc3)[nH+]2)cc1
     RDKit          3D

 49 51  0  0  1  0  0  0  0  0999 V2000
  127.5999  139.8573  164.5206 C   0  0  0  0  0  0  0  0  0  0  0  0
  127.1005  139.2010  163.2319 C   0  0  0  0  0  0  0  0  0  0  0  0
  126.9844  137.6898  163.4411 C   0  0  0  0  0  0  0  0  0  0  0  0
  126.5062  137.0613  162.2070 N   0  0  0  0  0  0  0  0  0  0  0  0
  127.4226  136.6216  161.2451 C   0  0  0  0  0  0  0  0  0  0  0  0
  127.0385  135.6798  160.2995 C   0  0  0  0  0  0  0  0  0  0  0  0
  127.9428  135.2456  159.3507 C   0  0  0  0  0  0  0  0  0  0  0  0
  129.2364  135.7508  159.3419 C   0  0  0  0  0  0  0  0  0  0  0  0
  130.1536  135.3103  158.3795 N   0  0  0  0  0  0  0  0  0  0  0  0
  130.0572  134.0273  157.8670 C   0  0  0  0  0  0  0  0  0  0  0  0
  129.5766  132.9415  158.5329 N   0  0  0  0  0  0  0  0  0  0  0  0
  129.2424  132.9274  159.4433 H   0  0  0  0  0  0  0  0  0  0  0  0
  129.6518  131.8699  157.6773 C   0  0  0  0  0  0  0  0  0  0  0  0
  130.1757  132.3307  156.5142 C   0  0  0  0  0  0  0  0  0  0  0  0
  130.4418  131.5254  155.2972 C   0  0  0  0  0  0  0  0  0  0  0  0
  129.8159  131.8480  154.0944 C   0  0  0  0  0  0  0  0  0  0  0  0
  130.0676  131.0956  152.9651 C   0  0  0  0  0  0  0  0  0  0  0  0
  130.9394  130.0228  153.0258 C   0  0  0  0  0  0  0  0  0  0  0  0
  131.2098  129.2046  151.7894 C   0  0  0  0  0  0  0  0  0  0  0  0
  130.1992  128.0593  151.7045 C   0  0  0  0  0  0  0  0  0  0  0  0
  131.5591  129.6951  154.2178 C   0  0  0  0  0  0  0  0  0  0  0  0
  131.3190  130.4437  155.3521 C   0  0  0  0  0  0  0  0  0  0  0  0
  130.4189  133.6568  156.6627 N   0  0  0  0  0  0  0  0  0  0  0  0
  130.7976  134.2385  155.9852 H   0  0  0  0  0  0  0  0  0  0  0  0
  129.6222  136.6883  160.2910 C   0  0  0  0  0  0  0  0  0  0  0  0
  128.7162  137.1268  161.2363 C   0  0  0  0  0  0  0  0  0  0  0  0
  128.5770  139.4503  164.7806 H   0  0  0  0  0  0  0  0  0  0  0  0
  127.6826  140.9339  164.3717 H   0  0  0  0  0  0  0  0  0  0  0  0
  126.8958  139.6551  165.3278 H   0  0  0  0  0  0  0  0  0  0  0  0
  127.8046  139.4030  162.4249 H   0  0  0  0  0  0  0  0  0  0  0  0
  126.1233  139.6079  162.9720 H   0  0  0  0  0  0  0  0  0  0  0  0
  126.2803  137.4877  164.2482 H   0  0  0  0  0  0  0  0  0  0  0  0
  127.9616  137.2828  163.7010 H   0  0  0  0  0  0  0  0  0  0  0  0
  125.5544  136.9500  162.0569 H   0  0  0  0  0  0  0  0  0  0  0  0
  126.0324  135.2872  160.3062 H   0  0  0  0  0  0  0  0  0  0  0  0
  127.6442  134.5128  158.6156 H   0  0  0  0  0  0  0  0  0  0  0  0
  130.8563  135.9040  158.0716 H   0  0  0  0  0  0  0  0  0  0  0  0
  129.3517  130.8545  157.8900 H   0  0  0  0  0  0  0  0  0  0  0  0
  129.1350  132.6849  154.0462 H   0  0  0  0  0  0  0  0  0  0  0  0
  129.5834  131.3449  152.0323 H   0  0  0  0  0  0  0  0  0  0  0  0
  132.2189  128.7966  151.8371 H   0  0  0  0  0  0  0  0  0  0  0  0
  131.1155  129.8382  150.9067 H   0  0  0  0  0  0  0  0  0  0  0  0
  130.2932  127.4261  152.5867 H   0  0  0  0  0  0  0  0  0  0  0  0
  129.1897  128.4678  151.6564 H   0  0  0  0  0  0  0  0  0  0  0  0
  130.3947  127.4676  150.8102 H   0  0  0  0  0  0  0  0  0  0  0  0
  132.2353  128.8540  154.2603 H   0  0  0  0  0  0  0  0  0  0  0  0
  131.8070  130.1895  156.2814 H   0  0  0  0  0  0  0  0  0  0  0  0
  130.6295  137.0777  160.2871 H   0  0  0  0  0  0  0  0  0  0  0  0
  129.0148  137.8593  161.9716 H   0  0  0  0  0  0  0  0  0  0  0  0
  1  2  1  0
  1 27  1  0
  1 28  1  0
  1 29  1  0
  2  3  1  0
  2 30  1  0
  2 31  1  0
  3  4  1  0
  3 32  1  0
  3 33  1  0
  4  5  1  0
  4 34  1  0
  5 26  2  0
  5  6  1  0
  6  7  2  0
  6 35  1  0
  7  8  1  0
  7 36  1  0
  8  9  1  0
  8 25  2  0
  9 37  1  0
 10  9  1  0
 10 23  2  0
 10 11  1  0
 11 12  1  0
 11 13  1  0
 13 14  2  0
 13 38  1  0
 14 15  1  0
 14 23  1  0
 15 22  1  0
 15 16  2  0
 16 17  1  0
 16 39  1  0
 17 18  2  0
 17 40  1  0
 18 19  1  0
 18 21  1  0
 19 20  1  0
 19 41  1  0
 19 42  1  0
 20 43  1  0
 20 44  1  0
 20 45  1  0
 21 22  2  0
 21 46  1  0
 22 47  1  0
 23 24  1  0
 25 26  1  0
 25 48  1  0
 26 49  1  0
M  CHG  1  23   1
M  END
>  <DOCK_score>  (1) 
-55.358871

>  <SMILES>  (1) 
CCCNc1ccc(Nc2[nH]cc(-c3ccc(CC)cc3)[nH+]2)cc1

$$$$
