Cc1nc(-c2n[nH]cc2C[NH2+]Cc2ccc(C)n2C)n(C[C@H](C)CO)n1
     RDKit          3D

 54 56  0  0  1  0  0  0  0  0999 V2000
  129.9252  137.9324  159.3051 C   0  0  0  0  0  0  0  0  0  0  0  0
  129.0658  136.6947  159.3260 C   0  0  0  0  0  0  0  0  0  0  0  0
  129.3693  135.5360  158.7473 N   0  0  0  0  0  0  0  0  0  0  0  0
  128.4024  134.6662  158.9582 C   0  0  0  0  0  0  0  0  0  0  0  0
  128.3673  133.2674  158.4763 C   0  0  0  0  0  0  0  0  0  0  0  0
  127.4000  132.3981  158.6883 N   0  0  0  0  0  0  0  0  0  0  0  0
  127.7537  131.1939  158.0664 N   0  0  0  0  0  0  0  0  0  0  0  0
  127.2260  130.3801  158.0606 H   0  0  0  0  0  0  0  0  0  0  0  0
  128.9545  131.3639  157.4717 C   0  0  0  0  0  0  0  0  0  0  0  0
  129.3633  132.6286  157.7097 C   0  0  0  0  0  0  0  0  0  0  0  0
  130.6518  133.2491  157.2346 C   0  0  0  0  0  0  0  0  0  0  0  0
  131.2690  134.0000  158.3361 N   0  0  0  0  0  0  0  0  0  0  0  0
  130.6390  134.7261  158.6426 H   0  0  0  0  0  0  0  0  0  0  0  0
  132.1317  134.4155  158.0179 H   0  0  0  0  0  0  0  0  0  0  0  0
  131.5474  133.0889  159.4542 C   0  0  0  0  0  0  0  0  0  0  0  0
  132.1805  133.8593  160.5842 C   0  0  0  0  0  0  0  0  0  0  0  0
  133.1723  134.7650  160.4653 C   0  0  0  0  0  0  0  0  0  0  0  0
  133.4645  135.2427  161.7581 C   0  0  0  0  0  0  0  0  0  0  0  0
  132.6401  134.6105  162.6178 C   0  0  0  0  0  0  0  0  0  0  0  0
  132.6032  134.8056  164.1117 C   0  0  0  0  0  0  0  0  0  0  0  0
  131.8497  133.7601  161.9031 N   0  0  0  0  0  0  0  0  0  0  0  0
  130.8158  132.8844  162.4603 C   0  0  0  0  0  0  0  0  0  0  0  0
  127.4447  135.2818  159.6886 N   0  0  0  0  0  0  0  0  0  0  0  0
  126.1827  134.6999  160.1523 C   0  0  0  0  0  0  0  0  0  0  0  0
  125.9568  135.0741  161.6185 C   0  0  2  0  0  0  0  0  0  0  0  0
  125.9134  136.1590  161.7141 H   0  0  0  0  0  0  0  0  0  0  0  0
  127.1098  134.5331  162.4664 C   0  0  0  0  0  0  0  0  0  0  0  0
  124.6389  134.4663  162.1027 C   0  0  0  0  0  0  0  0  0  0  0  0
  123.5619  134.9715  161.3108 O   0  0  0  0  0  0  0  0  0  0  0  0
  127.9035  136.5895  159.9160 N   0  0  0  0  0  0  0  0  0  0  0  0
  129.6670  138.5395  158.4373 H   0  0  0  0  0  0  0  0  0  0  0  0
  129.7552  138.5083  160.2147 H   0  0  0  0  0  0  0  0  0  0  0  0
  130.9750  137.6450  159.2480 H   0  0  0  0  0  0  0  0  0  0  0  0
  129.4946  130.6181  156.9072 H   0  0  0  0  0  0  0  0  0  0  0  0
  130.4454  133.9250  156.4048 H   0  0  0  0  0  0  0  0  0  0  0  0
  131.3324  132.4647  156.9035 H   0  0  0  0  0  0  0  0  0  0  0  0
  132.2279  132.3046  159.1231 H   0  0  0  0  0  0  0  0  0  0  0  0
  130.6153  132.6401  159.7979 H   0  0  0  0  0  0  0  0  0  0  0  0
  133.6540  135.0689  159.5476 H   0  0  0  0  0  0  0  0  0  0  0  0
  134.2113  135.9799  162.0137 H   0  0  0  0  0  0  0  0  0  0  0  0
  131.8999  135.6013  164.3570 H   0  0  0  0  0  0  0  0  0  0  0  0
  132.2860  133.8797  164.5913 H   0  0  0  0  0  0  0  0  0  0  0  0
  133.5973  135.0769  164.4673 H   0  0  0  0  0  0  0  0  0  0  0  0
  129.8630  133.4137  162.4795 H   0  0  0  0  0  0  0  0  0  0  0  0
  130.7231  131.9921  161.8412 H   0  0  0  0  0  0  0  0  0  0  0  0
  131.0917  132.5961  163.4745 H   0  0  0  0  0  0  0  0  0  0  0  0
  125.3614  135.0853  159.5483 H   0  0  0  0  0  0  0  0  0  0  0  0
  126.2261  133.6149  160.0566 H   0  0  0  0  0  0  0  0  0  0  0  0
  127.1532  133.4482  162.3707 H   0  0  0  0  0  0  0  0  0  0  0  0
  128.0488  134.9660  162.1213 H   0  0  0  0  0  0  0  0  0  0  0  0
  126.9490  134.7997  163.5109 H   0  0  0  0  0  0  0  0  0  0  0  0
  124.6823  133.3813  162.0070 H   0  0  0  0  0  0  0  0  0  0  0  0
  124.4779  134.7328  163.1472 H   0  0  0  0  0  0  0  0  0  0  0  0
  123.4635  135.9327  161.3480 H   0  0  0  0  0  0  0  0  0  0  0  0
  1  2  1  0
  1 31  1  0
  1 32  1  0
  1 33  1  0
  2 30  2  0
  2  3  1  0
  3  4  2  0
  4  5  1  0
  4 23  1  0
  5 10  1  0
  5  6  2  0
  6  7  1  0
  7  8  1  0
  7  9  1  0
  9 10  2  0
  9 34  1  0
 10 11  1  0
 11 12  1  0
 11 35  1  0
 11 36  1  0
 12 13  1  0
 12 14  1  0
 12 15  1  0
 15 16  1  0
 15 37  1  0
 15 38  1  0
 16 21  1  0
 16 17  2  0
 17 18  1  0
 17 39  1  0
 18 19  2  0
 18 40  1  0
 19 20  1  0
 19 21  1  0
 20 41  1  0
 20 42  1  0
 20 43  1  0
 21 22  1  0
 22 44  1  0
 22 45  1  0
 22 46  1  0
 23 24  1  0
 23 30  1  0
 24 25  1  0
 24 47  1  0
 24 48  1  0
 25 26  1  6
 25 27  1  0
 25 28  1  0
 27 49  1  0
 27 50  1  0
 27 51  1  0
 28 29  1  0
 28 52  1  0
 28 53  1  0
 29 54  1  0
M  CHG  1  12   1
M  END
>  <DOCK_score>  (1) 
-47.296082

>  <SMILES>  (1) 
Cc1nc(-c2n[nH]cc2C[NH2+]Cc2ccc(C)n2C)n(C[C@H](C)CO)n1

$$$$
