CC(C)c1c[nH]c(Nc2cc(O)ccc2NC2Cc3ccccc3C2)[nH+]1
     RDKit          3D

 51 54  0  0  1  0  0  0  0  0999 V2000
  130.7732  129.8130  158.4788 C   0  0  0  0  0  0  0  0  0  0  0  0
  129.6090  130.8043  158.5367 C   0  0  0  0  0  0  0  0  0  0  0  0
  128.8788  130.6560  159.8730 C   0  0  0  0  0  0  0  0  0  0  0  0
  130.1387  132.2092  158.4068 C   0  0  0  0  0  0  0  0  0  0  0  0
  131.2414  132.5750  157.7309 C   0  0  0  0  0  0  0  0  0  0  0  0
  131.3594  133.9397  157.8644 N   0  0  0  0  0  0  0  0  0  0  0  0
  132.0558  134.4984  157.4853 H   0  0  0  0  0  0  0  0  0  0  0  0
  130.3168  134.3560  158.6332 C   0  0  0  0  0  0  0  0  0  0  0  0
  130.0630  135.6634  159.0152 N   0  0  0  0  0  0  0  0  0  0  0  0
  128.9491  135.9563  159.8120 C   0  0  0  0  0  0  0  0  0  0  0  0
  127.6724  135.6636  159.3561 C   0  0  0  0  0  0  0  0  0  0  0  0
  126.5717  135.9494  160.1495 C   0  0  0  0  0  0  0  0  0  0  0  0
  125.3201  135.6573  159.7051 O   0  0  0  0  0  0  0  0  0  0  0  0
  126.7453  136.5381  161.3933 C   0  0  0  0  0  0  0  0  0  0  0  0
  128.0161  136.8367  161.8489 C   0  0  0  0  0  0  0  0  0  0  0  0
  129.1210  136.5482  161.0629 C   0  0  0  0  0  0  0  0  0  0  0  0
  130.4098  136.8507  161.5252 N   0  0  0  0  0  0  0  0  0  0  0  0
  131.0045  138.1575  161.2339 C   0  0  0  0  0  0  0  0  0  0  0  0
  131.9261  138.0778  159.9984 C   0  0  0  0  0  0  0  0  0  0  0  0
  133.0681  139.0301  160.2977 C   0  0  0  0  0  0  0  0  0  0  0  0
  134.0045  139.6003  159.4514 C   0  0  0  0  0  0  0  0  0  0  0  0
  134.9657  140.4554  159.9536 C   0  0  0  0  0  0  0  0  0  0  0  0
  134.9940  140.7438  161.3054 C   0  0  0  0  0  0  0  0  0  0  0  0
  134.0612  140.1763  162.1509 C   0  0  0  0  0  0  0  0  0  0  0  0
  133.0965  139.3185  161.6492 C   0  0  0  0  0  0  0  0  0  0  0  0
  131.9797  138.5785  162.3537 C   0  0  0  0  0  0  0  0  0  0  0  0
  129.5925  133.3092  158.9516 N   0  0  0  0  0  0  0  0  0  0  0  0
  128.7892  133.3267  159.4947 H   0  0  0  0  0  0  0  0  0  0  0  0
  130.3900  128.7969  158.5728 H   0  0  0  0  0  0  0  0  0  0  0  0
  131.4653  130.0173  159.2958 H   0  0  0  0  0  0  0  0  0  0  0  0
  131.2933  129.9187  157.5268 H   0  0  0  0  0  0  0  0  0  0  0  0
  128.9169  130.5999  157.7198 H   0  0  0  0  0  0  0  0  0  0  0  0
  129.5711  130.8603  160.6898 H   0  0  0  0  0  0  0  0  0  0  0  0
  128.0496  131.3621  159.9142 H   0  0  0  0  0  0  0  0  0  0  0  0
  128.4959  129.6399  159.9670 H   0  0  0  0  0  0  0  0  0  0  0  0
  131.9069  131.9226  157.1853 H   0  0  0  0  0  0  0  0  0  0  0  0
  130.6566  136.3758  158.7308 H   0  0  0  0  0  0  0  0  0  0  0  0
  127.5359  135.2094  158.3858 H   0  0  0  0  0  0  0  0  0  0  0  0
  124.6173  135.8924  160.3264 H   0  0  0  0  0  0  0  0  0  0  0  0
  125.8859  136.7640  162.0072 H   0  0  0  0  0  0  0  0  0  0  0  0
  128.1481  137.2954  162.8177 H   0  0  0  0  0  0  0  0  0  0  0  0
  130.9077  136.1948  162.0379 H   0  0  0  0  0  0  0  0  0  0  0  0
  130.2297  138.9109  161.0913 H   0  0  0  0  0  0  0  0  0  0  0  0
  132.3039  137.0631  159.8732 H   0  0  0  0  0  0  0  0  0  0  0  0
  131.3889  138.3952  159.1047 H   0  0  0  0  0  0  0  0  0  0  0  0
  133.9829  139.3754  158.3953 H   0  0  0  0  0  0  0  0  0  0  0  0
  135.6946  140.8981  159.2910 H   0  0  0  0  0  0  0  0  0  0  0  0
  135.7447  141.4126  161.6997 H   0  0  0  0  0  0  0  0  0  0  0  0
  134.0837  140.4024  163.2067 H   0  0  0  0  0  0  0  0  0  0  0  0
  131.4789  139.2366  163.0637 H   0  0  0  0  0  0  0  0  0  0  0  0
  132.3706  137.6989  162.8652 H   0  0  0  0  0  0  0  0  0  0  0  0
  1  2  1  0
  1 29  1  0
  1 30  1  0
  1 31  1  0
  2  3  1  0
  2  4  1  0
  2 32  1  0
  3 33  1  0
  3 34  1  0
  3 35  1  0
  4 27  1  0
  4  5  2  0
  5  6  1  0
  5 36  1  0
  6  7  1  0
  6  8  1  0
  8  9  1  0
  8 27  2  0
  9 10  1  0
  9 37  1  0
 10 16  1  0
 10 11  2  0
 11 12  1  0
 11 38  1  0
 12 13  1  0
 12 14  2  0
 13 39  1  0
 14 15  1  0
 14 40  1  0
 15 16  2  0
 15 41  1  0
 16 17  1  0
 17 18  1  0
 17 42  1  0
 18 26  1  0
 18 19  1  0
 18 43  1  0
 19 20  1  0
 19 44  1  0
 19 45  1  0
 20 25  2  0
 20 21  1  0
 21 22  2  0
 21 46  1  0
 22 23  1  0
 22 47  1  0
 23 24  2  0
 23 48  1  0
 24 25  1  0
 24 49  1  0
 25 26  1  0
 26 50  1  0
 26 51  1  0
 27 28  1  0
M  CHG  1  27   1
M  END
>  <DOCK_score>  (1) 
-52.949646

>  <SMILES>  (1) 
CC(C)c1c[nH]c(Nc2cc(O)ccc2NC2Cc3ccccc3C2)[nH+]1

$$$$
