Cc1cccc(CC[C@H](C)N2C=C([NH2+]C(Cc3ccccc3)Cc3cccnc3)CCC2)c1
     RDKit          3D

 71 74  0  0  1  0  0  0  0  0999 V2000
  137.8572  133.7959  164.4135 C   0  0  0  0  0  0  0  0  0  0  0  0
  137.4576  135.1021  163.7770 C   0  0  0  0  0  0  0  0  0  0  0  0
  138.3154  136.1853  163.8246 C   0  0  0  0  0  0  0  0  0  0  0  0
  137.9489  137.3833  163.2408 C   0  0  0  0  0  0  0  0  0  0  0  0
  136.7264  137.4970  162.6052 C   0  0  0  0  0  0  0  0  0  0  0  0
  135.8668  136.4156  162.5619 C   0  0  0  0  0  0  0  0  0  0  0  0
  134.5322  136.5410  161.8732 C   0  0  0  0  0  0  0  0  0  0  0  0
  133.4793  137.0041  162.8821 C   0  0  0  0  0  0  0  0  0  0  0  0
  132.1244  137.1314  162.1828 C   0  0  2  0  0  0  0  0  0  0  0  0
  132.1991  137.8598  161.3755 H   0  0  0  0  0  0  0  0  0  0  0  0
  131.0714  137.5944  163.1916 C   0  0  0  0  0  0  0  0  0  0  0  0
  131.7347  135.8308  161.6325 N   0  0  0  0  0  0  0  0  0  0  0  0
  131.5210  135.6764  160.2686 C   0  0  0  0  0  0  0  0  0  0  0  0
  131.4254  134.4926  159.7129 C   0  0  0  0  0  0  0  0  0  0  0  0
  131.2190  134.4173  158.3323 N   0  0  0  0  0  0  0  0  0  0  0  0
  131.6419  135.2167  157.8850 H   0  0  0  0  0  0  0  0  0  0  0  0
  131.6375  133.5715  157.9753 H   0  0  0  0  0  0  0  0  0  0  0  0
  129.7768  134.4058  158.0526 C   0  0  2  0  0  0  0  0  0  0  0  0
  129.5332  133.8355  156.6539 C   0  0  0  0  0  0  0  0  0  0  0  0
  130.0697  132.4290  156.5844 C   0  0  0  0  0  0  0  0  0  0  0  0
  130.5358  131.9255  155.3843 C   0  0  0  0  0  0  0  0  0  0  0  0
  131.0324  130.6370  155.3216 C   0  0  0  0  0  0  0  0  0  0  0  0
  131.0532  129.8483  156.4568 C   0  0  0  0  0  0  0  0  0  0  0  0
  130.5824  130.3500  157.6558 C   0  0  0  0  0  0  0  0  0  0  0  0
  130.0906  131.6403  157.7195 C   0  0  0  0  0  0  0  0  0  0  0  0
  129.2323  135.8338  158.1232 C   0  0  0  0  0  0  0  0  0  0  0  0
  127.7399  135.7928  158.3288 C   0  0  0  0  0  0  0  0  0  0  0  0
  127.2077  135.7773  159.6091 C   0  0  0  0  0  0  0  0  0  0  0  0
  125.8290  135.7441  159.7503 C   0  0  0  0  0  0  0  0  0  0  0  0
  125.0366  135.7168  158.6179 C   0  0  0  0  0  0  0  0  0  0  0  0
  125.5778  135.7276  157.4156 N   0  0  0  0  0  0  0  0  0  0  0  0
  126.8848  135.7644  157.2437 C   0  0  0  0  0  0  0  0  0  0  0  0
  131.5284  133.2138  160.4941 C   0  0  0  0  0  0  0  0  0  0  0  0
  132.2263  133.4673  161.8322 C   0  0  0  0  0  0  0  0  0  0  0  0
  131.5627  134.6670  162.5146 C   0  0  0  0  0  0  0  0  0  0  0  0
  136.2336  135.2171  163.1454 C   0  0  0  0  0  0  0  0  0  0  0  0
  138.3818  133.1810  163.6823 H   0  0  0  0  0  0  0  0  0  0  0  0
  138.5132  133.9908  165.2619 H   0  0  0  0  0  0  0  0  0  0  0  0
  136.9657  133.2711  164.7567 H   0  0  0  0  0  0  0  0  0  0  0  0
  139.2718  136.0954  164.3182 H   0  0  0  0  0  0  0  0  0  0  0  0
  138.6189  138.2295  163.2783 H   0  0  0  0  0  0  0  0  0  0  0  0
  136.4417  138.4319  162.1455 H   0  0  0  0  0  0  0  0  0  0  0  0
  134.2423  135.5734  161.4637 H   0  0  0  0  0  0  0  0  0  0  0  0
  134.6070  137.2695  161.0659 H   0  0  0  0  0  0  0  0  0  0  0  0
  133.7691  137.9718  163.2915 H   0  0  0  0  0  0  0  0  0  0  0  0
  133.4045  136.2755  163.6894 H   0  0  0  0  0  0  0  0  0  0  0  0
  131.0835  136.9339  164.0586 H   0  0  0  0  0  0  0  0  0  0  0  0
  131.2946  138.6133  163.5080 H   0  0  0  0  0  0  0  0  0  0  0  0
  130.0857  137.5661  162.7270 H   0  0  0  0  0  0  0  0  0  0  0  0
  131.4314  136.5559  159.6484 H   0  0  0  0  0  0  0  0  0  0  0  0
  129.2685  133.7861  158.7912 H   0  0  0  0  0  0  0  0  0  0  0  0
  128.4632  133.8270  156.4465 H   0  0  0  0  0  0  0  0  0  0  0  0
  130.0416  134.4552  155.9152 H   0  0  0  0  0  0  0  0  0  0  0  0
  130.5154  132.5401  154.4965 H   0  0  0  0  0  0  0  0  0  0  0  0
  131.4000  130.2448  154.3849 H   0  0  0  0  0  0  0  0  0  0  0  0
  131.4371  128.8401  156.4068 H   0  0  0  0  0  0  0  0  0  0  0  0
  130.5983  129.7337  158.5425 H   0  0  0  0  0  0  0  0  0  0  0  0
  129.7224  132.0322  158.6561 H   0  0  0  0  0  0  0  0  0  0  0  0
  129.6995  136.3601  158.9556 H   0  0  0  0  0  0  0  0  0  0  0  0
  129.4566  136.3546  157.1923 H   0  0  0  0  0  0  0  0  0  0  0  0
  127.8519  135.7946  160.4759 H   0  0  0  0  0  0  0  0  0  0  0  0
  125.3799  135.7346  160.7323 H   0  0  0  0  0  0  0  0  0  0  0  0
  123.9618  135.6866  158.7192 H   0  0  0  0  0  0  0  0  0  0  0  0
  127.2916  135.7722  156.2433 H   0  0  0  0  0  0  0  0  0  0  0  0
  130.5282  132.8215  160.6775 H   0  0  0  0  0  0  0  0  0  0  0  0
  132.1018  132.4856  159.9203 H   0  0  0  0  0  0  0  0  0  0  0  0
  132.1277  132.5880  162.4689 H   0  0  0  0  0  0  0  0  0  0  0  0
  133.2812  133.6815  161.6601 H   0  0  0  0  0  0  0  0  0  0  0  0
  132.0409  134.8577  163.4755 H   0  0  0  0  0  0  0  0  0  0  0  0
  130.5012  134.4687  162.6621 H   0  0  0  0  0  0  0  0  0  0  0  0
  135.5636  134.3708  163.1079 H   0  0  0  0  0  0  0  0  0  0  0  0
  1  2  1  0
  1 37  1  0
  1 38  1  0
  1 39  1  0
  2 36  2  0
  2  3  1  0
  3  4  2  0
  3 40  1  0
  4  5  1  0
  4 41  1  0
  5  6  2  0
  5 42  1  0
  6  7  1  0
  6 36  1  0
  7  8  1  0
  7 43  1  0
  7 44  1  0
  8  9  1  0
  8 45  1  0
  8 46  1  0
  9 10  1  6
  9 11  1  0
  9 12  1  0
 11 47  1  0
 11 48  1  0
 11 49  1  0
 12 35  1  0
 12 13  1  0
 13 14  2  0
 13 50  1  0
 14 15  1  0
 14 33  1  0
 15 16  1  0
 15 17  1  0
 15 18  1  0
 18 19  1  0
 18 26  1  0
 18 51  1  1
 19 20  1  0
 19 52  1  0
 19 53  1  0
 20 25  1  0
 20 21  2  0
 21 22  1  0
 21 54  1  0
 22 23  2  0
 22 55  1  0
 23 24  1  0
 23 56  1  0
 24 25  2  0
 24 57  1  0
 25 58  1  0
 26 27  1  0
 26 59  1  0
 26 60  1  0
 27 32  1  0
 27 28  2  0
 28 29  1  0
 28 61  1  0
 29 30  2  0
 29 62  1  0
 30 31  1  0
 30 63  1  0
 31 32  2  0
 32 64  1  0
 33 34  1  0
 33 65  1  0
 33 66  1  0
 34 35  1  0
 34 67  1  0
 34 68  1  0
 35 69  1  0
 35 70  1  0
 36 71  1  0
M  CHG  1  15   1
M  END
>  <DOCK_score>  (1) 
-62.802132

>  <SMILES>  (1) 
Cc1cccc(CC[C@H](C)N2C=C([NH2+]C(Cc3ccccc3)Cc3cccnc3)CCC2)c1

$$$$
