CCCC=C(C[C@H](Nc1[nH]cc(-c2ccc(CC)cc2)[nH+]1)c1ccccc1)C(F)F
     RDKit          3D

 60 62  0  0  1  0  0  0  0  0999 V2000
  134.4840  138.4678  158.4743 C   0  0  0  0  0  0  0  0  0  0  0  0
  134.5600  138.8958  159.9413 C   0  0  0  0  0  0  0  0  0  0  0  0
  133.7332  137.9338  160.7967 C   0  0  0  0  0  0  0  0  0  0  0  0
  132.2977  137.9615  160.3391 C   0  0  0  0  0  0  0  0  0  0  0  0
  131.4055  137.2096  160.9350 C   0  0  0  0  0  0  0  0  0  0  0  0
  129.9919  137.1619  160.4150 C   0  0  0  0  0  0  0  0  0  0  0  0
  129.6436  135.7266  160.0158 C   0  0  2  0  0  0  0  0  0  0  0  0
  130.0596  135.0346  160.7480 H   0  0  0  0  0  0  0  0  0  0  0  0
  130.2067  135.4366  158.6949 N   0  0  0  0  0  0  0  0  0  0  0  0
  130.0203  134.1906  158.1212 C   0  0  0  0  0  0  0  0  0  0  0  0
  129.3405  133.1534  158.6820 N   0  0  0  0  0  0  0  0  0  0  0  0
  128.9035  133.1543  159.5480 H   0  0  0  0  0  0  0  0  0  0  0  0
  129.3872  132.1054  157.7952 C   0  0  0  0  0  0  0  0  0  0  0  0
  130.0934  132.5319  156.7189 C   0  0  0  0  0  0  0  0  0  0  0  0
  130.4016  131.7357  155.5058 C   0  0  0  0  0  0  0  0  0  0  0  0
  129.9624  132.1673  154.2555 C   0  0  0  0  0  0  0  0  0  0  0  0
  130.2524  131.4227  153.1303 C   0  0  0  0  0  0  0  0  0  0  0  0
  130.9767  130.2492  153.2421 C   0  0  0  0  0  0  0  0  0  0  0  0
  131.2895  129.4403  152.0097 C   0  0  0  0  0  0  0  0  0  0  0  0
  130.1674  128.4312  151.7634 C   0  0  0  0  0  0  0  0  0  0  0  0
  131.4107  129.8136  154.4809 C   0  0  0  0  0  0  0  0  0  0  0  0
  131.1319  130.5533  155.6121 C   0  0  0  0  0  0  0  0  0  0  0  0
  130.4733  133.8136  156.9505 N   0  0  0  0  0  0  0  0  0  0  0  0
  130.9947  134.3639  156.3453 H   0  0  0  0  0  0  0  0  0  0  0  0
  128.1456  135.5678  159.9692 C   0  0  0  0  0  0  0  0  0  0  0  0
  127.4573  135.1694  161.0999 C   0  0  0  0  0  0  0  0  0  0  0  0
  126.0828  135.0280  161.0584 C   0  0  0  0  0  0  0  0  0  0  0  0
  125.3977  135.2762  159.8837 C   0  0  0  0  0  0  0  0  0  0  0  0
  126.0866  135.6697  158.7518 C   0  0  0  0  0  0  0  0  0  0  0  0
  127.4606  135.8153  158.7944 C   0  0  0  0  0  0  0  0  0  0  0  0
  131.7931  136.3921  162.1402 C   0  0  0  0  0  0  0  0  0  0  0  0
  130.6835  136.2436  162.9793 F   0  0  0  0  0  0  0  0  0  0  0  0
  132.2365  135.1317  161.7258 F   0  0  0  0  0  0  0  0  0  0  0  0
  134.8792  137.4573  158.3697 H   0  0  0  0  0  0  0  0  0  0  0  0
  133.4457  138.4880  158.1434 H   0  0  0  0  0  0  0  0  0  0  0  0
  135.0731  139.1532  157.8649 H   0  0  0  0  0  0  0  0  0  0  0  0
  134.1649  139.9062  160.0460 H   0  0  0  0  0  0  0  0  0  0  0  0
  135.5984  138.8756  160.2723 H   0  0  0  0  0  0  0  0  0  0  0  0
  133.7875  138.2387  161.8418 H   0  0  0  0  0  0  0  0  0  0  0  0
  134.1284  136.9234  160.6921 H   0  0  0  0  0  0  0  0  0  0  0  0
  132.0043  138.6013  159.5200 H   0  0  0  0  0  0  0  0  0  0  0  0
  129.9027  137.8127  159.5452 H   0  0  0  0  0  0  0  0  0  0  0  0
  129.3071  137.4991  161.1930 H   0  0  0  0  0  0  0  0  0  0  0  0
  130.7102  136.1177  158.2222 H   0  0  0  0  0  0  0  0  0  0  0  0
  128.9459  131.1289  157.9293 H   0  0  0  0  0  0  0  0  0  0  0  0
  129.3959  133.0826  154.1674 H   0  0  0  0  0  0  0  0  0  0  0  0
  129.9126  131.7563  152.1609 H   0  0  0  0  0  0  0  0  0  0  0  0
  132.2313  128.9098  152.1528 H   0  0  0  0  0  0  0  0  0  0  0  0
  131.3756  130.1059  151.1502 H   0  0  0  0  0  0  0  0  0  0  0  0
  129.2263  128.9621  151.6201 H   0  0  0  0  0  0  0  0  0  0  0  0
  130.3939  127.8460  150.8721 H   0  0  0  0  0  0  0  0  0  0  0  0
  130.0820  127.7660  152.6227 H   0  0  0  0  0  0  0  0  0  0  0  0
  131.9721  128.8946  154.5627 H   0  0  0  0  0  0  0  0  0  0  0  0
  131.4750  130.2143  156.5785 H   0  0  0  0  0  0  0  0  0  0  0  0
  127.9930  134.9718  162.0166 H   0  0  0  0  0  0  0  0  0  0  0  0
  125.5447  134.7209  161.9429 H   0  0  0  0  0  0  0  0  0  0  0  0
  124.3242  135.1632  159.8506 H   0  0  0  0  0  0  0  0  0  0  0  0
  125.5512  135.8637  157.8340 H   0  0  0  0  0  0  0  0  0  0  0  0
  127.9987  136.1227  157.9099 H   0  0  0  0  0  0  0  0  0  0  0  0
  132.5924  136.8988  162.6810 H   0  0  0  0  0  0  0  0  0  0  0  0
  1  2  1  0
  1 34  1  0
  1 35  1  0
  1 36  1  0
  2  3  1  0
  2 37  1  0
  2 38  1  0
  3  4  1  0
  3 39  1  0
  3 40  1  0
  4  5  2  0
  4 41  1  0
  5  6  1  0
  5 31  1  0
  6  7  1  0
  6 42  1  0
  6 43  1  0
  7  8  1  1
  7  9  1  0
  7 25  1  0
  9 44  1  0
 10  9  1  0
 10 23  2  0
 10 11  1  0
 11 12  1  0
 11 13  1  0
 13 14  2  0
 13 45  1  0
 14 15  1  0
 14 23  1  0
 15 22  1  0
 15 16  2  0
 16 17  1  0
 16 46  1  0
 17 18  2  0
 17 47  1  0
 18 19  1  0
 18 21  1  0
 19 20  1  0
 19 48  1  0
 19 49  1  0
 20 50  1  0
 20 51  1  0
 20 52  1  0
 21 22  2  0
 21 53  1  0
 22 54  1  0
 23 24  1  0
 25 30  1  0
 25 26  2  0
 26 27  1  0
 26 55  1  0
 27 28  2  0
 27 56  1  0
 28 29  1  0
 28 57  1  0
 29 30  2  0
 29 58  1  0
 30 59  1  0
 31 32  1  0
 31 33  1  0
 31 60  1  0
M  CHG  1  23   1
M  END
>  <DOCK_score>  (1) 
-63.402142

>  <SMILES>  (1) 
CCCC=C(C[C@H](Nc1[nH]cc(-c2ccc(CC)cc2)[nH+]1)c1ccccc1)C(F)F

$$$$
