CC(C)c1ccc(-c2ccc(-c3n[nH]cc3CNc3[nH]cc(-c4ccc(N)cc4)[nH+]3)cc2)cc1
     RDKit          3D

 63 67  0  0  1  0  0  0  0  0999 V2000
  132.4034  137.1422  171.8860 C   0  0  0  0  0  0  0  0  0  0  0  0
  133.1119  136.1942  170.9169 C   0  0  0  0  0  0  0  0  0  0  0  0
  133.1304  134.7820  171.5065 C   0  0  0  0  0  0  0  0  0  0  0  0
  132.3766  136.1788  169.6015 C   0  0  0  0  0  0  0  0  0  0  0  0
  133.0289  136.5658  168.4438 C   0  0  0  0  0  0  0  0  0  0  0  0
  132.3610  136.5542  167.2361 C   0  0  0  0  0  0  0  0  0  0  0  0
  131.0273  136.1523  167.1841 C   0  0  0  0  0  0  0  0  0  0  0  0
  130.3047  136.1375  165.8890 C   0  0  0  0  0  0  0  0  0  0  0  0
  129.2797  135.2170  165.6729 C   0  0  0  0  0  0  0  0  0  0  0  0
  128.6083  135.2038  164.4701 C   0  0  0  0  0  0  0  0  0  0  0  0
  128.9535  136.1107  163.4689 C   0  0  0  0  0  0  0  0  0  0  0  0
  128.2304  136.0963  162.1736 C   0  0  0  0  0  0  0  0  0  0  0  0
  126.9389  136.2891  162.0053 N   0  0  0  0  0  0  0  0  0  0  0  0
  126.6599  136.1954  160.6358 N   0  0  0  0  0  0  0  0  0  0  0  0
  125.7869  136.2952  160.2248 H   0  0  0  0  0  0  0  0  0  0  0  0
  127.8160  135.9362  159.9877 C   0  0  0  0  0  0  0  0  0  0  0  0
  128.8043  135.8743  160.9063 C   0  0  0  0  0  0  0  0  0  0  0  0
  130.2611  135.6091  160.6260 C   0  0  0  0  0  0  0  0  0  0  0  0
  130.4566  135.4310  159.1851 N   0  0  0  0  0  0  0  0  0  0  0  0
  130.3576  134.1693  158.6239 C   0  0  0  0  0  0  0  0  0  0  0  0
  130.0908  133.0194  159.3009 N   0  0  0  0  0  0  0  0  0  0  0  0
  129.9370  132.9369  160.2550 H   0  0  0  0  0  0  0  0  0  0  0  0
  130.0759  131.9969  158.3820 C   0  0  0  0  0  0  0  0  0  0  0  0
  130.3431  132.5505  157.1734 C   0  0  0  0  0  0  0  0  0  0  0  0
  130.4348  131.8257  155.8822 C   0  0  0  0  0  0  0  0  0  0  0  0
  130.0900  132.4689  154.6945 C   0  0  0  0  0  0  0  0  0  0  0  0
  130.1815  131.7950  153.4950 C   0  0  0  0  0  0  0  0  0  0  0  0
  130.6058  130.4716  153.4709 C   0  0  0  0  0  0  0  0  0  0  0  0
  130.6919  129.7888  152.2552 N   0  0  0  0  0  0  0  0  0  0  0  0
  130.9449  129.8268  154.6543 C   0  0  0  0  0  0  0  0  0  0  0  0
  130.8604  130.4984  155.8555 C   0  0  0  0  0  0  0  0  0  0  0  0
  130.5112  133.8845  157.3537 N   0  0  0  0  0  0  0  0  0  0  0  0
  130.7132  134.5253  156.6541 H   0  0  0  0  0  0  0  0  0  0  0  0
  129.9820  137.0276  163.6829 C   0  0  0  0  0  0  0  0  0  0  0  0
  130.6496  137.0447  164.8878 C   0  0  0  0  0  0  0  0  0  0  0  0
  130.3747  135.7682  168.3540 C   0  0  0  0  0  0  0  0  0  0  0  0
  131.0539  135.7791  169.5553 C   0  0  0  0  0  0  0  0  0  0  0  0
  131.3803  136.8015  172.0448 H   0  0  0  0  0  0  0  0  0  0  0  0
  132.9348  137.1530  172.8376 H   0  0  0  0  0  0  0  0  0  0  0  0
  132.3904  138.1478  171.4658 H   0  0  0  0  0  0  0  0  0  0  0  0
  134.1351  136.5345  170.7579 H   0  0  0  0  0  0  0  0  0  0  0  0
  132.1073  134.4413  171.6655 H   0  0  0  0  0  0  0  0  0  0  0  0
  133.6352  134.1064  170.8162 H   0  0  0  0  0  0  0  0  0  0  0  0
  133.6618  134.7928  172.4583 H   0  0  0  0  0  0  0  0  0  0  0  0
  134.0620  136.8778  168.4854 H   0  0  0  0  0  0  0  0  0  0  0  0
  132.8706  136.8568  166.3331 H   0  0  0  0  0  0  0  0  0  0  0  0
  129.0125  134.5144  166.4482 H   0  0  0  0  0  0  0  0  0  0  0  0
  127.8143  134.4910  164.3027 H   0  0  0  0  0  0  0  0  0  0  0  0
  127.9306  135.8042  158.9219 H   0  0  0  0  0  0  0  0  0  0  0  0
  130.8572  136.4536  160.9720 H   0  0  0  0  0  0  0  0  0  0  0  0
  130.5732  134.7054  161.1496 H   0  0  0  0  0  0  0  0  0  0  0  0
  130.6553  136.1970  158.6242 H   0  0  0  0  0  0  0  0  0  0  0  0
  129.8919  130.9522  158.5847 H   0  0  0  0  0  0  0  0  0  0  0  0
  129.7553  133.4956  154.7136 H   0  0  0  0  0  0  0  0  0  0  0  0
  129.9187  132.2943  152.5742 H   0  0  0  0  0  0  0  0  0  0  0  0
  130.9879  128.8655  152.2372 H   0  0  0  0  0  0  0  0  0  0  0  0
  130.4550  130.2385  151.4286 H   0  0  0  0  0  0  0  0  0  0  0  0
  131.2747  128.7984  154.6331 H   0  0  0  0  0  0  0  0  0  0  0  0
  131.1242  129.9970  156.7748 H   0  0  0  0  0  0  0  0  0  0  0  0
  130.2523  137.7271  162.9058 H   0  0  0  0  0  0  0  0  0  0  0  0
  131.4436  137.7575  165.0551 H   0  0  0  0  0  0  0  0  0  0  0  0
  129.3403  135.4596  168.3201 H   0  0  0  0  0  0  0  0  0  0  0  0
  130.5499  135.4787  170.4622 H   0  0  0  0  0  0  0  0  0  0  0  0
  1  2  1  0
  1 38  1  0
  1 39  1  0
  1 40  1  0
  2  3  1  0
  2  4  1  0
  2 41  1  0
  3 42  1  0
  3 43  1  0
  3 44  1  0
  4 37  2  0
  4  5  1  0
  5  6  2  0
  5 45  1  0
  6  7  1  0
  6 46  1  0
  7  8  1  0
  7 36  2  0
  8 35  1  0
  8  9  2  0
  9 10  1  0
  9 47  1  0
 10 11  2  0
 10 48  1  0
 11 12  1  0
 11 34  1  0
 12 17  1  0
 12 13  2  0
 13 14  1  0
 14 15  1  0
 14 16  1  0
 16 17  2  0
 16 49  1  0
 17 18  1  0
 18 19  1  0
 18 50  1  0
 18 51  1  0
 19 52  1  0
 20 19  1  0
 20 32  2  0
 20 21  1  0
 21 22  1  0
 21 23  1  0
 23 24  2  0
 23 53  1  0
 24 25  1  0
 24 32  1  0
 25 31  1  0
 25 26  2  0
 26 27  1  0
 26 54  1  0
 27 28  2  0
 27 55  1  0
 28 29  1  0
 28 30  1  0
 29 56  1  0
 29 57  1  0
 30 31  2  0
 30 58  1  0
 31 59  1  0
 32 33  1  0
 34 35  2  0
 34 60  1  0
 35 61  1  0
 36 37  1  0
 36 62  1  0
 37 63  1  0
M  CHG  1  32   1
M  END
>  <DOCK_score>  (1) 
-50.867538

>  <SMILES>  (1) 
CC(C)c1ccc(-c2ccc(-c3n[nH]cc3CNc3[nH]cc(-c4ccc(N)cc4)[nH+]3)cc2)cc1

$$$$
