Cc1ccc([C@H](Cc2ccccc2)C(C)Nc2[nH]cc(-c3ccc(N)cc3)[nH+]2)cc1
     RDKit          3D

 59 62  0  0  1  0  0  0  0  0999 V2000
  131.7878  131.2436  153.1658 C   0  0  0  0  0  0  0  0  0  0  0  0
  131.2449  131.4763  154.5522 C   0  0  0  0  0  0  0  0  0  0  0  0
  131.0956  130.4134  155.4234 C   0  0  0  0  0  0  0  0  0  0  0  0
  130.5972  130.6268  156.6950 C   0  0  0  0  0  0  0  0  0  0  0  0
  130.2481  131.9030  157.0954 C   0  0  0  0  0  0  0  0  0  0  0  0
  129.7043  132.1356  158.4815 C   0  0  2  0  0  0  0  0  0  0  0  0
  129.1700  131.2463  158.8161 H   0  0  0  0  0  0  0  0  0  0  0  0
  128.7464  133.3284  158.4601 C   0  0  0  0  0  0  0  0  0  0  0  0
  127.8457  133.2710  159.6670 C   0  0  0  0  0  0  0  0  0  0  0  0
  126.6380  132.6022  159.5970 C   0  0  0  0  0  0  0  0  0  0  0  0
  125.8140  132.5456  160.7056 C   0  0  0  0  0  0  0  0  0  0  0  0
  126.1930  133.1667  161.8810 C   0  0  0  0  0  0  0  0  0  0  0  0
  127.3985  133.8399  161.9494 C   0  0  0  0  0  0  0  0  0  0  0  0
  128.2249  133.8921  160.8424 C   0  0  0  0  0  0  0  0  0  0  0  0
  130.8603  132.4270  159.4406 C   0  0  1  0  0  0  0  0  0  0  0  0
  131.8182  131.2341  159.4619 C   0  0  0  0  0  0  0  0  0  0  0  0
  131.5785  133.6221  158.9910 N   0  0  0  0  0  0  0  0  0  0  0  0
  132.2076  134.4398  159.9140 C   0  0  0  0  0  0  0  0  0  0  0  0
  132.2270  134.2465  161.2608 N   0  0  0  0  0  0  0  0  0  0  0  0
  131.8062  133.5173  161.7427 H   0  0  0  0  0  0  0  0  0  0  0  0
  132.9562  135.2733  161.8118 C   0  0  0  0  0  0  0  0  0  0  0  0
  133.3525  136.0681  160.7872 C   0  0  0  0  0  0  0  0  0  0  0  0
  134.1621  137.3055  160.9049 C   0  0  0  0  0  0  0  0  0  0  0  0
  134.5048  138.0270  159.7624 C   0  0  0  0  0  0  0  0  0  0  0  0
  135.2525  139.1801  159.8747 C   0  0  0  0  0  0  0  0  0  0  0  0
  135.6745  139.6169  161.1249 C   0  0  0  0  0  0  0  0  0  0  0  0
  136.4372  140.7820  161.2357 N   0  0  0  0  0  0  0  0  0  0  0  0
  135.3385  138.8964  162.2650 C   0  0  0  0  0  0  0  0  0  0  0  0
  134.5863  137.7458  162.1578 C   0  0  0  0  0  0  0  0  0  0  0  0
  132.8782  135.5311  159.6353 N   0  0  0  0  0  0  0  0  0  0  0  0
  133.0135  135.8965  158.7471 H   0  0  0  0  0  0  0  0  0  0  0  0
  130.3926  132.9651  156.2224 C   0  0  0  0  0  0  0  0  0  0  0  0
  130.8958  132.7524  154.9526 C   0  0  0  0  0  0  0  0  0  0  0  0
  130.9639  131.0360  152.4830 H   0  0  0  0  0  0  0  0  0  0  0  0
  132.3220  132.1327  152.8308 H   0  0  0  0  0  0  0  0  0  0  0  0
  132.4702  130.3938  153.1807 H   0  0  0  0  0  0  0  0  0  0  0  0
  131.3680  129.4163  155.1105 H   0  0  0  0  0  0  0  0  0  0  0  0
  130.4802  129.7964  157.3755 H   0  0  0  0  0  0  0  0  0  0  0  0
  129.3197  134.2552  158.4782 H   0  0  0  0  0  0  0  0  0  0  0  0
  128.1420  133.2926  157.5537 H   0  0  0  0  0  0  0  0  0  0  0  0
  126.3398  132.1208  158.6774 H   0  0  0  0  0  0  0  0  0  0  0  0
  124.8721  132.0199  160.6520 H   0  0  0  0  0  0  0  0  0  0  0  0
  125.5474  133.1262  162.7456 H   0  0  0  0  0  0  0  0  0  0  0  0
  127.6945  134.3254  162.8676 H   0  0  0  0  0  0  0  0  0  0  0  0
  129.1663  134.4184  160.8957 H   0  0  0  0  0  0  0  0  0  0  0  0
  130.4670  132.5952  160.4432 H   0  0  0  0  0  0  0  0  0  0  0  0
  131.3131  130.3702  159.8941 H   0  0  0  0  0  0  0  0  0  0  0  0
  132.1306  131.0008  158.4442 H   0  0  0  0  0  0  0  0  0  0  0  0
  132.6932  131.4816  160.0630 H   0  0  0  0  0  0  0  0  0  0  0  0
  131.6098  133.8426  158.0469 H   0  0  0  0  0  0  0  0  0  0  0  0
  133.1683  135.4217  162.8603 H   0  0  0  0  0  0  0  0  0  0  0  0
  134.1814  137.6851  158.7903 H   0  0  0  0  0  0  0  0  0  0  0  0
  135.5144  139.7417  158.9902 H   0  0  0  0  0  0  0  0  0  0  0  0
  136.7319  141.0877  162.1078 H   0  0  0  0  0  0  0  0  0  0  0  0
  136.6722  141.2854  160.4404 H   0  0  0  0  0  0  0  0  0  0  0  0
  135.6672  139.2378  163.2354 H   0  0  0  0  0  0  0  0  0  0  0  0
  134.3253  137.1862  163.0440 H   0  0  0  0  0  0  0  0  0  0  0  0
  130.1156  133.9615  156.5338 H   0  0  0  0  0  0  0  0  0  0  0  0
  131.0121  133.5828  154.2718 H   0  0  0  0  0  0  0  0  0  0  0  0
  1  2  1  0
  1 34  1  0
  1 35  1  0
  1 36  1  0
  2 33  2  0
  2  3  1  0
  3  4  2  0
  3 37  1  0
  4  5  1  0
  4 38  1  0
  5  6  1  0
  5 32  2  0
  6  7  1  1
  6  8  1  0
  6 15  1  0
  8  9  1  0
  8 39  1  0
  8 40  1  0
  9 14  1  0
  9 10  2  0
 10 11  1  0
 10 41  1  0
 11 12  2  0
 11 42  1  0
 12 13  1  0
 12 43  1  0
 13 14  2  0
 13 44  1  0
 14 45  1  0
 15 16  1  0
 15 17  1  0
 15 46  1  1
 16 47  1  0
 16 48  1  0
 16 49  1  0
 17 50  1  0
 18 17  1  0
 18 30  2  0
 18 19  1  0
 19 20  1  0
 19 21  1  0
 21 22  2  0
 21 51  1  0
 22 23  1  0
 22 30  1  0
 23 29  1  0
 23 24  2  0
 24 25  1  0
 24 52  1  0
 25 26  2  0
 25 53  1  0
 26 27  1  0
 26 28  1  0
 27 54  1  0
 27 55  1  0
 28 29  2  0
 28 56  1  0
 29 57  1  0
 30 31  1  0
 32 33  1  0
 32 58  1  0
 33 59  1  0
M  CHG  1  30   1
M  END
>  <DOCK_score>  (1) 
-60.858479

>  <SMILES>  (1) 
Cc1ccc([C@H](Cc2ccccc2)C(C)Nc2[nH]cc(-c3ccc(N)cc3)[nH+]2)cc1

$$$$
