C[C@@H](CSc1ccccc1)[NH2+]Cc1nc(NC(c2ccccc2)c2cccc3ccccc23)c[nH]1
     RDKit          3D

 66 70  0  0  1  0  0  0  0  0999 V2000
  136.5928  136.3324  163.3930 C   0  0  0  0  0  0  0  0  0  0  0  0
  135.3898  137.2298  163.0962 C   0  0  1  0  0  0  0  0  0  0  0  0
  134.8858  137.4823  164.0291 H   0  0  0  0  0  0  0  0  0  0  0  0
  135.8665  138.5119  162.4108 C   0  0  0  0  0  0  0  0  0  0  0  0
  134.5996  139.7983  162.5860 S   0  0  0  0  0  0  0  0  0  0  0  0
  133.5969  139.5646  161.1560 C   0  0  0  0  0  0  0  0  0  0  0  0
  132.2484  139.2580  161.2935 C   0  0  0  0  0  0  0  0  0  0  0  0
  131.4647  139.0802  160.1706 C   0  0  0  0  0  0  0  0  0  0  0  0
  132.0223  139.1971  158.9104 C   0  0  0  0  0  0  0  0  0  0  0  0
  133.3652  139.4968  158.7699 C   0  0  0  0  0  0  0  0  0  0  0  0
  134.1540  139.6806  159.8881 C   0  0  0  0  0  0  0  0  0  0  0  0
  134.4558  136.5200  162.2117 N   0  0  0  0  0  0  0  0  0  0  0  0
  134.9758  136.0067  161.5159 H   0  0  0  0  0  0  0  0  0  0  0  0
  133.8517  137.1871  161.7557 H   0  0  0  0  0  0  0  0  0  0  0  0
  133.6446  135.5863  163.0042 C   0  0  0  0  0  0  0  0  0  0  0  0
  132.6866  134.8582  162.0971 C   0  0  0  0  0  0  0  0  0  0  0  0
  132.5890  135.0237  160.8054 N   0  0  0  0  0  0  0  0  0  0  0  0
  131.6286  134.2167  160.3246 C   0  0  0  0  0  0  0  0  0  0  0  0
  131.2297  134.1157  158.9818 N   0  0  0  0  0  0  0  0  0  0  0  0
  130.1621  133.1868  158.6027 C   0  0  2  0  0  0  0  0  0  0  0  0
  130.3923  132.7053  157.1933 C   0  0  0  0  0  0  0  0  0  0  0  0
  129.8452  133.3969  156.1286 C   0  0  0  0  0  0  0  0  0  0  0  0
  130.0603  132.9579  154.8357 C   0  0  0  0  0  0  0  0  0  0  0  0
  130.8142  131.8219  154.6077 C   0  0  0  0  0  0  0  0  0  0  0  0
  131.3566  131.1272  155.6727 C   0  0  0  0  0  0  0  0  0  0  0  0
  131.1458  131.5690  156.9654 C   0  0  0  0  0  0  0  0  0  0  0  0
  128.8320  133.8907  158.6822 C   0  0  0  0  0  0  0  0  0  0  0  0
  128.7523  135.2305  158.4554 C   0  0  0  0  0  0  0  0  0  0  0  0
  127.5314  135.8983  158.5239 C   0  0  0  0  0  0  0  0  0  0  0  0
  126.3827  135.2303  158.8198 C   0  0  0  0  0  0  0  0  0  0  0  0
  126.4255  133.8467  159.0601 C   0  0  0  0  0  0  0  0  0  0  0  0
  125.2608  133.1229  159.3680 C   0  0  0  0  0  0  0  0  0  0  0  0
  125.3382  131.7806  159.5793 C   0  0  0  0  0  0  0  0  0  0  0  0
  126.5595  131.1125  159.5100 C   0  0  0  0  0  0  0  0  0  0  0  0
  127.7086  131.7812  159.2197 C   0  0  0  0  0  0  0  0  0  0  0  0
  127.6668  133.1664  158.9851 C   0  0  0  0  0  0  0  0  0  0  0  0
  131.1142  133.5187  161.3619 C   0  0  0  0  0  0  0  0  0  0  0  0
  131.7914  133.9266  162.4863 N   0  0  0  0  0  0  0  0  0  0  0  0
  131.6496  133.6074  163.3912 H   0  0  0  0  0  0  0  0  0  0  0  0
  137.0967  136.0799  162.4601 H   0  0  0  0  0  0  0  0  0  0  0  0
  137.2858  136.8590  164.0493 H   0  0  0  0  0  0  0  0  0  0  0  0
  136.2531  135.4190  163.8813 H   0  0  0  0  0  0  0  0  0  0  0  0
  136.7933  138.8490  162.8752 H   0  0  0  0  0  0  0  0  0  0  0  0
  136.0408  138.3152  161.3531 H   0  0  0  0  0  0  0  0  0  0  0  0
  131.8132  139.1627  162.2773 H   0  0  0  0  0  0  0  0  0  0  0  0
  130.4157  138.8457  160.2766 H   0  0  0  0  0  0  0  0  0  0  0  0
  131.4079  139.0535  158.0340 H   0  0  0  0  0  0  0  0  0  0  0  0
  133.7973  139.5869  157.7842 H   0  0  0  0  0  0  0  0  0  0  0  0
  135.2026  139.9140  159.7777 H   0  0  0  0  0  0  0  0  0  0  0  0
  133.0828  136.1409  163.7559 H   0  0  0  0  0  0  0  0  0  0  0  0
  134.2973  134.8657  163.4970 H   0  0  0  0  0  0  0  0  0  0  0  0
  131.6610  134.6609  158.3053 H   0  0  0  0  0  0  0  0  0  0  0  0
  130.1636  132.3348  159.2825 H   0  0  0  0  0  0  0  0  0  0  0  0
  129.2527  134.2821  156.3070 H   0  0  0  0  0  0  0  0  0  0  0  0
  129.6362  133.5005  154.0036 H   0  0  0  0  0  0  0  0  0  0  0  0
  130.9792  131.4769  153.5977 H   0  0  0  0  0  0  0  0  0  0  0  0
  131.9453  130.2394  155.4948 H   0  0  0  0  0  0  0  0  0  0  0  0
  131.5695  131.0263  157.7975 H   0  0  0  0  0  0  0  0  0  0  0  0
  129.6488  135.7841  158.2183 H   0  0  0  0  0  0  0  0  0  0  0  0
  127.4957  136.9618  158.3392 H   0  0  0  0  0  0  0  0  0  0  0  0
  125.4436  135.7612  158.8699 H   0  0  0  0  0  0  0  0  0  0  0  0
  124.3075  133.6272  159.4250 H   0  0  0  0  0  0  0  0  0  0  0  0
  124.4411  131.2262  159.8119 H   0  0  0  0  0  0  0  0  0  0  0  0
  126.5944  130.0481  159.6898 H   0  0  0  0  0  0  0  0  0  0  0  0
  128.6478  131.2504  159.1701 H   0  0  0  0  0  0  0  0  0  0  0  0
  130.3241  132.7837  161.3162 H   0  0  0  0  0  0  0  0  0  0  0  0
  1  2  1  0
  1 40  1  0
  1 41  1  0
  1 42  1  0
  2  3  1  1
  2  4  1  0
  2 12  1  0
  4  5  1  0
  4 43  1  0
  4 44  1  0
  5  6  1  0
  6 11  1  0
  6  7  2  0
  7  8  1  0
  7 45  1  0
  8  9  2  0
  8 46  1  0
  9 10  1  0
  9 47  1  0
 10 11  2  0
 10 48  1  0
 11 49  1  0
 12 13  1  0
 12 14  1  0
 12 15  1  0
 15 16  1  0
 15 50  1  0
 15 51  1  0
 16 38  1  0
 16 17  2  0
 17 18  1  0
 18 19  1  0
 18 37  2  0
 19 20  1  0
 19 52  1  0
 20 21  1  0
 20 27  1  0
 20 53  1  1
 21 26  1  0
 21 22  2  0
 22 23  1  0
 22 54  1  0
 23 24  2  0
 23 55  1  0
 24 25  1  0
 24 56  1  0
 25 26  2  0
 25 57  1  0
 26 58  1  0
 27 36  1  0
 27 28  2  0
 28 29  1  0
 28 59  1  0
 29 30  2  0
 29 60  1  0
 30 31  1  0
 30 61  1  0
 31 36  2  0
 31 32  1  0
 32 33  2  0
 32 62  1  0
 33 34  1  0
 33 63  1  0
 34 35  2  0
 34 64  1  0
 35 36  1  0
 35 65  1  0
 37 38  1  0
 37 66  1  0
 38 39  1  0
M  CHG  1  12   1
M  END
>  <DOCK_score>  (1) 
-57.113708

>  <SMILES>  (1) 
C[C@@H](CSc1ccccc1)[NH2+]Cc1nc(NC(c2ccccc2)c2cccc3ccccc23)c[nH]1

$$$$
