Oc1ccc(-c2ccc(-c3c[nH]c(N[C@@H](Cc4ccccc4)c4ccccc4)[nH+]3)cc2)cc1
     RDKit          3D

 59 63  0  0  1  0  0  0  0  0999 V2000
  130.5259  128.2966  149.6957 O   0  0  0  0  0  0  0  0  0  0  0  0
  130.5508  128.9861  150.8663 C   0  0  0  0  0  0  0  0  0  0  0  0
  130.7854  128.3165  152.0597 C   0  0  0  0  0  0  0  0  0  0  0  0
  130.8104  129.0133  153.2495 C   0  0  0  0  0  0  0  0  0  0  0  0
  130.6000  130.3915  153.2530 C   0  0  0  0  0  0  0  0  0  0  0  0
  130.6260  131.1433  154.5309 C   0  0  0  0  0  0  0  0  0  0  0  0
  129.8517  132.2947  154.6780 C   0  0  0  0  0  0  0  0  0  0  0  0
  129.8759  132.9937  155.8645 C   0  0  0  0  0  0  0  0  0  0  0  0
  130.6740  132.5502  156.9191 C   0  0  0  0  0  0  0  0  0  0  0  0
  130.7003  133.3028  158.1961 C   0  0  0  0  0  0  0  0  0  0  0  0
  130.3448  132.8220  159.4138 C   0  0  0  0  0  0  0  0  0  0  0  0
  130.5200  133.8455  160.3130 N   0  0  0  0  0  0  0  0  0  0  0  0
  130.3493  133.8075  161.2671 H   0  0  0  0  0  0  0  0  0  0  0  0
  130.9776  134.9227  159.6183 C   0  0  0  0  0  0  0  0  0  0  0  0
  131.2804  136.1609  160.1583 N   0  0  0  0  0  0  0  0  0  0  0  0
  131.7553  136.2609  161.5406 C   0  0  1  0  0  0  0  0  0  0  0  0
  132.6794  135.6933  161.6491 H   0  0  0  0  0  0  0  0  0  0  0  0
  132.0148  137.7288  161.8857 C   0  0  0  0  0  0  0  0  0  0  0  0
  133.3505  138.1475  161.3273 C   0  0  0  0  0  0  0  0  0  0  0  0
  134.4939  138.0061  162.0912 C   0  0  0  0  0  0  0  0  0  0  0  0
  135.7190  138.3906  161.5792 C   0  0  0  0  0  0  0  0  0  0  0  0
  135.8009  138.9154  160.3030 C   0  0  0  0  0  0  0  0  0  0  0  0
  134.6568  139.0613  159.5410 C   0  0  0  0  0  0  0  0  0  0  0  0
  133.4323  138.6731  160.0515 C   0  0  0  0  0  0  0  0  0  0  0  0
  130.7106  135.7030  162.4723 C   0  0  0  0  0  0  0  0  0  0  0  0
  131.0909  135.1102  163.6618 C   0  0  0  0  0  0  0  0  0  0  0  0
  130.1323  134.6019  164.5182 C   0  0  0  0  0  0  0  0  0  0  0  0
  128.7938  134.6790  164.1815 C   0  0  0  0  0  0  0  0  0  0  0  0
  128.4138  135.2671  162.9896 C   0  0  0  0  0  0  0  0  0  0  0  0
  129.3721  135.7788  162.1349 C   0  0  0  0  0  0  0  0  0  0  0  0
  131.0792  134.5963  158.3531 N   0  0  0  0  0  0  0  0  0  0  0  0
  131.3794  135.1847  157.6428 H   0  0  0  0  0  0  0  0  0  0  0  0
  131.4517  131.4018  156.7700 C   0  0  0  0  0  0  0  0  0  0  0  0
  131.4240  130.7006  155.5849 C   0  0  0  0  0  0  0  0  0  0  0  0
  130.3597  131.0601  152.0535 C   0  0  0  0  0  0  0  0  0  0  0  0
  130.3409  130.3585  150.8665 C   0  0  0  0  0  0  0  0  0  0  0  0
  130.6821  127.3474  149.7949 H   0  0  0  0  0  0  0  0  0  0  0  0
  130.9484  127.2490  152.0563 H   0  0  0  0  0  0  0  0  0  0  0  0
  130.9923  128.4917  154.1776 H   0  0  0  0  0  0  0  0  0  0  0  0
  129.2339  132.6380  153.8614 H   0  0  0  0  0  0  0  0  0  0  0  0
  129.2771  133.8853  155.9782 H   0  0  0  0  0  0  0  0  0  0  0  0
  129.9912  131.8255  159.6340 H   0  0  0  0  0  0  0  0  0  0  0  0
  131.1780  136.9623  159.6214 H   0  0  0  0  0  0  0  0  0  0  0  0
  132.0190  137.8521  162.9687 H   0  0  0  0  0  0  0  0  0  0  0  0
  131.2295  138.3482  161.4525 H   0  0  0  0  0  0  0  0  0  0  0  0
  134.4300  137.5957  163.0882 H   0  0  0  0  0  0  0  0  0  0  0  0
  136.6123  138.2804  162.1762 H   0  0  0  0  0  0  0  0  0  0  0  0
  136.7582  139.2158  159.9031 H   0  0  0  0  0  0  0  0  0  0  0  0
  134.7201  139.4754  158.5456 H   0  0  0  0  0  0  0  0  0  0  0  0
  132.5389  138.7841  159.4549 H   0  0  0  0  0  0  0  0  0  0  0  0
  132.1368  135.0469  163.9233 H   0  0  0  0  0  0  0  0  0  0  0  0
  130.4292  134.1420  165.4493 H   0  0  0  0  0  0  0  0  0  0  0  0
  128.0450  134.2795  164.8493 H   0  0  0  0  0  0  0  0  0  0  0  0
  127.3680  135.3270  162.7263 H   0  0  0  0  0  0  0  0  0  0  0  0
  129.0752  136.2382  161.2037 H   0  0  0  0  0  0  0  0  0  0  0  0
  132.0727  131.0607  157.5850 H   0  0  0  0  0  0  0  0  0  0  0  0
  132.0232  129.8092  155.4708 H   0  0  0  0  0  0  0  0  0  0  0  0
  130.1923  132.1271  152.0534 H   0  0  0  0  0  0  0  0  0  0  0  0
  130.1582  130.8764  149.9365 H   0  0  0  0  0  0  0  0  0  0  0  0
  1  2  1  0
  1 37  1  0
  2 36  2  0
  2  3  1  0
  3  4  2  0
  3 38  1  0
  4  5  1  0
  4 39  1  0
  5  6  1  0
  5 35  2  0
  6 34  1  0
  6  7  2  0
  7  8  1  0
  7 40  1  0
  8  9  2  0
  8 41  1  0
  9 10  1  0
  9 33  1  0
 10 31  1  0
 10 11  2  0
 11 12  1  0
 11 42  1  0
 12 13  1  0
 12 14  1  0
 14 15  1  0
 14 31  2  0
 15 16  1  0
 15 43  1  0
 16 17  1  6
 16 18  1  0
 16 25  1  0
 18 19  1  0
 18 44  1  0
 18 45  1  0
 19 24  1  0
 19 20  2  0
 20 21  1  0
 20 46  1  0
 21 22  2  0
 21 47  1  0
 22 23  1  0
 22 48  1  0
 23 24  2  0
 23 49  1  0
 24 50  1  0
 25 30  1  0
 25 26  2  0
 26 27  1  0
 26 51  1  0
 27 28  2  0
 27 52  1  0
 28 29  1  0
 28 53  1  0
 29 30  2  0
 29 54  1  0
 30 55  1  0
 31 32  1  0
 33 34  2  0
 33 56  1  0
 34 57  1  0
 35 36  1  0
 35 58  1  0
 36 59  1  0
M  CHG  1  31   1
M  END
>  <DOCK_score>  (1) 
-55.941505

>  <SMILES>  (1) 
Oc1ccc(-c2ccc(-c3c[nH]c(N[C@@H](Cc4ccccc4)c4ccccc4)[nH+]3)cc2)cc1

$$$$
