Nc1ccc(Nc2[nH]cc(-c3ccc(Cl)cc3)[nH+]2)cc1
     RDKit          3D

 34 36  0  0  1  0  0  0  0  0999 V2000
  126.5410  136.3760  162.8163 N   0  0  0  0  0  0  0  0  0  0  0  0
  127.4490  136.0464  161.8035 C   0  0  0  0  0  0  0  0  0  0  0  0
  128.6557  135.4372  162.1237 C   0  0  0  0  0  0  0  0  0  0  0  0
  129.5537  135.1172  161.1251 C   0  0  0  0  0  0  0  0  0  0  0  0
  129.2458  135.3941  159.7995 C   0  0  0  0  0  0  0  0  0  0  0  0
  130.1544  135.0643  158.7860 N   0  0  0  0  0  0  0  0  0  0  0  0
  130.0926  133.8214  158.1780 C   0  0  0  0  0  0  0  0  0  0  0  0
  129.6690  132.6702  158.7682 N   0  0  0  0  0  0  0  0  0  0  0  0
  129.3589  132.5734  159.6821 H   0  0  0  0  0  0  0  0  0  0  0  0
  129.7586  131.6716  157.8293 C   0  0  0  0  0  0  0  0  0  0  0  0
  130.2425  132.2387  156.6963 C   0  0  0  0  0  0  0  0  0  0  0  0
  130.5109  131.5393  155.4160 C   0  0  0  0  0  0  0  0  0  0  0  0
  129.8450  131.9269  154.2545 C   0  0  0  0  0  0  0  0  0  0  0  0
  130.1018  131.2762  153.0651 C   0  0  0  0  0  0  0  0  0  0  0  0
  131.0109  130.2334  153.0260 C   0  0  0  0  0  0  0  0  0  0  0  0
  131.3250  129.4149  151.5276 Cl  0  0  0  0  0  0  0  0  0  0  0  0
  131.6713  129.8408  154.1782 C   0  0  0  0  0  0  0  0  0  0  0  0
  131.4254  130.4884  155.3716 C   0  0  0  0  0  0  0  0  0  0  0  0
  130.4376  133.5584  156.9409 N   0  0  0  0  0  0  0  0  0  0  0  0
  130.7785  134.2043  156.3027 H   0  0  0  0  0  0  0  0  0  0  0  0
  128.0394  136.0029  159.4794 C   0  0  0  0  0  0  0  0  0  0  0  0
  127.1435  136.3277  160.4787 C   0  0  0  0  0  0  0  0  0  0  0  0
  126.7547  136.1786  163.7421 H   0  0  0  0  0  0  0  0  0  0  0  0
  125.6983  136.8003  162.5930 H   0  0  0  0  0  0  0  0  0  0  0  0
  128.8934  135.2182  163.1544 H   0  0  0  0  0  0  0  0  0  0  0  0
  130.4939  134.6477  161.3744 H   0  0  0  0  0  0  0  0  0  0  0  0
  130.8270  135.7064  158.5098 H   0  0  0  0  0  0  0  0  0  0  0  0
  129.4985  130.6326  157.9683 H   0  0  0  0  0  0  0  0  0  0  0  0
  129.1325  132.7378  154.2845 H   0  0  0  0  0  0  0  0  0  0  0  0
  129.5891  131.5783  152.1637 H   0  0  0  0  0  0  0  0  0  0  0  0
  132.3795  129.0262  154.1428 H   0  0  0  0  0  0  0  0  0  0  0  0
  131.9413  130.1820  156.2697 H   0  0  0  0  0  0  0  0  0  0  0  0
  127.8018  136.2222  158.4490 H   0  0  0  0  0  0  0  0  0  0  0  0
  126.2053  136.8013  160.2297 H   0  0  0  0  0  0  0  0  0  0  0  0
  1  2  1  0
  1 23  1  0
  1 24  1  0
  2 22  2  0
  2  3  1  0
  3  4  2  0
  3 25  1  0
  4  5  1  0
  4 26  1  0
  5  6  1  0
  5 21  2  0
  6 27  1  0
  7  6  1  0
  7 19  2  0
  7  8  1  0
  8  9  1  0
  8 10  1  0
 10 11  2  0
 10 28  1  0
 11 12  1  0
 11 19  1  0
 12 18  1  0
 12 13  2  0
 13 14  1  0
 13 29  1  0
 14 15  2  0
 14 30  1  0
 15 16  1  0
 15 17  1  0
 17 18  2  0
 17 31  1  0
 18 32  1  0
 19 20  1  0
 21 22  1  0
 21 33  1  0
 22 34  1  0
M  CHG  1  19   1
M  END
>  <DOCK_score>  (1) 
-49.502846

>  <SMILES>  (1) 
Nc1ccc(Nc2[nH]cc(-c3ccc(Cl)cc3)[nH+]2)cc1

$$$$
