Oc1ccc2c(c1)[C@@H](NC1CN(c3cc[nH+]cc3)C1)c1ccccc1-2
     RDKit          3D

 45 49  0  0  1  0  0  0  0  0999 V2000
  126.3288  139.0711  163.1869 O   0  0  0  0  0  0  0  0  0  0  0  0
  127.6051  139.3542  162.8166 C   0  0  0  0  0  0  0  0  0  0  0  0
  128.2274  140.5017  163.2901 C   0  0  0  0  0  0  0  0  0  0  0  0
  129.5237  140.7894  162.9217 C   0  0  0  0  0  0  0  0  0  0  0  0
  130.2145  139.9295  162.0648 C   0  0  0  0  0  0  0  0  0  0  0  0
  129.5820  138.7835  161.5893 C   0  0  0  0  0  0  0  0  0  0  0  0
  128.2856  138.4993  161.9599 C   0  0  0  0  0  0  0  0  0  0  0  0
  130.5617  138.0598  160.6983 C   0  0  1  0  0  0  0  0  0  0  0  0
  130.7677  137.0661  161.0961 H   0  0  0  0  0  0  0  0  0  0  0  0
  130.0257  137.9583  159.3344 N   0  0  0  0  0  0  0  0  0  0  0  0
  129.0552  136.8604  159.2305 C   0  0  0  0  0  0  0  0  0  0  0  0
  129.6618  135.4703  159.4936 C   0  0  0  0  0  0  0  0  0  0  0  0
  128.8464  135.0070  158.3493 N   0  0  0  0  0  0  0  0  0  0  0  0
  129.5755  134.1477  157.5328 C   0  0  0  0  0  0  0  0  0  0  0  0
  130.5826  133.3407  158.0617 C   0  0  0  0  0  0  0  0  0  0  0  0
  131.2783  132.4990  157.2197 C   0  0  0  0  0  0  0  0  0  0  0  0
  131.0081  132.4589  155.9284 N   0  0  0  0  0  0  0  0  0  0  0  0
  131.5163  131.8599  155.3592 H   0  0  0  0  0  0  0  0  0  0  0  0
  130.0667  133.2106  155.3889 C   0  0  0  0  0  0  0  0  0  0  0  0
  129.3219  134.0751  156.1632 C   0  0  0  0  0  0  0  0  0  0  0  0
  128.8199  136.3760  157.7884 C   0  0  0  0  0  0  0  0  0  0  0  0
  131.8208  138.8917  160.7010 C   0  0  0  0  0  0  0  0  0  0  0  0
  133.0382  138.7303  160.0747 C   0  0  0  0  0  0  0  0  0  0  0  0
  134.0401  139.6677  160.2557 C   0  0  0  0  0  0  0  0  0  0  0  0
  133.8228  140.7675  161.0657 C   0  0  0  0  0  0  0  0  0  0  0  0
  132.6078  140.9368  161.6969 C   0  0  0  0  0  0  0  0  0  0  0  0
  131.5923  139.9958  161.5181 C   0  0  0  0  0  0  0  0  0  0  0  0
  125.9800  138.2546  162.8037 H   0  0  0  0  0  0  0  0  0  0  0  0
  127.6954  141.1681  163.9528 H   0  0  0  0  0  0  0  0  0  0  0  0
  130.0059  141.6804  163.2958 H   0  0  0  0  0  0  0  0  0  0  0  0
  127.8006  137.6088  161.5880 H   0  0  0  0  0  0  0  0  0  0  0  0
  130.7690  137.8489  158.6609 H   0  0  0  0  0  0  0  0  0  0  0  0
  128.1362  137.0520  159.7844 H   0  0  0  0  0  0  0  0  0  0  0  0
  130.7361  135.4193  159.3167 H   0  0  0  0  0  0  0  0  0  0  0  0
  129.3658  135.0356  160.4483 H   0  0  0  0  0  0  0  0  0  0  0  0
  130.8119  133.3721  159.1166 H   0  0  0  0  0  0  0  0  0  0  0  0
  132.0573  131.8679  157.6212 H   0  0  0  0  0  0  0  0  0  0  0  0
  129.8775  133.1481  154.3274 H   0  0  0  0  0  0  0  0  0  0  0  0
  128.5534  134.6877  155.7154 H   0  0  0  0  0  0  0  0  0  0  0  0
  127.8511  136.6648  157.3807 H   0  0  0  0  0  0  0  0  0  0  0  0
  129.6471  136.5916  157.1122 H   0  0  0  0  0  0  0  0  0  0  0  0
  133.2101  137.8720  159.4421 H   0  0  0  0  0  0  0  0  0  0  0  0
  134.9932  139.5401  159.7640 H   0  0  0  0  0  0  0  0  0  0  0  0
  134.6074  141.4965  161.2050 H   0  0  0  0  0  0  0  0  0  0  0  0
  132.4423  141.7969  162.3287 H   0  0  0  0  0  0  0  0  0  0  0  0
  1  2  1  0
  1 28  1  0
  2  7  2  0
  2  3  1  0
  3  4  2  0
  3 29  1  0
  4  5  1  0
  4 30  1  0
  5 27  1  0
  5  6  2  0
  6  7  1  0
  6  8  1  0
  7 31  1  0
  8  9  1  1
  8 10  1  0
  8 22  1  0
 10 11  1  0
 10 32  1  0
 11 21  1  0
 11 12  1  0
 11 33  1  0
 12 13  1  0
 12 34  1  0
 12 35  1  0
 13 14  1  0
 13 21  1  0
 14 20  1  0
 14 15  2  0
 15 16  1  0
 15 36  1  0
 16 17  2  0
 16 37  1  0
 17 18  1  0
 17 19  1  0
 19 20  2  0
 19 38  1  0
 20 39  1  0
 21 40  1  0
 21 41  1  0
 22 27  2  0
 22 23  1  0
 23 24  2  0
 23 42  1  0
 24 25  1  0
 24 43  1  0
 25 26  2  0
 25 44  1  0
 26 27  1  0
 26 45  1  0
M  CHG  1  17   1
M  END
>  <DOCK_score>  (1) 
-41.702007

>  <SMILES>  (1) 
Oc1ccc2c(c1)[C@@H](NC1CN(c3cc[nH+]cc3)C1)c1ccccc1-2

$$$$
