Nc1ccc(CC[C@@H](Cc2ccc(F)cc2F)Nc2[nH]cc(-c3ccc(N)cc3)[nH+]2)cc1
     RDKit          3D

 58 61  0  0  1  0  0  0  0  0999 V2000
  136.7581  138.5238  163.8897 N   0  0  0  0  0  0  0  0  0  0  0  0
  135.8161  137.7275  163.2343 C   0  0  0  0  0  0  0  0  0  0  0  0
  135.5458  137.9345  161.8876 C   0  0  0  0  0  0  0  0  0  0  0  0
  134.6134  137.1455  161.2430 C   0  0  0  0  0  0  0  0  0  0  0  0
  133.9492  136.1505  161.9364 C   0  0  0  0  0  0  0  0  0  0  0  0
  132.9325  135.2917  161.2295 C   0  0  0  0  0  0  0  0  0  0  0  0
  131.5521  135.9427  161.3371 C   0  0  0  0  0  0  0  0  0  0  0  0
  130.5198  135.0709  160.6194 C   0  0  1  0  0  0  0  0  0  0  0  0
  130.4931  134.0843  161.0816 H   0  0  0  0  0  0  0  0  0  0  0  0
  129.1394  135.7218  160.7267 C   0  0  0  0  0  0  0  0  0  0  0  0
  128.0743  134.6853  160.4774 C   0  0  0  0  0  0  0  0  0  0  0  0
  127.1906  134.8416  159.4260 C   0  0  0  0  0  0  0  0  0  0  0  0
  126.2099  133.8947  159.1998 C   0  0  0  0  0  0  0  0  0  0  0  0
  126.1186  132.7820  160.0200 C   0  0  0  0  0  0  0  0  0  0  0  0
  125.1630  131.8540  159.7949 F   0  0  0  0  0  0  0  0  0  0  0  0
  127.0064  132.6217  161.0690 C   0  0  0  0  0  0  0  0  0  0  0  0
  127.9849  133.5738  161.2982 C   0  0  0  0  0  0  0  0  0  0  0  0
  128.8525  133.4183  162.3221 F   0  0  0  0  0  0  0  0  0  0  0  0
  130.8890  134.9388  159.2077 N   0  0  0  0  0  0  0  0  0  0  0  0
  130.5501  133.7934  158.5078 C   0  0  0  0  0  0  0  0  0  0  0  0
  129.8730  132.7269  159.0133 N   0  0  0  0  0  0  0  0  0  0  0  0
  129.5439  132.6329  159.9210 H   0  0  0  0  0  0  0  0  0  0  0  0
  129.7419  131.8070  158.0002 C   0  0  0  0  0  0  0  0  0  0  0  0
  130.3423  132.3382  156.9067 C   0  0  0  0  0  0  0  0  0  0  0  0
  130.4490  131.6989  155.5723 C   0  0  0  0  0  0  0  0  0  0  0  0
  129.8885  132.3167  154.4553 C   0  0  0  0  0  0  0  0  0  0  0  0
  129.9935  131.7232  153.2151 C   0  0  0  0  0  0  0  0  0  0  0  0
  130.6476  130.5044  153.0800 C   0  0  0  0  0  0  0  0  0  0  0  0
  130.7477  129.9021  151.8235 N   0  0  0  0  0  0  0  0  0  0  0  0
  131.2027  129.8841  154.1929 C   0  0  0  0  0  0  0  0  0  0  0  0
  131.1051  130.4767  155.4342 C   0  0  0  0  0  0  0  0  0  0  0  0
  130.8238  133.5598  157.2474 N   0  0  0  0  0  0  0  0  0  0  0  0
  131.2973  134.1633  156.6536 H   0  0  0  0  0  0  0  0  0  0  0  0
  134.2120  135.9455  163.2785 C   0  0  0  0  0  0  0  0  0  0  0  0
  135.1471  136.7271  163.9280 C   0  0  0  0  0  0  0  0  0  0  0  0
  137.2243  139.2224  163.4043 H   0  0  0  0  0  0  0  0  0  0  0  0
  136.9460  138.3783  164.8300 H   0  0  0  0  0  0  0  0  0  0  0  0
  136.0638  138.7118  161.3454 H   0  0  0  0  0  0  0  0  0  0  0  0
  134.4025  137.3062  160.1959 H   0  0  0  0  0  0  0  0  0  0  0  0
  132.9058  134.3050  161.6920 H   0  0  0  0  0  0  0  0  0  0  0  0
  133.2071  135.1935  160.1793 H   0  0  0  0  0  0  0  0  0  0  0  0
  131.5788  136.9294  160.8747 H   0  0  0  0  0  0  0  0  0  0  0  0
  131.2774  136.0409  162.3873 H   0  0  0  0  0  0  0  0  0  0  0  0
  129.0537  136.5164  159.9853 H   0  0  0  0  0  0  0  0  0  0  0  0
  129.0120  136.1410  161.7248 H   0  0  0  0  0  0  0  0  0  0  0  0
  127.2639  135.7066  158.7837 H   0  0  0  0  0  0  0  0  0  0  0  0
  125.5172  134.0201  158.3808 H   0  0  0  0  0  0  0  0  0  0  0  0
  126.9358  131.7546  161.7089 H   0  0  0  0  0  0  0  0  0  0  0  0
  131.3708  135.6540  158.7635 H   0  0  0  0  0  0  0  0  0  0  0  0
  129.2541  130.8454  158.0632 H   0  0  0  0  0  0  0  0  0  0  0  0
  129.3758  133.2615  154.5607 H   0  0  0  0  0  0  0  0  0  0  0  0
  129.5632  132.2037  152.3489 H   0  0  0  0  0  0  0  0  0  0  0  0
  131.2044  129.0517  151.7283 H   0  0  0  0  0  0  0  0  0  0  0  0
  130.3606  130.3344  151.0462 H   0  0  0  0  0  0  0  0  0  0  0  0
  131.7105  128.9370  154.0856 H   0  0  0  0  0  0  0  0  0  0  0  0
  131.5368  129.9945  156.2988 H   0  0  0  0  0  0  0  0  0  0  0  0
  133.6880  135.1707  163.8185 H   0  0  0  0  0  0  0  0  0  0  0  0
  135.3550  136.5634  164.9751 H   0  0  0  0  0  0  0  0  0  0  0  0
  1  2  1  0
  1 36  1  0
  1 37  1  0
  2 35  2  0
  2  3  1  0
  3  4  2  0
  3 38  1  0
  4  5  1  0
  4 39  1  0
  5  6  1  0
  5 34  2  0
  6  7  1  0
  6 40  1  0
  6 41  1  0
  7  8  1  0
  7 42  1  0
  7 43  1  0
  8  9  1  1
  8 10  1  0
  8 19  1  0
 10 11  1  0
 10 44  1  0
 10 45  1  0
 11 17  1  0
 11 12  2  0
 12 13  1  0
 12 46  1  0
 13 14  2  0
 13 47  1  0
 14 15  1  0
 14 16  1  0
 16 17  2  0
 16 48  1  0
 17 18  1  0
 19 49  1  0
 20 19  1  0
 20 32  2  0
 20 21  1  0
 21 22  1  0
 21 23  1  0
 23 24  2  0
 23 50  1  0
 24 25  1  0
 24 32  1  0
 25 31  1  0
 25 26  2  0
 26 27  1  0
 26 51  1  0
 27 28  2  0
 27 52  1  0
 28 29  1  0
 28 30  1  0
 29 53  1  0
 29 54  1  0
 30 31  2  0
 30 55  1  0
 31 56  1  0
 32 33  1  0
 34 35  1  0
 34 57  1  0
 35 58  1  0
M  CHG  1  32   1
M  END
>  <DOCK_score>  (1) 
-61.970097

>  <SMILES>  (1) 
Nc1ccc(CC[C@@H](Cc2ccc(F)cc2F)Nc2[nH]cc(-c3ccc(N)cc3)[nH+]2)cc1

$$$$
