Cc1cccnc1CC1=CC[C@H]([NH+]=C(NCc2ncccc2F)NC2=CCC(=O)N2)C1
     RDKit          3D

 57 60  0  0  1  0  0  0  0  0999 V2000
  126.6306  140.5513  166.0445 C   0  0  0  0  0  0  0  0  0  0  0  0
  126.6292  139.0665  166.3020 C   0  0  0  0  0  0  0  0  0  0  0  0
  126.6248  138.5790  167.6002 C   0  0  0  0  0  0  0  0  0  0  0  0
  126.6289  137.2058  167.7894 C   0  0  0  0  0  0  0  0  0  0  0  0
  126.6317  136.3738  166.6855 C   0  0  0  0  0  0  0  0  0  0  0  0
  126.6307  136.8727  165.4650 N   0  0  0  0  0  0  0  0  0  0  0  0
  126.6270  138.1735  165.2476 C   0  0  0  0  0  0  0  0  0  0  0  0
  126.6265  138.6921  163.8325 C   0  0  0  0  0  0  0  0  0  0  0  0
  128.0472  138.8627  163.3598 C   0  0  0  0  0  0  0  0  0  0  0  0
  128.4331  139.7545  162.4883 C   0  0  0  0  0  0  0  0  0  0  0  0
  129.9198  139.6595  162.2346 C   0  0  0  0  0  0  0  0  0  0  0  0
  130.3255  138.2742  162.7891 C   0  0  2  0  0  0  0  0  0  0  0  0
  131.3054  138.3147  163.2646 H   0  0  0  0  0  0  0  0  0  0  0  0
  130.2973  137.2570  161.7351 N   0  0  0  0  0  0  0  0  0  0  0  0
  129.7127  136.4877  161.8191 H   0  0  0  0  0  0  0  0  0  0  0  0
  131.0574  137.3862  160.6845 C   0  0  0  0  0  0  0  0  0  0  0  0
  132.2625  138.0409  160.7843 N   0  0  0  0  0  0  0  0  0  0  0  0
  133.1172  138.1860  159.6033 C   0  0  0  0  0  0  0  0  0  0  0  0
  134.3695  138.9355  159.9785 C   0  0  0  0  0  0  0  0  0  0  0  0
  134.5364  139.3457  161.2207 N   0  0  0  0  0  0  0  0  0  0  0  0
  135.6176  140.0006  161.5957 C   0  0  0  0  0  0  0  0  0  0  0  0
  136.6192  140.2923  160.6888 C   0  0  0  0  0  0  0  0  0  0  0  0
  136.4791  139.8830  159.3722 C   0  0  0  0  0  0  0  0  0  0  0  0
  135.3294  139.1909  159.0145 C   0  0  0  0  0  0  0  0  0  0  0  0
  135.1499  138.7729  157.7423 F   0  0  0  0  0  0  0  0  0  0  0  0
  130.6540  136.8670  159.4746 N   0  0  0  0  0  0  0  0  0  0  0  0
  129.4334  136.2038  159.3735 C   0  0  0  0  0  0  0  0  0  0  0  0
  129.1921  135.2264  158.5097 C   0  0  0  0  0  0  0  0  0  0  0  0
  127.7585  134.7939  158.7393 C   0  0  0  0  0  0  0  0  0  0  0  0
  127.2826  135.7036  159.8540 C   0  0  0  0  0  0  0  0  0  0  0  0
  126.1832  135.7186  160.3661 O   0  0  0  0  0  0  0  0  0  0  0  0
  128.3310  136.4928  160.1588 N   0  0  0  0  0  0  0  0  0  0  0  0
  129.2130  138.0283  163.8371 C   0  0  0  0  0  0  0  0  0  0  0  0
  125.6034  140.9105  165.9836 H   0  0  0  0  0  0  0  0  0  0  0  0
  127.1460  141.0607  166.8587 H   0  0  0  0  0  0  0  0  0  0  0  0
  127.1436  140.7565  165.1049 H   0  0  0  0  0  0  0  0  0  0  0  0
  126.6222  139.2533  168.4439 H   0  0  0  0  0  0  0  0  0  0  0  0
  126.6301  136.7910  168.7866 H   0  0  0  0  0  0  0  0  0  0  0  0
  126.6352  135.3027  166.8244 H   0  0  0  0  0  0  0  0  0  0  0  0
  126.1142  139.6536  163.7981 H   0  0  0  0  0  0  0  0  0  0  0  0
  126.1110  137.9823  163.1855 H   0  0  0  0  0  0  0  0  0  0  0  0
  127.7763  140.4668  162.0113 H   0  0  0  0  0  0  0  0  0  0  0  0
  130.1272  139.7165  161.1661 H   0  0  0  0  0  0  0  0  0  0  0  0
  130.4471  140.4510  162.7674 H   0  0  0  0  0  0  0  0  0  0  0  0
  132.5468  138.4066  161.6365 H   0  0  0  0  0  0  0  0  0  0  0  0
  133.3841  137.1993  159.2244 H   0  0  0  0  0  0  0  0  0  0  0  0
  132.5806  138.7383  158.8319 H   0  0  0  0  0  0  0  0  0  0  0  0
  135.7201  140.3165  162.6234 H   0  0  0  0  0  0  0  0  0  0  0  0
  137.5003  140.8324  161.0025 H   0  0  0  0  0  0  0  0  0  0  0  0
  137.2453  140.0972  158.6419 H   0  0  0  0  0  0  0  0  0  0  0  0
  131.2199  136.9630  158.6926 H   0  0  0  0  0  0  0  0  0  0  0  0
  129.8823  134.8183  157.7860 H   0  0  0  0  0  0  0  0  0  0  0  0
  127.7155  133.7505  159.0516 H   0  0  0  0  0  0  0  0  0  0  0  0
  127.1655  134.9498  157.8380 H   0  0  0  0  0  0  0  0  0  0  0  0
  128.3154  137.1789  160.8442 H   0  0  0  0  0  0  0  0  0  0  0  0
  129.5376  138.3588  164.8238 H   0  0  0  0  0  0  0  0  0  0  0  0
  128.9407  136.9731  163.8597 H   0  0  0  0  0  0  0  0  0  0  0  0
  1  2  1  0
  1 34  1  0
  1 35  1  0
  1 36  1  0
  2  7  2  0
  2  3  1  0
  3  4  2  0
  3 37  1  0
  4  5  1  0
  4 38  1  0
  5  6  2  0
  5 39  1  0
  6  7  1  0
  7  8  1  0
  8  9  1  0
  8 40  1  0
  8 41  1  0
  9 33  1  0
  9 10  2  0
 10 11  1  0
 10 42  1  0
 11 12  1  0
 11 43  1  0
 11 44  1  0
 12 13  1  1
 12 14  1  0
 12 33  1  0
 14 15  1  0
 16 14  2  0
 16 17  1  0
 16 26  1  0
 17 18  1  0
 17 45  1  0
 18 19  1  0
 18 46  1  0
 18 47  1  0
 19 24  1  0
 19 20  2  0
 20 21  1  0
 21 22  2  0
 21 48  1  0
 22 23  1  0
 22 49  1  0
 23 24  2  0
 23 50  1  0
 24 25  1  0
 26 27  1  0
 26 51  1  0
 27 32  1  0
 27 28  2  0
 28 29  1  0
 28 52  1  0
 29 30  1  0
 29 53  1  0
 29 54  1  0
 30 31  2  0
 30 32  1  0
 32 55  1  0
 33 56  1  0
 33 57  1  0
M  CHG  1  14   1
M  END
>  <DOCK_score>  (1) 
-42.24044

>  <SMILES>  (1) 
Cc1cccnc1CC1=CC[C@H]([NH+]=C(NCc2ncccc2F)NC2=CCC(=O)N2)C1

$$$$
