CC=CSC[C@@H](Nc1[nH]cc(-c2ccc(Br)cc2)[nH+]1)c1ccc2c(n1)CCC2
     RDKit          3D

 52 55  0  0  1  0  0  0  0  0999 V2000
  125.3749  133.0098  161.2800 C   0  0  0  0  0  0  0  0  0  0  0  0
  126.0997  133.9623  160.3644 C   0  0  0  0  0  0  0  0  0  0  0  0
  126.8420  134.9303  160.8718 C   0  0  0  0  0  0  0  0  0  0  0  0
  127.6895  136.0440  159.8012 S   0  0  0  0  0  0  0  0  0  0  0  0
  129.1558  136.5014  160.7663 C   0  0  0  0  0  0  0  0  0  0  0  0
  130.2048  135.3929  160.6566 C   0  0  1  0  0  0  0  0  0  0  0  0
  129.7910  134.4616  161.0435 H   0  0  0  0  0  0  0  0  0  0  0  0
  130.5808  135.2138  159.2520 N   0  0  0  0  0  0  0  0  0  0  0  0
  130.3848  133.9909  158.6335 C   0  0  0  0  0  0  0  0  0  0  0  0
  129.8487  132.8844  159.2168 N   0  0  0  0  0  0  0  0  0  0  0  0
  129.5383  132.8111  160.1330 H   0  0  0  0  0  0  0  0  0  0  0  0
  129.8285  131.8902  158.2688 C   0  0  0  0  0  0  0  0  0  0  0  0
  130.3522  132.4175  157.1345 C   0  0  0  0  0  0  0  0  0  0  0  0
  130.5300  131.7088  155.8436 C   0  0  0  0  0  0  0  0  0  0  0  0
  129.8915  132.1753  154.6959 C   0  0  0  0  0  0  0  0  0  0  0  0
  130.0652  131.5160  153.4963 C   0  0  0  0  0  0  0  0  0  0  0  0
  130.8620  130.3858  153.4340 C   0  0  0  0  0  0  0  0  0  0  0  0
  131.0887  129.4823  151.7883 Br  0  0  0  0  0  0  0  0  0  0  0  0
  131.4937  129.9149  154.5719 C   0  0  0  0  0  0  0  0  0  0  0  0
  131.3316  130.5705  155.7754 C   0  0  0  0  0  0  0  0  0  0  0  0
  130.6796  133.7095  157.3877 N   0  0  0  0  0  0  0  0  0  0  0  0
  131.0714  134.3259  156.7494 H   0  0  0  0  0  0  0  0  0  0  0  0
  131.4228  135.7728  161.4583 C   0  0  0  0  0  0  0  0  0  0  0  0
  131.5065  135.4061  162.7885 C   0  0  0  0  0  0  0  0  0  0  0  0
  132.6322  135.7622  163.5138 C   0  0  0  0  0  0  0  0  0  0  0  0
  133.6359  136.4746  162.8734 C   0  0  0  0  0  0  0  0  0  0  0  0
  133.4854  136.8079  161.5410 C   0  0  0  0  0  0  0  0  0  0  0  0
  132.3950  136.4498  160.8831 N   0  0  0  0  0  0  0  0  0  0  0  0
  134.7013  137.5787  161.0698 C   0  0  0  0  0  0  0  0  0  0  0  0
  135.7940  137.2999  162.1275 C   0  0  0  0  0  0  0  0  0  0  0  0
  134.9587  136.9951  163.3895 C   0  0  0  0  0  0  0  0  0  0  0  0
  124.6839  133.5680  161.9118 H   0  0  0  0  0  0  0  0  0  0  0  0
  124.8187  132.2858  160.6846 H   0  0  0  0  0  0  0  0  0  0  0  0
  126.0977  132.4866  161.9062 H   0  0  0  0  0  0  0  0  0  0  0  0
  126.0123  133.8537  159.2934 H   0  0  0  0  0  0  0  0  0  0  0  0
  126.9294  135.0389  161.9427 H   0  0  0  0  0  0  0  0  0  0  0  0
  128.8759  136.6345  161.8113 H   0  0  0  0  0  0  0  0  0  0  0  0
  129.5695  137.4327  160.3794 H   0  0  0  0  0  0  0  0  0  0  0  0
  130.9673  135.9520  158.7555 H   0  0  0  0  0  0  0  0  0  0  0  0
  129.4645  130.8821  158.4014 H   0  0  0  0  0  0  0  0  0  0  0  0
  129.2655  133.0542  154.7446 H   0  0  0  0  0  0  0  0  0  0  0  0
  129.5747  131.8797  152.6054 H   0  0  0  0  0  0  0  0  0  0  0  0
  132.1143  129.0327  154.5180 H   0  0  0  0  0  0  0  0  0  0  0  0
  131.8252  130.2025  156.6626 H   0  0  0  0  0  0  0  0  0  0  0  0
  130.7066  134.8504  163.2552 H   0  0  0  0  0  0  0  0  0  0  0  0
  132.7269  135.4899  164.5546 H   0  0  0  0  0  0  0  0  0  0  0  0
  135.0216  137.2189  160.0921 H   0  0  0  0  0  0  0  0  0  0  0  0
  134.4793  138.6450  161.0255 H   0  0  0  0  0  0  0  0  0  0  0  0
  136.4205  138.1786  162.2804 H   0  0  0  0  0  0  0  0  0  0  0  0
  136.3969  136.4372  161.8443 H   0  0  0  0  0  0  0  0  0  0  0  0
  134.8065  137.9043  163.9712 H   0  0  0  0  0  0  0  0  0  0  0  0
  135.4531  136.2365  163.9963 H   0  0  0  0  0  0  0  0  0  0  0  0
  1  2  1  0
  1 32  1  0
  1 33  1  0
  1 34  1  0
  2  3  2  0
  2 35  1  0
  3  4  1  0
  3 36  1  0
  4  5  1  0
  5  6  1  0
  5 37  1  0
  5 38  1  0
  6  7  1  1
  6  8  1  0
  6 23  1  0
  8 39  1  0
  9  8  1  0
  9 21  2  0
  9 10  1  0
 10 11  1  0
 10 12  1  0
 12 13  2  0
 12 40  1  0
 13 14  1  0
 13 21  1  0
 14 20  1  0
 14 15  2  0
 15 16  1  0
 15 41  1  0
 16 17  2  0
 16 42  1  0
 17 18  1  0
 17 19  1  0
 19 20  2  0
 19 43  1  0
 20 44  1  0
 21 22  1  0
 23 28  1  0
 23 24  2  0
 24 25  1  0
 24 45  1  0
 25 26  2  0
 25 46  1  0
 26 31  1  0
 26 27  1  0
 27 28  2  0
 27 29  1  0
 29 30  1  0
 29 47  1  0
 29 48  1  0
 30 31  1  0
 30 49  1  0
 30 50  1  0
 31 51  1  0
 31 52  1  0
M  CHG  1  21   1
M  END
>  <DOCK_score>  (1) 
-56.598106

>  <SMILES>  (1) 
CC=CSC[C@@H](Nc1[nH]cc(-c2ccc(Br)cc2)[nH+]1)c1ccc2c(n1)CCC2

$$$$
