CCC[C@H](Nc1[nH]cc(-c2ccc(N)cc2)[nH+]1)c1ccccc1
     RDKit          3D

 46 48  0  0  1  0  0  0  0  0999 V2000
  129.2096  138.2051  161.7177 C   0  0  0  0  0  0  0  0  0  0  0  0
  128.8082  136.8616  161.1053 C   0  0  0  0  0  0  0  0  0  0  0  0
  129.5924  136.6366  159.8109 C   0  0  0  0  0  0  0  0  0  0  0  0
  129.1911  135.2932  159.1985 C   0  0  2  0  0  0  0  0  0  0  0  0
  129.0741  134.5533  159.9904 H   0  0  0  0  0  0  0  0  0  0  0  0
  130.2317  134.8509  158.2670 N   0  0  0  0  0  0  0  0  0  0  0  0
  130.0888  133.6532  157.5873 C   0  0  0  0  0  0  0  0  0  0  0  0
  129.4158  132.5606  158.0398 N   0  0  0  0  0  0  0  0  0  0  0  0
  128.9545  132.4809  158.8893 H   0  0  0  0  0  0  0  0  0  0  0  0
  129.5111  131.5901  157.0706 C   0  0  0  0  0  0  0  0  0  0  0  0
  130.2387  132.1182  156.0556 C   0  0  0  0  0  0  0  0  0  0  0  0
  130.5984  131.4323  154.7903 C   0  0  0  0  0  0  0  0  0  0  0  0
  130.1802  131.9571  153.5685 C   0  0  0  0  0  0  0  0  0  0  0  0
  130.5207  131.3210  152.3934 C   0  0  0  0  0  0  0  0  0  0  0  0
  131.2702  130.1511  152.4271 C   0  0  0  0  0  0  0  0  0  0  0  0
  131.6090  129.5048  151.2359 N   0  0  0  0  0  0  0  0  0  0  0  0
  131.6837  129.6231  153.6445 C   0  0  0  0  0  0  0  0  0  0  0  0
  131.3504  130.2590  154.8218 C   0  0  0  0  0  0  0  0  0  0  0  0
  130.5746  133.3869  156.3993 N   0  0  0  0  0  0  0  0  0  0  0  0
  131.0934  133.9986  155.8538 H   0  0  0  0  0  0  0  0  0  0  0  0
  127.8873  135.4477  158.4587 C   0  0  0  0  0  0  0  0  0  0  0  0
  126.6901  135.2398  159.1175 C   0  0  0  0  0  0  0  0  0  0  0  0
  125.4940  135.3812  158.4388 C   0  0  0  0  0  0  0  0  0  0  0  0
  125.4955  135.7293  157.1010 C   0  0  0  0  0  0  0  0  0  0  0  0
  126.6928  135.9359  156.4418 C   0  0  0  0  0  0  0  0  0  0  0  0
  127.8888  135.7949  157.1207 C   0  0  0  0  0  0  0  0  0  0  0  0
  130.2774  138.2003  161.9360 H   0  0  0  0  0  0  0  0  0  0  0  0
  128.9862  139.0065  161.0136 H   0  0  0  0  0  0  0  0  0  0  0  0
  128.6508  138.3653  162.6398 H   0  0  0  0  0  0  0  0  0  0  0  0
  127.7403  136.8663  160.8869 H   0  0  0  0  0  0  0  0  0  0  0  0
  129.0317  136.0601  161.8094 H   0  0  0  0  0  0  0  0  0  0  0  0
  130.6604  136.6319  160.0293 H   0  0  0  0  0  0  0  0  0  0  0  0
  129.3691  137.4381  159.1068 H   0  0  0  0  0  0  0  0  0  0  0  0
  131.0208  135.3971  158.1264 H   0  0  0  0  0  0  0  0  0  0  0  0
  129.0875  130.5975  157.1101 H   0  0  0  0  0  0  0  0  0  0  0  0
  129.5936  132.8635  153.5420 H   0  0  0  0  0  0  0  0  0  0  0  0
  130.2004  131.7294  151.4463 H   0  0  0  0  0  0  0  0  0  0  0  0
  132.1332  128.6892  151.2584 H   0  0  0  0  0  0  0  0  0  0  0  0
  131.3216  129.8735  150.3857 H   0  0  0  0  0  0  0  0  0  0  0  0
  132.2660  128.7137  153.6685 H   0  0  0  0  0  0  0  0  0  0  0  0
  131.6720  129.8484  155.7676 H   0  0  0  0  0  0  0  0  0  0  0  0
  126.6888  134.9682  160.1628 H   0  0  0  0  0  0  0  0  0  0  0  0
  124.5585  135.2241  158.9549 H   0  0  0  0  0  0  0  0  0  0  0  0
  124.5611  135.8393  156.5707 H   0  0  0  0  0  0  0  0  0  0  0  0
  126.6941  136.2071  155.3965 H   0  0  0  0  0  0  0  0  0  0  0  0
  128.8244  135.9557  156.6055 H   0  0  0  0  0  0  0  0  0  0  0  0
  1  2  1  0
  1 27  1  0
  1 28  1  0
  1 29  1  0
  2  3  1  0
  2 30  1  0
  2 31  1  0
  3  4  1  0
  3 32  1  0
  3 33  1  0
  4  5  1  1
  4  6  1  0
  4 21  1  0
  6 34  1  0
  7  6  1  0
  7 19  2  0
  7  8  1  0
  8  9  1  0
  8 10  1  0
 10 11  2  0
 10 35  1  0
 11 12  1  0
 11 19  1  0
 12 18  1  0
 12 13  2  0
 13 14  1  0
 13 36  1  0
 14 15  2  0
 14 37  1  0
 15 16  1  0
 15 17  1  0
 16 38  1  0
 16 39  1  0
 17 18  2  0
 17 40  1  0
 18 41  1  0
 19 20  1  0
 21 26  1  0
 21 22  2  0
 22 23  1  0
 22 42  1  0
 23 24  2  0
 23 43  1  0
 24 25  1  0
 24 44  1  0
 25 26  2  0
 25 45  1  0
 26 46  1  0
M  CHG  1  19   1
M  END
>  <DOCK_score>  (1) 
-58.26601

>  <SMILES>  (1) 
CCC[C@H](Nc1[nH]cc(-c2ccc(N)cc2)[nH+]1)c1ccccc1

$$$$
