O=C1CC[C@H](NC(N[C@H]2C=CCC2)=[NH+]C2COc3cc(F)ccc3C2)CN1
     RDKit          3D

 53 56  0  0  1  0  0  0  0  0999 V2000
  123.8886  133.6414  161.3287 O   0  0  0  0  0  0  0  0  0  0  0  0
  125.0262  134.0244  161.1552 C   0  0  0  0  0  0  0  0  0  0  0  0
  125.9179  133.2186  160.2548 C   0  0  0  0  0  0  0  0  0  0  0  0
  127.3819  133.5914  160.5024 C   0  0  0  0  0  0  0  0  0  0  0  0
  127.5031  135.1199  160.4795 C   0  0  2  0  0  0  0  0  0  0  0  0
  127.0572  135.5108  159.5649 H   0  0  0  0  0  0  0  0  0  0  0  0
  128.9162  135.5017  160.5397 N   0  0  0  0  0  0  0  0  0  0  0  0
  129.7827  135.0869  159.5562 C   0  0  0  0  0  0  0  0  0  0  0  0
  129.3233  134.3138  158.5165 N   0  0  0  0  0  0  0  0  0  0  0  0
  130.2178  133.3515  157.8682 C   0  0  1  0  0  0  0  0  0  0  0  0
  130.7418  133.8221  157.0363 H   0  0  0  0  0  0  0  0  0  0  0  0
  131.2066  132.7965  158.8668 C   0  0  0  0  0  0  0  0  0  0  0  0
  130.8636  131.5973  159.2512 C   0  0  0  0  0  0  0  0  0  0  0  0
  129.5888  131.1523  158.5729 C   0  0  0  0  0  0  0  0  0  0  0  0
  129.4206  132.1202  157.3788 C   0  0  0  0  0  0  0  0  0  0  0  0
  131.0400  135.4266  159.6098 N   0  0  0  0  0  0  0  0  0  0  0  0
  131.5479  135.5372  158.7908 H   0  0  0  0  0  0  0  0  0  0  0  0
  131.6861  135.6414  160.9070 C   0  0  1  0  0  0  0  0  0  0  0  0
  131.6440  134.3452  161.7266 C   0  0  0  0  0  0  0  0  0  0  0  0
  132.1861  134.6129  163.0206 O   0  0  0  0  0  0  0  0  0  0  0  0
  133.3775  135.2618  163.0880 C   0  0  0  0  0  0  0  0  0  0  0  0
  134.0903  135.2173  164.2818 C   0  0  0  0  0  0  0  0  0  0  0  0
  135.3039  135.8691  164.3914 C   0  0  0  0  0  0  0  0  0  0  0  0
  135.9943  135.8226  165.5517 F   0  0  0  0  0  0  0  0  0  0  0  0
  135.8118  136.5696  163.3097 C   0  0  0  0  0  0  0  0  0  0  0  0
  135.1055  136.6142  162.1242 C   0  0  0  0  0  0  0  0  0  0  0  0
  133.8895  135.9608  162.0088 C   0  0  0  0  0  0  0  0  0  0  0  0
  133.1519  136.0287  160.6956 C   0  0  0  0  0  0  0  0  0  0  0  0
  126.7660  135.6877  161.6931 C   0  0  0  0  0  0  0  0  0  0  0  0
  125.4182  135.1387  161.7741 N   0  0  0  0  0  0  0  0  0  0  0  0
  125.7748  132.1575  160.4588 H   0  0  0  0  0  0  0  0  0  0  0  0
  125.6640  133.4249  159.2150 H   0  0  0  0  0  0  0  0  0  0  0  0
  128.0072  133.1619  159.7197 H   0  0  0  0  0  0  0  0  0  0  0  0
  127.6979  133.2127  161.4744 H   0  0  0  0  0  0  0  0  0  0  0  0
  129.2403  136.0472  161.2733 H   0  0  0  0  0  0  0  0  0  0  0  0
  128.4069  134.4054  158.2121 H   0  0  0  0  0  0  0  0  0  0  0  0
  132.0825  133.3229  159.2165 H   0  0  0  0  0  0  0  0  0  0  0  0
  131.4184  131.0010  159.9605 H   0  0  0  0  0  0  0  0  0  0  0  0
  129.6853  130.1259  158.2190 H   0  0  0  0  0  0  0  0  0  0  0  0
  128.7444  131.2397  159.2566 H   0  0  0  0  0  0  0  0  0  0  0  0
  128.3712  132.3703  157.2225 H   0  0  0  0  0  0  0  0  0  0  0  0
  129.8609  131.7039  156.4725 H   0  0  0  0  0  0  0  0  0  0  0  0
  131.1708  136.4351  161.4479 H   0  0  0  0  0  0  0  0  0  0  0  0
  132.2386  133.5779  161.2309 H   0  0  0  0  0  0  0  0  0  0  0  0
  130.6130  134.0050  161.8237 H   0  0  0  0  0  0  0  0  0  0  0  0
  133.6938  134.6723  165.1256 H   0  0  0  0  0  0  0  0  0  0  0  0
  136.7574  137.0843  163.3950 H   0  0  0  0  0  0  0  0  0  0  0  0
  135.5032  137.1615  161.2823 H   0  0  0  0  0  0  0  0  0  0  0  0
  133.6104  135.3399  159.9860 H   0  0  0  0  0  0  0  0  0  0  0  0
  133.2056  137.0439  160.3021 H   0  0  0  0  0  0  0  0  0  0  0  0
  127.3143  135.4321  162.5997 H   0  0  0  0  0  0  0  0  0  0  0  0
  126.7051  136.7723  161.6025 H   0  0  0  0  0  0  0  0  0  0  0  0
  124.7654  135.6138  162.3117 H   0  0  0  0  0  0  0  0  0  0  0  0
  1  2  2  0
  2 30  1  0
  2  3  1  0
  3  4  1  0
  3 31  1  0
  3 32  1  0
  4  5  1  0
  4 33  1  0
  4 34  1  0
  5  6  1  6
  5  7  1  0
  5 29  1  0
  7 35  1  0
  8  7  1  0
  8  9  1  0
  8 16  2  0
  9 10  1  0
  9 36  1  0
 10 11  1  6
 10 15  1  0
 10 12  1  0
 12 13  2  0
 12 37  1  0
 13 14  1  0
 13 38  1  0
 14 15  1  0
 14 39  1  0
 14 40  1  0
 15 41  1  0
 15 42  1  0
 16 17  1  0
 16 18  1  0
 18 28  1  0
 18 19  1  0
 18 43  1  1
 19 20  1  0
 19 44  1  0
 19 45  1  0
 20 21  1  0
 21 27  2  0
 21 22  1  0
 22 23  2  0
 22 46  1  0
 23 24  1  0
 23 25  1  0
 25 26  2  0
 25 47  1  0
 26 27  1  0
 26 48  1  0
 27 28  1  0
 28 49  1  0
 28 50  1  0
 29 30  1  0
 29 51  1  0
 29 52  1  0
 30 53  1  0
M  CHG  1  16   1
M  END
>  <DOCK_score>  (1) 
-43.892445

>  <SMILES>  (1) 
O=C1CC[C@H](NC(N[C@H]2C=CCC2)=[NH+]C2COc3cc(F)ccc3C2)CN1

$$$$
