Cc1c(Nc2[nH]c3cccc(N)c3[nH+]2)cccc1Nc1cccc(O)c1N
     RDKit          3D

 48 51  0  0  1  0  0  0  0  0999 V2000
  132.6469  135.2673  160.3725 C   0  0  0  0  0  0  0  0  0  0  0  0
  131.2154  135.6075  160.0469 C   0  0  0  0  0  0  0  0  0  0  0  0
  130.6035  136.6951  160.6546 C   0  0  0  0  0  0  0  0  0  0  0  0
  131.3148  137.4771  161.5692 N   0  0  0  0  0  0  0  0  0  0  0  0
  132.4673  138.1275  161.1726 C   0  0  0  0  0  0  0  0  0  0  0  0
  133.0073  138.0742  159.9185 N   0  0  0  0  0  0  0  0  0  0  0  0
  132.6551  137.5812  159.1610 H   0  0  0  0  0  0  0  0  0  0  0  0
  134.1491  138.8577  159.9295 C   0  0  0  0  0  0  0  0  0  0  0  0
  135.0995  139.1860  158.9717 C   0  0  0  0  0  0  0  0  0  0  0  0
  136.1560  140.0085  159.3025 C   0  0  0  0  0  0  0  0  0  0  0  0
  136.2785  140.5139  160.5881 C   0  0  0  0  0  0  0  0  0  0  0  0
  135.3423  140.1991  161.5563 C   0  0  0  0  0  0  0  0  0  0  0  0
  135.4708  140.7108  162.8507 N   0  0  0  0  0  0  0  0  0  0  0  0
  134.2633  139.3632  161.2326 C   0  0  0  0  0  0  0  0  0  0  0  0
  133.2085  138.8826  161.9433 N   0  0  0  0  0  0  0  0  0  0  0  0
  133.0322  139.0705  162.8784 H   0  0  0  0  0  0  0  0  0  0  0  0
  129.2815  137.0023  160.3568 C   0  0  0  0  0  0  0  0  0  0  0  0
  128.5776  136.2297  159.4529 C   0  0  0  0  0  0  0  0  0  0  0  0
  129.1849  135.1499  158.8423 C   0  0  0  0  0  0  0  0  0  0  0  0
  130.5073  134.8367  159.1356 C   0  0  0  0  0  0  0  0  0  0  0  0
  131.1207  133.7445  158.5181 N   0  0  0  0  0  0  0  0  0  0  0  0
  131.0527  132.4767  159.1092 C   0  0  0  0  0  0  0  0  0  0  0  0
  130.9640  132.3568  160.4895 C   0  0  0  0  0  0  0  0  0  0  0  0
  130.9022  131.1057  161.0734 C   0  0  0  0  0  0  0  0  0  0  0  0
  130.9178  129.9686  160.2866 C   0  0  0  0  0  0  0  0  0  0  0  0
  131.0015  130.0778  158.9071 C   0  0  0  0  0  0  0  0  0  0  0  0
  131.0176  128.9580  158.1351 O   0  0  0  0  0  0  0  0  0  0  0  0
  131.0693  131.3338  158.3135 C   0  0  0  0  0  0  0  0  0  0  0  0
  131.1535  131.4491  156.9177 N   0  0  0  0  0  0  0  0  0  0  0  0
  133.3107  135.7952  159.6877 H   0  0  0  0  0  0  0  0  0  0  0  0
  132.8680  135.5678  161.3967 H   0  0  0  0  0  0  0  0  0  0  0  0
  132.7976  134.1928  160.2686 H   0  0  0  0  0  0  0  0  0  0  0  0
  130.9993  137.5631  162.4824 H   0  0  0  0  0  0  0  0  0  0  0  0
  135.0112  138.7974  157.9679 H   0  0  0  0  0  0  0  0  0  0  0  0
  136.8932  140.2612  158.5547 H   0  0  0  0  0  0  0  0  0  0  0  0
  137.1103  141.1570  160.8349 H   0  0  0  0  0  0  0  0  0  0  0  0
  134.8129  140.4882  163.5279 H   0  0  0  0  0  0  0  0  0  0  0  0
  136.2180  141.2887  163.0718 H   0  0  0  0  0  0  0  0  0  0  0  0
  128.8035  137.8457  160.8327 H   0  0  0  0  0  0  0  0  0  0  0  0
  127.5501  136.4706  159.2235 H   0  0  0  0  0  0  0  0  0  0  0  0
  128.6320  134.5479  158.1365 H   0  0  0  0  0  0  0  0  0  0  0  0
  131.5939  133.8640  157.6797 H   0  0  0  0  0  0  0  0  0  0  0  0
  130.9469  133.2420  161.1078 H   0  0  0  0  0  0  0  0  0  0  0  0
  130.8369  131.0159  162.1477 H   0  0  0  0  0  0  0  0  0  0  0  0
  130.8651  128.9935  160.7478 H   0  0  0  0  0  0  0  0  0  0  0  0
  130.9667  128.1333  158.6374 H   0  0  0  0  0  0  0  0  0  0  0  0
  131.1646  130.6521  156.3651 H   0  0  0  0  0  0  0  0  0  0  0  0
  131.2008  132.3259  156.5055 H   0  0  0  0  0  0  0  0  0  0  0  0
  1  2  1  0
  1 30  1  0
  1 31  1  0
  1 32  1  0
  2 20  2  0
  2  3  1  0
  3  4  1  0
  3 17  2  0
  4 33  1  0
  5  4  1  0
  5 15  2  0
  5  6  1  0
  6  7  1  0
  6  8  1  0
  8 14  2  0
  8  9  1  0
  9 10  2  0
  9 34  1  0
 10 11  1  0
 10 35  1  0
 11 12  2  0
 11 36  1  0
 12 13  1  0
 12 14  1  0
 13 37  1  0
 13 38  1  0
 14 15  1  0
 15 16  1  0
 17 18  1  0
 17 39  1  0
 18 19  2  0
 18 40  1  0
 19 20  1  0
 19 41  1  0
 20 21  1  0
 21 22  1  0
 21 42  1  0
 22 28  1  0
 22 23  2  0
 23 24  1  0
 23 43  1  0
 24 25  2  0
 24 44  1  0
 25 26  1  0
 25 45  1  0
 26 27  1  0
 26 28  2  0
 27 46  1  0
 28 29  1  0
 29 47  1  0
 29 48  1  0
M  CHG  1  15   1
M  END
>  <DOCK_score>  (1) 
-56.030087

>  <SMILES>  (1) 
Cc1c(Nc2[nH]c3cccc(N)c3[nH+]2)cccc1Nc1cccc(O)c1N

$$$$
