BrC1(Br)C[C@@H]1C[NH2+]Cc1c[nH]nc1-c1ccc(NCC2CC23CCCC3)o1
     RDKit          3D

 54 58  0  0  1  0  0  0  0  0999 V2000
  135.2199  140.8268  160.2806 Br  0  0  0  0  0  0  0  0  0  0  0  0
  133.5025  139.8703  160.3135 C   0  0  0  0  0  0  0  0  0  0  0  0
  132.2457  140.4315  161.7172 Br  0  0  0  0  0  0  0  0  0  0  0  0
  132.9129  139.4307  158.9718 C   0  0  0  0  0  0  0  0  0  0  0  0
  133.5102  138.3912  159.9222 C   0  0  2  0  0  0  0  0  0  0  0  0
  134.4672  137.9483  159.6466 H   0  0  0  0  0  0  0  0  0  0  0  0
  132.5390  137.4620  160.6534 C   0  0  0  0  0  0  0  0  0  0  0  0
  132.3358  136.2430  159.8592 N   0  0  0  0  0  0  0  0  0  0  0  0
  131.9529  136.4883  158.9585 H   0  0  0  0  0  0  0  0  0  0  0  0
  133.2196  135.7731  159.7322 H   0  0  0  0  0  0  0  0  0  0  0  0
  131.4034  135.3510  160.5612 C   0  0  0  0  0  0  0  0  0  0  0  0
  131.1950  134.1004  159.7464 C   0  0  0  0  0  0  0  0  0  0  0  0
  132.1594  133.3796  159.1354 C   0  0  0  0  0  0  0  0  0  0  0  0
  131.5703  132.3352  158.5134 N   0  0  0  0  0  0  0  0  0  0  0  0
  132.0243  131.6508  157.9972 H   0  0  0  0  0  0  0  0  0  0  0  0
  130.1900  132.4146  158.7376 N   0  0  0  0  0  0  0  0  0  0  0  0
  129.9569  133.4782  159.4813 C   0  0  0  0  0  0  0  0  0  0  0  0
  128.6340  133.9366  159.9533 C   0  0  0  0  0  0  0  0  0  0  0  0
  127.4430  133.3369  159.6903 C   0  0  0  0  0  0  0  0  0  0  0  0
  126.4500  134.1021  160.3332 C   0  0  0  0  0  0  0  0  0  0  0  0
  127.0813  135.1328  160.9487 C   0  0  0  0  0  0  0  0  0  0  0  0
  126.4672  136.1314  161.6958 N   0  0  0  0  0  0  0  0  0  0  0  0
  127.2745  137.1896  162.3080 C   0  0  0  0  0  0  0  0  0  0  0  0
  127.7020  136.7571  163.7120 C   0  0  2  0  0  0  0  0  0  0  0  0
  126.7926  137.1478  164.8799 C   0  0  0  0  0  0  0  0  0  0  0  0
  128.1331  137.8499  164.6853 C   0  0  0  0  0  0  0  0  0  0  0  0
  128.1943  139.3218  164.2411 C   0  0  0  0  0  0  0  0  0  0  0  0
  128.9641  140.0288  165.3855 C   0  0  0  0  0  0  0  0  0  0  0  0
  130.0303  138.9776  165.7833 C   0  0  0  0  0  0  0  0  0  0  0  0
  129.2935  137.6261  165.6646 C   0  0  0  0  0  0  0  0  0  0  0  0
  128.4003  135.0262  160.7147 O   0  0  0  0  0  0  0  0  0  0  0  0
  131.8281  139.4529  158.8674 H   0  0  0  0  0  0  0  0  0  0  0  0
  133.4769  139.6722  158.0709 H   0  0  0  0  0  0  0  0  0  0  0  0
  132.9525  137.1971  161.6264 H   0  0  0  0  0  0  0  0  0  0  0  0
  131.5842  137.9696  160.7905 H   0  0  0  0  0  0  0  0  0  0  0  0
  131.8170  135.0860  161.5341 H   0  0  0  0  0  0  0  0  0  0  0  0
  130.4485  135.8586  160.6983 H   0  0  0  0  0  0  0  0  0  0  0  0
  133.2169  133.5984  159.1444 H   0  0  0  0  0  0  0  0  0  0  0  0
  127.2879  132.4439  159.1030 H   0  0  0  0  0  0  0  0  0  0  0  0
  125.3877  133.9072  160.3328 H   0  0  0  0  0  0  0  0  0  0  0  0
  125.5041  136.1275  161.8117 H   0  0  0  0  0  0  0  0  0  0  0  0
  128.1597  137.3701  161.6981 H   0  0  0  0  0  0  0  0  0  0  0  0
  126.6853  138.1043  162.3733 H   0  0  0  0  0  0  0  0  0  0  0  0
  128.2158  135.7977  163.7724 H   0  0  0  0  0  0  0  0  0  0  0  0
  125.8899  137.7130  164.6478 H   0  0  0  0  0  0  0  0  0  0  0  0
  126.7079  136.4453  165.7091 H   0  0  0  0  0  0  0  0  0  0  0  0
  128.7378  139.4149  163.3008 H   0  0  0  0  0  0  0  0  0  0  0  0
  127.1898  139.7339  164.1451 H   0  0  0  0  0  0  0  0  0  0  0  0
  128.3002  140.2413  166.2235 H   0  0  0  0  0  0  0  0  0  0  0  0
  129.4378  140.9432  165.0287 H   0  0  0  0  0  0  0  0  0  0  0  0
  130.3639  139.1415  166.8080 H   0  0  0  0  0  0  0  0  0  0  0  0
  130.8770  139.0120  165.0976 H   0  0  0  0  0  0  0  0  0  0  0  0
  128.9082  137.3235  166.6383 H   0  0  0  0  0  0  0  0  0  0  0  0
  129.9694  136.8645  165.2760 H   0  0  0  0  0  0  0  0  0  0  0  0
  1  2  1  0
  2  5  1  0
  2  3  1  0
  2  4  1  0
  4  5  1  0
  4 32  1  0
  4 33  1  0
  5  6  1  6
  5  7  1  0
  7  8  1  0
  7 34  1  0
  7 35  1  0
  8  9  1  0
  8 10  1  0
  8 11  1  0
 11 12  1  0
 11 36  1  0
 11 37  1  0
 12 17  1  0
 12 13  2  0
 13 14  1  0
 13 38  1  0
 14 15  1  0
 14 16  1  0
 16 17  2  0
 17 18  1  0
 18 31  1  0
 18 19  2  0
 19 20  1  0
 19 39  1  0
 20 21  2  0
 20 40  1  0
 21 22  1  0
 21 31  1  0
 22 23  1  0
 22 41  1  0
 23 24  1  0
 23 42  1  0
 23 43  1  0
 24 26  1  0
 24 25  1  0
 24 44  1  6
 25 26  1  0
 25 45  1  0
 25 46  1  0
 26 30  1  0
 26 27  1  0
 27 28  1  0
 27 47  1  0
 27 48  1  0
 28 29  1  0
 28 49  1  0
 28 50  1  0
 29 30  1  0
 29 51  1  0
 29 52  1  0
 30 53  1  0
 30 54  1  0
M  CHG  1   8   1
M  END
>  <DOCK_score>  (1) 
-46.350407

>  <SMILES>  (1) 
BrC1(Br)C[C@@H]1C[NH2+]Cc1c[nH]nc1-c1ccc(NCC2CC23CCCC3)o1

$$$$
