c1ccc(Nc2ccc(-c3n[nH]cc3C[NH2+]C[C@@H]3C[C@H]4CC[C@H]4C3)o2)cc1
     RDKit          3D

 54 58  0  0  1  0  0  0  0  0999 V2000
  128.9447  139.3967  163.8502 C   0  0  0  0  0  0  0  0  0  0  0  0
  128.8814  139.2578  162.4756 C   0  0  0  0  0  0  0  0  0  0  0  0
  128.1065  138.2614  161.9158 C   0  0  0  0  0  0  0  0  0  0  0  0
  127.3977  137.3916  162.7352 C   0  0  0  0  0  0  0  0  0  0  0  0
  126.6174  136.3789  162.1724 N   0  0  0  0  0  0  0  0  0  0  0  0
  127.2084  135.4129  161.3657 C   0  0  0  0  0  0  0  0  0  0  0  0
  126.5658  134.3790  160.7673 C   0  0  0  0  0  0  0  0  0  0  0  0
  127.5355  133.6535  160.0479 C   0  0  0  0  0  0  0  0  0  0  0  0
  128.7257  134.2778  160.2514 C   0  0  0  0  0  0  0  0  0  0  0  0
  130.0281  133.8618  159.6913 C   0  0  0  0  0  0  0  0  0  0  0  0
  130.2392  132.8258  158.9034 N   0  0  0  0  0  0  0  0  0  0  0  0
  131.6057  132.7827  158.5988 N   0  0  0  0  0  0  0  0  0  0  0  0
  132.0426  132.1239  158.0369 H   0  0  0  0  0  0  0  0  0  0  0  0
  132.2096  133.8174  159.2226 C   0  0  0  0  0  0  0  0  0  0  0  0
  131.2658  134.5061  159.8994 C   0  0  0  0  0  0  0  0  0  0  0  0
  131.4947  135.7409  160.7327 C   0  0  0  0  0  0  0  0  0  0  0  0
  132.3643  136.6714  160.0006 N   0  0  0  0  0  0  0  0  0  0  0  0
  133.2490  136.2254  159.8101 H   0  0  0  0  0  0  0  0  0  0  0  0
  131.9235  136.9298  159.1304 H   0  0  0  0  0  0  0  0  0  0  0  0
  132.5873  137.8749  160.8129 C   0  0  0  0  0  0  0  0  0  0  0  0
  133.4931  138.8440  160.0504 C   0  0  2  0  0  0  0  0  0  0  0  0
  133.0231  139.1276  159.1087 H   0  0  0  0  0  0  0  0  0  0  0  0
  134.8518  138.1844  159.7781 C   0  0  0  0  0  0  0  0  0  0  0  0
  135.9266  139.0503  160.4550 C   0  0  1  0  0  0  0  0  0  0  0  0
  136.4406  138.5738  161.2899 H   0  0  0  0  0  0  0  0  0  0  0  0
  136.8253  139.7858  159.4443 C   0  0  0  0  0  0  0  0  0  0  0  0
  135.6636  140.8295  159.3307 C   0  0  0  0  0  0  0  0  0  0  0  0
  135.2531  140.4101  160.7491 C   0  0  1  0  0  0  0  0  0  0  0  0
  135.6891  140.9963  161.5580 H   0  0  0  0  0  0  0  0  0  0  0  0
  133.7573  140.0934  160.9036 C   0  0  0  0  0  0  0  0  0  0  0  0
  128.5136  135.3431  161.0522 O   0  0  0  0  0  0  0  0  0  0  0  0
  127.4674  137.5311  164.1159 C   0  0  0  0  0  0  0  0  0  0  0  0
  128.2402  138.5329  164.6688 C   0  0  0  0  0  0  0  0  0  0  0  0
  129.5486  140.1792  164.2854 H   0  0  0  0  0  0  0  0  0  0  0  0
  129.4362  139.9315  161.8394 H   0  0  0  0  0  0  0  0  0  0  0  0
  128.0549  138.1556  160.8422 H   0  0  0  0  0  0  0  0  0  0  0  0
  125.6633  136.3495  162.3444 H   0  0  0  0  0  0  0  0  0  0  0  0
  125.5109  134.1559  160.8286 H   0  0  0  0  0  0  0  0  0  0  0  0
  127.3666  132.7682  159.4528 H   0  0  0  0  0  0  0  0  0  0  0  0
  133.2622  134.0555  159.1824 H   0  0  0  0  0  0  0  0  0  0  0  0
  130.5388  136.2226  160.9385 H   0  0  0  0  0  0  0  0  0  0  0  0
  131.9707  135.4618  161.6726 H   0  0  0  0  0  0  0  0  0  0  0  0
  131.6314  138.3567  161.0186 H   0  0  0  0  0  0  0  0  0  0  0  0
  133.0635  137.5958  161.7528 H   0  0  0  0  0  0  0  0  0  0  0  0
  134.8666  137.1791  160.1995 H   0  0  0  0  0  0  0  0  0  0  0  0
  135.0326  138.1382  158.7042 H   0  0  0  0  0  0  0  0  0  0  0  0
  137.7343  140.1947  159.8854 H   0  0  0  0  0  0  0  0  0  0  0  0
  137.0144  139.2173  158.5338 H   0  0  0  0  0  0  0  0  0  0  0  0
  134.9258  140.5757  158.5696 H   0  0  0  0  0  0  0  0  0  0  0  0
  136.0044  141.8625  159.2622 H   0  0  0  0  0  0  0  0  0  0  0  0
  133.1581  140.9285  160.5409 H   0  0  0  0  0  0  0  0  0  0  0  0
  133.5236  139.8898  161.9487 H   0  0  0  0  0  0  0  0  0  0  0  0
  126.9181  136.8563  164.7558 H   0  0  0  0  0  0  0  0  0  0  0  0
  128.2949  138.6418  165.7420 H   0  0  0  0  0  0  0  0  0  0  0  0
  1 33  2  0
  1  2  1  0
  1 34  1  0
  2  3  2  0
  2 35  1  0
  3  4  1  0
  3 36  1  0
  4  5  1  0
  4 32  2  0
  5  6  1  0
  5 37  1  0
  6 31  1  0
  6  7  2  0
  7  8  1  0
  7 38  1  0
  8  9  2  0
  8 39  1  0
  9 10  1  0
  9 31  1  0
 10 15  1  0
 10 11  2  0
 11 12  1  0
 12 13  1  0
 12 14  1  0
 14 15  2  0
 14 40  1  0
 15 16  1  0
 16 17  1  0
 16 41  1  0
 16 42  1  0
 17 18  1  0
 17 19  1  0
 17 20  1  0
 20 21  1  0
 20 43  1  0
 20 44  1  0
 21 22  1  6
 21 30  1  0
 21 23  1  0
 23 24  1  0
 23 45  1  0
 23 46  1  0
 24 25  1  1
 24 28  1  0
 24 26  1  0
 26 27  1  0
 26 47  1  0
 26 48  1  0
 27 28  1  0
 27 49  1  0
 27 50  1  0
 28 29  1  1
 28 30  1  0
 30 51  1  0
 30 52  1  0
 32 33  1  0
 32 53  1  0
 33 54  1  0
M  CHG  1  17   1
M  END
>  <DOCK_score>  (1) 
-47.75264

>  <SMILES>  (1) 
c1ccc(Nc2ccc(-c3n[nH]cc3C[NH2+]C[C@@H]3C[C@H]4CC[C@H]4C3)o2)cc1

$$$$
