O=C1CC[C@H](NC(NC2CC2)=[NH+][C@H]2COc3cc(NCCF)ccc3C2)CN1
     RDKit          3D

 57 60  0  0  1  0  0  0  0  0999 V2000
  123.8628  133.6888  161.7384 O   0  0  0  0  0  0  0  0  0  0  0  0
  125.0180  133.9288  161.4575 C   0  0  0  0  0  0  0  0  0  0  0  0
  125.8986  132.7879  161.0355 C   0  0  0  0  0  0  0  0  0  0  0  0
  127.3696  133.1956  161.1493 C   0  0  0  0  0  0  0  0  0  0  0  0
  127.5502  134.5552  160.4636 C   0  0  2  0  0  0  0  0  0  0  0  0
  127.1417  134.5126  159.4539 H   0  0  0  0  0  0  0  0  0  0  0  0
  128.9751  134.8900  160.4036 N   0  0  0  0  0  0  0  0  0  0  0  0
  129.7270  134.5035  159.3194 C   0  0  0  0  0  0  0  0  0  0  0  0
  129.1417  133.8028  158.2916 N   0  0  0  0  0  0  0  0  0  0  0  0
  129.9428  133.3909  157.1362 C   0  0  0  0  0  0  0  0  0  0  0  0
  129.4183  132.2284  156.2912 C   0  0  0  0  0  0  0  0  0  0  0  0
  130.6297  132.0255  157.2035 C   0  0  0  0  0  0  0  0  0  0  0  0
  130.9948  134.8014  159.2659 N   0  0  0  0  0  0  0  0  0  0  0  0
  131.4245  134.9413  158.4077 H   0  0  0  0  0  0  0  0  0  0  0  0
  131.7694  134.9311  160.5027 C   0  0  1  0  0  0  0  0  0  0  0  0
  131.1244  134.7451  161.3614 H   0  0  0  0  0  0  0  0  0  0  0  0
  132.9263  133.9235  160.4962 C   0  0  0  0  0  0  0  0  0  0  0  0
  133.5981  134.0013  161.7540 O   0  0  0  0  0  0  0  0  0  0  0  0
  133.9499  135.2315  162.2110 C   0  0  0  0  0  0  0  0  0  0  0  0
  134.8978  135.3148  163.2245 C   0  0  0  0  0  0  0  0  0  0  0  0
  135.2767  136.5513  163.7239 C   0  0  0  0  0  0  0  0  0  0  0  0
  136.2286  136.6334  164.7427 N   0  0  0  0  0  0  0  0  0  0  0  0
  136.5064  135.4649  165.5815 C   0  0  0  0  0  0  0  0  0  0  0  0
  136.9369  135.9279  166.9747 C   0  0  0  0  0  0  0  0  0  0  0  0
  137.2021  134.8121  167.7758 F   0  0  0  0  0  0  0  0  0  0  0  0
  134.7062  137.7087  163.2081 C   0  0  0  0  0  0  0  0  0  0  0  0
  133.7671  137.6229  162.2010 C   0  0  0  0  0  0  0  0  0  0  0  0
  133.3871  136.3883  161.6993 C   0  0  0  0  0  0  0  0  0  0  0  0
  132.3599  136.3401  160.5963 C   0  0  0  0  0  0  0  0  0  0  0  0
  126.8069  135.6184  161.2733 C   0  0  0  0  0  0  0  0  0  0  0  0
  125.4382  135.1918  161.5393 N   0  0  0  0  0  0  0  0  0  0  0  0
  125.6756  132.5213  160.0024 H   0  0  0  0  0  0  0  0  0  0  0  0
  125.7103  131.9282  161.6787 H   0  0  0  0  0  0  0  0  0  0  0  0
  127.9959  132.4509  160.6583 H   0  0  0  0  0  0  0  0  0  0  0  0
  127.6481  133.2747  162.2002 H   0  0  0  0  0  0  0  0  0  0  0  0
  129.3880  135.3846  161.1288 H   0  0  0  0  0  0  0  0  0  0  0  0
  128.1983  133.5812  158.3313 H   0  0  0  0  0  0  0  0  0  0  0  0
  130.4679  134.1934  156.6181 H   0  0  0  0  0  0  0  0  0  0  0  0
  128.4772  131.7700  156.5948 H   0  0  0  0  0  0  0  0  0  0  0  0
  129.5982  132.2659  155.2167 H   0  0  0  0  0  0  0  0  0  0  0  0
  131.6064  131.9296  156.7293 H   0  0  0  0  0  0  0  0  0  0  0  0
  130.4855  131.4336  158.1073 H   0  0  0  0  0  0  0  0  0  0  0  0
  132.5352  132.9165  160.3504 H   0  0  0  0  0  0  0  0  0  0  0  0
  133.6214  134.1679  159.6929 H   0  0  0  0  0  0  0  0  0  0  0  0
  135.3403  134.4140  163.6235 H   0  0  0  0  0  0  0  0  0  0  0  0
  136.7056  137.4642  164.8948 H   0  0  0  0  0  0  0  0  0  0  0  0
  135.6073  134.8543  165.6632 H   0  0  0  0  0  0  0  0  0  0  0  0
  137.3058  134.8762  165.1312 H   0  0  0  0  0  0  0  0  0  0  0  0
  137.8360  136.5386  166.8930 H   0  0  0  0  0  0  0  0  0  0  0  0
  136.1375  136.5167  167.4250 H   0  0  0  0  0  0  0  0  0  0  0  0
  134.9974  138.6740  163.5950 H   0  0  0  0  0  0  0  0  0  0  0  0
  133.3255  138.5237  161.8011 H   0  0  0  0  0  0  0  0  0  0  0  0
  132.8326  136.5990  159.6490 H   0  0  0  0  0  0  0  0  0  0  0  0
  131.5640  137.0532  160.8114 H   0  0  0  0  0  0  0  0  0  0  0  0
  127.3232  135.7764  162.2202 H   0  0  0  0  0  0  0  0  0  0  0  0
  126.7934  136.5535  160.7134 H   0  0  0  0  0  0  0  0  0  0  0  0
  124.7918  135.8706  161.7892 H   0  0  0  0  0  0  0  0  0  0  0  0
  1  2  2  0
  2 31  1  0
  2  3  1  0
  3  4  1  0
  3 32  1  0
  3 33  1  0
  4  5  1  0
  4 34  1  0
  4 35  1  0
  5  6  1  6
  5  7  1  0
  5 30  1  0
  7 36  1  0
  8  7  1  0
  8  9  1  0
  8 13  2  0
  9 10  1  0
  9 37  1  0
 10 12  1  0
 10 11  1  0
 10 38  1  0
 11 12  1  0
 11 39  1  0
 11 40  1  0
 12 41  1  0
 12 42  1  0
 13 14  1  0
 13 15  1  0
 15 16  1  1
 15 29  1  0
 15 17  1  0
 17 18  1  0
 17 43  1  0
 17 44  1  0
 18 19  1  0
 19 28  2  0
 19 20  1  0
 20 21  2  0
 20 45  1  0
 21 22  1  0
 21 26  1  0
 22 23  1  0
 22 46  1  0
 23 24  1  0
 23 47  1  0
 23 48  1  0
 24 25  1  0
 24 49  1  0
 24 50  1  0
 26 27  2  0
 26 51  1  0
 27 28  1  0
 27 52  1  0
 28 29  1  0
 29 53  1  0
 29 54  1  0
 30 31  1  0
 30 55  1  0
 30 56  1  0
 31 57  1  0
M  CHG  1  13   1
M  END
>  <DOCK_score>  (1) 
-48.70314

>  <SMILES>  (1) 
O=C1CC[C@H](NC(NC2CC2)=[NH+][C@H]2COc3cc(NCCF)ccc3C2)CN1

$$$$
