C[C@@H]1CC1Nc1ccc([C@@H]2C[C@H]2[NH2+]C2CCC=C2NCc2ccc(Cl)cc2Cl)cc1
     RDKit          3D

 60 64  0  0  1  0  0  0  0  0999 V2000
  129.8072  127.1286  151.6074 C   0  0  0  0  0  0  0  0  0  0  0  0
  129.6986  128.6079  151.2321 C   0  0  2  0  0  0  0  0  0  0  0  0
  128.7370  129.0765  151.4413 H   0  0  0  0  0  0  0  0  0  0  0  0
  130.4592  129.0796  149.9912 C   0  0  0  0  0  0  0  0  0  0  0  0
  130.9531  129.4699  151.3865 C   0  0  1  0  0  0  0  0  0  0  0  0
  130.7702  130.8613  151.8045 N   0  0  0  0  0  0  0  0  0  0  0  0
  130.7710  131.1893  153.1622 C   0  0  0  0  0  0  0  0  0  0  0  0
  130.9453  130.1967  154.1176 C   0  0  0  0  0  0  0  0  0  0  0  0
  130.9505  130.5246  155.4591 C   0  0  0  0  0  0  0  0  0  0  0  0
  130.7716  131.8384  155.8520 C   0  0  0  0  0  0  0  0  0  0  0  0
  130.7716  132.1917  157.3170 C   0  0  2  0  0  0  0  0  0  0  0  0
  131.5403  132.8981  157.6302 H   0  0  0  0  0  0  0  0  0  0  0  0
  130.3727  131.0962  158.3078 C   0  0  0  0  0  0  0  0  0  0  0  0
  129.4182  132.2586  158.0275 C   0  0  1  0  0  0  0  0  0  0  0  0
  128.5278  132.0471  157.4353 H   0  0  0  0  0  0  0  0  0  0  0  0
  129.2538  133.2703  159.0799 N   0  0  0  0  0  0  0  0  0  0  0  0
  128.4827  133.0121  159.6771 H   0  0  0  0  0  0  0  0  0  0  0  0
  130.0993  133.3263  159.6277 H   0  0  0  0  0  0  0  0  0  0  0  0
  128.9812  134.5763  158.4653 C   0  0  1  0  0  0  0  0  0  0  0  0
  127.4727  134.7235  158.1607 C   0  0  0  0  0  0  0  0  0  0  0  0
  126.9697  135.4484  159.4303 C   0  0  0  0  0  0  0  0  0  0  0  0
  128.1837  136.1695  159.9689 C   0  0  0  0  0  0  0  0  0  0  0  0
  129.2884  135.6904  159.4389 C   0  0  0  0  0  0  0  0  0  0  0  0
  130.5664  136.1473  159.7351 N   0  0  0  0  0  0  0  0  0  0  0  0
  130.7501  137.2365  160.6974 C   0  0  0  0  0  0  0  0  0  0  0  0
  132.1024  137.8680  160.4890 C   0  0  0  0  0  0  0  0  0  0  0  0
  133.2017  137.3907  161.1782 C   0  0  0  0  0  0  0  0  0  0  0  0
  134.4432  137.9657  160.9834 C   0  0  0  0  0  0  0  0  0  0  0  0
  134.5845  139.0273  160.1068 C   0  0  0  0  0  0  0  0  0  0  0  0
  136.1427  139.7542  159.8680 Cl  0  0  0  0  0  0  0  0  0  0  0  0
  133.4841  139.5088  159.4212 C   0  0  0  0  0  0  0  0  0  0  0  0
  132.2426  138.9290  159.6124 C   0  0  0  0  0  0  0  0  0  0  0  0
  130.8606  139.5332  158.7528 Cl  0  0  0  0  0  0  0  0  0  0  0  0
  130.5923  132.8287  154.9036 C   0  0  0  0  0  0  0  0  0  0  0  0
  130.5914  132.5084  153.5602 C   0  0  0  0  0  0  0  0  0  0  0  0
  130.0889  127.0396  152.6566 H   0  0  0  0  0  0  0  0  0  0  0  0
  128.8455  126.6415  151.4468 H   0  0  0  0  0  0  0  0  0  0  0  0
  130.5648  126.6508  150.9861 H   0  0  0  0  0  0  0  0  0  0  0  0
  131.0372  128.3361  149.4423 H   0  0  0  0  0  0  0  0  0  0  0  0
  129.9983  129.8588  149.3842 H   0  0  0  0  0  0  0  0  0  0  0  0
  131.8558  128.9833  151.7555 H   0  0  0  0  0  0  0  0  0  0  0  0
  130.6480  131.5565  151.1380 H   0  0  0  0  0  0  0  0  0  0  0  0
  131.0806  129.1697  153.8117 H   0  0  0  0  0  0  0  0  0  0  0  0
  131.0902  129.7538  156.2024 H   0  0  0  0  0  0  0  0  0  0  0  0
  130.1104  130.1200  157.9000 H   0  0  0  0  0  0  0  0  0  0  0  0
  130.8791  131.0819  159.2730 H   0  0  0  0  0  0  0  0  0  0  0  0
  129.5659  134.6952  157.5531 H   0  0  0  0  0  0  0  0  0  0  0  0
  127.3111  135.3339  157.2722 H   0  0  0  0  0  0  0  0  0  0  0  0
  126.9985  133.7478  158.0540 H   0  0  0  0  0  0  0  0  0  0  0  0
  126.1867  136.1625  159.1746 H   0  0  0  0  0  0  0  0  0  0  0  0
  126.6010  134.7264  160.1586 H   0  0  0  0  0  0  0  0  0  0  0  0
  128.1490  136.9705  160.6924 H   0  0  0  0  0  0  0  0  0  0  0  0
  131.3370  135.7451  159.3048 H   0  0  0  0  0  0  0  0  0  0  0  0
  129.9725  137.9861  160.5506 H   0  0  0  0  0  0  0  0  0  0  0  0
  130.6863  136.8404  161.7109 H   0  0  0  0  0  0  0  0  0  0  0  0
  133.0910  136.5657  161.8661 H   0  0  0  0  0  0  0  0  0  0  0  0
  135.3024  137.5896  161.5188 H   0  0  0  0  0  0  0  0  0  0  0  0
  133.5939  140.3373  158.7372 H   0  0  0  0  0  0  0  0  0  0  0  0
  130.4533  133.8538  155.2138 H   0  0  0  0  0  0  0  0  0  0  0  0
  130.4510  133.2822  152.8200 H   0  0  0  0  0  0  0  0  0  0  0  0
  1  2  1  0
  1 36  1  0
  1 37  1  0
  1 38  1  0
  2  3  1  6
  2  5  1  0
  2  4  1  0
  4  5  1  0
  4 39  1  0
  4 40  1  0
  5  6  1  0
  5 41  1  1
  6  7  1  0
  6 42  1  0
  7 35  1  0
  7  8  2  0
  8  9  1  0
  8 43  1  0
  9 10  2  0
  9 44  1  0
 10 11  1  0
 10 34  1  0
 11 12  1  1
 11 14  1  0
 11 13  1  0
 13 14  1  0
 13 45  1  0
 13 46  1  0
 14 15  1  6
 14 16  1  0
 16 17  1  0
 16 18  1  0
 16 19  1  0
 19 23  1  0
 19 20  1  0
 19 47  1  6
 20 21  1  0
 20 48  1  0
 20 49  1  0
 21 22  1  0
 21 50  1  0
 21 51  1  0
 22 23  2  0
 22 52  1  0
 23 24  1  0
 24 25  1  0
 24 53  1  0
 25 26  1  0
 25 54  1  0
 25 55  1  0
 26 32  1  0
 26 27  2  0
 27 28  1  0
 27 56  1  0
 28 29  2  0
 28 57  1  0
 29 30  1  0
 29 31  1  0
 31 32  2  0
 31 58  1  0
 32 33  1  0
 34 35  2  0
 34 59  1  0
 35 60  1  0
M  CHG  1  16   1
M  END
>  <DOCK_score>  (1) 
-56.216343

>  <SMILES>  (1) 
C[C@@H]1CC1Nc1ccc([C@@H]2C[C@H]2[NH2+]C2CCC=C2NCc2ccc(Cl)cc2Cl)cc1

$$$$
