[NH3+][C@H](C(=O)Nc1cccc(O)c1)c1cccc(Nc2ccccc2)c1
     RDKit          3D

 45 47  0  0  1  0  0  0  0  0999 V2000
  129.8669  135.5655  158.1111 N   0  0  0  0  0  0  0  0  0  0  0  0
  129.5184  134.8907  157.4470 H   0  0  0  0  0  0  0  0  0  0  0  0
  129.2474  136.3615  158.1385 H   0  0  0  0  0  0  0  0  0  0  0  0
  130.7889  135.8663  157.8327 H   0  0  0  0  0  0  0  0  0  0  0  0
  129.9338  134.9514  159.4439 C   0  0  2  0  0  0  0  0  0  0  0  0
  130.6031  134.0916  159.4147 H   0  0  0  0  0  0  0  0  0  0  0  0
  128.5569  134.5022  159.8599 C   0  0  0  0  0  0  0  0  0  0  0  0
  127.5784  135.0977  159.4609 O   0  0  0  0  0  0  0  0  0  0  0  0
  128.4125  133.4387  160.6751 N   0  0  0  0  0  0  0  0  0  0  0  0
  127.1340  133.0217  161.0612 C   0  0  0  0  0  0  0  0  0  0  0  0
  126.8931  131.6814  161.3367 C   0  0  0  0  0  0  0  0  0  0  0  0
  125.6312  131.2699  161.7188 C   0  0  0  0  0  0  0  0  0  0  0  0
  124.6064  132.1902  161.8328 C   0  0  0  0  0  0  0  0  0  0  0  0
  124.8398  133.5293  161.5535 C   0  0  0  0  0  0  0  0  0  0  0  0
  123.8298  134.4323  161.6609 O   0  0  0  0  0  0  0  0  0  0  0  0
  126.1050  133.9462  161.1701 C   0  0  0  0  0  0  0  0  0  0  0  0
  130.4544  135.9594  160.4359 C   0  0  0  0  0  0  0  0  0  0  0  0
  129.5721  136.7816  161.1129 C   0  0  0  0  0  0  0  0  0  0  0  0
  130.0449  137.7039  162.0283 C   0  0  0  0  0  0  0  0  0  0  0  0
  131.4018  137.8147  162.2610 C   0  0  0  0  0  0  0  0  0  0  0  0
  132.2912  136.9945  161.5787 C   0  0  0  0  0  0  0  0  0  0  0  0
  133.6644  137.1036  161.8121 N   0  0  0  0  0  0  0  0  0  0  0  0
  134.4353  137.9828  161.0473 C   0  0  0  0  0  0  0  0  0  0  0  0
  135.5634  138.5784  161.5974 C   0  0  0  0  0  0  0  0  0  0  0  0
  136.3266  139.4422  160.8366 C   0  0  0  0  0  0  0  0  0  0  0  0
  135.9621  139.7238  159.5327 C   0  0  0  0  0  0  0  0  0  0  0  0
  134.8362  139.1373  158.9839 C   0  0  0  0  0  0  0  0  0  0  0  0
  134.0721  138.2678  159.7370 C   0  0  0  0  0  0  0  0  0  0  0  0
  131.8121  136.0649  160.6639 C   0  0  0  0  0  0  0  0  0  0  0  0
  129.1949  132.9625  160.9941 H   0  0  0  0  0  0  0  0  0  0  0  0
  127.6932  130.9608  161.2523 H   0  0  0  0  0  0  0  0  0  0  0  0
  125.4459  130.2276  161.9328 H   0  0  0  0  0  0  0  0  0  0  0  0
  123.6217  131.8661  162.1361 H   0  0  0  0  0  0  0  0  0  0  0  0
  124.0884  135.3390  161.4463 H   0  0  0  0  0  0  0  0  0  0  0  0
  126.2894  134.9886  160.9563 H   0  0  0  0  0  0  0  0  0  0  0  0
  128.5107  136.7003  160.9292 H   0  0  0  0  0  0  0  0  0  0  0  0
  129.3528  138.3414  162.5582 H   0  0  0  0  0  0  0  0  0  0  0  0
  131.7708  138.5387  162.9725 H   0  0  0  0  0  0  0  0  0  0  0  0
  134.0825  136.5691  162.5052 H   0  0  0  0  0  0  0  0  0  0  0  0
  135.8459  138.3628  162.6172 H   0  0  0  0  0  0  0  0  0  0  0  0
  137.2065  139.9017  161.2619 H   0  0  0  0  0  0  0  0  0  0  0  0
  136.5579  140.4033  158.9414 H   0  0  0  0  0  0  0  0  0  0  0  0
  134.5545  139.3592  157.9653 H   0  0  0  0  0  0  0  0  0  0  0  0
  133.1930  137.8102  159.3080 H   0  0  0  0  0  0  0  0  0  0  0  0
  132.5010  135.4258  160.1315 H   0  0  0  0  0  0  0  0  0  0  0  0
  1  2  1  0
  1  3  1  0
  1  4  1  0
  1  5  1  0
  5  6  1  6
  5  7  1  0
  5 17  1  0
  7  8  2  0
  7  9  1  0
  9 10  1  0
  9 30  1  0
 10 16  1  0
 10 11  2  0
 11 12  1  0
 11 31  1  0
 12 13  2  0
 12 32  1  0
 13 14  1  0
 13 33  1  0
 14 15  1  0
 14 16  2  0
 15 34  1  0
 16 35  1  0
 17 29  1  0
 17 18  2  0
 18 19  1  0
 18 36  1  0
 19 20  2  0
 19 37  1  0
 20 21  1  0
 20 38  1  0
 21 22  1  0
 21 29  2  0
 22 23  1  0
 22 39  1  0
 23 28  1  0
 23 24  2  0
 24 25  1  0
 24 40  1  0
 25 26  2  0
 25 41  1  0
 26 27  1  0
 26 42  1  0
 27 28  2  0
 27 43  1  0
 28 44  1  0
 29 45  1  0
M  CHG  1   1   1
M  END
>  <DOCK_score>  (1) 
-45.569206

>  <SMILES>  (1) 
[NH3+][C@H](C(=O)Nc1cccc(O)c1)c1cccc(Nc2ccccc2)c1

$$$$
