[NH3+][C@@H](C=Cc1ncc(N[C@H](c2ccccc2)[C@H](O)c2ccccc2)cn1)C(=O)Nc1cccc(O)c1
     RDKit          3D

 64 67  0  0  1  0  0  0  0  0999 V2000
  129.6787  135.9951  157.9630 N   0  0  0  0  0  0  0  0  0  0  0  0
  129.4298  136.6378  158.6998 H   0  0  0  0  0  0  0  0  0  0  0  0
  130.5716  136.2586  157.5742 H   0  0  0  0  0  0  0  0  0  0  0  0
  128.9754  136.0237  157.2398 H   0  0  0  0  0  0  0  0  0  0  0  0
  129.7646  134.6339  158.5088 C   0  0  1  0  0  0  0  0  0  0  0  0
  130.0334  133.9396  157.7127 H   0  0  0  0  0  0  0  0  0  0  0  0
  130.8149  134.5912  159.5886 C   0  0  0  0  0  0  0  0  0  0  0  0
  130.6935  135.3601  160.6627 C   0  0  0  0  0  0  0  0  0  0  0  0
  131.7228  135.3182  161.7210 C   0  0  0  0  0  0  0  0  0  0  0  0
  131.5842  136.0945  162.7887 N   0  0  0  0  0  0  0  0  0  0  0  0
  132.4848  136.0832  163.7548 C   0  0  0  0  0  0  0  0  0  0  0  0
  133.5907  135.2421  163.6415 C   0  0  0  0  0  0  0  0  0  0  0  0
  134.5643  135.2028  164.6420 N   0  0  0  0  0  0  0  0  0  0  0  0
  134.8375  136.3969  165.4455 C   0  0  2  0  0  0  0  0  0  0  0  0
  133.9311  136.6959  165.9717 H   0  0  0  0  0  0  0  0  0  0  0  0
  135.2877  137.5171  164.5435 C   0  0  0  0  0  0  0  0  0  0  0  0
  135.0188  138.8295  164.8845 C   0  0  0  0  0  0  0  0  0  0  0  0
  135.4314  139.8571  164.0568 C   0  0  0  0  0  0  0  0  0  0  0  0
  136.1117  139.5721  162.8876 C   0  0  0  0  0  0  0  0  0  0  0  0
  136.3793  138.2596  162.5461 C   0  0  0  0  0  0  0  0  0  0  0  0
  135.9671  137.2321  163.3739 C   0  0  0  0  0  0  0  0  0  0  0  0
  135.9385  136.0869  166.4617 C   0  0  2  0  0  0  0  0  0  0  0  0
  136.9104  136.1369  165.9710 H   0  0  0  0  0  0  0  0  0  0  0  0
  135.7402  134.7754  166.9935 O   0  0  0  0  0  0  0  0  0  0  0  0
  135.8880  137.0954  167.5803 C   0  0  0  0  0  0  0  0  0  0  0  0
  136.6246  138.2619  167.4930 C   0  0  0  0  0  0  0  0  0  0  0  0
  136.5747  139.1892  168.5170 C   0  0  0  0  0  0  0  0  0  0  0  0
  135.7955  138.9456  169.6326 C   0  0  0  0  0  0  0  0  0  0  0  0
  135.0630  137.7768  169.7223 C   0  0  0  0  0  0  0  0  0  0  0  0
  135.1093  136.8517  168.6962 C   0  0  0  0  0  0  0  0  0  0  0  0
  133.7048  134.4453  162.5033 C   0  0  0  0  0  0  0  0  0  0  0  0
  132.7623  134.5048  161.5798 N   0  0  0  0  0  0  0  0  0  0  0  0
  128.4308  134.2404  159.0893 C   0  0  0  0  0  0  0  0  0  0  0  0
  127.5002  135.0174  159.0522 O   0  0  0  0  0  0  0  0  0  0  0  0
  128.2720  133.0251  159.6500 N   0  0  0  0  0  0  0  0  0  0  0  0
  127.0336  132.6598  160.1891 C   0  0  0  0  0  0  0  0  0  0  0  0
  126.6401  131.3273  160.1876 C   0  0  0  0  0  0  0  0  0  0  0  0
  125.4201  130.9661  160.7250 C   0  0  0  0  0  0  0  0  0  0  0  0
  124.5828  131.9296  161.2550 C   0  0  0  0  0  0  0  0  0  0  0  0
  124.9682  133.2627  161.2538 C   0  0  0  0  0  0  0  0  0  0  0  0
  124.1437  134.2092  161.7749 O   0  0  0  0  0  0  0  0  0  0  0  0
  126.1943  133.6285  160.7206 C   0  0  0  0  0  0  0  0  0  0  0  0
  131.6663  133.9345  159.4881 H   0  0  0  0  0  0  0  0  0  0  0  0
  129.8420  136.0169  160.7633 H   0  0  0  0  0  0  0  0  0  0  0  0
  132.3659  136.7171  164.6211 H   0  0  0  0  0  0  0  0  0  0  0  0
  135.0596  134.3848  164.8048 H   0  0  0  0  0  0  0  0  0  0  0  0
  134.4877  139.0522  165.7980 H   0  0  0  0  0  0  0  0  0  0  0  0
  135.2263  140.8826  164.3260 H   0  0  0  0  0  0  0  0  0  0  0  0
  136.4336  140.3748  162.2409 H   0  0  0  0  0  0  0  0  0  0  0  0
  136.9100  138.0370  161.6322 H   0  0  0  0  0  0  0  0  0  0  0  0
  136.1755  136.2067  163.1066 H   0  0  0  0  0  0  0  0  0  0  0  0
  136.4031  134.5111  167.6460 H   0  0  0  0  0  0  0  0  0  0  0  0
  137.2363  138.4505  166.6232 H   0  0  0  0  0  0  0  0  0  0  0  0
  137.1468  140.1025  168.4469 H   0  0  0  0  0  0  0  0  0  0  0  0
  135.7586  139.6689  170.4339 H   0  0  0  0  0  0  0  0  0  0  0  0
  134.4541  137.5867  170.5938 H   0  0  0  0  0  0  0  0  0  0  0  0
  134.5370  135.9384  168.7663 H   0  0  0  0  0  0  0  0  0  0  0  0
  134.5506  133.7851  162.3801 H   0  0  0  0  0  0  0  0  0  0  0  0
  129.0161  132.4037  159.6797 H   0  0  0  0  0  0  0  0  0  0  0  0
  127.2906  130.5730  159.7701 H   0  0  0  0  0  0  0  0  0  0  0  0
  125.1177  129.9292  160.7268 H   0  0  0  0  0  0  0  0  0  0  0  0
  123.6278  131.6446  161.6707 H   0  0  0  0  0  0  0  0  0  0  0  0
  124.4980  135.1078  161.7291 H   0  0  0  0  0  0  0  0  0  0  0  0
  126.4960  134.6655  160.7193 H   0  0  0  0  0  0  0  0  0  0  0  0
  1  2  1  0
  1  3  1  0
  1  4  1  0
  1  5  1  0
  5  6  1  6
  5  7  1  0
  5 33  1  0
  7  8  2  0
  7 43  1  0
  8  9  1  0
  8 44  1  0
  9 32  1  0
  9 10  2  0
 10 11  1  0
 11 12  2  0
 11 45  1  0
 12 13  1  0
 12 31  1  0
 13 14  1  0
 13 46  1  0
 14 15  1  1
 14 16  1  0
 14 22  1  0
 16 21  1  0
 16 17  2  0
 17 18  1  0
 17 47  1  0
 18 19  2  0
 18 48  1  0
 19 20  1  0
 19 49  1  0
 20 21  2  0
 20 50  1  0
 21 51  1  0
 22 23  1  6
 22 24  1  0
 22 25  1  0
 24 52  1  0
 25 30  1  0
 25 26  2  0
 26 27  1  0
 26 53  1  0
 27 28  2  0
 27 54  1  0
 28 29  1  0
 28 55  1  0
 29 30  2  0
 29 56  1  0
 30 57  1  0
 31 32  2  0
 31 58  1  0
 33 34  2  0
 33 35  1  0
 35 36  1  0
 35 59  1  0
 36 42  1  0
 36 37  2  0
 37 38  1  0
 37 60  1  0
 38 39  2  0
 38 61  1  0
 39 40  1  0
 39 62  1  0
 40 41  1  0
 40 42  2  0
 41 63  1  0
 42 64  1  0
M  CHG  1   1   1
M  END
>  <DOCK_score>  (1) 
-41.884823

>  <SMILES>  (1) 
[NH3+][C@@H](C=Cc1ncc(N[C@H](c2ccccc2)[C@H](O)c2ccccc2)cn1)C(=O)Nc1cccc(O)c1

$$$$
