C=CCC(=O)N[C@H]1CC[C@H](NC(NC2CC=CC2)=[NH+][C@H]2CCC(=O)NC2)CC1
     RDKit          3D

 62 64  0  0  1  0  0  0  0  0999 V2000
  135.0585  136.3369  167.4105 C   0  0  0  0  0  0  0  0  0  0  0  0
  135.8526  136.0278  166.4156 C   0  0  0  0  0  0  0  0  0  0  0  0
  136.0409  136.9934  165.2739 C   0  0  0  0  0  0  0  0  0  0  0  0
  135.6045  136.3412  163.9873 C   0  0  0  0  0  0  0  0  0  0  0  0
  136.4034  135.7156  163.3231 O   0  0  0  0  0  0  0  0  0  0  0  0
  134.3263  136.4534  163.5748 N   0  0  0  0  0  0  0  0  0  0  0  0
  133.9019  135.8194  162.3240 C   0  0  1  0  0  0  0  0  0  0  0  0
  134.7433  135.7821  161.6319 H   0  0  0  0  0  0  0  0  0  0  0  0
  133.4153  134.3979  162.6122 C   0  0  0  0  0  0  0  0  0  0  0  0
  132.9723  133.7359  161.3059 C   0  0  0  0  0  0  0  0  0  0  0  0
  131.8349  134.5477  160.6828 C   0  0  2  0  0  0  0  0  0  0  0  0
  130.9936  134.5850  161.3749 H   0  0  0  0  0  0  0  0  0  0  0  0
  131.4107  133.9139  159.4321 N   0  0  0  0  0  0  0  0  0  0  0  0
  130.1068  134.0283  159.0111 C   0  0  0  0  0  0  0  0  0  0  0  0
  129.7087  133.4334  157.8374 N   0  0  0  0  0  0  0  0  0  0  0  0
  130.6737  132.6775  157.0352 C   0  0  0  0  0  0  0  0  0  0  0  0
  130.2103  132.5719  155.5637 C   0  0  0  0  0  0  0  0  0  0  0  0
  130.6186  131.1829  155.1312 C   0  0  0  0  0  0  0  0  0  0  0  0
  130.8858  130.4290  156.1629 C   0  0  0  0  0  0  0  0  0  0  0  0
  130.7003  131.1897  157.4552 C   0  0  0  0  0  0  0  0  0  0  0  0
  129.2482  134.7008  159.7249 N   0  0  0  0  0  0  0  0  0  0  0  0
  129.5474  135.4475  160.2669 H   0  0  0  0  0  0  0  0  0  0  0  0
  127.8313  134.3288  159.7086 C   0  0  1  0  0  0  0  0  0  0  0  0
  127.4446  134.4062  158.6924 H   0  0  0  0  0  0  0  0  0  0  0  0
  127.6711  132.8905  160.2157 C   0  0  0  0  0  0  0  0  0  0  0  0
  126.2136  132.4671  160.0163 C   0  0  0  0  0  0  0  0  0  0  0  0
  125.2955  133.5263  160.5556 C   0  0  0  0  0  0  0  0  0  0  0  0
  124.1411  133.2270  160.7764 O   0  0  0  0  0  0  0  0  0  0  0  0
  125.6816  134.7782  160.8041 N   0  0  0  0  0  0  0  0  0  0  0  0
  127.0451  135.2630  160.6292 C   0  0  0  0  0  0  0  0  0  0  0  0
  132.3215  135.9694  160.3947 C   0  0  0  0  0  0  0  0  0  0  0  0
  132.7646  136.6314  161.7009 C   0  0  0  0  0  0  0  0  0  0  0  0
  134.5387  137.2835  167.4125 H   0  0  0  0  0  0  0  0  0  0  0  0
  134.9237  135.6450  168.2287 H   0  0  0  0  0  0  0  0  0  0  0  0
  136.3726  135.0812  166.4135 H   0  0  0  0  0  0  0  0  0  0  0  0
  137.0925  137.2706  165.2022 H   0  0  0  0  0  0  0  0  0  0  0  0
  135.4410  137.8862  165.4504 H   0  0  0  0  0  0  0  0  0  0  0  0
  133.6873  136.9538  164.1059 H   0  0  0  0  0  0  0  0  0  0  0  0
  134.2256  133.8195  163.0561 H   0  0  0  0  0  0  0  0  0  0  0  0
  132.5741  134.4351  163.3042 H   0  0  0  0  0  0  0  0  0  0  0  0
  132.6255  132.7230  161.5112 H   0  0  0  0  0  0  0  0  0  0  0  0
  133.8136  133.6986  160.6139 H   0  0  0  0  0  0  0  0  0  0  0  0
  132.0497  133.4135  158.9008 H   0  0  0  0  0  0  0  0  0  0  0  0
  128.7888  133.5142  157.5404 H   0  0  0  0  0  0  0  0  0  0  0  0
  131.6674  133.1206  157.1016 H   0  0  0  0  0  0  0  0  0  0  0  0
  129.1285  132.6877  155.4970 H   0  0  0  0  0  0  0  0  0  0  0  0
  130.7119  133.3224  154.9528 H   0  0  0  0  0  0  0  0  0  0  0  0
  130.6810  130.8565  154.1037 H   0  0  0  0  0  0  0  0  0  0  0  0
  131.1982  129.3970  156.1007 H   0  0  0  0  0  0  0  0  0  0  0  0
  131.5349  131.0004  158.1303 H   0  0  0  0  0  0  0  0  0  0  0  0
  129.7589  130.9121  157.9293 H   0  0  0  0  0  0  0  0  0  0  0  0
  128.3263  132.2273  159.6510 H   0  0  0  0  0  0  0  0  0  0  0  0
  127.9255  132.8443  161.2745 H   0  0  0  0  0  0  0  0  0  0  0  0
  126.0336  131.5297  160.5427 H   0  0  0  0  0  0  0  0  0  0  0  0
  126.0195  132.3268  158.9530 H   0  0  0  0  0  0  0  0  0  0  0  0
  125.0132  135.4057  161.1209 H   0  0  0  0  0  0  0  0  0  0  0  0
  127.5378  135.3105  161.6003 H   0  0  0  0  0  0  0  0  0  0  0  0
  127.0161  136.2605  160.1908 H   0  0  0  0  0  0  0  0  0  0  0  0
  133.1629  135.9321  159.7027 H   0  0  0  0  0  0  0  0  0  0  0  0
  131.5114  136.5478  159.9508 H   0  0  0  0  0  0  0  0  0  0  0  0
  133.1113  137.6442  161.4956 H   0  0  0  0  0  0  0  0  0  0  0  0
  131.9234  136.6687  162.3930 H   0  0  0  0  0  0  0  0  0  0  0  0
  1  2  2  0
  1 33  1  0
  1 34  1  0
  2  3  1  0
  2 35  1  0
  3  4  1  0
  3 36  1  0
  3 37  1  0
  4  5  2  0
  4  6  1  0
  6  7  1  0
  6 38  1  0
  7  8  1  6
  7 32  1  0
  7  9  1  0
  9 10  1  0
  9 39  1  0
  9 40  1  0
 10 11  1  0
 10 41  1  0
 10 42  1  0
 11 12  1  1
 11 13  1  0
 11 31  1  0
 13 43  1  0
 14 13  1  0
 14 15  1  0
 14 21  2  0
 15 16  1  0
 15 44  1  0
 16 20  1  0
 16 17  1  0
 16 45  1  0
 17 18  1  0
 17 46  1  0
 17 47  1  0
 18 19  2  0
 18 48  1  0
 19 20  1  0
 19 49  1  0
 20 50  1  0
 20 51  1  0
 21 22  1  0
 21 23  1  0
 23 24  1  6
 23 30  1  0
 23 25  1  0
 25 26  1  0
 25 52  1  0
 25 53  1  0
 26 27  1  0
 26 54  1  0
 26 55  1  0
 27 28  2  0
 27 29  1  0
 29 30  1  0
 29 56  1  0
 30 57  1  0
 30 58  1  0
 31 32  1  0
 31 59  1  0
 31 60  1  0
 32 61  1  0
 32 62  1  0
M  CHG  1  21   1
M  END
>  <DOCK_score>  (1) 
-41.094791

>  <SMILES>  (1) 
C=CCC(=O)N[C@H]1CC[C@H](NC(NC2CC=CC2)=[NH+][C@H]2CCC(=O)NC2)CC1

$$$$
