CCc1ccc(-c2n[nH]cc2C[NH2+]Cc2ccc(-c3cccc(C)c3)cc2)cc1
     RDKit          3D

 57 60  0  0  0  0  0  0  0  0999 V2000
  133.7390  139.4106  161.7978 C   0  0  0  0  0  0  0  0  0  0  0  0
  132.4692  140.1654  161.4006 C   0  0  0  0  0  0  0  0  0  0  0  0
  131.3722  139.1779  161.0966 C   0  0  0  0  0  0  0  0  0  0  0  0
  130.5270  138.7551  162.1065 C   0  0  0  0  0  0  0  0  0  0  0  0
  129.5200  137.8513  161.8341 C   0  0  0  0  0  0  0  0  0  0  0  0
  129.3556  137.3651  160.5388 C   0  0  0  0  0  0  0  0  0  0  0  0
  128.2746  136.3932  160.2398 C   0  0  0  0  0  0  0  0  0  0  0  0
  126.9844  136.5949  160.4050 N   0  0  0  0  0  0  0  0  0  0  0  0
  126.3079  135.4350  160.0063 N   0  0  0  0  0  0  0  0  0  0  0  0
  125.3469  135.3031  160.0208 H   0  0  0  0  0  0  0  0  0  0  0  0
  127.2251  134.5345  159.5922 C   0  0  0  0  0  0  0  0  0  0  0  0
  128.4479  135.0921  159.7290 C   0  0  0  0  0  0  0  0  0  0  0  0
  129.7634  134.4401  159.3895 C   0  0  0  0  0  0  0  0  0  0  0  0
  129.6552  133.7675  158.0880 N   0  0  0  0  0  0  0  0  0  0  0  0
  129.4223  134.4451  157.3775 H   0  0  0  0  0  0  0  0  0  0  0  0
  128.9326  133.0645  158.1318 H   0  0  0  0  0  0  0  0  0  0  0  0
  130.9374  133.1318  157.7569 C   0  0  0  0  0  0  0  0  0  0  0  0
  130.8262  132.4418  156.4218 C   0  0  0  0  0  0  0  0  0  0  0  0
  131.3302  131.1637  156.2626 C   0  0  0  0  0  0  0  0  0  0  0  0
  131.2315  130.5273  155.0419 C   0  0  0  0  0  0  0  0  0  0  0  0
  130.6225  131.1742  153.9690 C   0  0  0  0  0  0  0  0  0  0  0  0
  130.5138  130.4957  152.6539 C   0  0  0  0  0  0  0  0  0  0  0  0
  130.5123  131.2442  151.4784 C   0  0  0  0  0  0  0  0  0  0  0  0
  130.4115  130.6077  150.2582 C   0  0  0  0  0  0  0  0  0  0  0  0
  130.3116  129.2298  150.2001 C   0  0  0  0  0  0  0  0  0  0  0  0
  130.3131  128.4811  151.3638 C   0  0  0  0  0  0  0  0  0  0  0  0
  130.2039  126.9799  151.2929 C   0  0  0  0  0  0  0  0  0  0  0  0
  130.4135  129.1076  152.5898 C   0  0  0  0  0  0  0  0  0  0  0  0
  130.1207  132.4641  154.1336 C   0  0  0  0  0  0  0  0  0  0  0  0
  130.2201  133.0890  155.3602 C   0  0  0  0  0  0  0  0  0  0  0  0
  130.2132  137.7903  159.5263 C   0  0  0  0  0  0  0  0  0  0  0  0
  131.2132  138.6988  159.8088 C   0  0  0  0  0  0  0  0  0  0  0  0
  134.0492  138.7635  160.9774 H   0  0  0  0  0  0  0  0  0  0  0  0
  134.5327  140.1246  162.0172 H   0  0  0  0  0  0  0  0  0  0  0  0
  133.5399  138.8055  162.6823 H   0  0  0  0  0  0  0  0  0  0  0  0
  132.6685  140.7706  160.5154 H   0  0  0  0  0  0  0  0  0  0  0  0
  132.1591  140.8126  162.2204 H   0  0  0  0  0  0  0  0  0  0  0  0
  130.6556  139.1324  163.1102 H   0  0  0  0  0  0  0  0  0  0  0  0
  128.8606  137.5219  162.6233 H   0  0  0  0  0  0  0  0  0  0  0  0
  127.0177  133.5424  159.2197 H   0  0  0  0  0  0  0  0  0  0  0  0
  130.0150  133.7080  160.1569 H   0  0  0  0  0  0  0  0  0  0  0  0
  130.5439  135.1996  159.3421 H   0  0  0  0  0  0  0  0  0  0  0  0
  131.1889  132.3998  158.5245 H   0  0  0  0  0  0  0  0  0  0  0  0
  131.7178  133.8913  157.7095 H   0  0  0  0  0  0  0  0  0  0  0  0
  131.8021  130.6627  157.0950 H   0  0  0  0  0  0  0  0  0  0  0  0
  131.6254  129.5292  154.9187 H   0  0  0  0  0  0  0  0  0  0  0  0
  130.5896  132.3205  151.5224 H   0  0  0  0  0  0  0  0  0  0  0  0
  130.4058  131.1871  149.3468 H   0  0  0  0  0  0  0  0  0  0  0  0
  130.2325  128.7356  149.2431 H   0  0  0  0  0  0  0  0  0  0  0  0
  129.1537  126.6901  151.3228 H   0  0  0  0  0  0  0  0  0  0  0  0
  130.6522  126.6264  150.3643 H   0  0  0  0  0  0  0  0  0  0  0  0
  130.7272  126.5372  152.1405 H   0  0  0  0  0  0  0  0  0  0  0  0
  130.4146  128.5226  153.4977 H   0  0  0  0  0  0  0  0  0  0  0  0
  129.6515  132.9721  153.3040 H   0  0  0  0  0  0  0  0  0  0  0  0
  129.8279  134.0869  155.4901 H   0  0  0  0  0  0  0  0  0  0  0  0
  130.0927  137.4130  158.5216 H   0  0  0  0  0  0  0  0  0  0  0  0
  131.8760  139.0322  159.0239 H   0  0  0  0  0  0  0  0  0  0  0  0
  1  2  1  0
  1 33  1  0
  1 34  1  0
  1 35  1  0
  2  3  1  0
  2 36  1  0
  2 37  1  0
  3 32  2  0
  3  4  1  0
  4  5  2  0
  4 38  1  0
  5  6  1  0
  5 39  1  0
  6  7  1  0
  6 31  2  0
  7 12  1  0
  7  8  2  0
  8  9  1  0
  9 10  1  0
  9 11  1  0
 11 12  2  0
 11 40  1  0
 12 13  1  0
 13 14  1  0
 13 41  1  0
 13 42  1  0
 14 15  1  0
 14 16  1  0
 14 17  1  0
 17 18  1  0
 17 43  1  0
 17 44  1  0
 18 30  1  0
 18 19  2  0
 19 20  1  0
 19 45  1  0
 20 21  2  0
 20 46  1  0
 21 22  1  0
 21 29  1  0
 22 28  1  0
 22 23  2  0
 23 24  1  0
 23 47  1  0
 24 25  2  0
 24 48  1  0
 25 26  1  0
 25 49  1  0
 26 27  1  0
 26 28  2  0
 27 50  1  0
 27 51  1  0
 27 52  1  0
 28 53  1  0
 29 30  2  0
 29 54  1  0
 30 55  1  0
 31 32  1  0
 31 56  1  0
 32 57  1  0
M  CHG  1  14   1
M  END
>  <DOCK_score>  (1) 
-49.738209

>  <SMILES>  (1) 
CCc1ccc(-c2n[nH]cc2C[NH2+]Cc2ccc(-c3cccc(C)c3)cc2)cc1

$$$$
