Cc1ccc(-n2cc(C[NH2+]Cc3cn(-c4ccccc4)nc3-c3ccccc3)c(C)n2)cc1O
     RDKit          3D

 62 66  0  0  0  0  0  0  0  0999 V2000
  131.7686  129.4668  153.3188 C   0  0  0  0  0  0  0  0  0  0  0  0
  131.3204  130.3829  154.4282 C   0  0  0  0  0  0  0  0  0  0  0  0
  131.6437  130.0885  155.7394 C   0  0  0  0  0  0  0  0  0  0  0  0
  131.2342  130.9257  156.7590 C   0  0  0  0  0  0  0  0  0  0  0  0
  130.4963  132.0659  156.4684 C   0  0  0  0  0  0  0  0  0  0  0  0
  130.0809  132.9154  157.5033 N   0  0  0  0  0  0  0  0  0  0  0  0
  129.8884  134.2504  157.4083 C   0  0  0  0  0  0  0  0  0  0  0  0
  129.4904  134.6964  158.6222 C   0  0  0  0  0  0  0  0  0  0  0  0
  129.1619  136.1235  158.9785 C   0  0  0  0  0  0  0  0  0  0  0  0
  130.3767  136.8029  159.4482 N   0  0  0  0  0  0  0  0  0  0  0  0
  131.0728  136.7903  158.7179 H   0  0  0  0  0  0  0  0  0  0  0  0
  130.7348  136.3268  160.2626 H   0  0  0  0  0  0  0  0  0  0  0  0
  130.0565  138.1939  159.7954 C   0  0  0  0  0  0  0  0  0  0  0  0
  131.3027  138.8910  160.2772 C   0  0  0  0  0  0  0  0  0  0  0  0
  132.5216  138.8308  159.6982 C   0  0  0  0  0  0  0  0  0  0  0  0
  133.3716  139.5916  160.4363 N   0  0  0  0  0  0  0  0  0  0  0  0
  134.7333  139.7934  160.1757 C   0  0  0  0  0  0  0  0  0  0  0  0
  135.4890  140.6041  161.0122 C   0  0  0  0  0  0  0  0  0  0  0  0
  136.8300  140.8053  160.7498 C   0  0  0  0  0  0  0  0  0  0  0  0
  137.4199  140.2011  159.6547 C   0  0  0  0  0  0  0  0  0  0  0  0
  136.6700  139.3930  158.8198 C   0  0  0  0  0  0  0  0  0  0  0  0
  135.3288  139.1876  159.0772 C   0  0  0  0  0  0  0  0  0  0  0  0
  132.6462  140.1438  161.4997 N   0  0  0  0  0  0  0  0  0  0  0  0
  131.4014  139.7252  161.4082 C   0  0  0  0  0  0  0  0  0  0  0  0
  130.2952  140.0716  162.3346 C   0  0  0  0  0  0  0  0  0  0  0  0
  129.9207  141.4022  162.5101 C   0  0  0  0  0  0  0  0  0  0  0  0
  128.8872  141.7182  163.3686 C   0  0  0  0  0  0  0  0  0  0  0  0
  128.2314  140.7178  164.0631 C   0  0  0  0  0  0  0  0  0  0  0  0
  128.6028  139.3957  163.8972 C   0  0  0  0  0  0  0  0  0  0  0  0
  129.6310  139.0679  163.0368 C   0  0  0  0  0  0  0  0  0  0  0  0
  129.4433  133.5998  159.4900 C   0  0  0  0  0  0  0  0  0  0  0  0
  129.0548  133.6412  160.9454 C   0  0  0  0  0  0  0  0  0  0  0  0
  129.7911  132.5313  158.8190 N   0  0  0  0  0  0  0  0  0  0  0  0
  130.1659  132.3601  155.1537 C   0  0  0  0  0  0  0  0  0  0  0  0
  130.5834  131.5207  154.1323 C   0  0  0  0  0  0  0  0  0  0  0  0
  130.2664  131.8090  152.8427 O   0  0  0  0  0  0  0  0  0  0  0  0
  131.0066  128.7071  153.1447 H   0  0  0  0  0  0  0  0  0  0  0  0
  131.9190  130.0461  152.4076 H   0  0  0  0  0  0  0  0  0  0  0  0
  132.7045  128.9847  153.6013 H   0  0  0  0  0  0  0  0  0  0  0  0
  132.2172  129.2022  155.9672 H   0  0  0  0  0  0  0  0  0  0  0  0
  131.4884  130.6935  157.7826 H   0  0  0  0  0  0  0  0  0  0  0  0
  130.0278  134.8527  156.5227 H   0  0  0  0  0  0  0  0  0  0  0  0
  128.4098  136.1372  159.7673 H   0  0  0  0  0  0  0  0  0  0  0  0
  128.7751  136.6377  158.0986 H   0  0  0  0  0  0  0  0  0  0  0  0
  129.3044  138.2076  160.5843 H   0  0  0  0  0  0  0  0  0  0  0  0
  129.6696  138.7082  158.9156 H   0  0  0  0  0  0  0  0  0  0  0  0
  132.7759  138.2747  158.8079 H   0  0  0  0  0  0  0  0  0  0  0  0
  135.0287  141.0769  161.8671 H   0  0  0  0  0  0  0  0  0  0  0  0
  137.4184  141.4353  161.4003 H   0  0  0  0  0  0  0  0  0  0  0  0
  138.4686  140.3602  159.4514 H   0  0  0  0  0  0  0  0  0  0  0  0
  137.1337  138.9219  157.9658 H   0  0  0  0  0  0  0  0  0  0  0  0
  134.7437  138.5562  158.4250 H   0  0  0  0  0  0  0  0  0  0  0  0
  130.4353  142.1844  161.9719 H   0  0  0  0  0  0  0  0  0  0  0  0
  128.5930  142.7486  163.5016 H   0  0  0  0  0  0  0  0  0  0  0  0
  127.4266  140.9703  164.7376 H   0  0  0  0  0  0  0  0  0  0  0  0
  128.0870  138.6185  164.4417 H   0  0  0  0  0  0  0  0  0  0  0  0
  129.9199  138.0352  162.9078 H   0  0  0  0  0  0  0  0  0  0  0  0
  127.9794  133.4895  161.0388 H   0  0  0  0  0  0  0  0  0  0  0  0
  129.5810  132.8535  161.4845 H   0  0  0  0  0  0  0  0  0  0  0  0
  129.3228  134.6105  161.3656 H   0  0  0  0  0  0  0  0  0  0  0  0
  129.5882  133.2435  154.9257 H   0  0  0  0  0  0  0  0  0  0  0  0
  129.7518  132.6208  152.7363 H   0  0  0  0  0  0  0  0  0  0  0  0
  1  2  1  0
  1 37  1  0
  1 38  1  0
  1 39  1  0
  2 35  2  0
  2  3  1  0
  3  4  2  0
  3 40  1  0
  4  5  1  0
  4 41  1  0
  5  6  1  0
  5 34  2  0
  6 33  1  0
  6  7  1  0
  7  8  2  0
  7 42  1  0
  8  9  1  0
  8 31  1  0
  9 10  1  0
  9 43  1  0
  9 44  1  0
 10 11  1  0
 10 12  1  0
 10 13  1  0
 13 14  1  0
 13 45  1  0
 13 46  1  0
 14 24  1  0
 14 15  2  0
 15 16  1  0
 15 47  1  0
 16 17  1  0
 16 23  1  0
 17 22  1  0
 17 18  2  0
 18 19  1  0
 18 48  1  0
 19 20  2  0
 19 49  1  0
 20 21  1  0
 20 50  1  0
 21 22  2  0
 21 51  1  0
 22 52  1  0
 23 24  2  0
 24 25  1  0
 25 30  1  0
 25 26  2  0
 26 27  1  0
 26 53  1  0
 27 28  2  0
 27 54  1  0
 28 29  1  0
 28 55  1  0
 29 30  2  0
 29 56  1  0
 30 57  1  0
 31 32  1  0
 31 33  2  0
 32 58  1  0
 32 59  1  0
 32 60  1  0
 34 35  1  0
 34 61  1  0
 35 36  1  0
 36 62  1  0
M  CHG  1  10   1
M  END
>  <DOCK_score>  (1) 
-59.193275

>  <SMILES>  (1) 
Cc1ccc(-n2cc(C[NH2+]Cc3cn(-c4ccccc4)nc3-c3ccccc3)c(C)n2)cc1O

$$$$
