Cc1cc(O)cc(CNC(NC2CC=CC2)=[NH+]Cc2cc(F)cc3ccccc23)c1
     RDKit          3D

 57 60  0  0  1  0  0  0  0  0999 V2000
  127.5329  135.2054  167.5195 C   0  0  0  0  0  0  0  0  0  0  0  0
  127.3764  135.6270  166.0812 C   0  0  0  0  0  0  0  0  0  0  0  0
  126.1257  135.6269  165.4940 C   0  0  0  0  0  0  0  0  0  0  0  0
  125.9823  136.0150  164.1701 C   0  0  0  0  0  0  0  0  0  0  0  0
  124.7532  136.0163  163.5904 O   0  0  0  0  0  0  0  0  0  0  0  0
  127.0953  136.4070  163.4401 C   0  0  0  0  0  0  0  0  0  0  0  0
  128.3442  136.3997  164.0299 C   0  0  0  0  0  0  0  0  0  0  0  0
  129.5543  136.8200  163.2360 C   0  0  0  0  0  0  0  0  0  0  0  0
  129.5102  136.1954  161.9115 N   0  0  0  0  0  0  0  0  0  0  0  0
  130.5163  136.4339  161.0053 C   0  0  0  0  0  0  0  0  0  0  0  0
  130.4752  135.8478  159.7623 N   0  0  0  0  0  0  0  0  0  0  0  0
  129.3592  134.9690  159.4034 C   0  0  0  0  0  0  0  0  0  0  0  0
  129.3935  133.6625  160.2299 C   0  0  0  0  0  0  0  0  0  0  0  0
  128.9447  132.5874  159.2675 C   0  0  0  0  0  0  0  0  0  0  0  0
  129.0144  133.0034  158.0323 C   0  0  0  0  0  0  0  0  0  0  0  0
  129.5212  134.4254  157.9649 C   0  0  0  0  0  0  0  0  0  0  0  0
  131.5092  137.2156  161.3245 N   0  0  0  0  0  0  0  0  0  0  0  0
  131.5382  137.6292  162.2017 H   0  0  0  0  0  0  0  0  0  0  0  0
  132.5812  137.4699  160.3589 C   0  0  0  0  0  0  0  0  0  0  0  0
  133.5982  138.3987  160.9704 C   0  0  0  0  0  0  0  0  0  0  0  0
  133.4675  139.7457  160.8264 C   0  0  0  0  0  0  0  0  0  0  0  0
  134.3961  140.6215  161.3904 C   0  0  0  0  0  0  0  0  0  0  0  0
  134.2355  141.9537  161.2341 F   0  0  0  0  0  0  0  0  0  0  0  0
  135.4664  140.1513  162.0921 C   0  0  0  0  0  0  0  0  0  0  0  0
  135.6359  138.7666  162.2557 C   0  0  0  0  0  0  0  0  0  0  0  0
  136.7270  138.2447  162.9717 C   0  0  0  0  0  0  0  0  0  0  0  0
  136.8593  136.8974  163.1100 C   0  0  0  0  0  0  0  0  0  0  0  0
  135.9283  136.0238  162.5509 C   0  0  0  0  0  0  0  0  0  0  0  0
  134.8595  136.4926  161.8508 C   0  0  0  0  0  0  0  0  0  0  0  0
  134.6888  137.8781  161.6871 C   0  0  0  0  0  0  0  0  0  0  0  0
  128.4844  136.0129  165.3502 C   0  0  0  0  0  0  0  0  0  0  0  0
  127.4299  136.0764  168.1667 H   0  0  0  0  0  0  0  0  0  0  0  0
  126.7643  134.4742  167.7696 H   0  0  0  0  0  0  0  0  0  0  0  0
  128.5177  134.7607  167.6627 H   0  0  0  0  0  0  0  0  0  0  0  0
  125.2605  135.3246  166.0654 H   0  0  0  0  0  0  0  0  0  0  0  0
  124.7544  136.3018  162.6665 H   0  0  0  0  0  0  0  0  0  0  0  0
  126.9857  136.7135  162.4102 H   0  0  0  0  0  0  0  0  0  0  0  0
  130.4582  136.5042  163.7567 H   0  0  0  0  0  0  0  0  0  0  0  0
  129.5582  137.9045  163.1263 H   0  0  0  0  0  0  0  0  0  0  0  0
  128.7714  135.6135  161.6739 H   0  0  0  0  0  0  0  0  0  0  0  0
  131.1848  136.0160  159.1230 H   0  0  0  0  0  0  0  0  0  0  0  0
  128.4051  135.4824  159.5226 H   0  0  0  0  0  0  0  0  0  0  0  0
  130.4061  133.4607  160.5793 H   0  0  0  0  0  0  0  0  0  0  0  0
  128.7060  133.7283  161.0731 H   0  0  0  0  0  0  0  0  0  0  0  0
  128.6100  131.6040  159.5629 H   0  0  0  0  0  0  0  0  0  0  0  0
  128.7448  132.4096  157.1715 H   0  0  0  0  0  0  0  0  0  0  0  0
  128.9204  135.0100  157.2682 H   0  0  0  0  0  0  0  0  0  0  0  0
  130.5699  134.4429  157.6682 H   0  0  0  0  0  0  0  0  0  0  0  0
  133.0621  136.5284  160.0938 H   0  0  0  0  0  0  0  0  0  0  0  0
  132.1621  137.9287  159.4634 H   0  0  0  0  0  0  0  0  0  0  0  0
  132.6305  140.1427  160.2713 H   0  0  0  0  0  0  0  0  0  0  0  0
  136.1803  140.8400  162.5195 H   0  0  0  0  0  0  0  0  0  0  0  0
  137.4567  138.9096  163.4099 H   0  0  0  0  0  0  0  0  0  0  0  0
  137.6984  136.4991  163.6610 H   0  0  0  0  0  0  0  0  0  0  0  0
  136.0570  134.9587  162.6748 H   0  0  0  0  0  0  0  0  0  0  0  0
  134.1460  135.8036  161.4236 H   0  0  0  0  0  0  0  0  0  0  0  0
  129.4613  136.0119  165.8108 H   0  0  0  0  0  0  0  0  0  0  0  0
  1  2  1  0
  1 32  1  0
  1 33  1  0
  1 34  1  0
  2 31  2  0
  2  3  1  0
  3  4  2  0
  3 35  1  0
  4  5  1  0
  4  6  1  0
  5 36  1  0
  6  7  2  0
  6 37  1  0
  7  8  1  0
  7 31  1  0
  8  9  1  0
  8 38  1  0
  8 39  1  0
  9 40  1  0
 10  9  1  0
 10 11  1  0
 10 17  2  0
 11 12  1  0
 11 41  1  0
 12 16  1  0
 12 13  1  0
 12 42  1  0
 13 14  1  0
 13 43  1  0
 13 44  1  0
 14 15  2  0
 14 45  1  0
 15 16  1  0
 15 46  1  0
 16 47  1  0
 16 48  1  0
 17 18  1  0
 17 19  1  0
 19 20  1  0
 19 49  1  0
 19 50  1  0
 20 30  1  0
 20 21  2  0
 21 22  1  0
 21 51  1  0
 22 23  1  0
 22 24  2  0
 24 25  1  0
 24 52  1  0
 25 30  2  0
 25 26  1  0
 26 27  2  0
 26 53  1  0
 27 28  1  0
 27 54  1  0
 28 29  2  0
 28 55  1  0
 29 30  1  0
 29 56  1  0
 31 57  1  0
M  CHG  1  17   1
M  END
>  <DOCK_score>  (1) 
-43.629498

>  <SMILES>  (1) 
Cc1cc(O)cc(CNC(NC2CC=CC2)=[NH+]Cc2cc(F)cc3ccccc23)c1

$$$$
