Cn1nccc1[C@H](C=Cc1ccccc1)Nc1[nH]cc(-c2ccc(N)cc2)[nH+]1
     RDKit          3D

 51 54  0  0  1  0  0  0  0  0999 V2000
  126.2882  134.9795  160.5569 C   0  0  0  0  0  0  0  0  0  0  0  0
  126.5390  135.3139  159.1527 N   0  0  0  0  0  0  0  0  0  0  0  0
  125.5652  135.4917  158.1614 N   0  0  0  0  0  0  0  0  0  0  0  0
  126.1729  135.7746  157.0377 C   0  0  0  0  0  0  0  0  0  0  0  0
  127.5507  135.7910  157.2782 C   0  0  0  0  0  0  0  0  0  0  0  0
  127.7483  135.5078  158.5865 C   0  0  0  0  0  0  0  0  0  0  0  0
  129.0809  135.4184  159.2847 C   0  0  2  0  0  0  0  0  0  0  0  0
  129.0155  134.6998  160.1017 H   0  0  0  0  0  0  0  0  0  0  0  0
  129.4516  136.7717  159.8345 C   0  0  0  0  0  0  0  0  0  0  0  0
  130.7271  137.1158  159.9444 C   0  0  0  0  0  0  0  0  0  0  0  0
  131.0909  138.4407  160.4895 C   0  0  0  0  0  0  0  0  0  0  0  0
  130.1748  139.1564  161.2612 C   0  0  0  0  0  0  0  0  0  0  0  0
  130.5225  140.3903  161.7715 C   0  0  0  0  0  0  0  0  0  0  0  0
  131.7723  140.9229  161.5105 C   0  0  0  0  0  0  0  0  0  0  0  0
  132.6830  140.2209  160.7412 C   0  0  0  0  0  0  0  0  0  0  0  0
  132.3497  138.9836  160.2294 C   0  0  0  0  0  0  0  0  0  0  0  0
  130.1037  134.9819  158.3309 N   0  0  0  0  0  0  0  0  0  0  0  0
  129.9781  133.7601  157.6922 C   0  0  0  0  0  0  0  0  0  0  0  0
  129.3579  132.6604  158.1999 N   0  0  0  0  0  0  0  0  0  0  0  0
  128.9283  132.5920  159.0668 H   0  0  0  0  0  0  0  0  0  0  0  0
  129.4533  131.6643  157.2572 C   0  0  0  0  0  0  0  0  0  0  0  0
  130.1283  132.1845  156.2025 C   0  0  0  0  0  0  0  0  0  0  0  0
  130.4695  131.4715  154.9470 C   0  0  0  0  0  0  0  0  0  0  0  0
  129.9930  131.9432  153.7249 C   0  0  0  0  0  0  0  0  0  0  0  0
  130.3157  131.2821  152.5586 C   0  0  0  0  0  0  0  0  0  0  0  0
  131.1059  130.1395  152.6022 C   0  0  0  0  0  0  0  0  0  0  0  0
  131.4266  129.4686  151.4196 N   0  0  0  0  0  0  0  0  0  0  0  0
  131.5777  129.6644  153.8201 C   0  0  0  0  0  0  0  0  0  0  0  0
  131.2622  130.3256  154.9883 C   0  0  0  0  0  0  0  0  0  0  0  0
  130.4321  133.4735  156.4964 N   0  0  0  0  0  0  0  0  0  0  0  0
  130.9110  134.0849  155.9153 H   0  0  0  0  0  0  0  0  0  0  0  0
  126.1727  135.8970  161.1338 H   0  0  0  0  0  0  0  0  0  0  0  0
  125.3770  134.3859  160.6319 H   0  0  0  0  0  0  0  0  0  0  0  0
  127.1283  134.4067  160.9495 H   0  0  0  0  0  0  0  0  0  0  0  0
  125.6934  135.9636  156.0885 H   0  0  0  0  0  0  0  0  0  0  0  0
  128.3206  135.9943  156.5487 H   0  0  0  0  0  0  0  0  0  0  0  0
  128.6781  137.4612  160.1390 H   0  0  0  0  0  0  0  0  0  0  0  0
  131.5006  136.4262  159.6400 H   0  0  0  0  0  0  0  0  0  0  0  0
  129.1973  138.7435  161.4623 H   0  0  0  0  0  0  0  0  0  0  0  0
  129.8159  140.9435  162.3723 H   0  0  0  0  0  0  0  0  0  0  0  0
  132.0381  141.8909  161.9086 H   0  0  0  0  0  0  0  0  0  0  0  0
  133.6569  140.6424  160.5404 H   0  0  0  0  0  0  0  0  0  0  0  0
  133.0614  138.4369  159.6288 H   0  0  0  0  0  0  0  0  0  0  0  0
  130.8689  135.5490  158.1470 H   0  0  0  0  0  0  0  0  0  0  0  0
  129.0649  130.6600  157.3407 H   0  0  0  0  0  0  0  0  0  0  0  0
  129.3749  132.8282  153.6909 H   0  0  0  0  0  0  0  0  0  0  0  0
  129.9505  131.6496  151.6111 H   0  0  0  0  0  0  0  0  0  0  0  0
  131.9784  128.6707  151.4496 H   0  0  0  0  0  0  0  0  0  0  0  0
  131.0978  129.7990  150.5696 H   0  0  0  0  0  0  0  0  0  0  0  0
  132.1916  128.7764  153.8517 H   0  0  0  0  0  0  0  0  0  0  0  0
  131.6293  129.9563  155.9345 H   0  0  0  0  0  0  0  0  0  0  0  0
  1  2  1  0
  1 32  1  0
  1 33  1  0
  1 34  1  0
  2  6  1  0
  2  3  1  0
  3  4  2  0
  4  5  1  0
  4 35  1  0
  5  6  2  0
  5 36  1  0
  6  7  1  0
  7  8  1  1
  7  9  1  0
  7 17  1  0
  9 10  2  0
  9 37  1  0
 10 11  1  0
 10 38  1  0
 11 16  1  0
 11 12  2  0
 12 13  1  0
 12 39  1  0
 13 14  2  0
 13 40  1  0
 14 15  1  0
 14 41  1  0
 15 16  2  0
 15 42  1  0
 16 43  1  0
 17 44  1  0
 18 17  1  0
 18 30  2  0
 18 19  1  0
 19 20  1  0
 19 21  1  0
 21 22  2  0
 21 45  1  0
 22 23  1  0
 22 30  1  0
 23 29  1  0
 23 24  2  0
 24 25  1  0
 24 46  1  0
 25 26  2  0
 25 47  1  0
 26 27  1  0
 26 28  1  0
 27 48  1  0
 27 49  1  0
 28 29  2  0
 28 50  1  0
 29 51  1  0
 30 31  1  0
M  CHG  1  30   1
M  END
>  <DOCK_score>  (1) 
-62.163776

>  <SMILES>  (1) 
Cn1nccc1[C@H](C=Cc1ccccc1)Nc1[nH]cc(-c2ccc(N)cc2)[nH+]1

$$$$
