Oc1ccc(-c2ccc(-c3c[nH]c(NC4c5cc(O)ccc5-c5ccc(O)cc54)[nH+]3)cc2)cc1
     RDKit          3D

 56 61  0  0  1  0  0  0  0  0999 V2000
  136.7325  142.4569  166.0523 O   0  0  0  0  0  0  0  0  0  0  0  0
  135.9031  141.8325  165.1757 C   0  0  0  0  0  0  0  0  0  0  0  0
  136.3316  141.5740  163.8807 C   0  0  0  0  0  0  0  0  0  0  0  0
  135.4920  140.9413  162.9883 C   0  0  0  0  0  0  0  0  0  0  0  0
  134.2117  140.5607  163.3878 C   0  0  0  0  0  0  0  0  0  0  0  0
  133.3059  139.8811  162.4305 C   0  0  0  0  0  0  0  0  0  0  0  0
  132.3550  138.9725  162.8954 C   0  0  0  0  0  0  0  0  0  0  0  0
  131.5143  138.3402  162.0065 C   0  0  0  0  0  0  0  0  0  0  0  0
  131.6138  138.6085  160.6411 C   0  0  0  0  0  0  0  0  0  0  0  0
  130.7090  137.9278  159.6840 C   0  0  0  0  0  0  0  0  0  0  0  0
  130.2711  138.4316  158.5030 C   0  0  0  0  0  0  0  0  0  0  0  0
  129.4633  137.4757  157.9370 N   0  0  0  0  0  0  0  0  0  0  0  0
  129.0039  137.5425  157.0852 H   0  0  0  0  0  0  0  0  0  0  0  0
  129.4235  136.4185  158.7934 C   0  0  0  0  0  0  0  0  0  0  0  0
  128.7142  135.2464  158.5948 N   0  0  0  0  0  0  0  0  0  0  0  0
  128.7589  134.1835  159.6020 C   0  0  0  0  0  0  0  0  0  0  0  0
  127.3629  133.8455  160.0650 C   0  0  0  0  0  0  0  0  0  0  0  0
  126.3855  134.5978  160.6798 C   0  0  0  0  0  0  0  0  0  0  0  0
  125.1663  134.0190  161.0057 C   0  0  0  0  0  0  0  0  0  0  0  0
  124.2041  134.7592  161.6165 O   0  0  0  0  0  0  0  0  0  0  0  0
  124.9282  132.6853  160.7020 C   0  0  0  0  0  0  0  0  0  0  0  0
  125.9009  131.9311  160.0820 C   0  0  0  0  0  0  0  0  0  0  0  0
  127.1312  132.5073  159.7574 C   0  0  0  0  0  0  0  0  0  0  0  0
  128.3329  131.9363  159.1003 C   0  0  0  0  0  0  0  0  0  0  0  0
  128.5901  130.6533  158.6116 C   0  0  0  0  0  0  0  0  0  0  0  0
  129.8079  130.3666  158.0338 C   0  0  0  0  0  0  0  0  0  0  0  0
  130.7829  131.3502  157.9346 C   0  0  0  0  0  0  0  0  0  0  0  0
  131.9821  131.0633  157.3636 O   0  0  0  0  0  0  0  0  0  0  0  0
  130.5317  132.6271  158.4184 C   0  0  0  0  0  0  0  0  0  0  0  0
  129.3154  132.9177  158.9974 C   0  0  0  0  0  0  0  0  0  0  0  0
  130.1716  136.6909  159.8344 N   0  0  0  0  0  0  0  0  0  0  0  0
  130.3175  136.1025  160.5917 H   0  0  0  0  0  0  0  0  0  0  0  0
  132.5686  139.5127  160.1759 C   0  0  0  0  0  0  0  0  0  0  0  0
  133.4056  140.1490  161.0657 C   0  0  0  0  0  0  0  0  0  0  0  0
  133.7824  140.8262  164.6876 C   0  0  0  0  0  0  0  0  0  0  0  0
  134.6286  141.4549  165.5766 C   0  0  0  0  0  0  0  0  0  0  0  0
  136.3472  142.5941  166.9286 H   0  0  0  0  0  0  0  0  0  0  0  0
  137.3236  141.8690  163.5717 H   0  0  0  0  0  0  0  0  0  0  0  0
  135.8258  140.7410  161.9809 H   0  0  0  0  0  0  0  0  0  0  0  0
  132.2779  138.7649  163.9526 H   0  0  0  0  0  0  0  0  0  0  0  0
  130.7783  137.6364  162.3662 H   0  0  0  0  0  0  0  0  0  0  0  0
  130.5148  139.3974  158.0856 H   0  0  0  0  0  0  0  0  0  0  0  0
  128.1876  135.1288  157.7887 H   0  0  0  0  0  0  0  0  0  0  0  0
  129.3701  134.4951  160.4490 H   0  0  0  0  0  0  0  0  0  0  0  0
  126.5695  135.6364  160.9119 H   0  0  0  0  0  0  0  0  0  0  0  0
  124.4603  135.6766  161.7832 H   0  0  0  0  0  0  0  0  0  0  0  0
  123.9777  132.2375  160.9520 H   0  0  0  0  0  0  0  0  0  0  0  0
  125.7120  130.8939  159.8475 H   0  0  0  0  0  0  0  0  0  0  0  0
  127.8343  129.8855  158.6870 H   0  0  0  0  0  0  0  0  0  0  0  0
  130.0044  129.3739  157.6566 H   0  0  0  0  0  0  0  0  0  0  0  0
  132.5953  131.8106  157.3398 H   0  0  0  0  0  0  0  0  0  0  0  0
  131.2899  133.3924  158.3418 H   0  0  0  0  0  0  0  0  0  0  0  0
  132.6489  139.7168  159.1184 H   0  0  0  0  0  0  0  0  0  0  0  0
  134.1423  140.8519  160.7058 H   0  0  0  0  0  0  0  0  0  0  0  0
  132.7898  140.5363  164.9989 H   0  0  0  0  0  0  0  0  0  0  0  0
  134.2981  141.6574  166.5847 H   0  0  0  0  0  0  0  0  0  0  0  0
  1  2  1  0
  1 37  1  0
  2 36  2  0
  2  3  1  0
  3  4  2  0
  3 38  1  0
  4  5  1  0
  4 39  1  0
  5  6  1  0
  5 35  2  0
  6 34  1  0
  6  7  2  0
  7  8  1  0
  7 40  1  0
  8  9  2  0
  8 41  1  0
  9 10  1  0
  9 33  1  0
 10 31  1  0
 10 11  2  0
 11 12  1  0
 11 42  1  0
 12 13  1  0
 12 14  1  0
 14 15  1  0
 14 31  2  0
 15 16  1  0
 15 43  1  0
 16 30  1  0
 16 17  1  0
 16 44  1  0
 17 23  1  0
 17 18  2  0
 18 19  1  0
 18 45  1  0
 19 20  1  0
 19 21  2  0
 20 46  1  0
 21 22  1  0
 21 47  1  0
 22 23  2  0
 22 48  1  0
 23 24  1  0
 24 30  2  0
 24 25  1  0
 25 26  2  0
 25 49  1  0
 26 27  1  0
 26 50  1  0
 27 28  1  0
 27 29  2  0
 28 51  1  0
 29 30  1  0
 29 52  1  0
 31 32  1  0
 33 34  2  0
 33 53  1  0
 34 54  1  0
 35 36  1  0
 35 55  1  0
 36 56  1  0
M  CHG  1  31   1
M  END
>  <DOCK_score>  (1) 
-44.821575

>  <SMILES>  (1) 
Oc1ccc(-c2ccc(-c3c[nH]c(NC4c5cc(O)ccc5-c5ccc(O)cc54)[nH+]3)cc2)cc1

$$$$
