CCc1ccc(-c2c[nH]c(N[C@H](C3=CCOCC3)c3ccc4c(c3C)CCC4)[nH+]2)cc1
     RDKit          3D

 63 67  0  0  1  0  0  0  0  0999 V2000
  129.9247  128.7436  151.6366 C   0  0  0  0  0  0  0  0  0  0  0  0
  131.0737  129.7321  151.8460 C   0  0  0  0  0  0  0  0  0  0  0  0
  130.9019  130.4298  153.1706 C   0  0  0  0  0  0  0  0  0  0  0  0
  131.4640  129.8885  154.3128 C   0  0  0  0  0  0  0  0  0  0  0  0
  131.3089  130.5228  155.5286 C   0  0  0  0  0  0  0  0  0  0  0  0
  130.5839  131.7108  155.6043 C   0  0  0  0  0  0  0  0  0  0  0  0
  130.4138  132.3972  156.9082 C   0  0  0  0  0  0  0  0  0  0  0  0
  129.8163  131.8801  158.0102 C   0  0  0  0  0  0  0  0  0  0  0  0
  129.8757  132.8454  158.9859 N   0  0  0  0  0  0  0  0  0  0  0  0
  129.5309  132.7709  159.8894 H   0  0  0  0  0  0  0  0  0  0  0  0
  130.5085  133.9250  158.4509 C   0  0  0  0  0  0  0  0  0  0  0  0
  130.7702  135.1143  159.1095 N   0  0  0  0  0  0  0  0  0  0  0  0
  130.3549  135.2863  160.5038 C   0  0  2  0  0  0  0  0  0  0  0  0
  130.8385  134.5306  161.1228 H   0  0  0  0  0  0  0  0  0  0  0  0
  128.8589  135.1360  160.6045 C   0  0  0  0  0  0  0  0  0  0  0  0
  128.1265  135.4756  159.5858 C   0  0  0  0  0  0  0  0  0  0  0  0
  126.6277  135.3727  159.5887 C   0  0  0  0  0  0  0  0  0  0  0  0
  126.1937  134.5431  160.6682 O   0  0  0  0  0  0  0  0  0  0  0  0
  126.7721  134.9122  161.9262 C   0  0  0  0  0  0  0  0  0  0  0  0
  128.2702  134.5985  161.8798 C   0  0  0  0  0  0  0  0  0  0  0  0
  130.7552  136.6584  160.9815 C   0  0  0  0  0  0  0  0  0  0  0  0
  129.7911  137.5472  161.4199 C   0  0  0  0  0  0  0  0  0  0  0  0
  130.1609  138.8019  161.8628 C   0  0  0  0  0  0  0  0  0  0  0  0
  131.4939  139.1776  161.8587 C   0  0  0  0  0  0  0  0  0  0  0  0
  132.4573  138.2911  161.4151 C   0  0  0  0  0  0  0  0  0  0  0  0
  132.0849  137.0314  160.9765 C   0  0  0  0  0  0  0  0  0  0  0  0
  133.1344  136.0640  160.4927 C   0  0  0  0  0  0  0  0  0  0  0  0
  133.8249  138.9331  161.5078 C   0  0  0  0  0  0  0  0  0  0  0  0
  133.5526  140.4466  161.6400 C   0  0  0  0  0  0  0  0  0  0  0  0
  132.1484  140.4758  162.2801 C   0  0  0  0  0  0  0  0  0  0  0  0
  130.8241  133.6553  157.2078 N   0  0  0  0  0  0  0  0  0  0  0  0
  131.2800  134.2580  156.5998 H   0  0  0  0  0  0  0  0  0  0  0  0
  130.0148  132.2484  154.4513 C   0  0  0  0  0  0  0  0  0  0  0  0
  130.1812  131.6085  153.2398 C   0  0  0  0  0  0  0  0  0  0  0  0
  128.9769  129.2818  151.6431 H   0  0  0  0  0  0  0  0  0  0  0  0
  130.0495  128.2390  150.6785 H   0  0  0  0  0  0  0  0  0  0  0  0
  129.9291  128.0059  152.4391 H   0  0  0  0  0  0  0  0  0  0  0  0
  131.0695  130.4695  151.0437 H   0  0  0  0  0  0  0  0  0  0  0  0
  132.0216  129.1936  151.8397 H   0  0  0  0  0  0  0  0  0  0  0  0
  132.0255  128.9679  154.2530 H   0  0  0  0  0  0  0  0  0  0  0  0
  131.7486  130.0995  156.4197 H   0  0  0  0  0  0  0  0  0  0  0  0
  129.3771  130.8979  158.1030 H   0  0  0  0  0  0  0  0  0  0  0  0
  131.2285  135.8337  158.6476 H   0  0  0  0  0  0  0  0  0  0  0  0
  128.6169  135.8483  158.6987 H   0  0  0  0  0  0  0  0  0  0  0  0
  126.1974  136.3677  159.7020 H   0  0  0  0  0  0  0  0  0  0  0  0
  126.2932  134.9419  158.6448 H   0  0  0  0  0  0  0  0  0  0  0  0
  126.3023  134.3423  162.7278 H   0  0  0  0  0  0  0  0  0  0  0  0
  126.6254  135.9786  162.0985 H   0  0  0  0  0  0  0  0  0  0  0  0
  128.4165  133.5191  161.9204 H   0  0  0  0  0  0  0  0  0  0  0  0
  128.7647  135.0641  162.7324 H   0  0  0  0  0  0  0  0  0  0  0  0
  128.7504  137.2588  161.4203 H   0  0  0  0  0  0  0  0  0  0  0  0
  129.4077  139.4940  162.2092 H   0  0  0  0  0  0  0  0  0  0  0  0
  133.2819  136.1942  159.4206 H   0  0  0  0  0  0  0  0  0  0  0  0
  134.0724  136.2547  161.0143 H   0  0  0  0  0  0  0  0  0  0  0  0
  132.8081  135.0435  160.6933 H   0  0  0  0  0  0  0  0  0  0  0  0
  134.3561  138.5662  162.3861 H   0  0  0  0  0  0  0  0  0  0  0  0
  134.4002  138.7298  160.6045 H   0  0  0  0  0  0  0  0  0  0  0  0
  133.5422  140.9254  160.6609 H   0  0  0  0  0  0  0  0  0  0  0  0
  134.2860  140.9198  162.2931 H   0  0  0  0  0  0  0  0  0  0  0  0
  131.5789  141.3258  161.9042 H   0  0  0  0  0  0  0  0  0  0  0  0
  132.2287  140.5238  163.3661 H   0  0  0  0  0  0  0  0  0  0  0  0
  129.4480  133.1661  154.5050 H   0  0  0  0  0  0  0  0  0  0  0  0
  129.7444  132.0266  152.3449 H   0  0  0  0  0  0  0  0  0  0  0  0
  1  2  1  0
  1 35  1  0
  1 36  1  0
  1 37  1  0
  2  3  1  0
  2 38  1  0
  2 39  1  0
  3 34  2  0
  3  4  1  0
  4  5  2  0
  4 40  1  0
  5  6  1  0
  5 41  1  0
  6  7  1  0
  6 33  2  0
  7 31  1  0
  7  8  2  0
  8  9  1  0
  8 42  1  0
  9 10  1  0
  9 11  1  0
 11 12  1  0
 11 31  2  0
 12 13  1  0
 12 43  1  0
 13 14  1  1
 13 15  1  0
 13 21  1  0
 15 20  1  0
 15 16  2  0
 16 17  1  0
 16 44  1  0
 17 18  1  0
 17 45  1  0
 17 46  1  0
 18 19  1  0
 19 20  1  0
 19 47  1  0
 19 48  1  0
 20 49  1  0
 20 50  1  0
 21 26  1  0
 21 22  2  0
 22 23  1  0
 22 51  1  0
 23 24  2  0
 23 52  1  0
 24 30  1  0
 24 25  1  0
 25 26  2  0
 25 28  1  0
 26 27  1  0
 27 53  1  0
 27 54  1  0
 27 55  1  0
 28 29  1  0
 28 56  1  0
 28 57  1  0
 29 30  1  0
 29 58  1  0
 29 59  1  0
 30 60  1  0
 30 61  1  0
 31 32  1  0
 33 34  1  0
 33 62  1  0
 34 63  1  0
M  CHG  1  31   1
M  END
>  <DOCK_score>  (1) 
-59.167416

>  <SMILES>  (1) 
CCc1ccc(-c2c[nH]c(N[C@H](C3=CCOCC3)c3ccc4c(c3C)CCC4)[nH+]2)cc1

$$$$
