c1cc(-c2c[nH]cc2C[NH2+]C[C@H]2CC23CC3)oc1NC1CC12CCCCC2
     RDKit          3D

 59 64  0  0  1  0  0  0  0  0999 V2000
  126.0974  134.2880  160.4189 C   0  0  0  0  0  0  0  0  0  0  0  0
  126.9941  133.5683  159.6011 C   0  0  0  0  0  0  0  0  0  0  0  0
  128.2377  134.0450  159.8671 C   0  0  0  0  0  0  0  0  0  0  0  0
  129.4955  133.5794  159.2438 C   0  0  0  0  0  0  0  0  0  0  0  0
  129.6194  132.6051  158.2997 C   0  0  0  0  0  0  0  0  0  0  0  0
  130.9427  132.4825  157.9918 N   0  0  0  0  0  0  0  0  0  0  0  0
  131.3159  131.8610  157.3471 H   0  0  0  0  0  0  0  0  0  0  0  0
  131.6563  133.3748  158.7368 C   0  0  0  0  0  0  0  0  0  0  0  0
  130.8013  134.0677  159.5116 C   0  0  0  0  0  0  0  0  0  0  0  0
  131.1637  135.1583  160.4864 C   0  0  0  0  0  0  0  0  0  0  0  0
  132.1218  136.0780  159.8585 N   0  0  0  0  0  0  0  0  0  0  0  0
  132.9537  135.5701  159.5974 H   0  0  0  0  0  0  0  0  0  0  0  0
  131.7053  136.4871  159.0356 H   0  0  0  0  0  0  0  0  0  0  0  0
  132.4750  137.1409  160.8088 C   0  0  0  0  0  0  0  0  0  0  0  0
  133.4729  138.0988  160.1549 C   0  0  1  0  0  0  0  0  0  0  0  0
  134.4128  137.6505  159.8326 H   0  0  0  0  0  0  0  0  0  0  0  0
  132.9058  139.2382  159.3056 C   0  0  0  0  0  0  0  0  0  0  0  0
  133.5175  139.5365  160.6759 C   0  0  0  0  0  0  0  0  0  0  0  0
  134.5304  140.5017  161.2946 C   0  0  0  0  0  0  0  0  0  0  0  0
  133.1608  140.3073  161.9484 C   0  0  0  0  0  0  0  0  0  0  0  0
  128.1291  135.0156  160.7979 O   0  0  0  0  0  0  0  0  0  0  0  0
  126.8365  135.1703  161.1340 C   0  0  0  0  0  0  0  0  0  0  0  0
  126.3414  136.0796  162.0644 N   0  0  0  0  0  0  0  0  0  0  0  0
  127.2582  136.9794  162.7687 C   0  0  2  0  0  0  0  0  0  0  0  0
  128.4722  136.3532  163.4585 C   0  0  0  0  0  0  0  0  0  0  0  0
  127.3075  136.8851  164.2931 C   0  0  0  0  0  0  0  0  0  0  0  0
  127.5294  138.1795  165.0808 C   0  0  0  0  0  0  0  0  0  0  0  0
  128.0297  137.8283  166.4854 C   0  0  0  0  0  0  0  0  0  0  0  0
  127.0262  136.8954  167.1649 C   0  0  0  0  0  0  0  0  0  0  0  0
  126.9300  135.5820  166.3871 C   0  0  0  0  0  0  0  0  0  0  0  0
  126.3944  135.8609  164.9795 C   0  0  0  0  0  0  0  0  0  0  0  0
  125.0258  134.1615  160.4644 H   0  0  0  0  0  0  0  0  0  0  0  0
  126.7406  132.7863  158.9008 H   0  0  0  0  0  0  0  0  0  0  0  0
  128.8118  132.0307  157.8703 H   0  0  0  0  0  0  0  0  0  0  0  0
  132.7278  133.5068  158.7065 H   0  0  0  0  0  0  0  0  0  0  0  0
  130.2650  135.7068  160.7686 H   0  0  0  0  0  0  0  0  0  0  0  0
  131.6136  134.7162  161.3754 H   0  0  0  0  0  0  0  0  0  0  0  0
  131.5764  137.6894  161.0910 H   0  0  0  0  0  0  0  0  0  0  0  0
  132.9249  136.6989  161.6977 H   0  0  0  0  0  0  0  0  0  0  0  0
  133.4728  139.5399  158.4250 H   0  0  0  0  0  0  0  0  0  0  0  0
  131.8219  139.3053  159.2126 H   0  0  0  0  0  0  0  0  0  0  0  0
  135.3947  140.0694  161.7988 H   0  0  0  0  0  0  0  0  0  0  0  0
  134.7111  141.4429  160.7752 H   0  0  0  0  0  0  0  0  0  0  0  0
  132.4406  141.1205  161.8591 H   0  0  0  0  0  0  0  0  0  0  0  0
  133.1238  139.7469  162.8826 H   0  0  0  0  0  0  0  0  0  0  0  0
  125.3894  136.1174  162.2465 H   0  0  0  0  0  0  0  0  0  0  0  0
  127.3860  137.9650  162.3210 H   0  0  0  0  0  0  0  0  0  0  0  0
  129.3991  136.9267  163.4646 H   0  0  0  0  0  0  0  0  0  0  0  0
  128.5886  135.2718  163.3883 H   0  0  0  0  0  0  0  0  0  0  0  0
  126.5902  138.7278  165.1544 H   0  0  0  0  0  0  0  0  0  0  0  0
  128.2719  138.7939  164.5718 H   0  0  0  0  0  0  0  0  0  0  0  0
  128.9968  137.3309  166.4128 H   0  0  0  0  0  0  0  0  0  0  0  0
  128.1334  138.7406  167.0729 H   0  0  0  0  0  0  0  0  0  0  0  0
  127.3550  136.6898  168.1837 H   0  0  0  0  0  0  0  0  0  0  0  0
  126.0471  137.3736  167.1910 H   0  0  0  0  0  0  0  0  0  0  0  0
  127.9186  135.1282  166.3166 H   0  0  0  0  0  0  0  0  0  0  0  0
  126.2539  134.9017  166.9051 H   0  0  0  0  0  0  0  0  0  0  0  0
  126.3855  134.9363  164.4024 H   0  0  0  0  0  0  0  0  0  0  0  0
  125.3820  136.2593  165.0462 H   0  0  0  0  0  0  0  0  0  0  0  0
  1 22  2  0
  1  2  1  0
  1 32  1  0
  2  3  2  0
  2 33  1  0
  3  4  1  0
  3 21  1  0
  4  9  1  0
  4  5  2  0
  5  6  1  0
  5 34  1  0
  6  7  1  0
  6  8  1  0
  8  9  2  0
  8 35  1  0
  9 10  1  0
 10 11  1  0
 10 36  1  0
 10 37  1  0
 11 12  1  0
 11 13  1  0
 11 14  1  0
 14 15  1  0
 14 38  1  0
 14 39  1  0
 15 16  1  6
 15 18  1  0
 15 17  1  0
 17 18  1  0
 17 40  1  0
 17 41  1  0
 18 20  1  0
 18 19  1  0
 19 20  1  0
 19 42  1  0
 19 43  1  0
 20 44  1  0
 20 45  1  0
 21 22  1  0
 22 23  1  0
 23 24  1  0
 23 46  1  0
 24 26  1  0
 24 25  1  0
 24 47  1  1
 25 26  1  0
 25 48  1  0
 25 49  1  0
 26 31  1  0
 26 27  1  0
 27 28  1  0
 27 50  1  0
 27 51  1  0
 28 29  1  0
 28 52  1  0
 28 53  1  0
 29 30  1  0
 29 54  1  0
 29 55  1  0
 30 31  1  0
 30 56  1  0
 30 57  1  0
 31 58  1  0
 31 59  1  0
M  CHG  1  11   1
M  END
>  <DOCK_score>  (1) 
-47.481091

>  <SMILES>  (1) 
c1cc(-c2c[nH]cc2C[NH2+]C[C@H]2CC23CC3)oc1NC1CC12CCCCC2

$$$$
