Nc1ccc(-c2c[nH]c(N[C@@H](Cc3cc(Cl)cc4ccccc34)c3ccccn3)[nH+]2)cc1
     RDKit          3D

 55 59  0  0  1  0  0  0  0  0999 V2000
  131.0368  129.7789  152.2193 N   0  0  0  0  0  0  0  0  0  0  0  0
  130.8558  130.4516  153.4302 C   0  0  0  0  0  0  0  0  0  0  0  0
  130.0480  131.5814  153.4821 C   0  0  0  0  0  0  0  0  0  0  0  0
  129.8680  132.2472  154.6763 C   0  0  0  0  0  0  0  0  0  0  0  0
  130.4969  131.7863  155.8317 C   0  0  0  0  0  0  0  0  0  0  0  0
  130.3047  132.5009  157.1176 C   0  0  0  0  0  0  0  0  0  0  0  0
  129.7714  131.9778  158.2491 C   0  0  0  0  0  0  0  0  0  0  0  0
  129.7811  132.9771  159.1933 N   0  0  0  0  0  0  0  0  0  0  0  0
  129.4626  132.9077  160.1068 H   0  0  0  0  0  0  0  0  0  0  0  0
  130.3206  134.0815  158.6095 C   0  0  0  0  0  0  0  0  0  0  0  0
  130.5094  135.3076  159.2240 N   0  0  0  0  0  0  0  0  0  0  0  0
  129.6028  135.7396  160.2907 C   0  0  1  0  0  0  0  0  0  0  0  0
  129.9881  135.4031  161.2533 H   0  0  0  0  0  0  0  0  0  0  0  0
  129.5022  137.2664  160.2874 C   0  0  0  0  0  0  0  0  0  0  0  0
  130.7047  137.8505  160.9830 C   0  0  0  0  0  0  0  0  0  0  0  0
  131.8241  138.1568  160.2722 C   0  0  0  0  0  0  0  0  0  0  0  0
  132.9461  138.6984  160.8985 C   0  0  0  0  0  0  0  0  0  0  0  0
  134.3538  139.0754  159.9552 Cl  0  0  0  0  0  0  0  0  0  0  0  0
  132.9534  138.9365  162.2399 C   0  0  0  0  0  0  0  0  0  0  0  0
  131.8155  138.6330  163.0058 C   0  0  0  0  0  0  0  0  0  0  0  0
  131.7854  138.8650  164.3918 C   0  0  0  0  0  0  0  0  0  0  0  0
  130.6598  138.5732  165.0990 C   0  0  0  0  0  0  0  0  0  0  0  0
  129.5386  138.0323  164.4723 C   0  0  0  0  0  0  0  0  0  0  0  0
  129.5331  137.7892  163.1333 C   0  0  0  0  0  0  0  0  0  0  0  0
  130.6734  138.0874  162.3676 C   0  0  0  0  0  0  0  0  0  0  0  0
  128.2372  135.1455  160.0606 C   0  0  0  0  0  0  0  0  0  0  0  0
  127.3096  135.8377  159.3049 C   0  0  0  0  0  0  0  0  0  0  0  0
  126.0563  135.2823  159.0988 C   0  0  0  0  0  0  0  0  0  0  0  0
  125.7816  134.0457  159.6631 C   0  0  0  0  0  0  0  0  0  0  0  0
  126.7572  133.4154  160.4115 C   0  0  0  0  0  0  0  0  0  0  0  0
  127.9410  133.9713  160.5821 N   0  0  0  0  0  0  0  0  0  0  0  0
  130.6270  133.7947  157.3676 N   0  0  0  0  0  0  0  0  0  0  0  0
  131.0232  134.4090  156.7299 H   0  0  0  0  0  0  0  0  0  0  0  0
  131.3111  130.6562  155.7761 C   0  0  0  0  0  0  0  0  0  0  0  0
  131.4834  129.9899  154.5812 C   0  0  0  0  0  0  0  0  0  0  0  0
  130.5986  130.1000  151.4159 H   0  0  0  0  0  0  0  0  0  0  0  0
  131.6002  128.9900  152.1824 H   0  0  0  0  0  0  0  0  0  0  0  0
  129.5613  131.9383  152.5866 H   0  0  0  0  0  0  0  0  0  0  0  0
  129.2400  133.1248  154.7161 H   0  0  0  0  0  0  0  0  0  0  0  0
  129.4082  130.9696  158.3829 H   0  0  0  0  0  0  0  0  0  0  0  0
  131.2417  135.8808  158.9482 H   0  0  0  0  0  0  0  0  0  0  0  0
  129.4671  137.6259  159.2589 H   0  0  0  0  0  0  0  0  0  0  0  0
  128.5959  137.5718  160.8101 H   0  0  0  0  0  0  0  0  0  0  0  0
  131.8439  137.9773  159.2074 H   0  0  0  0  0  0  0  0  0  0  0  0
  133.8291  139.3569  162.7119 H   0  0  0  0  0  0  0  0  0  0  0  0
  132.6467  139.2841  164.8907 H   0  0  0  0  0  0  0  0  0  0  0  0
  130.6383  138.7557  166.1632 H   0  0  0  0  0  0  0  0  0  0  0  0
  128.6609  137.8022  165.0582 H   0  0  0  0  0  0  0  0  0  0  0  0
  128.6568  137.3698  162.6613 H   0  0  0  0  0  0  0  0  0  0  0  0
  127.5580  136.7994  158.8807 H   0  0  0  0  0  0  0  0  0  0  0  0
  125.3118  135.8001  158.5124 H   0  0  0  0  0  0  0  0  0  0  0  0
  124.8157  133.5832  159.5229 H   0  0  0  0  0  0  0  0  0  0  0  0
  126.5495  132.4544  160.8584 H   0  0  0  0  0  0  0  0  0  0  0  0
  131.8028  130.2998  156.6692 H   0  0  0  0  0  0  0  0  0  0  0  0
  132.1106  129.1117  154.5385 H   0  0  0  0  0  0  0  0  0  0  0  0
  1  2  1  0
  1 36  1  0
  1 37  1  0
  2 35  2  0
  2  3  1  0
  3  4  2  0
  3 38  1  0
  4  5  1  0
  4 39  1  0
  5  6  1  0
  5 34  2  0
  6 32  1  0
  6  7  2  0
  7  8  1  0
  7 40  1  0
  8  9  1  0
  8 10  1  0
 10 11  1  0
 10 32  2  0
 11 12  1  0
 11 41  1  0
 12 13  1  1
 12 14  1  0
 12 26  1  0
 14 15  1  0
 14 42  1  0
 14 43  1  0
 15 25  1  0
 15 16  2  0
 16 17  1  0
 16 44  1  0
 17 18  1  0
 17 19  2  0
 19 20  1  0
 19 45  1  0
 20 25  2  0
 20 21  1  0
 21 22  2  0
 21 46  1  0
 22 23  1  0
 22 47  1  0
 23 24  2  0
 23 48  1  0
 24 25  1  0
 24 49  1  0
 26 31  1  0
 26 27  2  0
 27 28  1  0
 27 50  1  0
 28 29  2  0
 28 51  1  0
 29 30  1  0
 29 52  1  0
 30 31  2  0
 30 53  1  0
 32 33  1  0
 34 35  1  0
 34 54  1  0
 35 55  1  0
M  CHG  1  32   1
M  END
>  <DOCK_score>  (1) 
-57.957039

>  <SMILES>  (1) 
Nc1ccc(-c2c[nH]c(N[C@@H](Cc3cc(Cl)cc4ccccc34)c3ccccn3)[nH+]2)cc1

$$$$
