C1=CCC(CCNC2=C[C@@H]([NH2+]C(Cc3ccccc3)Cc3ccccc3)CCC2)C1
     RDKit          3D

 67 70  0  0  1  0  0  0  0  0999 V2000
  139.3904  136.3207  165.0724 C   0  0  0  0  0  0  0  0  0  0  0  0
  139.2167  135.0567  164.7972 C   0  0  0  0  0  0  0  0  0  0  0  0
  137.8874  134.8260  164.1169 C   0  0  0  0  0  0  0  0  0  0  0  0
  137.0784  136.1165  164.3833 C   0  0  0  0  0  0  0  0  0  0  0  0
  136.2309  136.4955  163.1671 C   0  0  0  0  0  0  0  0  0  0  0  0
  134.9603  135.6432  163.1455 C   0  0  0  0  0  0  0  0  0  0  0  0
  134.1488  136.0060  161.9811 N   0  0  0  0  0  0  0  0  0  0  0  0
  132.9401  135.3620  161.7490 C   0  0  0  0  0  0  0  0  0  0  0  0
  132.2484  135.7155  160.7004 C   0  0  0  0  0  0  0  0  0  0  0  0
  130.9260  135.1121  160.3266 C   0  0  1  0  0  0  0  0  0  0  0  0
  130.1296  135.8068  160.5932 H   0  0  0  0  0  0  0  0  0  0  0  0
  130.8920  134.8644  158.8791 N   0  0  0  0  0  0  0  0  0  0  0  0
  131.3297  135.6345  158.3957 H   0  0  0  0  0  0  0  0  0  0  0  0
  131.3892  134.0111  158.6721 H   0  0  0  0  0  0  0  0  0  0  0  0
  129.4969  134.7380  158.4366 C   0  0  0  0  0  0  0  0  0  0  0  0
  128.8834  136.1308  158.2798 C   0  0  0  0  0  0  0  0  0  0  0  0
  127.4523  136.0009  157.8258 C   0  0  0  0  0  0  0  0  0  0  0  0
  127.1549  135.9770  156.4760 C   0  0  0  0  0  0  0  0  0  0  0  0
  125.8425  135.8539  156.0594 C   0  0  0  0  0  0  0  0  0  0  0  0
  124.8269  135.7631  156.9927 C   0  0  0  0  0  0  0  0  0  0  0  0
  125.1238  135.7924  158.3425 C   0  0  0  0  0  0  0  0  0  0  0  0
  126.4365  135.9115  158.7589 C   0  0  0  0  0  0  0  0  0  0  0  0
  129.4523  134.0069  157.0933 C   0  0  0  0  0  0  0  0  0  0  0  0
  130.0566  132.6350  157.2477 C   0  0  0  0  0  0  0  0  0  0  0  0
  130.6882  132.0334  156.1753 C   0  0  0  0  0  0  0  0  0  0  0  0
  131.2460  130.7766  156.3180 C   0  0  0  0  0  0  0  0  0  0  0  0
  131.1650  130.1181  157.5306 C   0  0  0  0  0  0  0  0  0  0  0  0
  130.5288  130.7175  158.6015 C   0  0  0  0  0  0  0  0  0  0  0  0
  129.9744  131.9759  158.4600 C   0  0  0  0  0  0  0  0  0  0  0  0
  130.7182  133.7920  161.0721 C   0  0  0  0  0  0  0  0  0  0  0  0
  131.0103  134.0229  162.5599 C   0  0  0  0  0  0  0  0  0  0  0  0
  132.5052  134.3058  162.7224 C   0  0  0  0  0  0  0  0  0  0  0  0
  138.2103  137.1449  164.6132 C   0  0  0  0  0  0  0  0  0  0  0  0
  140.2651  136.7250  165.5603 H   0  0  0  0  0  0  0  0  0  0  0  0
  139.9285  134.2778  165.0272 H   0  0  0  0  0  0  0  0  0  0  0  0
  137.3805  133.9638  164.5507 H   0  0  0  0  0  0  0  0  0  0  0  0
  138.0325  134.6829  163.0460 H   0  0  0  0  0  0  0  0  0  0  0  0
  136.4576  136.0126  165.2731 H   0  0  0  0  0  0  0  0  0  0  0  0
  135.9603  137.5497  163.2271 H   0  0  0  0  0  0  0  0  0  0  0  0
  136.8027  136.3183  162.2563 H   0  0  0  0  0  0  0  0  0  0  0  0
  135.2309  134.5890  163.0856 H   0  0  0  0  0  0  0  0  0  0  0  0
  134.3885  135.8203  164.0564 H   0  0  0  0  0  0  0  0  0  0  0  0
  134.4554  136.6960  161.3721 H   0  0  0  0  0  0  0  0  0  0  0  0
  132.6534  136.4860  160.0612 H   0  0  0  0  0  0  0  0  0  0  0  0
  128.9308  134.1726  159.1768 H   0  0  0  0  0  0  0  0  0  0  0  0
  128.9151  136.6516  159.2368 H   0  0  0  0  0  0  0  0  0  0  0  0
  129.4496  136.6959  157.5396 H   0  0  0  0  0  0  0  0  0  0  0  0
  127.9482  136.0512  155.7468 H   0  0  0  0  0  0  0  0  0  0  0  0
  125.6107  135.8314  155.0048 H   0  0  0  0  0  0  0  0  0  0  0  0
  123.8013  135.6697  156.6672 H   0  0  0  0  0  0  0  0  0  0  0  0
  124.3301  135.7218  159.0715 H   0  0  0  0  0  0  0  0  0  0  0  0
  126.6684  135.9343  159.8135 H   0  0  0  0  0  0  0  0  0  0  0  0
  128.4171  133.9130  156.7650 H   0  0  0  0  0  0  0  0  0  0  0  0
  130.0184  134.5722  156.3529 H   0  0  0  0  0  0  0  0  0  0  0  0
  130.7486  132.5465  155.2269 H   0  0  0  0  0  0  0  0  0  0  0  0
  131.7427  130.3082  155.4811 H   0  0  0  0  0  0  0  0  0  0  0  0
  131.5983  129.1351  157.6413 H   0  0  0  0  0  0  0  0  0  0  0  0
  130.4651  130.2028  159.5488 H   0  0  0  0  0  0  0  0  0  0  0  0
  129.4773  132.4442  159.2966 H   0  0  0  0  0  0  0  0  0  0  0  0
  131.3990  133.0376  160.6780 H   0  0  0  0  0  0  0  0  0  0  0  0
  129.6874  133.4598  160.9484 H   0  0  0  0  0  0  0  0  0  0  0  0
  130.7421  133.1323  163.1284 H   0  0  0  0  0  0  0  0  0  0  0  0
  130.4349  134.8765  162.9181 H   0  0  0  0  0  0  0  0  0  0  0  0
  133.0682  133.3909  162.5381 H   0  0  0  0  0  0  0  0  0  0  0  0
  132.6998  134.6488  163.7386 H   0  0  0  0  0  0  0  0  0  0  0  0
  137.9230  137.8595  165.3845 H   0  0  0  0  0  0  0  0  0  0  0  0
  138.4481  137.6643  163.6850 H   0  0  0  0  0  0  0  0  0  0  0  0
  1 33  1  0
  1  2  2  0
  1 34  1  0
  2  3  1  0
  2 35  1  0
  3  4  1  0
  3 36  1  0
  3 37  1  0
  4  5  1  0
  4 33  1  0
  4 38  1  0
  5  6  1  0
  5 39  1  0
  5 40  1  0
  6  7  1  0
  6 41  1  0
  6 42  1  0
  7  8  1  0
  7 43  1  0
  8 32  1  0
  8  9  2  0
  9 10  1  0
  9 44  1  0
 10 11  1  6
 10 12  1  0
 10 30  1  0
 12 13  1  0
 12 14  1  0
 12 15  1  0
 15 16  1  0
 15 23  1  0
 15 45  1  0
 16 17  1  0
 16 46  1  0
 16 47  1  0
 17 22  1  0
 17 18  2  0
 18 19  1  0
 18 48  1  0
 19 20  2  0
 19 49  1  0
 20 21  1  0
 20 50  1  0
 21 22  2  0
 21 51  1  0
 22 52  1  0
 23 24  1  0
 23 53  1  0
 23 54  1  0
 24 29  1  0
 24 25  2  0
 25 26  1  0
 25 55  1  0
 26 27  2  0
 26 56  1  0
 27 28  1  0
 27 57  1  0
 28 29  2  0
 28 58  1  0
 29 59  1  0
 30 31  1  0
 30 60  1  0
 30 61  1  0
 31 32  1  0
 31 62  1  0
 31 63  1  0
 32 64  1  0
 32 65  1  0
 33 66  1  0
 33 67  1  0
M  CHG  1  12   1
M  END
>  <DOCK_score>  (1) 
-60.952419

>  <SMILES>  (1) 
C1=CCC(CCNC2=C[C@@H]([NH2+]C(Cc3ccccc3)Cc3ccccc3)CCC2)C1

$$$$
