Cc1ccc(CCNc2ccc(-c3n[nH]cc3C[NH2+]CC3CC3)o2)cc1
     RDKit          3D

 53 56  0  0  0  0  0  0  0  0999 V2000
  131.3071  137.8362  167.9136 C   0  0  0  0  0  0  0  0  0  0  0  0
  130.4105  137.2247  166.8681 C   0  0  0  0  0  0  0  0  0  0  0  0
  130.9268  136.8723  165.6351 C   0  0  0  0  0  0  0  0  0  0  0  0
  130.1044  136.3114  164.6760 C   0  0  0  0  0  0  0  0  0  0  0  0
  128.7656  136.1028  164.9499 C   0  0  0  0  0  0  0  0  0  0  0  0
  127.8689  135.4916  163.9042 C   0  0  0  0  0  0  0  0  0  0  0  0
  127.2625  136.6002  163.0413 C   0  0  0  0  0  0  0  0  0  0  0  0
  126.3909  136.0061  162.0247 N   0  0  0  0  0  0  0  0  0  0  0  0
  126.9125  135.1085  161.1004 C   0  0  0  0  0  0  0  0  0  0  0  0
  126.1979  134.2091  160.3792 C   0  0  0  0  0  0  0  0  0  0  0  0
  127.1149  133.5098  159.5696 C   0  0  0  0  0  0  0  0  0  0  0  0
  128.3469  134.0131  159.8453 C   0  0  0  0  0  0  0  0  0  0  0  0
  129.6178  133.5752  159.2320 C   0  0  0  0  0  0  0  0  0  0  0  0
  129.7568  132.6260  158.3273 N   0  0  0  0  0  0  0  0  0  0  0  0
  131.1170  132.5256  158.0086 N   0  0  0  0  0  0  0  0  0  0  0  0
  131.5073  131.9095  157.3689 H   0  0  0  0  0  0  0  0  0  0  0  0
  131.7919  133.4306  158.7499 C   0  0  0  0  0  0  0  0  0  0  0  0
  130.8989  134.0943  159.5146 C   0  0  0  0  0  0  0  0  0  0  0  0
  131.2144  135.1941  160.4955 C   0  0  0  0  0  0  0  0  0  0  0  0
  132.1548  136.1418  159.8829 N   0  0  0  0  0  0  0  0  0  0  0  0
  133.0051  135.6587  159.6344 H   0  0  0  0  0  0  0  0  0  0  0  0
  131.7392  136.5394  159.0538 H   0  0  0  0  0  0  0  0  0  0  0  0
  132.4622  137.2138  160.8390 C   0  0  0  0  0  0  0  0  0  0  0  0
  133.4418  138.2008  160.2009 C   0  0  0  0  0  0  0  0  0  0  0  0
  133.3462  139.6669  160.6280 C   0  0  0  0  0  0  0  0  0  0  0  0
  132.8683  139.2424  159.2379 C   0  0  0  0  0  0  0  0  0  0  0  0
  128.2102  134.9819  160.7750 O   0  0  0  0  0  0  0  0  0  0  0  0
  128.2481  136.4600  166.1810 C   0  0  0  0  0  0  0  0  0  0  0  0
  129.0717  137.0157  167.1421 C   0  0  0  0  0  0  0  0  0  0  0  0
  131.3036  138.9208  167.8058 H   0  0  0  0  0  0  0  0  0  0  0  0
  130.9435  137.5685  168.9057 H   0  0  0  0  0  0  0  0  0  0  0  0
  132.3226  137.4617  167.7854 H   0  0  0  0  0  0  0  0  0  0  0  0
  131.9727  137.0356  165.4209 H   0  0  0  0  0  0  0  0  0  0  0  0
  130.5078  136.0365  163.7126 H   0  0  0  0  0  0  0  0  0  0  0  0
  128.4511  134.8187  163.2747 H   0  0  0  0  0  0  0  0  0  0  0  0
  127.0701  134.9329  164.3919 H   0  0  0  0  0  0  0  0  0  0  0  0
  126.6805  137.2732  163.6707 H   0  0  0  0  0  0  0  0  0  0  0  0
  128.0613  137.1589  162.5535 H   0  0  0  0  0  0  0  0  0  0  0  0
  125.4498  136.2393  161.9967 H   0  0  0  0  0  0  0  0  0  0  0  0
  125.1291  134.0589  160.4167 H   0  0  0  0  0  0  0  0  0  0  0  0
  126.8836  132.7220  158.8680 H   0  0  0  0  0  0  0  0  0  0  0  0
  132.8593  133.5945  158.7339 H   0  0  0  0  0  0  0  0  0  0  0  0
  130.2959  135.7159  160.7641 H   0  0  0  0  0  0  0  0  0  0  0  0
  131.6632  134.7644  161.3911 H   0  0  0  0  0  0  0  0  0  0  0  0
  131.5437  137.7357  161.1075 H   0  0  0  0  0  0  0  0  0  0  0  0
  132.9111  136.7842  161.7346 H   0  0  0  0  0  0  0  0  0  0  0  0
  134.4329  137.8039  159.9811 H   0  0  0  0  0  0  0  0  0  0  0  0
  132.5855  139.9282  161.3637 H   0  0  0  0  0  0  0  0  0  0  0  0
  134.2745  140.2348  160.6895 H   0  0  0  0  0  0  0  0  0  0  0  0
  133.4823  139.5310  158.3848 H   0  0  0  0  0  0  0  0  0  0  0  0
  131.7933  139.2244  159.0590 H   0  0  0  0  0  0  0  0  0  0  0  0
  127.2011  136.3012  166.3933 H   0  0  0  0  0  0  0  0  0  0  0  0
  128.6684  137.2907  168.1055 H   0  0  0  0  0  0  0  0  0  0  0  0
  1  2  1  0
  1 30  1  0
  1 31  1  0
  1 32  1  0
  2 29  2  0
  2  3  1  0
  3  4  2  0
  3 33  1  0
  4  5  1  0
  4 34  1  0
  5  6  1  0
  5 28  2  0
  6  7  1  0
  6 35  1  0
  6 36  1  0
  7  8  1  0
  7 37  1  0
  7 38  1  0
  8  9  1  0
  8 39  1  0
  9 27  1  0
  9 10  2  0
 10 11  1  0
 10 40  1  0
 11 12  2  0
 11 41  1  0
 12 13  1  0
 12 27  1  0
 13 18  1  0
 13 14  2  0
 14 15  1  0
 15 16  1  0
 15 17  1  0
 17 18  2  0
 17 42  1  0
 18 19  1  0
 19 20  1  0
 19 43  1  0
 19 44  1  0
 20 21  1  0
 20 22  1  0
 20 23  1  0
 23 24  1  0
 23 45  1  0
 23 46  1  0
 24 26  1  0
 24 25  1  0
 24 47  1  0
 25 26  1  0
 25 48  1  0
 25 49  1  0
 26 50  1  0
 26 51  1  0
 28 29  1  0
 28 52  1  0
 29 53  1  0
M  CHG  1  20   1
M  END
>  <DOCK_score>  (1) 
-43.273899

>  <SMILES>  (1) 
Cc1ccc(CCNc2ccc(-c3n[nH]cc3C[NH2+]CC3CC3)o2)cc1

$$$$
