Fc1ccc2[nH]cc(C[NH2+]CC3=CCC[C@@H]3NCc3cnn(-c4ccccc4)c3)c2c1
     RDKit          3D

 58 62  0  0  1  0  0  0  0  0999 V2000
  136.0279  142.0122  163.2451 F   0  0  0  0  0  0  0  0  0  0  0  0
  135.8724  141.4585  162.0226 C   0  0  0  0  0  0  0  0  0  0  0  0
  136.4663  142.0513  160.9143 C   0  0  0  0  0  0  0  0  0  0  0  0
  136.3187  141.5010  159.6604 C   0  0  0  0  0  0  0  0  0  0  0  0
  135.5685  140.3416  159.4946 C   0  0  0  0  0  0  0  0  0  0  0  0
  135.2453  139.5715  158.3984 N   0  0  0  0  0  0  0  0  0  0  0  0
  135.5273  139.7517  157.4880 H   0  0  0  0  0  0  0  0  0  0  0  0
  134.4718  138.5118  158.7864 C   0  0  0  0  0  0  0  0  0  0  0  0
  134.2625  138.5590  160.1116 C   0  0  0  0  0  0  0  0  0  0  0  0
  133.4604  137.5784  160.9278 C   0  0  0  0  0  0  0  0  0  0  0  0
  132.9231  136.5325  160.0473 N   0  0  0  0  0  0  0  0  0  0  0  0
  133.6849  136.0498  159.5948 H   0  0  0  0  0  0  0  0  0  0  0  0
  132.3293  136.9536  159.3485 H   0  0  0  0  0  0  0  0  0  0  0  0
  132.1412  135.5766  160.8429 C   0  0  0  0  0  0  0  0  0  0  0  0
  131.5900  134.5038  159.9396 C   0  0  0  0  0  0  0  0  0  0  0  0
  132.3209  133.7028  159.2130 C   0  0  0  0  0  0  0  0  0  0  0  0
  131.4587  132.7456  158.4234 C   0  0  0  0  0  0  0  0  0  0  0  0
  130.0719  132.8126  159.1041 C   0  0  0  0  0  0  0  0  0  0  0  0
  130.1184  134.2144  159.7555 C   0  0  2  0  0  0  0  0  0  0  0  0
  129.6085  134.2025  160.7188 H   0  0  0  0  0  0  0  0  0  0  0  0
  129.5078  135.2121  158.8667 N   0  0  0  0  0  0  0  0  0  0  0  0
  128.0498  135.2505  159.0414 C   0  0  0  0  0  0  0  0  0  0  0  0
  127.7117  136.0606  160.2664 C   0  0  0  0  0  0  0  0  0  0  0  0
  126.7839  135.7115  161.2538 C   0  0  0  0  0  0  0  0  0  0  0  0
  126.7710  136.6586  162.1569 N   0  0  0  0  0  0  0  0  0  0  0  0
  127.6839  137.6474  161.7679 N   0  0  0  0  0  0  0  0  0  0  0  0
  127.9640  138.8315  162.4639 C   0  0  0  0  0  0  0  0  0  0  0  0
  128.8965  139.7294  161.9620 C   0  0  0  0  0  0  0  0  0  0  0  0
  129.1701  140.8955  162.6498 C   0  0  0  0  0  0  0  0  0  0  0  0
  128.5162  141.1691  163.8372 C   0  0  0  0  0  0  0  0  0  0  0  0
  127.5870  140.2767  164.3396 C   0  0  0  0  0  0  0  0  0  0  0  0
  127.3092  139.1090  163.6562 C   0  0  0  0  0  0  0  0  0  0  0  0
  128.2514  137.2545  160.6051 C   0  0  0  0  0  0  0  0  0  0  0  0
  134.9670  139.7406  160.6149 C   0  0  0  0  0  0  0  0  0  0  0  0
  135.1254  140.3092  161.8807 C   0  0  0  0  0  0  0  0  0  0  0  0
  137.0496  142.9518  161.0376 H   0  0  0  0  0  0  0  0  0  0  0  0
  136.7845  141.9699  158.8063 H   0  0  0  0  0  0  0  0  0  0  0  0
  134.0846  137.7514  158.1244 H   0  0  0  0  0  0  0  0  0  0  0  0
  132.6376  138.1000  161.4166 H   0  0  0  0  0  0  0  0  0  0  0  0
  134.1019  137.1237  161.6827 H   0  0  0  0  0  0  0  0  0  0  0  0
  131.3185  136.0982  161.3318 H   0  0  0  0  0  0  0  0  0  0  0  0
  132.7827  135.1218  161.5977 H   0  0  0  0  0  0  0  0  0  0  0  0
  133.4003  133.7215  159.1809 H   0  0  0  0  0  0  0  0  0  0  0  0
  131.8620  131.7346  158.4819 H   0  0  0  0  0  0  0  0  0  0  0  0
  131.3873  133.0655  157.3838 H   0  0  0  0  0  0  0  0  0  0  0  0
  129.9687  132.0335  159.8593 H   0  0  0  0  0  0  0  0  0  0  0  0
  129.2706  132.7496  158.3680 H   0  0  0  0  0  0  0  0  0  0  0  0
  129.7522  135.0362  157.9037 H   0  0  0  0  0  0  0  0  0  0  0  0
  127.6714  134.2354  159.1614 H   0  0  0  0  0  0  0  0  0  0  0  0
  127.5907  135.7082  158.1650 H   0  0  0  0  0  0  0  0  0  0  0  0
  126.1853  134.8129  161.2705 H   0  0  0  0  0  0  0  0  0  0  0  0
  129.4072  139.5164  161.0345 H   0  0  0  0  0  0  0  0  0  0  0  0
  129.8986  141.5921  162.2622 H   0  0  0  0  0  0  0  0  0  0  0  0
  128.7320  142.0813  164.3734 H   0  0  0  0  0  0  0  0  0  0  0  0
  127.0779  140.4931  165.2671 H   0  0  0  0  0  0  0  0  0  0  0  0
  126.5831  138.4126  164.0489 H   0  0  0  0  0  0  0  0  0  0  0  0
  129.0009  137.7959  160.0471 H   0  0  0  0  0  0  0  0  0  0  0  0
  134.6647  139.8510  162.7434 H   0  0  0  0  0  0  0  0  0  0  0  0
  1  2  1  0
  2 35  2  0
  2  3  1  0
  3  4  2  0
  3 36  1  0
  4  5  1  0
  4 37  1  0
  5 34  2  0
  5  6  1  0
  6  7  1  0
  6  8  1  0
  8  9  2  0
  8 38  1  0
  9 10  1  0
  9 34  1  0
 10 11  1  0
 10 39  1  0
 10 40  1  0
 11 12  1  0
 11 13  1  0
 11 14  1  0
 14 15  1  0
 14 41  1  0
 14 42  1  0
 15 19  1  0
 15 16  2  0
 16 17  1  0
 16 43  1  0
 17 18  1  0
 17 44  1  0
 17 45  1  0
 18 19  1  0
 18 46  1  0
 18 47  1  0
 19 20  1  1
 19 21  1  0
 21 22  1  0
 21 48  1  0
 22 23  1  0
 22 49  1  0
 22 50  1  0
 23 33  2  0
 23 24  1  0
 24 25  2  0
 24 51  1  0
 25 26  1  0
 26 27  1  0
 26 33  1  0
 27 32  1  0
 27 28  2  0
 28 29  1  0
 28 52  1  0
 29 30  2  0
 29 53  1  0
 30 31  1  0
 30 54  1  0
 31 32  2  0
 31 55  1  0
 32 56  1  0
 33 57  1  0
 34 35  1  0
 35 58  1  0
M  CHG  1  11   1
M  END
>  <DOCK_score>  (1) 
-54.000824

>  <SMILES>  (1) 
Fc1ccc2[nH]cc(C[NH2+]CC3=CCC[C@@H]3NCc3cnn(-c4ccccc4)c3)c2c1

$$$$
