CCc1ccc(-c2c[nH]c(NC(C3C(C)C3Cl)[C@@H](C(N)=O)c3ccc(F)cc3)[nH+]2)cc1
     RDKit          3D

 58 61  0  0  1  0  0  0  0  0999 V2000
  129.9588  128.9606  151.6812 C   0  0  0  0  0  0  0  0  0  0  0  0
  131.0810  129.9722  151.9256 C   0  0  0  0  0  0  0  0  0  0  0  0
  130.8916  130.6163  153.2748 C   0  0  0  0  0  0  0  0  0  0  0  0
  131.4705  130.0502  154.3960 C   0  0  0  0  0  0  0  0  0  0  0  0
  131.3002  130.6355  155.6341 C   0  0  0  0  0  0  0  0  0  0  0  0
  130.5430  131.7996  155.7534 C   0  0  0  0  0  0  0  0  0  0  0  0
  130.3565  132.4335  157.0813 C   0  0  0  0  0  0  0  0  0  0  0  0
  129.7798  131.8591  158.1659 C   0  0  0  0  0  0  0  0  0  0  0  0
  129.8173  132.7886  159.1767 N   0  0  0  0  0  0  0  0  0  0  0  0
  129.4820  132.6699  160.0791 H   0  0  0  0  0  0  0  0  0  0  0  0
  130.4091  133.9077  158.6773 C   0  0  0  0  0  0  0  0  0  0  0  0
  130.6372  135.0800  159.3775 N   0  0  0  0  0  0  0  0  0  0  0  0
  130.2290  135.1867  160.7805 C   0  0  2  0  0  0  0  0  0  0  0  0
  129.2234  136.3295  160.9337 C   0  0  2  0  0  0  0  0  0  0  0  0
  128.1543  136.1900  162.0203 C   0  0  1  0  0  0  0  0  0  0  0  0
  127.7144  137.4632  162.7459 C   0  0  0  0  0  0  0  0  0  0  0  0
  127.7703  136.0487  160.5460 C   0  0  2  0  0  0  0  0  0  0  0  0
  127.3737  134.3962  159.9437 Cl  0  0  0  0  0  0  0  0  0  0  0  0
  131.4568  135.4677  161.6490 C   0  0  1  0  0  0  0  0  0  0  0  0
  131.1529  135.5469  162.6929 H   0  0  0  0  0  0  0  0  0  0  0  0
  132.4471  134.3416  161.4982 C   0  0  0  0  0  0  0  0  0  0  0  0
  133.2644  134.0215  162.5209 N   0  0  0  0  0  0  0  0  0  0  0  0
  132.5086  133.7238  160.4565 O   0  0  0  0  0  0  0  0  0  0  0  0
  132.0957  136.7606  161.2121 C   0  0  0  0  0  0  0  0  0  0  0  0
  133.0790  136.7514  160.2404 C   0  0  0  0  0  0  0  0  0  0  0  0
  133.6617  137.9370  159.8348 C   0  0  0  0  0  0  0  0  0  0  0  0
  133.2682  139.1334  160.4101 C   0  0  0  0  0  0  0  0  0  0  0  0
  133.8411  140.2926  160.0185 F   0  0  0  0  0  0  0  0  0  0  0  0
  132.2872  139.1408  161.3874 C   0  0  0  0  0  0  0  0  0  0  0  0
  131.7023  137.9545  161.7876 C   0  0  0  0  0  0  0  0  0  0  0  0
  130.7327  133.6907  157.4259 N   0  0  0  0  0  0  0  0  0  0  0  0
  131.1711  134.3272  156.8398 H   0  0  0  0  0  0  0  0  0  0  0  0
  129.9569  132.3625  154.6211 C   0  0  0  0  0  0  0  0  0  0  0  0
  130.1382  131.7715  153.3872 C   0  0  0  0  0  0  0  0  0  0  0  0
  128.9965  129.4717  151.7079 H   0  0  0  0  0  0  0  0  0  0  0  0
  130.0958  128.4948  150.7053 H   0  0  0  0  0  0  0  0  0  0  0  0
  129.9851  128.1947  152.4563 H   0  0  0  0  0  0  0  0  0  0  0  0
  131.0541  130.7381  151.1505 H   0  0  0  0  0  0  0  0  0  0  0  0
  132.0428  129.4611  151.8988 H   0  0  0  0  0  0  0  0  0  0  0  0
  132.0570  129.1481  154.3023 H   0  0  0  0  0  0  0  0  0  0  0  0
  131.7532  130.1927  156.5088 H   0  0  0  0  0  0  0  0  0  0  0  0
  129.3728  130.8604  158.2250 H   0  0  0  0  0  0  0  0  0  0  0  0
  131.0674  135.8309  158.9392 H   0  0  0  0  0  0  0  0  0  0  0  0
  129.7668  134.2514  161.0964 H   0  0  0  0  0  0  0  0  0  0  0  0
  129.6130  137.3283  160.7361 H   0  0  0  0  0  0  0  0  0  0  0  0
  128.1669  135.2841  162.6261 H   0  0  0  0  0  0  0  0  0  0  0  0
  126.9546  137.2149  163.4868 H   0  0  0  0  0  0  0  0  0  0  0  0
  128.5737  137.9131  163.2434 H   0  0  0  0  0  0  0  0  0  0  0  0
  127.3019  138.1685  162.0245 H   0  0  0  0  0  0  0  0  0  0  0  0
  127.2038  136.8626  160.0932 H   0  0  0  0  0  0  0  0  0  0  0  0
  133.2151  134.5158  163.3542 H   0  0  0  0  0  0  0  0  0  0  0  0
  133.9017  133.2969  162.4240 H   0  0  0  0  0  0  0  0  0  0  0  0
  133.3890  135.8176  159.7950 H   0  0  0  0  0  0  0  0  0  0  0  0
  134.4264  137.9301  159.0723 H   0  0  0  0  0  0  0  0  0  0  0  0
  131.9798  140.0734  161.8370 H   0  0  0  0  0  0  0  0  0  0  0  0
  130.9373  137.9601  162.5497 H   0  0  0  0  0  0  0  0  0  0  0  0
  129.3653  133.2618  154.7084 H   0  0  0  0  0  0  0  0  0  0  0  0
  129.6881  132.2091  152.5085 H   0  0  0  0  0  0  0  0  0  0  0  0
  1  2  1  0
  1 35  1  0
  1 36  1  0
  1 37  1  0
  2  3  1  0
  2 38  1  0
  2 39  1  0
  3 34  2  0
  3  4  1  0
  4  5  2  0
  4 40  1  0
  5  6  1  0
  5 41  1  0
  6  7  1  0
  6 33  2  0
  7 31  1  0
  7  8  2  0
  8  9  1  0
  8 42  1  0
  9 10  1  0
  9 11  1  0
 11 12  1  0
 11 31  2  0
 12 13  1  0
 12 43  1  0
 13 14  1  0
 13 19  1  0
 13 44  1  1
 14 17  1  0
 14 15  1  0
 14 45  1  6
 15 16  1  0
 15 17  1  0
 15 46  1  1
 16 47  1  0
 16 48  1  0
 16 49  1  0
 17 18  1  0
 17 50  1  6
 19 20  1  1
 19 21  1  0
 19 24  1  0
 21 22  1  0
 21 23  2  0
 22 51  1  0
 22 52  1  0
 24 30  1  0
 24 25  2  0
 25 26  1  0
 25 53  1  0
 26 27  2  0
 26 54  1  0
 27 28  1  0
 27 29  1  0
 29 30  2  0
 29 55  1  0
 30 56  1  0
 31 32  1  0
 33 34  1  0
 33 57  1  0
 34 58  1  0
M  CHG  1  31   1
M  END
>  <DOCK_score>  (1) 
-60.219444

>  <SMILES>  (1) 
CCc1ccc(-c2c[nH]c(NC(C3C(C)C3Cl)[C@@H](C(N)=O)c3ccc(F)cc3)[nH+]2)cc1

$$$$
