CCc1cc(Nc2[nH]cc(-c3ccc(N)cc3)[nH+]2)ccc1O
     RDKit          3D

 41 43  0  0  1  0  0  0  0  0999 V2000
  130.4234  137.7434  162.6469 C   0  0  0  0  0  0  0  0  0  0  0  0
  129.2298  136.8008  162.8130 C   0  0  0  0  0  0  0  0  0  0  0  0
  128.7415  136.3647  161.4557 C   0  0  0  0  0  0  0  0  0  0  0  0
  129.6465  135.9638  160.4924 C   0  0  0  0  0  0  0  0  0  0  0  0
  129.1968  135.5674  159.2400 C   0  0  0  0  0  0  0  0  0  0  0  0
  130.1138  135.1661  158.2611 N   0  0  0  0  0  0  0  0  0  0  0  0
  130.0452  133.8887  157.7302 C   0  0  0  0  0  0  0  0  0  0  0  0
  129.5901  132.7830  158.3806 N   0  0  0  0  0  0  0  0  0  0  0  0
  129.2587  132.7480  159.2915 H   0  0  0  0  0  0  0  0  0  0  0  0
  129.6877  131.7254  157.5083 C   0  0  0  0  0  0  0  0  0  0  0  0
  130.1990  132.2154  156.3517 C   0  0  0  0  0  0  0  0  0  0  0  0
  130.4805  131.4347  155.1219 C   0  0  0  0  0  0  0  0  0  0  0  0
  129.8397  131.7590  153.9272 C   0  0  0  0  0  0  0  0  0  0  0  0
  130.1076  131.0361  152.7840 C   0  0  0  0  0  0  0  0  0  0  0  0
  131.0066  129.9767  152.8253 C   0  0  0  0  0  0  0  0  0  0  0  0
  131.2717  129.2416  151.6672 N   0  0  0  0  0  0  0  0  0  0  0  0
  131.6423  129.6480  154.0166 C   0  0  0  0  0  0  0  0  0  0  0  0
  131.3820  130.3722  155.1607 C   0  0  0  0  0  0  0  0  0  0  0  0
  130.4027  133.5460  156.5163 N   0  0  0  0  0  0  0  0  0  0  0  0
  130.7582  134.1479  155.8437 H   0  0  0  0  0  0  0  0  0  0  0  0
  127.8366  135.5688  158.9589 C   0  0  0  0  0  0  0  0  0  0  0  0
  126.9328  135.9643  159.9250 C   0  0  0  0  0  0  0  0  0  0  0  0
  127.3833  136.3607  161.1761 C   0  0  0  0  0  0  0  0  0  0  0  0
  126.4925  136.7513  162.1264 O   0  0  0  0  0  0  0  0  0  0  0  0
  131.2255  137.2248  162.1216 H   0  0  0  0  0  0  0  0  0  0  0  0
  130.1187  138.6179  162.0721 H   0  0  0  0  0  0  0  0  0  0  0  0
  130.7767  138.0589  163.6287 H   0  0  0  0  0  0  0  0  0  0  0  0
  128.4277  137.3195  163.3383 H   0  0  0  0  0  0  0  0  0  0  0  0
  129.5345  135.9263  163.3877 H   0  0  0  0  0  0  0  0  0  0  0  0
  130.7041  135.9630  160.7118 H   0  0  0  0  0  0  0  0  0  0  0  0
  130.7971  135.7826  157.9547 H   0  0  0  0  0  0  0  0  0  0  0  0
  129.4100  130.7006  157.7059 H   0  0  0  0  0  0  0  0  0  0  0  0
  129.1373  132.5788  153.8960 H   0  0  0  0  0  0  0  0  0  0  0  0
  129.6152  131.2900  151.8570 H   0  0  0  0  0  0  0  0  0  0  0  0
  131.8991  128.5024  151.6950 H   0  0  0  0  0  0  0  0  0  0  0  0
  130.8285  129.4705  150.8352 H   0  0  0  0  0  0  0  0  0  0  0  0
  132.3403  128.8244  154.0462 H   0  0  0  0  0  0  0  0  0  0  0  0
  131.8764  130.1165  156.0862 H   0  0  0  0  0  0  0  0  0  0  0  0
  127.4859  135.2603  157.9852 H   0  0  0  0  0  0  0  0  0  0  0  0
  125.8752  135.9654  159.7067 H   0  0  0  0  0  0  0  0  0  0  0  0
  125.5696  136.7145  161.8394 H   0  0  0  0  0  0  0  0  0  0  0  0
  1  2  1  0
  1 25  1  0
  1 26  1  0
  1 27  1  0
  2  3  1  0
  2 28  1  0
  2 29  1  0
  3 23  2  0
  3  4  1  0
  4  5  2  0
  4 30  1  0
  5  6  1  0
  5 21  1  0
  6 31  1  0
  7  6  1  0
  7 19  2  0
  7  8  1  0
  8  9  1  0
  8 10  1  0
 10 11  2  0
 10 32  1  0
 11 12  1  0
 11 19  1  0
 12 18  1  0
 12 13  2  0
 13 14  1  0
 13 33  1  0
 14 15  2  0
 14 34  1  0
 15 16  1  0
 15 17  1  0
 16 35  1  0
 16 36  1  0
 17 18  2  0
 17 37  1  0
 18 38  1  0
 19 20  1  0
 21 22  2  0
 21 39  1  0
 22 23  1  0
 22 40  1  0
 23 24  1  0
 24 41  1  0
M  CHG  1  19   1
M  END
>  <DOCK_score>  (1) 
-51.384399

>  <SMILES>  (1) 
CCc1cc(Nc2[nH]cc(-c3ccc(N)cc3)[nH+]2)ccc1O

$$$$
