COc1cccc2c1OCC([NH2+]C1=C[C@H](Nc3cccc(O)c3)CCC1)C2
     RDKit          3D

 54 57  0  0  1  0  0  0  0  0999 V2000
  134.8692  141.7012  161.8518 C   0  0  0  0  0  0  0  0  0  0  0  0
  133.6416  141.1710  162.3557 O   0  0  0  0  0  0  0  0  0  0  0  0
  133.6889  139.9355  162.9220 C   0  0  0  0  0  0  0  0  0  0  0  0
  133.9369  139.8060  164.2776 C   0  0  0  0  0  0  0  0  0  0  0  0
  133.9855  138.5497  164.8522 C   0  0  0  0  0  0  0  0  0  0  0  0
  133.7881  137.4259  164.0743 C   0  0  0  0  0  0  0  0  0  0  0  0
  133.5405  137.5473  162.7160 C   0  0  0  0  0  0  0  0  0  0  0  0
  133.4881  138.8006  162.1355 C   0  0  0  0  0  0  0  0  0  0  0  0
  133.2377  138.9666  160.8096 O   0  0  0  0  0  0  0  0  0  0  0  0
  133.3978  137.8346  159.9535 C   0  0  0  0  0  0  0  0  0  0  0  0
  132.6530  136.6474  160.5773 C   0  0  1  0  0  0  0  0  0  0  0  0
  132.7103  135.4942  159.6690 N   0  0  0  0  0  0  0  0  0  0  0  0
  132.5913  135.8090  158.7178 H   0  0  0  0  0  0  0  0  0  0  0  0
  133.6046  135.0366  159.7626 H   0  0  0  0  0  0  0  0  0  0  0  0
  131.6904  134.5946  159.9930 C   0  0  0  0  0  0  0  0  0  0  0  0
  130.5445  134.7402  159.4088 C   0  0  0  0  0  0  0  0  0  0  0  0
  129.3623  133.8456  159.6422 C   0  0  2  0  0  0  0  0  0  0  0  0
  129.2584  133.1534  158.8064 H   0  0  0  0  0  0  0  0  0  0  0  0
  128.1531  134.6660  159.7464 N   0  0  0  0  0  0  0  0  0  0  0  0
  126.9142  134.0592  159.9653 C   0  0  0  0  0  0  0  0  0  0  0  0
  126.6741  132.7760  159.4890 C   0  0  0  0  0  0  0  0  0  0  0  0
  125.4491  132.1761  159.7060 C   0  0  0  0  0  0  0  0  0  0  0  0
  124.4594  132.8495  160.3966 C   0  0  0  0  0  0  0  0  0  0  0  0
  124.6932  134.1313  160.8742 C   0  0  0  0  0  0  0  0  0  0  0  0
  123.7191  134.7922  161.5532 O   0  0  0  0  0  0  0  0  0  0  0  0
  125.9233  134.7349  160.6637 C   0  0  0  0  0  0  0  0  0  0  0  0
  129.5505  133.0526  160.9372 C   0  0  0  0  0  0  0  0  0  0  0  0
  130.9437  132.4112  160.9152 C   0  0  0  0  0  0  0  0  0  0  0  0
  131.9903  133.5241  161.0010 C   0  0  0  0  0  0  0  0  0  0  0  0
  133.3342  136.2951  161.9020 C   0  0  0  0  0  0  0  0  0  0  0  0
  135.5921  141.7787  162.6640 H   0  0  0  0  0  0  0  0  0  0  0  0
  135.2606  141.0394  161.0791 H   0  0  0  0  0  0  0  0  0  0  0  0
  134.6914  142.6895  161.4280 H   0  0  0  0  0  0  0  0  0  0  0  0
  134.0918  140.6853  164.8855 H   0  0  0  0  0  0  0  0  0  0  0  0
  134.1776  138.4470  165.9100 H   0  0  0  0  0  0  0  0  0  0  0  0
  133.8272  136.4461  164.5271 H   0  0  0  0  0  0  0  0  0  0  0  0
  134.4566  137.5941  159.8570 H   0  0  0  0  0  0  0  0  0  0  0  0
  132.9800  138.0551  158.9712 H   0  0  0  0  0  0  0  0  0  0  0  0
  131.6135  136.9203  160.7592 H   0  0  0  0  0  0  0  0  0  0  0  0
  130.4335  135.5536  158.7071 H   0  0  0  0  0  0  0  0  0  0  0  0
  128.2128  135.6306  159.6635 H   0  0  0  0  0  0  0  0  0  0  0  0
  127.4458  132.2474  158.9492 H   0  0  0  0  0  0  0  0  0  0  0  0
  125.2643  131.1785  159.3354 H   0  0  0  0  0  0  0  0  0  0  0  0
  123.5025  132.3778  160.5647 H   0  0  0  0  0  0  0  0  0  0  0  0
  123.9749  135.6777  161.8458 H   0  0  0  0  0  0  0  0  0  0  0  0
  126.1088  135.7304  161.0390 H   0  0  0  0  0  0  0  0  0  0  0  0
  128.7900  132.2747  161.0043 H   0  0  0  0  0  0  0  0  0  0  0  0
  129.4681  133.7205  161.7946 H   0  0  0  0  0  0  0  0  0  0  0  0
  131.0761  131.8544  159.9876 H   0  0  0  0  0  0  0  0  0  0  0  0
  131.0517  131.7402  161.7673 H   0  0  0  0  0  0  0  0  0  0  0  0
  132.9779  133.1074  160.8026 H   0  0  0  0  0  0  0  0  0  0  0  0
  131.9748  133.9556  162.0018 H   0  0  0  0  0  0  0  0  0  0  0  0
  132.7063  135.5997  162.4590 H   0  0  0  0  0  0  0  0  0  0  0  0
  134.2993  135.8300  161.7010 H   0  0  0  0  0  0  0  0  0  0  0  0
  1  2  1  0
  1 31  1  0
  1 32  1  0
  1 33  1  0
  2  3  1  0
  3  8  2  0
  3  4  1  0
  4  5  2  0
  4 34  1  0
  5  6  1  0
  5 35  1  0
  6  7  2  0
  6 36  1  0
  7 30  1  0
  7  8  1  0
  8  9  1  0
  9 10  1  0
 10 11  1  0
 10 37  1  0
 10 38  1  0
 11 12  1  0
 11 30  1  0
 11 39  1  1
 12 13  1  0
 12 14  1  0
 12 15  1  0
 15 29  1  0
 15 16  2  0
 16 17  1  0
 16 40  1  0
 17 18  1  6
 17 19  1  0
 17 27  1  0
 19 20  1  0
 19 41  1  0
 20 26  1  0
 20 21  2  0
 21 22  1  0
 21 42  1  0
 22 23  2  0
 22 43  1  0
 23 24  1  0
 23 44  1  0
 24 25  1  0
 24 26  2  0
 25 45  1  0
 26 46  1  0
 27 28  1  0
 27 47  1  0
 27 48  1  0
 28 29  1  0
 28 49  1  0
 28 50  1  0
 29 51  1  0
 29 52  1  0
 30 53  1  0
 30 54  1  0
M  CHG  1  12   1
M  END
>  <DOCK_score>  (1) 
-42.786686

>  <SMILES>  (1) 
COc1cccc2c1OCC([NH2+]C1=C[C@H](Nc3cccc(O)c3)CCC1)C2

$$$$
