O=C1C[C@H]([NH+]=C(NC2C=C(c3ccccc3)C2)NC2CC=CCC2)CN1
     RDKit          3D

 53 56  0  0  1  0  0  0  0  0999 V2000
  125.9313  138.0065  164.8733 O   0  0  0  0  0  0  0  0  0  0  0  0
  126.6466  137.6320  163.9683 C   0  0  0  0  0  0  0  0  0  0  0  0
  128.1560  137.7317  163.9590 C   0  0  0  0  0  0  0  0  0  0  0  0
  128.5927  136.7684  162.8309 C   0  0  2  0  0  0  0  0  0  0  0  0
  128.8144  135.7778  163.2279 H   0  0  0  0  0  0  0  0  0  0  0  0
  129.7419  137.3058  162.0982 N   0  0  0  0  0  0  0  0  0  0  0  0
  130.1209  138.1622  162.3509 H   0  0  0  0  0  0  0  0  0  0  0  0
  130.2550  136.6332  161.1067 C   0  0  0  0  0  0  0  0  0  0  0  0
  131.3334  137.1375  160.4191 N   0  0  0  0  0  0  0  0  0  0  0  0
  131.9059  138.4309  160.8008 C   0  0  2  0  0  0  0  0  0  0  0  0
  132.9834  138.9248  159.8551 C   0  0  0  0  0  0  0  0  0  0  0  0
  133.9534  138.8353  160.7721 C   0  0  0  0  0  0  0  0  0  0  0  0
  135.4028  139.1241  160.7410 C   0  0  0  0  0  0  0  0  0  0  0  0
  136.1796  138.9351  161.8845 C   0  0  0  0  0  0  0  0  0  0  0  0
  137.5328  139.2020  161.8474 C   0  0  0  0  0  0  0  0  0  0  0  0
  138.1177  139.6659  160.6828 C   0  0  0  0  0  0  0  0  0  0  0  0
  137.3521  139.8604  159.5471 C   0  0  0  0  0  0  0  0  0  0  0  0
  135.9988  139.5923  159.5695 C   0  0  0  0  0  0  0  0  0  0  0  0
  133.0211  138.3279  161.8549 C   0  0  0  0  0  0  0  0  0  0  0  0
  129.7178  135.4194  160.7484 N   0  0  0  0  0  0  0  0  0  0  0  0
  130.2947  134.6635  159.6338 C   0  0  2  0  0  0  0  0  0  0  0  0
  129.2085  133.8122  158.9728 C   0  0  0  0  0  0  0  0  0  0  0  0
  129.8266  132.8444  158.0067 C   0  0  0  0  0  0  0  0  0  0  0  0
  131.0818  132.5278  158.0004 C   0  0  0  0  0  0  0  0  0  0  0  0
  132.0959  133.0917  158.9521 C   0  0  0  0  0  0  0  0  0  0  0  0
  131.3945  133.7289  160.1534 C   0  0  0  0  0  0  0  0  0  0  0  0
  127.3327  136.7376  161.9377 C   0  0  0  0  0  0  0  0  0  0  0  0
  126.2135  137.0673  162.8280 N   0  0  0  0  0  0  0  0  0  0  0  0
  128.5657  137.4089  164.9161 H   0  0  0  0  0  0  0  0  0  0  0  0
  128.4717  138.7504  163.7341 H   0  0  0  0  0  0  0  0  0  0  0  0
  131.7153  136.6368  159.6812 H   0  0  0  0  0  0  0  0  0  0  0  0
  131.1481  139.1786  161.0348 H   0  0  0  0  0  0  0  0  0  0  0  0
  132.9720  139.2348  158.8207 H   0  0  0  0  0  0  0  0  0  0  0  0
  135.7234  138.5768  162.7955 H   0  0  0  0  0  0  0  0  0  0  0  0
  138.1359  139.0521  162.7308 H   0  0  0  0  0  0  0  0  0  0  0  0
  139.1765  139.8776  160.6602 H   0  0  0  0  0  0  0  0  0  0  0  0
  137.8147  140.2226  158.6408 H   0  0  0  0  0  0  0  0  0  0  0  0
  135.4023  139.7443  158.6820 H   0  0  0  0  0  0  0  0  0  0  0  0
  132.9010  139.0183  162.6899 H   0  0  0  0  0  0  0  0  0  0  0  0
  133.2318  137.3067  162.1728 H   0  0  0  0  0  0  0  0  0  0  0  0
  128.9569  135.0635  161.2334 H   0  0  0  0  0  0  0  0  0  0  0  0
  130.7155  135.3533  158.9022 H   0  0  0  0  0  0  0  0  0  0  0  0
  128.6655  133.2599  159.7398 H   0  0  0  0  0  0  0  0  0  0  0  0
  128.5149  134.4620  158.4392 H   0  0  0  0  0  0  0  0  0  0  0  0
  129.1844  132.3830  157.2712 H   0  0  0  0  0  0  0  0  0  0  0  0
  131.4202  131.8133  157.2646 H   0  0  0  0  0  0  0  0  0  0  0  0
  132.7504  132.2917  159.2982 H   0  0  0  0  0  0  0  0  0  0  0  0
  132.6901  133.8487  158.4402 H   0  0  0  0  0  0  0  0  0  0  0  0
  132.1153  134.3007  160.7379 H   0  0  0  0  0  0  0  0  0  0  0  0
  130.9507  132.9501  160.7737 H   0  0  0  0  0  0  0  0  0  0  0  0
  127.4147  137.4803  161.1441 H   0  0  0  0  0  0  0  0  0  0  0  0
  127.1961  135.7434  161.5123 H   0  0  0  0  0  0  0  0  0  0  0  0
  125.2810  136.8990  162.6204 H   0  0  0  0  0  0  0  0  0  0  0  0
  1  2  2  0
  2 28  1  0
  2  3  1  0
  3  4  1  0
  3 29  1  0
  3 30  1  0
  4  5  1  1
  4  6  1  0
  4 27  1  0
  6  7  1  0
  8  6  2  0
  8  9  1  0
  8 20  1  0
  9 10  1  0
  9 31  1  0
 10 19  1  0
 10 11  1  0
 10 32  1  1
 11 12  2  0
 11 33  1  0
 12 13  1  0
 12 19  1  0
 13 18  1  0
 13 14  2  0
 14 15  1  0
 14 34  1  0
 15 16  2  0
 15 35  1  0
 16 17  1  0
 16 36  1  0
 17 18  2  0
 17 37  1  0
 18 38  1  0
 19 39  1  0
 19 40  1  0
 20 21  1  0
 20 41  1  0
 21 26  1  0
 21 22  1  0
 21 42  1  6
 22 23  1  0
 22 43  1  0
 22 44  1  0
 23 24  2  0
 23 45  1  0
 24 25  1  0
 24 46  1  0
 25 26  1  0
 25 47  1  0
 25 48  1  0
 26 49  1  0
 26 50  1  0
 27 28  1  0
 27 51  1  0
 27 52  1  0
 28 53  1  0
M  CHG  1   6   1
M  END
>  <DOCK_score>  (1) 
-44.915421

>  <SMILES>  (1) 
O=C1C[C@H]([NH+]=C(NC2C=C(c3ccccc3)C2)NC2CC=CCC2)CN1

$$$$
