C[C@H](Cl)C(Cc1ccccc1)N1CC[NH+](Cc2ccc(C3=CC(Cl)CC3)cc2)CC1
     RDKit          3D

 63 66  0  0  1  0  0  0  0  0999 V2000
  129.4333  130.3639  159.1533 C   0  0  0  0  0  0  0  0  0  0  0  0
  130.2258  130.4521  157.8477 C   0  0  2  0  0  0  0  0  0  0  0  0
  129.9362  129.6319  157.1906 H   0  0  0  0  0  0  0  0  0  0  0  0
  131.9892  130.3403  158.2065 Cl  0  0  0  0  0  0  0  0  0  0  0  0
  129.9288  131.7859  157.1597 C   0  0  2  0  0  0  0  0  0  0  0  0
  131.0435  132.1041  156.1610 C   0  0  0  0  0  0  0  0  0  0  0  0
  130.8180  131.3244  154.8912 C   0  0  0  0  0  0  0  0  0  0  0  0
  131.3706  130.0657  154.7457 C   0  0  0  0  0  0  0  0  0  0  0  0
  131.1598  129.3485  153.5831 C   0  0  0  0  0  0  0  0  0  0  0  0
  130.4051  129.8944  152.5615 C   0  0  0  0  0  0  0  0  0  0  0  0
  129.8569  131.1553  152.7049 C   0  0  0  0  0  0  0  0  0  0  0  0
  130.0634  131.8703  153.8698 C   0  0  0  0  0  0  0  0  0  0  0  0
  129.8561  132.8515  158.1682 N   0  0  0  0  0  0  0  0  0  0  0  0
  129.0524  133.9823  157.6826 C   0  0  0  0  0  0  0  0  0  0  0  0
  128.9520  135.0421  158.7820 C   0  0  0  0  0  0  0  0  0  0  0  0
  130.2996  135.4981  159.1472 N   0  0  0  0  0  0  0  0  0  0  0  0
  130.7554  135.8849  158.3344 H   0  0  0  0  0  0  0  0  0  0  0  0
  130.2017  136.5284  160.1898 C   0  0  0  0  0  0  0  0  0  0  0  0
  131.4751  137.3336  160.2213 C   0  0  0  0  0  0  0  0  0  0  0  0
  132.5190  136.9398  161.0395 C   0  0  0  0  0  0  0  0  0  0  0  0
  133.6893  137.6700  161.0695 C   0  0  0  0  0  0  0  0  0  0  0  0
  133.8148  138.8137  160.2800 C   0  0  0  0  0  0  0  0  0  0  0  0
  135.0635  139.6040  160.3116 C   0  0  0  0  0  0  0  0  0  0  0  0
  135.5618  140.1765  161.3937 C   0  0  0  0  0  0  0  0  0  0  0  0
  136.8465  140.9046  161.0731 C   0  0  1  0  0  0  0  0  0  0  0  0
  138.2683  139.9366  161.6134 Cl  0  0  0  0  0  0  0  0  0  0  0  0
  136.8464  141.0477  159.5339 C   0  0  0  0  0  0  0  0  0  0  0  0
  135.9464  139.8613  159.1125 C   0  0  0  0  0  0  0  0  0  0  0  0
  132.7563  139.2084  159.4609 C   0  0  0  0  0  0  0  0  0  0  0  0
  131.5933  138.4666  159.4363 C   0  0  0  0  0  0  0  0  0  0  0  0
  131.0822  134.3628  159.6532 C   0  0  0  0  0  0  0  0  0  0  0  0
  131.2004  133.2973  158.5612 C   0  0  0  0  0  0  0  0  0  0  0  0
  128.3901  130.6165  158.9629 H   0  0  0  0  0  0  0  0  0  0  0  0
  129.4951  129.3499  159.5483 H   0  0  0  0  0  0  0  0  0  0  0  0
  129.8495  131.0626  159.8790 H   0  0  0  0  0  0  0  0  0  0  0  0
  128.9771  131.7190  156.6327 H   0  0  0  0  0  0  0  0  0  0  0  0
  131.0379  133.1711  155.9382 H   0  0  0  0  0  0  0  0  0  0  0  0
  132.0062  131.8277  156.5911 H   0  0  0  0  0  0  0  0  0  0  0  0
  131.9639  129.6411  155.5421 H   0  0  0  0  0  0  0  0  0  0  0  0
  131.5885  128.3637  153.4708 H   0  0  0  0  0  0  0  0  0  0  0  0
  130.2441  129.3359  151.6513 H   0  0  0  0  0  0  0  0  0  0  0  0
  129.2676  131.5818  151.9068 H   0  0  0  0  0  0  0  0  0  0  0  0
  129.6354  132.8555  153.9817 H   0  0  0  0  0  0  0  0  0  0  0  0
  129.5280  134.4151  156.8026 H   0  0  0  0  0  0  0  0  0  0  0  0
  128.0534  133.6329  157.4219 H   0  0  0  0  0  0  0  0  0  0  0  0
  128.4641  134.6127  159.6570 H   0  0  0  0  0  0  0  0  0  0  0  0
  128.3681  135.8879  158.4189 H   0  0  0  0  0  0  0  0  0  0  0  0
  129.3608  137.1869  159.9721 H   0  0  0  0  0  0  0  0  0  0  0  0
  130.0489  136.0521  161.1582 H   0  0  0  0  0  0  0  0  0  0  0  0
  132.4189  136.0567  161.6530 H   0  0  0  0  0  0  0  0  0  0  0  0
  134.5049  137.3592  161.7055 H   0  0  0  0  0  0  0  0  0  0  0  0
  135.1118  140.1299  162.3743 H   0  0  0  0  0  0  0  0  0  0  0  0
  136.8538  141.8871  161.5455 H   0  0  0  0  0  0  0  0  0  0  0  0
  136.4117  142.0001  159.2301 H   0  0  0  0  0  0  0  0  0  0  0  0
  137.8528  140.9340  159.1311 H   0  0  0  0  0  0  0  0  0  0  0  0
  136.5516  138.9821  158.8915 H   0  0  0  0  0  0  0  0  0  0  0  0
  135.3416  140.1337  158.2476 H   0  0  0  0  0  0  0  0  0  0  0  0
  132.8474  140.0926  158.8473 H   0  0  0  0  0  0  0  0  0  0  0  0
  130.7732  138.7712  158.8030 H   0  0  0  0  0  0  0  0  0  0  0  0
  130.5834  133.9369  160.5239 H   0  0  0  0  0  0  0  0  0  0  0  0
  132.0777  134.7050  159.9362 H   0  0  0  0  0  0  0  0  0  0  0  0
  131.7684  132.4483  158.9415 H   0  0  0  0  0  0  0  0  0  0  0  0
  131.7113  133.7189  157.6956 H   0  0  0  0  0  0  0  0  0  0  0  0
  1  2  1  0
  1 33  1  0
  1 34  1  0
  1 35  1  0
  2  3  1  6
  2  4  1  0
  2  5  1  0
  5  6  1  0
  5 13  1  0
  5 36  1  6
  6  7  1  0
  6 37  1  0
  6 38  1  0
  7 12  1  0
  7  8  2  0
  8  9  1  0
  8 39  1  0
  9 10  2  0
  9 40  1  0
 10 11  1  0
 10 41  1  0
 11 12  2  0
 11 42  1  0
 12 43  1  0
 13 32  1  0
 13 14  1  0
 14 15  1  0
 14 44  1  0
 14 45  1  0
 15 16  1  0
 15 46  1  0
 15 47  1  0
 16 17  1  0
 16 18  1  0
 16 31  1  0
 18 19  1  0
 18 48  1  0
 18 49  1  0
 19 30  1  0
 19 20  2  0
 20 21  1  0
 20 50  1  0
 21 22  2  0
 21 51  1  0
 22 23  1  0
 22 29  1  0
 23 28  1  0
 23 24  2  0
 24 25  1  0
 24 52  1  0
 25 26  1  0
 25 27  1  0
 25 53  1  1
 27 28  1  0
 27 54  1  0
 27 55  1  0
 28 56  1  0
 28 57  1  0
 29 30  2  0
 29 58  1  0
 30 59  1  0
 31 32  1  0
 31 60  1  0
 31 61  1  0
 32 62  1  0
 32 63  1  0
M  CHG  1  16   1
M  END
>  <DOCK_score>  (1) 
-60.929768

>  <SMILES>  (1) 
C[C@H](Cl)C(Cc1ccccc1)N1CC[NH+](Cc2ccc(C3=CC(Cl)CC3)cc2)CC1

$$$$
