CCC(CC)[C@@H](Nc1[nH]cc(-c2ccc(-c3ccccc3)cc2)[nH+]1)c1ccc(NC(C)=O)cc1
     RDKit          3D

 67 70  0  0  1  0  0  0  0  0999 V2000
  130.8945  140.4585  161.5968 C   0  0  0  0  0  0  0  0  0  0  0  0
  131.3405  139.0058  161.4179 C   0  0  0  0  0  0  0  0  0  0  0  0
  130.2874  138.0716  162.0173 C   0  0  0  0  0  0  0  0  0  0  0  0
  128.9505  138.2862  161.3049 C   0  0  0  0  0  0  0  0  0  0  0  0
  127.8976  137.3519  161.9043 C   0  0  0  0  0  0  0  0  0  0  0  0
  130.7334  136.6190  161.8384 C   0  0  1  0  0  0  0  0  0  0  0  0
  129.9833  135.9535  162.2654 H   0  0  0  0  0  0  0  0  0  0  0  0
  130.8886  136.3281  160.4110 N   0  0  0  0  0  0  0  0  0  0  0  0
  130.6706  135.0454  159.9383 C   0  0  0  0  0  0  0  0  0  0  0  0
  130.3041  133.9741  160.6936 N   0  0  0  0  0  0  0  0  0  0  0  0
  130.1503  133.9719  161.6513 H   0  0  0  0  0  0  0  0  0  0  0  0
  130.1926  132.8963  159.8495 C   0  0  0  0  0  0  0  0  0  0  0  0
  130.4939  133.3395  158.6031 C   0  0  0  0  0  0  0  0  0  0  0  0
  130.5051  132.5233  157.3657 C   0  0  0  0  0  0  0  0  0  0  0  0
  130.2045  133.1135  156.1381 C   0  0  0  0  0  0  0  0  0  0  0  0
  130.2191  132.3559  154.9879 C   0  0  0  0  0  0  0  0  0  0  0  0
  130.5244  130.9966  155.0520 C   0  0  0  0  0  0  0  0  0  0  0  0
  130.5341  130.1798  153.8142 C   0  0  0  0  0  0  0  0  0  0  0  0
  131.3866  129.0821  153.7071 C   0  0  0  0  0  0  0  0  0  0  0  0
  131.3878  128.3227  152.5548 C   0  0  0  0  0  0  0  0  0  0  0  0
  130.5528  128.6553  151.5032 C   0  0  0  0  0  0  0  0  0  0  0  0
  129.7086  129.7467  151.6019 C   0  0  0  0  0  0  0  0  0  0  0  0
  129.6950  130.5101  152.7514 C   0  0  0  0  0  0  0  0  0  0  0  0
  130.8201  130.4054  156.2799 C   0  0  0  0  0  0  0  0  0  0  0  0
  130.8103  131.1637  157.4296 C   0  0  0  0  0  0  0  0  0  0  0  0
  130.7776  134.6638  158.6890 N   0  0  0  0  0  0  0  0  0  0  0  0
  131.0228  135.2359  157.9452 H   0  0  0  0  0  0  0  0  0  0  0  0
  132.0503  136.4078  162.5401 C   0  0  0  0  0  0  0  0  0  0  0  0
  132.0704  136.0086  163.8639 C   0  0  0  0  0  0  0  0  0  0  0  0
  133.2755  135.8142  164.5099 C   0  0  0  0  0  0  0  0  0  0  0  0
  134.4680  136.0204  163.8286 C   0  0  0  0  0  0  0  0  0  0  0  0
  135.6907  135.8241  164.4802 N   0  0  0  0  0  0  0  0  0  0  0  0
  135.7118  135.4346  165.7703 C   0  0  0  0  0  0  0  0  0  0  0  0
  137.0286  135.2291  166.4738 C   0  0  0  0  0  0  0  0  0  0  0  0
  134.6711  135.2493  166.3649 O   0  0  0  0  0  0  0  0  0  0  0  0
  134.4444  136.4272  162.5011 C   0  0  0  0  0  0  0  0  0  0  0  0
  133.2359  136.6140  161.8589 C   0  0  0  0  0  0  0  0  0  0  0  0
  129.8958  140.5860  161.1794 H   0  0  0  0  0  0  0  0  0  0  0  0
  130.8790  140.7056  162.6583 H   0  0  0  0  0  0  0  0  0  0  0  0
  131.5912  141.1188  161.0802 H   0  0  0  0  0  0  0  0  0  0  0  0
  132.2929  138.8530  161.9254 H   0  0  0  0  0  0  0  0  0  0  0  0
  131.4558  138.7895  160.3559 H   0  0  0  0  0  0  0  0  0  0  0  0
  130.1720  138.2881  163.0793 H   0  0  0  0  0  0  0  0  0  0  0  0
  128.6329  139.3210  161.4323 H   0  0  0  0  0  0  0  0  0  0  0  0
  129.0660  138.0697  160.2428 H   0  0  0  0  0  0  0  0  0  0  0  0
  128.1465  136.3193  161.6596 H   0  0  0  0  0  0  0  0  0  0  0  0
  127.8777  137.4742  162.9873 H   0  0  0  0  0  0  0  0  0  0  0  0
  126.9184  137.5968  161.4930 H   0  0  0  0  0  0  0  0  0  0  0  0
  131.1441  137.0343  159.7970 H   0  0  0  0  0  0  0  0  0  0  0  0
  129.9174  131.8889  160.1251 H   0  0  0  0  0  0  0  0  0  0  0  0
  129.9638  134.1652  156.0890 H   0  0  0  0  0  0  0  0  0  0  0  0
  129.9905  132.8137  154.0368 H   0  0  0  0  0  0  0  0  0  0  0  0
  132.0417  128.8240  154.5259 H   0  0  0  0  0  0  0  0  0  0  0  0
  132.0446  127.4694  152.4724 H   0  0  0  0  0  0  0  0  0  0  0  0
  130.5604  128.0609  150.6016 H   0  0  0  0  0  0  0  0  0  0  0  0
  129.0591  130.0019  150.7776 H   0  0  0  0  0  0  0  0  0  0  0  0
  129.0357  131.3622  152.8272 H   0  0  0  0  0  0  0  0  0  0  0  0
  131.0565  129.3526  156.3294 H   0  0  0  0  0  0  0  0  0  0  0  0
  131.0394  130.7057  158.3806 H   0  0  0  0  0  0  0  0  0  0  0  0
  131.1426  135.8484  164.3932 H   0  0  0  0  0  0  0  0  0  0  0  0
  133.2905  135.5025  165.5438 H   0  0  0  0  0  0  0  0  0  0  0  0
  136.5229  135.9723  164.0045 H   0  0  0  0  0  0  0  0  0  0  0  0
  137.8458  135.4416  165.7845 H   0  0  0  0  0  0  0  0  0  0  0  0
  137.0916  135.9004  167.3302 H   0  0  0  0  0  0  0  0  0  0  0  0
  137.1007  134.1964  166.8155 H   0  0  0  0  0  0  0  0  0  0  0  0
  135.3700  136.5930  161.9698 H   0  0  0  0  0  0  0  0  0  0  0  0
  133.2168  136.9257  160.8251 H   0  0  0  0  0  0  0  0  0  0  0  0
  1  2  1  0
  1 38  1  0
  1 39  1  0
  1 40  1  0
  2  3  1  0
  2 41  1  0
  2 42  1  0
  3  4  1  0
  3  6  1  0
  3 43  1  0
  4  5  1  0
  4 44  1  0
  4 45  1  0
  5 46  1  0
  5 47  1  0
  5 48  1  0
  6  7  1  1
  6  8  1  0
  6 28  1  0
  8 49  1  0
  9  8  1  0
  9 26  2  0
  9 10  1  0
 10 11  1  0
 10 12  1  0
 12 13  2  0
 12 50  1  0
 13 14  1  0
 13 26  1  0
 14 25  1  0
 14 15  2  0
 15 16  1  0
 15 51  1  0
 16 17  2  0
 16 52  1  0
 17 18  1  0
 17 24  1  0
 18 23  1  0
 18 19  2  0
 19 20  1  0
 19 53  1  0
 20 21  2  0
 20 54  1  0
 21 22  1  0
 21 55  1  0
 22 23  2  0
 22 56  1  0
 23 57  1  0
 24 25  2  0
 24 58  1  0
 25 59  1  0
 26 27  1  0
 28 37  1  0
 28 29  2  0
 29 30  1  0
 29 60  1  0
 30 31  2  0
 30 61  1  0
 31 32  1  0
 31 36  1  0
 32 33  1  0
 32 62  1  0
 33 34  1  0
 33 35  2  0
 34 63  1  0
 34 64  1  0
 34 65  1  0
 36 37  2  0
 36 66  1  0
 37 67  1  0
M  CHG  1  26   1
M  END
>  <DOCK_score>  (1) 
-56.369106

>  <SMILES>  (1) 
CCC(CC)[C@@H](Nc1[nH]cc(-c2ccc(-c3ccccc3)cc2)[nH+]1)c1ccc(NC(C)=O)cc1

$$$$
