Cc1c(N)cccc1[C@@H](Nc1[nH]cc(C(C)(C)C)[nH+]1)c1ccncn1
     RDKit          3D

 50 52  0  0  1  0  0  0  0  0999 V2000
  127.5335  135.3950  160.4333 C   0  0  0  0  0  0  0  0  0  0  0  0
  126.9747  134.0207  160.1688 C   0  0  0  0  0  0  0  0  0  0  0  0
  125.6156  133.7802  160.3271 C   0  0  0  0  0  0  0  0  0  0  0  0
  124.7647  134.8113  160.7315 N   0  0  0  0  0  0  0  0  0  0  0  0
  125.1048  132.5119  160.0826 C   0  0  0  0  0  0  0  0  0  0  0  0
  125.9490  131.4942  159.6833 C   0  0  0  0  0  0  0  0  0  0  0  0
  127.3003  131.7384  159.5213 C   0  0  0  0  0  0  0  0  0  0  0  0
  127.8131  132.9987  159.7692 C   0  0  0  0  0  0  0  0  0  0  0  0
  129.2875  133.2586  159.5973 C   0  0  1  0  0  0  0  0  0  0  0  0
  129.4347  134.0309  158.8423 H   0  0  0  0  0  0  0  0  0  0  0  0
  129.8563  133.7061  160.8710 N   0  0  0  0  0  0  0  0  0  0  0  0
  130.9431  134.5647  160.8806 C   0  0  0  0  0  0  0  0  0  0  0  0
  131.5720  135.0640  159.7826 N   0  0  0  0  0  0  0  0  0  0  0  0
  131.3448  134.8857  158.8566 H   0  0  0  0  0  0  0  0  0  0  0  0
  132.5924  135.8699  160.2348 C   0  0  0  0  0  0  0  0  0  0  0  0
  132.5527  135.8360  161.5776 C   0  0  0  0  0  0  0  0  0  0  0  0
  133.4877  136.5663  162.5067 C   0  0  0  0  0  0  0  0  0  0  0  0
  134.5032  137.3634  161.6855 C   0  0  0  0  0  0  0  0  0  0  0  0
  132.6844  137.5220  163.3911 C   0  0  0  0  0  0  0  0  0  0  0  0
  134.2250  135.5550  163.3869 C   0  0  0  0  0  0  0  0  0  0  0  0
  131.5401  135.0348  161.9501 N   0  0  0  0  0  0  0  0  0  0  0  0
  131.2900  134.8353  162.8657 H   0  0  0  0  0  0  0  0  0  0  0  0
  129.9734  131.9903  159.1589 C   0  0  0  0  0  0  0  0  0  0  0  0
  130.1078  131.6941  157.8114 C   0  0  0  0  0  0  0  0  0  0  0  0
  130.7456  130.5163  157.4558 C   0  0  0  0  0  0  0  0  0  0  0  0
  131.2022  129.7188  158.4082 N   0  0  0  0  0  0  0  0  0  0  0  0
  131.0563  130.0330  159.6797 C   0  0  0  0  0  0  0  0  0  0  0  0
  130.4600  131.1470  160.0549 N   0  0  0  0  0  0  0  0  0  0  0  0
  127.5091  135.9802  159.5141 H   0  0  0  0  0  0  0  0  0  0  0  0
  126.9326  135.8909  161.1957 H   0  0  0  0  0  0  0  0  0  0  0  0
  128.5627  135.3080  160.7815 H   0  0  0  0  0  0  0  0  0  0  0  0
  125.1226  135.6966  160.9023 H   0  0  0  0  0  0  0  0  0  0  0  0
  123.8159  134.6422  160.8417 H   0  0  0  0  0  0  0  0  0  0  0  0
  124.0487  132.3217  160.2044 H   0  0  0  0  0  0  0  0  0  0  0  0
  125.5526  130.5079  159.4931 H   0  0  0  0  0  0  0  0  0  0  0  0
  127.9575  130.9422  159.2043 H   0  0  0  0  0  0  0  0  0  0  0  0
  129.4718  133.4011  161.7077 H   0  0  0  0  0  0  0  0  0  0  0  0
  133.2916  136.4241  159.6262 H   0  0  0  0  0  0  0  0  0  0  0  0
  133.9780  138.0838  161.0585 H   0  0  0  0  0  0  0  0  0  0  0  0
  135.1796  137.8916  162.3576 H   0  0  0  0  0  0  0  0  0  0  0  0
  135.0755  136.6825  161.0554 H   0  0  0  0  0  0  0  0  0  0  0  0
  131.9610  136.9542  163.9761 H   0  0  0  0  0  0  0  0  0  0  0  0
  133.3608  138.0502  164.0632 H   0  0  0  0  0  0  0  0  0  0  0  0
  132.1592  138.2425  162.7640 H   0  0  0  0  0  0  0  0  0  0  0  0
  134.7972  134.8741  162.7568 H   0  0  0  0  0  0  0  0  0  0  0  0
  134.9013  136.0833  164.0589 H   0  0  0  0  0  0  0  0  0  0  0  0
  133.5016  134.9872  163.9720 H   0  0  0  0  0  0  0  0  0  0  0  0
  129.7243  132.3649  157.0568 H   0  0  0  0  0  0  0  0  0  0  0  0
  130.8687  130.2531  156.4157 H   0  0  0  0  0  0  0  0  0  0  0  0
  131.4398  129.3622  160.4342 H   0  0  0  0  0  0  0  0  0  0  0  0
  1  2  1  0
  1 29  1  0
  1 30  1  0
  1 31  1  0
  2  8  2  0
  2  3  1  0
  3  4  1  0
  3  5  2  0
  4 32  1  0
  4 33  1  0
  5  6  1  0
  5 34  1  0
  6  7  2  0
  6 35  1  0
  7  8  1  0
  7 36  1  0
  8  9  1  0
  9 10  1  6
  9 11  1  0
  9 23  1  0
 11 37  1  0
 12 11  1  0
 12 21  2  0
 12 13  1  0
 13 14  1  0
 13 15  1  0
 15 16  2  0
 15 38  1  0
 16 17  1  0
 16 21  1  0
 17 18  1  0
 17 19  1  0
 17 20  1  0
 18 39  1  0
 18 40  1  0
 18 41  1  0
 19 42  1  0
 19 43  1  0
 19 44  1  0
 20 45  1  0
 20 46  1  0
 20 47  1  0
 21 22  1  0
 23 28  1  0
 23 24  2  0
 24 25  1  0
 24 48  1  0
 25 26  2  0
 25 49  1  0
 26 27  1  0
 27 28  2  0
 27 50  1  0
M  CHG  1  21   1
M  END
>  <DOCK_score>  (1) 
-41.171062

>  <SMILES>  (1) 
Cc1c(N)cccc1[C@@H](Nc1[nH]cc(C(C)(C)C)[nH+]1)c1ccncn1

$$$$
