F[C@@H]1C[C@H]([NH2+]Cc2c[nH]nc2-c2ccc(N[C@H]3C=CCC3)o2)C[C@@H]1F
     RDKit          3D

 48 51  0  0  1  0  0  0  0  0999 V2000
  134.3975  140.3631  160.5966 F   0  0  0  0  0  0  0  0  0  0  0  0
  133.7311  139.3306  161.2651 C   0  0  2  0  0  0  0  0  0  0  0  0
  134.0913  139.2462  162.2903 H   0  0  0  0  0  0  0  0  0  0  0  0
  133.9143  137.9898  160.5111 C   0  0  0  0  0  0  0  0  0  0  0  0
  132.6938  137.1620  160.9846 C   0  0  2  0  0  0  0  0  0  0  0  0
  132.8846  136.7234  161.9641 H   0  0  0  0  0  0  0  0  0  0  0  0
  132.3734  136.1135  160.0069 N   0  0  0  0  0  0  0  0  0  0  0  0
  133.1660  135.4982  159.9015 H   0  0  0  0  0  0  0  0  0  0  0  0
  132.1566  136.5381  159.1175 H   0  0  0  0  0  0  0  0  0  0  0  0
  131.2143  135.3431  160.4771 C   0  0  0  0  0  0  0  0  0  0  0  0
  130.8856  134.2675  159.4740 C   0  0  0  0  0  0  0  0  0  0  0  0
  131.7705  133.4449  158.8712 C   0  0  0  0  0  0  0  0  0  0  0  0
  131.0851  132.6298  158.0405 N   0  0  0  0  0  0  0  0  0  0  0  0
  131.4683  131.9398  157.4765 H   0  0  0  0  0  0  0  0  0  0  0  0
  129.7255  132.9528  158.1343 N   0  0  0  0  0  0  0  0  0  0  0  0
  129.5978  133.9383  159.0009 C   0  0  0  0  0  0  0  0  0  0  0  0
  128.3319  134.5869  159.4007 C   0  0  0  0  0  0  0  0  0  0  0  0
  127.2273  134.7250  158.6211 C   0  0  0  0  0  0  0  0  0  0  0  0
  126.2624  135.3983  159.3961 C   0  0  0  0  0  0  0  0  0  0  0  0
  126.8242  135.6374  160.6073 C   0  0  0  0  0  0  0  0  0  0  0  0
  126.2105  136.2841  161.6737 N   0  0  0  0  0  0  0  0  0  0  0  0
  126.9377  136.4757  162.9310 C   0  0  1  0  0  0  0  0  0  0  0  0
  127.5225  135.5872  163.1695 H   0  0  0  0  0  0  0  0  0  0  0  0
  127.8329  137.6896  162.8417 C   0  0  0  0  0  0  0  0  0  0  0  0
  127.3073  138.7081  163.4663 C   0  0  0  0  0  0  0  0  0  0  0  0
  125.9740  138.3431  164.0765 C   0  0  0  0  0  0  0  0  0  0  0  0
  125.9531  136.7969  164.0792 C   0  0  0  0  0  0  0  0  0  0  0  0
  128.0761  135.1488  160.6009 O   0  0  0  0  0  0  0  0  0  0  0  0
  131.5478  138.1913  161.0678 C   0  0  0  0  0  0  0  0  0  0  0  0
  132.2072  139.5700  161.2462 C   0  0  2  0  0  0  0  0  0  0  0  0
  131.8878  140.0177  162.1873 H   0  0  0  0  0  0  0  0  0  0  0  0
  131.8659  140.4062  160.1778 F   0  0  0  0  0  0  0  0  0  0  0  0
  134.8462  137.5062  160.8040 H   0  0  0  0  0  0  0  0  0  0  0  0
  133.8807  138.1454  159.4329 H   0  0  0  0  0  0  0  0  0  0  0  0
  130.3580  136.0078  160.5908 H   0  0  0  0  0  0  0  0  0  0  0  0
  131.4485  134.8847  161.4380 H   0  0  0  0  0  0  0  0  0  0  0  0
  132.8397  133.4423  159.0234 H   0  0  0  0  0  0  0  0  0  0  0  0
  127.1112  134.3836  157.6030 H   0  0  0  0  0  0  0  0  0  0  0  0
  125.2652  135.6723  159.0848 H   0  0  0  0  0  0  0  0  0  0  0  0
  125.3006  136.6087  161.5854 H   0  0  0  0  0  0  0  0  0  0  0  0
  128.7827  137.7119  162.3280 H   0  0  0  0  0  0  0  0  0  0  0  0
  127.7634  139.6846  163.5344 H   0  0  0  0  0  0  0  0  0  0  0  0
  125.9049  138.7255  165.0949 H   0  0  0  0  0  0  0  0  0  0  0  0
  125.1583  138.7327  163.4675 H   0  0  0  0  0  0  0  0  0  0  0  0
  126.3166  136.4023  165.0282 H   0  0  0  0  0  0  0  0  0  0  0  0
  124.9554  136.4187  163.8565 H   0  0  0  0  0  0  0  0  0  0  0  0
  130.9624  138.1733  160.1485 H   0  0  0  0  0  0  0  0  0  0  0  0
  130.9083  137.9698  161.9223 H   0  0  0  0  0  0  0  0  0  0  0  0
  1  2  1  0
  2  3  1  1
  2 30  1  0
  2  4  1  0
  4  5  1  0
  4 33  1  0
  4 34  1  0
  5  6  1  1
  5  7  1  0
  5 29  1  0
  7  8  1  0
  7  9  1  0
  7 10  1  0
 10 11  1  0
 10 35  1  0
 10 36  1  0
 11 16  1  0
 11 12  2  0
 12 13  1  0
 12 37  1  0
 13 14  1  0
 13 15  1  0
 15 16  2  0
 16 17  1  0
 17 28  1  0
 17 18  2  0
 18 19  1  0
 18 38  1  0
 19 20  2  0
 19 39  1  0
 20 21  1  0
 20 28  1  0
 21 22  1  0
 21 40  1  0
 22 23  1  1
 22 27  1  0
 22 24  1  0
 24 25  2  0
 24 41  1  0
 25 26  1  0
 25 42  1  0
 26 27  1  0
 26 43  1  0
 26 44  1  0
 27 45  1  0
 27 46  1  0
 29 30  1  0
 29 47  1  0
 29 48  1  0
 30 31  1  1
 30 32  1  0
M  CHG  1   7   1
M  END
>  <DOCK_score>  (1) 
-45.204689

>  <SMILES>  (1) 
F[C@@H]1C[C@H]([NH2+]Cc2c[nH]nc2-c2ccc(N[C@H]3C=CCC3)o2)C[C@@H]1F

$$$$
