CCc1ccc(-c2c[nH]c(N[C@@H](C)Cc3ccccc3-c3ccc(C(F)(F)F)cc3)[nH+]2)cc1
     RDKit          3D

 60 63  0  0  1  0  0  0  0  0999 V2000
  129.7133  128.8746  151.0087 C   0  0  0  0  0  0  0  0  0  0  0  0
  130.9415  129.7195  151.3531 C   0  0  0  0  0  0  0  0  0  0  0  0
  130.7169  130.4194  152.6686 C   0  0  0  0  0  0  0  0  0  0  0  0
  131.0954  129.8049  153.8490 C   0  0  0  0  0  0  0  0  0  0  0  0
  130.8974  130.4431  155.0565 C   0  0  0  0  0  0  0  0  0  0  0  0
  130.3045  131.7041  155.0863 C   0  0  0  0  0  0  0  0  0  0  0  0
  130.0840  132.3927  156.3815 C   0  0  0  0  0  0  0  0  0  0  0  0
  129.3359  131.9305  157.4137 C   0  0  0  0  0  0  0  0  0  0  0  0
  129.4021  132.8756  158.4085 N   0  0  0  0  0  0  0  0  0  0  0  0
  128.9680  132.8293  159.2747 H   0  0  0  0  0  0  0  0  0  0  0  0
  130.1893  133.8886  157.9544 C   0  0  0  0  0  0  0  0  0  0  0  0
  130.5090  135.0382  158.6566 N   0  0  0  0  0  0  0  0  0  0  0  0
  129.9852  135.2394  160.0099 C   0  0  1  0  0  0  0  0  0  0  0  0
  128.9510  134.8980  160.0535 H   0  0  0  0  0  0  0  0  0  0  0  0
  130.8282  134.4420  161.0069 C   0  0  0  0  0  0  0  0  0  0  0  0
  130.0467  136.7265  160.3646 C   0  0  0  0  0  0  0  0  0  0  0  0
  129.0952  137.0125  161.4976 C   0  0  0  0  0  0  0  0  0  0  0  0
  127.8205  136.4832  161.4805 C   0  0  0  0  0  0  0  0  0  0  0  0
  126.9465  136.7441  162.5201 C   0  0  0  0  0  0  0  0  0  0  0  0
  127.3438  137.5369  163.5819 C   0  0  0  0  0  0  0  0  0  0  0  0
  128.6155  138.0720  163.6089 C   0  0  0  0  0  0  0  0  0  0  0  0
  129.5025  137.8070  162.5672 C   0  0  0  0  0  0  0  0  0  0  0  0
  130.8736  138.3737  162.5942 C   0  0  0  0  0  0  0  0  0  0  0  0
  131.9127  137.6622  163.1905 C   0  0  0  0  0  0  0  0  0  0  0  0
  133.1873  138.1913  163.2073 C   0  0  0  0  0  0  0  0  0  0  0  0
  133.4317  139.4310  162.6444 C   0  0  0  0  0  0  0  0  0  0  0  0
  134.8242  140.0065  162.6717 C   0  0  0  0  0  0  0  0  0  0  0  0
  135.6866  139.1107  163.3129 F   0  0  0  0  0  0  0  0  0  0  0  0
  135.2655  140.2219  161.3617 F   0  0  0  0  0  0  0  0  0  0  0  0
  134.8134  141.2211  163.3658 F   0  0  0  0  0  0  0  0  0  0  0  0
  132.4028  140.1440  162.0562 C   0  0  0  0  0  0  0  0  0  0  0  0
  131.1255  139.6218  162.0282 C   0  0  0  0  0  0  0  0  0  0  0  0
  130.5997  133.5938  156.7451 N   0  0  0  0  0  0  0  0  0  0  0  0
  131.1777  134.1470  156.1967 H   0  0  0  0  0  0  0  0  0  0  0  0
  129.9200  132.3160  153.8944 C   0  0  0  0  0  0  0  0  0  0  0  0
  130.1281  131.6709  152.6922 C   0  0  0  0  0  0  0  0  0  0  0  0
  129.5517  128.1333  151.7914 H   0  0  0  0  0  0  0  0  0  0  0  0
  128.8379  129.5195  150.9327 H   0  0  0  0  0  0  0  0  0  0  0  0
  129.8756  128.3688  150.0570 H   0  0  0  0  0  0  0  0  0  0  0  0
  131.8167  129.0752  151.4288 H   0  0  0  0  0  0  0  0  0  0  0  0
  131.1029  130.4614  150.5703 H   0  0  0  0  0  0  0  0  0  0  0  0
  131.5503  128.8258  153.8250 H   0  0  0  0  0  0  0  0  0  0  0  0
  131.1975  129.9645  155.9769 H   0  0  0  0  0  0  0  0  0  0  0  0
  128.7919  130.9981  157.4473 H   0  0  0  0  0  0  0  0  0  0  0  0
  131.0799  135.7103  158.2525 H   0  0  0  0  0  0  0  0  0  0  0  0
  131.8624  134.7834  160.9631 H   0  0  0  0  0  0  0  0  0  0  0  0
  130.4384  134.5917  162.0138 H   0  0  0  0  0  0  0  0  0  0  0  0
  130.7843  133.3825  160.7542 H   0  0  0  0  0  0  0  0  0  0  0  0
  131.0611  136.9860  160.6676 H   0  0  0  0  0  0  0  0  0  0  0  0
  129.7645  137.3195  159.4947 H   0  0  0  0  0  0  0  0  0  0  0  0
  127.5051  135.8638  160.6537 H   0  0  0  0  0  0  0  0  0  0  0  0
  125.9502  136.3277  162.5029 H   0  0  0  0  0  0  0  0  0  0  0  0
  126.6572  137.7377  164.3911 H   0  0  0  0  0  0  0  0  0  0  0  0
  128.9245  138.6911  164.4382 H   0  0  0  0  0  0  0  0  0  0  0  0
  131.7220  136.6964  163.6346 H   0  0  0  0  0  0  0  0  0  0  0  0
  133.9944  137.6388  163.6654 H   0  0  0  0  0  0  0  0  0  0  0  0
  132.5992  141.1116  161.6181 H   0  0  0  0  0  0  0  0  0  0  0  0
  130.3231  140.1792  161.5684 H   0  0  0  0  0  0  0  0  0  0  0  0
  129.4599  133.2930  153.9117 H   0  0  0  0  0  0  0  0  0  0  0  0
  129.8303  132.1439  151.7681 H   0  0  0  0  0  0  0  0  0  0  0  0
  1  2  1  0
  1 37  1  0
  1 38  1  0
  1 39  1  0
  2  3  1  0
  2 40  1  0
  2 41  1  0
  3 36  2  0
  3  4  1  0
  4  5  2  0
  4 42  1  0
  5  6  1  0
  5 43  1  0
  6  7  1  0
  6 35  2  0
  7 33  1  0
  7  8  2  0
  8  9  1  0
  8 44  1  0
  9 10  1  0
  9 11  1  0
 11 12  1  0
 11 33  2  0
 12 13  1  0
 12 45  1  0
 13 14  1  6
 13 15  1  0
 13 16  1  0
 15 46  1  0
 15 47  1  0
 15 48  1  0
 16 17  1  0
 16 49  1  0
 16 50  1  0
 17 22  1  0
 17 18  2  0
 18 19  1  0
 18 51  1  0
 19 20  2  0
 19 52  1  0
 20 21  1  0
 20 53  1  0
 21 22  2  0
 21 54  1  0
 22 23  1  0
 23 32  1  0
 23 24  2  0
 24 25  1  0
 24 55  1  0
 25 26  2  0
 25 56  1  0
 26 27  1  0
 26 31  1  0
 27 28  1  0
 27 29  1  0
 27 30  1  0
 31 32  2  0
 31 57  1  0
 32 58  1  0
 33 34  1  0
 35 36  1  0
 35 59  1  0
 36 60  1  0
M  CHG  1  33   1
M  END
>  <DOCK_score>  (1) 
-57.243206

>  <SMILES>  (1) 
CCc1ccc(-c2c[nH]c(N[C@@H](C)Cc3ccccc3-c3ccc(C(F)(F)F)cc3)[nH+]2)cc1

$$$$
