CC[C@H]([NH+]=C(NC1CC=CC1)N[C@H]1CCC(=O)NC1)C(F)F
     RDKit          3D

 47 48  0  0  1  0  0  0  0  0999 V2000
  133.3620  133.4209  160.1290 C   0  0  0  0  0  0  0  0  0  0  0  0
  133.2489  134.6909  160.9747 C   0  0  0  0  0  0  0  0  0  0  0  0
  131.7726  135.0219  161.2028 C   0  0  2  0  0  0  0  0  0  0  0  0
  131.2910  134.1943  161.7238 H   0  0  0  0  0  0  0  0  0  0  0  0
  131.1147  135.2350  159.9113 N   0  0  0  0  0  0  0  0  0  0  0  0
  131.6205  135.5848  159.1612 H   0  0  0  0  0  0  0  0  0  0  0  0
  129.8497  134.9545  159.7701 C   0  0  0  0  0  0  0  0  0  0  0  0
  129.3669  134.5531  158.5471 N   0  0  0  0  0  0  0  0  0  0  0  0
  130.2354  133.8225  157.6207 C   0  0  0  0  0  0  0  0  0  0  0  0
  130.5688  132.4144  158.1660 C   0  0  0  0  0  0  0  0  0  0  0  0
  130.5795  131.5227  156.9464 C   0  0  0  0  0  0  0  0  0  0  0  0
  129.9886  132.1009  155.9363 C   0  0  0  0  0  0  0  0  0  0  0  0
  129.4853  133.4747  156.3140 C   0  0  0  0  0  0  0  0  0  0  0  0
  128.9982  135.0600  160.8445 N   0  0  0  0  0  0  0  0  0  0  0  0
  127.5764  134.7449  160.6859 C   0  0  1  0  0  0  0  0  0  0  0  0
  127.2643  134.9663  159.6652 H   0  0  0  0  0  0  0  0  0  0  0  0
  127.3423  133.2590  160.9844 C   0  0  0  0  0  0  0  0  0  0  0  0
  125.8914  132.9181  160.6358 C   0  0  0  0  0  0  0  0  0  0  0  0
  124.9671  133.9296  161.2505 C   0  0  0  0  0  0  0  0  0  0  0  0
  123.7926  133.6454  161.3544 O   0  0  0  0  0  0  0  0  0  0  0  0
  125.3686  135.1234  161.6886 N   0  0  0  0  0  0  0  0  0  0  0  0
  126.7535  135.5775  161.6697 C   0  0  0  0  0  0  0  0  0  0  0  0
  131.6595  136.2919  162.0486 C   0  0  0  0  0  0  0  0  0  0  0  0
  132.2776  137.3540  161.3800 F   0  0  0  0  0  0  0  0  0  0  0  0
  130.3095  136.5945  162.2572 F   0  0  0  0  0  0  0  0  0  0  0  0
  134.4137  133.1850  159.9665 H   0  0  0  0  0  0  0  0  0  0  0  0
  132.8804  132.5933  160.6498 H   0  0  0  0  0  0  0  0  0  0  0  0
  132.8726  133.5795  159.1680 H   0  0  0  0  0  0  0  0  0  0  0  0
  133.7305  135.5184  160.4540 H   0  0  0  0  0  0  0  0  0  0  0  0
  133.7382  134.5322  161.9357 H   0  0  0  0  0  0  0  0  0  0  0  0
  128.4513  134.7538  158.2975 H   0  0  0  0  0  0  0  0  0  0  0  0
  131.1443  134.3865  157.4118 H   0  0  0  0  0  0  0  0  0  0  0  0
  129.8020  132.0879  158.8685 H   0  0  0  0  0  0  0  0  0  0  0  0
  131.5480  132.4148  158.6449 H   0  0  0  0  0  0  0  0  0  0  0  0
  131.0148  130.5348  156.9156 H   0  0  0  0  0  0  0  0  0  0  0  0
  129.8746  131.6561  154.9588 H   0  0  0  0  0  0  0  0  0  0  0  0
  129.7278  134.1958  155.5334 H   0  0  0  0  0  0  0  0  0  0  0  0
  128.4096  133.4502  156.4886 H   0  0  0  0  0  0  0  0  0  0  0  0
  129.3389  135.3433  161.7074 H   0  0  0  0  0  0  0  0  0  0  0  0
  128.0171  132.6526  160.3802 H   0  0  0  0  0  0  0  0  0  0  0  0
  127.5210  133.0647  162.0419 H   0  0  0  0  0  0  0  0  0  0  0  0
  125.7679  132.9258  159.5528 H   0  0  0  0  0  0  0  0  0  0  0  0
  125.6501  131.9269  161.0194 H   0  0  0  0  0  0  0  0  0  0  0  0
  124.6969  135.7275  162.0420 H   0  0  0  0  0  0  0  0  0  0  0  0
  127.1785  135.4790  162.6685 H   0  0  0  0  0  0  0  0  0  0  0  0
  126.7851  136.6250  161.3697 H   0  0  0  0  0  0  0  0  0  0  0  0
  132.1489  136.1333  163.0096 H   0  0  0  0  0  0  0  0  0  0  0  0
  1  2  1  0
  1 26  1  0
  1 27  1  0
  1 28  1  0
  2  3  1  0
  2 29  1  0
  2 30  1  0
  3  4  1  1
  3  5  1  0
  3 23  1  0
  5  6  1  0
  7  5  2  0
  7  8  1  0
  7 14  1  0
  8  9  1  0
  8 31  1  0
  9 13  1  0
  9 10  1  0
  9 32  1  0
 10 11  1  0
 10 33  1  0
 10 34  1  0
 11 12  2  0
 11 35  1  0
 12 13  1  0
 12 36  1  0
 13 37  1  0
 13 38  1  0
 14 15  1  0
 14 39  1  0
 15 16  1  6
 15 22  1  0
 15 17  1  0
 17 18  1  0
 17 40  1  0
 17 41  1  0
 18 19  1  0
 18 42  1  0
 18 43  1  0
 19 20  2  0
 19 21  1  0
 21 22  1  0
 21 44  1  0
 22 45  1  0
 22 46  1  0
 23 24  1  0
 23 25  1  0
 23 47  1  0
M  CHG  1   5   1
M  END
>  <DOCK_score>  (1) 
-41.679302

>  <SMILES>  (1) 
CC[C@H]([NH+]=C(NC1CC=CC1)N[C@H]1CCC(=O)NC1)C(F)F

$$$$
