Nc1c(Nc2[nH]c3cccc(N)c3[nH+]2)cccc1Nc1ccccc1C1CCC1
     RDKit          3D

 54 58  0  0  1  0  0  0  0  0999 V2000
  132.5287  135.3057  160.3998 N   0  0  0  0  0  0  0  0  0  0  0  0
  131.1897  135.6064  160.1087 C   0  0  0  0  0  0  0  0  0  0  0  0
  130.5630  136.6813  160.7338 C   0  0  0  0  0  0  0  0  0  0  0  0
  131.2686  137.4657  161.6558 N   0  0  0  0  0  0  0  0  0  0  0  0
  132.4086  138.1376  161.2608 C   0  0  0  0  0  0  0  0  0  0  0  0
  132.9395  138.1115  160.0019 N   0  0  0  0  0  0  0  0  0  0  0  0
  132.5883  137.6254  159.2395 H   0  0  0  0  0  0  0  0  0  0  0  0
  134.0721  138.9082  160.0173 C   0  0  0  0  0  0  0  0  0  0  0  0
  135.0117  139.2626  159.0581 C   0  0  0  0  0  0  0  0  0  0  0  0
  136.0565  140.0986  159.3926 C   0  0  0  0  0  0  0  0  0  0  0  0
  136.1785  140.5906  160.6834 C   0  0  0  0  0  0  0  0  0  0  0  0
  135.2531  140.2495  161.6530 C   0  0  0  0  0  0  0  0  0  0  0  0
  135.3806  140.7487  162.9525 N   0  0  0  0  0  0  0  0  0  0  0  0
  134.1856  139.4005  161.3256 C   0  0  0  0  0  0  0  0  0  0  0  0
  133.1423  138.8953  162.0364 N   0  0  0  0  0  0  0  0  0  0  0  0
  132.9663  139.0726  162.9736 H   0  0  0  0  0  0  0  0  0  0  0  0
  129.2362  136.9709  160.4463 C   0  0  0  0  0  0  0  0  0  0  0  0
  128.5401  136.2007  159.5332 C   0  0  0  0  0  0  0  0  0  0  0  0
  129.1571  135.1326  158.9098 C   0  0  0  0  0  0  0  0  0  0  0  0
  130.4824  134.8307  159.1939 C   0  0  0  0  0  0  0  0  0  0  0  0
  131.1065  133.7484  158.5612 N   0  0  0  0  0  0  0  0  0  0  0  0
  131.0599  132.4788  159.1413 C   0  0  0  0  0  0  0  0  0  0  0  0
  130.9944  132.3463  160.5230 C   0  0  0  0  0  0  0  0  0  0  0  0
  130.9422  131.0897  161.0927 C   0  0  0  0  0  0  0  0  0  0  0  0
  130.9675  129.9633  160.2906 C   0  0  0  0  0  0  0  0  0  0  0  0
  131.0382  130.0913  158.9157 C   0  0  0  0  0  0  0  0  0  0  0  0
  131.0846  131.3452  158.3386 C   0  0  0  0  0  0  0  0  0  0  0  0
  131.1612  131.4837  156.8399 C   0  0  0  0  0  0  0  0  0  0  0  0
  130.0838  132.4093  156.2508 C   0  0  0  0  0  0  0  0  0  0  0  0
  129.9569  131.3986  155.0988 C   0  0  0  0  0  0  0  0  0  0  0  0
  130.4782  130.3348  156.0794 C   0  0  0  0  0  0  0  0  0  0  0  0
  133.0196  135.8470  161.0378 H   0  0  0  0  0  0  0  0  0  0  0  0
  132.9635  134.5565  159.9634 H   0  0  0  0  0  0  0  0  0  0  0  0
  130.9564  137.5368  162.5713 H   0  0  0  0  0  0  0  0  0  0  0  0
  134.9247  138.8833  158.0507 H   0  0  0  0  0  0  0  0  0  0  0  0
  136.7852  140.3718  158.6438 H   0  0  0  0  0  0  0  0  0  0  0  0
  137.0011  141.2444  160.9330 H   0  0  0  0  0  0  0  0  0  0  0  0
  136.1196  141.3359  163.1762 H   0  0  0  0  0  0  0  0  0  0  0  0
  134.7301  140.5079  163.6306 H   0  0  0  0  0  0  0  0  0  0  0  0
  128.7480  137.8017  160.9339 H   0  0  0  0  0  0  0  0  0  0  0  0
  127.5091  136.4319  159.3096 H   0  0  0  0  0  0  0  0  0  0  0  0
  128.6077  134.5319  158.2002 H   0  0  0  0  0  0  0  0  0  0  0  0
  131.5712  133.8806  157.7201 H   0  0  0  0  0  0  0  0  0  0  0  0
  130.9796  133.2255  161.1502 H   0  0  0  0  0  0  0  0  0  0  0  0
  130.8862  130.9862  162.1664 H   0  0  0  0  0  0  0  0  0  0  0  0
  130.9313  128.9814  160.7391 H   0  0  0  0  0  0  0  0  0  0  0  0
  131.0578  129.2095  158.2922 H   0  0  0  0  0  0  0  0  0  0  0  0
  132.1685  131.7034  156.4860 H   0  0  0  0  0  0  0  0  0  0  0  0
  129.1877  132.4838  156.8671 H   0  0  0  0  0  0  0  0  0  0  0  0
  130.4661  133.3813  155.9388 H   0  0  0  0  0  0  0  0  0  0  0  0
  130.6344  131.5960  154.2681 H   0  0  0  0  0  0  0  0  0  0  0  0
  128.9297  131.2290  154.7762 H   0  0  0  0  0  0  0  0  0  0  0  0
  131.1789  129.6317  155.6291 H   0  0  0  0  0  0  0  0  0  0  0  0
  129.6900  129.8421  156.6488 H   0  0  0  0  0  0  0  0  0  0  0  0
  1  2  1  0
  1 32  1  0
  1 33  1  0
  2 20  2  0
  2  3  1  0
  3  4  1  0
  3 17  2  0
  4 34  1  0
  5  4  1  0
  5 15  2  0
  5  6  1  0
  6  7  1  0
  6  8  1  0
  8 14  2  0
  8  9  1  0
  9 10  2  0
  9 35  1  0
 10 11  1  0
 10 36  1  0
 11 12  2  0
 11 37  1  0
 12 13  1  0
 12 14  1  0
 13 38  1  0
 13 39  1  0
 14 15  1  0
 15 16  1  0
 17 18  1  0
 17 40  1  0
 18 19  2  0
 18 41  1  0
 19 20  1  0
 19 42  1  0
 20 21  1  0
 21 22  1  0
 21 43  1  0
 22 27  1  0
 22 23  2  0
 23 24  1  0
 23 44  1  0
 24 25  2  0
 24 45  1  0
 25 26  1  0
 25 46  1  0
 26 27  2  0
 26 47  1  0
 27 28  1  0
 28 31  1  0
 28 29  1  0
 28 48  1  0
 29 30  1  0
 29 49  1  0
 29 50  1  0
 30 31  1  0
 30 51  1  0
 30 52  1  0
 31 53  1  0
 31 54  1  0
M  CHG  1  15   1
M  END
>  <DOCK_score>  (1) 
-63.1129

>  <SMILES>  (1) 
Nc1c(Nc2[nH]c3cccc(N)c3[nH+]2)cccc1Nc1ccccc1C1CCC1

$$$$
