Cc1c(Br)cccc1N1CC[NH+](C(c2ccccc2)c2ccccc2)CC1
     RDKit          3D

 53 56  0  0  0  0  0  0  0  0999 V2000
  133.5844  138.6617  163.3642 C   0  0  0  0  0  0  0  0  0  0  0  0
  134.1423  139.1513  162.0527 C   0  0  0  0  0  0  0  0  0  0  0  0
  135.0773  140.1691  162.0354 C   0  0  0  0  0  0  0  0  0  0  0  0
  135.6566  140.9475  163.6585 Br  0  0  0  0  0  0  0  0  0  0  0  0
  135.5859  140.6224  160.8312 C   0  0  0  0  0  0  0  0  0  0  0  0
  135.1647  140.0557  159.6422 C   0  0  0  0  0  0  0  0  0  0  0  0
  134.2348  139.0349  159.6531 C   0  0  0  0  0  0  0  0  0  0  0  0
  133.7217  138.5769  160.8604 C   0  0  0  0  0  0  0  0  0  0  0  0
  132.7807  137.5449  160.8744 N   0  0  0  0  0  0  0  0  0  0  0  0
  131.5425  137.9519  160.1952 C   0  0  0  0  0  0  0  0  0  0  0  0
  130.5188  136.8179  160.2845 C   0  0  0  0  0  0  0  0  0  0  0  0
  131.0692  135.6106  159.6547 N   0  0  0  0  0  0  0  0  0  0  0  0
  131.2868  135.8047  158.6888 H   0  0  0  0  0  0  0  0  0  0  0  0
  130.0791  134.5274  159.7246 C   0  0  0  0  0  0  0  0  0  0  0  0
  128.8255  134.9452  159.0002 C   0  0  0  0  0  0  0  0  0  0  0  0
  127.5983  134.4508  159.4009 C   0  0  0  0  0  0  0  0  0  0  0  0
  126.4478  134.8377  158.7395 C   0  0  0  0  0  0  0  0  0  0  0  0
  126.5255  135.7109  157.6707 C   0  0  0  0  0  0  0  0  0  0  0  0
  127.7532  136.2012  157.2666 C   0  0  0  0  0  0  0  0  0  0  0  0
  128.9033  135.8184  157.9314 C   0  0  0  0  0  0  0  0  0  0  0  0
  130.6435  133.2885  159.0784 C   0  0  0  0  0  0  0  0  0  0  0  0
  130.4462  133.0617  157.7291 C   0  0  0  0  0  0  0  0  0  0  0  0
  130.9680  131.9277  157.1353 C   0  0  0  0  0  0  0  0  0  0  0  0
  131.6781  131.0152  157.8930 C   0  0  0  0  0  0  0  0  0  0  0  0
  131.8708  131.2394  159.2433 C   0  0  0  0  0  0  0  0  0  0  0  0
  131.3535  132.3760  159.8360 C   0  0  0  0  0  0  0  0  0  0  0  0
  132.2916  135.2024  160.3592 C   0  0  0  0  0  0  0  0  0  0  0  0
  133.3300  136.3229  160.2704 C   0  0  0  0  0  0  0  0  0  0  0  0
  134.2594  137.9204  163.7921 H   0  0  0  0  0  0  0  0  0  0  0  0
  133.4834  139.5011  164.0521 H   0  0  0  0  0  0  0  0  0  0  0  0
  132.6069  138.2093  163.1969 H   0  0  0  0  0  0  0  0  0  0  0  0
  136.3137  141.4203  160.8198 H   0  0  0  0  0  0  0  0  0  0  0  0
  135.5639  140.4116  158.7038 H   0  0  0  0  0  0  0  0  0  0  0  0
  133.9068  138.5926  158.7240 H   0  0  0  0  0  0  0  0  0  0  0  0
  131.7560  138.1674  159.1482 H   0  0  0  0  0  0  0  0  0  0  0  0
  131.1402  138.8437  160.6757 H   0  0  0  0  0  0  0  0  0  0  0  0
  129.6047  137.1122  159.7690 H   0  0  0  0  0  0  0  0  0  0  0  0
  130.2953  136.6119  161.3312 H   0  0  0  0  0  0  0  0  0  0  0  0
  129.8432  134.3177  160.7679 H   0  0  0  0  0  0  0  0  0  0  0  0
  127.5381  133.7650  160.2331 H   0  0  0  0  0  0  0  0  0  0  0  0
  125.4887  134.4543  159.0550 H   0  0  0  0  0  0  0  0  0  0  0  0
  125.6272  136.0098  157.1511 H   0  0  0  0  0  0  0  0  0  0  0  0
  127.8140  136.8832  156.4314 H   0  0  0  0  0  0  0  0  0  0  0  0
  129.8624  136.2012  157.6155 H   0  0  0  0  0  0  0  0  0  0  0  0
  129.8876  133.7724  157.1381 H   0  0  0  0  0  0  0  0  0  0  0  0
  130.8171  131.7523  156.0804 H   0  0  0  0  0  0  0  0  0  0  0  0
  132.0820  130.1269  157.4300 H   0  0  0  0  0  0  0  0  0  0  0  0
  132.4253  130.5263  159.8354 H   0  0  0  0  0  0  0  0  0  0  0  0
  131.5039  132.5510  160.8911 H   0  0  0  0  0  0  0  0  0  0  0  0
  132.0590  135.0046  161.4055 H   0  0  0  0  0  0  0  0  0  0  0  0
  132.6917  134.2989  159.8990 H   0  0  0  0  0  0  0  0  0  0  0  0
  134.2318  136.0262  160.8059 H   0  0  0  0  0  0  0  0  0  0  0  0
  133.5730  136.5116  159.2248 H   0  0  0  0  0  0  0  0  0  0  0  0
  1  2  1  0
  1 29  1  0
  1 30  1  0
  1 31  1  0
  2  8  2  0
  2  3  1  0
  3  4  1  0
  3  5  2  0
  5  6  1  0
  5 32  1  0
  6  7  2  0
  6 33  1  0
  7  8  1  0
  7 34  1  0
  8  9  1  0
  9 28  1  0
  9 10  1  0
 10 11  1  0
 10 35  1  0
 10 36  1  0
 11 12  1  0
 11 37  1  0
 11 38  1  0
 12 13  1  0
 12 14  1  0
 12 27  1  0
 14 15  1  0
 14 21  1  0
 14 39  1  0
 15 20  1  0
 15 16  2  0
 16 17  1  0
 16 40  1  0
 17 18  2  0
 17 41  1  0
 18 19  1  0
 18 42  1  0
 19 20  2  0
 19 43  1  0
 20 44  1  0
 21 26  1  0
 21 22  2  0
 22 23  1  0
 22 45  1  0
 23 24  2  0
 23 46  1  0
 24 25  1  0
 24 47  1  0
 25 26  2  0
 25 48  1  0
 26 49  1  0
 27 28  1  0
 27 50  1  0
 27 51  1  0
 28 52  1  0
 28 53  1  0
M  CHG  1  12   1
M  END
>  <DOCK_score>  (1) 
-56.461132

>  <SMILES>  (1) 
Cc1c(Br)cccc1N1CC[NH+](C(c2ccccc2)c2ccccc2)CC1

$$$$
