CCc1ccc(-c2c[nH]c(N[C@H](CC)c3cccc4ccccc34)[nH+]2)cc1
     RDKit          3D

 53 56  0  0  1  0  0  0  0  0999 V2000
  129.9706  128.5915  151.1841 C   0  0  0  0  0  0  0  0  0  0  0  0
  131.1600  129.4901  151.5281 C   0  0  0  0  0  0  0  0  0  0  0  0
  130.8616  130.2571  152.7905 C   0  0  0  0  0  0  0  0  0  0  0  0
  131.2059  129.7232  154.0188 C   0  0  0  0  0  0  0  0  0  0  0  0
  130.9396  130.4234  155.1778 C   0  0  0  0  0  0  0  0  0  0  0  0
  130.3127  131.6663  155.1095 C   0  0  0  0  0  0  0  0  0  0  0  0
  130.0191  132.4214  156.3521 C   0  0  0  0  0  0  0  0  0  0  0  0
  129.2406  131.9975  157.3783 C   0  0  0  0  0  0  0  0  0  0  0  0
  129.2401  132.9991  158.3183 N   0  0  0  0  0  0  0  0  0  0  0  0
  128.7708  132.9901  159.1672 H   0  0  0  0  0  0  0  0  0  0  0  0
  130.0189  134.0068  157.8386 C   0  0  0  0  0  0  0  0  0  0  0  0
  130.2780  135.2034  158.4848 N   0  0  0  0  0  0  0  0  0  0  0  0
  129.6919  135.4666  159.8014 C   0  0  2  0  0  0  0  0  0  0  0  0
  129.7230  134.5573  160.4016 H   0  0  0  0  0  0  0  0  0  0  0  0
  128.2393  135.9164  159.6323 C   0  0  0  0  0  0  0  0  0  0  0  0
  127.6272  136.1914  161.0074 C   0  0  0  0  0  0  0  0  0  0  0  0
  130.4765  136.5518  160.4927 C   0  0  0  0  0  0  0  0  0  0  0  0
  130.1279  137.8576  160.3302 C   0  0  0  0  0  0  0  0  0  0  0  0
  130.8412  138.8744  160.9615 C   0  0  0  0  0  0  0  0  0  0  0  0
  131.9074  138.5916  161.7592 C   0  0  0  0  0  0  0  0  0  0  0  0
  132.2971  137.2555  161.9509 C   0  0  0  0  0  0  0  0  0  0  0  0
  133.3921  136.9243  162.7674 C   0  0  0  0  0  0  0  0  0  0  0  0
  133.7302  135.6178  162.9431 C   0  0  0  0  0  0  0  0  0  0  0  0
  133.0169  134.6006  162.3112 C   0  0  0  0  0  0  0  0  0  0  0  0
  131.9544  134.8836  161.5093 C   0  0  0  0  0  0  0  0  0  0  0  0
  131.5682  136.2206  161.3129 C   0  0  0  0  0  0  0  0  0  0  0  0
  130.4868  133.6557  156.6656 N   0  0  0  0  0  0  0  0  0  0  0  0
  131.0724  134.1933  156.1098 H   0  0  0  0  0  0  0  0  0  0  0  0
  129.9632  132.1975  153.8692 C   0  0  0  0  0  0  0  0  0  0  0  0
  130.2392  131.4908  152.7164 C   0  0  0  0  0  0  0  0  0  0  0  0
  130.1864  128.0366  150.2710 H   0  0  0  0  0  0  0  0  0  0  0  0
  129.7959  127.8919  152.0016 H   0  0  0  0  0  0  0  0  0  0  0  0
  129.0824  129.2052  151.0350 H   0  0  0  0  0  0  0  0  0  0  0  0
  132.0482  128.8768  151.6770 H   0  0  0  0  0  0  0  0  0  0  0  0
  131.3346  130.1900  150.7103 H   0  0  0  0  0  0  0  0  0  0  0  0
  131.6878  128.7580  154.0709 H   0  0  0  0  0  0  0  0  0  0  0  0
  131.2130  130.0072  156.1362 H   0  0  0  0  0  0  0  0  0  0  0  0
  128.7204  131.0533  157.4440 H   0  0  0  0  0  0  0  0  0  0  0  0
  130.8474  135.8675  158.0659 H   0  0  0  0  0  0  0  0  0  0  0  0
  128.2081  136.8259  159.0323 H   0  0  0  0  0  0  0  0  0  0  0  0
  127.6717  135.1316  159.1324 H   0  0  0  0  0  0  0  0  0  0  0  0
  127.6584  135.2818  161.6074 H   0  0  0  0  0  0  0  0  0  0  0  0
  128.1948  136.9762  161.5073 H   0  0  0  0  0  0  0  0  0  0  0  0
  126.5923  136.5118  160.8868 H   0  0  0  0  0  0  0  0  0  0  0  0
  129.2860  138.1092  159.7022 H   0  0  0  0  0  0  0  0  0  0  0  0
  130.5440  139.9024  160.8157 H   0  0  0  0  0  0  0  0  0  0  0  0
  132.4507  139.3901  162.2424 H   0  0  0  0  0  0  0  0  0  0  0  0
  133.9546  137.7018  163.2629 H   0  0  0  0  0  0  0  0  0  0  0  0
  134.5694  135.3658  163.5746 H   0  0  0  0  0  0  0  0  0  0  0  0
  133.3116  133.5724  162.4605 H   0  0  0  0  0  0  0  0  0  0  0  0
  131.4106  134.0850  161.0267 H   0  0  0  0  0  0  0  0  0  0  0  0
  129.4770  133.1600  153.8104 H   0  0  0  0  0  0  0  0  0  0  0  0
  129.9686  131.9011  151.7547 H   0  0  0  0  0  0  0  0  0  0  0  0
  1  2  1  0
  1 31  1  0
  1 32  1  0
  1 33  1  0
  2  3  1  0
  2 34  1  0
  2 35  1  0
  3 30  2  0
  3  4  1  0
  4  5  2  0
  4 36  1  0
  5  6  1  0
  5 37  1  0
  6  7  1  0
  6 29  2  0
  7 27  1  0
  7  8  2  0
  8  9  1  0
  8 38  1  0
  9 10  1  0
  9 11  1  0
 11 12  1  0
 11 27  2  0
 12 13  1  0
 12 39  1  0
 13 14  1  1
 13 15  1  0
 13 17  1  0
 15 16  1  0
 15 40  1  0
 15 41  1  0
 16 42  1  0
 16 43  1  0
 16 44  1  0
 17 26  1  0
 17 18  2  0
 18 19  1  0
 18 45  1  0
 19 20  2  0
 19 46  1  0
 20 21  1  0
 20 47  1  0
 21 26  2  0
 21 22  1  0
 22 23  2  0
 22 48  1  0
 23 24  1  0
 23 49  1  0
 24 25  2  0
 24 50  1  0
 25 26  1  0
 25 51  1  0
 27 28  1  0
 29 30  1  0
 29 52  1  0
 30 53  1  0
M  CHG  1  27   1
M  END
>  <DOCK_score>  (1) 
-56.210613

>  <SMILES>  (1) 
CCc1ccc(-c2c[nH]c(N[C@H](CC)c3cccc4ccccc34)[nH+]2)cc1

$$$$
