Nc1ccc(-c2c[nH]c(Nc3ccc(NC(c4ccccc4)c4ccccc4)c(N)c3)[nH+]2)cc1
     RDKit          3D

 61 65  0  0  1  0  0  0  0  0999 V2000
  131.0304  129.5129  152.0660 N   0  0  0  0  0  0  0  0  0  0  0  0
  130.8173  130.1929  153.2676 C   0  0  0  0  0  0  0  0  0  0  0  0
  129.9576  131.2849  153.3041 C   0  0  0  0  0  0  0  0  0  0  0  0
  129.7458  131.9574  154.4892 C   0  0  0  0  0  0  0  0  0  0  0  0
  130.3948  131.5415  155.6508 C   0  0  0  0  0  0  0  0  0  0  0  0
  130.1691  132.2638  156.9268 C   0  0  0  0  0  0  0  0  0  0  0  0
  129.6597  131.7319  158.0656 C   0  0  0  0  0  0  0  0  0  0  0  0
  129.6220  132.7430  158.9958 N   0  0  0  0  0  0  0  0  0  0  0  0
  129.3065  132.6711  159.9102 H   0  0  0  0  0  0  0  0  0  0  0  0
  130.1100  133.8636  158.3969 C   0  0  0  0  0  0  0  0  0  0  0  0
  130.2402  135.1063  158.9946 N   0  0  0  0  0  0  0  0  0  0  0  0
  129.8529  135.2858  160.3283 C   0  0  0  0  0  0  0  0  0  0  0  0
  130.7693  135.0792  161.3509 C   0  0  0  0  0  0  0  0  0  0  0  0
  130.3884  135.2500  162.6687 C   0  0  0  0  0  0  0  0  0  0  0  0
  129.0900  135.6284  162.9730 C   0  0  0  0  0  0  0  0  0  0  0  0
  128.7044  135.8012  164.3109 N   0  0  0  0  0  0  0  0  0  0  0  0
  129.6879  136.2338  165.3066 C   0  0  0  0  0  0  0  0  0  0  0  0
  130.2448  137.5773  164.9119 C   0  0  0  0  0  0  0  0  0  0  0  0
  131.5349  137.9226  165.2686 C   0  0  0  0  0  0  0  0  0  0  0  0
  132.0474  139.1531  164.9024 C   0  0  0  0  0  0  0  0  0  0  0  0
  131.2662  140.0425  164.1886 C   0  0  0  0  0  0  0  0  0  0  0  0
  129.9744  139.6993  163.8365 C   0  0  0  0  0  0  0  0  0  0  0  0
  129.4636  138.4668  164.1981 C   0  0  0  0  0  0  0  0  0  0  0  0
  129.0235  136.3419  166.6550 C   0  0  0  0  0  0  0  0  0  0  0  0
  129.7541  136.1127  167.8058 C   0  0  0  0  0  0  0  0  0  0  0  0
  129.1458  136.2166  169.0428 C   0  0  0  0  0  0  0  0  0  0  0  0
  127.8044  136.5394  169.1285 C   0  0  0  0  0  0  0  0  0  0  0  0
  127.0725  136.7635  167.9773 C   0  0  0  0  0  0  0  0  0  0  0  0
  127.6820  136.6647  166.7405 C   0  0  0  0  0  0  0  0  0  0  0  0
  128.1671  135.8368  161.9484 C   0  0  0  0  0  0  0  0  0  0  0  0
  126.8554  136.2194  162.2533 N   0  0  0  0  0  0  0  0  0  0  0  0
  128.5511  135.6649  160.6276 C   0  0  0  0  0  0  0  0  0  0  0  0
  130.4312  133.5740  157.1592 N   0  0  0  0  0  0  0  0  0  0  0  0
  130.7995  134.1970  156.5134 H   0  0  0  0  0  0  0  0  0  0  0  0
  131.2606  130.4497  155.6103 C   0  0  0  0  0  0  0  0  0  0  0  0
  131.4648  129.7766  154.4242 C   0  0  0  0  0  0  0  0  0  0  0  0
  130.5780  129.8034  151.2577 H   0  0  0  0  0  0  0  0  0  0  0  0
  131.6297  128.7516  152.0390 H   0  0  0  0  0  0  0  0  0  0  0  0
  129.4552  131.6068  152.4039 H   0  0  0  0  0  0  0  0  0  0  0  0
  129.0777  132.8052  154.5175 H   0  0  0  0  0  0  0  0  0  0  0  0
  129.3439  130.7097  158.2131 H   0  0  0  0  0  0  0  0  0  0  0  0
  130.5996  135.8522  158.4893 H   0  0  0  0  0  0  0  0  0  0  0  0
  131.7813  134.7840  161.1163 H   0  0  0  0  0  0  0  0  0  0  0  0
  131.1031  135.0882  163.4621 H   0  0  0  0  0  0  0  0  0  0  0  0
  127.7865  135.6341  164.5765 H   0  0  0  0  0  0  0  0  0  0  0  0
  130.4975  135.5057  165.3578 H   0  0  0  0  0  0  0  0  0  0  0  0
  132.1438  137.2294  165.8302 H   0  0  0  0  0  0  0  0  0  0  0  0
  133.0567  139.4214  165.1778 H   0  0  0  0  0  0  0  0  0  0  0  0
  131.6652  141.0056  163.9063 H   0  0  0  0  0  0  0  0  0  0  0  0
  129.3639  140.3943  163.2790 H   0  0  0  0  0  0  0  0  0  0  0  0
  128.4541  138.1988  163.9233 H   0  0  0  0  0  0  0  0  0  0  0  0
  130.8011  135.8562  167.7387 H   0  0  0  0  0  0  0  0  0  0  0  0
  129.7175  136.0412  169.9421 H   0  0  0  0  0  0  0  0  0  0  0  0
  127.3281  136.6163  170.0948 H   0  0  0  0  0  0  0  0  0  0  0  0
  126.0244  137.0153  168.0442 H   0  0  0  0  0  0  0  0  0  0  0  0
  127.1102  136.8394  165.8412 H   0  0  0  0  0  0  0  0  0  0  0  0
  126.2143  136.3644  161.5399 H   0  0  0  0  0  0  0  0  0  0  0  0
  126.5875  136.3395  163.1777 H   0  0  0  0  0  0  0  0  0  0  0  0
  127.8383  135.8252  159.8322 H   0  0  0  0  0  0  0  0  0  0  0  0
  131.7678  130.1287  156.5081 H   0  0  0  0  0  0  0  0  0  0  0  0
  132.1317  128.9278  154.3934 H   0  0  0  0  0  0  0  0  0  0  0  0
  1  2  1  0
  1 37  1  0
  1 38  1  0
  2 36  2  0
  2  3  1  0
  3  4  2  0
  3 39  1  0
  4  5  1  0
  4 40  1  0
  5  6  1  0
  5 35  2  0
  6 33  1  0
  6  7  2  0
  7  8  1  0
  7 41  1  0
  8  9  1  0
  8 10  1  0
 10 11  1  0
 10 33  2  0
 11 12  1  0
 11 42  1  0
 12 32  1  0
 12 13  2  0
 13 14  1  0
 13 43  1  0
 14 15  2  0
 14 44  1  0
 15 16  1  0
 15 30  1  0
 16 17  1  0
 16 45  1  0
 17 18  1  0
 17 24  1  0
 17 46  1  0
 18 23  1  0
 18 19  2  0
 19 20  1  0
 19 47  1  0
 20 21  2  0
 20 48  1  0
 21 22  1  0
 21 49  1  0
 22 23  2  0
 22 50  1  0
 23 51  1  0
 24 29  1  0
 24 25  2  0
 25 26  1  0
 25 52  1  0
 26 27  2  0
 26 53  1  0
 27 28  1  0
 27 54  1  0
 28 29  2  0
 28 55  1  0
 29 56  1  0
 30 31  1  0
 30 32  2  0
 31 57  1  0
 31 58  1  0
 32 59  1  0
 33 34  1  0
 35 36  1  0
 35 60  1  0
 36 61  1  0
M  CHG  1  33   1
M  END
>  <DOCK_score>  (1) 
-54.428757

>  <SMILES>  (1) 
Nc1ccc(-c2c[nH]c(Nc3ccc(NC(c4ccccc4)c4ccccc4)c(N)c3)[nH+]2)cc1

$$$$
