Oc1ccc2c(c1)C(N1CCC(NC3=[NH+]CCN3)CC1)c1cc(O)ccc1-2
     RDKit          3D

 52 56  0  0  1  0  0  0  0  0999 V2000
  130.9582  132.5008  156.0338 O   0  0  0  0  0  0  0  0  0  0  0  0
  129.8881  132.5770  156.8677 C   0  0  0  0  0  0  0  0  0  0  0  0
  129.3381  131.4185  157.3993 C   0  0  0  0  0  0  0  0  0  0  0  0
  128.2528  131.4914  158.2459 C   0  0  0  0  0  0  0  0  0  0  0  0
  127.7025  132.7329  158.5717 C   0  0  0  0  0  0  0  0  0  0  0  0
  128.2595  133.8909  158.0346 C   0  0  0  0  0  0  0  0  0  0  0  0
  129.3443  133.8139  157.1887 C   0  0  0  0  0  0  0  0  0  0  0  0
  127.4650  135.0625  158.5574 C   0  0  0  0  0  0  0  0  0  0  0  0
  128.3343  135.9575  159.3328 N   0  0  0  0  0  0  0  0  0  0  0  0
  129.2079  135.1933  160.2326 C   0  0  0  0  0  0  0  0  0  0  0  0
  129.9921  136.1579  161.1250 C   0  0  0  0  0  0  0  0  0  0  0  0
  130.8267  137.0941  160.2467 C   0  0  0  0  0  0  0  0  0  0  0  0
  131.5347  138.0577  161.0931 N   0  0  0  0  0  0  0  0  0  0  0  0
  132.7418  138.5616  160.6932 C   0  0  0  0  0  0  0  0  0  0  0  0
  133.4240  139.4380  161.4122 N   0  0  0  0  0  0  0  0  0  0  0  0
  133.1459  139.8002  162.2679 H   0  0  0  0  0  0  0  0  0  0  0  0
  134.6728  139.7738  160.7101 C   0  0  0  0  0  0  0  0  0  0  0  0
  134.5976  138.9306  159.4212 C   0  0  0  0  0  0  0  0  0  0  0  0
  133.3183  138.2162  159.5535 N   0  0  0  0  0  0  0  0  0  0  0  0
  129.8982  137.8423  159.2860 C   0  0  0  0  0  0  0  0  0  0  0  0
  129.1166  136.8289  158.4469 C   0  0  0  0  0  0  0  0  0  0  0  0
  126.3956  134.4774  159.4473 C   0  0  0  0  0  0  0  0  0  0  0  0
  125.3888  135.0585  160.1867 C   0  0  0  0  0  0  0  0  0  0  0  0
  124.5264  134.2639  160.9306 C   0  0  0  0  0  0  0  0  0  0  0  0
  123.5327  134.8368  161.6593 O   0  0  0  0  0  0  0  0  0  0  0  0
  124.6795  132.8842  160.9292 C   0  0  0  0  0  0  0  0  0  0  0  0
  125.6859  132.2990  160.1912 C   0  0  0  0  0  0  0  0  0  0  0  0
  126.5554  133.0939  159.4410 C   0  0  0  0  0  0  0  0  0  0  0  0
  131.2705  133.3587  155.7151 H   0  0  0  0  0  0  0  0  0  0  0  0
  129.7617  130.4573  157.1485 H   0  0  0  0  0  0  0  0  0  0  0  0
  127.8280  130.5878  158.6577 H   0  0  0  0  0  0  0  0  0  0  0  0
  129.7717  134.7154  156.7750 H   0  0  0  0  0  0  0  0  0  0  0  0
  127.0097  135.6064  157.7298 H   0  0  0  0  0  0  0  0  0  0  0  0
  129.9038  134.5967  159.6428 H   0  0  0  0  0  0  0  0  0  0  0  0
  128.6015  134.5348  160.8544 H   0  0  0  0  0  0  0  0  0  0  0  0
  130.6519  135.5910  161.7820 H   0  0  0  0  0  0  0  0  0  0  0  0
  129.2971  136.7452  161.7251 H   0  0  0  0  0  0  0  0  0  0  0  0
  131.5491  136.5107  159.6760 H   0  0  0  0  0  0  0  0  0  0  0  0
  131.1456  138.3414  161.9351 H   0  0  0  0  0  0  0  0  0  0  0  0
  135.5404  139.4890  161.3053 H   0  0  0  0  0  0  0  0  0  0  0  0
  134.7014  140.8371  160.4722 H   0  0  0  0  0  0  0  0  0  0  0  0
  135.4279  138.2258  159.3746 H   0  0  0  0  0  0  0  0  0  0  0  0
  134.5899  139.5718  158.5398 H   0  0  0  0  0  0  0  0  0  0  0  0
  132.9547  137.5909  158.9072 H   0  0  0  0  0  0  0  0  0  0  0  0
  129.2017  138.4561  159.8571 H   0  0  0  0  0  0  0  0  0  0  0  0
  130.4908  138.4788  158.6289 H   0  0  0  0  0  0  0  0  0  0  0  0
  129.8130  136.2248  157.8655 H   0  0  0  0  0  0  0  0  0  0  0  0
  128.4442  137.3583  157.7718 H   0  0  0  0  0  0  0  0  0  0  0  0
  125.2697  136.1320  160.1871 H   0  0  0  0  0  0  0  0  0  0  0  0
  123.5056  135.8013  161.5973 H   0  0  0  0  0  0  0  0  0  0  0  0
  124.0084  132.2675  161.5085 H   0  0  0  0  0  0  0  0  0  0  0  0
  125.8018  131.2253  160.1927 H   0  0  0  0  0  0  0  0  0  0  0  0
  1  2  1  0
  1 29  1  0
  2  7  2  0
  2  3  1  0
  3  4  2  0
  3 30  1  0
  4  5  1  0
  4 31  1  0
  5 28  1  0
  5  6  2  0
  6  7  1  0
  6  8  1  0
  7 32  1  0
  8 22  1  0
  8 33  1  0
  9  8  1  0
  9 21  1  0
  9 10  1  0
 10 11  1  0
 10 34  1  0
 10 35  1  0
 11 12  1  0
 11 36  1  0
 11 37  1  0
 12 13  1  0
 12 20  1  0
 12 38  1  0
 13 14  1  0
 13 39  1  0
 14 19  2  0
 14 15  1  0
 15 16  1  0
 15 17  1  0
 17 18  1  0
 17 40  1  0
 17 41  1  0
 18 19  1  0
 18 42  1  0
 18 43  1  0
 19 44  1  0
 20 21  1  0
 20 45  1  0
 20 46  1  0
 21 47  1  0
 21 48  1  0
 22 28  2  0
 22 23  1  0
 23 24  2  0
 23 49  1  0
 24 25  1  0
 24 26  1  0
 25 50  1  0
 26 27  2  0
 26 51  1  0
 27 28  1  0
 27 52  1  0
M  CHG  1  19   1
M  END
>  <DOCK_score>  (1) 
-53.35276

>  <SMILES>  (1) 
Oc1ccc2c(c1)C(N1CCC(NC3=[NH+]CCN3)CC1)c1cc(O)ccc1-2

$$$$
