CC1(c2nc3ccncc3[nH]2)CC([NH2+]C2c3cc(O)ccc3-c3ccc(O)cc32)C1
     RDKit          3D

 53 58  0  0  1  0  0  0  0  0999 V2000
  129.4889  138.6644  161.5425 C   0  0  0  0  0  0  0  0  0  0  0  0
  130.5039  137.6206  161.0723 C   0  0  1  0  0  0  0  0  0  0  0  0
  131.8287  138.2255  160.6849 C   0  0  0  0  0  0  0  0  0  0  0  0
  132.5979  138.9107  161.4826 N   0  0  0  0  0  0  0  0  0  0  0  0
  133.7070  139.3053  160.8165 C   0  0  0  0  0  0  0  0  0  0  0  0
  134.8502  140.0399  161.1519 C   0  0  0  0  0  0  0  0  0  0  0  0
  135.7988  140.2565  160.1931 C   0  0  0  0  0  0  0  0  0  0  0  0
  135.6624  139.7806  158.9667 N   0  0  0  0  0  0  0  0  0  0  0  0
  134.6099  139.0786  158.5960 C   0  0  0  0  0  0  0  0  0  0  0  0
  133.5947  138.8137  159.5012 C   0  0  0  0  0  0  0  0  0  0  0  0
  132.3948  138.1354  159.4523 N   0  0  0  0  0  0  0  0  0  0  0  0
  132.0234  137.6791  158.6812 H   0  0  0  0  0  0  0  0  0  0  0  0
  130.6307  136.4129  162.0159 C   0  0  0  0  0  0  0  0  0  0  0  0
  129.5013  135.7587  161.2026 C   0  0  2  0  0  0  0  0  0  0  0  0
  129.7017  134.3228  160.9667 N   0  0  0  0  0  0  0  0  0  0  0  0
  130.6746  134.1476  160.7643 H   0  0  0  0  0  0  0  0  0  0  0  0
  129.4312  133.8057  161.7898 H   0  0  0  0  0  0  0  0  0  0  0  0
  128.8798  133.8942  159.8271 C   0  0  0  0  0  0  0  0  0  0  0  0
  127.4705  133.6044  160.2826 C   0  0  0  0  0  0  0  0  0  0  0  0
  126.5084  134.3960  160.8714 C   0  0  0  0  0  0  0  0  0  0  0  0
  125.2691  133.8587  161.1931 C   0  0  0  0  0  0  0  0  0  0  0  0
  124.3203  134.6389  161.7740 O   0  0  0  0  0  0  0  0  0  0  0  0
  124.9999  132.5240  160.9215 C   0  0  0  0  0  0  0  0  0  0  0  0
  125.9619  131.7258  160.3327 C   0  0  0  0  0  0  0  0  0  0  0  0
  127.2093  132.2632  160.0066 C   0  0  0  0  0  0  0  0  0  0  0  0
  128.4032  131.6461  159.3777 C   0  0  0  0  0  0  0  0  0  0  0  0
  128.6337  130.3449  158.9250 C   0  0  0  0  0  0  0  0  0  0  0  0
  129.8497  130.0138  158.3673 C   0  0  0  0  0  0  0  0  0  0  0  0
  130.8499  130.9702  158.2542 C   0  0  0  0  0  0  0  0  0  0  0  0
  132.0474  130.6395  157.7037 O   0  0  0  0  0  0  0  0  0  0  0  0
  130.6257  132.2648  158.7032 C   0  0  0  0  0  0  0  0  0  0  0  0
  129.4110  132.6001  159.2610 C   0  0  0  0  0  0  0  0  0  0  0  0
  129.9430  136.6439  160.0252 C   0  0  0  0  0  0  0  0  0  0  0  0
  129.1764  139.2747  160.6952 H   0  0  0  0  0  0  0  0  0  0  0  0
  128.6207  138.1611  161.9678 H   0  0  0  0  0  0  0  0  0  0  0  0
  129.9468  139.3010  162.2996 H   0  0  0  0  0  0  0  0  0  0  0  0
  134.9786  140.4314  162.1503 H   0  0  0  0  0  0  0  0  0  0  0  0
  136.6818  140.8260  160.4431 H   0  0  0  0  0  0  0  0  0  0  0  0
  134.5386  138.7091  157.5837 H   0  0  0  0  0  0  0  0  0  0  0  0
  131.5852  135.8931  161.9341 H   0  0  0  0  0  0  0  0  0  0  0  0
  130.3547  136.6337  163.0470 H   0  0  0  0  0  0  0  0  0  0  0  0
  128.5036  135.9924  161.5742 H   0  0  0  0  0  0  0  0  0  0  0  0
  128.8741  134.6661  159.0576 H   0  0  0  0  0  0  0  0  0  0  0  0
  126.7183  135.4340  161.0828 H   0  0  0  0  0  0  0  0  0  0  0  0
  124.5998  135.5524  161.9240 H   0  0  0  0  0  0  0  0  0  0  0  0
  124.0354  132.1075  161.1720 H   0  0  0  0  0  0  0  0  0  0  0  0
  125.7495  130.6881  160.1220 H   0  0  0  0  0  0  0  0  0  0  0  0
  127.8584  129.5981  159.0115 H   0  0  0  0  0  0  0  0  0  0  0  0
  130.0254  129.0072  158.0176 H   0  0  0  0  0  0  0  0  0  0  0  0
  132.6792  131.3708  157.6680 H   0  0  0  0  0  0  0  0  0  0  0  0
  131.4032  133.0092  158.6151 H   0  0  0  0  0  0  0  0  0  0  0  0
  129.1120  137.0511  159.4492 H   0  0  0  0  0  0  0  0  0  0  0  0
  130.7096  136.1873  159.3992 H   0  0  0  0  0  0  0  0  0  0  0  0
  1 34  1  0
  1 35  1  0
  1 36  1  0
  2  1  1  1
  2 33  1  0
  2  3  1  0
  2 13  1  0
  3 11  1  0
  3  4  2  0
  4  5  1  0
  5 10  2  0
  5  6  1  0
  6  7  2  0
  6 37  1  0
  7  8  1  0
  7 38  1  0
  8  9  2  0
  9 10  1  0
  9 39  1  0
 10 11  1  0
 11 12  1  0
 13 14  1  0
 13 40  1  0
 13 41  1  0
 14 15  1  0
 14 33  1  0
 14 42  1  1
 15 16  1  0
 15 17  1  0
 15 18  1  0
 18 32  1  0
 18 19  1  0
 18 43  1  0
 19 25  1  0
 19 20  2  0
 20 21  1  0
 20 44  1  0
 21 22  1  0
 21 23  2  0
 22 45  1  0
 23 24  1  0
 23 46  1  0
 24 25  2  0
 24 47  1  0
 25 26  1  0
 26 32  2  0
 26 27  1  0
 27 28  2  0
 27 48  1  0
 28 29  1  0
 28 49  1  0
 29 30  1  0
 29 31  2  0
 30 50  1  0
 31 32  1  0
 31 51  1  0
 33 52  1  0
 33 53  1  0
M  CHG  1  15   1
M  END
>  <DOCK_score>  (1) 
-49.507599

>  <SMILES>  (1) 
CC1(c2nc3ccncc3[nH]2)CC([NH2+]C2c3cc(O)ccc3-c3ccc(O)cc32)C1

$$$$
