O=C(C[C@H](Nc1[nH]cc(-c2ccccc2)[nH+]1)c1ccccc1)N1CC2CC=CCC2C1
     RDKit          3D

 60 64  0  0  1  0  0  0  0  0999 V2000
  131.1152  135.5099  162.5945 O   0  0  0  0  0  0  0  0  0  0  0  0
  131.1138  136.3311  161.7020 C   0  0  0  0  0  0  0  0  0  0  0  0
  129.8593  136.5735  160.9030 C   0  0  0  0  0  0  0  0  0  0  0  0
  129.4361  135.2756  160.2120 C   0  0  2  0  0  0  0  0  0  0  0  0
  129.5877  134.4364  160.8907 H   0  0  0  0  0  0  0  0  0  0  0  0
  130.2429  135.0794  159.0050 N   0  0  0  0  0  0  0  0  0  0  0  0
  130.0389  133.9648  158.2096 C   0  0  0  0  0  0  0  0  0  0  0  0
  129.1286  132.9804  158.4429 N   0  0  0  0  0  0  0  0  0  0  0  0
  128.5111  132.9340  159.1896 H   0  0  0  0  0  0  0  0  0  0  0  0
  129.2432  132.0663  157.4239 C   0  0  0  0  0  0  0  0  0  0  0  0
  130.2253  132.5134  156.6027 C   0  0  0  0  0  0  0  0  0  0  0  0
  130.7014  131.8453  155.3670 C   0  0  0  0  0  0  0  0  0  0  0  0
  130.6129  132.4996  154.1394 C   0  0  0  0  0  0  0  0  0  0  0  0
  131.0632  131.8756  152.9939 C   0  0  0  0  0  0  0  0  0  0  0  0
  131.5904  130.5982  153.0606 C   0  0  0  0  0  0  0  0  0  0  0  0
  131.6755  129.9420  154.2751 C   0  0  0  0  0  0  0  0  0  0  0  0
  131.2339  130.5587  155.4281 C   0  0  0  0  0  0  0  0  0  0  0  0
  130.6945  133.6806  157.1109 N   0  0  0  0  0  0  0  0  0  0  0  0
  131.4022  134.2188  156.7230 H   0  0  0  0  0  0  0  0  0  0  0  0
  127.9795  135.3593  159.8344 C   0  0  0  0  0  0  0  0  0  0  0  0
  127.0097  134.9332  160.7225 C   0  0  0  0  0  0  0  0  0  0  0  0
  125.6736  135.0104  160.3763 C   0  0  0  0  0  0  0  0  0  0  0  0
  125.3073  135.5138  159.1421 C   0  0  0  0  0  0  0  0  0  0  0  0
  126.2771  135.9404  158.2541 C   0  0  0  0  0  0  0  0  0  0  0  0
  127.6132  135.8640  158.6007 C   0  0  0  0  0  0  0  0  0  0  0  0
  132.2344  137.0268  161.4246 N   0  0  0  0  0  0  0  0  0  0  0  0
  133.5336  136.8964  162.1307 C   0  0  0  0  0  0  0  0  0  0  0  0
  134.2156  138.2463  161.8936 C   0  0  1  0  0  0  0  0  0  0  0  0
  135.7266  138.2512  161.9561 C   0  0  0  0  0  0  0  0  0  0  0  0
  136.2215  139.5266  161.3138 C   0  0  0  0  0  0  0  0  0  0  0  0
  135.5096  140.2753  160.5285 C   0  0  0  0  0  0  0  0  0  0  0  0
  134.0855  139.9721  160.1229 C   0  0  0  0  0  0  0  0  0  0  0  0
  133.8352  138.5003  160.4022 C   0  0  2  0  0  0  0  0  0  0  0  0
  132.3756  138.0544  160.3687 C   0  0  0  0  0  0  0  0  0  0  0  0
  130.0494  137.3399  160.1515 H   0  0  0  0  0  0  0  0  0  0  0  0
  129.0633  136.9069  161.5687 H   0  0  0  0  0  0  0  0  0  0  0  0
  130.9200  135.7305  158.7631 H   0  0  0  0  0  0  0  0  0  0  0  0
  128.6645  131.1625  157.3021 H   0  0  0  0  0  0  0  0  0  0  0  0
  130.1971  133.4948  154.0856 H   0  0  0  0  0  0  0  0  0  0  0  0
  130.9999  132.3837  152.0428 H   0  0  0  0  0  0  0  0  0  0  0  0
  131.9371  130.1114  152.1609 H   0  0  0  0  0  0  0  0  0  0  0  0
  132.0885  128.9452  154.3214 H   0  0  0  0  0  0  0  0  0  0  0  0
  131.3012  130.0454  156.3760 H   0  0  0  0  0  0  0  0  0  0  0  0
  127.2956  134.5441  161.6885 H   0  0  0  0  0  0  0  0  0  0  0  0
  124.9160  134.6771  161.0701 H   0  0  0  0  0  0  0  0  0  0  0  0
  124.2635  135.5735  158.8714 H   0  0  0  0  0  0  0  0  0  0  0  0
  125.9911  136.3330  157.2896 H   0  0  0  0  0  0  0  0  0  0  0  0
  128.3710  136.1971  157.9068 H   0  0  0  0  0  0  0  0  0  0  0  0
  133.3755  136.7281  163.1960 H   0  0  0  0  0  0  0  0  0  0  0  0
  134.1255  136.0899  161.6981 H   0  0  0  0  0  0  0  0  0  0  0  0
  133.8116  139.0208  162.5456 H   0  0  0  0  0  0  0  0  0  0  0  0
  136.1062  137.3890  161.4077 H   0  0  0  0  0  0  0  0  0  0  0  0
  136.0590  138.2057  162.9932 H   0  0  0  0  0  0  0  0  0  0  0  0
  137.2351  139.8356  161.5226 H   0  0  0  0  0  0  0  0  0  0  0  0
  135.9645  141.1743  160.1396 H   0  0  0  0  0  0  0  0  0  0  0  0
  133.9519  140.1751  159.0602 H   0  0  0  0  0  0  0  0  0  0  0  0
  133.3954  140.5821  160.7057 H   0  0  0  0  0  0  0  0  0  0  0  0
  134.4392  137.8789  159.7410 H   0  0  0  0  0  0  0  0  0  0  0  0
  132.1366  137.6266  159.3950 H   0  0  0  0  0  0  0  0  0  0  0  0
  131.7196  138.8993  160.5777 H   0  0  0  0  0  0  0  0  0  0  0  0
  1  2  2  0
  2  3  1  0
  2 26  1  0
  3  4  1  0
  3 35  1  0
  3 36  1  0
  4  5  1  1
  4  6  1  0
  4 20  1  0
  6 37  1  0
  7  6  1  0
  7 18  2  0
  7  8  1  0
  8  9  1  0
  8 10  1  0
 10 11  2  0
 10 38  1  0
 11 12  1  0
 11 18  1  0
 12 17  1  0
 12 13  2  0
 13 14  1  0
 13 39  1  0
 14 15  2  0
 14 40  1  0
 15 16  1  0
 15 41  1  0
 16 17  2  0
 16 42  1  0
 17 43  1  0
 18 19  1  0
 20 25  1  0
 20 21  2  0
 21 22  1  0
 21 44  1  0
 22 23  2  0
 22 45  1  0
 23 24  1  0
 23 46  1  0
 24 25  2  0
 24 47  1  0
 25 48  1  0
 26 34  1  0
 26 27  1  0
 27 28  1  0
 27 49  1  0
 27 50  1  0
 28 33  1  0
 28 29  1  0
 28 51  1  1
 29 30  1  0
 29 52  1  0
 29 53  1  0
 30 31  2  0
 30 54  1  0
 31 32  1  0
 31 55  1  0
 32 33  1  0
 32 56  1  0
 32 57  1  0
 33 34  1  0
 33 58  1  6
 34 59  1  0
 34 60  1  0
M  CHG  1  18   1
M  END
>  <DOCK_score>  (1) 
-64.274277

>  <SMILES>  (1) 
O=C(C[C@H](Nc1[nH]cc(-c2ccccc2)[nH+]1)c1ccccc1)N1CC2CC=CCC2C1

$$$$
