Oc1ccc2c(c1)[C@H](Nc1[nH]cc(-c3ccc(-c4ccc(CCF)cc4)cc3)[nH+]1)c1ccccc1-2
     RDKit          3D

 60 65  0  0  1  0  0  0  0  0999 V2000
  124.3765  134.9541  161.6071 O   0  0  0  0  0  0  0  0  0  0  0  0
  125.3095  134.2315  160.9339 C   0  0  0  0  0  0  0  0  0  0  0  0
  125.0163  132.9424  160.5094 C   0  0  0  0  0  0  0  0  0  0  0  0
  125.9598  132.2060  159.8263 C   0  0  0  0  0  0  0  0  0  0  0  0
  127.2156  132.7556  159.5579 C   0  0  0  0  0  0  0  0  0  0  0  0
  127.5026  134.0490  159.9867 C   0  0  0  0  0  0  0  0  0  0  0  0
  126.5567  134.7820  160.6698 C   0  0  0  0  0  0  0  0  0  0  0  0
  128.9148  134.3667  159.5598 C   0  0  2  0  0  0  0  0  0  0  0  0
  129.5331  134.5745  160.4331 H   0  0  0  0  0  0  0  0  0  0  0  0
  128.9210  135.5171  158.6529 N   0  0  0  0  0  0  0  0  0  0  0  0
  129.6220  136.6619  158.9916 C   0  0  0  0  0  0  0  0  0  0  0  0
  129.7004  137.7944  158.2410 N   0  0  0  0  0  0  0  0  0  0  0  0
  129.2787  137.9435  157.3801 H   0  0  0  0  0  0  0  0  0  0  0  0
  130.4864  138.6876  158.9272 C   0  0  0  0  0  0  0  0  0  0  0  0
  130.8657  138.0755  160.0771 C   0  0  0  0  0  0  0  0  0  0  0  0
  131.7244  138.6603  161.1344 C   0  0  0  0  0  0  0  0  0  0  0  0
  132.0320  137.9166  162.2738 C   0  0  0  0  0  0  0  0  0  0  0  0
  132.8334  138.4584  163.2543 C   0  0  0  0  0  0  0  0  0  0  0  0
  133.3292  139.7549  163.1122 C   0  0  0  0  0  0  0  0  0  0  0  0
  134.1868  140.3398  164.1712 C   0  0  0  0  0  0  0  0  0  0  0  0
  135.1646  141.2767  163.8407 C   0  0  0  0  0  0  0  0  0  0  0  0
  135.9568  141.8217  164.8307 C   0  0  0  0  0  0  0  0  0  0  0  0
  135.7889  141.4322  166.1473 C   0  0  0  0  0  0  0  0  0  0  0  0
  136.6607  142.0273  167.2231 C   0  0  0  0  0  0  0  0  0  0  0  0
  137.6372  143.0236  166.5950 C   0  0  0  0  0  0  0  0  0  0  0  0
  138.4465  143.5760  167.5935 F   0  0  0  0  0  0  0  0  0  0  0  0
  134.8237  140.4991  166.4805 C   0  0  0  0  0  0  0  0  0  0  0  0
  134.0222  139.9512  165.4997 C   0  0  0  0  0  0  0  0  0  0  0  0
  133.0175  140.4998  161.9759 C   0  0  0  0  0  0  0  0  0  0  0  0
  132.2203  139.9565  160.9930 C   0  0  0  0  0  0  0  0  0  0  0  0
  130.3148  136.8354  160.0904 N   0  0  0  0  0  0  0  0  0  0  0  0
  130.4191  136.1812  160.7990 H   0  0  0  0  0  0  0  0  0  0  0  0
  129.4221  133.1385  158.8445 C   0  0  0  0  0  0  0  0  0  0  0  0
  130.6268  132.8472  158.2439 C   0  0  0  0  0  0  0  0  0  0  0  0
  130.8249  131.6135  157.6488 C   0  0  0  0  0  0  0  0  0  0  0  0
  129.8132  130.6705  157.6539 C   0  0  0  0  0  0  0  0  0  0  0  0
  128.6026  130.9530  158.2522 C   0  0  0  0  0  0  0  0  0  0  0  0
  128.3959  132.1951  158.8548 C   0  0  0  0  0  0  0  0  0  0  0  0
  124.6722  135.8392  161.8608 H   0  0  0  0  0  0  0  0  0  0  0  0
  124.0459  132.5154  160.7154 H   0  0  0  0  0  0  0  0  0  0  0  0
  125.7279  131.2036  159.4981 H   0  0  0  0  0  0  0  0  0  0  0  0
  126.7855  135.7844  161.0001 H   0  0  0  0  0  0  0  0  0  0  0  0
  128.4371  135.4754  157.8132 H   0  0  0  0  0  0  0  0  0  0  0  0
  130.7514  139.6860  158.6119 H   0  0  0  0  0  0  0  0  0  0  0  0
  131.6447  136.9146  162.3856 H   0  0  0  0  0  0  0  0  0  0  0  0
  133.0750  137.8812  164.1344 H   0  0  0  0  0  0  0  0  0  0  0  0
  135.2993  141.5783  162.8126 H   0  0  0  0  0  0  0  0  0  0  0  0
  136.7122  142.5505  164.5762 H   0  0  0  0  0  0  0  0  0  0  0  0
  136.0365  142.5417  167.9535 H   0  0  0  0  0  0  0  0  0  0  0  0
  137.2199  141.2333  167.7180 H   0  0  0  0  0  0  0  0  0  0  0  0
  138.2617  142.5091  165.8645 H   0  0  0  0  0  0  0  0  0  0  0  0
  137.0781  143.8176  166.0999 H   0  0  0  0  0  0  0  0  0  0  0  0
  134.6973  140.1985  167.5101 H   0  0  0  0  0  0  0  0  0  0  0  0
  133.2687  139.2230  165.7609 H   0  0  0  0  0  0  0  0  0  0  0  0
  133.4014  141.5034  161.8664 H   0  0  0  0  0  0  0  0  0  0  0  0
  131.9790  140.5338  160.1127 H   0  0  0  0  0  0  0  0  0  0  0  0
  131.4182  133.5821  158.2388 H   0  0  0  0  0  0  0  0  0  0  0  0
  131.7708  131.3870  157.1794 H   0  0  0  0  0  0  0  0  0  0  0  0
  129.9717  129.7091  157.1882 H   0  0  0  0  0  0  0  0  0  0  0  0
  127.8152  130.2138  158.2540 H   0  0  0  0  0  0  0  0  0  0  0  0
  1  2  1  0
  1 39  1  0
  2  7  2  0
  2  3  1  0
  3  4  2  0
  3 40  1  0
  4  5  1  0
  4 41  1  0
  5 38  1  0
  5  6  2  0
  6  7  1  0
  6  8  1  0
  7 42  1  0
  8  9  1  1
  8 10  1  0
  8 33  1  0
 10 43  1  0
 11 10  1  0
 11 31  2  0
 11 12  1  0
 12 13  1  0
 12 14  1  0
 14 15  2  0
 14 44  1  0
 15 16  1  0
 15 31  1  0
 16 30  1  0
 16 17  2  0
 17 18  1  0
 17 45  1  0
 18 19  2  0
 18 46  1  0
 19 20  1  0
 19 29  1  0
 20 28  1  0
 20 21  2  0
 21 22  1  0
 21 47  1  0
 22 23  2  0
 22 48  1  0
 23 24  1  0
 23 27  1  0
 24 25  1  0
 24 49  1  0
 24 50  1  0
 25 26  1  0
 25 51  1  0
 25 52  1  0
 27 28  2  0
 27 53  1  0
 28 54  1  0
 29 30  2  0
 29 55  1  0
 30 56  1  0
 31 32  1  0
 33 38  2  0
 33 34  1  0
 34 35  2  0
 34 57  1  0
 35 36  1  0
 35 58  1  0
 36 37  2  0
 36 59  1  0
 37 38  1  0
 37 60  1  0
M  CHG  1  31   1
M  END
>  <DOCK_score>  (1) 
-43.873028

>  <SMILES>  (1) 
Oc1ccc2c(c1)[C@H](Nc1[nH]cc(-c3ccc(-c4ccc(CCF)cc4)cc3)[nH+]1)c1ccccc1-2

$$$$
