Nc1ccc(-c2c[nH]c(Nc3ccc(-c4n[nH]cc4C[NH2+]CCF)o3)n2)cc1
     RDKit          3D

 49 52  0  0  0  0  0  0  0  0999 V2000
  127.2621  143.7354  166.9082 N   0  0  0  0  0  0  0  0  0  0  0  0
  127.3483  142.6021  166.0963 C   0  0  0  0  0  0  0  0  0  0  0  0
  126.4450  142.4238  165.0552 C   0  0  0  0  0  0  0  0  0  0  0  0
  126.5283  141.3057  164.2526 C   0  0  0  0  0  0  0  0  0  0  0  0
  127.5200  140.3540  164.4855 C   0  0  0  0  0  0  0  0  0  0  0  0
  127.6116  139.1504  163.6231 C   0  0  0  0  0  0  0  0  0  0  0  0
  128.7455  138.4708  163.3194 C   0  0  0  0  0  0  0  0  0  0  0  0
  128.3793  137.4305  162.4994 N   0  0  0  0  0  0  0  0  0  0  0  0
  128.9719  136.7661  162.1147 H   0  0  0  0  0  0  0  0  0  0  0  0
  127.0313  137.5055  162.3264 C   0  0  0  0  0  0  0  0  0  0  0  0
  126.2660  136.6381  161.5645 N   0  0  0  0  0  0  0  0  0  0  0  0
  126.8716  135.5764  160.9007 C   0  0  0  0  0  0  0  0  0  0  0  0
  126.2935  134.3805  160.6256 C   0  0  0  0  0  0  0  0  0  0  0  0
  127.2542  133.6062  159.9462 C   0  0  0  0  0  0  0  0  0  0  0  0
  128.3732  134.3707  159.8405 C   0  0  0  0  0  0  0  0  0  0  0  0
  129.6405  133.9658  159.1979 C   0  0  0  0  0  0  0  0  0  0  0  0
  129.7668  133.1180  158.1959 N   0  0  0  0  0  0  0  0  0  0  0  0
  131.1284  133.0111  157.8859 N   0  0  0  0  0  0  0  0  0  0  0  0
  131.5113  132.4562  157.1885 H   0  0  0  0  0  0  0  0  0  0  0  0
  131.8165  133.8150  158.7255 C   0  0  0  0  0  0  0  0  0  0  0  0
  130.9310  134.4139  159.5504 C   0  0  0  0  0  0  0  0  0  0  0  0
  131.2621  135.3898  160.6500 C   0  0  0  0  0  0  0  0  0  0  0  0
  131.2496  136.7566  160.1119 N   0  0  0  0  0  0  0  0  0  0  0  0
  131.9350  136.8345  159.3756 H   0  0  0  0  0  0  0  0  0  0  0  0
  130.3340  136.9643  159.7424 H   0  0  0  0  0  0  0  0  0  0  0  0
  131.5724  137.7079  161.1838 C   0  0  0  0  0  0  0  0  0  0  0  0
  131.5594  139.1314  160.6233 C   0  0  0  0  0  0  0  0  0  0  0  0
  132.5098  139.2392  159.6023 F   0  0  0  0  0  0  0  0  0  0  0  0
  128.1300  135.5607  160.4283 O   0  0  0  0  0  0  0  0  0  0  0  0
  126.5775  138.5377  162.9956 N   0  0  0  0  0  0  0  0  0  0  0  0
  128.4217  140.5323  165.5335 C   0  0  0  0  0  0  0  0  0  0  0  0
  128.3378  141.6545  166.3304 C   0  0  0  0  0  0  0  0  0  0  0  0
  126.5719  144.3974  166.7453 H   0  0  0  0  0  0  0  0  0  0  0  0
  127.8922  143.8607  167.6350 H   0  0  0  0  0  0  0  0  0  0  0  0
  125.6769  143.1613  164.8751 H   0  0  0  0  0  0  0  0  0  0  0  0
  125.8261  141.1676  163.4436 H   0  0  0  0  0  0  0  0  0  0  0  0
  129.7447  138.7029  163.6571 H   0  0  0  0  0  0  0  0  0  0  0  0
  125.3076  136.7710  161.4939 H   0  0  0  0  0  0  0  0  0  0  0  0
  125.2880  134.0792  160.8797 H   0  0  0  0  0  0  0  0  0  0  0  0
  127.1262  132.5985  159.5796 H   0  0  0  0  0  0  0  0  0  0  0  0
  132.8877  133.9513  158.7379 H   0  0  0  0  0  0  0  0  0  0  0  0
  130.5216  135.3057  161.4455 H   0  0  0  0  0  0  0  0  0  0  0  0
  132.2512  135.1655  161.0492 H   0  0  0  0  0  0  0  0  0  0  0  0
  130.8320  137.6238  161.9793 H   0  0  0  0  0  0  0  0  0  0  0  0
  132.5615  137.4836  161.5829 H   0  0  0  0  0  0  0  0  0  0  0  0
  130.5703  139.3558  160.2241 H   0  0  0  0  0  0  0  0  0  0  0  0
  131.7990  139.8372  161.4186 H   0  0  0  0  0  0  0  0  0  0  0  0
  129.1878  139.7939  165.7188 H   0  0  0  0  0  0  0  0  0  0  0  0
  129.0389  141.7951  167.1399 H   0  0  0  0  0  0  0  0  0  0  0  0
  1  2  1  0
  1 33  1  0
  1 34  1  0
  2 32  2  0
  2  3  1  0
  3  4  2  0
  3 35  1  0
  4  5  1  0
  4 36  1  0
  5  6  1  0
  5 31  2  0
  6 30  1  0
  6  7  2  0
  7  8  1  0
  7 37  1  0
  8  9  1  0
  8 10  1  0
 10 11  1  0
 10 30  2  0
 11 12  1  0
 11 38  1  0
 12 29  1  0
 12 13  2  0
 13 14  1  0
 13 39  1  0
 14 15  2  0
 14 40  1  0
 15 16  1  0
 15 29  1  0
 16 21  1  0
 16 17  2  0
 17 18  1  0
 18 19  1  0
 18 20  1  0
 20 21  2  0
 20 41  1  0
 21 22  1  0
 22 23  1  0
 22 42  1  0
 22 43  1  0
 23 24  1  0
 23 25  1  0
 23 26  1  0
 26 27  1  0
 26 44  1  0
 26 45  1  0
 27 28  1  0
 27 46  1  0
 27 47  1  0
 31 32  1  0
 31 48  1  0
 32 49  1  0
M  CHG  1  23   1
M  END
>  <DOCK_score>  (1) 
-43.366035

>  <SMILES>  (1) 
Nc1ccc(-c2c[nH]c(Nc3ccc(-c4n[nH]cc4C[NH2+]CCF)o3)n2)cc1

$$$$
