C1=C(CNc2cccc(C3=CC[N@H+](Cc4ccc(-c5ccccc5)[nH]4)CC3)c2)CCCC1
     RDKit          3D

 66 70  0  0  1  0  0  0  0  0999 V2000
  136.8785  138.6072  166.5343 C   0  0  0  0  0  0  0  0  0  0  0  0
  137.0567  137.6537  165.6771 C   0  0  0  0  0  0  0  0  0  0  0  0
  136.1809  137.6329  164.4510 C   0  0  0  0  0  0  0  0  0  0  0  0
  136.8202  138.4032  163.3813 N   0  0  0  0  0  0  0  0  0  0  0  0
  136.1927  138.5279  162.1395 C   0  0  0  0  0  0  0  0  0  0  0  0
  136.7993  139.2592  161.1244 C   0  0  0  0  0  0  0  0  0  0  0  0
  136.1823  139.3859  159.8945 C   0  0  0  0  0  0  0  0  0  0  0  0
  134.9621  138.7827  159.6637 C   0  0  0  0  0  0  0  0  0  0  0  0
  134.3426  138.0508  160.6778 C   0  0  0  0  0  0  0  0  0  0  0  0
  133.0338  137.4084  160.4348 C   0  0  0  0  0  0  0  0  0  0  0  0
  132.0081  138.1634  160.1052 C   0  0  0  0  0  0  0  0  0  0  0  0
  130.6369  137.6100  159.8444 C   0  0  0  0  0  0  0  0  0  0  0  0
  130.7084  136.1678  159.5828 N   0  0  2  0  0  0  0  0  0  0  0  0
  131.1860  136.0064  158.7089 H   0  0  0  0  0  0  0  0  0  0  0  0
  129.3499  135.6133  159.5102 C   0  0  0  0  0  0  0  0  0  0  0  0
  129.3834  134.2964  158.7781 C   0  0  0  0  0  0  0  0  0  0  0  0
  128.7452  133.1675  159.1552 C   0  0  0  0  0  0  0  0  0  0  0  0
  129.0353  132.1755  158.2044 C   0  0  0  0  0  0  0  0  0  0  0  0
  129.8500  132.7368  157.2677 C   0  0  0  0  0  0  0  0  0  0  0  0
  130.4060  132.0572  156.0781 C   0  0  0  0  0  0  0  0  0  0  0  0
  130.6678  132.7826  154.9149 C   0  0  0  0  0  0  0  0  0  0  0  0
  131.1916  132.1434  153.8102 C   0  0  0  0  0  0  0  0  0  0  0  0
  131.4475  130.7843  153.8502 C   0  0  0  0  0  0  0  0  0  0  0  0
  131.1849  130.0583  154.9983 C   0  0  0  0  0  0  0  0  0  0  0  0
  130.6660  130.6864  156.1116 C   0  0  0  0  0  0  0  0  0  0  0  0
  130.0580  134.0455  157.6206 N   0  0  0  0  0  0  0  0  0  0  0  0
  130.5975  134.6852  157.1298 H   0  0  0  0  0  0  0  0  0  0  0  0
  131.4480  135.5169  160.6758 C   0  0  0  0  0  0  0  0  0  0  0  0
  132.9221  135.9151  160.5737 C   0  0  0  0  0  0  0  0  0  0  0  0
  134.9650  137.9229  161.9190 C   0  0  0  0  0  0  0  0  0  0  0  0
  138.0853  136.5711  165.8258 C   0  0  0  0  0  0  0  0  0  0  0  0
  139.1324  136.9779  166.8648 C   0  0  0  0  0  0  0  0  0  0  0  0
  138.4033  137.4580  168.1261 C   0  0  0  0  0  0  0  0  0  0  0  0
  137.6747  138.7627  167.7968 C   0  0  0  0  0  0  0  0  0  0  0  0
  136.1061  139.3339  166.3299 H   0  0  0  0  0  0  0  0  0  0  0  0
  135.2131  138.0745  164.6882 H   0  0  0  0  0  0  0  0  0  0  0  0
  136.0399  136.6032  164.1228 H   0  0  0  0  0  0  0  0  0  0  0  0
  137.6792  138.8265  163.5352 H   0  0  0  0  0  0  0  0  0  0  0  0
  137.7559  139.7297  161.2978 H   0  0  0  0  0  0  0  0  0  0  0  0
  136.6581  139.9551  159.1097 H   0  0  0  0  0  0  0  0  0  0  0  0
  134.4851  138.8805  158.6999 H   0  0  0  0  0  0  0  0  0  0  0  0
  132.1591  139.2293  160.0186 H   0  0  0  0  0  0  0  0  0  0  0  0
  130.2039  138.1122  158.9794 H   0  0  0  0  0  0  0  0  0  0  0  0
  130.0050  137.7876  160.7147 H   0  0  0  0  0  0  0  0  0  0  0  0
  128.7016  136.3089  158.9774 H   0  0  0  0  0  0  0  0  0  0  0  0
  128.9662  135.4588  160.5187 H   0  0  0  0  0  0  0  0  0  0  0  0
  128.1239  133.0488  160.0307 H   0  0  0  0  0  0  0  0  0  0  0  0
  128.6789  131.1560  158.2141 H   0  0  0  0  0  0  0  0  0  0  0  0
  130.4643  133.8427  154.8810 H   0  0  0  0  0  0  0  0  0  0  0  0
  131.3986  132.7045  152.9108 H   0  0  0  0  0  0  0  0  0  0  0  0
  131.8537  130.2879  152.9812 H   0  0  0  0  0  0  0  0  0  0  0  0
  131.3867  128.9976  155.0231 H   0  0  0  0  0  0  0  0  0  0  0  0
  130.4611  130.1185  157.0071 H   0  0  0  0  0  0  0  0  0  0  0  0
  131.0478  135.8454  161.6350 H   0  0  0  0  0  0  0  0  0  0  0  0
  131.3532  134.4346  160.5882 H   0  0  0  0  0  0  0  0  0  0  0  0
  133.3668  135.4350  159.7019 H   0  0  0  0  0  0  0  0  0  0  0  0
  133.4484  135.5938  161.4727 H   0  0  0  0  0  0  0  0  0  0  0  0
  134.4923  137.3541  162.7061 H   0  0  0  0  0  0  0  0  0  0  0  0
  137.5973  135.6505  166.1459 H   0  0  0  0  0  0  0  0  0  0  0  0
  138.5762  136.4052  164.8668 H   0  0  0  0  0  0  0  0  0  0  0  0
  139.7596  136.1203  167.1081 H   0  0  0  0  0  0  0  0  0  0  0  0
  139.7482  137.7849  166.4678 H   0  0  0  0  0  0  0  0  0  0  0  0
  137.6815  136.7047  168.4412 H   0  0  0  0  0  0  0  0  0  0  0  0
  139.1259  137.6295  168.9239 H   0  0  0  0  0  0  0  0  0  0  0  0
  137.0066  139.0208  168.6185 H   0  0  0  0  0  0  0  0  0  0  0  0
  138.4050  139.5608  167.6633 H   0  0  0  0  0  0  0  0  0  0  0  0
  1 34  1  0
  1  2  2  0
  1 35  1  0
  2  3  1  0
  2 31  1  0
  3  4  1  0
  3 36  1  0
  3 37  1  0
  4  5  1  0
  4 38  1  0
  5 30  1  0
  5  6  2  0
  6  7  1  0
  6 39  1  0
  7  8  2  0
  7 40  1  0
  8  9  1  0
  8 41  1  0
  9 10  1  0
  9 30  2  0
 10 29  1  0
 10 11  2  0
 11 12  1  0
 11 42  1  0
 12 13  1  0
 12 43  1  0
 12 44  1  0
 13 14  1  6
 13 15  1  0
 13 28  1  0
 15 16  1  0
 15 45  1  0
 15 46  1  0
 16 26  1  0
 16 17  2  0
 17 18  1  0
 17 47  1  0
 18 19  2  0
 18 48  1  0
 19 20  1  0
 19 26  1  0
 20 25  1  0
 20 21  2  0
 21 22  1  0
 21 49  1  0
 22 23  2  0
 22 50  1  0
 23 24  1  0
 23 51  1  0
 24 25  2  0
 24 52  1  0
 25 53  1  0
 26 27  1  0
 28 29  1  0
 28 54  1  0
 28 55  1  0
 29 56  1  0
 29 57  1  0
 30 58  1  0
 31 32  1  0
 31 59  1  0
 31 60  1  0
 32 33  1  0
 32 61  1  0
 32 62  1  0
 33 34  1  0
 33 63  1  0
 33 64  1  0
 34 65  1  0
 34 66  1  0
M  CHG  1  13   1
M  END
>  <DOCK_score>  (1) 
-61.804794

>  <SMILES>  (1) 
C1=C(CNc2cccc(C3=CC[N@H+](Cc4ccc(-c5ccccc5)[nH]4)CC3)c2)CCCC1

$$$$
