Cc1cccc(N2CC[NH+](C(c3ccccc3)c3ccccc3)CC2)c1N(C)Cc1ccccc1
     RDKit          3D

 71 75  0  0  0  0  0  0  0  0999 V2000
  135.8623  141.5383  162.2981 C   0  0  0  0  0  0  0  0  0  0  0  0
  135.2611  140.7125  161.1901 C   0  0  0  0  0  0  0  0  0  0  0  0
  135.6651  140.9107  159.8823 C   0  0  0  0  0  0  0  0  0  0  0  0
  135.1170  140.1549  158.8632 C   0  0  0  0  0  0  0  0  0  0  0  0
  134.1609  139.1961  159.1452 C   0  0  0  0  0  0  0  0  0  0  0  0
  133.7497  138.9909  160.4530 C   0  0  0  0  0  0  0  0  0  0  0  0
  132.7819  138.0209  160.7409 N   0  0  0  0  0  0  0  0  0  0  0  0
  133.2688  136.6754  160.4052 C   0  0  0  0  0  0  0  0  0  0  0  0
  132.2077  135.6418  160.7891 C   0  0  0  0  0  0  0  0  0  0  0  0
  130.9624  135.9257  160.0637 N   0  0  0  0  0  0  0  0  0  0  0  0
  131.1364  135.8903  159.0704 H   0  0  0  0  0  0  0  0  0  0  0  0
  129.9496  134.9225  160.4188 C   0  0  0  0  0  0  0  0  0  0  0  0
  128.6718  135.2136  159.6745 C   0  0  0  0  0  0  0  0  0  0  0  0
  127.4543  134.8666  160.2297 C   0  0  0  0  0  0  0  0  0  0  0  0
  126.2821  135.1379  159.5492 C   0  0  0  0  0  0  0  0  0  0  0  0
  126.3274  135.7469  158.3096 C   0  0  0  0  0  0  0  0  0  0  0  0
  127.5456  136.0891  157.7516 C   0  0  0  0  0  0  0  0  0  0  0  0
  128.7177  135.8225  158.4344 C   0  0  0  0  0  0  0  0  0  0  0  0
  130.4482  133.5507  160.0435 C   0  0  0  0  0  0  0  0  0  0  0  0
  130.0495  132.4468  160.7738 C   0  0  0  0  0  0  0  0  0  0  0  0
  130.5029  131.1880  160.4266 C   0  0  0  0  0  0  0  0  0  0  0  0
  131.3634  131.0344  159.3556 C   0  0  0  0  0  0  0  0  0  0  0  0
  131.7662  132.1389  158.6287 C   0  0  0  0  0  0  0  0  0  0  0  0
  131.3085  133.3972  158.9726 C   0  0  0  0  0  0  0  0  0  0  0  0
  130.4755  137.2628  160.4278 C   0  0  0  0  0  0  0  0  0  0  0  0
  131.5222  138.3098  160.0410 C   0  0  0  0  0  0  0  0  0  0  0  0
  134.3072  139.7500  161.4824 C   0  0  0  0  0  0  0  0  0  0  0  0
  133.9008  139.5436  162.8063 N   0  0  0  0  0  0  0  0  0  0  0  0
  134.1764  138.1651  163.2327 C   0  0  0  0  0  0  0  0  0  0  0  0
  132.4797  139.8735  162.9784 C   0  0  0  0  0  0  0  0  0  0  0  0
  132.2430  140.3561  164.3862 C   0  0  0  0  0  0  0  0  0  0  0  0
  131.0169  140.1497  164.9906 C   0  0  0  0  0  0  0  0  0  0  0  0
  130.8013  140.5881  166.2838 C   0  0  0  0  0  0  0  0  0  0  0  0
  131.8079  141.2412  166.9690 C   0  0  0  0  0  0  0  0  0  0  0  0
  133.0325  141.4527  166.3628 C   0  0  0  0  0  0  0  0  0  0  0  0
  133.2498  141.0099  165.0715 C   0  0  0  0  0  0  0  0  0  0  0  0
  135.3130  142.4749  162.3922 H   0  0  0  0  0  0  0  0  0  0  0  0
  136.9061  141.7509  162.0673 H   0  0  0  0  0  0  0  0  0  0  0  0
  135.8027  140.9863  163.2360 H   0  0  0  0  0  0  0  0  0  0  0  0
  136.4115  141.6581  159.6568 H   0  0  0  0  0  0  0  0  0  0  0  0
  135.4360  140.3136  157.8437 H   0  0  0  0  0  0  0  0  0  0  0  0
  133.7349  138.6069  158.3465 H   0  0  0  0  0  0  0  0  0  0  0  0
  133.4639  136.6158  159.3345 H   0  0  0  0  0  0  0  0  0  0  0  0
  134.1883  136.4739  160.9547 H   0  0  0  0  0  0  0  0  0  0  0  0
  132.0227  135.6923  161.8621 H   0  0  0  0  0  0  0  0  0  0  0  0
  132.5609  134.6442  160.5279 H   0  0  0  0  0  0  0  0  0  0  0  0
  129.7617  134.9599  161.4918 H   0  0  0  0  0  0  0  0  0  0  0  0
  127.4188  134.3867  161.1966 H   0  0  0  0  0  0  0  0  0  0  0  0
  125.3307  134.8702  159.9845 H   0  0  0  0  0  0  0  0  0  0  0  0
  125.4122  135.9548  157.7754 H   0  0  0  0  0  0  0  0  0  0  0  0
  127.5815  136.5645  156.7825 H   0  0  0  0  0  0  0  0  0  0  0  0
  129.6692  136.0897  157.9988 H   0  0  0  0  0  0  0  0  0  0  0  0
  129.3808  132.5674  161.6132 H   0  0  0  0  0  0  0  0  0  0  0  0
  130.1886  130.3251  160.9948 H   0  0  0  0  0  0  0  0  0  0  0  0
  131.7211  130.0512  159.0871 H   0  0  0  0  0  0  0  0  0  0  0  0
  132.4387  132.0190  157.7921 H   0  0  0  0  0  0  0  0  0  0  0  0
  131.6236  134.2601  158.4049 H   0  0  0  0  0  0  0  0  0  0  0  0
  130.2993  137.3050  161.5027 H   0  0  0  0  0  0  0  0  0  0  0  0
  129.5446  137.4669  159.8988 H   0  0  0  0  0  0  0  0  0  0  0  0
  131.1675  139.3007  160.3247 H   0  0  0  0  0  0  0  0  0  0  0  0
  131.6885  138.2772  158.9642 H   0  0  0  0  0  0  0  0  0  0  0  0
  135.2465  137.9696  163.1609 H   0  0  0  0  0  0  0  0  0  0  0  0
  133.8512  138.0320  164.2645 H   0  0  0  0  0  0  0  0  0  0  0  0
  133.6365  137.4707  162.5891 H   0  0  0  0  0  0  0  0  0  0  0  0
  132.2009  140.6573  162.2740 H   0  0  0  0  0  0  0  0  0  0  0  0
  131.8754  138.9857  162.7920 H   0  0  0  0  0  0  0  0  0  0  0  0
  130.2288  139.6429  164.4536 H   0  0  0  0  0  0  0  0  0  0  0  0
  129.8445  140.4235  166.7571 H   0  0  0  0  0  0  0  0  0  0  0  0
  131.6381  141.5883  167.9777 H   0  0  0  0  0  0  0  0  0  0  0  0
  133.8190  141.9639  166.8979 H   0  0  0  0  0  0  0  0  0  0  0  0
  134.2063  141.1750  164.5978 H   0  0  0  0  0  0  0  0  0  0  0  0
  1  2  1  0
  1 37  1  0
  1 38  1  0
  1 39  1  0
  2 27  2  0
  2  3  1  0
  3  4  2  0
  3 40  1  0
  4  5  1  0
  4 41  1  0
  5  6  2  0
  5 42  1  0
  6  7  1  0
  6 27  1  0
  7 26  1  0
  7  8  1  0
  8  9  1  0
  8 43  1  0
  8 44  1  0
  9 10  1  0
  9 45  1  0
  9 46  1  0
 10 11  1  0
 10 12  1  0
 10 25  1  0
 12 13  1  0
 12 19  1  0
 12 47  1  0
 13 18  1  0
 13 14  2  0
 14 15  1  0
 14 48  1  0
 15 16  2  0
 15 49  1  0
 16 17  1  0
 16 50  1  0
 17 18  2  0
 17 51  1  0
 18 52  1  0
 19 24  1  0
 19 20  2  0
 20 21  1  0
 20 53  1  0
 21 22  2  0
 21 54  1  0
 22 23  1  0
 22 55  1  0
 23 24  2  0
 23 56  1  0
 24 57  1  0
 25 26  1  0
 25 58  1  0
 25 59  1  0
 26 60  1  0
 26 61  1  0
 27 28  1  0
 28 29  1  0
 28 30  1  0
 29 62  1  0
 29 63  1  0
 29 64  1  0
 30 31  1  0
 30 65  1  0
 30 66  1  0
 31 36  1  0
 31 32  2  0
 32 33  1  0
 32 67  1  0
 33 34  2  0
 33 68  1  0
 34 35  1  0
 34 69  1  0
 35 36  2  0
 35 70  1  0
 36 71  1  0
M  CHG  1  10   1
M  END
>  <DOCK_score>  (1) 
-56.445633

>  <SMILES>  (1) 
Cc1cccc(N2CC[NH+](C(c3ccccc3)c3ccccc3)CC2)c1N(C)Cc1ccccc1

$$$$
