FC(F)(F)c1ccc(-c2c[nH]c(Nc3ccc(Nc4ccccc4)cc3)[nH+]2)cc1
     RDKit          3D

 47 50  0  0  1  0  0  0  0  0999 V2000
  130.8395  130.8304  150.0089 F   0  0  0  0  0  0  0  0  0  0  0  0
  130.9610  129.9190  151.0634 C   0  0  0  0  0  0  0  0  0  0  0  0
  132.2613  129.4030  151.0864 F   0  0  0  0  0  0  0  0  0  0  0  0
  130.0479  128.8745  150.8843 F   0  0  0  0  0  0  0  0  0  0  0  0
  130.6751  130.6184  152.3672 C   0  0  0  0  0  0  0  0  0  0  0  0
  130.7295  129.9113  153.5548 C   0  0  0  0  0  0  0  0  0  0  0  0
  130.4733  130.5478  154.7522 C   0  0  0  0  0  0  0  0  0  0  0  0
  130.1482  131.9031  154.7624 C   0  0  0  0  0  0  0  0  0  0  0  0
  129.8662  132.5915  156.0457 C   0  0  0  0  0  0  0  0  0  0  0  0
  129.3291  132.0242  157.1544 C   0  0  0  0  0  0  0  0  0  0  0  0
  129.2441  133.0108  158.1059 N   0  0  0  0  0  0  0  0  0  0  0  0
  128.9017  132.9112  159.0079 H   0  0  0  0  0  0  0  0  0  0  0  0
  129.7236  134.1559  157.5473 C   0  0  0  0  0  0  0  0  0  0  0  0
  129.8056  135.3874  158.1759 N   0  0  0  0  0  0  0  0  0  0  0  0
  128.8795  135.7295  159.1689 C   0  0  0  0  0  0  0  0  0  0  0  0
  129.2516  136.5795  160.2023 C   0  0  0  0  0  0  0  0  0  0  0  0
  128.3371  136.9214  161.1784 C   0  0  0  0  0  0  0  0  0  0  0  0
  127.0479  136.4063  161.1330 C   0  0  0  0  0  0  0  0  0  0  0  0
  126.1221  136.7485  162.1254 N   0  0  0  0  0  0  0  0  0  0  0  0
  126.5609  137.0414  163.4189 C   0  0  0  0  0  0  0  0  0  0  0  0
  126.3101  138.2904  163.9732 C   0  0  0  0  0  0  0  0  0  0  0  0
  126.7420  138.5751  165.2536 C   0  0  0  0  0  0  0  0  0  0  0  0
  127.4313  137.6218  165.9807 C   0  0  0  0  0  0  0  0  0  0  0  0
  127.6869  136.3791  165.4302 C   0  0  0  0  0  0  0  0  0  0  0  0
  127.2542  136.0862  164.1520 C   0  0  0  0  0  0  0  0  0  0  0  0
  126.6774  135.5517  160.1026 C   0  0  0  0  0  0  0  0  0  0  0  0
  127.5905  135.2144  159.1236 C   0  0  0  0  0  0  0  0  0  0  0  0
  130.0943  133.9009  156.3161 N   0  0  0  0  0  0  0  0  0  0  0  0
  130.4711  134.5457  155.6971 H   0  0  0  0  0  0  0  0  0  0  0  0
  130.0896  132.6093  153.5622 C   0  0  0  0  0  0  0  0  0  0  0  0
  130.3534  131.9639  152.3713 C   0  0  0  0  0  0  0  0  0  0  0  0
  130.9770  128.8601  153.5455 H   0  0  0  0  0  0  0  0  0  0  0  0
  130.5201  129.9957  155.6794 H   0  0  0  0  0  0  0  0  0  0  0  0
  129.0280  130.9932  157.2681 H   0  0  0  0  0  0  0  0  0  0  0  0
  130.5045  136.0127  157.9282 H   0  0  0  0  0  0  0  0  0  0  0  0
  130.2553  136.9766  160.2400 H   0  0  0  0  0  0  0  0  0  0  0  0
  128.6252  137.5856  161.9798 H   0  0  0  0  0  0  0  0  0  0  0  0
  125.1758  136.7825  161.9150 H   0  0  0  0  0  0  0  0  0  0  0  0
  125.7751  139.0366  163.4045 H   0  0  0  0  0  0  0  0  0  0  0  0
  126.5447  139.5448  165.6863 H   0  0  0  0  0  0  0  0  0  0  0  0
  127.7712  137.8484  166.9804 H   0  0  0  0  0  0  0  0  0  0  0  0
  128.2258  135.6370  166.0005 H   0  0  0  0  0  0  0  0  0  0  0  0
  127.4546  135.1157  163.7224 H   0  0  0  0  0  0  0  0  0  0  0  0
  125.6752  135.1508  160.0676 H   0  0  0  0  0  0  0  0  0  0  0  0
  127.3025  134.5496  158.3226 H   0  0  0  0  0  0  0  0  0  0  0  0
  129.8386  133.6598  153.5643 H   0  0  0  0  0  0  0  0  0  0  0  0
  130.3083  132.5100  151.4406 H   0  0  0  0  0  0  0  0  0  0  0  0
  1  2  1  0
  2  3  1  0
  2  4  1  0
  2  5  1  0
  5 31  2  0
  5  6  1  0
  6  7  2  0
  6 32  1  0
  7  8  1  0
  7 33  1  0
  8  9  1  0
  8 30  2  0
  9 28  1  0
  9 10  2  0
 10 11  1  0
 10 34  1  0
 11 12  1  0
 11 13  1  0
 13 14  1  0
 13 28  2  0
 14 15  1  0
 14 35  1  0
 15 27  1  0
 15 16  2  0
 16 17  1  0
 16 36  1  0
 17 18  2  0
 17 37  1  0
 18 19  1  0
 18 26  1  0
 19 20  1  0
 19 38  1  0
 20 25  1  0
 20 21  2  0
 21 22  1  0
 21 39  1  0
 22 23  2  0
 22 40  1  0
 23 24  1  0
 23 41  1  0
 24 25  2  0
 24 42  1  0
 25 43  1  0
 26 27  2  0
 26 44  1  0
 27 45  1  0
 28 29  1  0
 30 31  1  0
 30 46  1  0
 31 47  1  0
M  CHG  1  28   1
M  END
>  <DOCK_score>  (1) 
-53.27161

>  <SMILES>  (1) 
FC(F)(F)c1ccc(-c2c[nH]c(Nc3ccc(Nc4ccccc4)cc3)[nH+]2)cc1

$$$$
