[NH3+][C@@H](C(=O)Nc1cccc(O)c1)c1cccc(Nc2cccc(F)c2)c1
     RDKit          3D

 45 47  0  0  1  0  0  0  0  0999 V2000
  130.6653  134.1685  157.5243 N   0  0  0  0  0  0  0  0  0  0  0  0
  130.0511  134.3347  156.7412 H   0  0  0  0  0  0  0  0  0  0  0  0
  131.5619  134.5951  157.3449 H   0  0  0  0  0  0  0  0  0  0  0  0
  130.7852  133.1749  157.6527 H   0  0  0  0  0  0  0  0  0  0  0  0
  130.0794  134.7521  158.7384 C   0  0  1  0  0  0  0  0  0  0  0  0
  129.9498  135.8254  158.5996 H   0  0  0  0  0  0  0  0  0  0  0  0
  128.7403  134.1149  159.0063 C   0  0  0  0  0  0  0  0  0  0  0  0
  128.3157  133.2589  158.2593 O   0  0  0  0  0  0  0  0  0  0  0  0
  128.0144  134.4963  160.0759 N   0  0  0  0  0  0  0  0  0  0  0  0
  126.7710  133.9048  160.3245 C   0  0  0  0  0  0  0  0  0  0  0  0
  126.5323  132.5948  159.9281 C   0  0  0  0  0  0  0  0  0  0  0  0
  125.3068  132.0089  160.1787 C   0  0  0  0  0  0  0  0  0  0  0  0
  124.3114  132.7274  160.8138 C   0  0  0  0  0  0  0  0  0  0  0  0
  124.5423  134.0380  161.2068 C   0  0  0  0  0  0  0  0  0  0  0  0
  123.5624  134.7434  161.8307 O   0  0  0  0  0  0  0  0  0  0  0  0
  125.7728  134.6275  160.9621 C   0  0  0  0  0  0  0  0  0  0  0  0
  130.9966  134.5040  159.9081 C   0  0  0  0  0  0  0  0  0  0  0  0
  130.8522  133.3574  160.6682 C   0  0  0  0  0  0  0  0  0  0  0  0
  131.6880  133.1286  161.7455 C   0  0  0  0  0  0  0  0  0  0  0  0
  132.6734  134.0426  162.0636 C   0  0  0  0  0  0  0  0  0  0  0  0
  132.8248  135.1926  161.2991 C   0  0  0  0  0  0  0  0  0  0  0  0
  133.8204  136.1194  161.6182 N   0  0  0  0  0  0  0  0  0  0  0  0
  133.4737  137.4340  161.9398 C   0  0  0  0  0  0  0  0  0  0  0  0
  134.4625  138.3554  162.2629 C   0  0  0  0  0  0  0  0  0  0  0  0
  134.1183  139.6560  162.5744 C   0  0  0  0  0  0  0  0  0  0  0  0
  132.7900  140.0401  162.5769 C   0  0  0  0  0  0  0  0  0  0  0  0
  131.8007  139.1235  162.2615 C   0  0  0  0  0  0  0  0  0  0  0  0
  130.5037  139.5019  162.2649 F   0  0  0  0  0  0  0  0  0  0  0  0
  132.1400  137.8209  161.9427 C   0  0  0  0  0  0  0  0  0  0  0  0
  131.9835  135.4191  160.2167 C   0  0  0  0  0  0  0  0  0  0  0  0
  128.3539  135.1809  160.6734 H   0  0  0  0  0  0  0  0  0  0  0  0
  127.3070  132.0327  159.4278 H   0  0  0  0  0  0  0  0  0  0  0  0
  125.1244  130.9891  159.8736 H   0  0  0  0  0  0  0  0  0  0  0  0
  123.3528  132.2679  161.0047 H   0  0  0  0  0  0  0  0  0  0  0  0
  123.8167  135.6463  162.0659 H   0  0  0  0  0  0  0  0  0  0  0  0
  125.9544  135.6475  161.2676 H   0  0  0  0  0  0  0  0  0  0  0  0
  130.0822  132.6412  160.4219 H   0  0  0  0  0  0  0  0  0  0  0  0
  131.5699  132.2343  162.3396 H   0  0  0  0  0  0  0  0  0  0  0  0
  133.3255  133.8636  162.9058 H   0  0  0  0  0  0  0  0  0  0  0  0
  134.7522  135.8501  161.6164 H   0  0  0  0  0  0  0  0  0  0  0  0
  135.5000  138.0558  162.2657 H   0  0  0  0  0  0  0  0  0  0  0  0
  134.8874  140.3730  162.8208 H   0  0  0  0  0  0  0  0  0  0  0  0
  132.5235  141.0569  162.8249 H   0  0  0  0  0  0  0  0  0  0  0  0
  131.3690  137.1060  161.6960 H   0  0  0  0  0  0  0  0  0  0  0  0
  132.0984  136.3121  159.6204 H   0  0  0  0  0  0  0  0  0  0  0  0
  1  2  1  0
  1  3  1  0
  1  4  1  0
  1  5  1  0
  5  6  1  6
  5  7  1  0
  5 17  1  0
  7  8  2  0
  7  9  1  0
  9 10  1  0
  9 31  1  0
 10 16  1  0
 10 11  2  0
 11 12  1  0
 11 32  1  0
 12 13  2  0
 12 33  1  0
 13 14  1  0
 13 34  1  0
 14 15  1  0
 14 16  2  0
 15 35  1  0
 16 36  1  0
 17 30  1  0
 17 18  2  0
 18 19  1  0
 18 37  1  0
 19 20  2  0
 19 38  1  0
 20 21  1  0
 20 39  1  0
 21 22  1  0
 21 30  2  0
 22 23  1  0
 22 40  1  0
 23 29  1  0
 23 24  2  0
 24 25  1  0
 24 41  1  0
 25 26  2  0
 25 42  1  0
 26 27  1  0
 26 43  1  0
 27 28  1  0
 27 29  2  0
 29 44  1  0
 30 45  1  0
M  CHG  1   1   1
M  END
>  <DOCK_score>  (1) 
-44.21558

>  <SMILES>  (1) 
[NH3+][C@@H](C(=O)Nc1cccc(O)c1)c1cccc(Nc2cccc(F)c2)c1

$$$$
