FC1(F)CC1C[NH2+]Cc1c[nH]nc1-c1ccc(N[C@H]2CC23CCOCC3)o1
     RDKit          3D

 52 56  0  0  1  0  0  0  0  0999 V2000
  132.5068  140.3329  161.3105 F   0  0  0  0  0  0  0  0  0  0  0  0
  133.3858  139.9301  160.2995 C   0  0  0  0  0  0  0  0  0  0  0  0
  134.5943  140.6321  160.2352 F   0  0  0  0  0  0  0  0  0  0  0  0
  132.7747  139.4536  158.9803 C   0  0  0  0  0  0  0  0  0  0  0  0
  133.4122  138.4439  159.9369 C   0  0  2  0  0  0  0  0  0  0  0  0
  132.4752  137.5121  160.7077 C   0  0  0  0  0  0  0  0  0  0  0  0
  132.2769  136.2741  159.9421 N   0  0  0  0  0  0  0  0  0  0  0  0
  133.1663  135.8178  159.8042 H   0  0  0  0  0  0  0  0  0  0  0  0
  131.8695  136.4946  159.0458 H   0  0  0  0  0  0  0  0  0  0  0  0
  131.3773  135.3792  160.6822 C   0  0  0  0  0  0  0  0  0  0  0  0
  131.1741  134.1093  159.8968 C   0  0  0  0  0  0  0  0  0  0  0  0
  132.1386  133.3907  159.2833 C   0  0  0  0  0  0  0  0  0  0  0  0
  131.5547  132.3268  158.6904 N   0  0  0  0  0  0  0  0  0  0  0  0
  132.0097  131.6404  158.1779 H   0  0  0  0  0  0  0  0  0  0  0  0
  130.1792  132.3825  158.9490 N   0  0  0  0  0  0  0  0  0  0  0  0
  129.9421  133.4594  159.6720 C   0  0  0  0  0  0  0  0  0  0  0  0
  128.6218  133.9033  160.1647 C   0  0  0  0  0  0  0  0  0  0  0  0
  127.4376  133.2733  159.9461 C   0  0  0  0  0  0  0  0  0  0  0  0
  126.4437  134.0384  160.5880 C   0  0  0  0  0  0  0  0  0  0  0  0
  127.0699  135.0900  161.1724 C   0  0  0  0  0  0  0  0  0  0  0  0
  126.4541  136.0919  161.9138 N   0  0  0  0  0  0  0  0  0  0  0  0
  127.2557  137.1737  162.4911 C   0  0  1  0  0  0  0  0  0  0  0  0
  128.0561  137.5556  161.8574 H   0  0  0  0  0  0  0  0  0  0  0  0
  126.5423  138.1704  163.4077 C   0  0  0  0  0  0  0  0  0  0  0  0
  127.5037  137.1411  163.9977 C   0  0  0  0  0  0  0  0  0  0  0  0
  128.8595  137.6382  164.5107 C   0  0  0  0  0  0  0  0  0  0  0  0
  129.7922  136.4313  164.6675 C   0  0  0  0  0  0  0  0  0  0  0  0
  129.1602  135.4494  165.4908 O   0  0  0  0  0  0  0  0  0  0  0  0
  127.9722  134.8841  164.9335 C   0  0  0  0  0  0  0  0  0  0  0  0
  126.9062  135.9775  164.7962 C   0  0  0  0  0  0  0  0  0  0  0  0
  128.3849  135.0036  160.9096 O   0  0  0  0  0  0  0  0  0  0  0  0
  133.3140  139.6871  158.0624 H   0  0  0  0  0  0  0  0  0  0  0  0
  131.6877  139.4539  158.9002 H   0  0  0  0  0  0  0  0  0  0  0  0
  134.3708  138.0129  159.6481 H   0  0  0  0  0  0  0  0  0  0  0  0
  131.5143  138.0047  160.8568 H   0  0  0  0  0  0  0  0  0  0  0  0
  132.9154  137.2737  161.6761 H   0  0  0  0  0  0  0  0  0  0  0  0
  130.4165  135.8720  160.8312 H   0  0  0  0  0  0  0  0  0  0  0  0
  131.8175  135.1411  161.6506 H   0  0  0  0  0  0  0  0  0  0  0  0
  133.1927  133.6257  159.2687 H   0  0  0  0  0  0  0  0  0  0  0  0
  127.2867  132.3633  159.3843 H   0  0  0  0  0  0  0  0  0  0  0  0
  125.3850  133.8264  160.6120 H   0  0  0  0  0  0  0  0  0  0  0  0
  125.4937  136.0747  162.0488 H   0  0  0  0  0  0  0  0  0  0  0  0
  126.8732  139.2085  163.3770 H   0  0  0  0  0  0  0  0  0  0  0  0
  125.4767  138.0212  163.5812 H   0  0  0  0  0  0  0  0  0  0  0  0
  129.2868  138.3406  163.7950 H   0  0  0  0  0  0  0  0  0  0  0  0
  128.7289  138.1280  165.4756 H   0  0  0  0  0  0  0  0  0  0  0  0
  130.7249  136.7502  165.1326 H   0  0  0  0  0  0  0  0  0  0  0  0
  130.0016  136.0036  163.6870 H   0  0  0  0  0  0  0  0  0  0  0  0
  127.6024  134.0957  165.5890 H   0  0  0  0  0  0  0  0  0  0  0  0
  128.1940  134.4669  163.9513 H   0  0  0  0  0  0  0  0  0  0  0  0
  126.6097  136.3262  165.7855 H   0  0  0  0  0  0  0  0  0  0  0  0
  126.0366  135.5816  164.2716 H   0  0  0  0  0  0  0  0  0  0  0  0
  1  2  1  0
  2  5  1  0
  2  3  1  0
  2  4  1  0
  4  5  1  0
  4 32  1  0
  4 33  1  0
  5  6  1  0
  5 34  1  6
  6  7  1  0
  6 35  1  0
  6 36  1  0
  7  8  1  0
  7  9  1  0
  7 10  1  0
 10 11  1  0
 10 37  1  0
 10 38  1  0
 11 16  1  0
 11 12  2  0
 12 13  1  0
 12 39  1  0
 13 14  1  0
 13 15  1  0
 15 16  2  0
 16 17  1  0
 17 31  1  0
 17 18  2  0
 18 19  1  0
 18 40  1  0
 19 20  2  0
 19 41  1  0
 20 21  1  0
 20 31  1  0
 21 22  1  0
 21 42  1  0
 22 23  1  6
 22 25  1  0
 22 24  1  0
 24 25  1  0
 24 43  1  0
 24 44  1  0
 25 30  1  0
 25 26  1  0
 26 27  1  0
 26 45  1  0
 26 46  1  0
 27 28  1  0
 27 47  1  0
 27 48  1  0
 28 29  1  0
 29 30  1  0
 29 49  1  0
 29 50  1  0
 30 51  1  0
 30 52  1  0
M  CHG  1   7   1
M  END
>  <DOCK_score>  (1) 
-42.886276

>  <SMILES>  (1) 
FC1(F)CC1C[NH2+]Cc1c[nH]nc1-c1ccc(N[C@H]2CC23CCOCC3)o1

$$$$
