Brc1ccccc1CNc1ccc(-c2n[nH]cc2C[NH2+]CC2=CCCC2)o1
     RDKit          3D

 51 54  0  0  0  0  0  0  0  0999 V2000
  128.5090  139.5305  163.8013 Br  0  0  0  0  0  0  0  0  0  0  0  0
  128.2608  137.8154  164.5578 C   0  0  0  0  0  0  0  0  0  0  0  0
  128.7860  137.5264  165.8047 C   0  0  0  0  0  0  0  0  0  0  0  0
  128.6087  136.2711  166.3549 C   0  0  0  0  0  0  0  0  0  0  0  0
  127.9021  135.3058  165.6619 C   0  0  0  0  0  0  0  0  0  0  0  0
  127.3724  135.5958  164.4185 C   0  0  0  0  0  0  0  0  0  0  0  0
  127.5492  136.8511  163.8674 C   0  0  0  0  0  0  0  0  0  0  0  0
  126.9721  137.1670  162.5116 C   0  0  0  0  0  0  0  0  0  0  0  0
  126.2698  135.9902  161.9937 N   0  0  0  0  0  0  0  0  0  0  0  0
  126.9538  135.0541  161.2268 C   0  0  0  0  0  0  0  0  0  0  0  0
  126.4230  133.9245  160.6958 C   0  0  0  0  0  0  0  0  0  0  0  0
  127.4588  133.2718  159.9987 C   0  0  0  0  0  0  0  0  0  0  0  0
  128.5723  134.0382  160.1400 C   0  0  0  0  0  0  0  0  0  0  0  0
  129.9042  133.7423  159.5731 C   0  0  0  0  0  0  0  0  0  0  0  0
  130.2214  132.6908  158.8436 N   0  0  0  0  0  0  0  0  0  0  0  0
  131.5779  132.7876  158.5083 N   0  0  0  0  0  0  0  0  0  0  0  0
  132.0791  132.1503  157.9758 H   0  0  0  0  0  0  0  0  0  0  0  0
  132.0659  133.9248  159.0494 C   0  0  0  0  0  0  0  0  0  0  0  0
  131.0628  134.5344  159.7168 C   0  0  0  0  0  0  0  0  0  0  0  0
  131.1618  135.8331  160.4749 C   0  0  0  0  0  0  0  0  0  0  0  0
  130.8603  136.9516  159.5716 N   0  0  0  0  0  0  0  0  0  0  0  0
  129.9260  136.8460  159.2058 H   0  0  0  0  0  0  0  0  0  0  0  0
  131.5216  136.9559  158.8094 H   0  0  0  0  0  0  0  0  0  0  0  0
  130.9568  138.2176  160.3106 C   0  0  0  0  0  0  0  0  0  0  0  0
  132.3524  138.3751  160.8569 C   0  0  0  0  0  0  0  0  0  0  0  0
  132.6406  138.4871  162.1251 C   0  0  0  0  0  0  0  0  0  0  0  0
  134.1304  138.6289  162.3341 C   0  0  0  0  0  0  0  0  0  0  0  0
  134.7603  138.1649  161.0001 C   0  0  0  0  0  0  0  0  0  0  0  0
  133.6020  138.4233  160.0088 C   0  0  0  0  0  0  0  0  0  0  0  0
  128.2539  135.1131  160.8917 O   0  0  0  0  0  0  0  0  0  0  0  0
  129.3381  138.2803  166.3461 H   0  0  0  0  0  0  0  0  0  0  0  0
  129.0218  136.0443  167.3268 H   0  0  0  0  0  0  0  0  0  0  0  0
  127.7639  134.3248  166.0921 H   0  0  0  0  0  0  0  0  0  0  0  0
  126.8200  134.8415  163.8777 H   0  0  0  0  0  0  0  0  0  0  0  0
  127.7766  137.4397  161.8287 H   0  0  0  0  0  0  0  0  0  0  0  0
  126.2723  137.9983  162.5991 H   0  0  0  0  0  0  0  0  0  0  0  0
  125.3274  135.8643  162.1859 H   0  0  0  0  0  0  0  0  0  0  0  0
  125.4007  133.5891  160.7898 H   0  0  0  0  0  0  0  0  0  0  0  0
  127.3825  132.3413  159.4559 H   0  0  0  0  0  0  0  0  0  0  0  0
  133.0813  134.2830  158.9649 H   0  0  0  0  0  0  0  0  0  0  0  0
  132.1712  135.9470  160.8702 H   0  0  0  0  0  0  0  0  0  0  0  0
  130.4477  135.8284  161.2984 H   0  0  0  0  0  0  0  0  0  0  0  0
  130.2427  138.2130  161.1341 H   0  0  0  0  0  0  0  0  0  0  0  0
  130.7333  139.0475  159.6403 H   0  0  0  0  0  0  0  0  0  0  0  0
  131.9102  138.4792  162.9206 H   0  0  0  0  0  0  0  0  0  0  0  0
  134.4615  137.9900  163.1527 H   0  0  0  0  0  0  0  0  0  0  0  0
  134.3885  139.6688  162.5344 H   0  0  0  0  0  0  0  0  0  0  0  0
  135.6325  138.7682  160.7485 H   0  0  0  0  0  0  0  0  0  0  0  0
  135.0162  137.1060  161.0357 H   0  0  0  0  0  0  0  0  0  0  0  0
  133.7096  139.4046  159.5466 H   0  0  0  0  0  0  0  0  0  0  0  0
  133.5737  137.6446  159.2465 H   0  0  0  0  0  0  0  0  0  0  0  0
  1  2  1  0
  2  7  2  0
  2  3  1  0
  3  4  2  0
  3 31  1  0
  4  5  1  0
  4 32  1  0
  5  6  2  0
  5 33  1  0
  6  7  1  0
  6 34  1  0
  7  8  1  0
  8  9  1  0
  8 35  1  0
  8 36  1  0
  9 10  1  0
  9 37  1  0
 10 30  1  0
 10 11  2  0
 11 12  1  0
 11 38  1  0
 12 13  2  0
 12 39  1  0
 13 14  1  0
 13 30  1  0
 14 19  1  0
 14 15  2  0
 15 16  1  0
 16 17  1  0
 16 18  1  0
 18 19  2  0
 18 40  1  0
 19 20  1  0
 20 21  1  0
 20 41  1  0
 20 42  1  0
 21 22  1  0
 21 23  1  0
 21 24  1  0
 24 25  1  0
 24 43  1  0
 24 44  1  0
 25 29  1  0
 25 26  2  0
 26 27  1  0
 26 45  1  0
 27 28  1  0
 27 46  1  0
 27 47  1  0
 28 29  1  0
 28 48  1  0
 28 49  1  0
 29 50  1  0
 29 51  1  0
M  CHG  1  21   1
M  END
>  <DOCK_score>  (1) 
-41.646847

>  <SMILES>  (1) 
Brc1ccccc1CNc1ccc(-c2n[nH]cc2C[NH2+]CC2=CCCC2)o1

$$$$
