OC[C@@H](Cc1ccc(F)cc1)Nc1[nH]cc(-c2ccc(-c3ccccc3)cc2)[nH+]1
     RDKit          3D

 52 55  0  0  1  0  0  0  0  0999 V2000
  132.9285  135.6711  163.2878 O   0  0  0  0  0  0  0  0  0  0  0  0
  132.9694  135.9367  161.8844 C   0  0  0  0  0  0  0  0  0  0  0  0
  131.5889  135.6806  161.2763 C   0  0  1  0  0  0  0  0  0  0  0  0
  131.1530  134.7891  161.7273 H   0  0  0  0  0  0  0  0  0  0  0  0
  130.6823  136.8835  161.5448 C   0  0  0  0  0  0  0  0  0  0  0  0
  129.2407  136.4674  161.4041 C   0  0  0  0  0  0  0  0  0  0  0  0
  128.6101  136.5655  160.1779 C   0  0  0  0  0  0  0  0  0  0  0  0
  127.2899  136.1788  160.0463 C   0  0  0  0  0  0  0  0  0  0  0  0
  126.5953  135.7041  161.1459 C   0  0  0  0  0  0  0  0  0  0  0  0
  125.3026  135.3319  161.0199 F   0  0  0  0  0  0  0  0  0  0  0  0
  127.2262  135.6116  162.3749 C   0  0  0  0  0  0  0  0  0  0  0  0
  128.5483  135.9931  162.5028 C   0  0  0  0  0  0  0  0  0  0  0  0
  131.7212  135.4820  159.8309 N   0  0  0  0  0  0  0  0  0  0  0  0
  131.3134  134.2906  159.2558 C   0  0  0  0  0  0  0  0  0  0  0  0
  130.7709  133.2342  159.9209 N   0  0  0  0  0  0  0  0  0  0  0  0
  130.6026  133.1810  160.8747 H   0  0  0  0  0  0  0  0  0  0  0  0
  130.5063  132.2572  158.9925 C   0  0  0  0  0  0  0  0  0  0  0  0
  130.8944  132.7443  157.7871 C   0  0  0  0  0  0  0  0  0  0  0  0
  130.7994  132.0360  156.4883 C   0  0  0  0  0  0  0  0  0  0  0  0
  130.0357  132.5762  155.4534 C   0  0  0  0  0  0  0  0  0  0  0  0
  129.9511  131.9203  154.2453 C   0  0  0  0  0  0  0  0  0  0  0  0
  130.6205  130.7115  154.0596 C   0  0  0  0  0  0  0  0  0  0  0  0
  130.5245  130.0017  152.7610 C   0  0  0  0  0  0  0  0  0  0  0  0
  130.6186  128.6118  152.7143 C   0  0  0  0  0  0  0  0  0  0  0  0
  130.5239  127.9568  151.5033 C   0  0  0  0  0  0  0  0  0  0  0  0
  130.3462  128.6777  150.3361 C   0  0  0  0  0  0  0  0  0  0  0  0
  130.2571  130.0576  150.3759 C   0  0  0  0  0  0  0  0  0  0  0  0
  130.3455  130.7228  151.5817 C   0  0  0  0  0  0  0  0  0  0  0  0
  131.3804  130.1684  155.0959 C   0  0  0  0  0  0  0  0  0  0  0  0
  131.4691  130.8265  156.3026 C   0  0  0  0  0  0  0  0  0  0  0  0
  131.3808  133.9963  157.9805 N   0  0  0  0  0  0  0  0  0  0  0  0
  131.7252  134.5793  157.2860 H   0  0  0  0  0  0  0  0  0  0  0  0
  132.2968  136.2189  163.7736 H   0  0  0  0  0  0  0  0  0  0  0  0
  133.7015  135.2818  161.4117 H   0  0  0  0  0  0  0  0  0  0  0  0
  133.2519  136.9765  161.7194 H   0  0  0  0  0  0  0  0  0  0  0  0
  130.8571  137.2518  162.5558 H   0  0  0  0  0  0  0  0  0  0  0  0
  130.9043  137.6731  160.8271 H   0  0  0  0  0  0  0  0  0  0  0  0
  129.1507  136.9406  159.3214 H   0  0  0  0  0  0  0  0  0  0  0  0
  126.7985  136.2518  159.0872 H   0  0  0  0  0  0  0  0  0  0  0  0
  126.6853  135.2418  163.2333 H   0  0  0  0  0  0  0  0  0  0  0  0
  129.0407  135.9210  163.4612 H   0  0  0  0  0  0  0  0  0  0  0  0
  132.0945  136.1852  159.2768 H   0  0  0  0  0  0  0  0  0  0  0  0
  130.0721  131.2873  159.1850 H   0  0  0  0  0  0  0  0  0  0  0  0
  129.5138  133.5106  155.5983 H   0  0  0  0  0  0  0  0  0  0  0  0
  129.3629  132.3402  153.4428 H   0  0  0  0  0  0  0  0  0  0  0  0
  130.7617  128.0483  153.6245 H   0  0  0  0  0  0  0  0  0  0  0  0
  130.5926  126.8796  151.4663 H   0  0  0  0  0  0  0  0  0  0  0  0
  130.2771  128.1612  149.3900 H   0  0  0  0  0  0  0  0  0  0  0  0
  130.1182  130.6153  149.4615 H   0  0  0  0  0  0  0  0  0  0  0  0
  130.2763  131.8002  151.6116 H   0  0  0  0  0  0  0  0  0  0  0  0
  131.8988  129.2319  154.9523 H   0  0  0  0  0  0  0  0  0  0  0  0
  132.0573  130.4063  157.1050 H   0  0  0  0  0  0  0  0  0  0  0  0
  1  2  1  0
  1 33  1  0
  2  3  1  0
  2 34  1  0
  2 35  1  0
  3  4  1  1
  3  5  1  0
  3 13  1  0
  5  6  1  0
  5 36  1  0
  5 37  1  0
  6 12  1  0
  6  7  2  0
  7  8  1  0
  7 38  1  0
  8  9  2  0
  8 39  1  0
  9 10  1  0
  9 11  1  0
 11 12  2  0
 11 40  1  0
 12 41  1  0
 13 42  1  0
 14 13  1  0
 14 31  2  0
 14 15  1  0
 15 16  1  0
 15 17  1  0
 17 18  2  0
 17 43  1  0
 18 19  1  0
 18 31  1  0
 19 30  1  0
 19 20  2  0
 20 21  1  0
 20 44  1  0
 21 22  2  0
 21 45  1  0
 22 23  1  0
 22 29  1  0
 23 28  1  0
 23 24  2  0
 24 25  1  0
 24 46  1  0
 25 26  2  0
 25 47  1  0
 26 27  1  0
 26 48  1  0
 27 28  2  0
 27 49  1  0
 28 50  1  0
 29 30  2  0
 29 51  1  0
 30 52  1  0
 31 32  1  0
M  CHG  1  31   1
M  END
>  <DOCK_score>  (1) 
-60.572136

>  <SMILES>  (1) 
OC[C@@H](Cc1ccc(F)cc1)Nc1[nH]cc(-c2ccc(-c3ccccc3)cc2)[nH+]1

$$$$
