O=[N+]([O-])c1ccc(Cl)c(C[NH+]=C(NCCC2CC=CC2)N[C@H]2C[C@@H](O)C2)c1
     RDKit          3D

 53 55  0  0  1  0  0  0  0  0999 V2000
  134.6705  137.4998  159.2612 O   0  0  0  0  0  0  0  0  0  0  0  0
  134.4735  138.6525  159.6015 N   0  0  0  0  0  0  0  0  0  0  0  0
  135.3323  139.4967  159.4188 O   0  0  0  0  0  0  0  0  0  0  0  0
  133.1904  139.0276  160.2370 C   0  0  0  0  0  0  0  0  0  0  0  0
  132.9668  140.3363  160.6229 C   0  0  0  0  0  0  0  0  0  0  0  0
  131.7692  140.6871  161.2164 C   0  0  0  0  0  0  0  0  0  0  0  0
  130.7914  139.7292  161.4198 C   0  0  0  0  0  0  0  0  0  0  0  0
  129.2839  140.1705  162.1586 Cl  0  0  0  0  0  0  0  0  0  0  0  0
  131.0175  138.4190  161.0379 C   0  0  0  0  0  0  0  0  0  0  0  0
  129.9551  137.3743  161.2632 C   0  0  0  0  0  0  0  0  0  0  0  0
  129.8174  136.5504  160.0598 N   0  0  0  0  0  0  0  0  0  0  0  0
  130.3719  136.7284  159.2841 H   0  0  0  0  0  0  0  0  0  0  0  0
  128.9495  135.5783  160.0313 C   0  0  0  0  0  0  0  0  0  0  0  0
  128.8201  134.8052  158.9019 N   0  0  0  0  0  0  0  0  0  0  0  0
  129.6577  135.0738  157.7303 C   0  0  0  0  0  0  0  0  0  0  0  0
  129.3163  134.0780  156.6202 C   0  0  0  0  0  0  0  0  0  0  0  0
  129.5744  132.6535  157.1157 C   0  0  0  0  0  0  0  0  0  0  0  0
  129.4325  131.6304  155.9649 C   0  0  0  0  0  0  0  0  0  0  0  0
  130.5096  130.6040  156.2286 C   0  0  0  0  0  0  0  0  0  0  0  0
  131.3954  131.0586  157.0727 C   0  0  0  0  0  0  0  0  0  0  0  0
  131.0568  132.4639  157.5126 C   0  0  0  0  0  0  0  0  0  0  0  0
  128.1634  135.3262  161.1307 N   0  0  0  0  0  0  0  0  0  0  0  0
  127.1880  134.2336  161.0987 C   0  0  1  0  0  0  0  0  0  0  0  0
  127.6477  133.2607  160.9251 H   0  0  0  0  0  0  0  0  0  0  0  0
  126.2069  134.2488  162.2828 C   0  0  0  0  0  0  0  0  0  0  0  0
  125.1115  133.8532  161.2786 C   0  0  1  0  0  0  0  0  0  0  0  0
  125.0014  132.7760  161.1543 H   0  0  0  0  0  0  0  0  0  0  0  0
  123.8652  134.5164  161.5002 O   0  0  0  0  0  0  0  0  0  0  0  0
  125.9771  134.5152  160.1935 C   0  0  0  0  0  0  0  0  0  0  0  0
  132.2161  138.0693  160.4443 C   0  0  0  0  0  0  0  0  0  0  0  0
  133.7283  141.0848  160.4601 H   0  0  0  0  0  0  0  0  0  0  0  0
  131.5947  141.7094  161.5176 H   0  0  0  0  0  0  0  0  0  0  0  0
  129.0051  137.8630  161.4799 H   0  0  0  0  0  0  0  0  0  0  0  0
  130.2392  136.7430  162.1053 H   0  0  0  0  0  0  0  0  0  0  0  0
  128.1743  134.0818  158.8806 H   0  0  0  0  0  0  0  0  0  0  0  0
  130.7078  134.9687  158.0025 H   0  0  0  0  0  0  0  0  0  0  0  0
  129.4737  136.0887  157.3772 H   0  0  0  0  0  0  0  0  0  0  0  0
  129.9396  134.2778  155.7485 H   0  0  0  0  0  0  0  0  0  0  0  0
  128.2662  134.1831  156.3479 H   0  0  0  0  0  0  0  0  0  0  0  0
  128.9124  132.4042  157.9449 H   0  0  0  0  0  0  0  0  0  0  0  0
  129.5977  132.1156  155.0029 H   0  0  0  0  0  0  0  0  0  0  0  0
  128.4480  131.1631  155.9915 H   0  0  0  0  0  0  0  0  0  0  0  0
  130.5444  129.6247  155.7748 H   0  0  0  0  0  0  0  0  0  0  0  0
  132.2571  130.5030  157.4122 H   0  0  0  0  0  0  0  0  0  0  0  0
  131.1768  132.5634  158.5914 H   0  0  0  0  0  0  0  0  0  0  0  0
  131.6862  133.1864  156.9931 H   0  0  0  0  0  0  0  0  0  0  0  0
  128.2546  135.8717  161.9276 H   0  0  0  0  0  0  0  0  0  0  0  0
  126.4120  133.4819  163.0297 H   0  0  0  0  0  0  0  0  0  0  0  0
  126.0646  135.2374  162.7193 H   0  0  0  0  0  0  0  0  0  0  0  0
  123.9169  135.4803  161.4426 H   0  0  0  0  0  0  0  0  0  0  0  0
  125.7709  135.5769  160.0579 H   0  0  0  0  0  0  0  0  0  0  0  0
  125.9967  133.9634  159.2537 H   0  0  0  0  0  0  0  0  0  0  0  0
  132.3910  137.0473  160.1421 H   0  0  0  0  0  0  0  0  0  0  0  0
  1  2  2  0
  2  3  1  0
  2  4  1  0
  4 30  2  0
  4  5  1  0
  5  6  2  0
  5 31  1  0
  6  7  1  0
  6 32  1  0
  7  8  1  0
  7  9  2  0
  9 10  1  0
  9 30  1  0
 10 11  1  0
 10 33  1  0
 10 34  1  0
 11 12  1  0
 13 11  2  0
 13 14  1  0
 13 22  1  0
 14 15  1  0
 14 35  1  0
 15 16  1  0
 15 36  1  0
 15 37  1  0
 16 17  1  0
 16 38  1  0
 16 39  1  0
 17 21  1  0
 17 18  1  0
 17 40  1  0
 18 19  1  0
 18 41  1  0
 18 42  1  0
 19 20  2  0
 19 43  1  0
 20 21  1  0
 20 44  1  0
 21 45  1  0
 21 46  1  0
 22 23  1  0
 22 47  1  0
 23 24  1  6
 23 29  1  0
 23 25  1  0
 25 26  1  0
 25 48  1  0
 25 49  1  0
 26 27  1  6
 26 28  1  0
 26 29  1  0
 28 50  1  0
 29 51  1  0
 29 52  1  0
 30 53  1  0
M  CHG  3   2   1   3  -1  11   1
M  END
>  <DOCK_score>  (1) 
-44.727478

>  <SMILES>  (1) 
O=[N+]([O-])c1ccc(Cl)c(C[NH+]=C(NCCC2CC=CC2)N[C@H]2C[C@@H](O)C2)c1

$$$$
