OCCN1CC[NH+]=C1NCc1ccc(Nc2cccc(F)c2)cc1
     RDKit          3D

 46 48  0  0  1  0  0  0  0  0999 V2000
  131.8471  131.8179  159.1604 O   0  0  0  0  0  0  0  0  0  0  0  0
  131.6913  130.4355  158.8337 C   0  0  0  0  0  0  0  0  0  0  0  0
  130.4412  130.2531  157.9708 C   0  0  0  0  0  0  0  0  0  0  0  0
  130.5800  131.0335  156.7387 N   0  0  0  0  0  0  0  0  0  0  0  0
  131.1691  130.5545  155.4772 C   0  0  0  0  0  0  0  0  0  0  0  0
  131.0528  131.7774  154.5455 C   0  0  0  0  0  0  0  0  0  0  0  0
  130.4146  132.8028  155.3826 N   0  0  0  0  0  0  0  0  0  0  0  0
  130.1973  133.7020  155.0909 H   0  0  0  0  0  0  0  0  0  0  0  0
  130.1845  132.3313  156.5645 C   0  0  0  0  0  0  0  0  0  0  0  0
  129.5880  133.0695  157.5591 N   0  0  0  0  0  0  0  0  0  0  0  0
  129.1891  134.4557  157.3035 C   0  0  0  0  0  0  0  0  0  0  0  0
  128.5639  135.0359  158.5460 C   0  0  0  0  0  0  0  0  0  0  0  0
  128.9231  136.3015  158.9725 C   0  0  0  0  0  0  0  0  0  0  0  0
  128.3486  136.8382  160.1078 C   0  0  0  0  0  0  0  0  0  0  0  0
  127.4166  136.1009  160.8276 C   0  0  0  0  0  0  0  0  0  0  0  0
  126.8371  136.6388  161.9794 N   0  0  0  0  0  0  0  0  0  0  0  0
  126.9948  135.9927  163.2080 C   0  0  0  0  0  0  0  0  0  0  0  0
  126.0041  136.0894  164.1777 C   0  0  0  0  0  0  0  0  0  0  0  0
  126.1617  135.4497  165.3911 C   0  0  0  0  0  0  0  0  0  0  0  0
  127.3039  134.7123  165.6432 C   0  0  0  0  0  0  0  0  0  0  0  0
  128.2940  134.6131  164.6797 C   0  0  0  0  0  0  0  0  0  0  0  0
  129.4091  133.8923  164.9291 F   0  0  0  0  0  0  0  0  0  0  0  0
  128.1394  135.2480  163.4603 C   0  0  0  0  0  0  0  0  0  0  0  0
  127.0620  134.8278  160.3993 C   0  0  0  0  0  0  0  0  0  0  0  0
  127.6365  134.2994  159.2601 C   0  0  0  0  0  0  0  0  0  0  0  0
  131.9448  132.3954  158.3908 H   0  0  0  0  0  0  0  0  0  0  0  0
  131.5881  129.8550  159.7504 H   0  0  0  0  0  0  0  0  0  0  0  0
  132.5666  130.0916  158.2825 H   0  0  0  0  0  0  0  0  0  0  0  0
  129.5660  130.5971  158.5220 H   0  0  0  0  0  0  0  0  0  0  0  0
  130.3224  129.1986  157.7216 H   0  0  0  0  0  0  0  0  0  0  0  0
  132.2137  130.2785  155.6209 H   0  0  0  0  0  0  0  0  0  0  0  0
  130.6008  129.7120  155.0829 H   0  0  0  0  0  0  0  0  0  0  0  0
  132.0403  132.1075  154.2233 H   0  0  0  0  0  0  0  0  0  0  0  0
  130.4291  131.5426  153.6830 H   0  0  0  0  0  0  0  0  0  0  0  0
  129.4312  132.6725  158.4302 H   0  0  0  0  0  0  0  0  0  0  0  0
  130.0667  135.0420  157.0308 H   0  0  0  0  0  0  0  0  0  0  0  0
  128.4670  134.4814  156.4875 H   0  0  0  0  0  0  0  0  0  0  0  0
  129.6510  136.8721  158.4149 H   0  0  0  0  0  0  0  0  0  0  0  0
  128.6268  137.8279  160.4383 H   0  0  0  0  0  0  0  0  0  0  0  0
  126.3251  137.4611  161.9260 H   0  0  0  0  0  0  0  0  0  0  0  0
  125.1110  136.6644  163.9821 H   0  0  0  0  0  0  0  0  0  0  0  0
  125.3916  135.5250  166.1445 H   0  0  0  0  0  0  0  0  0  0  0  0
  127.4245  134.2130  166.5933 H   0  0  0  0  0  0  0  0  0  0  0  0
  128.9090  135.1672  162.7070 H   0  0  0  0  0  0  0  0  0  0  0  0
  126.3376  134.2522  160.9562 H   0  0  0  0  0  0  0  0  0  0  0  0
  127.3617  133.3096  158.9266 H   0  0  0  0  0  0  0  0  0  0  0  0
  1  2  1  0
  1 26  1  0
  2  3  1  0
  2 27  1  0
  2 28  1  0
  3  4  1  0
  3 29  1  0
  3 30  1  0
  4  9  1  0
  4  5  1  0
  5  6  1  0
  5 31  1  0
  5 32  1  0
  6  7  1  0
  6 33  1  0
  6 34  1  0
  7  8  1  0
  7  9  2  0
  9 10  1  0
 10 11  1  0
 10 35  1  0
 11 12  1  0
 11 36  1  0
 11 37  1  0
 12 25  1  0
 12 13  2  0
 13 14  1  0
 13 38  1  0
 14 15  2  0
 14 39  1  0
 15 16  1  0
 15 24  1  0
 16 17  1  0
 16 40  1  0
 17 23  1  0
 17 18  2  0
 18 19  1  0
 18 41  1  0
 19 20  2  0
 19 42  1  0
 20 21  1  0
 20 43  1  0
 21 22  1  0
 21 23  2  0
 23 44  1  0
 24 25  2  0
 24 45  1  0
 25 46  1  0
M  CHG  1   7   1
M  END
>  <DOCK_score>  (1) 
-42.704636

>  <SMILES>  (1) 
OCCN1CC[NH+]=C1NCc1ccc(Nc2cccc(F)c2)cc1

$$$$
