Cc1ccc(Nc2ccc([C@@H](NC3=[NH+]CCCN3)c3cccc4ccccc34)cc2)cc1
     RDKit          3D

 61 65  0  0  1  0  0  0  0  0999 V2000
  127.1967  143.0327  165.4503 C   0  0  0  0  0  0  0  0  0  0  0  0
  127.0988  141.7037  164.7466 C   0  0  0  0  0  0  0  0  0  0  0  0
  128.0899  140.7553  164.9228 C   0  0  0  0  0  0  0  0  0  0  0  0
  128.0034  139.5363  164.2795 C   0  0  0  0  0  0  0  0  0  0  0  0
  126.9193  139.2633  163.4546 C   0  0  0  0  0  0  0  0  0  0  0  0
  126.8293  138.0318  162.8027 N   0  0  0  0  0  0  0  0  0  0  0  0
  127.9909  137.3458  162.4395 C   0  0  0  0  0  0  0  0  0  0  0  0
  128.2360  136.0748  162.9447 C   0  0  0  0  0  0  0  0  0  0  0  0
  129.3854  135.4000  162.5838 C   0  0  0  0  0  0  0  0  0  0  0  0
  130.2920  135.9876  161.7207 C   0  0  0  0  0  0  0  0  0  0  0  0
  131.5454  135.2480  161.3292 C   0  0  1  0  0  0  0  0  0  0  0  0
  131.5620  134.2754  161.8211 H   0  0  0  0  0  0  0  0  0  0  0  0
  131.5681  135.0607  159.8763 N   0  0  0  0  0  0  0  0  0  0  0  0
  130.5661  134.3619  159.2610 C   0  0  0  0  0  0  0  0  0  0  0  0
  129.9649  133.3940  159.9364 N   0  0  0  0  0  0  0  0  0  0  0  0
  130.2488  133.2028  160.8440 H   0  0  0  0  0  0  0  0  0  0  0  0
  128.8781  132.6102  159.3472 C   0  0  0  0  0  0  0  0  0  0  0  0
  129.0758  132.5473  157.8284 C   0  0  0  0  0  0  0  0  0  0  0  0
  129.1829  133.9803  157.2947 C   0  0  0  0  0  0  0  0  0  0  0  0
  130.2465  134.6812  158.0159 N   0  0  0  0  0  0  0  0  0  0  0  0
  132.7522  136.0456  161.7518 C   0  0  0  0  0  0  0  0  0  0  0  0
  133.3002  136.9584  160.9037 C   0  0  0  0  0  0  0  0  0  0  0  0
  134.4162  137.7047  161.2767 C   0  0  0  0  0  0  0  0  0  0  0  0
  134.9910  137.5423  162.4998 C   0  0  0  0  0  0  0  0  0  0  0  0
  134.4532  136.6093  163.4024 C   0  0  0  0  0  0  0  0  0  0  0  0
  135.0184  136.4145  164.6743 C   0  0  0  0  0  0  0  0  0  0  0  0
  134.4698  135.5025  165.5224 C   0  0  0  0  0  0  0  0  0  0  0  0
  133.3538  134.7558  165.1492 C   0  0  0  0  0  0  0  0  0  0  0  0
  132.7794  134.9175  163.9260 C   0  0  0  0  0  0  0  0  0  0  0  0
  133.3177  135.8504  163.0231 C   0  0  0  0  0  0  0  0  0  0  0  0
  130.0541  137.2547  161.2204 C   0  0  0  0  0  0  0  0  0  0  0  0
  128.9040  137.9330  161.5727 C   0  0  0  0  0  0  0  0  0  0  0  0
  125.9285  140.2205  163.2755 C   0  0  0  0  0  0  0  0  0  0  0  0
  126.0182  141.4350  163.9267 C   0  0  0  0  0  0  0  0  0  0  0  0
  127.7331  143.7401  164.8178 H   0  0  0  0  0  0  0  0  0  0  0  0
  126.1947  143.4122  165.6510 H   0  0  0  0  0  0  0  0  0  0  0  0
  127.7329  142.9072  166.3909 H   0  0  0  0  0  0  0  0  0  0  0  0
  128.9325  140.9682  165.5639 H   0  0  0  0  0  0  0  0  0  0  0  0
  128.7775  138.7960  164.4178 H   0  0  0  0  0  0  0  0  0  0  0  0
  125.9590  137.6516  162.6012 H   0  0  0  0  0  0  0  0  0  0  0  0
  127.5281  135.6151  163.6186 H   0  0  0  0  0  0  0  0  0  0  0  0
  129.5764  134.4119  162.9758 H   0  0  0  0  0  0  0  0  0  0  0  0
  132.2938  135.4323  159.3507 H   0  0  0  0  0  0  0  0  0  0  0  0
  127.9208  133.0808  159.5710 H   0  0  0  0  0  0  0  0  0  0  0  0
  128.8945  131.6011  159.7590 H   0  0  0  0  0  0  0  0  0  0  0  0
  128.2240  132.0469  157.3678 H   0  0  0  0  0  0  0  0  0  0  0  0
  129.9908  132.0011  157.5996 H   0  0  0  0  0  0  0  0  0  0  0  0
  128.2361  134.4982  157.4480 H   0  0  0  0  0  0  0  0  0  0  0  0
  129.4185  133.9563  156.2307 H   0  0  0  0  0  0  0  0  0  0  0  0
  130.7286  135.3961  157.5716 H   0  0  0  0  0  0  0  0  0  0  0  0
  132.8634  137.1067  159.9271 H   0  0  0  0  0  0  0  0  0  0  0  0
  134.8315  138.4225  160.5849 H   0  0  0  0  0  0  0  0  0  0  0  0
  135.8587  138.1242  162.7735 H   0  0  0  0  0  0  0  0  0  0  0  0
  135.8838  136.9855  164.9770 H   0  0  0  0  0  0  0  0  0  0  0  0
  134.9061  135.3549  166.4993 H   0  0  0  0  0  0  0  0  0  0  0  0
  132.9382  134.0382  165.8412 H   0  0  0  0  0  0  0  0  0  0  0  0
  131.9149  134.3318  163.6505 H   0  0  0  0  0  0  0  0  0  0  0  0
  130.7665  137.7127  160.5503 H   0  0  0  0  0  0  0  0  0  0  0  0
  128.7163  138.9207  161.1780 H   0  0  0  0  0  0  0  0  0  0  0  0
  125.0869  140.0133  162.6311 H   0  0  0  0  0  0  0  0  0  0  0  0
  125.2458  142.1777  163.7916 H   0  0  0  0  0  0  0  0  0  0  0  0
  1  2  1  0
  1 35  1  0
  1 36  1  0
  1 37  1  0
  2 34  2  0
  2  3  1  0
  3  4  2  0
  3 38  1  0
  4  5  1  0
  4 39  1  0
  5  6  1  0
  5 33  2  0
  6  7  1  0
  6 40  1  0
  7 32  1  0
  7  8  2  0
  8  9  1  0
  8 41  1  0
  9 10  2  0
  9 42  1  0
 10 11  1  0
 10 31  1  0
 11 12  1  1
 11 13  1  0
 11 21  1  0
 13 14  1  0
 13 43  1  0
 14 20  2  0
 14 15  1  0
 15 16  1  0
 15 17  1  0
 17 18  1  0
 17 44  1  0
 17 45  1  0
 18 19  1  0
 18 46  1  0
 18 47  1  0
 19 20  1  0
 19 48  1  0
 19 49  1  0
 20 50  1  0
 21 30  1  0
 21 22  2  0
 22 23  1  0
 22 51  1  0
 23 24  2  0
 23 52  1  0
 24 25  1  0
 24 53  1  0
 25 30  2  0
 25 26  1  0
 26 27  2  0
 26 54  1  0
 27 28  1  0
 27 55  1  0
 28 29  2  0
 28 56  1  0
 29 30  1  0
 29 57  1  0
 31 32  2  0
 31 58  1  0
 32 59  1  0
 33 34  1  0
 33 60  1  0
 34 61  1  0
M  CHG  1  20   1
M  END
>  <DOCK_score>  (1) 
-47.304256

>  <SMILES>  (1) 
Cc1ccc(Nc2ccc([C@@H](NC3=[NH+]CCCN3)c3cccc4ccccc34)cc2)cc1

$$$$
