C1=C[C@@H]2C=C(C(Nc3[nH]cc(-c4ccccc4)[nH+]3)c3ccccc3)C1CCCC2
     RDKit          3D

 57 61  0  0  1  0  0  0  0  0999 V2000
  128.5855  138.7110  161.9059 C   0  0  0  0  0  0  0  0  0  0  0  0
  129.2672  139.5878  161.2038 C   0  0  0  0  0  0  0  0  0  0  0  0
  130.4227  139.0661  160.3722 C   0  0  2  0  0  0  0  0  0  0  0  0
  130.6008  139.7681  159.5575 H   0  0  0  0  0  0  0  0  0  0  0  0
  130.1029  137.7334  159.7821 C   0  0  0  0  0  0  0  0  0  0  0  0
  129.3734  136.8496  160.4342 C   0  0  0  0  0  0  0  0  0  0  0  0
  129.0403  135.5009  159.8504 C   0  0  2  0  0  0  0  0  0  0  0  0
  130.1200  135.0757  158.9560 N   0  0  0  0  0  0  0  0  0  0  0  0
  130.0366  133.8596  158.2996 C   0  0  0  0  0  0  0  0  0  0  0  0
  129.3998  132.7502  158.7641 N   0  0  0  0  0  0  0  0  0  0  0  0
  128.9273  132.6696  159.6074 H   0  0  0  0  0  0  0  0  0  0  0  0
  129.5474  131.7661  157.8170 C   0  0  0  0  0  0  0  0  0  0  0  0
  130.2771  132.2993  156.8060 C   0  0  0  0  0  0  0  0  0  0  0  0
  130.6907  131.6002  155.5649 C   0  0  0  0  0  0  0  0  0  0  0  0
  130.2812  132.0799  154.3221 C   0  0  0  0  0  0  0  0  0  0  0  0
  130.6729  131.4282  153.1704 C   0  0  0  0  0  0  0  0  0  0  0  0
  131.4624  130.2956  153.2482 C   0  0  0  0  0  0  0  0  0  0  0  0
  131.8673  129.8111  154.4795 C   0  0  0  0  0  0  0  0  0  0  0  0
  131.4855  130.4576  155.6375 C   0  0  0  0  0  0  0  0  0  0  0  0
  130.5625  133.5853  157.1308 N   0  0  0  0  0  0  0  0  0  0  0  0
  131.0737  134.2033  156.5852 H   0  0  0  0  0  0  0  0  0  0  0  0
  127.7521  135.5937  159.0740 C   0  0  0  0  0  0  0  0  0  0  0  0
  126.5458  135.3548  159.7054 C   0  0  0  0  0  0  0  0  0  0  0  0
  125.3639  135.4448  158.9942 C   0  0  0  0  0  0  0  0  0  0  0  0
  125.3889  135.7632  157.6492 C   0  0  0  0  0  0  0  0  0  0  0  0
  126.5956  135.9969  157.0167 C   0  0  0  0  0  0  0  0  0  0  0  0
  127.7773  135.9122  157.7291 C   0  0  0  0  0  0  0  0  0  0  0  0
  128.8890  137.2746  161.8095 C   0  0  1  0  0  0  0  0  0  0  0  0
  129.7703  136.6361  162.8711 C   0  0  0  0  0  0  0  0  0  0  0  0
  131.2627  137.0152  162.6200 C   0  0  0  0  0  0  0  0  0  0  0  0
  131.4371  138.5344  162.6608 C   0  0  0  0  0  0  0  0  0  0  0  0
  131.6248  139.0670  161.2637 C   0  0  0  0  0  0  0  0  0  0  0  0
  127.7952  139.0480  162.5602 H   0  0  0  0  0  0  0  0  0  0  0  0
  129.0206  140.6389  161.2259 H   0  0  0  0  0  0  0  0  0  0  0  0
  130.4769  137.4874  158.7993 H   0  0  0  0  0  0  0  0  0  0  0  0
  128.9279  134.7744  160.6552 H   0  0  0  0  0  0  0  0  0  0  0  0
  130.8932  135.6463  158.8237 H   0  0  0  0  0  0  0  0  0  0  0  0
  129.1602  130.7593  157.8694 H   0  0  0  0  0  0  0  0  0  0  0  0
  129.6613  132.9621  154.2602 H   0  0  0  0  0  0  0  0  0  0  0  0
  130.3593  131.8012  152.2067 H   0  0  0  0  0  0  0  0  0  0  0  0
  131.7631  129.7854  152.3449 H   0  0  0  0  0  0  0  0  0  0  0  0
  132.4833  128.9256  154.5346 H   0  0  0  0  0  0  0  0  0  0  0  0
  131.8018  130.0786  156.5981 H   0  0  0  0  0  0  0  0  0  0  0  0
  126.5266  135.1018  160.7551 H   0  0  0  0  0  0  0  0  0  0  0  0
  124.4211  135.2618  159.4884 H   0  0  0  0  0  0  0  0  0  0  0  0
  124.4657  135.8290  157.0926 H   0  0  0  0  0  0  0  0  0  0  0  0
  126.6152  136.2453  155.9658 H   0  0  0  0  0  0  0  0  0  0  0  0
  128.7200  136.0944  157.2347 H   0  0  0  0  0  0  0  0  0  0  0  0
  127.9265  136.7757  161.9230 H   0  0  0  0  0  0  0  0  0  0  0  0
  129.4670  136.9922  163.8556 H   0  0  0  0  0  0  0  0  0  0  0  0
  129.6613  135.5524  162.8286 H   0  0  0  0  0  0  0  0  0  0  0  0
  131.8854  136.5596  163.3900 H   0  0  0  0  0  0  0  0  0  0  0  0
  131.5695  136.6450  161.6418 H   0  0  0  0  0  0  0  0  0  0  0  0
  130.5495  138.9892  163.1006 H   0  0  0  0  0  0  0  0  0  0  0  0
  132.3089  138.7826  163.2660 H   0  0  0  0  0  0  0  0  0  0  0  0
  132.4048  138.4766  160.7829 H   0  0  0  0  0  0  0  0  0  0  0  0
  131.9850  140.0922  161.3475 H   0  0  0  0  0  0  0  0  0  0  0  0
  1 28  1  0
  1  2  2  0
  1 33  1  0
  2  3  1  0
  2 34  1  0
  3  4  1  6
  3 32  1  0
  3  5  1  0
  5  6  2  0
  5 35  1  0
  6  7  1  0
  6 28  1  0
  7  8  1  0
  7 22  1  0
  7 36  1  1
  8 37  1  0
  9  8  1  0
  9 20  2  0
  9 10  1  0
 10 11  1  0
 10 12  1  0
 12 13  2  0
 12 38  1  0
 13 14  1  0
 13 20  1  0
 14 19  1  0
 14 15  2  0
 15 16  1  0
 15 39  1  0
 16 17  2  0
 16 40  1  0
 17 18  1  0
 17 41  1  0
 18 19  2  0
 18 42  1  0
 19 43  1  0
 20 21  1  0
 22 27  1  0
 22 23  2  0
 23 24  1  0
 23 44  1  0
 24 25  2  0
 24 45  1  0
 25 26  1  0
 25 46  1  0
 26 27  2  0
 26 47  1  0
 27 48  1  0
 28 29  1  0
 28 49  1  1
 29 30  1  0
 29 50  1  0
 29 51  1  0
 30 31  1  0
 30 52  1  0
 30 53  1  0
 31 32  1  0
 31 54  1  0
 31 55  1  0
 32 56  1  0
 32 57  1  0
M  CHG  1  20   1
M  END
>  <DOCK_score>  (1) 
-61.073196

>  <SMILES>  (1) 
C1=C[C@@H]2C=C(C(Nc3[nH]cc(-c4ccccc4)[nH+]3)c3ccccc3)C1CCCC2

$$$$
