CCC[NH2+]Cc1c[nH]nc1-c1ccc(N[C@@H]2Cc3ccc([N+](=O)[O-])cc3C2)o1
     RDKit          3D

 52 55  0  0  1  0  0  0  0  0999 V2000
  133.9240  140.0020  160.8062 C   0  0  0  0  0  0  0  0  0  0  0  0
  133.6656  138.7325  159.9923 C   0  0  0  0  0  0  0  0  0  0  0  0
  132.7023  137.8231  160.7577 C   0  0  0  0  0  0  0  0  0  0  0  0
  132.4544  136.6041  159.9763 N   0  0  0  0  0  0  0  0  0  0  0  0
  133.3259  136.1189  159.8244 H   0  0  0  0  0  0  0  0  0  0  0  0
  132.0477  136.8518  159.0867 H   0  0  0  0  0  0  0  0  0  0  0  0
  131.5295  135.7309  160.7113 C   0  0  0  0  0  0  0  0  0  0  0  0
  131.2752  134.4805  159.9096 C   0  0  0  0  0  0  0  0  0  0  0  0
  132.2092  133.7355  159.2805 C   0  0  0  0  0  0  0  0  0  0  0  0
  131.5823  132.7058  158.6713 N   0  0  0  0  0  0  0  0  0  0  0  0
  132.0082  132.0135  158.1419 H   0  0  0  0  0  0  0  0  0  0  0  0
  130.2109  132.8106  158.9359 N   0  0  0  0  0  0  0  0  0  0  0  0
  130.0193  133.8779  159.6861 C   0  0  0  0  0  0  0  0  0  0  0  0
  128.7195  134.3605  160.1966 C   0  0  0  0  0  0  0  0  0  0  0  0
  127.5116  133.7779  159.9761 C   0  0  0  0  0  0  0  0  0  0  0  0
  126.5522  134.5605  160.6486 C   0  0  0  0  0  0  0  0  0  0  0  0
  127.2194  135.5827  161.2400 C   0  0  0  0  0  0  0  0  0  0  0  0
  126.6463  136.5907  162.0067 N   0  0  0  0  0  0  0  0  0  0  0  0
  127.4140  137.2161  163.0863 C   0  0  2  0  0  0  0  0  0  0  0  0
  128.4504  137.3680  162.7850 H   0  0  0  0  0  0  0  0  0  0  0  0
  127.3359  136.3713  164.3757 C   0  0  0  0  0  0  0  0  0  0  0  0
  127.3140  137.3816  165.5069 C   0  0  0  0  0  0  0  0  0  0  0  0
  127.5623  137.2177  166.8595 C   0  0  0  0  0  0  0  0  0  0  0  0
  127.4869  138.2983  167.7159 C   0  0  0  0  0  0  0  0  0  0  0  0
  127.1627  139.5485  167.2224 C   0  0  0  0  0  0  0  0  0  0  0  0
  127.0817  140.7084  168.1383 N   0  0  0  0  0  0  0  0  0  0  0  0
  127.3008  140.5617  169.3275 O   0  0  0  0  0  0  0  0  0  0  0  0
  126.7960  141.8095  167.7029 O   0  0  0  0  0  0  0  0  0  0  0  0
  126.9148  139.7139  165.8738 C   0  0  0  0  0  0  0  0  0  0  0  0
  126.9898  138.6313  165.0134 C   0  0  0  0  0  0  0  0  0  0  0  0
  126.7672  138.5492  163.5184 C   0  0  0  0  0  0  0  0  0  0  0  0
  128.5277  135.4573  160.9595 O   0  0  0  0  0  0  0  0  0  0  0  0
  134.6103  140.6499  160.2609 H   0  0  0  0  0  0  0  0  0  0  0  0
  132.9825  140.5262  160.9703 H   0  0  0  0  0  0  0  0  0  0  0  0
  134.3632  139.7344  161.7672 H   0  0  0  0  0  0  0  0  0  0  0  0
  134.6071  138.2083  159.8281 H   0  0  0  0  0  0  0  0  0  0  0  0
  133.2265  139.0001  159.0313 H   0  0  0  0  0  0  0  0  0  0  0  0
  131.7609  138.3472  160.9219 H   0  0  0  0  0  0  0  0  0  0  0  0
  133.1416  137.5555  161.7188 H   0  0  0  0  0  0  0  0  0  0  0  0
  130.5880  136.2552  160.8755 H   0  0  0  0  0  0  0  0  0  0  0  0
  131.9688  135.4634  161.6724 H   0  0  0  0  0  0  0  0  0  0  0  0
  133.2713  133.9312  159.2637 H   0  0  0  0  0  0  0  0  0  0  0  0
  127.3237  132.8840  159.3999 H   0  0  0  0  0  0  0  0  0  0  0  0
  125.4879  134.3807  160.6859 H   0  0  0  0  0  0  0  0  0  0  0  0
  125.7380  136.8800  161.8267 H   0  0  0  0  0  0  0  0  0  0  0  0
  126.4225  135.7766  164.3833 H   0  0  0  0  0  0  0  0  0  0  0  0
  128.2097  135.7251  164.4580 H   0  0  0  0  0  0  0  0  0  0  0  0
  127.8156  136.2414  167.2458 H   0  0  0  0  0  0  0  0  0  0  0  0
  127.6815  138.1672  168.7702 H   0  0  0  0  0  0  0  0  0  0  0  0
  126.6612  140.6907  165.4891 H   0  0  0  0  0  0  0  0  0  0  0  0
  127.2539  139.3858  163.0171 H   0  0  0  0  0  0  0  0  0  0  0  0
  125.7008  138.5428  163.2932 H   0  0  0  0  0  0  0  0  0  0  0  0
  1  2  1  0
  1 33  1  0
  1 34  1  0
  1 35  1  0
  2  3  1  0
  2 36  1  0
  2 37  1  0
  3  4  1  0
  3 38  1  0
  3 39  1  0
  4  5  1  0
  4  6  1  0
  4  7  1  0
  7  8  1  0
  7 40  1  0
  7 41  1  0
  8 13  1  0
  8  9  2  0
  9 10  1  0
  9 42  1  0
 10 11  1  0
 10 12  1  0
 12 13  2  0
 13 14  1  0
 14 32  1  0
 14 15  2  0
 15 16  1  0
 15 43  1  0
 16 17  2  0
 16 44  1  0
 17 18  1  0
 17 32  1  0
 18 19  1  0
 18 45  1  0
 19 20  1  6
 19 31  1  0
 19 21  1  0
 21 22  1  0
 21 46  1  0
 21 47  1  0
 22 30  2  0
 22 23  1  0
 23 24  2  0
 23 48  1  0
 24 25  1  0
 24 49  1  0
 25 26  1  0
 25 29  2  0
 26 27  2  0
 26 28  1  0
 29 30  1  0
 29 50  1  0
 30 31  1  0
 31 51  1  0
 31 52  1  0
M  CHG  3   4   1  26   1  28  -1
M  END
>  <DOCK_score>  (1) 
-42.739853

>  <SMILES>  (1) 
CCC[NH2+]Cc1c[nH]nc1-c1ccc(N[C@@H]2Cc3ccc([N+](=O)[O-])cc3C2)o1

$$$$
