CSC(=C[C@H](Nc1[nH]cc(-c2ccc(N)cc2)[nH+]1)c1ccccc1)SC
     RDKit          3D

 49 51  0  0  1  0  0  0  0  0999 V2000
  132.0695  139.1294  159.7938 C   0  0  0  0  0  0  0  0  0  0  0  0
  131.0487  138.3965  161.1020 S   0  0  0  0  0  0  0  0  0  0  0  0
  130.5987  136.8333  160.4248 C   0  0  0  0  0  0  0  0  0  0  0  0
  129.4868  136.7165  159.6996 C   0  0  0  0  0  0  0  0  0  0  0  0
  129.1020  135.3797  159.1204 C   0  0  2  0  0  0  0  0  0  0  0  0
  128.9670  134.6594  159.9273 H   0  0  0  0  0  0  0  0  0  0  0  0
  130.1610  134.9136  158.2219 N   0  0  0  0  0  0  0  0  0  0  0  0
  130.0302  133.7000  157.5685 C   0  0  0  0  0  0  0  0  0  0  0  0
  129.3514  132.6173  158.0360 N   0  0  0  0  0  0  0  0  0  0  0  0
  128.8757  132.5575  158.8793 H   0  0  0  0  0  0  0  0  0  0  0  0
  129.4641  131.6240  157.0923 C   0  0  0  0  0  0  0  0  0  0  0  0
  130.2076  132.1289  156.0770 C   0  0  0  0  0  0  0  0  0  0  0  0
  130.5902  131.4130  154.8352 C   0  0  0  0  0  0  0  0  0  0  0  0
  130.1915  131.9065  153.5939 C   0  0  0  0  0  0  0  0  0  0  0  0
  130.5531  131.2424  152.4407 C   0  0  0  0  0  0  0  0  0  0  0  0
  131.3044  130.0760  152.5157 C   0  0  0  0  0  0  0  0  0  0  0  0
  131.6643  129.4012  151.3468 N   0  0  0  0  0  0  0  0  0  0  0  0
  131.6985  129.5789  153.7527 C   0  0  0  0  0  0  0  0  0  0  0  0
  131.3440  130.2427  154.9083 C   0  0  0  0  0  0  0  0  0  0  0  0
  130.5403  133.4044  156.3978 N   0  0  0  0  0  0  0  0  0  0  0  0
  131.0708  134.0023  155.8483 H   0  0  0  0  0  0  0  0  0  0  0  0
  127.8142  135.5180  158.3499 C   0  0  0  0  0  0  0  0  0  0  0  0
  126.6031  135.3248  158.9874 C   0  0  0  0  0  0  0  0  0  0  0  0
  125.4217  135.4560  158.2816 C   0  0  0  0  0  0  0  0  0  0  0  0
  125.4519  135.7715  156.9361 C   0  0  0  0  0  0  0  0  0  0  0  0
  126.6633  135.9596  156.2972 C   0  0  0  0  0  0  0  0  0  0  0  0
  127.8445  135.8326  157.0042 C   0  0  0  0  0  0  0  0  0  0  0  0
  131.6188  135.4245  160.7063 S   0  0  0  0  0  0  0  0  0  0  0  0
  132.3598  135.7743  162.3246 C   0  0  0  0  0  0  0  0  0  0  0  0
  131.4636  139.2767  158.8998 H   0  0  0  0  0  0  0  0  0  0  0  0
  132.4585  140.0900  160.1316 H   0  0  0  0  0  0  0  0  0  0  0  0
  132.9000  138.4617  159.5640 H   0  0  0  0  0  0  0  0  0  0  0  0
  128.8616  137.5800  159.5271 H   0  0  0  0  0  0  0  0  0  0  0  0
  130.9539  135.4553  158.0848 H   0  0  0  0  0  0  0  0  0  0  0  0
  129.0447  130.6305  157.1504 H   0  0  0  0  0  0  0  0  0  0  0  0
  129.6036  132.8105  153.5353 H   0  0  0  0  0  0  0  0  0  0  0  0
  130.2480  131.6266  151.4786 H   0  0  0  0  0  0  0  0  0  0  0  0
  132.1888  128.5870  151.3984 H   0  0  0  0  0  0  0  0  0  0  0  0
  131.3895  129.7472  150.4832 H   0  0  0  0  0  0  0  0  0  0  0  0
  132.2827  128.6722  153.8088 H   0  0  0  0  0  0  0  0  0  0  0  0
  131.6506  129.8564  155.8691 H   0  0  0  0  0  0  0  0  0  0  0  0
  126.5796  135.0745  160.0378 H   0  0  0  0  0  0  0  0  0  0  0  0
  124.4752  135.3093  158.7808 H   0  0  0  0  0  0  0  0  0  0  0  0
  124.5291  135.8713  156.3840 H   0  0  0  0  0  0  0  0  0  0  0  0
  126.6868  136.2061  155.2462 H   0  0  0  0  0  0  0  0  0  0  0  0
  128.7908  135.9796  156.5050 H   0  0  0  0  0  0  0  0  0  0  0  0
  133.1141  135.0201  162.5496 H   0  0  0  0  0  0  0  0  0  0  0  0
  132.8255  136.7596  162.3057 H   0  0  0  0  0  0  0  0  0  0  0  0
  131.5852  135.7532  163.0912 H   0  0  0  0  0  0  0  0  0  0  0  0
  1  2  1  0
  1 30  1  0
  1 31  1  0
  1 32  1  0
  2  3  1  0
  3  4  2  0
  3 28  1  0
  4  5  1  0
  4 33  1  0
  5  6  1  1
  5  7  1  0
  5 22  1  0
  7 34  1  0
  8  7  1  0
  8 20  2  0
  8  9  1  0
  9 10  1  0
  9 11  1  0
 11 12  2  0
 11 35  1  0
 12 13  1  0
 12 20  1  0
 13 19  1  0
 13 14  2  0
 14 15  1  0
 14 36  1  0
 15 16  2  0
 15 37  1  0
 16 17  1  0
 16 18  1  0
 17 38  1  0
 17 39  1  0
 18 19  2  0
 18 40  1  0
 19 41  1  0
 20 21  1  0
 22 27  1  0
 22 23  2  0
 23 24  1  0
 23 42  1  0
 24 25  2  0
 24 43  1  0
 25 26  1  0
 25 44  1  0
 26 27  2  0
 26 45  1  0
 27 46  1  0
 28 29  1  0
 29 47  1  0
 29 48  1  0
 29 49  1  0
M  CHG  1  20   1
M  END
>  <DOCK_score>  (1) 
-62.288589

>  <SMILES>  (1) 
CSC(=C[C@H](Nc1[nH]cc(-c2ccc(N)cc2)[nH+]1)c1ccccc1)SC

$$$$
