Cc1c[nH]c(Nc2ccc(NC=CBr)cc2)[nH+]1
     RDKit          3D

 31 32  0  0  1  0  0  0  0  0999 V2000
  130.2584  131.8997  154.6782 C   0  0  0  0  0  0  0  0  0  0  0  0
  129.9607  132.5551  156.0022 C   0  0  0  0  0  0  0  0  0  0  0  0
  129.3517  131.9725  157.0492 C   0  0  0  0  0  0  0  0  0  0  0  0
  129.2806  132.9166  158.0482 N   0  0  0  0  0  0  0  0  0  0  0  0
  128.8940  132.7958  158.9295 H   0  0  0  0  0  0  0  0  0  0  0  0
  129.8559  134.0512  157.5653 C   0  0  0  0  0  0  0  0  0  0  0  0
  129.9930  135.2461  158.2529 N   0  0  0  0  0  0  0  0  0  0  0  0
  129.0518  135.6066  159.2249 C   0  0  0  0  0  0  0  0  0  0  0  0
  129.4368  136.3838  160.3098 C   0  0  0  0  0  0  0  0  0  0  0  0
  128.5075  136.7441  161.2652 C   0  0  0  0  0  0  0  0  0  0  0  0
  127.1903  136.3192  161.1477 C   0  0  0  0  0  0  0  0  0  0  0  0
  126.2499  136.6788  162.1196 N   0  0  0  0  0  0  0  0  0  0  0  0
  126.6526  136.8830  163.4353 C   0  0  0  0  0  0  0  0  0  0  0  0
  127.2219  135.9017  164.1115 C   0  0  0  0  0  0  0  0  0  0  0  0
  127.7695  136.1794  165.9001 Br  0  0  0  0  0  0  0  0  0  0  0  0
  126.8066  135.5372  160.0656 C   0  0  0  0  0  0  0  0  0  0  0  0
  127.7346  135.1823  159.1071 C   0  0  0  0  0  0  0  0  0  0  0  0
  130.2639  133.8197  156.3397 N   0  0  0  0  0  0  0  0  0  0  0  0
  130.7119  134.4614  155.7668 H   0  0  0  0  0  0  0  0  0  0  0  0
  129.4183  132.0517  154.0005 H   0  0  0  0  0  0  0  0  0  0  0  0
  131.1569  132.3420  154.2478 H   0  0  0  0  0  0  0  0  0  0  0  0
  130.4154  130.8316  154.8286 H   0  0  0  0  0  0  0  0  0  0  0  0
  128.9877  130.9569  157.0976 H   0  0  0  0  0  0  0  0  0  0  0  0
  130.7411  135.8329  158.0610 H   0  0  0  0  0  0  0  0  0  0  0  0
  130.4621  136.7098  160.4037 H   0  0  0  0  0  0  0  0  0  0  0  0
  128.8061  137.3518  162.1065 H   0  0  0  0  0  0  0  0  0  0  0  0
  125.3171  136.7856  161.8759 H   0  0  0  0  0  0  0  0  0  0  0  0
  126.4998  137.8440  163.9037 H   0  0  0  0  0  0  0  0  0  0  0  0
  127.3746  134.9407  163.6430 H   0  0  0  0  0  0  0  0  0  0  0  0
  125.7825  135.2066  159.9744 H   0  0  0  0  0  0  0  0  0  0  0  0
  127.4363  134.5742  158.2658 H   0  0  0  0  0  0  0  0  0  0  0  0
  1  2  1  0
  1 20  1  0
  1 21  1  0
  1 22  1  0
  2 18  1  0
  2  3  2  0
  3  4  1  0
  3 23  1  0
  4  5  1  0
  4  6  1  0
  6  7  1  0
  6 18  2  0
  7  8  1  0
  7 24  1  0
  8 17  1  0
  8  9  2  0
  9 10  1  0
  9 25  1  0
 10 11  2  0
 10 26  1  0
 11 12  1  0
 11 16  1  0
 12 13  1  0
 12 27  1  0
 13 14  2  0
 13 28  1  0
 14 15  1  0
 14 29  1  0
 16 17  2  0
 16 30  1  0
 17 31  1  0
 18 19  1  0
M  CHG  1  18   1
M  END
>  <DOCK_score>  (1) 
-45.129776

>  <SMILES>  (1) 
Cc1c[nH]c(Nc2ccc(NC=CBr)cc2)[nH+]1

$$$$
