Cc1ccc(-c2ccc(-c3n[nH]cc3C[NH2+]Cc3cc4ccccc4[nH]3)cc2)cc1
     RDKit          3D

 55 59  0  0  0  0  0  0  0  0999 V2000
  131.8924  129.3738  152.7488 C   0  0  0  0  0  0  0  0  0  0  0  0
  131.2737  130.2154  153.8353 C   0  0  0  0  0  0  0  0  0  0  0  0
  130.3669  131.2068  153.5066 C   0  0  0  0  0  0  0  0  0  0  0  0
  129.7928  131.9769  154.4976 C   0  0  0  0  0  0  0  0  0  0  0  0
  130.1327  131.7574  155.8315 C   0  0  0  0  0  0  0  0  0  0  0  0
  129.5197  132.5819  156.9012 C   0  0  0  0  0  0  0  0  0  0  0  0
  129.3211  132.0410  158.1711 C   0  0  0  0  0  0  0  0  0  0  0  0
  128.7563  132.8084  159.1659 C   0  0  0  0  0  0  0  0  0  0  0  0
  128.3731  134.1225  158.9001 C   0  0  0  0  0  0  0  0  0  0  0  0
  127.7591  134.9467  159.9697 C   0  0  0  0  0  0  0  0  0  0  0  0
  126.5584  135.4860  159.9393 N   0  0  0  0  0  0  0  0  0  0  0  0
  126.3635  136.1824  161.1388 N   0  0  0  0  0  0  0  0  0  0  0  0
  125.5664  136.6762  161.3872 H   0  0  0  0  0  0  0  0  0  0  0  0
  127.4778  136.0471  161.8896 C   0  0  0  0  0  0  0  0  0  0  0  0
  128.3553  135.2858  161.2002 C   0  0  0  0  0  0  0  0  0  0  0  0
  129.7294  134.8757  161.6635 C   0  0  0  0  0  0  0  0  0  0  0  0
  130.7101  135.8845  161.2405 N   0  0  0  0  0  0  0  0  0  0  0  0
  130.7028  135.9594  160.2343 H   0  0  0  0  0  0  0  0  0  0  0  0
  130.4709  136.7768  161.6460 H   0  0  0  0  0  0  0  0  0  0  0  0
  132.0495  135.4846  161.6920 C   0  0  0  0  0  0  0  0  0  0  0  0
  133.0556  136.5194  161.2581 C   0  0  0  0  0  0  0  0  0  0  0  0
  134.0324  137.0169  162.0328 C   0  0  0  0  0  0  0  0  0  0  0  0
  134.7714  137.9864  161.2205 C   0  0  0  0  0  0  0  0  0  0  0  0
  135.8704  138.8143  161.4583 C   0  0  0  0  0  0  0  0  0  0  0  0
  136.3346  139.6276  160.4635 C   0  0  0  0  0  0  0  0  0  0  0  0
  135.7220  139.6380  159.2176 C   0  0  0  0  0  0  0  0  0  0  0  0
  134.6365  138.8296  158.9617 C   0  0  0  0  0  0  0  0  0  0  0  0
  134.1471  137.9931  159.9600 C   0  0  0  0  0  0  0  0  0  0  0  0
  133.1122  137.0867  160.0142 N   0  0  0  0  0  0  0  0  0  0  0  0
  132.5110  136.8828  159.2809 H   0  0  0  0  0  0  0  0  0  0  0  0
  128.5668  134.6617  157.6289 C   0  0  0  0  0  0  0  0  0  0  0  0
  129.1365  133.8961  156.6355 C   0  0  0  0  0  0  0  0  0  0  0  0
  131.0510  130.7606  156.1564 C   0  0  0  0  0  0  0  0  0  0  0  0
  131.6187  129.9966  155.1569 C   0  0  0  0  0  0  0  0  0  0  0  0
  132.8110  129.8466  152.4017 H   0  0  0  0  0  0  0  0  0  0  0  0
  132.1197  128.3829  153.1420 H   0  0  0  0  0  0  0  0  0  0  0  0
  131.1937  129.2832  151.9172 H   0  0  0  0  0  0  0  0  0  0  0  0
  130.1042  131.3758  152.4727 H   0  0  0  0  0  0  0  0  0  0  0  0
  129.0821  132.7481  154.2402 H   0  0  0  0  0  0  0  0  0  0  0  0
  129.6138  131.0217  158.3756 H   0  0  0  0  0  0  0  0  0  0  0  0
  128.6062  132.3908  160.1505 H   0  0  0  0  0  0  0  0  0  0  0  0
  127.6374  136.4690  162.8709 H   0  0  0  0  0  0  0  0  0  0  0  0
  129.7373  134.7948  162.7505 H   0  0  0  0  0  0  0  0  0  0  0  0
  129.9878  133.9117  161.2255 H   0  0  0  0  0  0  0  0  0  0  0  0
  132.0575  135.4036  162.7791 H   0  0  0  0  0  0  0  0  0  0  0  0
  132.3080  134.5205  161.2539 H   0  0  0  0  0  0  0  0  0  0  0  0
  134.2349  136.7527  163.0603 H   0  0  0  0  0  0  0  0  0  0  0  0
  136.3522  138.8112  162.4249 H   0  0  0  0  0  0  0  0  0  0  0  0
  137.1848  140.2676  160.6477 H   0  0  0  0  0  0  0  0  0  0  0  0
  136.1006  140.2864  158.4412 H   0  0  0  0  0  0  0  0  0  0  0  0
  134.1667  138.8452  157.9893 H   0  0  0  0  0  0  0  0  0  0  0  0
  128.2697  135.6794  157.4230 H   0  0  0  0  0  0  0  0  0  0  0  0
  129.2862  134.3137  155.6507 H   0  0  0  0  0  0  0  0  0  0  0  0
  131.3177  130.5859  157.1883 H   0  0  0  0  0  0  0  0  0  0  0  0
  132.3304  129.2240  155.4074 H   0  0  0  0  0  0  0  0  0  0  0  0
  1  2  1  0
  1 35  1  0
  1 36  1  0
  1 37  1  0
  2 34  2  0
  2  3  1  0
  3  4  2  0
  3 38  1  0
  4  5  1  0
  4 39  1  0
  5  6  1  0
  5 33  2  0
  6 32  1  0
  6  7  2  0
  7  8  1  0
  7 40  1  0
  8  9  2  0
  8 41  1  0
  9 10  1  0
  9 31  1  0
 10 15  1  0
 10 11  2  0
 11 12  1  0
 12 13  1  0
 12 14  1  0
 14 15  2  0
 14 42  1  0
 15 16  1  0
 16 17  1  0
 16 43  1  0
 16 44  1  0
 17 18  1  0
 17 19  1  0
 17 20  1  0
 20 21  1  0
 20 45  1  0
 20 46  1  0
 21 29  1  0
 21 22  2  0
 22 23  1  0
 22 47  1  0
 23 28  2  0
 23 24  1  0
 24 25  2  0
 24 48  1  0
 25 26  1  0
 25 49  1  0
 26 27  2  0
 26 50  1  0
 27 28  1  0
 27 51  1  0
 28 29  1  0
 29 30  1  0
 31 32  2  0
 31 52  1  0
 32 53  1  0
 33 34  1  0
 33 54  1  0
 34 55  1  0
M  CHG  1  17   1
M  END
>  <DOCK_score>  (1) 
-55.043839

>  <SMILES>  (1) 
Cc1ccc(-c2ccc(-c3n[nH]cc3C[NH2+]Cc3cc4ccccc4[nH]3)cc2)cc1

$$$$
