CC1=CC[N@H+](C(Cc2ccccc2C(=O)Nc2nc3ccccc3[nH]2)c2ccc(O)cc2)C1
     RDKit          3D

 60 64  0  0  1  0  0  0  0  0999 V2000
  133.9791  135.4848  161.7396 C   0  0  0  0  0  0  0  0  0  0  0  0
  132.5470  135.2771  161.3189 C   0  0  0  0  0  0  0  0  0  0  0  0
  131.5241  135.9727  161.7489 C   0  0  0  0  0  0  0  0  0  0  0  0
  130.2568  135.4669  161.0934 C   0  0  0  0  0  0  0  0  0  0  0  0
  130.7119  134.6704  159.9291 N   0  0  2  0  0  0  0  0  0  0  0  0
  130.7545  135.2428  159.0992 H   0  0  0  0  0  0  0  0  0  0  0  0
  129.8345  133.5116  159.7164 C   0  0  1  0  0  0  0  0  0  0  0  0
  128.4060  133.9943  159.4567 C   0  0  0  0  0  0  0  0  0  0  0  0
  127.4393  132.8694  159.7231 C   0  0  0  0  0  0  0  0  0  0  0  0
  127.5291  131.6956  159.0036 C   0  0  0  0  0  0  0  0  0  0  0  0
  126.6426  130.6619  159.2470 C   0  0  0  0  0  0  0  0  0  0  0  0
  125.6598  130.7976  160.2119 C   0  0  0  0  0  0  0  0  0  0  0  0
  125.5625  131.9635  160.9423 C   0  0  0  0  0  0  0  0  0  0  0  0
  126.4508  133.0127  160.6981 C   0  0  0  0  0  0  0  0  0  0  0  0
  126.3486  134.2672  161.4727 C   0  0  0  0  0  0  0  0  0  0  0  0
  126.1481  135.3204  160.9001 O   0  0  0  0  0  0  0  0  0  0  0  0
  126.4776  134.2435  162.8141 N   0  0  0  0  0  0  0  0  0  0  0  0
  126.3762  135.4171  163.5396 C   0  0  0  0  0  0  0  0  0  0  0  0
  126.4799  135.5075  164.8412 N   0  0  0  0  0  0  0  0  0  0  0  0
  126.3334  136.8033  165.2215 C   0  0  0  0  0  0  0  0  0  0  0  0
  126.3562  137.4489  166.4607 C   0  0  0  0  0  0  0  0  0  0  0  0
  126.1652  138.8107  166.5256 C   0  0  0  0  0  0  0  0  0  0  0  0
  125.9502  139.5475  165.3699 C   0  0  0  0  0  0  0  0  0  0  0  0
  125.9252  138.9254  164.1390 C   0  0  0  0  0  0  0  0  0  0  0  0
  126.1152  137.5543  164.0546 C   0  0  0  0  0  0  0  0  0  0  0  0
  126.1474  136.6522  163.0050 N   0  0  0  0  0  0  0  0  0  0  0  0
  126.0296  136.8592  162.0647 H   0  0  0  0  0  0  0  0  0  0  0  0
  130.3221  132.7235  158.5281 C   0  0  0  0  0  0  0  0  0  0  0  0
  130.3923  133.3230  157.2841 C   0  0  0  0  0  0  0  0  0  0  0  0
  130.8444  132.6043  156.1944 C   0  0  0  0  0  0  0  0  0  0  0  0
  131.2175  131.2769  156.3466 C   0  0  0  0  0  0  0  0  0  0  0  0
  131.6578  130.5663  155.2751 O   0  0  0  0  0  0  0  0  0  0  0  0
  131.1410  130.6761  157.5949 C   0  0  0  0  0  0  0  0  0  0  0  0
  130.6935  131.4007  158.6826 C   0  0  0  0  0  0  0  0  0  0  0  0
  132.0687  134.2339  160.3358 C   0  0  0  0  0  0  0  0  0  0  0  0
  134.4541  136.2018  161.0702 H   0  0  0  0  0  0  0  0  0  0  0  0
  134.0063  135.8671  162.7600 H   0  0  0  0  0  0  0  0  0  0  0  0
  134.5128  134.5354  161.6929 H   0  0  0  0  0  0  0  0  0  0  0  0
  131.5761  136.7841  162.4597 H   0  0  0  0  0  0  0  0  0  0  0  0
  129.6404  136.3023  160.7616 H   0  0  0  0  0  0  0  0  0  0  0  0
  129.6993  134.8373  161.7868 H   0  0  0  0  0  0  0  0  0  0  0  0
  129.8482  132.8778  160.6031 H   0  0  0  0  0  0  0  0  0  0  0  0
  128.3138  134.3145  158.4189 H   0  0  0  0  0  0  0  0  0  0  0  0
  128.1799  134.8317  160.1167 H   0  0  0  0  0  0  0  0  0  0  0  0
  128.2935  131.5834  158.2490 H   0  0  0  0  0  0  0  0  0  0  0  0
  126.7174  129.7450  158.6812 H   0  0  0  0  0  0  0  0  0  0  0  0
  124.9706  129.9869  160.3967 H   0  0  0  0  0  0  0  0  0  0  0  0
  124.7984  132.0662  161.6986 H   0  0  0  0  0  0  0  0  0  0  0  0
  126.6376  133.4029  163.2710 H   0  0  0  0  0  0  0  0  0  0  0  0
  126.5234  136.8816  167.3643 H   0  0  0  0  0  0  0  0  0  0  0  0
  126.1833  139.3092  167.4835 H   0  0  0  0  0  0  0  0  0  0  0  0
  125.8013  140.6152  165.4345 H   0  0  0  0  0  0  0  0  0  0  0  0
  125.7575  139.5049  163.2432 H   0  0  0  0  0  0  0  0  0  0  0  0
  130.0976  134.3551  157.1651 H   0  0  0  0  0  0  0  0  0  0  0  0
  130.9032  133.0742  155.2236 H   0  0  0  0  0  0  0  0  0  0  0  0
  131.6764  131.0700  154.4499 H   0  0  0  0  0  0  0  0  0  0  0  0
  131.4305  129.6427  157.7159 H   0  0  0  0  0  0  0  0  0  0  0  0
  130.6334  130.9333  159.6543 H   0  0  0  0  0  0  0  0  0  0  0  0
  132.0229  133.2561  160.8153 H   0  0  0  0  0  0  0  0  0  0  0  0
  132.7299  134.1998  159.4699 H   0  0  0  0  0  0  0  0  0  0  0  0
  1  2  1  0
  1 36  1  0
  1 37  1  0
  1 38  1  0
  2 35  1  0
  2  3  2  0
  3  4  1  0
  3 39  1  0
  4  5  1  0
  4 40  1  0
  4 41  1  0
  5  6  1  6
  5  7  1  0
  5 35  1  0
  7  8  1  0
  7 28  1  0
  7 42  1  1
  8  9  1  0
  8 43  1  0
  8 44  1  0
  9 14  1  0
  9 10  2  0
 10 11  1  0
 10 45  1  0
 11 12  2  0
 11 46  1  0
 12 13  1  0
 12 47  1  0
 13 14  2  0
 13 48  1  0
 14 15  1  0
 15 16  2  0
 15 17  1  0
 17 18  1  0
 17 49  1  0
 18 26  1  0
 18 19  2  0
 19 20  1  0
 20 25  2  0
 20 21  1  0
 21 22  2  0
 21 50  1  0
 22 23  1  0
 22 51  1  0
 23 24  2  0
 23 52  1  0
 24 25  1  0
 24 53  1  0
 25 26  1  0
 26 27  1  0
 28 34  1  0
 28 29  2  0
 29 30  1  0
 29 54  1  0
 30 31  2  0
 30 55  1  0
 31 32  1  0
 31 33  1  0
 32 56  1  0
 33 34  2  0
 33 57  1  0
 34 58  1  0
 35 59  1  0
 35 60  1  0
M  CHG  1   5   1
M  END
>  <DOCK_score>  (1) 
-48.314526

>  <SMILES>  (1) 
CC1=CC[N@H+](C(Cc2ccccc2C(=O)Nc2nc3ccccc3[nH]2)c2ccc(O)cc2)C1

$$$$
