Cc1c(NC2CCCCC[C@@H]2C)cccc1N1CC[NH+](C(c2ccccc2)c2ccccc2)CC1
     RDKit          3D

 77 81  0  0  1  0  0  0  0  0999 V2000
  133.7401  134.7188  163.7545 C   0  0  0  0  0  0  0  0  0  0  0  0
  134.2623  135.8128  162.8593 C   0  0  0  0  0  0  0  0  0  0  0  0
  135.2688  136.6571  163.3074 C   0  0  0  0  0  0  0  0  0  0  0  0
  135.7991  136.4940  164.5892 N   0  0  0  0  0  0  0  0  0  0  0  0
  137.1929  136.8570  164.8568 C   0  0  2  0  0  0  0  0  0  0  0  0
  137.9670  135.5888  165.2648 C   0  0  0  0  0  0  0  0  0  0  0  0
  139.2676  135.9066  165.9516 C   0  0  0  0  0  0  0  0  0  0  0  0
  139.0302  135.9045  167.4755 C   0  0  0  0  0  0  0  0  0  0  0  0
  138.4274  137.1433  167.9448 C   0  0  0  0  0  0  0  0  0  0  0  0
  137.0357  137.3905  167.3275 C   0  0  0  0  0  0  0  0  0  0  0  0
  137.2196  137.9491  165.9423 C   0  0  2  0  0  0  0  0  0  0  0  0
  138.1780  138.4661  165.8948 H   0  0  0  0  0  0  0  0  0  0  0  0
  136.1011  138.9546  165.6615 C   0  0  0  0  0  0  0  0  0  0  0  0
  135.7520  137.6613  162.4774 C   0  0  0  0  0  0  0  0  0  0  0  0
  135.2277  137.8235  161.2092 C   0  0  0  0  0  0  0  0  0  0  0  0
  134.2221  136.9885  160.7623 C   0  0  0  0  0  0  0  0  0  0  0  0
  133.7339  135.9823  161.5875 C   0  0  0  0  0  0  0  0  0  0  0  0
  132.7169  135.1388  161.1350 N   0  0  0  0  0  0  0  0  0  0  0  0
  133.1647  134.3457  159.9814 C   0  0  0  0  0  0  0  0  0  0  0  0
  132.0447  133.3944  159.5545 C   0  0  0  0  0  0  0  0  0  0  0  0
  130.8495  134.1720  159.2017 N   0  0  0  0  0  0  0  0  0  0  0  0
  131.0711  134.8057  158.4484 H   0  0  0  0  0  0  0  0  0  0  0  0
  129.7806  133.2593  158.7750 C   0  0  0  0  0  0  0  0  0  0  0  0
  128.5540  134.0566  158.4128 C   0  0  0  0  0  0  0  0  0  0  0  0
  127.2975  133.5040  158.5755 C   0  0  0  0  0  0  0  0  0  0  0  0
  126.1723  134.2371  158.2478 C   0  0  0  0  0  0  0  0  0  0  0  0
  126.3041  135.5190  157.7475 C   0  0  0  0  0  0  0  0  0  0  0  0
  127.5609  136.0697  157.5800 C   0  0  0  0  0  0  0  0  0  0  0  0
  128.6859  135.3385  157.9126 C   0  0  0  0  0  0  0  0  0  0  0  0
  130.2409  132.4729  157.5747 C   0  0  0  0  0  0  0  0  0  0  0  0
  130.0112  132.9580  156.3008 C   0  0  0  0  0  0  0  0  0  0  0  0
  130.4378  132.2390  155.2000 C   0  0  0  0  0  0  0  0  0  0  0  0
  131.0849  131.0298  155.3727 C   0  0  0  0  0  0  0  0  0  0  0  0
  131.3100  130.5420  156.6464 C   0  0  0  0  0  0  0  0  0  0  0  0
  130.8880  131.2636  157.7474 C   0  0  0  0  0  0  0  0  0  0  0  0
  130.3999  134.9396  160.3705 C   0  0  0  0  0  0  0  0  0  0  0  0
  131.5064  135.9037  160.8043 C   0  0  0  0  0  0  0  0  0  0  0  0
  132.9068  135.0992  164.3450 H   0  0  0  0  0  0  0  0  0  0  0  0
  133.4010  133.8813  163.1447 H   0  0  0  0  0  0  0  0  0  0  0  0
  134.5351  134.3843  164.4211 H   0  0  0  0  0  0  0  0  0  0  0  0
  135.2445  136.1403  165.3022 H   0  0  0  0  0  0  0  0  0  0  0  0
  137.6313  137.2575  163.9428 H   0  0  0  0  0  0  0  0  0  0  0  0
  138.1745  134.9996  164.3716 H   0  0  0  0  0  0  0  0  0  0  0  0
  137.3467  134.9989  165.9397 H   0  0  0  0  0  0  0  0  0  0  0  0
  140.0108  135.1513  165.6957 H   0  0  0  0  0  0  0  0  0  0  0  0
  139.6173  136.8897  165.6368 H   0  0  0  0  0  0  0  0  0  0  0  0
  138.3720  135.0735  167.7291 H   0  0  0  0  0  0  0  0  0  0  0  0
  139.9855  135.7646  167.9815 H   0  0  0  0  0  0  0  0  0  0  0  0
  138.3296  137.0996  169.0296 H   0  0  0  0  0  0  0  0  0  0  0  0
  139.0812  137.9753  167.6830 H   0  0  0  0  0  0  0  0  0  0  0  0
  136.4869  136.4505  167.2732 H   0  0  0  0  0  0  0  0  0  0  0  0
  136.4850  138.1044  167.9399 H   0  0  0  0  0  0  0  0  0  0  0  0
  136.1456  139.7613  166.3932 H   0  0  0  0  0  0  0  0  0  0  0  0
  136.2249  139.3654  164.6597 H   0  0  0  0  0  0  0  0  0  0  0  0
  135.1357  138.4533  165.7318 H   0  0  0  0  0  0  0  0  0  0  0  0
  136.5383  138.3157  162.8238 H   0  0  0  0  0  0  0  0  0  0  0  0
  135.6054  138.6045  160.5660 H   0  0  0  0  0  0  0  0  0  0  0  0
  133.8147  137.1179  159.7705 H   0  0  0  0  0  0  0  0  0  0  0  0
  133.4103  135.0125  159.1549 H   0  0  0  0  0  0  0  0  0  0  0  0
  134.0469  133.7681  160.2576 H   0  0  0  0  0  0  0  0  0  0  0  0
  131.8088  132.7187  160.3767 H   0  0  0  0  0  0  0  0  0  0  0  0
  132.3696  132.8153  158.6902 H   0  0  0  0  0  0  0  0  0  0  0  0
  129.5415  132.5742  159.5884 H   0  0  0  0  0  0  0  0  0  0  0  0
  127.1948  132.5007  158.9620 H   0  0  0  0  0  0  0  0  0  0  0  0
  125.1904  133.8067  158.3784 H   0  0  0  0  0  0  0  0  0  0  0  0
  125.4252  136.0902  157.4875 H   0  0  0  0  0  0  0  0  0  0  0  0
  127.6640  137.0712  157.1888 H   0  0  0  0  0  0  0  0  0  0  0  0
  129.6678  135.7686  157.7813 H   0  0  0  0  0  0  0  0  0  0  0  0
  129.5016  133.9007  156.1658 H   0  0  0  0  0  0  0  0  0  0  0  0
  130.2615  132.6198  154.2048 H   0  0  0  0  0  0  0  0  0  0  0  0
  131.4142  130.4658  154.5125 H   0  0  0  0  0  0  0  0  0  0  0  0
  131.8153  129.5971  156.7814 H   0  0  0  0  0  0  0  0  0  0  0  0
  131.0637  130.8824  158.7425 H   0  0  0  0  0  0  0  0  0  0  0  0
  130.1725  134.2560  161.1885 H   0  0  0  0  0  0  0  0  0  0  0  0
  129.5055  135.5060  160.1111 H   0  0  0  0  0  0  0  0  0  0  0  0
  131.1787  136.4629  161.6806 H   0  0  0  0  0  0  0  0  0  0  0  0
  131.7246  136.5966  159.9915 H   0  0  0  0  0  0  0  0  0  0  0  0
  1  2  1  0
  1 38  1  0
  1 39  1  0
  1 40  1  0
  2 17  2  0
  2  3  1  0
  3  4  1  0
  3 14  2  0
  4  5  1  0
  4 41  1  0
  5 11  1  0
  5  6  1  0
  5 42  1  6
  6  7  1  0
  6 43  1  0
  6 44  1  0
  7  8  1  0
  7 45  1  0
  7 46  1  0
  8  9  1  0
  8 47  1  0
  8 48  1  0
  9 10  1  0
  9 49  1  0
  9 50  1  0
 10 11  1  0
 10 51  1  0
 10 52  1  0
 11 12  1  1
 11 13  1  0
 13 53  1  0
 13 54  1  0
 13 55  1  0
 14 15  1  0
 14 56  1  0
 15 16  2  0
 15 57  1  0
 16 17  1  0
 16 58  1  0
 17 18  1  0
 18 37  1  0
 18 19  1  0
 19 20  1  0
 19 59  1  0
 19 60  1  0
 20 21  1  0
 20 61  1  0
 20 62  1  0
 21 22  1  0
 21 23  1  0
 21 36  1  0
 23 24  1  0
 23 30  1  0
 23 63  1  0
 24 29  1  0
 24 25  2  0
 25 26  1  0
 25 64  1  0
 26 27  2  0
 26 65  1  0
 27 28  1  0
 27 66  1  0
 28 29  2  0
 28 67  1  0
 29 68  1  0
 30 35  1  0
 30 31  2  0
 31 32  1  0
 31 69  1  0
 32 33  2  0
 32 70  1  0
 33 34  1  0
 33 71  1  0
 34 35  2  0
 34 72  1  0
 35 73  1  0
 36 37  1  0
 36 74  1  0
 36 75  1  0
 37 76  1  0
 37 77  1  0
M  CHG  1  21   1
M  END
>  <DOCK_score>  (1) 
-57.110233

>  <SMILES>  (1) 
Cc1c(NC2CCCCC[C@@H]2C)cccc1N1CC[NH+](C(c2ccccc2)c2ccccc2)CC1

$$$$
