O=C1CCC(NC(NC2CCC2)=[NH+][C@@H]2C=C(c3ccc(Cl)cc3)CCC2)CN1
     RDKit          3D

 58 61  0  0  1  0  0  0  0  0999 V2000
  123.4747  132.6143  161.1806 O   0  0  0  0  0  0  0  0  0  0  0  0
  124.5928  133.0420  160.9858 C   0  0  0  0  0  0  0  0  0  0  0  0
  125.6518  132.0803  160.5288 C   0  0  0  0  0  0  0  0  0  0  0  0
  127.0389  132.6857  160.7579 C   0  0  0  0  0  0  0  0  0  0  0  0
  127.0419  134.1082  160.1875 C   0  0  2  0  0  0  0  0  0  0  0  0
  128.4033  134.6476  160.2308 N   0  0  0  0  0  0  0  0  0  0  0  0
  129.2499  134.4639  159.1632 C   0  0  0  0  0  0  0  0  0  0  0  0
  128.8188  133.7741  158.0547 N   0  0  0  0  0  0  0  0  0  0  0  0
  129.7210  133.5784  156.9171 C   0  0  0  0  0  0  0  0  0  0  0  0
  129.3401  132.3831  156.0276 C   0  0  0  0  0  0  0  0  0  0  0  0
  130.8464  132.0815  155.9265 C   0  0  0  0  0  0  0  0  0  0  0  0
  131.0030  132.8076  157.2731 C   0  0  0  0  0  0  0  0  0  0  0  0
  130.4611  134.9439  159.2018 N   0  0  0  0  0  0  0  0  0  0  0  0
  130.9020  135.2145  158.3812 H   0  0  0  0  0  0  0  0  0  0  0  0
  131.1566  135.0747  160.4845 C   0  0  2  0  0  0  0  0  0  0  0  0
  130.8064  134.2995  161.1661 H   0  0  0  0  0  0  0  0  0  0  0  0
  130.8618  136.4227  161.0750 C   0  0  0  0  0  0  0  0  0  0  0  0
  131.7640  137.1821  161.6480 C   0  0  0  0  0  0  0  0  0  0  0  0
  131.3305  138.4845  162.1963 C   0  0  0  0  0  0  0  0  0  0  0  0
  131.8960  139.6680  161.7202 C   0  0  0  0  0  0  0  0  0  0  0  0
  131.4839  140.8808  162.2322 C   0  0  0  0  0  0  0  0  0  0  0  0
  130.5189  140.9247  163.2241 C   0  0  0  0  0  0  0  0  0  0  0  0
  130.0105  142.4543  163.8688 Cl  0  0  0  0  0  0  0  0  0  0  0  0
  129.9579  139.7534  163.7042 C   0  0  0  0  0  0  0  0  0  0  0  0
  130.3582  138.5349  163.1960 C   0  0  0  0  0  0  0  0  0  0  0  0
  133.2112  136.8067  161.7801 C   0  0  0  0  0  0  0  0  0  0  0  0
  133.3876  135.3030  161.5579 C   0  0  0  0  0  0  0  0  0  0  0  0
  132.6621  134.9140  160.2639 C   0  0  0  0  0  0  0  0  0  0  0  0
  126.1174  134.9799  161.0383 C   0  0  0  0  0  0  0  0  0  0  0  0
  124.8159  134.3410  161.1884 N   0  0  0  0  0  0  0  0  0  0  0  0
  125.5647  131.1513  161.0921 H   0  0  0  0  0  0  0  0  0  0  0  0
  125.5193  131.8736  159.4668 H   0  0  0  0  0  0  0  0  0  0  0  0
  127.2545  132.7154  161.8260 H   0  0  0  0  0  0  0  0  0  0  0  0
  127.7910  132.0832  160.2485 H   0  0  0  0  0  0  0  0  0  0  0  0
  126.6847  134.0928  159.1578 H   0  0  0  0  0  0  0  0  0  0  0  0
  128.7074  135.1344  161.0127 H   0  0  0  0  0  0  0  0  0  0  0  0
  127.9174  133.4168  158.0262 H   0  0  0  0  0  0  0  0  0  0  0  0
  129.9042  134.4967  156.3594 H   0  0  0  0  0  0  0  0  0  0  0  0
  128.7747  131.6120  156.5510 H   0  0  0  0  0  0  0  0  0  0  0  0
  128.8869  132.6715  155.0792 H   0  0  0  0  0  0  0  0  0  0  0  0
  131.3374  132.5900  155.0966 H   0  0  0  0  0  0  0  0  0  0  0  0
  131.0855  131.0191  155.9728 H   0  0  0  0  0  0  0  0  0  0  0  0
  131.8905  133.4381  157.3286 H   0  0  0  0  0  0  0  0  0  0  0  0
  130.8935  132.1538  158.1384 H   0  0  0  0  0  0  0  0  0  0  0  0
  129.8471  136.7889  161.0246 H   0  0  0  0  0  0  0  0  0  0  0  0
  132.6521  139.6346  160.9496 H   0  0  0  0  0  0  0  0  0  0  0  0
  131.9177  141.7978  161.8613 H   0  0  0  0  0  0  0  0  0  0  0  0
  129.2054  139.7936  164.4776 H   0  0  0  0  0  0  0  0  0  0  0  0
  129.9204  137.6219  163.5715 H   0  0  0  0  0  0  0  0  0  0  0  0
  133.5627  137.0681  162.7781 H   0  0  0  0  0  0  0  0  0  0  0  0
  133.7932  137.3523  161.0375 H   0  0  0  0  0  0  0  0  0  0  0  0
  132.9583  134.7560  162.3972 H   0  0  0  0  0  0  0  0  0  0  0  0
  134.4482  135.0681  161.4680 H   0  0  0  0  0  0  0  0  0  0  0  0
  132.8872  133.8768  160.0156 H   0  0  0  0  0  0  0  0  0  0  0  0
  132.9851  135.5663  159.4527 H   0  0  0  0  0  0  0  0  0  0  0  0
  125.9896  135.9484  160.5547 H   0  0  0  0  0  0  0  0  0  0  0  0
  126.5633  135.1246  162.0223 H   0  0  0  0  0  0  0  0  0  0  0  0
  124.0650  134.8955  161.4525 H   0  0  0  0  0  0  0  0  0  0  0  0
  1  2  2  0
  2 30  1  0
  2  3  1  0
  3  4  1  0
  3 31  1  0
  3 32  1  0
  4  5  1  0
  4 33  1  0
  4 34  1  0
  5  6  1  0
  5 29  1  0
  5 35  1  6
  6 36  1  0
  7  6  1  0
  7  8  1  0
  7 13  2  0
  8  9  1  0
  8 37  1  0
  9 12  1  0
  9 10  1  0
  9 38  1  0
 10 11  1  0
 10 39  1  0
 10 40  1  0
 11 12  1  0
 11 41  1  0
 11 42  1  0
 12 43  1  0
 12 44  1  0
 13 14  1  0
 13 15  1  0
 15 16  1  1
 15 28  1  0
 15 17  1  0
 17 18  2  0
 17 45  1  0
 18 19  1  0
 18 26  1  0
 19 25  1  0
 19 20  2  0
 20 21  1  0
 20 46  1  0
 21 22  2  0
 21 47  1  0
 22 23  1  0
 22 24  1  0
 24 25  2  0
 24 48  1  0
 25 49  1  0
 26 27  1  0
 26 50  1  0
 26 51  1  0
 27 28  1  0
 27 52  1  0
 27 53  1  0
 28 54  1  0
 28 55  1  0
 29 30  1  0
 29 56  1  0
 29 57  1  0
 30 58  1  0
M  CHG  1  13   1
M  END
>  <DOCK_score>  (1) 
-44.26078

>  <SMILES>  (1) 
O=C1CCC(NC(NC2CCC2)=[NH+][C@@H]2C=C(c3ccc(Cl)cc3)CCC2)CN1

$$$$
