CC1=C(C)CC([C@H](c2ccccc2)[NH+]2CCN(c3cccc4cc[nH]c34)CC2)=CC1
     RDKit          3D

 62 66  0  0  1  0  0  0  0  0999 V2000
  131.1900  129.7737  155.4582 C   0  0  0  0  0  0  0  0  0  0  0  0
  131.1051  130.8652  156.4939 C   0  0  0  0  0  0  0  0  0  0  0  0
  130.9390  132.0891  156.0942 C   0  0  0  0  0  0  0  0  0  0  0  0
  130.8397  132.3572  154.6146 C   0  0  0  0  0  0  0  0  0  0  0  0
  130.8369  133.2461  157.0392 C   0  0  0  0  0  0  0  0  0  0  0  0
  130.4886  132.7888  158.4238 C   0  0  0  0  0  0  0  0  0  0  0  0
  129.9160  133.7920  159.3916 C   0  0  2  0  0  0  0  0  0  0  0  0
  129.7188  133.3044  160.3462 H   0  0  0  0  0  0  0  0  0  0  0  0
  128.6300  134.3481  158.8365 C   0  0  0  0  0  0  0  0  0  0  0  0
  128.6519  135.4799  158.0433 C   0  0  0  0  0  0  0  0  0  0  0  0
  127.4727  135.9875  157.5305 C   0  0  0  0  0  0  0  0  0  0  0  0
  126.2707  135.3686  157.8188 C   0  0  0  0  0  0  0  0  0  0  0  0
  126.2483  134.2395  158.6160 C   0  0  0  0  0  0  0  0  0  0  0  0
  127.4279  133.7295  159.1252 C   0  0  0  0  0  0  0  0  0  0  0  0
  130.8770  134.8853  159.5895 N   0  0  0  0  0  0  0  0  0  0  0  0
  131.0592  135.3365  158.7056 H   0  0  0  0  0  0  0  0  0  0  0  0
  130.3183  135.8633  160.5322 C   0  0  0  0  0  0  0  0  0  0  0  0
  131.3113  137.0118  160.7243 C   0  0  0  0  0  0  0  0  0  0  0  0
  132.5797  136.4778  161.2400 N   0  0  0  0  0  0  0  0  0  0  0  0
  133.4960  137.5065  161.4796 C   0  0  0  0  0  0  0  0  0  0  0  0
  133.9988  137.7075  162.7535 C   0  0  0  0  0  0  0  0  0  0  0  0
  134.9033  138.7297  163.0022 C   0  0  0  0  0  0  0  0  0  0  0  0
  135.3143  139.5549  161.9938 C   0  0  0  0  0  0  0  0  0  0  0  0
  134.8211  139.3719  160.6987 C   0  0  0  0  0  0  0  0  0  0  0  0
  135.0420  140.0525  159.4207 C   0  0  0  0  0  0  0  0  0  0  0  0
  134.2850  139.4258  158.5057 C   0  0  0  0  0  0  0  0  0  0  0  0
  133.5978  138.4000  159.0935 N   0  0  0  0  0  0  0  0  0  0  0  0
  132.9866  137.8031  158.6342 H   0  0  0  0  0  0  0  0  0  0  0  0
  133.9043  138.3405  160.4362 C   0  0  0  0  0  0  0  0  0  0  0  0
  133.1387  135.4787  160.3184 C   0  0  0  0  0  0  0  0  0  0  0  0
  132.1307  134.3429  160.1297 C   0  0  0  0  0  0  0  0  0  0  0  0
  130.6541  131.5648  158.8234 C   0  0  0  0  0  0  0  0  0  0  0  0
  131.2154  130.4904  157.9413 C   0  0  0  0  0  0  0  0  0  0  0  0
  131.3281  128.8127  155.9535 H   0  0  0  0  0  0  0  0  0  0  0  0
  130.2689  129.7533  154.8756 H   0  0  0  0  0  0  0  0  0  0  0  0
  132.0342  129.9661  154.7961 H   0  0  0  0  0  0  0  0  0  0  0  0
  130.9284  131.4182  154.0685 H   0  0  0  0  0  0  0  0  0  0  0  0
  129.8767  132.8172  154.3926 H   0  0  0  0  0  0  0  0  0  0  0  0
  131.6421  133.0304  154.3126 H   0  0  0  0  0  0  0  0  0  0  0  0
  130.0671  133.9318  156.6851 H   0  0  0  0  0  0  0  0  0  0  0  0
  131.7938  133.7673  157.0652 H   0  0  0  0  0  0  0  0  0  0  0  0
  129.5905  135.9659  157.8214 H   0  0  0  0  0  0  0  0  0  0  0  0
  127.4902  136.8694  156.9075 H   0  0  0  0  0  0  0  0  0  0  0  0
  125.3491  135.7670  157.4209 H   0  0  0  0  0  0  0  0  0  0  0  0
  125.3092  133.7561  158.8412 H   0  0  0  0  0  0  0  0  0  0  0  0
  127.4105  132.8476  159.7483 H   0  0  0  0  0  0  0  0  0  0  0  0
  130.1331  135.3789  161.4910 H   0  0  0  0  0  0  0  0  0  0  0  0
  129.3815  136.2553  160.1364 H   0  0  0  0  0  0  0  0  0  0  0  0
  130.9032  137.7302  161.4352 H   0  0  0  0  0  0  0  0  0  0  0  0
  131.4862  137.5049  159.7681 H   0  0  0  0  0  0  0  0  0  0  0  0
  133.6834  137.0635  163.5611 H   0  0  0  0  0  0  0  0  0  0  0  0
  135.2864  138.8739  164.0016 H   0  0  0  0  0  0  0  0  0  0  0  0
  136.0195  140.3473  162.1969 H   0  0  0  0  0  0  0  0  0  0  0  0
  135.6906  140.8984  159.2472 H   0  0  0  0  0  0  0  0  0  0  0  0
  134.2272  139.6926  157.4609 H   0  0  0  0  0  0  0  0  0  0  0  0
  133.3437  135.9467  159.3554 H   0  0  0  0  0  0  0  0  0  0  0  0
  134.0639  135.0787  160.7331 H   0  0  0  0  0  0  0  0  0  0  0  0
  131.9362  133.8664  161.0905 H   0  0  0  0  0  0  0  0  0  0  0  0
  132.5374  133.6078  159.4352 H   0  0  0  0  0  0  0  0  0  0  0  0
  130.3759  131.3094  159.8352 H   0  0  0  0  0  0  0  0  0  0  0  0
  132.2649  130.3349  158.1911 H   0  0  0  0  0  0  0  0  0  0  0  0
  130.6672  129.5642  158.1133 H   0  0  0  0  0  0  0  0  0  0  0  0
  1  2  1  0
  1 34  1  0
  1 35  1  0
  1 36  1  0
  2 33  1  0
  2  3  2  0
  3  4  1  0
  3  5  1  0
  4 37  1  0
  4 38  1  0
  4 39  1  0
  5  6  1  0
  5 40  1  0
  5 41  1  0
  6  7  1  0
  6 32  2  0
  7  8  1  1
  7  9  1  0
  7 15  1  0
  9 14  1  0
  9 10  2  0
 10 11  1  0
 10 42  1  0
 11 12  2  0
 11 43  1  0
 12 13  1  0
 12 44  1  0
 13 14  2  0
 13 45  1  0
 14 46  1  0
 15 16  1  0
 15 31  1  0
 15 17  1  0
 17 18  1  0
 17 47  1  0
 17 48  1  0
 18 19  1  0
 18 49  1  0
 18 50  1  0
 19 20  1  0
 19 30  1  0
 20 29  1  0
 20 21  2  0
 21 22  1  0
 21 51  1  0
 22 23  2  0
 22 52  1  0
 23 24  1  0
 23 53  1  0
 24 29  2  0
 24 25  1  0
 25 26  2  0
 25 54  1  0
 26 27  1  0
 26 55  1  0
 27 28  1  0
 27 29  1  0
 30 31  1  0
 30 56  1  0
 30 57  1  0
 31 58  1  0
 31 59  1  0
 32 33  1  0
 32 60  1  0
 33 61  1  0
 33 62  1  0
M  CHG  1  15   1
M  END
>  <DOCK_score>  (1) 
-59.23423

>  <SMILES>  (1) 
CC1=C(C)CC([C@H](c2ccccc2)[NH+]2CCN(c3cccc4cc[nH]c34)CC2)=CC1

$$$$
