[NH3+][C@H](Cc1cccc(OC[C@@H]2CC=CCC2)c1)C(=O)Nc1cccc(O)c1
     RDKit          3D

 54 56  0  0  1  0  0  0  0  0999 V2000
  130.6300  133.6242  156.8218 N   0  0  0  0  0  0  0  0  0  0  0  0
  131.5250  134.0076  156.5572 H   0  0  0  0  0  0  0  0  0  0  0  0
  130.6031  132.6424  156.5905 H   0  0  0  0  0  0  0  0  0  0  0  0
  129.8969  134.1072  156.3244 H   0  0  0  0  0  0  0  0  0  0  0  0
  130.4336  133.7922  158.2679 C   0  0  2  0  0  0  0  0  0  0  0  0
  130.4628  134.8527  158.5177 H   0  0  0  0  0  0  0  0  0  0  0  0
  131.5454  133.0598  159.0220 C   0  0  0  0  0  0  0  0  0  0  0  0
  131.6498  133.6099  160.4212 C   0  0  0  0  0  0  0  0  0  0  0  0
  130.9045  133.0483  161.4417 C   0  0  0  0  0  0  0  0  0  0  0  0
  130.9982  133.5508  162.7263 C   0  0  0  0  0  0  0  0  0  0  0  0
  131.8371  134.6154  162.9935 C   0  0  0  0  0  0  0  0  0  0  0  0
  132.5861  135.1801  161.9716 C   0  0  0  0  0  0  0  0  0  0  0  0
  133.4118  136.2278  162.2318 O   0  0  0  0  0  0  0  0  0  0  0  0
  133.6312  137.1600  161.1711 C   0  0  0  0  0  0  0  0  0  0  0  0
  133.8993  138.5470  161.7585 C   0  0  2  0  0  0  0  0  0  0  0  0
  133.0410  138.8667  162.3495 H   0  0  0  0  0  0  0  0  0  0  0  0
  134.1450  139.5464  160.6261 C   0  0  0  0  0  0  0  0  0  0  0  0
  134.6717  140.8378  161.1830 C   0  0  0  0  0  0  0  0  0  0  0  0
  135.1709  140.9671  162.3701 C   0  0  0  0  0  0  0  0  0  0  0  0
  135.2888  139.8450  163.3596 C   0  0  0  0  0  0  0  0  0  0  0  0
  135.1481  138.4977  162.6479 C   0  0  0  0  0  0  0  0  0  0  0  0
  132.4943  134.6707  160.6843 C   0  0  0  0  0  0  0  0  0  0  0  0
  129.0969  133.2194  158.6631 C   0  0  0  0  0  0  0  0  0  0  0  0
  128.6278  132.2897  158.0415 O   0  0  0  0  0  0  0  0  0  0  0  0
  128.4227  133.7404  159.7074 N   0  0  0  0  0  0  0  0  0  0  0  0
  127.1816  133.2087  160.0744 C   0  0  0  0  0  0  0  0  0  0  0  0
  126.9054  131.8662  159.8476 C   0  0  0  0  0  0  0  0  0  0  0  0
  125.6825  131.3401  160.2157 C   0  0  0  0  0  0  0  0  0  0  0  0
  124.7262  132.1498  160.7988 C   0  0  0  0  0  0  0  0  0  0  0  0
  124.9944  133.4928  161.0225 C   0  0  0  0  0  0  0  0  0  0  0  0
  124.0532  134.2877  161.5960 O   0  0  0  0  0  0  0  0  0  0  0  0
  126.2229  134.0230  160.6602 C   0  0  0  0  0  0  0  0  0  0  0  0
  132.4928  133.2046  158.5030 H   0  0  0  0  0  0  0  0  0  0  0  0
  131.3143  131.9955  159.0664 H   0  0  0  0  0  0  0  0  0  0  0  0
  130.2479  132.2162  161.2347 H   0  0  0  0  0  0  0  0  0  0  0  0
  130.4147  133.1106  163.5216 H   0  0  0  0  0  0  0  0  0  0  0  0
  131.9095  135.0080  163.9971 H   0  0  0  0  0  0  0  0  0  0  0  0
  134.4910  136.8429  160.5809 H   0  0  0  0  0  0  0  0  0  0  0  0
  132.7478  137.1997  160.5339 H   0  0  0  0  0  0  0  0  0  0  0  0
  134.8746  139.1318  159.9303 H   0  0  0  0  0  0  0  0  0  0  0  0
  133.2097  139.7312  160.0979 H   0  0  0  0  0  0  0  0  0  0  0  0
  134.6280  141.7144  160.5536 H   0  0  0  0  0  0  0  0  0  0  0  0
  135.5249  141.9434  162.6670 H   0  0  0  0  0  0  0  0  0  0  0  0
  134.5041  139.9410  164.1100 H   0  0  0  0  0  0  0  0  0  0  0  0
  136.2627  139.8964  163.8468 H   0  0  0  0  0  0  0  0  0  0  0  0
  135.0412  137.7027  163.3858 H   0  0  0  0  0  0  0  0  0  0  0  0
  136.0291  138.3147  162.0325 H   0  0  0  0  0  0  0  0  0  0  0  0
  133.0797  135.1061  159.8877 H   0  0  0  0  0  0  0  0  0  0  0  0
  128.7979  134.4841  160.2046 H   0  0  0  0  0  0  0  0  0  0  0  0
  127.6493  131.2324  159.3877 H   0  0  0  0  0  0  0  0  0  0  0  0
  125.4714  130.2951  160.0429 H   0  0  0  0  0  0  0  0  0  0  0  0
  123.7691  131.7366  161.0811 H   0  0  0  0  0  0  0  0  0  0  0  0
  124.3314  135.2066  161.7111 H   0  0  0  0  0  0  0  0  0  0  0  0
  126.4335  135.0680  160.8338 H   0  0  0  0  0  0  0  0  0  0  0  0
  1  2  1  0
  1  3  1  0
  1  4  1  0
  1  5  1  0
  5  6  1  6
  5  7  1  0
  5 23  1  0
  7  8  1  0
  7 33  1  0
  7 34  1  0
  8 22  1  0
  8  9  2  0
  9 10  1  0
  9 35  1  0
 10 11  2  0
 10 36  1  0
 11 12  1  0
 11 37  1  0
 12 13  1  0
 12 22  2  0
 13 14  1  0
 14 15  1  0
 14 38  1  0
 14 39  1  0
 15 16  1  1
 15 21  1  0
 15 17  1  0
 17 18  1  0
 17 40  1  0
 17 41  1  0
 18 19  2  0
 18 42  1  0
 19 20  1  0
 19 43  1  0
 20 21  1  0
 20 44  1  0
 20 45  1  0
 21 46  1  0
 21 47  1  0
 22 48  1  0
 23 24  2  0
 23 25  1  0
 25 26  1  0
 25 49  1  0
 26 32  1  0
 26 27  2  0
 27 28  1  0
 27 50  1  0
 28 29  2  0
 28 51  1  0
 29 30  1  0
 29 52  1  0
 30 31  1  0
 30 32  2  0
 31 53  1  0
 32 54  1  0
M  CHG  1   1   1
M  END
>  <DOCK_score>  (1) 
-50.887772

>  <SMILES>  (1) 
[NH3+][C@H](Cc1cccc(OC[C@@H]2CC=CCC2)c1)C(=O)Nc1cccc(O)c1

$$$$
