CCc1ccc(-c2c[nH]c(N[C@H](Cc3ccccn3)Cc3ccnn3C)[nH+]2)cc1
     RDKit          3D

 56 59  0  0  1  0  0  0  0  0999 V2000
  130.1695  128.6292  151.5059 C   0  0  0  0  0  0  0  0  0  0  0  0
  131.3187  129.5718  151.8685 C   0  0  0  0  0  0  0  0  0  0  0  0
  130.9842  130.3054  153.1417 C   0  0  0  0  0  0  0  0  0  0  0  0
  131.3473  129.7670  154.3625 C   0  0  0  0  0  0  0  0  0  0  0  0
  131.0487  130.4370  155.5316 C   0  0  0  0  0  0  0  0  0  0  0  0
  130.3697  131.6530  155.4807 C   0  0  0  0  0  0  0  0  0  0  0  0
  130.0410  132.3752  156.7339 C   0  0  0  0  0  0  0  0  0  0  0  0
  129.2785  131.9025  157.7509 C   0  0  0  0  0  0  0  0  0  0  0  0
  129.2322  132.8887  158.7061 N   0  0  0  0  0  0  0  0  0  0  0  0
  128.7613  132.8464  159.5531 H   0  0  0  0  0  0  0  0  0  0  0  0
  129.9685  133.9361  158.2445 C   0  0  0  0  0  0  0  0  0  0  0  0
  130.1745  135.1323  158.9102 N   0  0  0  0  0  0  0  0  0  0  0  0
  129.5743  135.3496  160.2288 C   0  0  2  0  0  0  0  0  0  0  0  0
  129.6430  134.4330  160.8147 H   0  0  0  0  0  0  0  0  0  0  0  0
  128.1043  135.7395  160.0621 C   0  0  0  0  0  0  0  0  0  0  0  0
  127.4869  135.9630  161.4186 C   0  0  0  0  0  0  0  0  0  0  0  0
  126.8892  134.9064  162.0795 C   0  0  0  0  0  0  0  0  0  0  0  0
  126.3287  135.1215  163.3291 C   0  0  0  0  0  0  0  0  0  0  0  0
  126.3812  136.3994  163.8650 C   0  0  0  0  0  0  0  0  0  0  0  0
  126.9912  137.4076  163.1432 C   0  0  0  0  0  0  0  0  0  0  0  0
  127.5185  137.1654  161.9588 N   0  0  0  0  0  0  0  0  0  0  0  0
  130.3213  136.4732  160.9502 C   0  0  0  0  0  0  0  0  0  0  0  0
  131.5936  135.9285  161.5466 C   0  0  0  0  0  0  0  0  0  0  0  0
  132.8029  135.8830  160.9411 C   0  0  0  0  0  0  0  0  0  0  0  0
  133.7106  135.3064  161.8356 C   0  0  0  0  0  0  0  0  0  0  0  0
  133.0692  135.0160  162.9384 N   0  0  0  0  0  0  0  0  0  0  0  0
  131.7322  135.4040  162.7823 N   0  0  0  0  0  0  0  0  0  0  0  0
  130.6712  135.2625  163.7825 C   0  0  0  0  0  0  0  0  0  0  0  0
  130.4549  133.6232  157.0683 N   0  0  0  0  0  0  0  0  0  0  0  0
  131.0188  134.1938  156.5230 H   0  0  0  0  0  0  0  0  0  0  0  0
  130.0012  132.1884  154.2477 C   0  0  0  0  0  0  0  0  0  0  0  0
  130.3101  131.5125  153.0848 C   0  0  0  0  0  0  0  0  0  0  0  0
  130.4114  128.0987  150.5850 H   0  0  0  0  0  0  0  0  0  0  0  0
  130.0223  127.9099  152.3115 H   0  0  0  0  0  0  0  0  0  0  0  0
  129.2564  129.2070  151.3633 H   0  0  0  0  0  0  0  0  0  0  0  0
  132.2317  128.9946  152.0106 H   0  0  0  0  0  0  0  0  0  0  0  0
  131.4658  130.2917  151.0624 H   0  0  0  0  0  0  0  0  0  0  0  0
  131.8692  128.8222  154.4010 H   0  0  0  0  0  0  0  0  0  0  0  0
  131.3368  130.0177  156.4843 H   0  0  0  0  0  0  0  0  0  0  0  0
  128.7991  130.9360  157.8002 H   0  0  0  0  0  0  0  0  0  0  0  0
  130.7164  135.8265  158.5035 H   0  0  0  0  0  0  0  0  0  0  0  0
  128.0358  136.6562  159.4764 H   0  0  0  0  0  0  0  0  0  0  0  0
  127.5721  134.9391  159.5481 H   0  0  0  0  0  0  0  0  0  0  0  0
  126.8623  133.9249  161.6299 H   0  0  0  0  0  0  0  0  0  0  0  0
  125.8588  134.3139  163.8707 H   0  0  0  0  0  0  0  0  0  0  0  0
  125.9506  136.6042  164.8340 H   0  0  0  0  0  0  0  0  0  0  0  0
  127.0362  138.4056  163.5535 H   0  0  0  0  0  0  0  0  0  0  0  0
  130.5624  137.2638  160.2396 H   0  0  0  0  0  0  0  0  0  0  0  0
  129.6920  136.8771  161.7433 H   0  0  0  0  0  0  0  0  0  0  0  0
  133.0275  136.2307  159.9436 H   0  0  0  0  0  0  0  0  0  0  0  0
  134.7598  135.1315  161.6483 H   0  0  0  0  0  0  0  0  0  0  0  0
  130.1833  134.2956  163.6604 H   0  0  0  0  0  0  0  0  0  0  0  0
  131.1026  135.3282  164.7814 H   0  0  0  0  0  0  0  0  0  0  0  0
  129.9386  136.0585  163.6500 H   0  0  0  0  0  0  0  0  0  0  0  0
  129.4747  133.1304  154.2024 H   0  0  0  0  0  0  0  0  0  0  0  0
  130.0247  131.9262  152.1288 H   0  0  0  0  0  0  0  0  0  0  0  0
  1  2  1  0
  1 33  1  0
  1 34  1  0
  1 35  1  0
  2  3  1  0
  2 36  1  0
  2 37  1  0
  3 32  2  0
  3  4  1  0
  4  5  2  0
  4 38  1  0
  5  6  1  0
  5 39  1  0
  6  7  1  0
  6 31  2  0
  7 29  1  0
  7  8  2  0
  8  9  1  0
  8 40  1  0
  9 10  1  0
  9 11  1  0
 11 12  1  0
 11 29  2  0
 12 13  1  0
 12 41  1  0
 13 14  1  1
 13 15  1  0
 13 22  1  0
 15 16  1  0
 15 42  1  0
 15 43  1  0
 16 21  1  0
 16 17  2  0
 17 18  1  0
 17 44  1  0
 18 19  2  0
 18 45  1  0
 19 20  1  0
 19 46  1  0
 20 21  2  0
 20 47  1  0
 22 23  1  0
 22 48  1  0
 22 49  1  0
 23 27  1  0
 23 24  2  0
 24 25  1  0
 24 50  1  0
 25 26  2  0
 25 51  1  0
 26 27  1  0
 27 28  1  0
 28 52  1  0
 28 53  1  0
 28 54  1  0
 29 30  1  0
 31 32  1  0
 31 55  1  0
 32 56  1  0
M  CHG  1  29   1
M  END
>  <DOCK_score>  (1) 
-60.933186

>  <SMILES>  (1) 
CCc1ccc(-c2c[nH]c(N[C@H](Cc3ccccn3)Cc3ccnn3C)[nH+]2)cc1

$$$$
