Oc1ccc([C@]2(O)C=C([NH2+]C(Cc3ccccc3)Cc3cccnc3)CCC2)cc1
     RDKit          3D

 59 62  0  0  1  0  0  0  0  0999 V2000
  131.4743  142.1009  162.7850 O   0  0  0  0  0  0  0  0  0  0  0  0
  131.7620  140.7799  162.6468 C   0  0  0  0  0  0  0  0  0  0  0  0
  130.7565  139.8798  162.3248 C   0  0  0  0  0  0  0  0  0  0  0  0
  131.0517  138.5375  162.1845 C   0  0  0  0  0  0  0  0  0  0  0  0
  132.3479  138.0910  162.3646 C   0  0  0  0  0  0  0  0  0  0  0  0
  132.6669  136.6262  162.2109 C   0  0  2  0  0  0  0  0  0  0  0  0
  134.0598  136.4169  162.4524 O   0  0  0  0  0  0  0  0  0  0  0  0
  132.3328  136.1881  160.8151 C   0  0  0  0  0  0  0  0  0  0  0  0
  131.7344  135.0769  160.5275 C   0  0  0  0  0  0  0  0  0  0  0  0
  131.4942  134.7915  159.1801 N   0  0  0  0  0  0  0  0  0  0  0  0
  131.9601  133.9321  158.9301 H   0  0  0  0  0  0  0  0  0  0  0  0
  131.8478  135.5443  158.6087 H   0  0  0  0  0  0  0  0  0  0  0  0
  130.0490  134.6469  158.9602 C   0  0  2  0  0  0  0  0  0  0  0  0
  129.8055  133.8676  157.6662 C   0  0  0  0  0  0  0  0  0  0  0  0
  130.4360  132.5031  157.7753 C   0  0  0  0  0  0  0  0  0  0  0  0
  130.9011  131.8641  156.6413 C   0  0  0  0  0  0  0  0  0  0  0  0
  131.4838  130.6145  156.7420 C   0  0  0  0  0  0  0  0  0  0  0  0
  131.5918  129.9996  157.9754 C   0  0  0  0  0  0  0  0  0  0  0  0
  131.1218  130.6365  159.1086 C   0  0  0  0  0  0  0  0  0  0  0  0
  130.5439  131.8883  159.0086 C   0  0  0  0  0  0  0  0  0  0  0  0
  129.4089  136.0322  158.8493 C   0  0  0  0  0  0  0  0  0  0  0  0
  127.9263  135.8838  158.6237 C   0  0  0  0  0  0  0  0  0  0  0  0
  127.0546  135.8255  159.7004 C   0  0  0  0  0  0  0  0  0  0  0  0
  125.6988  135.6891  159.4452 C   0  0  0  0  0  0  0  0  0  0  0  0
  125.2646  135.6110  158.1352 C   0  0  0  0  0  0  0  0  0  0  0  0
  126.1222  135.6746  157.1356 N   0  0  0  0  0  0  0  0  0  0  0  0
  127.4184  135.8044  157.3411 C   0  0  0  0  0  0  0  0  0  0  0  0
  131.2770  134.0788  161.5505 C   0  0  0  0  0  0  0  0  0  0  0  0
  131.9842  134.3331  162.8854 C   0  0  0  0  0  0  0  0  0  0  0  0
  131.8500  135.8229  163.2254 C   0  0  0  0  0  0  0  0  0  0  0  0
  133.3505  138.9851  162.6911 C   0  0  0  0  0  0  0  0  0  0  0  0
  133.0617  140.3292  162.8270 C   0  0  0  0  0  0  0  0  0  0  0  0
  132.2389  142.6485  163.0096 H   0  0  0  0  0  0  0  0  0  0  0  0
  129.7441  140.2282  162.1837 H   0  0  0  0  0  0  0  0  0  0  0  0
  130.2695  137.8364  161.9334 H   0  0  0  0  0  0  0  0  0  0  0  0
  134.3364  136.6166  163.3572 H   0  0  0  0  0  0  0  0  0  0  0  0
  132.6092  136.8401  159.9998 H   0  0  0  0  0  0  0  0  0  0  0  0
  129.6062  134.1079  159.7977 H   0  0  0  0  0  0  0  0  0  0  0  0
  128.7331  133.7603  157.5029 H   0  0  0  0  0  0  0  0  0  0  0  0
  130.2484  134.4066  156.8286 H   0  0  0  0  0  0  0  0  0  0  0  0
  130.8128  132.3425  155.6771 H   0  0  0  0  0  0  0  0  0  0  0  0
  131.8506  130.1167  155.8565 H   0  0  0  0  0  0  0  0  0  0  0  0
  132.0429  129.0215  158.0535 H   0  0  0  0  0  0  0  0  0  0  0  0
  131.2058  130.1559  160.0722 H   0  0  0  0  0  0  0  0  0  0  0  0
  130.1763  132.3857  159.8940 H   0  0  0  0  0  0  0  0  0  0  0  0
  129.8517  136.5711  158.0117 H   0  0  0  0  0  0  0  0  0  0  0  0
  129.5823  136.5874  159.7711 H   0  0  0  0  0  0  0  0  0  0  0  0
  127.4230  135.8847  160.7139 H   0  0  0  0  0  0  0  0  0  0  0  0
  124.9913  135.6401  160.2596 H   0  0  0  0  0  0  0  0  0  0  0  0
  124.2105  135.5004  157.9281 H   0  0  0  0  0  0  0  0  0  0  0  0
  128.0908  135.8490  156.4969 H   0  0  0  0  0  0  0  0  0  0  0  0
  130.1992  134.1683  161.6859 H   0  0  0  0  0  0  0  0  0  0  0  0
  131.5134  133.0725  161.2045 H   0  0  0  0  0  0  0  0  0  0  0  0
  133.0386  134.0698  162.8015 H   0  0  0  0  0  0  0  0  0  0  0  0
  131.5185  133.7352  163.6688 H   0  0  0  0  0  0  0  0  0  0  0  0
  132.2317  136.0053  164.2300 H   0  0  0  0  0  0  0  0  0  0  0  0
  130.8031  136.1214  163.1713 H   0  0  0  0  0  0  0  0  0  0  0  0
  134.3612  138.6333  162.8359 H   0  0  0  0  0  0  0  0  0  0  0  0
  133.8460  141.0280  163.0776 H   0  0  0  0  0  0  0  0  0  0  0  0
  1  2  1  0
  1 33  1  0
  2 32  2  0
  2  3  1  0
  3  4  2  0
  3 34  1  0
  4  5  1  0
  4 35  1  0
  5  6  1  0
  5 31  2  0
  6 30  1  0
  6  7  1  1
  6  8  1  0
  7 36  1  0
  8  9  2  0
  8 37  1  0
  9 10  1  0
  9 28  1  0
 10 11  1  0
 10 12  1  0
 10 13  1  0
 13 14  1  0
 13 21  1  0
 13 38  1  1
 14 15  1  0
 14 39  1  0
 14 40  1  0
 15 20  1  0
 15 16  2  0
 16 17  1  0
 16 41  1  0
 17 18  2  0
 17 42  1  0
 18 19  1  0
 18 43  1  0
 19 20  2  0
 19 44  1  0
 20 45  1  0
 21 22  1  0
 21 46  1  0
 21 47  1  0
 22 27  1  0
 22 23  2  0
 23 24  1  0
 23 48  1  0
 24 25  2  0
 24 49  1  0
 25 26  1  0
 25 50  1  0
 26 27  2  0
 27 51  1  0
 28 29  1  0
 28 52  1  0
 28 53  1  0
 29 30  1  0
 29 54  1  0
 29 55  1  0
 30 56  1  0
 30 57  1  0
 31 32  1  0
 31 58  1  0
 32 59  1  0
M  CHG  1  10   1
M  END
>  <DOCK_score>  (1) 
-56.693165

>  <SMILES>  (1) 
Oc1ccc([C@]2(O)C=C([NH2+]C(Cc3ccccc3)Cc3cccnc3)CCC2)cc1

$$$$
