C1=C([C@@H](Cc2ccccn2)Nc2[nH]cc(-c3ccc(-c4cccnc4)cc3)[nH+]2)CCOC1
     RDKit          3D

 58 62  0  0  1  0  0  0  0  0999 V2000
  133.6621  137.0125  161.1587 C   0  0  0  0  0  0  0  0  0  0  0  0
  132.5172  137.0437  161.7733 C   0  0  0  0  0  0  0  0  0  0  0  0
  131.4328  136.0936  161.3343 C   0  0  1  0  0  0  0  0  0  0  0  0
  131.5125  135.1651  161.8995 H   0  0  0  0  0  0  0  0  0  0  0  0
  130.0644  136.7293  161.5882 C   0  0  0  0  0  0  0  0  0  0  0  0
  128.9801  135.7792  161.1492 C   0  0  0  0  0  0  0  0  0  0  0  0
  128.5055  135.8366  159.8522 C   0  0  0  0  0  0  0  0  0  0  0  0
  127.5115  134.9548  159.4569 C   0  0  0  0  0  0  0  0  0  0  0  0
  127.0224  134.0513  160.3882 C   0  0  0  0  0  0  0  0  0  0  0  0
  127.5422  134.0561  161.6686 C   0  0  0  0  0  0  0  0  0  0  0  0
  128.4912  134.9066  162.0082 N   0  0  0  0  0  0  0  0  0  0  0  0
  131.5817  135.8097  159.9049 N   0  0  0  0  0  0  0  0  0  0  0  0
  131.1776  134.5873  159.3963 C   0  0  0  0  0  0  0  0  0  0  0  0
  130.6338  133.5693  160.1176 N   0  0  0  0  0  0  0  0  0  0  0  0
  130.4617  133.5697  161.0723 H   0  0  0  0  0  0  0  0  0  0  0  0
  130.3737  132.5413  159.2447 C   0  0  0  0  0  0  0  0  0  0  0  0
  130.7657  132.9603  158.0152 C   0  0  0  0  0  0  0  0  0  0  0  0
  130.6763  132.1801  156.7580 C   0  0  0  0  0  0  0  0  0  0  0  0
  130.5016  132.8373  155.5401 C   0  0  0  0  0  0  0  0  0  0  0  0
  130.4180  132.1121  154.3720 C   0  0  0  0  0  0  0  0  0  0  0  0
  130.5081  130.7209  154.4069 C   0  0  0  0  0  0  0  0  0  0  0  0
  130.4183  129.9403  153.1492 C   0  0  0  0  0  0  0  0  0  0  0  0
  129.6639  130.4138  152.0714 C   0  0  0  0  0  0  0  0  0  0  0  0
  129.6124  129.6483  150.9196 C   0  0  0  0  0  0  0  0  0  0  0  0
  130.3021  128.4502  150.8720 C   0  0  0  0  0  0  0  0  0  0  0  0
  131.0057  128.0291  151.9050 N   0  0  0  0  0  0  0  0  0  0  0  0
  131.0846  128.7230  153.0220 C   0  0  0  0  0  0  0  0  0  0  0  0
  130.6772  130.0633  155.6251 C   0  0  0  0  0  0  0  0  0  0  0  0
  130.7664  130.7885  156.7927 C   0  0  0  0  0  0  0  0  0  0  0  0
  131.2594  134.2180  158.1414 N   0  0  0  0  0  0  0  0  0  0  0  0
  131.6143  134.7581  157.4181 H   0  0  0  0  0  0  0  0  0  0  0  0
  132.2354  137.9872  162.9099 C   0  0  0  0  0  0  0  0  0  0  0  0
  133.5538  138.5458  163.4525 C   0  0  0  0  0  0  0  0  0  0  0  0
  134.3472  138.9887  162.3443 O   0  0  0  0  0  0  0  0  0  0  0  0
  134.8072  137.9144  161.5218 C   0  0  0  0  0  0  0  0  0  0  0  0
  133.7946  136.3100  160.3491 H   0  0  0  0  0  0  0  0  0  0  0  0
  129.9536  136.9406  162.6516 H   0  0  0  0  0  0  0  0  0  0  0  0
  129.9845  137.6578  161.0229 H   0  0  0  0  0  0  0  0  0  0  0  0
  128.9066  136.5569  159.1545 H   0  0  0  0  0  0  0  0  0  0  0  0
  127.1245  134.9738  158.4488 H   0  0  0  0  0  0  0  0  0  0  0  0
  126.2446  133.3529  160.1164 H   0  0  0  0  0  0  0  0  0  0  0  0
  127.1665  133.3555  162.3997 H   0  0  0  0  0  0  0  0  0  0  0  0
  131.9635  136.4782  159.3147 H   0  0  0  0  0  0  0  0  0  0  0  0
  129.9396  131.5833  159.4898 H   0  0  0  0  0  0  0  0  0  0  0  0
  130.4314  133.9147  155.5129 H   0  0  0  0  0  0  0  0  0  0  0  0
  130.2824  132.6210  153.4290 H   0  0  0  0  0  0  0  0  0  0  0  0
  129.1348  131.3531  152.1361 H   0  0  0  0  0  0  0  0  0  0  0  0
  129.0394  129.9823  150.0673 H   0  0  0  0  0  0  0  0  0  0  0  0
  130.2644  127.8505  149.9747 H   0  0  0  0  0  0  0  0  0  0  0  0
  131.6709  128.3453  153.8466 H   0  0  0  0  0  0  0  0  0  0  0  0
  130.7425  128.9856  155.6524 H   0  0  0  0  0  0  0  0  0  0  0  0
  130.9017  130.2794  157.7355 H   0  0  0  0  0  0  0  0  0  0  0  0
  131.6125  138.8080  162.5542 H   0  0  0  0  0  0  0  0  0  0  0  0
  131.7136  137.4533  163.7042 H   0  0  0  0  0  0  0  0  0  0  0  0
  133.3509  139.3854  164.1175 H   0  0  0  0  0  0  0  0  0  0  0  0
  134.0862  137.7663  163.9976 H   0  0  0  0  0  0  0  0  0  0  0  0
  135.2531  138.3201  160.6136 H   0  0  0  0  0  0  0  0  0  0  0  0
  135.5556  137.3379  162.0656 H   0  0  0  0  0  0  0  0  0  0  0  0
  1 35  1  0
  1  2  2  0
  1 36  1  0
  2  3  1  0
  2 32  1  0
  3  4  1  1
  3  5  1  0
  3 12  1  0
  5  6  1  0
  5 37  1  0
  5 38  1  0
  6 11  1  0
  6  7  2  0
  7  8  1  0
  7 39  1  0
  8  9  2  0
  8 40  1  0
  9 10  1  0
  9 41  1  0
 10 11  2  0
 10 42  1  0
 12 43  1  0
 13 12  1  0
 13 30  2  0
 13 14  1  0
 14 15  1  0
 14 16  1  0
 16 17  2  0
 16 44  1  0
 17 18  1  0
 17 30  1  0
 18 29  1  0
 18 19  2  0
 19 20  1  0
 19 45  1  0
 20 21  2  0
 20 46  1  0
 21 22  1  0
 21 28  1  0
 22 27  1  0
 22 23  2  0
 23 24  1  0
 23 47  1  0
 24 25  2  0
 24 48  1  0
 25 26  1  0
 25 49  1  0
 26 27  2  0
 27 50  1  0
 28 29  2  0
 28 51  1  0
 29 52  1  0
 30 31  1  0
 32 33  1  0
 32 53  1  0
 32 54  1  0
 33 34  1  0
 33 55  1  0
 33 56  1  0
 34 35  1  0
 35 57  1  0
 35 58  1  0
M  CHG  1  30   1
M  END
>  <DOCK_score>  (1) 
-57.648872

>  <SMILES>  (1) 
C1=C([C@@H](Cc2ccccn2)Nc2[nH]cc(-c3ccc(-c4cccnc4)cc3)[nH+]2)CCOC1

$$$$
