Fc1ccc(-c2c[nH]c(N[C@@H](Cc3cnn(-c4ccccc4)c3)C3=CCOCC3)[nH+]2)cc1
     RDKit          3D

 57 61  0  0  1  0  0  0  0  0999 V2000
  131.3010  129.6469  151.8365 F   0  0  0  0  0  0  0  0  0  0  0  0
  131.0496  130.3054  152.9890 C   0  0  0  0  0  0  0  0  0  0  0  0
  130.3306  131.4899  152.9649 C   0  0  0  0  0  0  0  0  0  0  0  0
  130.0711  132.1655  154.1396 C   0  0  0  0  0  0  0  0  0  0  0  0
  130.5334  131.6552  155.3513 C   0  0  0  0  0  0  0  0  0  0  0  0
  130.2574  132.3783  156.6169 C   0  0  0  0  0  0  0  0  0  0  0  0
  129.5656  131.8942  157.6780 C   0  0  0  0  0  0  0  0  0  0  0  0
  129.5480  132.8864  158.6286 N   0  0  0  0  0  0  0  0  0  0  0  0
  129.1272  132.8386  159.5012 H   0  0  0  0  0  0  0  0  0  0  0  0
  130.2303  133.9482  158.1197 C   0  0  0  0  0  0  0  0  0  0  0  0
  130.4431  135.1543  158.7653 N   0  0  0  0  0  0  0  0  0  0  0  0
  129.9131  135.3665  160.1146 C   0  0  1  0  0  0  0  0  0  0  0  0
  130.3381  134.6263  160.7923 H   0  0  0  0  0  0  0  0  0  0  0  0
  130.2862  136.7707  160.5939 C   0  0  0  0  0  0  0  0  0  0  0  0
  131.7117  136.7724  161.0827 C   0  0  0  0  0  0  0  0  0  0  0  0
  132.3861  135.6894  161.6572 C   0  0  0  0  0  0  0  0  0  0  0  0
  133.6020  136.0736  161.9520 N   0  0  0  0  0  0  0  0  0  0  0  0
  133.7410  137.4154  161.5743 N   0  0  0  0  0  0  0  0  0  0  0  0
  134.8945  138.1984  161.7206 C   0  0  0  0  0  0  0  0  0  0  0  0
  134.8964  139.5203  161.2961 C   0  0  0  0  0  0  0  0  0  0  0  0
  136.0329  140.2908  161.4464 C   0  0  0  0  0  0  0  0  0  0  0  0
  137.1713  139.7437  162.0093 C   0  0  0  0  0  0  0  0  0  0  0  0
  137.1742  138.4259  162.4280 C   0  0  0  0  0  0  0  0  0  0  0  0
  136.0392  137.6520  162.2855 C   0  0  0  0  0  0  0  0  0  0  0  0
  132.5674  137.8198  161.0382 C   0  0  0  0  0  0  0  0  0  0  0  0
  128.4130  135.2251  160.0929 C   0  0  0  0  0  0  0  0  0  0  0  0
  127.7710  135.5393  159.0071 C   0  0  0  0  0  0  0  0  0  0  0  0
  126.2773  135.4372  158.8845 C   0  0  0  0  0  0  0  0  0  0  0  0
  125.7481  134.6448  159.9495 O   0  0  0  0  0  0  0  0  0  0  0  0
  126.2206  135.0527  161.2395 C   0  0  0  0  0  0  0  0  0  0  0  0
  127.7151  134.7315  161.3302 C   0  0  0  0  0  0  0  0  0  0  0  0
  130.6478  133.6429  156.9154 N   0  0  0  0  0  0  0  0  0  0  0  0
  131.1563  134.2270  156.3315 H   0  0  0  0  0  0  0  0  0  0  0  0
  131.2607  130.4664  155.3699 C   0  0  0  0  0  0  0  0  0  0  0  0
  131.5110  129.7948  154.1908 C   0  0  0  0  0  0  0  0  0  0  0  0
  129.9731  131.8849  152.0255 H   0  0  0  0  0  0  0  0  0  0  0  0
  129.5102  133.0883  154.1203 H   0  0  0  0  0  0  0  0  0  0  0  0
  129.1142  130.9165  157.7599 H   0  0  0  0  0  0  0  0  0  0  0  0
  130.9433  135.8588  158.3243 H   0  0  0  0  0  0  0  0  0  0  0  0
  129.6230  137.0651  161.4073 H   0  0  0  0  0  0  0  0  0  0  0  0
  130.1842  137.4754  159.7687 H   0  0  0  0  0  0  0  0  0  0  0  0
  131.9743  134.7057  161.8277 H   0  0  0  0  0  0  0  0  0  0  0  0
  134.0090  139.9467  160.8523 H   0  0  0  0  0  0  0  0  0  0  0  0
  136.0335  141.3204  161.1208 H   0  0  0  0  0  0  0  0  0  0  0  0
  138.0598  140.3471  162.1225 H   0  0  0  0  0  0  0  0  0  0  0  0
  138.0648  138.0014  162.8672 H   0  0  0  0  0  0  0  0  0  0  0  0
  136.0417  136.6229  162.6133 H   0  0  0  0  0  0  0  0  0  0  0  0
  132.3509  138.8029  160.6471 H   0  0  0  0  0  0  0  0  0  0  0  0
  128.3366  135.8854  158.1547 H   0  0  0  0  0  0  0  0  0  0  0  0
  126.0212  134.9771  157.9301 H   0  0  0  0  0  0  0  0  0  0  0  0
  125.8472  136.4377  158.9304 H   0  0  0  0  0  0  0  0  0  0  0  0
  125.6809  134.5109  162.0163 H   0  0  0  0  0  0  0  0  0  0  0  0
  126.0670  136.1243  161.3654 H   0  0  0  0  0  0  0  0  0  0  0  0
  127.8500  133.6534  161.4175 H   0  0  0  0  0  0  0  0  0  0  0  0
  128.1389  135.2225  162.2062 H   0  0  0  0  0  0  0  0  0  0  0  0
  131.6244  130.0695  156.3061 H   0  0  0  0  0  0  0  0  0  0  0  0
  132.0713  128.8716  154.2047 H   0  0  0  0  0  0  0  0  0  0  0  0
  1  2  1  0
  2 35  2  0
  2  3  1  0
  3  4  2  0
  3 36  1  0
  4  5  1  0
  4 37  1  0
  5  6  1  0
  5 34  2  0
  6 32  1  0
  6  7  2  0
  7  8  1  0
  7 38  1  0
  8  9  1  0
  8 10  1  0
 10 11  1  0
 10 32  2  0
 11 12  1  0
 11 39  1  0
 12 13  1  1
 12 14  1  0
 12 26  1  0
 14 15  1  0
 14 40  1  0
 14 41  1  0
 15 25  2  0
 15 16  1  0
 16 17  2  0
 16 42  1  0
 17 18  1  0
 18 19  1  0
 18 25  1  0
 19 24  1  0
 19 20  2  0
 20 21  1  0
 20 43  1  0
 21 22  2  0
 21 44  1  0
 22 23  1  0
 22 45  1  0
 23 24  2  0
 23 46  1  0
 24 47  1  0
 25 48  1  0
 26 31  1  0
 26 27  2  0
 27 28  1  0
 27 49  1  0
 28 29  1  0
 28 50  1  0
 28 51  1  0
 29 30  1  0
 30 31  1  0
 30 52  1  0
 30 53  1  0
 31 54  1  0
 31 55  1  0
 32 33  1  0
 34 35  1  0
 34 56  1  0
 35 57  1  0
M  CHG  1  32   1
M  END
>  <DOCK_score>  (1) 
-60.615627

>  <SMILES>  (1) 
Fc1ccc(-c2c[nH]c(N[C@@H](Cc3cnn(-c4ccccc4)c3)C3=CCOCC3)[nH+]2)cc1

$$$$
