CCC=CC(C[C@@](C)(O)C1=CCCCC1)Nc1[nH]cc(-c2ccc(CC)cc2)[nH+]1
     RDKit          3D

 65 67  0  0  1  0  0  0  0  0999 V2000
  125.7484  133.3570  159.6281 C   0  0  0  0  0  0  0  0  0  0  0  0
  126.1203  134.4094  160.6745 C   0  0  0  0  0  0  0  0  0  0  0  0
  127.6181  134.5715  160.7137 C   0  0  0  0  0  0  0  0  0  0  0  0
  128.2020  135.4523  159.9396 C   0  0  0  0  0  0  0  0  0  0  0  0
  129.6997  135.6144  159.9787 C   0  0  2  0  0  0  0  0  0  0  0  0
  130.0470  137.0484  160.3838 C   0  0  0  0  0  0  0  0  0  0  0  0
  129.9250  137.1931  161.9021 C   0  0  1  0  0  0  0  0  0  0  0  0
  128.4535  137.3720  162.2808 C   0  0  0  0  0  0  0  0  0  0  0  0
  130.4407  136.0206  162.5354 O   0  0  0  0  0  0  0  0  0  0  0  0
  130.7105  138.3962  162.3566 C   0  0  0  0  0  0  0  0  0  0  0  0
  130.7196  138.6728  163.6212 C   0  0  0  0  0  0  0  0  0  0  0  0
  131.4465  139.8405  164.2212 C   0  0  0  0  0  0  0  0  0  0  0  0
  132.4848  140.3786  163.2343 C   0  0  0  0  0  0  0  0  0  0  0  0
  131.8048  140.5744  161.8734 C   0  0  0  0  0  0  0  0  0  0  0  0
  131.4386  139.1955  161.3159 C   0  0  0  0  0  0  0  0  0  0  0  0
  130.2562  135.3330  158.6531 N   0  0  0  0  0  0  0  0  0  0  0  0
  130.0695  134.0897  158.0737 C   0  0  0  0  0  0  0  0  0  0  0  0
  129.3905  133.0497  158.6301 N   0  0  0  0  0  0  0  0  0  0  0  0
  128.9550  133.0460  159.4968 H   0  0  0  0  0  0  0  0  0  0  0  0
  129.4314  132.0080  157.7356 C   0  0  0  0  0  0  0  0  0  0  0  0
  130.1414  132.4377  156.6632 C   0  0  0  0  0  0  0  0  0  0  0  0
  130.4482  131.6478  155.4458 C   0  0  0  0  0  0  0  0  0  0  0  0
  130.0130  132.0894  154.1974 C   0  0  0  0  0  0  0  0  0  0  0  0
  130.3017  131.3507  153.0680 C   0  0  0  0  0  0  0  0  0  0  0  0
  131.0222  130.1738  153.1736 C   0  0  0  0  0  0  0  0  0  0  0  0
  131.3339  129.3721  151.9362 C   0  0  0  0  0  0  0  0  0  0  0  0
  130.2076  128.3683  151.6817 C   0  0  0  0  0  0  0  0  0  0  0  0
  131.4517  129.7285  154.4102 C   0  0  0  0  0  0  0  0  0  0  0  0
  131.1730  130.4615  155.5457 C   0  0  0  0  0  0  0  0  0  0  0  0
  130.5168  133.7202  156.8984 N   0  0  0  0  0  0  0  0  0  0  0  0
  131.0335  134.2750  156.2934 H   0  0  0  0  0  0  0  0  0  0  0  0
  126.1050  133.6765  158.6487 H   0  0  0  0  0  0  0  0  0  0  0  0
  126.2102  132.4050  159.8900 H   0  0  0  0  0  0  0  0  0  0  0  0
  124.6650  133.2397  159.5997 H   0  0  0  0  0  0  0  0  0  0  0  0
  125.7637  134.0901  161.6537 H   0  0  0  0  0  0  0  0  0  0  0  0
  125.6585  135.3613  160.4124 H   0  0  0  0  0  0  0  0  0  0  0  0
  128.2099  133.9615  161.3799 H   0  0  0  0  0  0  0  0  0  0  0  0
  127.6100  136.0623  159.2732 H   0  0  0  0  0  0  0  0  0  0  0  0
  130.1214  134.9194  160.7048 H   0  0  0  0  0  0  0  0  0  0  0  0
  131.0684  137.2751  160.0781 H   0  0  0  0  0  0  0  0  0  0  0  0
  129.3598  137.7402  159.8965 H   0  0  0  0  0  0  0  0  0  0  0  0
  127.8853  136.5018  161.9519 H   0  0  0  0  0  0  0  0  0  0  0  0
  128.3666  137.4751  163.3624 H   0  0  0  0  0  0  0  0  0  0  0  0
  128.0601  138.2664  161.7977 H   0  0  0  0  0  0  0  0  0  0  0  0
  131.3712  135.8445  162.3392 H   0  0  0  0  0  0  0  0  0  0  0  0
  130.1701  138.0226  164.2857 H   0  0  0  0  0  0  0  0  0  0  0  0
  130.7313  140.6281  164.4585 H   0  0  0  0  0  0  0  0  0  0  0  0
  131.9476  139.5230  165.1355 H   0  0  0  0  0  0  0  0  0  0  0  0
  132.8699  141.3335  163.5922 H   0  0  0  0  0  0  0  0  0  0  0  0
  133.3037  139.6657  163.1390 H   0  0  0  0  0  0  0  0  0  0  0  0
  130.9034  141.1746  161.9972 H   0  0  0  0  0  0  0  0  0  0  0  0
  132.4893  141.0779  161.1908 H   0  0  0  0  0  0  0  0  0  0  0  0
  132.3464  138.6673  161.0243 H   0  0  0  0  0  0  0  0  0  0  0  0
  130.7987  139.3192  160.4423 H   0  0  0  0  0  0  0  0  0  0  0  0
  130.7555  136.0179  158.1813 H   0  0  0  0  0  0  0  0  0  0  0  0
  128.9857  131.0325  157.8632 H   0  0  0  0  0  0  0  0  0  0  0  0
  129.4508  133.0077  154.1142 H   0  0  0  0  0  0  0  0  0  0  0  0
  129.9651  131.6920  152.1002 H   0  0  0  0  0  0  0  0  0  0  0  0
  132.2728  128.8367  152.0776 H   0  0  0  0  0  0  0  0  0  0  0  0
  131.4232  130.0425  151.0813 H   0  0  0  0  0  0  0  0  0  0  0  0
  130.1184  127.6980  152.5366 H   0  0  0  0  0  0  0  0  0  0  0  0
  129.2689  128.9037  151.5403 H   0  0  0  0  0  0  0  0  0  0  0  0
  130.4334  127.7880  150.7870 H   0  0  0  0  0  0  0  0  0  0  0  0
  132.0100  128.8073  154.4868 H   0  0  0  0  0  0  0  0  0  0  0  0
  131.5130  130.1149  156.5104 H   0  0  0  0  0  0  0  0  0  0  0  0
  1  2  1  0
  1 32  1  0
  1 33  1  0
  1 34  1  0
  2  3  1  0
  2 35  1  0
  2 36  1  0
  3  4  2  0
  3 37  1  0
  4  5  1  0
  4 38  1  0
  5  6  1  0
  5 16  1  0
  5 39  1  1
  6  7  1  0
  6 40  1  0
  6 41  1  0
  7  8  1  0
  7  9  1  1
  7 10  1  0
  8 42  1  0
  8 43  1  0
  8 44  1  0
  9 45  1  0
 10 15  1  0
 10 11  2  0
 11 12  1  0
 11 46  1  0
 12 13  1  0
 12 47  1  0
 12 48  1  0
 13 14  1  0
 13 49  1  0
 13 50  1  0
 14 15  1  0
 14 51  1  0
 14 52  1  0
 15 53  1  0
 15 54  1  0
 16 55  1  0
 17 16  1  0
 17 30  2  0
 17 18  1  0
 18 19  1  0
 18 20  1  0
 20 21  2  0
 20 56  1  0
 21 22  1  0
 21 30  1  0
 22 29  1  0
 22 23  2  0
 23 24  1  0
 23 57  1  0
 24 25  2  0
 24 58  1  0
 25 26  1  0
 25 28  1  0
 26 27  1  0
 26 59  1  0
 26 60  1  0
 27 61  1  0
 27 62  1  0
 27 63  1  0
 28 29  2  0
 28 64  1  0
 29 65  1  0
 30 31  1  0
M  CHG  1  30   1
M  END
>  <DOCK_score>  (1) 
-56.850163

>  <SMILES>  (1) 
CCC=CC(C[C@@](C)(O)C1=CCCCC1)Nc1[nH]cc(-c2ccc(CC)cc2)[nH+]1

$$$$
