CCc1ccc(-c2c[nH]c(Nc3ccc(Nc4c(F)c(F)c(F)c(F)c4F)cc3)[nH+]2)cc1
     RDKit          3D

 50 53  0  0  1  0  0  0  0  0999 V2000
  130.0151  128.3312  151.8022 C   0  0  0  0  0  0  0  0  0  0  0  0
  131.0712  129.4324  151.9151 C   0  0  0  0  0  0  0  0  0  0  0  0
  130.8371  130.2254  153.1750 C   0  0  0  0  0  0  0  0  0  0  0  0
  131.4456  129.8403  154.3553 C   0  0  0  0  0  0  0  0  0  0  0  0
  131.2384  130.5661  155.5107 C   0  0  0  0  0  0  0  0  0  0  0  0
  130.4060  131.6837  155.4886 C   0  0  0  0  0  0  0  0  0  0  0  0
  130.1757  132.4652  156.7282 C   0  0  0  0  0  0  0  0  0  0  0  0
  129.6415  131.9927  157.8818 C   0  0  0  0  0  0  0  0  0  0  0  0
  129.6089  133.0432  158.7656 N   0  0  0  0  0  0  0  0  0  0  0  0
  129.2797  133.0167  159.6778 H   0  0  0  0  0  0  0  0  0  0  0  0
  130.1247  134.1284  158.1258 C   0  0  0  0  0  0  0  0  0  0  0  0
  130.2696  135.3933  158.6713 N   0  0  0  0  0  0  0  0  0  0  0  0
  129.3774  135.8380  159.6549 C   0  0  0  0  0  0  0  0  0  0  0  0
  129.8044  136.7362  160.6244 C   0  0  0  0  0  0  0  0  0  0  0  0
  128.9236  137.1786  161.5912 C   0  0  0  0  0  0  0  0  0  0  0  0
  127.6134  136.7172  161.6005 C   0  0  0  0  0  0  0  0  0  0  0  0
  126.7220  137.1620  162.5831 N   0  0  0  0  0  0  0  0  0  0  0  0
  127.1510  138.0729  163.5578 C   0  0  0  0  0  0  0  0  0  0  0  0
  127.0930  137.7306  164.9035 C   0  0  0  0  0  0  0  0  0  0  0  0
  126.6232  136.5189  165.2732 F   0  0  0  0  0  0  0  0  0  0  0  0
  127.5219  138.6303  165.8651 C   0  0  0  0  0  0  0  0  0  0  0  0
  127.4700  138.2963  167.1730 F   0  0  0  0  0  0  0  0  0  0  0  0
  127.9995  139.8750  165.4868 C   0  0  0  0  0  0  0  0  0  0  0  0
  128.4130  140.7531  166.4266 F   0  0  0  0  0  0  0  0  0  0  0  0
  128.0528  140.2207  164.1454 C   0  0  0  0  0  0  0  0  0  0  0  0
  128.5182  141.4350  163.7790 F   0  0  0  0  0  0  0  0  0  0  0  0
  127.6297  139.3218  163.1804 C   0  0  0  0  0  0  0  0  0  0  0  0
  127.6819  139.6590  161.8732 F   0  0  0  0  0  0  0  0  0  0  0  0
  127.1881  135.8148  160.6340 C   0  0  0  0  0  0  0  0  0  0  0  0
  128.0677  135.3763  159.6644 C   0  0  0  0  0  0  0  0  0  0  0  0
  130.4676  133.7771  156.9103 N   0  0  0  0  0  0  0  0  0  0  0  0
  130.8641  134.3627  156.2464 H   0  0  0  0  0  0  0  0  0  0  0  0
  129.7911  132.0647  154.2971 C   0  0  0  0  0  0  0  0  0  0  0  0
  130.0094  131.3342  153.1468 C   0  0  0  0  0  0  0  0  0  0  0  0
  129.0230  128.7814  151.7687 H   0  0  0  0  0  0  0  0  0  0  0  0
  130.1846  127.7572  150.8913 H   0  0  0  0  0  0  0  0  0  0  0  0
  130.0853  127.6705  152.6663 H   0  0  0  0  0  0  0  0  0  0  0  0
  132.0634  128.9822  151.9486 H   0  0  0  0  0  0  0  0  0  0  0  0
  131.0011  130.0930  151.0510 H   0  0  0  0  0  0  0  0  0  0  0  0
  132.0873  128.9718  154.3721 H   0  0  0  0  0  0  0  0  0  0  0  0
  131.7174  130.2663  156.4311 H   0  0  0  0  0  0  0  0  0  0  0  0
  129.3065  130.9832  158.0696 H   0  0  0  0  0  0  0  0  0  0  0  0
  130.9888  135.9711  158.3718 H   0  0  0  0  0  0  0  0  0  0  0  0
  130.8240  137.0920  160.6194 H   0  0  0  0  0  0  0  0  0  0  0  0
  129.2545  137.8802  162.3426 H   0  0  0  0  0  0  0  0  0  0  0  0
  125.8070  136.8400  162.5895 H   0  0  0  0  0  0  0  0  0  0  0  0
  126.1696  135.4558  160.6414 H   0  0  0  0  0  0  0  0  0  0  0  0
  127.7370  134.6747  158.9129 H   0  0  0  0  0  0  0  0  0  0  0  0
  129.1449  132.9297  154.2744 H   0  0  0  0  0  0  0  0  0  0  0  0
  129.5334  131.6284  152.2230 H   0  0  0  0  0  0  0  0  0  0  0  0
  1  2  1  0
  1 35  1  0
  1 36  1  0
  1 37  1  0
  2  3  1  0
  2 38  1  0
  2 39  1  0
  3 34  2  0
  3  4  1  0
  4  5  2  0
  4 40  1  0
  5  6  1  0
  5 41  1  0
  6  7  1  0
  6 33  2  0
  7 31  1  0
  7  8  2  0
  8  9  1  0
  8 42  1  0
  9 10  1  0
  9 11  1  0
 11 12  1  0
 11 31  2  0
 12 13  1  0
 12 43  1  0
 13 30  1  0
 13 14  2  0
 14 15  1  0
 14 44  1  0
 15 16  2  0
 15 45  1  0
 16 17  1  0
 16 29  1  0
 17 18  1  0
 17 46  1  0
 18 27  1  0
 18 19  2  0
 19 20  1  0
 19 21  1  0
 21 22  1  0
 21 23  2  0
 23 24  1  0
 23 25  1  0
 25 26  1  0
 25 27  2  0
 27 28  1  0
 29 30  2  0
 29 47  1  0
 30 48  1  0
 31 32  1  0
 33 34  1  0
 33 49  1  0
 34 50  1  0
M  CHG  1  31   1
M  END
>  <DOCK_score>  (1) 
-57.376064

>  <SMILES>  (1) 
CCc1ccc(-c2c[nH]c(Nc3ccc(Nc4c(F)c(F)c(F)c(F)c4F)cc3)[nH+]2)cc1

$$$$
