CCOC(=O)c1oc2ccc(-c3ccccc3)cc2c1C[NH2+][C@H]1COC2(CC2)C1
     RDKit          3D

 55 59  0  0  1  0  0  0  0  0999 V2000
  125.1225  134.4474  159.9236 C   0  0  0  0  0  0  0  0  0  0  0  0
  126.2788  134.0179  160.8288 C   0  0  0  0  0  0  0  0  0  0  0  0
  127.4221  134.8822  160.5966 O   0  0  0  0  0  0  0  0  0  0  0  0
  127.5127  135.9944  161.3539 C   0  0  0  0  0  0  0  0  0  0  0  0
  126.6589  136.2348  162.1855 O   0  0  0  0  0  0  0  0  0  0  0  0
  128.6452  136.9118  161.1782 C   0  0  0  0  0  0  0  0  0  0  0  0
  128.6047  138.2444  161.3867 O   0  0  0  0  0  0  0  0  0  0  0  0
  129.8055  138.8056  161.1430 C   0  0  0  0  0  0  0  0  0  0  0  0
  130.2726  140.1144  161.2121 C   0  0  0  0  0  0  0  0  0  0  0  0
  131.5789  140.3998  160.8912 C   0  0  0  0  0  0  0  0  0  0  0  0
  132.4537  139.3830  160.4930 C   0  0  0  0  0  0  0  0  0  0  0  0
  133.8609  139.7072  160.1511 C   0  0  0  0  0  0  0  0  0  0  0  0
  134.5485  138.9368  159.2155 C   0  0  0  0  0  0  0  0  0  0  0  0
  135.8552  139.2462  158.8970 C   0  0  0  0  0  0  0  0  0  0  0  0
  136.4861  140.3121  159.5134 C   0  0  0  0  0  0  0  0  0  0  0  0
  135.8102  141.0766  160.4467 C   0  0  0  0  0  0  0  0  0  0  0  0
  134.5012  140.7796  160.7686 C   0  0  0  0  0  0  0  0  0  0  0  0
  132.0064  138.0719  160.4180 C   0  0  0  0  0  0  0  0  0  0  0  0
  130.6811  137.7784  160.7424 C   0  0  0  0  0  0  0  0  0  0  0  0
  129.8909  136.5480  160.7755 C   0  0  0  0  0  0  0  0  0  0  0  0
  130.3627  135.1584  160.4323 C   0  0  0  0  0  0  0  0  0  0  0  0
  130.1480  134.9078  159.0009 N   0  0  0  0  0  0  0  0  0  0  0  0
  129.1651  134.9913  158.7885 H   0  0  0  0  0  0  0  0  0  0  0  0
  130.6674  135.5826  158.4597 H   0  0  0  0  0  0  0  0  0  0  0  0
  130.6078  133.5534  158.6664 C   0  0  1  0  0  0  0  0  0  0  0  0
  131.5336  133.3182  159.1915 H   0  0  0  0  0  0  0  0  0  0  0  0
  129.5116  132.5036  158.9811 C   0  0  0  0  0  0  0  0  0  0  0  0
  129.8262  131.4088  158.0919 O   0  0  0  0  0  0  0  0  0  0  0  0
  130.2269  131.9882  156.8426 C   0  0  0  0  0  0  0  0  0  0  0  0
  130.8352  131.1259  155.7391 C   0  0  0  0  0  0  0  0  0  0  0  0
  129.4348  131.7186  155.5652 C   0  0  0  0  0  0  0  0  0  0  0  0
  130.7841  133.3917  157.1361 C   0  0  0  0  0  0  0  0  0  0  0  0
  124.2642  133.7986  160.0980 H   0  0  0  0  0  0  0  0  0  0  0  0
  124.8496  135.4787  160.1474 H   0  0  0  0  0  0  0  0  0  0  0  0
  125.4298  134.3711  158.8807 H   0  0  0  0  0  0  0  0  0  0  0  0
  126.5516  132.9865  160.6049 H   0  0  0  0  0  0  0  0  0  0  0  0
  125.9714  134.0942  161.8718 H   0  0  0  0  0  0  0  0  0  0  0  0
  129.6073  140.9083  161.5181 H   0  0  0  0  0  0  0  0  0  0  0  0
  131.9333  141.4185  160.9476 H   0  0  0  0  0  0  0  0  0  0  0  0
  134.0583  138.1017  158.7372 H   0  0  0  0  0  0  0  0  0  0  0  0
  136.3877  138.6523  158.1689 H   0  0  0  0  0  0  0  0  0  0  0  0
  137.5103  140.5482  159.2650 H   0  0  0  0  0  0  0  0  0  0  0  0
  136.3076  141.9077  160.9247 H   0  0  0  0  0  0  0  0  0  0  0  0
  133.9745  141.3770  161.4979 H   0  0  0  0  0  0  0  0  0  0  0  0
  132.6788  137.2844  160.1112 H   0  0  0  0  0  0  0  0  0  0  0  0
  131.4244  135.0682  160.6617 H   0  0  0  0  0  0  0  0  0  0  0  0
  129.8015  134.4295  161.0170 H   0  0  0  0  0  0  0  0  0  0  0  0
  129.5739  132.1839  160.0213 H   0  0  0  0  0  0  0  0  0  0  0  0
  128.5221  132.9043  158.7606 H   0  0  0  0  0  0  0  0  0  0  0  0
  131.6422  131.5594  155.1485 H   0  0  0  0  0  0  0  0  0  0  0  0
  130.9090  130.0537  155.9211 H   0  0  0  0  0  0  0  0  0  0  0  0
  128.5874  131.0364  155.6330 H   0  0  0  0  0  0  0  0  0  0  0  0
  129.3200  132.5423  154.8606 H   0  0  0  0  0  0  0  0  0  0  0  0
  130.2100  134.1498  156.6033 H   0  0  0  0  0  0  0  0  0  0  0  0
  131.8382  133.4486  156.8648 H   0  0  0  0  0  0  0  0  0  0  0  0
  1  2  1  0
  1 33  1  0
  1 34  1  0
  1 35  1  0
  2  3  1  0
  2 36  1  0
  2 37  1  0
  3  4  1  0
  4  5  2  0
  4  6  1  0
  6 20  2  0
  6  7  1  0
  7  8  1  0
  8 19  2  0
  8  9  1  0
  9 10  2  0
  9 38  1  0
 10 11  1  0
 10 39  1  0
 11 12  1  0
 11 18  2  0
 12 17  1  0
 12 13  2  0
 13 14  1  0
 13 40  1  0
 14 15  2  0
 14 41  1  0
 15 16  1  0
 15 42  1  0
 16 17  2  0
 16 43  1  0
 17 44  1  0
 18 19  1  0
 18 45  1  0
 19 20  1  0
 20 21  1  0
 21 22  1  0
 21 46  1  0
 21 47  1  0
 22 23  1  0
 22 24  1  0
 22 25  1  0
 25 26  1  1
 25 32  1  0
 25 27  1  0
 27 28  1  0
 27 48  1  0
 27 49  1  0
 28 29  1  0
 29 31  1  0
 29 30  1  0
 29 32  1  0
 30 31  1  0
 30 50  1  0
 30 51  1  0
 31 52  1  0
 31 53  1  0
 32 54  1  0
 32 55  1  0
M  CHG  1  22   1
M  END
>  <DOCK_score>  (1) 
-45.299129

>  <SMILES>  (1) 
CCOC(=O)c1oc2ccc(-c3ccccc3)cc2c1C[NH2+][C@H]1COC2(CC2)C1

$$$$
