CSC1CC[N@H+](Cc2cnccc2NCc2cnn(-c3ccccc3)c2)C1
     RDKit          3D

 53 56  0  0  1  0  0  0  0  0999 V2000
  131.2875  130.0868  156.1803 C   0  0  0  0  0  0  0  0  0  0  0  0
  131.2454  131.8939  156.0284 S   0  0  0  0  0  0  0  0  0  0  0  0
  130.6494  132.4266  157.6567 C   0  0  2  0  0  0  0  0  0  0  0  0
  129.1733  132.0013  157.8746 C   0  0  0  0  0  0  0  0  0  0  0  0
  128.6558  133.0469  158.8848 C   0  0  0  0  0  0  0  0  0  0  0  0
  129.5302  134.2290  158.7764 N   0  0  2  0  0  0  0  0  0  0  0  0
  129.9892  134.3940  159.6597 H   0  0  0  0  0  0  0  0  0  0  0  0
  128.7295  135.4040  158.4072 C   0  0  0  0  0  0  0  0  0  0  0  0
  128.0401  135.9473  159.6322 C   0  0  0  0  0  0  0  0  0  0  0  0
  126.7862  135.4958  159.9871 C   0  0  0  0  0  0  0  0  0  0  0  0
  126.1760  135.9662  161.0586 N   0  0  0  0  0  0  0  0  0  0  0  0
  126.7306  136.8805  161.8326 C   0  0  0  0  0  0  0  0  0  0  0  0
  127.9818  137.3842  161.5468 C   0  0  0  0  0  0  0  0  0  0  0  0
  128.6612  136.9136  160.4230 C   0  0  0  0  0  0  0  0  0  0  0  0
  129.9261  137.3956  160.0996 N   0  0  0  0  0  0  0  0  0  0  0  0
  130.5609  138.4110  160.9436 C   0  0  0  0  0  0  0  0  0  0  0  0
  131.9142  138.7588  160.3794 C   0  0  0  0  0  0  0  0  0  0  0  0
  132.2077  138.9969  159.0321 C   0  0  0  0  0  0  0  0  0  0  0  0
  133.4835  139.2713  158.9331 N   0  0  0  0  0  0  0  0  0  0  0  0
  134.0461  139.2070  160.2144 N   0  0  0  0  0  0  0  0  0  0  0  0
  135.3920  139.4308  160.5367 C   0  0  0  0  0  0  0  0  0  0  0  0
  135.8158  139.3393  161.8556 C   0  0  0  0  0  0  0  0  0  0  0  0
  137.1435  139.5547  162.1694 C   0  0  0  0  0  0  0  0  0  0  0  0
  138.0483  139.8717  161.1728 C   0  0  0  0  0  0  0  0  0  0  0  0
  137.6279  139.9694  159.8592 C   0  0  0  0  0  0  0  0  0  0  0  0
  136.3026  139.7496  159.5385 C   0  0  0  0  0  0  0  0  0  0  0  0
  133.0612  138.8903  161.0853 C   0  0  0  0  0  0  0  0  0  0  0  0
  130.5424  133.9681  157.7308 C   0  0  0  0  0  0  0  0  0  0  0  0
  131.9646  129.8056  156.9868 H   0  0  0  0  0  0  0  0  0  0  0  0
  130.2861  129.7173  156.4013 H   0  0  0  0  0  0  0  0  0  0  0  0
  131.6369  129.6515  155.2441 H   0  0  0  0  0  0  0  0  0  0  0  0
  131.2885  132.0392  158.4501 H   0  0  0  0  0  0  0  0  0  0  0  0
  129.1197  130.9979  158.2969 H   0  0  0  0  0  0  0  0  0  0  0  0
  128.6140  132.0579  156.9408 H   0  0  0  0  0  0  0  0  0  0  0  0
  128.7039  132.6415  159.8955 H   0  0  0  0  0  0  0  0  0  0  0  0
  127.6289  133.3218  158.6442 H   0  0  0  0  0  0  0  0  0  0  0  0
  127.9825  135.1166  157.6672 H   0  0  0  0  0  0  0  0  0  0  0  0
  129.3810  136.1702  157.9870 H   0  0  0  0  0  0  0  0  0  0  0  0
  126.2975  134.7477  159.3804 H   0  0  0  0  0  0  0  0  0  0  0  0
  126.1971  137.2390  162.7005 H   0  0  0  0  0  0  0  0  0  0  0  0
  128.4297  138.1321  162.1841 H   0  0  0  0  0  0  0  0  0  0  0  0
  130.3873  137.0594  159.3154 H   0  0  0  0  0  0  0  0  0  0  0  0
  129.9370  139.3044  160.9686 H   0  0  0  0  0  0  0  0  0  0  0  0
  130.6780  138.0214  161.9549 H   0  0  0  0  0  0  0  0  0  0  0  0
  131.5023  138.9628  158.2151 H   0  0  0  0  0  0  0  0  0  0  0  0
  135.1088  139.0962  162.6351 H   0  0  0  0  0  0  0  0  0  0  0  0
  137.4747  139.4793  163.1946 H   0  0  0  0  0  0  0  0  0  0  0  0
  139.0851  140.0435  161.4210 H   0  0  0  0  0  0  0  0  0  0  0  0
  138.3368  140.2175  159.0829 H   0  0  0  0  0  0  0  0  0  0  0  0
  135.9749  139.8254  158.5120 H   0  0  0  0  0  0  0  0  0  0  0  0
  133.1704  138.7648  162.1523 H   0  0  0  0  0  0  0  0  0  0  0  0
  130.2123  134.3726  156.7739 H   0  0  0  0  0  0  0  0  0  0  0  0
  131.5020  134.3997  158.0154 H   0  0  0  0  0  0  0  0  0  0  0  0
  1  2  1  0
  1 29  1  0
  1 30  1  0
  1 31  1  0
  2  3  1  0
  3 28  1  0
  3  4  1  0
  3 32  1  1
  4  5  1  0
  4 33  1  0
  4 34  1  0
  5  6  1  0
  5 35  1  0
  5 36  1  0
  6  7  1  1
  6  8  1  0
  6 28  1  0
  8  9  1  0
  8 37  1  0
  8 38  1  0
  9 14  1  0
  9 10  2  0
 10 11  1  0
 10 39  1  0
 11 12  2  0
 12 13  1  0
 12 40  1  0
 13 14  2  0
 13 41  1  0
 14 15  1  0
 15 16  1  0
 15 42  1  0
 16 17  1  0
 16 43  1  0
 16 44  1  0
 17 27  2  0
 17 18  1  0
 18 19  2  0
 18 45  1  0
 19 20  1  0
 20 21  1  0
 20 27  1  0
 21 26  1  0
 21 22  2  0
 22 23  1  0
 22 46  1  0
 23 24  2  0
 23 47  1  0
 24 25  1  0
 24 48  1  0
 25 26  2  0
 25 49  1  0
 26 50  1  0
 27 51  1  0
 28 52  1  0
 28 53  1  0
M  CHG  1   6   1
M  END
>  <DOCK_score>  (1) 
-46.219528

>  <SMILES>  (1) 
CSC1CC[N@H+](Cc2cnccc2NCc2cnn(-c3ccccc3)c2)C1

$$$$
