Nc1ccc(-c2c[nH]c(N[C@H](c3ccccc3-c3ccccc3N)c3cccc4ccccc34)[nH+]2)cc1
     RDKit          3D

 65 70  0  0  1  0  0  0  0  0999 V2000
  131.1122  129.8958  152.8462 N   0  0  0  0  0  0  0  0  0  0  0  0
  131.0282  130.6190  154.0385 C   0  0  0  0  0  0  0  0  0  0  0  0
  130.6293  131.9502  154.0159 C   0  0  0  0  0  0  0  0  0  0  0  0
  130.5457  132.6659  155.1916 C   0  0  0  0  0  0  0  0  0  0  0  0
  130.8616  132.0534  156.4033 C   0  0  0  0  0  0  0  0  0  0  0  0
  130.7723  132.8214  157.6695 C   0  0  0  0  0  0  0  0  0  0  0  0
  130.4787  132.3132  158.8917 C   0  0  0  0  0  0  0  0  0  0  0  0
  130.5025  133.3649  159.7769 N   0  0  0  0  0  0  0  0  0  0  0  0
  130.3318  133.3172  160.7306 H   0  0  0  0  0  0  0  0  0  0  0  0
  130.8103  134.4848  159.0680 C   0  0  0  0  0  0  0  0  0  0  0  0
  130.9338  135.7610  159.5901 N   0  0  0  0  0  0  0  0  0  0  0  0
  130.1466  136.1523  160.7621 C   0  0  2  0  0  0  0  0  0  0  0  0
  130.3933  135.5002  161.5998 H   0  0  0  0  0  0  0  0  0  0  0  0
  128.6784  136.0292  160.4450 C   0  0  0  0  0  0  0  0  0  0  0  0
  128.2322  136.2150  159.1522 C   0  0  0  0  0  0  0  0  0  0  0  0
  126.8858  136.0976  158.8588 C   0  0  0  0  0  0  0  0  0  0  0  0
  125.9773  135.8039  159.8602 C   0  0  0  0  0  0  0  0  0  0  0  0
  126.4113  135.6212  161.1572 C   0  0  0  0  0  0  0  0  0  0  0  0
  127.7679  135.7331  161.4577 C   0  0  0  0  0  0  0  0  0  0  0  0
  128.2405  135.5384  162.8499 C   0  0  0  0  0  0  0  0  0  0  0  0
  128.3241  136.6239  163.7186 C   0  0  0  0  0  0  0  0  0  0  0  0
  128.7598  136.4370  165.0148 C   0  0  0  0  0  0  0  0  0  0  0  0
  129.1254  135.1761  165.4532 C   0  0  0  0  0  0  0  0  0  0  0  0
  129.0515  134.0923  164.5999 C   0  0  0  0  0  0  0  0  0  0  0  0
  128.6101  134.2640  163.2953 C   0  0  0  0  0  0  0  0  0  0  0  0
  128.5356  133.1714  162.4318 N   0  0  0  0  0  0  0  0  0  0  0  0
  130.4638  137.5798  161.1263 C   0  0  0  0  0  0  0  0  0  0  0  0
  129.7425  138.6002  160.5863 C   0  0  0  0  0  0  0  0  0  0  0  0
  130.0208  139.9262  160.9114 C   0  0  0  0  0  0  0  0  0  0  0  0
  131.0222  140.2398  161.7786 C   0  0  0  0  0  0  0  0  0  0  0  0
  131.7883  139.2135  162.3561 C   0  0  0  0  0  0  0  0  0  0  0  0
  132.8305  139.4982  163.2553 C   0  0  0  0  0  0  0  0  0  0  0  0
  133.5518  138.4781  163.7947 C   0  0  0  0  0  0  0  0  0  0  0  0
  133.2737  137.1517  163.4691 C   0  0  0  0  0  0  0  0  0  0  0  0
  132.2720  136.8381  162.6029 C   0  0  0  0  0  0  0  0  0  0  0  0
  131.5053  137.8645  162.0254 C   0  0  0  0  0  0  0  0  0  0  0  0
  130.9652  134.1569  157.8084 N   0  0  0  0  0  0  0  0  0  0  0  0
  131.1850  134.7710  157.0904 H   0  0  0  0  0  0  0  0  0  0  0  0
  131.2670  130.7198  156.4228 C   0  0  0  0  0  0  0  0  0  0  0  0
  131.3432  130.0062  155.2455 C   0  0  0  0  0  0  0  0  0  0  0  0
  130.8922  130.3229  152.0035 H   0  0  0  0  0  0  0  0  0  0  0  0
  131.3905  128.9668  152.8610 H   0  0  0  0  0  0  0  0  0  0  0  0
  130.3850  132.4245  153.0769 H   0  0  0  0  0  0  0  0  0  0  0  0
  130.2353  133.7003  155.1736 H   0  0  0  0  0  0  0  0  0  0  0  0
  130.2669  131.2802  159.1252 H   0  0  0  0  0  0  0  0  0  0  0  0
  131.5414  136.3961  159.1798 H   0  0  0  0  0  0  0  0  0  0  0  0
  128.9364  136.4489  158.3674 H   0  0  0  0  0  0  0  0  0  0  0  0
  126.5416  136.2396  157.8451 H   0  0  0  0  0  0  0  0  0  0  0  0
  124.9266  135.7169  159.6261 H   0  0  0  0  0  0  0  0  0  0  0  0
  125.7014  135.3915  161.9381 H   0  0  0  0  0  0  0  0  0  0  0  0
  128.0442  137.6104  163.3796 H   0  0  0  0  0  0  0  0  0  0  0  0
  128.8203  137.2790  165.6885 H   0  0  0  0  0  0  0  0  0  0  0  0
  129.4697  135.0386  166.4676 H   0  0  0  0  0  0  0  0  0  0  0  0
  129.3378  133.1109  164.9480 H   0  0  0  0  0  0  0  0  0  0  0  0
  128.3476  133.3093  161.4902 H   0  0  0  0  0  0  0  0  0  0  0  0
  128.6717  132.2736  162.7727 H   0  0  0  0  0  0  0  0  0  0  0  0
  128.9427  138.3787  159.8951 H   0  0  0  0  0  0  0  0  0  0  0  0
  129.4335  140.7170  160.4686 H   0  0  0  0  0  0  0  0  0  0  0  0
  131.2294  141.2724  162.0180 H   0  0  0  0  0  0  0  0  0  0  0  0
  133.0579  140.5212  163.5164 H   0  0  0  0  0  0  0  0  0  0  0  0
  134.3521  138.6997  164.4853 H   0  0  0  0  0  0  0  0  0  0  0  0
  133.8617  136.3611  163.9111 H   0  0  0  0  0  0  0  0  0  0  0  0
  132.0676  135.8056  162.3605 H   0  0  0  0  0  0  0  0  0  0  0  0
  131.5164  130.2445  157.3600 H   0  0  0  0  0  0  0  0  0  0  0  0
  131.6522  128.9714  155.2606 H   0  0  0  0  0  0  0  0  0  0  0  0
  1  2  1  0
  1 41  1  0
  1 42  1  0
  2 40  2  0
  2  3  1  0
  3  4  2  0
  3 43  1  0
  4  5  1  0
  4 44  1  0
  5  6  1  0
  5 39  2  0
  6 37  1  0
  6  7  2  0
  7  8  1  0
  7 45  1  0
  8  9  1  0
  8 10  1  0
 10 11  1  0
 10 37  2  0
 11 12  1  0
 11 46  1  0
 12 13  1  1
 12 14  1  0
 12 27  1  0
 14 19  1  0
 14 15  2  0
 15 16  1  0
 15 47  1  0
 16 17  2  0
 16 48  1  0
 17 18  1  0
 17 49  1  0
 18 19  2  0
 18 50  1  0
 19 20  1  0
 20 25  1  0
 20 21  2  0
 21 22  1  0
 21 51  1  0
 22 23  2  0
 22 52  1  0
 23 24  1  0
 23 53  1  0
 24 25  2  0
 24 54  1  0
 25 26  1  0
 26 55  1  0
 26 56  1  0
 27 36  1  0
 27 28  2  0
 28 29  1  0
 28 57  1  0
 29 30  2  0
 29 58  1  0
 30 31  1  0
 30 59  1  0
 31 36  2  0
 31 32  1  0
 32 33  2  0
 32 60  1  0
 33 34  1  0
 33 61  1  0
 34 35  2  0
 34 62  1  0
 35 36  1  0
 35 63  1  0
 37 38  1  0
 39 40  1  0
 39 64  1  0
 40 65  1  0
M  CHG  1  37   1
M  END
>  <DOCK_score>  (1) 
-60.008942

>  <SMILES>  (1) 
Nc1ccc(-c2c[nH]c(N[C@H](c3ccccc3-c3ccccc3N)c3cccc4ccccc34)[nH+]2)cc1

$$$$
