Cc1cccc(N2CC[NH+](C(c3ccccc3)c3ccccc3)CC2)c1C[C@H]1CNC(=O)C1
     RDKit          3D

 67 71  0  0  1  0  0  0  0  0999 V2000
  135.6209  140.6591  163.3947 C   0  0  0  0  0  0  0  0  0  0  0  0
  135.1261  140.0810  162.0940 C   0  0  0  0  0  0  0  0  0  0  0  0
  135.5983  140.5784  160.8927 C   0  0  0  0  0  0  0  0  0  0  0  0
  135.1471  140.0507  159.6973 C   0  0  0  0  0  0  0  0  0  0  0  0
  134.2265  139.0210  159.6987 C   0  0  0  0  0  0  0  0  0  0  0  0
  133.7459  138.5229  160.9030 C   0  0  0  0  0  0  0  0  0  0  0  0
  132.8111  137.4852  160.9080 N   0  0  0  0  0  0  0  0  0  0  0  0
  131.5521  137.9073  160.2778 C   0  0  0  0  0  0  0  0  0  0  0  0
  130.5374  136.7647  160.3569 C   0  0  0  0  0  0  0  0  0  0  0  0
  131.0762  135.5828  159.6709 N   0  0  0  0  0  0  0  0  0  0  0  0
  131.2658  135.8113  158.7066 H   0  0  0  0  0  0  0  0  0  0  0  0
  130.0943  134.4919  159.7314 C   0  0  0  0  0  0  0  0  0  0  0  0
  128.8185  134.9263  159.0570 C   0  0  0  0  0  0  0  0  0  0  0  0
  127.6054  134.4132  159.4767 C   0  0  0  0  0  0  0  0  0  0  0  0
  126.4352  134.8114  158.8578 C   0  0  0  0  0  0  0  0  0  0  0  0
  126.4782  135.7216  157.8184 C   0  0  0  0  0  0  0  0  0  0  0  0
  127.6914  136.2336  157.3978 C   0  0  0  0  0  0  0  0  0  0  0  0
  128.8616  135.8358  158.0169 C   0  0  0  0  0  0  0  0  0  0  0  0
  130.6468  133.2792  159.0276 C   0  0  0  0  0  0  0  0  0  0  0  0
  130.4129  133.0973  157.6774 C   0  0  0  0  0  0  0  0  0  0  0  0
  130.9234  131.9872  157.0310 C   0  0  0  0  0  0  0  0  0  0  0  0
  131.6606  131.0545  157.7367 C   0  0  0  0  0  0  0  0  0  0  0  0
  131.8895  131.2335  159.0880 C   0  0  0  0  0  0  0  0  0  0  0  0
  131.3826  132.3459  159.7336 C   0  0  0  0  0  0  0  0  0  0  0  0
  132.3201  135.1585  160.3266 C   0  0  0  0  0  0  0  0  0  0  0  0
  133.3496  136.2879  160.2474 C   0  0  0  0  0  0  0  0  0  0  0  0
  134.2016  139.0555  162.1025 C   0  0  0  0  0  0  0  0  0  0  0  0
  133.6876  138.5141  163.4117 C   0  0  0  0  0  0  0  0  0  0  0  0
  134.8572  137.9635  164.2301 C   0  0  1  0  0  0  0  0  0  0  0  0
  135.7305  138.6097  164.1423 H   0  0  0  0  0  0  0  0  0  0  0  0
  134.4560  137.7743  165.7098 C   0  0  0  0  0  0  0  0  0  0  0  0
  135.1474  136.5562  166.1499 N   0  0  0  0  0  0  0  0  0  0  0  0
  135.5687  135.8277  165.1016 C   0  0  0  0  0  0  0  0  0  0  0  0
  136.1622  134.7732  165.1823 O   0  0  0  0  0  0  0  0  0  0  0  0
  135.1956  136.5152  163.8068 C   0  0  0  0  0  0  0  0  0  0  0  0
  136.5504  140.1671  163.6808 H   0  0  0  0  0  0  0  0  0  0  0  0
  135.7979  141.7279  163.2733 H   0  0  0  0  0  0  0  0  0  0  0  0
  134.8721  140.5008  164.1710 H   0  0  0  0  0  0  0  0  0  0  0  0
  136.3214  141.3807  160.8887 H   0  0  0  0  0  0  0  0  0  0  0  0
  135.5177  140.4415  158.7612 H   0  0  0  0  0  0  0  0  0  0  0  0
  133.8777  138.6062  158.7645 H   0  0  0  0  0  0  0  0  0  0  0  0
  131.7351  138.1597  159.2334 H   0  0  0  0  0  0  0  0  0  0  0  0
  131.1589  138.7797  160.7997 H   0  0  0  0  0  0  0  0  0  0  0  0
  129.6076  137.0707  159.8774 H   0  0  0  0  0  0  0  0  0  0  0  0
  130.3445  136.5217  161.4018 H   0  0  0  0  0  0  0  0  0  0  0  0
  129.8888  134.2453  160.7730 H   0  0  0  0  0  0  0  0  0  0  0  0
  127.5718  133.7020  160.2889 H   0  0  0  0  0  0  0  0  0  0  0  0
  125.4869  134.4148  159.1895 H   0  0  0  0  0  0  0  0  0  0  0  0
  125.5640  136.0324  157.3345 H   0  0  0  0  0  0  0  0  0  0  0  0
  127.7250  136.9442  156.5851 H   0  0  0  0  0  0  0  0  0  0  0  0
  129.8094  136.2353  157.6878 H   0  0  0  0  0  0  0  0  0  0  0  0
  129.8343  133.8243  157.1269 H   0  0  0  0  0  0  0  0  0  0  0  0
  130.7445  131.8473  155.9751 H   0  0  0  0  0  0  0  0  0  0  0  0
  132.0560  130.1855  157.2319 H   0  0  0  0  0  0  0  0  0  0  0  0
  132.4651  130.5048  159.6393 H   0  0  0  0  0  0  0  0  0  0  0  0
  131.5619  132.4861  160.7893 H   0  0  0  0  0  0  0  0  0  0  0  0
  132.1180  134.9238  161.3717 H   0  0  0  0  0  0  0  0  0  0  0  0
  132.7119  134.2738  159.8248 H   0  0  0  0  0  0  0  0  0  0  0  0
  133.5621  136.5135  159.2024 H   0  0  0  0  0  0  0  0  0  0  0  0
  134.2678  135.9787  160.7470 H   0  0  0  0  0  0  0  0  0  0  0  0
  133.1989  139.3134  163.9687 H   0  0  0  0  0  0  0  0  0  0  0  0
  132.9715  137.7153  163.2186 H   0  0  0  0  0  0  0  0  0  0  0  0
  134.7832  138.6292  166.3017 H   0  0  0  0  0  0  0  0  0  0  0  0
  133.3767  137.6470  165.7947 H   0  0  0  0  0  0  0  0  0  0  0  0
  135.2831  136.3090  167.0780 H   0  0  0  0  0  0  0  0  0  0  0  0
  134.3258  136.0360  163.3574 H   0  0  0  0  0  0  0  0  0  0  0  0
  136.0372  136.5070  163.1142 H   0  0  0  0  0  0  0  0  0  0  0  0
  1  2  1  0
  1 36  1  0
  1 37  1  0
  1 38  1  0
  2 27  2  0
  2  3  1  0
  3  4  2  0
  3 39  1  0
  4  5  1  0
  4 40  1  0
  5  6  2  0
  5 41  1  0
  6  7  1  0
  6 27  1  0
  7 26  1  0
  7  8  1  0
  8  9  1  0
  8 42  1  0
  8 43  1  0
  9 10  1  0
  9 44  1  0
  9 45  1  0
 10 11  1  0
 10 12  1  0
 10 25  1  0
 12 13  1  0
 12 19  1  0
 12 46  1  0
 13 18  1  0
 13 14  2  0
 14 15  1  0
 14 47  1  0
 15 16  2  0
 15 48  1  0
 16 17  1  0
 16 49  1  0
 17 18  2  0
 17 50  1  0
 18 51  1  0
 19 24  1  0
 19 20  2  0
 20 21  1  0
 20 52  1  0
 21 22  2  0
 21 53  1  0
 22 23  1  0
 22 54  1  0
 23 24  2  0
 23 55  1  0
 24 56  1  0
 25 26  1  0
 25 57  1  0
 25 58  1  0
 26 59  1  0
 26 60  1  0
 27 28  1  0
 28 29  1  0
 28 61  1  0
 28 62  1  0
 29 30  1  1
 29 35  1  0
 29 31  1  0
 31 32  1  0
 31 63  1  0
 31 64  1  0
 32 33  1  0
 32 65  1  0
 33 34  2  0
 33 35  1  0
 35 66  1  0
 35 67  1  0
M  CHG  1  10   1
M  END
>  <DOCK_score>  (1) 
-58.842091

>  <SMILES>  (1) 
Cc1cccc(N2CC[NH+](C(c3ccccc3)c3ccccc3)CC2)c1C[C@H]1CNC(=O)C1

$$$$
