O=C1CC[C@H](NC(NC2CC=CC2)=[NH+]C2CCC2)CN1
     RDKit          3D

 45 47  0  0  1  0  0  0  0  0999 V2000
  124.0919  133.6360  161.6691 O   0  0  0  0  0  0  0  0  0  0  0  0
  125.2547  133.9363  161.4998 C   0  0  0  0  0  0  0  0  0  0  0  0
  126.2011  132.8724  161.0225 C   0  0  0  0  0  0  0  0  0  0  0  0
  127.6458  133.3044  161.2855 C   0  0  0  0  0  0  0  0  0  0  0  0
  127.8262  134.7354  160.7645 C   0  0  2  0  0  0  0  0  0  0  0  0
  127.4901  134.7927  159.7292 H   0  0  0  0  0  0  0  0  0  0  0  0
  129.2395  135.1129  160.8439 N   0  0  0  0  0  0  0  0  0  0  0  0
  130.0773  134.8677  159.7816 C   0  0  0  0  0  0  0  0  0  0  0  0
  129.5886  134.2683  158.6450 N   0  0  0  0  0  0  0  0  0  0  0  0
  130.4657  133.4291  157.8246 C   0  0  0  0  0  0  0  0  0  0  0  0
  129.6644  132.7047  156.7181 C   0  0  0  0  0  0  0  0  0  0  0  0
  130.3024  131.3380  156.6151 C   0  0  0  0  0  0  0  0  0  0  0  0
  131.0375  131.0819  157.6628 C   0  0  0  0  0  0  0  0  0  0  0  0
  131.0123  132.2343  158.6400 C   0  0  0  0  0  0  0  0  0  0  0  0
  131.3346  135.2036  159.8523 N   0  0  0  0  0  0  0  0  0  0  0  0
  131.9257  135.0307  159.1029 H   0  0  0  0  0  0  0  0  0  0  0  0
  131.8553  135.8423  161.0636 C   0  0  0  0  0  0  0  0  0  0  0  0
  133.3026  136.3428  160.9226 C   0  0  0  0  0  0  0  0  0  0  0  0
  133.5332  135.8341  162.3572 C   0  0  0  0  0  0  0  0  0  0  0  0
  132.3825  134.8447  162.1082 C   0  0  0  0  0  0  0  0  0  0  0  0
  126.9932  135.6806  161.6310 C   0  0  0  0  0  0  0  0  0  0  0  0
  125.6244  135.1935  161.7469 N   0  0  0  0  0  0  0  0  0  0  0  0
  126.0593  132.7146  159.9533 H   0  0  0  0  0  0  0  0  0  0  0  0
  125.9982  131.9435  161.5555 H   0  0  0  0  0  0  0  0  0  0  0  0
  128.3298  132.6350  160.7638 H   0  0  0  0  0  0  0  0  0  0  0  0
  127.8491  133.2753  162.3559 H   0  0  0  0  0  0  0  0  0  0  0  0
  129.5851  135.5322  161.6474 H   0  0  0  0  0  0  0  0  0  0  0  0
  128.6633  134.4010  158.3862 H   0  0  0  0  0  0  0  0  0  0  0  0
  131.2787  134.0165  157.3981 H   0  0  0  0  0  0  0  0  0  0  0  0
  128.6169  132.6137  157.0054 H   0  0  0  0  0  0  0  0  0  0  0  0
  129.7547  133.2389  155.7723 H   0  0  0  0  0  0  0  0  0  0  0  0
  130.1680  130.6626  155.7832 H   0  0  0  0  0  0  0  0  0  0  0  0
  131.5910  130.1667  157.8118 H   0  0  0  0  0  0  0  0  0  0  0  0
  132.0183  132.4489  159.0001 H   0  0  0  0  0  0  0  0  0  0  0  0
  130.3500  132.0107  159.4763 H   0  0  0  0  0  0  0  0  0  0  0  0
  131.1741  136.5869  161.4756 H   0  0  0  0  0  0  0  0  0  0  0  0
  133.8794  135.8044  160.1706 H   0  0  0  0  0  0  0  0  0  0  0  0
  133.3826  137.4253  160.8241 H   0  0  0  0  0  0  0  0  0  0  0  0
  133.3118  136.5773  163.1233 H   0  0  0  0  0  0  0  0  0  0  0  0
  134.5000  135.3522  162.5019 H   0  0  0  0  0  0  0  0  0  0  0  0
  131.7210  134.7195  162.9653 H   0  0  0  0  0  0  0  0  0  0  0  0
  132.7074  133.8960  161.6809 H   0  0  0  0  0  0  0  0  0  0  0  0
  127.4380  135.7450  162.6241 H   0  0  0  0  0  0  0  0  0  0  0  0
  126.9857  136.6720  161.1781 H   0  0  0  0  0  0  0  0  0  0  0  0
  124.9394  135.8232  162.0209 H   0  0  0  0  0  0  0  0  0  0  0  0
  1  2  2  0
  2 22  1  0
  2  3  1  0
  3  4  1  0
  3 23  1  0
  3 24  1  0
  4  5  1  0
  4 25  1  0
  4 26  1  0
  5  6  1  6
  5  7  1  0
  5 21  1  0
  7 27  1  0
  8  7  1  0
  8  9  1  0
  8 15  2  0
  9 10  1  0
  9 28  1  0
 10 14  1  0
 10 11  1  0
 10 29  1  0
 11 12  1  0
 11 30  1  0
 11 31  1  0
 12 13  2  0
 12 32  1  0
 13 14  1  0
 13 33  1  0
 14 34  1  0
 14 35  1  0
 15 16  1  0
 15 17  1  0
 17 20  1  0
 17 18  1  0
 17 36  1  0
 18 19  1  0
 18 37  1  0
 18 38  1  0
 19 20  1  0
 19 39  1  0
 19 40  1  0
 20 41  1  0
 20 42  1  0
 21 22  1  0
 21 43  1  0
 21 44  1  0
 22 45  1  0
M  CHG  1  15   1
M  END
>  <DOCK_score>  (1) 
-40.959507

>  <SMILES>  (1) 
O=C1CC[C@H](NC(NC2CC=CC2)=[NH+]C2CCC2)CN1

$$$$
