CC1=CC(=C[C@@H](Nc2[nH]cc(-c3cccnc3)[nH+]2)c2cccnc2)CC1
     RDKit          3D

 48 51  0  0  1  0  0  0  0  0999 V2000
  134.6280  137.4333  162.5966 C   0  0  0  0  0  0  0  0  0  0  0  0
  133.5870  136.3436  162.5991 C   0  0  0  0  0  0  0  0  0  0  0  0
  132.5321  136.3122  161.8074 C   0  0  0  0  0  0  0  0  0  0  0  0
  131.6963  135.1292  162.0441 C   0  0  0  0  0  0  0  0  0  0  0  0
  130.5701  134.8215  161.4096 C   0  0  0  0  0  0  0  0  0  0  0  0
  130.0371  135.7340  160.3352 C   0  0  1  0  0  0  0  0  0  0  0  0
  130.3283  136.7615  160.5537 H   0  0  0  0  0  0  0  0  0  0  0  0
  130.5888  135.3355  159.0379 N   0  0  0  0  0  0  0  0  0  0  0  0
  130.3501  134.0639  158.5455 C   0  0  0  0  0  0  0  0  0  0  0  0
  129.6271  133.0947  159.1700 N   0  0  0  0  0  0  0  0  0  0  0  0
  129.1899  133.1700  160.0326 H   0  0  0  0  0  0  0  0  0  0  0  0
  129.6284  131.9911  158.3519 C   0  0  0  0  0  0  0  0  0  0  0  0
  130.3582  132.3145  157.2558 C   0  0  0  0  0  0  0  0  0  0  0  0
  130.6370  131.4277  156.0999 C   0  0  0  0  0  0  0  0  0  0  0  0
  130.2208  131.7847  154.8139 C   0  0  0  0  0  0  0  0  0  0  0  0
  130.5093  130.9251  153.7684 C   0  0  0  0  0  0  0  0  0  0  0  0
  131.1847  129.7463  154.0282 C   0  0  0  0  0  0  0  0  0  0  0  0
  131.5605  129.4337  155.2532 N   0  0  0  0  0  0  0  0  0  0  0  0
  131.3128  130.2224  156.2790 C   0  0  0  0  0  0  0  0  0  0  0  0
  130.7879  133.5929  157.4033 N   0  0  0  0  0  0  0  0  0  0  0  0
  131.3324  134.0804  156.7656 H   0  0  0  0  0  0  0  0  0  0  0  0
  128.5338  135.6362  160.2933 C   0  0  0  0  0  0  0  0  0  0  0  0
  127.8503  135.8347  159.1032 C   0  0  0  0  0  0  0  0  0  0  0  0
  126.4675  135.7349  159.1120 C   0  0  0  0  0  0  0  0  0  0  0  0
  125.8209  135.4429  160.2982 C   0  0  0  0  0  0  0  0  0  0  0  0
  126.5036  135.2601  161.4113 N   0  0  0  0  0  0  0  0  0  0  0  0
  127.8197  135.3418  161.4389 C   0  0  0  0  0  0  0  0  0  0  0  0
  132.3577  134.3210  163.1401 C   0  0  0  0  0  0  0  0  0  0  0  0
  133.6120  135.1359  163.5015 C   0  0  0  0  0  0  0  0  0  0  0  0
  135.4181  137.1794  161.8899 H   0  0  0  0  0  0  0  0  0  0  0  0
  134.1665  138.3759  162.3027 H   0  0  0  0  0  0  0  0  0  0  0  0
  135.0524  137.5325  163.5958 H   0  0  0  0  0  0  0  0  0  0  0  0
  132.3075  137.0713  161.0728 H   0  0  0  0  0  0  0  0  0  0  0  0
  130.0368  133.9175  161.6638 H   0  0  0  0  0  0  0  0  0  0  0  0
  131.1215  135.9625  158.5242 H   0  0  0  0  0  0  0  0  0  0  0  0
  129.1442  131.0454  158.5465 H   0  0  0  0  0  0  0  0  0  0  0  0
  129.6911  132.7098  154.6401 H   0  0  0  0  0  0  0  0  0  0  0  0
  130.2065  131.1699  152.7610 H   0  0  0  0  0  0  0  0  0  0  0  0
  131.4082  129.0714  153.2152 H   0  0  0  0  0  0  0  0  0  0  0  0
  131.6368  129.9323  157.2675 H   0  0  0  0  0  0  0  0  0  0  0  0
  128.3823  136.0621  158.1913 H   0  0  0  0  0  0  0  0  0  0  0  0
  125.9028  135.8832  158.2034 H   0  0  0  0  0  0  0  0  0  0  0  0
  124.7439  135.3637  160.3136 H   0  0  0  0  0  0  0  0  0  0  0  0
  128.3450  135.1809  162.3689 H   0  0  0  0  0  0  0  0  0  0  0  0
  131.6969  134.2346  164.0026 H   0  0  0  0  0  0  0  0  0  0  0  0
  132.6346  133.3330  162.7720 H   0  0  0  0  0  0  0  0  0  0  0  0
  133.5720  135.4454  164.5460 H   0  0  0  0  0  0  0  0  0  0  0  0
  134.5101  134.5465  163.3170 H   0  0  0  0  0  0  0  0  0  0  0  0
  1  2  1  0
  1 30  1  0
  1 31  1  0
  1 32  1  0
  2 29  1  0
  2  3  2  0
  3  4  1  0
  3 33  1  0
  4  5  2  0
  4 28  1  0
  5  6  1  0
  5 34  1  0
  6  7  1  1
  6  8  1  0
  6 22  1  0
  8 35  1  0
  9  8  1  0
  9 20  2  0
  9 10  1  0
 10 11  1  0
 10 12  1  0
 12 13  2  0
 12 36  1  0
 13 14  1  0
 13 20  1  0
 14 19  1  0
 14 15  2  0
 15 16  1  0
 15 37  1  0
 16 17  2  0
 16 38  1  0
 17 18  1  0
 17 39  1  0
 18 19  2  0
 19 40  1  0
 20 21  1  0
 22 27  1  0
 22 23  2  0
 23 24  1  0
 23 41  1  0
 24 25  2  0
 24 42  1  0
 25 26  1  0
 25 43  1  0
 26 27  2  0
 27 44  1  0
 28 29  1  0
 28 45  1  0
 28 46  1  0
 29 47  1  0
 29 48  1  0
M  CHG  1  20   1
M  END
>  <DOCK_score>  (1) 
-51.736328

>  <SMILES>  (1) 
CC1=CC(=C[C@@H](Nc2[nH]cc(-c3cccnc3)[nH+]2)c2cccnc2)CC1

$$$$
