FC(F)[C@@H](C/C1=C/CC/C=C\CC1)Nc1[nH]cc(-c2ccc(-c3cncnc3)cc2)[nH+]1
     RDKit          3D

 57 60  0  0  1  0  0  0  0  0999 V2000
  131.3656  133.8566  162.2390 F   0  0  0  0  0  0  0  0  0  0  0  0
  132.0414  135.0790  162.1596 C   0  0  0  0  0  0  0  0  0  0  0  0
  133.2687  134.8923  161.5145 F   0  0  0  0  0  0  0  0  0  0  0  0
  131.1960  136.0787  161.3678 C   0  0  1  0  0  0  0  0  0  0  0  0
  130.1473  135.9655  161.6426 H   0  0  0  0  0  0  0  0  0  0  0  0
  131.6564  137.5022  161.6880 C   0  0  0  0  0  0  0  0  0  0  0  0
  133.1099  137.6590  161.3073 C   0  0  0  0  0  0  0  0  0  0  0  0
  134.0104  137.3778  162.2267 C   0  0  0  0  0  0  0  0  0  0  0  0
  135.4701  137.5204  161.9268 C   0  0  0  0  0  0  0  0  0  0  0  0
  135.9968  138.9209  162.1348 C   0  0  0  0  0  0  0  0  0  0  0  0
  134.9451  139.9717  162.1293 C   0  0  0  0  0  0  0  0  0  0  0  0
  134.1692  140.1385  161.0887 C   0  0  0  0  0  0  0  0  0  0  0  0
  134.3497  139.2988  159.8549 C   0  0  0  0  0  0  0  0  0  0  0  0
  133.4152  138.1027  159.9238 C   0  0  0  0  0  0  0  0  0  0  0  0
  131.3552  135.8250  159.9338 N   0  0  0  0  0  0  0  0  0  0  0  0
  131.0018  134.5955  159.4050 C   0  0  0  0  0  0  0  0  0  0  0  0
  130.5029  133.5434  160.1098 N   0  0  0  0  0  0  0  0  0  0  0  0
  130.3330  133.5204  161.0644 H   0  0  0  0  0  0  0  0  0  0  0  0
  130.2817  132.5213  159.2193 C   0  0  0  0  0  0  0  0  0  0  0  0
  130.6602  132.9746  157.9978 C   0  0  0  0  0  0  0  0  0  0  0  0
  130.6060  132.2109  156.7284 C   0  0  0  0  0  0  0  0  0  0  0  0
  130.4034  132.8788  155.5206 C   0  0  0  0  0  0  0  0  0  0  0  0
  130.3585  132.1696  154.3408 C   0  0  0  0  0  0  0  0  0  0  0  0
  130.5048  130.7828  154.3547 C   0  0  0  0  0  0  0  0  0  0  0  0
  130.4506  130.0188  153.0846 C   0  0  0  0  0  0  0  0  0  0  0  0
  131.1697  128.8305  152.9302 C   0  0  0  0  0  0  0  0  0  0  0  0
  131.0883  128.1778  151.7836 N   0  0  0  0  0  0  0  0  0  0  0  0
  130.3528  128.6392  150.7915 C   0  0  0  0  0  0  0  0  0  0  0  0
  129.6635  129.7585  150.8934 N   0  0  0  0  0  0  0  0  0  0  0  0
  129.6837  130.4702  152.0070 C   0  0  0  0  0  0  0  0  0  0  0  0
  130.7016  130.1143  155.5626 C   0  0  0  0  0  0  0  0  0  0  0  0
  130.7519  130.8237  156.7421 C   0  0  0  0  0  0  0  0  0  0  0  0
  131.0977  134.2507  158.1441 N   0  0  0  0  0  0  0  0  0  0  0  0
  131.4285  134.8174  157.4297 H   0  0  0  0  0  0  0  0  0  0  0  0
  132.2141  135.4647  163.1643 H   0  0  0  0  0  0  0  0  0  0  0  0
  131.0542  138.2144  161.1241 H   0  0  0  0  0  0  0  0  0  0  0  0
  131.5379  137.6910  162.7550 H   0  0  0  0  0  0  0  0  0  0  0  0
  133.6929  137.0403  163.2050 H   0  0  0  0  0  0  0  0  0  0  0  0
  135.6481  137.2300  160.8933 H   0  0  0  0  0  0  0  0  0  0  0  0
  136.0257  136.8441  162.5769 H   0  0  0  0  0  0  0  0  0  0  0  0
  136.7159  139.1420  161.3487 H   0  0  0  0  0  0  0  0  0  0  0  0
  136.5111  138.9542  163.0952 H   0  0  0  0  0  0  0  0  0  0  0  0
  134.8110  140.5956  163.0005 H   0  0  0  0  0  0  0  0  0  0  0  0
  133.3915  140.8893  161.1181 H   0  0  0  0  0  0  0  0  0  0  0  0
  135.3833  138.9598  159.7814 H   0  0  0  0  0  0  0  0  0  0  0  0
  134.1111  139.8969  158.9705 H   0  0  0  0  0  0  0  0  0  0  0  0
  133.8674  137.2702  159.3794 H   0  0  0  0  0  0  0  0  0  0  0  0
  132.4768  138.3620  159.4256 H   0  0  0  0  0  0  0  0  0  0  0  0
  131.7084  136.5184  159.3548 H   0  0  0  0  0  0  0  0  0  0  0  0
  129.8864  131.5426  159.4483 H   0  0  0  0  0  0  0  0  0  0  0  0
  130.2860  133.9523  155.5103 H   0  0  0  0  0  0  0  0  0  0  0  0
  130.2056  132.6871  153.4052 H   0  0  0  0  0  0  0  0  0  0  0  0
  131.7783  128.4487  153.7367 H   0  0  0  0  0  0  0  0  0  0  0  0
  130.3133  128.0829  149.8667 H   0  0  0  0  0  0  0  0  0  0  0  0
  129.1161  131.3859  152.0832 H   0  0  0  0  0  0  0  0  0  0  0  0
  130.8142  129.0402  155.5733 H   0  0  0  0  0  0  0  0  0  0  0  0
  130.9040  130.3059  157.6777 H   0  0  0  0  0  0  0  0  0  0  0  0
  1  2  1  0
  2  3  1  0
  2  4  1  0
  2 35  1  0
  4  5  1  1
  4  6  1  0
  4 15  1  0
  6  7  1  0
  6 36  1  0
  6 37  1  0
  7 14  1  0
  7  8  2  0
  8  9  1  0
  8 38  1  0
  9 10  1  0
  9 39  1  0
  9 40  1  0
 10 11  1  0
 10 41  1  0
 10 42  1  0
 11 12  2  0
 11 43  1  0
 12 13  1  0
 12 44  1  0
 13 14  1  0
 13 45  1  0
 13 46  1  0
 14 47  1  0
 14 48  1  0
 15 49  1  0
 16 15  1  0
 16 33  2  0
 16 17  1  0
 17 18  1  0
 17 19  1  0
 19 20  2  0
 19 50  1  0
 20 21  1  0
 20 33  1  0
 21 32  1  0
 21 22  2  0
 22 23  1  0
 22 51  1  0
 23 24  2  0
 23 52  1  0
 24 25  1  0
 24 31  1  0
 25 30  1  0
 25 26  2  0
 26 27  1  0
 26 53  1  0
 27 28  2  0
 28 29  1  0
 28 54  1  0
 29 30  2  0
 30 55  1  0
 31 32  2  0
 31 56  1  0
 32 57  1  0
 33 34  1  0
M  CHG  1  33   1
M  END
>  <DOCK_score>  (1) 
-59.871384

>  <SMILES>  (1) 
FC(F)[C@@H](C/C1=C/CC/C=C\CC1)Nc1[nH]cc(-c2ccc(-c3cncnc3)cc2)[nH+]1

$$$$
