Nc1ccc(-c2c[nH]c(N[C@@H](c3ccc(-c4ccccc4Cl)cc3)C3CCC3)[nH+]2)cc1
     RDKit          3D

 57 61  0  0  1  0  0  0  0  0999 V2000
  131.5974  129.9015  151.8478 N   0  0  0  0  0  0  0  0  0  0  0  0
  131.3106  130.5052  153.0745 C   0  0  0  0  0  0  0  0  0  0  0  0
  130.8510  131.8164  153.1121 C   0  0  0  0  0  0  0  0  0  0  0  0
  130.5673  132.4142  154.3218 C   0  0  0  0  0  0  0  0  0  0  0  0
  130.7419  131.7026  155.5077 C   0  0  0  0  0  0  0  0  0  0  0  0
  130.4373  132.3437  156.8105 C   0  0  0  0  0  0  0  0  0  0  0  0
  130.0096  131.7106  157.9306 C   0  0  0  0  0  0  0  0  0  0  0  0
  129.8467  132.6755  158.8963 N   0  0  0  0  0  0  0  0  0  0  0  0
  129.5464  132.5319  159.8074 H   0  0  0  0  0  0  0  0  0  0  0  0
  130.1850  133.8694  158.3379 C   0  0  0  0  0  0  0  0  0  0  0  0
  130.1587  135.0960  158.9794 N   0  0  0  0  0  0  0  0  0  0  0  0
  129.1929  135.3403  160.0535 C   0  0  1  0  0  0  0  0  0  0  0  0
  129.1075  134.4489  160.6750 H   0  0  0  0  0  0  0  0  0  0  0  0
  129.6620  136.4977  160.8970 C   0  0  0  0  0  0  0  0  0  0  0  0
  129.8442  137.7416  160.3201 C   0  0  0  0  0  0  0  0  0  0  0  0
  130.2689  138.8062  161.0889 C   0  0  0  0  0  0  0  0  0  0  0  0
  130.5238  138.6239  162.4465 C   0  0  0  0  0  0  0  0  0  0  0  0
  130.9861  139.7633  163.2769 C   0  0  0  0  0  0  0  0  0  0  0  0
  132.3488  140.0167  163.4204 C   0  0  0  0  0  0  0  0  0  0  0  0
  132.7730  141.0814  164.1892 C   0  0  0  0  0  0  0  0  0  0  0  0
  131.8483  141.8900  164.8270 C   0  0  0  0  0  0  0  0  0  0  0  0
  130.4955  141.6407  164.6932 C   0  0  0  0  0  0  0  0  0  0  0  0
  130.0587  140.5811  163.9213 C   0  0  0  0  0  0  0  0  0  0  0  0
  128.3593  140.2686  163.7548 Cl  0  0  0  0  0  0  0  0  0  0  0  0
  130.3435  137.3674  163.0215 C   0  0  0  0  0  0  0  0  0  0  0  0
  129.9139  136.3109  162.2442 C   0  0  0  0  0  0  0  0  0  0  0  0
  127.8280  135.6716  159.4464 C   0  0  0  0  0  0  0  0  0  0  0  0
  126.7242  135.8893  160.4948 C   0  0  0  0  0  0  0  0  0  0  0  0
  125.7853  135.1193  159.5482 C   0  0  0  0  0  0  0  0  0  0  0  0
  127.0416  134.4330  158.9864 C   0  0  0  0  0  0  0  0  0  0  0  0
  130.5402  133.6666  157.0925 N   0  0  0  0  0  0  0  0  0  0  0  0
  130.8268  134.3535  156.4705 H   0  0  0  0  0  0  0  0  0  0  0  0
  131.2084  130.3896  155.4680 C   0  0  0  0  0  0  0  0  0  0  0  0
  131.4849  129.7937  154.2556 C   0  0  0  0  0  0  0  0  0  0  0  0
  131.4756  130.3973  151.0230 H   0  0  0  0  0  0  0  0  0  0  0  0
  131.9181  128.9864  151.8207 H   0  0  0  0  0  0  0  0  0  0  0  0
  130.7163  132.3674  152.1931 H   0  0  0  0  0  0  0  0  0  0  0  0
  130.2099  133.4330  154.3505 H   0  0  0  0  0  0  0  0  0  0  0  0
  129.8274  130.6519  158.0416 H   0  0  0  0  0  0  0  0  0  0  0  0
  130.7799  135.7935  158.7177 H   0  0  0  0  0  0  0  0  0  0  0  0
  129.6499  137.8809  159.2668 H   0  0  0  0  0  0  0  0  0  0  0  0
  130.4074  139.7778  160.6381 H   0  0  0  0  0  0  0  0  0  0  0  0
  133.0715  139.3836  162.9274 H   0  0  0  0  0  0  0  0  0  0  0  0
  133.8289  141.2811  164.2972 H   0  0  0  0  0  0  0  0  0  0  0  0
  132.1860  142.7194  165.4306 H   0  0  0  0  0  0  0  0  0  0  0  0
  129.7785  142.2749  165.1934 H   0  0  0  0  0  0  0  0  0  0  0  0
  130.5393  137.2206  164.0734 H   0  0  0  0  0  0  0  0  0  0  0  0
  129.7738  135.3367  162.6888 H   0  0  0  0  0  0  0  0  0  0  0  0
  127.8790  136.4602  158.6957 H   0  0  0  0  0  0  0  0  0  0  0  0
  126.9104  135.3758  161.4380 H   0  0  0  0  0  0  0  0  0  0  0  0
  126.4490  136.9354  160.6284 H   0  0  0  0  0  0  0  0  0  0  0  0
  125.2764  135.7575  158.8259 H   0  0  0  0  0  0  0  0  0  0  0  0
  125.1077  134.4371  160.0616 H   0  0  0  0  0  0  0  0  0  0  0  0
  127.0221  134.3052  157.9041 H   0  0  0  0  0  0  0  0  0  0  0  0
  127.3146  133.5206  159.5166 H   0  0  0  0  0  0  0  0  0  0  0  0
  131.3489  129.8380  156.3858 H   0  0  0  0  0  0  0  0  0  0  0  0
  131.8418  128.7748  154.2241 H   0  0  0  0  0  0  0  0  0  0  0  0
  1  2  1  0
  1 35  1  0
  1 36  1  0
  2 34  2  0
  2  3  1  0
  3  4  2  0
  3 37  1  0
  4  5  1  0
  4 38  1  0
  5  6  1  0
  5 33  2  0
  6 31  1  0
  6  7  2  0
  7  8  1  0
  7 39  1  0
  8  9  1  0
  8 10  1  0
 10 11  1  0
 10 31  2  0
 11 12  1  0
 11 40  1  0
 12 13  1  1
 12 14  1  0
 12 27  1  0
 14 26  1  0
 14 15  2  0
 15 16  1  0
 15 41  1  0
 16 17  2  0
 16 42  1  0
 17 18  1  0
 17 25  1  0
 18 23  1  0
 18 19  2  0
 19 20  1  0
 19 43  1  0
 20 21  2  0
 20 44  1  0
 21 22  1  0
 21 45  1  0
 22 23  2  0
 22 46  1  0
 23 24  1  0
 25 26  2  0
 25 47  1  0
 26 48  1  0
 27 30  1  0
 27 28  1  0
 27 49  1  0
 28 29  1  0
 28 50  1  0
 28 51  1  0
 29 30  1  0
 29 52  1  0
 29 53  1  0
 30 54  1  0
 30 55  1  0
 31 32  1  0
 33 34  1  0
 33 56  1  0
 34 57  1  0
M  CHG  1  31   1
M  END
>  <DOCK_score>  (1) 
-60.969196

>  <SMILES>  (1) 
Nc1ccc(-c2c[nH]c(N[C@@H](c3ccc(-c4ccccc4Cl)cc3)C3CCC3)[nH+]2)cc1

$$$$
