C1=C(CN(Cc2ccncc2)[C@H]2CCC[NH+](Cc3ccccc3)C2)CCOC1
     RDKit          3D

 60 63  0  0  1  0  0  0  0  0999 V2000
  131.2522  130.7971  159.5198 C   0  0  0  0  0  0  0  0  0  0  0  0
  131.3914  132.0646  159.2774 C   0  0  0  0  0  0  0  0  0  0  0  0
  131.8942  132.9632  160.3777 C   0  0  0  0  0  0  0  0  0  0  0  0
  130.8869  133.9923  160.6681 N   0  0  0  0  0  0  0  0  0  0  0  0
  129.8201  133.4578  161.5250 C   0  0  0  0  0  0  0  0  0  0  0  0
  128.5968  134.3301  161.4071 C   0  0  0  0  0  0  0  0  0  0  0  0
  127.8863  134.7124  162.5347 C   0  0  0  0  0  0  0  0  0  0  0  0
  126.7718  135.5163  162.3879 C   0  0  0  0  0  0  0  0  0  0  0  0
  126.3773  135.9108  161.1930 N   0  0  0  0  0  0  0  0  0  0  0  0
  127.0256  135.5628  160.0987 C   0  0  0  0  0  0  0  0  0  0  0  0
  128.1517  134.7645  160.1679 C   0  0  0  0  0  0  0  0  0  0  0  0
  131.5058  135.1780  161.2757 C   0  0  1  0  0  0  0  0  0  0  0  0
  130.7449  135.7590  161.7968 H   0  0  0  0  0  0  0  0  0  0  0  0
  132.5844  134.7390  162.2704 C   0  0  0  0  0  0  0  0  0  0  0  0
  133.2763  135.9811  162.8392 C   0  0  0  0  0  0  0  0  0  0  0  0
  133.8513  136.8099  161.6886 C   0  0  0  0  0  0  0  0  0  0  0  0
  132.7679  137.2210  160.7876 N   0  0  1  0  0  0  0  0  0  0  0  0
  132.0730  137.7328  161.3105 H   0  0  0  0  0  0  0  0  0  0  0  0
  133.3132  138.0806  159.7286 C   0  0  0  0  0  0  0  0  0  0  0  0
  133.9434  139.3016  160.3475 C   0  0  0  0  0  0  0  0  0  0  0  0
  135.0144  139.9167  159.7265 C   0  0  0  0  0  0  0  0  0  0  0  0
  135.5896  141.0393  160.2920 C   0  0  0  0  0  0  0  0  0  0  0  0
  135.0999  141.5413  161.4833 C   0  0  0  0  0  0  0  0  0  0  0  0
  134.0320  140.9233  162.1067 C   0  0  0  0  0  0  0  0  0  0  0  0
  133.4541  139.8033  161.5391 C   0  0  0  0  0  0  0  0  0  0  0  0
  132.1465  136.0366  160.1830 C   0  0  0  0  0  0  0  0  0  0  0  0
  131.0670  132.6709  157.9400 C   0  0  0  0  0  0  0  0  0  0  0  0
  130.9821  131.5665  156.8825 C   0  0  0  0  0  0  0  0  0  0  0  0
  130.1637  130.5092  157.3980 O   0  0  0  0  0  0  0  0  0  0  0  0
  130.7700  129.8151  158.4902 C   0  0  0  0  0  0  0  0  0  0  0  0
  131.4966  130.4325  160.5065 H   0  0  0  0  0  0  0  0  0  0  0  0
  132.0781  132.3715  161.2744 H   0  0  0  0  0  0  0  0  0  0  0  0
  132.8212  133.4412  160.0613 H   0  0  0  0  0  0  0  0  0  0  0  0
  129.5749  132.4436  161.2099 H   0  0  0  0  0  0  0  0  0  0  0  0
  130.1586  133.4448  162.5610 H   0  0  0  0  0  0  0  0  0  0  0  0
  128.2019  134.3888  163.5156 H   0  0  0  0  0  0  0  0  0  0  0  0
  126.2149  135.8213  163.2616 H   0  0  0  0  0  0  0  0  0  0  0  0
  126.6724  135.9054  159.1374 H   0  0  0  0  0  0  0  0  0  0  0  0
  128.6779  134.4822  159.2680 H   0  0  0  0  0  0  0  0  0  0  0  0
  132.1241  134.1746  163.0813 H   0  0  0  0  0  0  0  0  0  0  0  0
  133.3179  134.1145  161.7605 H   0  0  0  0  0  0  0  0  0  0  0  0
  132.5525  136.5795  163.3926 H   0  0  0  0  0  0  0  0  0  0  0  0
  134.0820  135.6754  163.5066 H   0  0  0  0  0  0  0  0  0  0  0  0
  134.3448  137.6949  162.0902 H   0  0  0  0  0  0  0  0  0  0  0  0
  134.5746  136.2105  161.1358 H   0  0  0  0  0  0  0  0  0  0  0  0
  134.0659  137.5295  159.1649 H   0  0  0  0  0  0  0  0  0  0  0  0
  132.5094  138.3866  159.0589 H   0  0  0  0  0  0  0  0  0  0  0  0
  135.3995  139.5221  158.7979 H   0  0  0  0  0  0  0  0  0  0  0  0
  136.4238  141.5222  159.8047 H   0  0  0  0  0  0  0  0  0  0  0  0
  135.5515  142.4164  161.9269 H   0  0  0  0  0  0  0  0  0  0  0  0
  133.6495  141.3155  163.0374 H   0  0  0  0  0  0  0  0  0  0  0  0
  132.6200  139.3203  162.0263 H   0  0  0  0  0  0  0  0  0  0  0  0
  132.9066  135.4537  159.6626 H   0  0  0  0  0  0  0  0  0  0  0  0
  131.3815  136.3507  159.4730 H   0  0  0  0  0  0  0  0  0  0  0  0
  131.8483  133.3789  157.6634 H   0  0  0  0  0  0  0  0  0  0  0  0
  130.1108  133.1905  157.9998 H   0  0  0  0  0  0  0  0  0  0  0  0
  131.9808  131.1863  156.6677 H   0  0  0  0  0  0  0  0  0  0  0  0
  130.5363  131.9647  155.9710 H   0  0  0  0  0  0  0  0  0  0  0  0
  130.0388  129.1459  158.9437 H   0  0  0  0  0  0  0  0  0  0  0  0
  131.6148  129.2320  158.1233 H   0  0  0  0  0  0  0  0  0  0  0  0
  1 30  1  0
  1  2  2  0
  1 31  1  0
  2  3  1  0
  2 27  1  0
  3  4  1  0
  3 32  1  0
  3 33  1  0
  4  5  1  0
  4 12  1  0
  5  6  1  0
  5 34  1  0
  5 35  1  0
  6 11  1  0
  6  7  2  0
  7  8  1  0
  7 36  1  0
  8  9  2  0
  8 37  1  0
  9 10  1  0
 10 11  2  0
 10 38  1  0
 11 39  1  0
 12 13  1  1
 12 26  1  0
 12 14  1  0
 14 15  1  0
 14 40  1  0
 14 41  1  0
 15 16  1  0
 15 42  1  0
 15 43  1  0
 16 17  1  0
 16 44  1  0
 16 45  1  0
 17 18  1  1
 17 19  1  0
 17 26  1  0
 19 20  1  0
 19 46  1  0
 19 47  1  0
 20 25  1  0
 20 21  2  0
 21 22  1  0
 21 48  1  0
 22 23  2  0
 22 49  1  0
 23 24  1  0
 23 50  1  0
 24 25  2  0
 24 51  1  0
 25 52  1  0
 26 53  1  0
 26 54  1  0
 27 28  1  0
 27 55  1  0
 27 56  1  0
 28 29  1  0
 28 57  1  0
 28 58  1  0
 29 30  1  0
 30 59  1  0
 30 60  1  0
M  CHG  1  17   1
M  END
>  <DOCK_score>  (1) 
-41.86274

>  <SMILES>  (1) 
C1=C(CN(Cc2ccncc2)[C@H]2CCC[NH+](Cc3ccccc3)C2)CCOC1

$$$$
