Cc1cccc([C@H](Cc2ccccc2)Nc2[nH]cc(-c3ccc(N)cc3)[nH+]2)c1
     RDKit          3D

 53 56  0  0  1  0  0  0  0  0999 V2000
  125.3760  134.5840  162.5624 C   0  0  0  0  0  0  0  0  0  0  0  0
  126.0573  135.0206  161.2909 C   0  0  0  0  0  0  0  0  0  0  0  0
  125.3173  135.2007  160.1370 C   0  0  0  0  0  0  0  0  0  0  0  0
  125.9421  135.6006  158.9708 C   0  0  0  0  0  0  0  0  0  0  0  0
  127.3070  135.8205  158.9582 C   0  0  0  0  0  0  0  0  0  0  0  0
  128.0467  135.6404  160.1117 C   0  0  0  0  0  0  0  0  0  0  0  0
  129.5345  135.8796  160.0979 C   0  0  2  0  0  0  0  0  0  0  0  0
  130.0138  135.2299  160.8302 H   0  0  0  0  0  0  0  0  0  0  0  0
  129.8193  137.3412  160.4491 C   0  0  0  0  0  0  0  0  0  0  0  0
  131.3072  137.5805  160.4353 C   0  0  0  0  0  0  0  0  0  0  0  0
  131.8036  138.8275  160.1042 C   0  0  0  0  0  0  0  0  0  0  0  0
  133.1684  139.0470  160.0920 C   0  0  0  0  0  0  0  0  0  0  0  0
  134.0368  138.0190  160.4099 C   0  0  0  0  0  0  0  0  0  0  0  0
  133.5404  136.7711  160.7358 C   0  0  0  0  0  0  0  0  0  0  0  0
  132.1755  136.5530  160.7533 C   0  0  0  0  0  0  0  0  0  0  0  0
  130.0639  135.5858  158.7639 N   0  0  0  0  0  0  0  0  0  0  0  0
  129.9241  134.3172  158.2276 C   0  0  0  0  0  0  0  0  0  0  0  0
  129.3128  133.2634  158.8339 N   0  0  0  0  0  0  0  0  0  0  0  0
  128.9008  133.2656  159.7121 H   0  0  0  0  0  0  0  0  0  0  0  0
  129.3876  132.1949  157.9719 C   0  0  0  0  0  0  0  0  0  0  0  0
  130.0417  132.6271  156.8657 C   0  0  0  0  0  0  0  0  0  0  0  0
  130.3551  131.8157  155.6640 C   0  0  0  0  0  0  0  0  0  0  0  0
  129.8545  132.1910  154.4183 C   0  0  0  0  0  0  0  0  0  0  0  0
  130.1518  131.4386  153.3017 C   0  0  0  0  0  0  0  0  0  0  0  0
  130.9404  130.3001  153.4194 C   0  0  0  0  0  0  0  0  0  0  0  0
  131.2357  129.5357  152.2880 N   0  0  0  0  0  0  0  0  0  0  0  0
  131.4357  129.9208  154.6614 C   0  0  0  0  0  0  0  0  0  0  0  0
  131.1458  130.6736  155.7797 C   0  0  0  0  0  0  0  0  0  0  0  0
  130.3537  133.9345  157.0498 N   0  0  0  0  0  0  0  0  0  0  0  0
  130.8218  134.4961  156.4123 H   0  0  0  0  0  0  0  0  0  0  0  0
  127.4224  135.2352  161.2770 C   0  0  0  0  0  0  0  0  0  0  0  0
  125.3683  133.4954  162.6151 H   0  0  0  0  0  0  0  0  0  0  0  0
  125.9159  134.9855  163.4200 H   0  0  0  0  0  0  0  0  0  0  0  0
  124.3514  134.9556  162.5717 H   0  0  0  0  0  0  0  0  0  0  0  0
  124.2512  135.0285  160.1467 H   0  0  0  0  0  0  0  0  0  0  0  0
  125.3641  135.7411  158.0692 H   0  0  0  0  0  0  0  0  0  0  0  0
  127.7953  136.1326  158.0468 H   0  0  0  0  0  0  0  0  0  0  0  0
  129.4253  137.5599  161.4416 H   0  0  0  0  0  0  0  0  0  0  0  0
  129.3401  137.9910  159.7168 H   0  0  0  0  0  0  0  0  0  0  0  0
  131.1252  139.6302  159.8555 H   0  0  0  0  0  0  0  0  0  0  0  0
  133.5563  140.0212  159.8333 H   0  0  0  0  0  0  0  0  0  0  0  0
  135.1031  138.1904  160.4002 H   0  0  0  0  0  0  0  0  0  0  0  0
  134.2189  135.9672  160.9803 H   0  0  0  0  0  0  0  0  0  0  0  0
  131.7876  135.5787  161.0115 H   0  0  0  0  0  0  0  0  0  0  0  0
  130.5124  136.2802  158.2563 H   0  0  0  0  0  0  0  0  0  0  0  0
  128.9997  131.2016  158.1432 H   0  0  0  0  0  0  0  0  0  0  0  0
  129.2376  133.0728  154.3271 H   0  0  0  0  0  0  0  0  0  0  0  0
  129.7676  131.7312  152.3358 H   0  0  0  0  0  0  0  0  0  0  0  0
  131.7864  128.7418  152.3691 H   0  0  0  0  0  0  0  0  0  0  0  0
  130.8904  129.8004  151.4206 H   0  0  0  0  0  0  0  0  0  0  0  0
  132.0480  129.0356  154.7505 H   0  0  0  0  0  0  0  0  0  0  0  0
  131.5312  130.3786  156.7445 H   0  0  0  0  0  0  0  0  0  0  0  0
  128.0011  135.0903  162.1772 H   0  0  0  0  0  0  0  0  0  0  0  0
  1  2  1  0
  1 32  1  0
  1 33  1  0
  1 34  1  0
  2 31  2  0
  2  3  1  0
  3  4  2  0
  3 35  1  0
  4  5  1  0
  4 36  1  0
  5  6  2  0
  5 37  1  0
  6  7  1  0
  6 31  1  0
  7  8  1  1
  7  9  1  0
  7 16  1  0
  9 10  1  0
  9 38  1  0
  9 39  1  0
 10 15  1  0
 10 11  2  0
 11 12  1  0
 11 40  1  0
 12 13  2  0
 12 41  1  0
 13 14  1  0
 13 42  1  0
 14 15  2  0
 14 43  1  0
 15 44  1  0
 16 45  1  0
 17 16  1  0
 17 29  2  0
 17 18  1  0
 18 19  1  0
 18 20  1  0
 20 21  2  0
 20 46  1  0
 21 22  1  0
 21 29  1  0
 22 28  1  0
 22 23  2  0
 23 24  1  0
 23 47  1  0
 24 25  2  0
 24 48  1  0
 25 26  1  0
 25 27  1  0
 26 49  1  0
 26 50  1  0
 27 28  2  0
 27 51  1  0
 28 52  1  0
 29 30  1  0
 31 53  1  0
M  CHG  1  29   1
M  END
>  <DOCK_score>  (1) 
-60.319283

>  <SMILES>  (1) 
Cc1cccc([C@H](Cc2ccccc2)Nc2[nH]cc(-c3ccc(N)cc3)[nH+]2)c1

$$$$
