Cc1cc(CCNc2c[nH]c(N[C@@H](Cc3ccccc3)c3ccccc3)[nH+]2)no1
     RDKit          3D

 55 58  0  0  1  0  0  0  0  0999 V2000
  129.9443  128.1038  150.7757 C   0  0  0  0  0  0  0  0  0  0  0  0
  129.7596  129.3304  151.6313 C   0  0  0  0  0  0  0  0  0  0  0  0
  130.7132  130.2270  151.9800 C   0  0  0  0  0  0  0  0  0  0  0  0
  130.0222  131.1683  152.7770 C   0  0  0  0  0  0  0  0  0  0  0  0
  130.6032  132.3923  153.4367 C   0  0  0  0  0  0  0  0  0  0  0  0
  131.1071  132.0277  154.8346 C   0  0  0  0  0  0  0  0  0  0  0  0
  129.9920  131.5223  155.6392 N   0  0  0  0  0  0  0  0  0  0  0  0
  129.6277  132.1794  156.8254 C   0  0  0  0  0  0  0  0  0  0  0  0
  128.6255  131.8187  157.6539 C   0  0  0  0  0  0  0  0  0  0  0  0
  128.6204  132.7298  158.6948 N   0  0  0  0  0  0  0  0  0  0  0  0
  128.0169  132.7350  159.4540 H   0  0  0  0  0  0  0  0  0  0  0  0
  129.6201  133.6179  158.4502 C   0  0  0  0  0  0  0  0  0  0  0  0
  129.9554  134.6976  159.2498 N   0  0  0  0  0  0  0  0  0  0  0  0
  129.2046  134.9590  160.4803 C   0  0  1  0  0  0  0  0  0  0  0  0
  129.2899  134.1010  161.1471 H   0  0  0  0  0  0  0  0  0  0  0  0
  129.7733  136.2001  161.1708 C   0  0  0  0  0  0  0  0  0  0  0  0
  131.2239  135.9676  161.5072 C   0  0  0  0  0  0  0  0  0  0  0  0
  131.5707  135.4148  162.7259 C   0  0  0  0  0  0  0  0  0  0  0  0
  132.9012  135.2018  163.0346 C   0  0  0  0  0  0  0  0  0  0  0  0
  133.8847  135.5407  162.1242 C   0  0  0  0  0  0  0  0  0  0  0  0
  133.5382  136.0978  160.9076 C   0  0  0  0  0  0  0  0  0  0  0  0
  132.2074  136.3071  160.5972 C   0  0  0  0  0  0  0  0  0  0  0  0
  127.7541  135.1915  160.1439 C   0  0  0  0  0  0  0  0  0  0  0  0
  126.7702  134.8467  161.0515 C   0  0  0  0  0  0  0  0  0  0  0  0
  125.4400  135.0637  160.7445 C   0  0  0  0  0  0  0  0  0  0  0  0
  125.0932  135.6179  159.5266 C   0  0  0  0  0  0  0  0  0  0  0  0
  126.0769  135.9579  158.6169 C   0  0  0  0  0  0  0  0  0  0  0  0
  127.4073  135.7445  158.9253 C   0  0  0  0  0  0  0  0  0  0  0  0
  130.2179  133.2775  157.3322 N   0  0  0  0  0  0  0  0  0  0  0  0
  130.9686  133.7448  156.9335 H   0  0  0  0  0  0  0  0  0  0  0  0
  128.7856  130.7650  152.8331 N   0  0  0  0  0  0  0  0  0  0  0  0
  128.6195  129.7493  152.1982 O   0  0  0  0  0  0  0  0  0  0  0  0
  130.2023  127.2547  151.4086 H   0  0  0  0  0  0  0  0  0  0  0  0
  129.0183  127.8908  150.2415 H   0  0  0  0  0  0  0  0  0  0  0  0
  130.7457  128.2787  150.0579 H   0  0  0  0  0  0  0  0  0  0  0  0
  131.7593  130.2234  151.7117 H   0  0  0  0  0  0  0  0  0  0  0  0
  129.8349  133.1613  153.5165 H   0  0  0  0  0  0  0  0  0  0  0  0
  131.4329  132.7684  152.8381 H   0  0  0  0  0  0  0  0  0  0  0  0
  131.5273  132.9133  155.3116 H   0  0  0  0  0  0  0  0  0  0  0  0
  131.8754  131.2589  154.7548 H   0  0  0  0  0  0  0  0  0  0  0  0
  129.5055  130.7337  155.3524 H   0  0  0  0  0  0  0  0  0  0  0  0
  127.9589  130.9781  157.5305 H   0  0  0  0  0  0  0  0  0  0  0  0
  130.6875  135.2808  158.9952 H   0  0  0  0  0  0  0  0  0  0  0  0
  129.2148  136.3946  162.0864 H   0  0  0  0  0  0  0  0  0  0  0  0
  129.6879  137.0582  160.5041 H   0  0  0  0  0  0  0  0  0  0  0  0
  130.8021  135.1499  163.4370 H   0  0  0  0  0  0  0  0  0  0  0  0
  133.1722  134.7705  163.9868 H   0  0  0  0  0  0  0  0  0  0  0  0
  134.9242  135.3742  162.3654 H   0  0  0  0  0  0  0  0  0  0  0  0
  134.3068  136.3665  160.1981 H   0  0  0  0  0  0  0  0  0  0  0  0
  131.9365  136.7393  159.6453 H   0  0  0  0  0  0  0  0  0  0  0  0
  127.0409  134.4106  162.0017 H   0  0  0  0  0  0  0  0  0  0  0  0
  124.6714  134.7977  161.4551 H   0  0  0  0  0  0  0  0  0  0  0  0
  124.0538  135.7849  159.2856 H   0  0  0  0  0  0  0  0  0  0  0  0
  125.8059  136.3906  157.6650 H   0  0  0  0  0  0  0  0  0  0  0  0
  128.1758  136.0102  158.2145 H   0  0  0  0  0  0  0  0  0  0  0  0
  1  2  1  0
  1 33  1  0
  1 34  1  0
  1 35  1  0
  2 32  1  0
  2  3  2  0
  3  4  1  0
  3 36  1  0
  4  5  1  0
  4 31  2  0
  5  6  1  0
  5 37  1  0
  5 38  1  0
  6  7  1  0
  6 39  1  0
  6 40  1  0
  7  8  1  0
  7 41  1  0
  8 29  1  0
  8  9  2  0
  9 10  1  0
  9 42  1  0
 10 11  1  0
 10 12  1  0
 12 13  1  0
 12 29  2  0
 13 14  1  0
 13 43  1  0
 14 15  1  1
 14 16  1  0
 14 23  1  0
 16 17  1  0
 16 44  1  0
 16 45  1  0
 17 22  1  0
 17 18  2  0
 18 19  1  0
 18 46  1  0
 19 20  2  0
 19 47  1  0
 20 21  1  0
 20 48  1  0
 21 22  2  0
 21 49  1  0
 22 50  1  0
 23 28  1  0
 23 24  2  0
 24 25  1  0
 24 51  1  0
 25 26  2  0
 25 52  1  0
 26 27  1  0
 26 53  1  0
 27 28  2  0
 27 54  1  0
 28 55  1  0
 29 30  1  0
 31 32  1  0
M  CHG  1  29   1
M  END
>  <DOCK_score>  (1) 
-55.930485

>  <SMILES>  (1) 
Cc1cc(CCNc2c[nH]c(N[C@@H](Cc3ccccc3)c3ccccc3)[nH+]2)no1

$$$$
