Cc1ccc2c(C[C@@H](C)Nc3[nH]cc(-c4ccccc4)[nH+]3)c[nH]c2c1
     RDKit          3D

 48 51  0  0  1  0  0  0  0  0999 V2000
  132.9820  141.2854  163.0592 C   0  0  0  0  0  0  0  0  0  0  0  0
  132.6573  139.8952  162.5767 C   0  0  0  0  0  0  0  0  0  0  0  0
  131.5948  139.2026  163.1409 C   0  0  0  0  0  0  0  0  0  0  0  0
  131.2850  137.9412  162.7169 C   0  0  0  0  0  0  0  0  0  0  0  0
  132.0435  137.3432  161.7086 C   0  0  0  0  0  0  0  0  0  0  0  0
  131.9944  136.0449  161.0318 C   0  0  0  0  0  0  0  0  0  0  0  0
  131.0106  134.9340  161.2942 C   0  0  0  0  0  0  0  0  0  0  0  0
  129.7896  135.1096  160.3892 C   0  0  1  0  0  0  0  0  0  0  0  0
  129.0779  134.3062  160.5790 H   0  0  0  0  0  0  0  0  0  0  0  0
  129.1271  136.4574  160.6824 C   0  0  0  0  0  0  0  0  0  0  0  0
  130.2111  135.0677  158.9868 N   0  0  0  0  0  0  0  0  0  0  0  0
  130.2490  133.8599  158.3113 C   0  0  0  0  0  0  0  0  0  0  0  0
  129.9205  132.6477  158.8356 N   0  0  0  0  0  0  0  0  0  0  0  0
  129.6210  132.4760  159.7421 H   0  0  0  0  0  0  0  0  0  0  0  0
  130.0924  131.7122  157.8445 C   0  0  0  0  0  0  0  0  0  0  0  0
  130.5150  132.3797  156.7423 C   0  0  0  0  0  0  0  0  0  0  0  0
  130.8249  131.7777  155.4225 C   0  0  0  0  0  0  0  0  0  0  0  0
  130.6369  132.5160  154.2554 C   0  0  0  0  0  0  0  0  0  0  0  0
  130.9332  131.9531  153.0306 C   0  0  0  0  0  0  0  0  0  0  0  0
  131.4037  130.6538  152.9594 C   0  0  0  0  0  0  0  0  0  0  0  0
  131.5868  129.9148  154.1140 C   0  0  0  0  0  0  0  0  0  0  0  0
  131.3000  130.4697  155.3445 C   0  0  0  0  0  0  0  0  0  0  0  0
  130.6071  133.6952  157.0612 N   0  0  0  0  0  0  0  0  0  0  0  0
  130.8887  134.4017  156.4591 H   0  0  0  0  0  0  0  0  0  0  0  0
  132.9956  136.0303  160.1378 C   0  0  0  0  0  0  0  0  0  0  0  0
  133.6764  137.2166  160.1805 N   0  0  0  0  0  0  0  0  0  0  0  0
  134.4390  137.4416  159.6250 H   0  0  0  0  0  0  0  0  0  0  0  0
  133.1212  138.0407  161.1335 C   0  0  0  0  0  0  0  0  0  0  0  0
  133.4184  139.3243  161.5804 C   0  0  0  0  0  0  0  0  0  0  0  0
  132.4281  142.0140  162.4672 H   0  0  0  0  0  0  0  0  0  0  0  0
  132.7013  141.3808  164.1081 H   0  0  0  0  0  0  0  0  0  0  0  0
  134.0514  141.4671  162.9513 H   0  0  0  0  0  0  0  0  0  0  0  0
  131.0078  139.6647  163.9209 H   0  0  0  0  0  0  0  0  0  0  0  0
  130.4568  137.4084  163.1603 H   0  0  0  0  0  0  0  0  0  0  0  0
  130.6970  134.9651  162.3378 H   0  0  0  0  0  0  0  0  0  0  0  0
  131.4826  133.9738  161.0853 H   0  0  0  0  0  0  0  0  0  0  0  0
  129.8387  137.2609  160.4927 H   0  0  0  0  0  0  0  0  0  0  0  0
  128.2572  136.5825  160.0377 H   0  0  0  0  0  0  0  0  0  0  0  0
  128.8134  136.4886  161.7258 H   0  0  0  0  0  0  0  0  0  0  0  0
  130.4639  135.8861  158.5316 H   0  0  0  0  0  0  0  0  0  0  0  0
  129.9202  130.6491  157.9263 H   0  0  0  0  0  0  0  0  0  0  0  0
  130.2648  133.5285  154.3097 H   0  0  0  0  0  0  0  0  0  0  0  0
  130.7931  132.5262  152.1260 H   0  0  0  0  0  0  0  0  0  0  0  0
  131.6301  130.2162  151.9984 H   0  0  0  0  0  0  0  0  0  0  0  0
  131.9549  128.9014  154.0523 H   0  0  0  0  0  0  0  0  0  0  0  0
  131.4436  129.8916  156.2454 H   0  0  0  0  0  0  0  0  0  0  0  0
  133.2280  135.2053  159.4806 H   0  0  0  0  0  0  0  0  0  0  0  0
  134.2429  139.8713  161.1475 H   0  0  0  0  0  0  0  0  0  0  0  0
  1  2  1  0
  1 30  1  0
  1 31  1  0
  1 32  1  0
  2 29  2  0
  2  3  1  0
  3  4  2  0
  3 33  1  0
  4  5  1  0
  4 34  1  0
  5 28  2  0
  5  6  1  0
  6  7  1  0
  6 25  2  0
  7  8  1  0
  7 35  1  0
  7 36  1  0
  8  9  1  6
  8 10  1  0
  8 11  1  0
 10 37  1  0
 10 38  1  0
 10 39  1  0
 11 40  1  0
 12 11  1  0
 12 23  2  0
 12 13  1  0
 13 14  1  0
 13 15  1  0
 15 16  2  0
 15 41  1  0
 16 17  1  0
 16 23  1  0
 17 22  1  0
 17 18  2  0
 18 19  1  0
 18 42  1  0
 19 20  2  0
 19 43  1  0
 20 21  1  0
 20 44  1  0
 21 22  2  0
 21 45  1  0
 22 46  1  0
 23 24  1  0
 25 26  1  0
 25 47  1  0
 26 27  1  0
 26 28  1  0
 28 29  1  0
 29 48  1  0
M  CHG  1  23   1
M  END
>  <DOCK_score>  (1) 
-56.421921

>  <SMILES>  (1) 
Cc1ccc2c(C[C@@H](C)Nc3[nH]cc(-c4ccccc4)[nH+]3)c[nH]c2c1

$$$$
