CCc1ccc(-c2c[nH]c(Nc3ccc(Nc4nc5ccccc5[nH]4)c4ccccc34)[nH+]2)cc1
     RDKit          3D

 59 64  0  0  1  0  0  0  0  0999 V2000
  130.7464  129.0435  151.5971 C   0  0  0  0  0  0  0  0  0  0  0  0
  131.9611  129.5648  152.3675 C   0  0  0  0  0  0  0  0  0  0  0  0
  131.4959  130.3699  153.5535 C   0  0  0  0  0  0  0  0  0  0  0  0
  131.2822  129.7461  154.7692 C   0  0  0  0  0  0  0  0  0  0  0  0
  130.8611  130.4797  155.8597 C   0  0  0  0  0  0  0  0  0  0  0  0
  130.6412  131.8500  155.7314 C   0  0  0  0  0  0  0  0  0  0  0  0
  130.1832  132.6429  156.8984 C   0  0  0  0  0  0  0  0  0  0  0  0
  129.4233  132.1861  157.9249 C   0  0  0  0  0  0  0  0  0  0  0  0
  129.2339  133.2424  158.7816 N   0  0  0  0  0  0  0  0  0  0  0  0
  128.7295  133.2270  159.6101 H   0  0  0  0  0  0  0  0  0  0  0  0
  129.8841  134.3154  158.2533 C   0  0  0  0  0  0  0  0  0  0  0  0
  129.9388  135.5811  158.8124 N   0  0  0  0  0  0  0  0  0  0  0  0
  129.2892  135.8390  160.0228 C   0  0  0  0  0  0  0  0  0  0  0  0
  130.0082  136.2733  161.1154 C   0  0  0  0  0  0  0  0  0  0  0  0
  129.3760  136.5347  162.3268 C   0  0  0  0  0  0  0  0  0  0  0  0
  128.0153  136.3664  162.4646 C   0  0  0  0  0  0  0  0  0  0  0  0
  127.3951  136.6333  163.6888 N   0  0  0  0  0  0  0  0  0  0  0  0
  127.4666  137.8974  164.2372 C   0  0  0  0  0  0  0  0  0  0  0  0
  126.9244  138.2562  165.3744 N   0  0  0  0  0  0  0  0  0  0  0  0
  127.1916  139.5667  165.6138 C   0  0  0  0  0  0  0  0  0  0  0  0
  126.8648  140.4381  166.6560 C   0  0  0  0  0  0  0  0  0  0  0  0
  127.2867  141.7477  166.6100 C   0  0  0  0  0  0  0  0  0  0  0  0
  128.0341  142.2093  165.5364 C   0  0  0  0  0  0  0  0  0  0  0  0
  128.3648  141.3617  164.4993 C   0  0  0  0  0  0  0  0  0  0  0  0
  127.9487  140.0394  164.5292 C   0  0  0  0  0  0  0  0  0  0  0  0
  128.1083  138.9628  163.6724 N   0  0  0  0  0  0  0  0  0  0  0  0
  128.5864  138.9651  162.8285 H   0  0  0  0  0  0  0  0  0  0  0  0
  127.2511  135.9230  161.3649 C   0  0  0  0  0  0  0  0  0  0  0  0
  125.8628  135.7411  161.4707 C   0  0  0  0  0  0  0  0  0  0  0  0
  125.1524  135.3278  160.3852 C   0  0  0  0  0  0  0  0  0  0  0  0
  125.7853  135.0656  159.1719 C   0  0  0  0  0  0  0  0  0  0  0  0
  127.1304  135.2262  159.0349 C   0  0  0  0  0  0  0  0  0  0  0  0
  127.8937  135.6617  160.1299 C   0  0  0  0  0  0  0  0  0  0  0  0
  130.4551  133.9510  157.1309 N   0  0  0  0  0  0  0  0  0  0  0  0
  130.9853  134.5259  156.5570 H   0  0  0  0  0  0  0  0  0  0  0  0
  130.8535  132.4725  154.5026 C   0  0  0  0  0  0  0  0  0  0  0  0
  131.2800  131.7299  153.4204 C   0  0  0  0  0  0  0  0  0  0  0  0
  130.1469  129.8857  151.2516 H   0  0  0  0  0  0  0  0  0  0  0  0
  131.0828  128.4610  150.7395 H   0  0  0  0  0  0  0  0  0  0  0  0
  130.1445  128.4128  152.2513 H   0  0  0  0  0  0  0  0  0  0  0  0
  132.5611  128.7225  152.7131 H   0  0  0  0  0  0  0  0  0  0  0  0
  132.5632  130.1953  151.7135 H   0  0  0  0  0  0  0  0  0  0  0  0
  131.4488  128.6834  154.8662 H   0  0  0  0  0  0  0  0  0  0  0  0
  130.6982  129.9921  156.8094 H   0  0  0  0  0  0  0  0  0  0  0  0
  129.0401  131.1835  158.0452 H   0  0  0  0  0  0  0  0  0  0  0  0
  130.4278  136.2887  158.3641 H   0  0  0  0  0  0  0  0  0  0  0  0
  131.0757  136.4128  161.0300 H   0  0  0  0  0  0  0  0  0  0  0  0
  129.9593  136.8742  163.1701 H   0  0  0  0  0  0  0  0  0  0  0  0
  126.9146  135.9299  164.1525 H   0  0  0  0  0  0  0  0  0  0  0  0
  126.2835  140.0853  167.4950 H   0  0  0  0  0  0  0  0  0  0  0  0
  127.0336  142.4210  167.4156 H   0  0  0  0  0  0  0  0  0  0  0  0
  128.3588  143.2391  165.5120 H   0  0  0  0  0  0  0  0  0  0  0  0
  128.9471  141.7272  163.6664 H   0  0  0  0  0  0  0  0  0  0  0  0
  125.3591  135.9403  162.4052 H   0  0  0  0  0  0  0  0  0  0  0  0
  124.0840  135.1930  160.4682 H   0  0  0  0  0  0  0  0  0  0  0  0
  125.2006  134.7306  158.3281 H   0  0  0  0  0  0  0  0  0  0  0  0
  127.6078  135.0199  158.0883 H   0  0  0  0  0  0  0  0  0  0  0  0
  130.6843  133.5341  154.3975 H   0  0  0  0  0  0  0  0  0  0  0  0
  131.4449  132.2113  152.4678 H   0  0  0  0  0  0  0  0  0  0  0  0
  1  2  1  0
  1 38  1  0
  1 39  1  0
  1 40  1  0
  2  3  1  0
  2 41  1  0
  2 42  1  0
  3 37  2  0
  3  4  1  0
  4  5  2  0
  4 43  1  0
  5  6  1  0
  5 44  1  0
  6  7  1  0
  6 36  2  0
  7 34  1  0
  7  8  2  0
  8  9  1  0
  8 45  1  0
  9 10  1  0
  9 11  1  0
 11 12  1  0
 11 34  2  0
 12 13  1  0
 12 46  1  0
 13 33  1  0
 13 14  2  0
 14 15  1  0
 14 47  1  0
 15 16  2  0
 15 48  1  0
 16 17  1  0
 16 28  1  0
 17 18  1  0
 17 49  1  0
 18 26  1  0
 18 19  2  0
 19 20  1  0
 20 25  2  0
 20 21  1  0
 21 22  2  0
 21 50  1  0
 22 23  1  0
 22 51  1  0
 23 24  2  0
 23 52  1  0
 24 25  1  0
 24 53  1  0
 25 26  1  0
 26 27  1  0
 28 33  2  0
 28 29  1  0
 29 30  2  0
 29 54  1  0
 30 31  1  0
 30 55  1  0
 31 32  2  0
 31 56  1  0
 32 33  1  0
 32 57  1  0
 34 35  1  0
 36 37  1  0
 36 58  1  0
 37 59  1  0
M  CHG  1  34   1
M  END
>  <DOCK_score>  (1) 
-57.753723

>  <SMILES>  (1) 
CCc1ccc(-c2c[nH]c(Nc3ccc(Nc4nc5ccccc5[nH]4)c4ccccc34)[nH+]2)cc1

$$$$
