Cc1[nH]c(NC(CF)c2ccccc2[C@](C)(O)c2ccccc2)[nH+]c1-c1ccccc1
     RDKit          3D

 58 61  0  0  1  0  0  0  0  0999 V2000
  129.7571  137.6221  162.9674 C   0  0  0  0  0  0  0  0  0  0  0  0
  130.2410  137.1021  161.6382 C   0  0  0  0  0  0  0  0  0  0  0  0
  129.5824  136.2212  160.8153 N   0  0  0  0  0  0  0  0  0  0  0  0
  128.7162  135.8175  160.9816 H   0  0  0  0  0  0  0  0  0  0  0  0
  130.3692  136.0199  159.7232 C   0  0  0  0  0  0  0  0  0  0  0  0
  130.0665  135.1969  158.6520 N   0  0  0  0  0  0  0  0  0  0  0  0
  129.2358  134.0072  158.8540 C   0  0  1  0  0  0  0  0  0  0  0  0
  127.7634  134.3741  158.6585 C   0  0  0  0  0  0  0  0  0  0  0  0
  127.2770  134.9854  159.8193 F   0  0  0  0  0  0  0  0  0  0  0  0
  129.6259  132.9468  157.8568 C   0  0  0  0  0  0  0  0  0  0  0  0
  129.5220  133.2005  156.5017 C   0  0  0  0  0  0  0  0  0  0  0  0
  129.8797  132.2280  155.5871 C   0  0  0  0  0  0  0  0  0  0  0  0
  130.3419  131.0016  156.0274 C   0  0  0  0  0  0  0  0  0  0  0  0
  130.4467  130.7483  157.3821 C   0  0  0  0  0  0  0  0  0  0  0  0
  130.0929  131.7227  158.2969 C   0  0  0  0  0  0  0  0  0  0  0  0
  130.2121  131.4483  159.7739 C   0  0  2  0  0  0  0  0  0  0  0  0
  130.7494  130.0318  159.9878 C   0  0  0  0  0  0  0  0  0  0  0  0
  128.9263  131.5675  160.3858 O   0  0  0  0  0  0  0  0  0  0  0  0
  131.1582  132.4435  160.3949 C   0  0  0  0  0  0  0  0  0  0  0  0
  132.1937  132.9724  159.6473 C   0  0  0  0  0  0  0  0  0  0  0  0
  133.0585  133.8889  160.2156 C   0  0  0  0  0  0  0  0  0  0  0  0
  132.8938  134.2691  161.5344 C   0  0  0  0  0  0  0  0  0  0  0  0
  131.8617  133.7359  162.2837 C   0  0  0  0  0  0  0  0  0  0  0  0
  130.9939  132.8234  161.7139 C   0  0  0  0  0  0  0  0  0  0  0  0
  131.4582  136.7381  159.8504 N   0  0  0  0  0  0  0  0  0  0  0  0
  132.1836  136.7783  159.2078 H   0  0  0  0  0  0  0  0  0  0  0  0
  131.4102  137.4137  161.0260 C   0  0  0  0  0  0  0  0  0  0  0  0
  132.4497  138.3349  161.5464 C   0  0  0  0  0  0  0  0  0  0  0  0
  132.8129  139.4644  160.8150 C   0  0  0  0  0  0  0  0  0  0  0  0
  133.7760  140.3216  161.3073 C   0  0  0  0  0  0  0  0  0  0  0  0
  134.3895  140.0548  162.5180 C   0  0  0  0  0  0  0  0  0  0  0  0
  134.0372  138.9321  163.2453 C   0  0  0  0  0  0  0  0  0  0  0  0
  133.0708  138.0714  162.7660 C   0  0  0  0  0  0  0  0  0  0  0  0
  129.1819  138.5349  162.8128 H   0  0  0  0  0  0  0  0  0  0  0  0
  129.1264  136.8714  163.4434 H   0  0  0  0  0  0  0  0  0  0  0  0
  130.6132  137.8361  163.6072 H   0  0  0  0  0  0  0  0  0  0  0  0
  130.4044  135.4080  157.7675 H   0  0  0  0  0  0  0  0  0  0  0  0
  129.3845  133.6277  159.8649 H   0  0  0  0  0  0  0  0  0  0  0  0
  127.6688  135.0623  157.8187 H   0  0  0  0  0  0  0  0  0  0  0  0
  127.1878  133.4711  158.4550 H   0  0  0  0  0  0  0  0  0  0  0  0
  129.1609  134.1585  156.1579 H   0  0  0  0  0  0  0  0  0  0  0  0
  129.7978  132.4260  154.5286 H   0  0  0  0  0  0  0  0  0  0  0  0
  130.6208  130.2414  155.3127 H   0  0  0  0  0  0  0  0  0  0  0  0
  130.8075  129.7902  157.7259 H   0  0  0  0  0  0  0  0  0  0  0  0
  131.7434  129.9500  159.5482 H   0  0  0  0  0  0  0  0  0  0  0  0
  130.8063  129.8222  161.0560 H   0  0  0  0  0  0  0  0  0  0  0  0
  130.0813  129.3141  159.5118 H   0  0  0  0  0  0  0  0  0  0  0  0
  128.9275  131.4037  161.3389 H   0  0  0  0  0  0  0  0  0  0  0  0
  132.3247  132.6722  158.6182 H   0  0  0  0  0  0  0  0  0  0  0  0
  133.8651  134.3052  159.6302 H   0  0  0  0  0  0  0  0  0  0  0  0
  133.5719  134.9823  161.9794 H   0  0  0  0  0  0  0  0  0  0  0  0
  131.7333  134.0326  163.3141 H   0  0  0  0  0  0  0  0  0  0  0  0
  130.1874  132.4069  162.2993 H   0  0  0  0  0  0  0  0  0  0  0  0
  132.3383  139.6709  159.8671 H   0  0  0  0  0  0  0  0  0  0  0  0
  134.0547  141.1999  160.7439 H   0  0  0  0  0  0  0  0  0  0  0  0
  135.1461  140.7259  162.8971 H   0  0  0  0  0  0  0  0  0  0  0  0
  134.5193  138.7288  164.1901 H   0  0  0  0  0  0  0  0  0  0  0  0
  132.7961  137.1954  163.3349 H   0  0  0  0  0  0  0  0  0  0  0  0
  1  2  1  0
  1 34  1  0
  1 35  1  0
  1 36  1  0
  2 27  2  0
  2  3  1  0
  3  4  1  0
  3  5  1  0
  5  6  1  0
  5 25  2  0
  6  7  1  0
  6 37  1  0
  7  8  1  0
  7 10  1  0
  7 38  1  1
  8  9  1  0
  8 39  1  0
  8 40  1  0
 10 15  1  0
 10 11  2  0
 11 12  1  0
 11 41  1  0
 12 13  2  0
 12 42  1  0
 13 14  1  0
 13 43  1  0
 14 15  2  0
 14 44  1  0
 15 16  1  0
 16 17  1  0
 16 18  1  1
 16 19  1  0
 17 45  1  0
 17 46  1  0
 17 47  1  0
 18 48  1  0
 19 24  1  0
 19 20  2  0
 20 21  1  0
 20 49  1  0
 21 22  2  0
 21 50  1  0
 22 23  1  0
 22 51  1  0
 23 24  2  0
 23 52  1  0
 24 53  1  0
 25 26  1  0
 25 27  1  0
 27 28  1  0
 28 33  1  0
 28 29  2  0
 29 30  1  0
 29 54  1  0
 30 31  2  0
 30 55  1  0
 31 32  1  0
 31 56  1  0
 32 33  2  0
 32 57  1  0
 33 58  1  0
M  CHG  1  25   1
M  END
>  <DOCK_score>  (1) 
-56.081978

>  <SMILES>  (1) 
Cc1[nH]c(NC(CF)c2ccccc2[C@](C)(O)c2ccccc2)[nH+]c1-c1ccccc1

$$$$
