Cc1nn(C(C)C)cc1C[NH2+][C@H](CO)Cc1c[nH]c2ccc(O)cc12
     RDKit          3D

 52 54  0  0  1  0  0  0  0  0999 V2000
  133.8761  137.7938  160.1091 C   0  0  0  0  0  0  0  0  0  0  0  0
  132.7948  138.5336  160.8539 C   0  0  0  0  0  0  0  0  0  0  0  0
  132.7849  139.8147  161.1194 N   0  0  0  0  0  0  0  0  0  0  0  0
  131.6100  140.1064  161.8241 N   0  0  0  0  0  0  0  0  0  0  0  0
  131.2043  141.4260  162.3148 C   0  0  0  0  0  0  0  0  0  0  0  0
  129.6772  141.5148  162.3362 C   0  0  0  0  0  0  0  0  0  0  0  0
  131.7471  141.6327  163.7302 C   0  0  0  0  0  0  0  0  0  0  0  0
  130.9205  138.9565  161.9764 C   0  0  0  0  0  0  0  0  0  0  0  0
  131.6283  137.9692  161.3802 C   0  0  0  0  0  0  0  0  0  0  0  0
  131.2328  136.5171  161.3028 C   0  0  0  0  0  0  0  0  0  0  0  0
  130.4476  136.2878  160.0826 N   0  0  0  0  0  0  0  0  0  0  0  0
  129.6180  136.8617  160.1038 H   0  0  0  0  0  0  0  0  0  0  0  0
  131.0027  136.5287  159.2753 H   0  0  0  0  0  0  0  0  0  0  0  0
  130.0621  134.8724  160.0073 C   0  0  2  0  0  0  0  0  0  0  0  0
  129.4624  134.6121  160.8793 H   0  0  0  0  0  0  0  0  0  0  0  0
  131.3201  134.0021  159.9751 C   0  0  0  0  0  0  0  0  0  0  0  0
  132.3075  134.6223  159.1489 O   0  0  0  0  0  0  0  0  0  0  0  0
  129.2443  134.6336  158.7363 C   0  0  0  0  0  0  0  0  0  0  0  0
  128.4482  133.3624  158.8827 C   0  0  0  0  0  0  0  0  0  0  0  0
  128.8436  132.1281  158.5333 C   0  0  0  0  0  0  0  0  0  0  0  0
  127.8572  131.2240  158.8183 N   0  0  0  0  0  0  0  0  0  0  0  0
  127.9125  130.2693  158.6567 H   0  0  0  0  0  0  0  0  0  0  0  0
  126.7701  131.8737  159.3639 C   0  0  0  0  0  0  0  0  0  0  0  0
  125.5278  131.4418  159.8167 C   0  0  0  0  0  0  0  0  0  0  0  0
  124.6256  132.3504  160.3226 C   0  0  0  0  0  0  0  0  0  0  0  0
  124.9432  133.7049  160.3869 C   0  0  0  0  0  0  0  0  0  0  0  0
  124.0406  134.5890  160.8898 O   0  0  0  0  0  0  0  0  0  0  0  0
  126.1706  134.1535  159.9426 C   0  0  0  0  0  0  0  0  0  0  0  0
  127.0938  133.2407  159.4275 C   0  0  0  0  0  0  0  0  0  0  0  0
  134.6243  137.4351  160.8161 H   0  0  0  0  0  0  0  0  0  0  0  0
  133.4391  136.9462  159.5812 H   0  0  0  0  0  0  0  0  0  0  0  0
  134.3472  138.4651  159.3910 H   0  0  0  0  0  0  0  0  0  0  0  0
  131.6042  142.1970  161.6562 H   0  0  0  0  0  0  0  0  0  0  0  0
  129.3753  142.4966  162.7012 H   0  0  0  0  0  0  0  0  0  0  0  0
  129.2775  140.7437  162.9948 H   0  0  0  0  0  0  0  0  0  0  0  0
  129.2904  141.3675  161.3277 H   0  0  0  0  0  0  0  0  0  0  0  0
  131.3475  140.8616  164.3888 H   0  0  0  0  0  0  0  0  0  0  0  0
  132.8352  141.5693  163.7150 H   0  0  0  0  0  0  0  0  0  0  0  0
  131.4454  142.6144  164.0953 H   0  0  0  0  0  0  0  0  0  0  0  0
  129.9722  138.8445  162.4811 H   0  0  0  0  0  0  0  0  0  0  0  0
  132.1291  135.8971  161.2800 H   0  0  0  0  0  0  0  0  0  0  0  0
  130.6332  136.2569  162.1751 H   0  0  0  0  0  0  0  0  0  0  0  0
  131.7108  133.8908  160.9867 H   0  0  0  0  0  0  0  0  0  0  0  0
  131.0728  133.0205  159.5710 H   0  0  0  0  0  0  0  0  0  0  0  0
  132.0278  134.7533  158.2327 H   0  0  0  0  0  0  0  0  0  0  0  0
  128.5653  135.4714  158.5784 H   0  0  0  0  0  0  0  0  0  0  0  0
  129.9167  134.5449  157.8829 H   0  0  0  0  0  0  0  0  0  0  0  0
  129.7999  131.8845  158.0944 H   0  0  0  0  0  0  0  0  0  0  0  0
  125.2712  130.3936  159.7718 H   0  0  0  0  0  0  0  0  0  0  0  0
  123.6623  132.0097  160.6724 H   0  0  0  0  0  0  0  0  0  0  0  0
  124.3484  135.5056  160.8948 H   0  0  0  0  0  0  0  0  0  0  0  0
  126.4159  135.2040  159.9934 H   0  0  0  0  0  0  0  0  0  0  0  0
  1  2  1  0
  1 30  1  0
  1 31  1  0
  1 32  1  0
  2  9  1  0
  2  3  2  0
  3  4  1  0
  4  5  1  0
  4  8  1  0
  5  6  1  0
  5  7  1  0
  5 33  1  0
  6 34  1  0
  6 35  1  0
  6 36  1  0
  7 37  1  0
  7 38  1  0
  7 39  1  0
  8  9  2  0
  8 40  1  0
  9 10  1  0
 10 11  1  0
 10 41  1  0
 10 42  1  0
 11 12  1  0
 11 13  1  0
 11 14  1  0
 14 15  1  1
 14 16  1  0
 14 18  1  0
 16 17  1  0
 16 43  1  0
 16 44  1  0
 17 45  1  0
 18 19  1  0
 18 46  1  0
 18 47  1  0
 19 29  1  0
 19 20  2  0
 20 21  1  0
 20 48  1  0
 21 22  1  0
 21 23  1  0
 23 29  2  0
 23 24  1  0
 24 25  2  0
 24 49  1  0
 25 26  1  0
 25 50  1  0
 26 27  1  0
 26 28  2  0
 27 51  1  0
 28 29  1  0
 28 52  1  0
M  CHG  1  11   1
M  END
>  <DOCK_score>  (1) 
-41.277988

>  <SMILES>  (1) 
Cc1nn(C(C)C)cc1C[NH2+][C@H](CO)Cc1c[nH]c2ccc(O)cc12

$$$$
