Cc1ccc(C[N@@H+]2CC=C(c3cccc(Nc4cccc(-c5ncc[nH]5)c4)c3)CC2)[nH]1
     RDKit          3D

 59 63  0  0  1  0  0  0  0  0999 V2000
  130.9824  131.8790  155.8803 C   0  0  0  0  0  0  0  0  0  0  0  0
  131.0560  132.4292  157.2813 C   0  0  0  0  0  0  0  0  0  0  0  0
  131.6756  131.8467  158.3280 C   0  0  0  0  0  0  0  0  0  0  0  0
  131.5038  132.6910  159.4427 C   0  0  0  0  0  0  0  0  0  0  0  0
  130.7859  133.7571  159.0351 C   0  0  0  0  0  0  0  0  0  0  0  0
  130.3635  134.9194  159.8962 C   0  0  0  0  0  0  0  0  0  0  0  0
  131.3973  135.9621  159.8529 N   0  0  2  0  0  0  0  0  0  0  0  0
  131.7559  136.0451  158.9134 H   0  0  0  0  0  0  0  0  0  0  0  0
  132.4902  135.6083  160.7661 C   0  0  0  0  0  0  0  0  0  0  0  0
  133.4693  136.7418  160.8728 C   0  0  0  0  0  0  0  0  0  0  0  0
  133.1746  137.9765  160.5278 C   0  0  0  0  0  0  0  0  0  0  0  0
  134.2057  139.0247  160.6811 C   0  0  0  0  0  0  0  0  0  0  0  0
  135.0882  139.2970  159.6344 C   0  0  0  0  0  0  0  0  0  0  0  0
  136.0470  140.2793  159.7779 C   0  0  0  0  0  0  0  0  0  0  0  0
  136.1443  140.9891  160.9600 C   0  0  0  0  0  0  0  0  0  0  0  0
  135.2737  140.7218  162.0099 C   0  0  0  0  0  0  0  0  0  0  0  0
  135.3763  141.4417  163.2033 N   0  0  0  0  0  0  0  0  0  0  0  0
  135.6340  140.7729  164.4028 C   0  0  0  0  0  0  0  0  0  0  0  0
  135.1434  141.2798  165.6008 C   0  0  0  0  0  0  0  0  0  0  0  0
  135.3958  140.6219  166.7896 C   0  0  0  0  0  0  0  0  0  0  0  0
  136.1368  139.4572  166.7954 C   0  0  0  0  0  0  0  0  0  0  0  0
  136.6334  138.9399  165.5982 C   0  0  0  0  0  0  0  0  0  0  0  0
  137.4277  137.6921  165.6020 C   0  0  0  0  0  0  0  0  0  0  0  0
  137.4823  136.8117  164.6275 N   0  0  0  0  0  0  0  0  0  0  0  0
  138.3012  135.8139  164.9797 C   0  0  0  0  0  0  0  0  0  0  0  0
  138.7721  136.0672  166.2178 C   0  0  0  0  0  0  0  0  0  0  0  0
  138.2240  137.2552  166.6199 N   0  0  0  0  0  0  0  0  0  0  0  0
  138.3732  137.7019  167.4679 H   0  0  0  0  0  0  0  0  0  0  0  0
  136.3745  139.6006  164.3978 C   0  0  0  0  0  0  0  0  0  0  0  0
  134.3035  139.7402  161.8734 C   0  0  0  0  0  0  0  0  0  0  0  0
  131.8283  138.3590  159.9772 C   0  0  0  0  0  0  0  0  0  0  0  0
  130.8183  137.2475  160.2744 C   0  0  0  0  0  0  0  0  0  0  0  0
  130.5030  133.5993  157.7106 N   0  0  0  0  0  0  0  0  0  0  0  0
  129.9946  134.2183  157.1635 H   0  0  0  0  0  0  0  0  0  0  0  0
  130.0956  131.2529  155.7821 H   0  0  0  0  0  0  0  0  0  0  0  0
  130.9263  132.7029  155.1689 H   0  0  0  0  0  0  0  0  0  0  0  0
  131.8721  131.2832  155.6768 H   0  0  0  0  0  0  0  0  0  0  0  0
  132.2057  130.9058  158.3141 H   0  0  0  0  0  0  0  0  0  0  0  0
  131.8786  132.5165  160.4405 H   0  0  0  0  0  0  0  0  0  0  0  0
  130.2315  134.5811  160.9240 H   0  0  0  0  0  0  0  0  0  0  0  0
  129.4228  135.3248  159.5234 H   0  0  0  0  0  0  0  0  0  0  0  0
  132.0797  135.3882  161.7515 H   0  0  0  0  0  0  0  0  0  0  0  0
  133.0069  134.7271  160.3857 H   0  0  0  0  0  0  0  0  0  0  0  0
  134.4585  136.5348  161.2532 H   0  0  0  0  0  0  0  0  0  0  0  0
  135.0183  138.7415  158.7108 H   0  0  0  0  0  0  0  0  0  0  0  0
  136.7264  140.4910  158.9655 H   0  0  0  0  0  0  0  0  0  0  0  0
  136.8996  141.7535  161.0681 H   0  0  0  0  0  0  0  0  0  0  0  0
  135.2685  142.4056  163.1989 H   0  0  0  0  0  0  0  0  0  0  0  0
  134.5627  142.1905  165.6026 H   0  0  0  0  0  0  0  0  0  0  0  0
  135.0119  141.0201  167.7172 H   0  0  0  0  0  0  0  0  0  0  0  0
  136.3319  138.9461  167.7266 H   0  0  0  0  0  0  0  0  0  0  0  0
  138.5406  134.9505  164.3770 H   0  0  0  0  0  0  0  0  0  0  0  0
  139.4526  135.4493  166.7849 H   0  0  0  0  0  0  0  0  0  0  0  0
  136.7525  139.2024  163.4678 H   0  0  0  0  0  0  0  0  0  0  0  0
  133.6261  139.5306  162.6881 H   0  0  0  0  0  0  0  0  0  0  0  0
  131.4953  139.2863  160.4436 H   0  0  0  0  0  0  0  0  0  0  0  0
  131.9040  138.5019  158.8993 H   0  0  0  0  0  0  0  0  0  0  0  0
  130.6076  137.2209  161.3434 H   0  0  0  0  0  0  0  0  0  0  0  0
  129.8973  137.4328  159.7217 H   0  0  0  0  0  0  0  0  0  0  0  0
  1  2  1  0
  1 35  1  0
  1 36  1  0
  1 37  1  0
  2 33  1  0
  2  3  2  0
  3  4  1  0
  3 38  1  0
  4  5  2  0
  4 39  1  0
  5  6  1  0
  5 33  1  0
  6  7  1  0
  6 40  1  0
  6 41  1  0
  7  8  1  6
  7 32  1  0
  7  9  1  0
  9 10  1  0
  9 42  1  0
  9 43  1  0
 10 11  2  0
 10 44  1  0
 11 12  1  0
 11 31  1  0
 12 30  1  0
 12 13  2  0
 13 14  1  0
 13 45  1  0
 14 15  2  0
 14 46  1  0
 15 16  1  0
 15 47  1  0
 16 17  1  0
 16 30  2  0
 17 18  1  0
 17 48  1  0
 18 29  1  0
 18 19  2  0
 19 20  1  0
 19 49  1  0
 20 21  2  0
 20 50  1  0
 21 22  1  0
 21 51  1  0
 22 23  1  0
 22 29  2  0
 23 27  1  0
 23 24  2  0
 24 25  1  0
 25 26  2  0
 25 52  1  0
 26 27  1  0
 26 53  1  0
 27 28  1  0
 29 54  1  0
 30 55  1  0
 31 32  1  0
 31 56  1  0
 31 57  1  0
 32 58  1  0
 32 59  1  0
 33 34  1  0
M  CHG  1   7   1
M  END
>  <DOCK_score>  (1) 
-56.049423

>  <SMILES>  (1) 
Cc1ccc(C[N@@H+]2CC=C(c3cccc(Nc4cccc(-c5ncc[nH]5)c4)c3)CC2)[nH]1

$$$$
