Nc1ccc(-c2c[nH]c(Nc3cccc(NC=O)c3)[nH+]2)cc1O
     RDKit          3D

 39 41  0  0  1  0  0  0  0  0999 V2000
  131.4770  129.7277  151.9754 N   0  0  0  0  0  0  0  0  0  0  0  0
  131.1429  130.4179  153.1465 C   0  0  0  0  0  0  0  0  0  0  0  0
  131.5191  129.9097  154.3821 C   0  0  0  0  0  0  0  0  0  0  0  0
  131.1908  130.5875  155.5385 C   0  0  0  0  0  0  0  0  0  0  0  0
  130.4812  131.7850  155.4676 C   0  0  0  0  0  0  0  0  0  0  0  0
  130.1288  132.5140  156.7108 C   0  0  0  0  0  0  0  0  0  0  0  0
  129.3692  132.0365  157.7278 C   0  0  0  0  0  0  0  0  0  0  0  0
  129.2908  133.0345  158.6693 N   0  0  0  0  0  0  0  0  0  0  0  0
  128.8110  132.9937  159.5113 H   0  0  0  0  0  0  0  0  0  0  0  0
  130.0132  134.0896  158.2032 C   0  0  0  0  0  0  0  0  0  0  0  0
  130.1901  135.2982  158.8569 N   0  0  0  0  0  0  0  0  0  0  0  0
  129.1960  135.7825  159.7117 C   0  0  0  0  0  0  0  0  0  0  0  0
  127.8630  135.4652  159.4787 C   0  0  0  0  0  0  0  0  0  0  0  0
  126.8801  135.9433  160.3232 C   0  0  0  0  0  0  0  0  0  0  0  0
  127.2182  136.7385  161.4017 C   0  0  0  0  0  0  0  0  0  0  0  0
  128.5485  137.0597  161.6399 C   0  0  0  0  0  0  0  0  0  0  0  0
  128.8900  137.8644  162.7324 N   0  0  0  0  0  0  0  0  0  0  0  0
  128.0236  138.7941  163.1814 C   0  0  0  0  0  0  0  0  0  0  0  0
  126.9479  138.9329  162.6386 O   0  0  0  0  0  0  0  0  0  0  0  0
  129.5392  136.5761  160.7971 C   0  0  0  0  0  0  0  0  0  0  0  0
  130.5093  133.7756  157.0311 N   0  0  0  0  0  0  0  0  0  0  0  0
  131.0604  134.3537  156.4806 H   0  0  0  0  0  0  0  0  0  0  0  0
  130.0983  132.2941  154.2278 C   0  0  0  0  0  0  0  0  0  0  0  0
  130.4325  131.6147  153.0705 C   0  0  0  0  0  0  0  0  0  0  0  0
  130.0640  132.1116  151.8592 O   0  0  0  0  0  0  0  0  0  0  0  0
  131.9712  128.8946  152.0278 H   0  0  0  0  0  0  0  0  0  0  0  0
  131.2144  130.0825  151.1117 H   0  0  0  0  0  0  0  0  0  0  0  0
  132.0692  128.9819  154.4387 H   0  0  0  0  0  0  0  0  0  0  0  0
  131.4841  130.1900  156.4989 H   0  0  0  0  0  0  0  0  0  0  0  0
  128.9101  131.0606  157.7847 H   0  0  0  0  0  0  0  0  0  0  0  0
  131.0040  135.8083  158.7215 H   0  0  0  0  0  0  0  0  0  0  0  0
  127.5954  134.8440  158.6368 H   0  0  0  0  0  0  0  0  0  0  0  0
  125.8450  135.6947  160.1405 H   0  0  0  0  0  0  0  0  0  0  0  0
  126.4474  137.1103  162.0604 H   0  0  0  0  0  0  0  0  0  0  0  0
  129.7503  137.7533  163.1665 H   0  0  0  0  0  0  0  0  0  0  0  0
  128.2872  139.4154  164.0246 H   0  0  0  0  0  0  0  0  0  0  0  0
  130.5746  136.8204  160.9829 H   0  0  0  0  0  0  0  0  0  0  0  0
  129.5444  133.2197  154.1708 H   0  0  0  0  0  0  0  0  0  0  0  0
  129.5757  132.9449  151.9080 H   0  0  0  0  0  0  0  0  0  0  0  0
  1  2  1  0
  1 26  1  0
  1 27  1  0
  2 24  2  0
  2  3  1  0
  3  4  2  0
  3 28  1  0
  4  5  1  0
  4 29  1  0
  5  6  1  0
  5 23  2  0
  6 21  1  0
  6  7  2  0
  7  8  1  0
  7 30  1  0
  8  9  1  0
  8 10  1  0
 10 11  1  0
 10 21  2  0
 11 12  1  0
 11 31  1  0
 12 20  1  0
 12 13  2  0
 13 14  1  0
 13 32  1  0
 14 15  2  0
 14 33  1  0
 15 16  1  0
 15 34  1  0
 16 17  1  0
 16 20  2  0
 17 18  1  0
 17 35  1  0
 18 19  2  0
 18 36  1  0
 20 37  1  0
 21 22  1  0
 23 24  1  0
 23 38  1  0
 24 25  1  0
 25 39  1  0
M  CHG  1  21   1
M  END
>  <DOCK_score>  (1) 
-50.27795

>  <SMILES>  (1) 
Nc1ccc(-c2c[nH]c(Nc3cccc(NC=O)c3)[nH+]2)cc1O

$$$$
