Oc1ccc2c(c1)[C@@H](N[C@H]1C[C@H]1[NH2+]C(c1ccccc1)c1ccccc1)c1ccccc1-2
     RDKit          3D

 59 64  0  0  1  0  0  0  0  0999 V2000
  126.8639  137.7155  162.9968 O   0  0  0  0  0  0  0  0  0  0  0  0
  128.0529  138.0396  162.4248 C   0  0  0  0  0  0  0  0  0  0  0  0
  128.3327  139.3617  162.1059 C   0  0  0  0  0  0  0  0  0  0  0  0
  129.5376  139.6948  161.5259 C   0  0  0  0  0  0  0  0  0  0  0  0
  130.4824  138.7017  161.2568 C   0  0  0  0  0  0  0  0  0  0  0  0
  130.1948  137.3779  161.5794 C   0  0  0  0  0  0  0  0  0  0  0  0
  128.9889  137.0488  162.1592 C   0  0  0  0  0  0  0  0  0  0  0  0
  131.3862  136.5430  161.1782 C   0  0  1  0  0  0  0  0  0  0  0  0
  131.8072  136.0457  162.0520 H   0  0  0  0  0  0  0  0  0  0  0  0
  130.9913  135.5494  160.1709 N   0  0  0  0  0  0  0  0  0  0  0  0
  132.1383  134.7253  159.7665 C   0  0  1  0  0  0  0  0  0  0  0  0
  132.8114  135.1807  159.0403 H   0  0  0  0  0  0  0  0  0  0  0  0
  132.7551  133.8060  160.8227 C   0  0  0  0  0  0  0  0  0  0  0  0
  131.9264  133.2125  159.6817 C   0  0  1  0  0  0  0  0  0  0  0  0
  132.4604  132.6725  158.8999 H   0  0  0  0  0  0  0  0  0  0  0  0
  130.5913  132.6951  160.0103 N   0  0  0  0  0  0  0  0  0  0  0  0
  130.6573  131.7142  160.2375 H   0  0  0  0  0  0  0  0  0  0  0  0
  130.2206  133.1994  160.8017 H   0  0  0  0  0  0  0  0  0  0  0  0
  129.7000  132.8716  158.8561 C   0  0  0  0  0  0  0  0  0  0  0  0
  130.2536  132.1184  157.6741 C   0  0  0  0  0  0  0  0  0  0  0  0
  130.0101  132.5706  156.3907 C   0  0  0  0  0  0  0  0  0  0  0  0
  130.5212  131.8818  155.3066 C   0  0  0  0  0  0  0  0  0  0  0  0
  131.2690  130.7363  155.5056 C   0  0  0  0  0  0  0  0  0  0  0  0
  131.5081  130.2813  156.7887 C   0  0  0  0  0  0  0  0  0  0  0  0
  131.0003  130.9721  157.8730 C   0  0  0  0  0  0  0  0  0  0  0  0
  128.3305  132.3410  159.1933 C   0  0  0  0  0  0  0  0  0  0  0  0
  128.0177  131.0200  158.9328 C   0  0  0  0  0  0  0  0  0  0  0  0
  126.7626  130.5321  159.2457 C   0  0  0  0  0  0  0  0  0  0  0  0
  125.8177  131.3676  159.8115 C   0  0  0  0  0  0  0  0  0  0  0  0
  126.1288  132.6899  160.0672 C   0  0  0  0  0  0  0  0  0  0  0  0
  127.3850  133.1767  159.7579 C   0  0  0  0  0  0  0  0  0  0  0  0
  132.3913  137.5048  160.5933 C   0  0  0  0  0  0  0  0  0  0  0  0
  133.6513  137.3196  160.0658 C   0  0  0  0  0  0  0  0  0  0  0  0
  134.3689  138.4026  159.5889 C   0  0  0  0  0  0  0  0  0  0  0  0
  133.8262  139.6736  159.6461 C   0  0  0  0  0  0  0  0  0  0  0  0
  132.5634  139.8674  160.1669 C   0  0  0  0  0  0  0  0  0  0  0  0
  131.8342  138.7796  160.6500 C   0  0  0  0  0  0  0  0  0  0  0  0
  126.7607  136.7720  163.1821 H   0  0  0  0  0  0  0  0  0  0  0  0
  127.6041  140.1314  162.3133 H   0  0  0  0  0  0  0  0  0  0  0  0
  129.7516  140.7242  161.2794 H   0  0  0  0  0  0  0  0  0  0  0  0
  128.7716  136.0202  162.4067 H   0  0  0  0  0  0  0  0  0  0  0  0
  130.5661  135.9942  159.3714 H   0  0  0  0  0  0  0  0  0  0  0  0
  133.8343  133.6566  160.7915 H   0  0  0  0  0  0  0  0  0  0  0  0
  132.3098  133.8127  161.8176 H   0  0  0  0  0  0  0  0  0  0  0  0
  129.6288  133.9312  158.6107 H   0  0  0  0  0  0  0  0  0  0  0  0
  129.4230  133.4636  156.2352 H   0  0  0  0  0  0  0  0  0  0  0  0
  130.3340  132.2372  154.3040 H   0  0  0  0  0  0  0  0  0  0  0  0
  131.6660  130.1968  154.6585 H   0  0  0  0  0  0  0  0  0  0  0  0
  132.0920  129.3861  156.9442 H   0  0  0  0  0  0  0  0  0  0  0  0
  131.1871  130.6166  158.8756 H   0  0  0  0  0  0  0  0  0  0  0  0
  128.7548  130.3681  158.4875 H   0  0  0  0  0  0  0  0  0  0  0  0
  126.5195  129.4990  159.0455 H   0  0  0  0  0  0  0  0  0  0  0  0
  124.8363  130.9871  160.0535 H   0  0  0  0  0  0  0  0  0  0  0  0
  125.3904  133.3427  160.5089 H   0  0  0  0  0  0  0  0  0  0  0  0
  127.6281  134.2099  159.9576 H   0  0  0  0  0  0  0  0  0  0  0  0
  134.0786  136.3285  160.0241 H   0  0  0  0  0  0  0  0  0  0  0  0
  135.3558  138.2558  159.1757 H   0  0  0  0  0  0  0  0  0  0  0  0
  134.3913  140.5166  159.2772 H   0  0  0  0  0  0  0  0  0  0  0  0
  132.1416  140.8609  160.2056 H   0  0  0  0  0  0  0  0  0  0  0  0
  1  2  1  0
  1 38  1  0
  2  7  2  0
  2  3  1  0
  3  4  2  0
  3 39  1  0
  4  5  1  0
  4 40  1  0
  5 37  1  0
  5  6  2  0
  6  7  1  0
  6  8  1  0
  7 41  1  0
  8  9  1  1
  8 10  1  0
  8 32  1  0
 10 11  1  0
 10 42  1  0
 11 12  1  6
 11 14  1  0
 11 13  1  0
 13 14  1  0
 13 43  1  0
 13 44  1  0
 14 15  1  6
 14 16  1  0
 16 17  1  0
 16 18  1  0
 16 19  1  0
 19 20  1  0
 19 26  1  0
 19 45  1  0
 20 25  1  0
 20 21  2  0
 21 22  1  0
 21 46  1  0
 22 23  2  0
 22 47  1  0
 23 24  1  0
 23 48  1  0
 24 25  2  0
 24 49  1  0
 25 50  1  0
 26 31  1  0
 26 27  2  0
 27 28  1  0
 27 51  1  0
 28 29  2  0
 28 52  1  0
 29 30  1  0
 29 53  1  0
 30 31  2  0
 30 54  1  0
 31 55  1  0
 32 37  2  0
 32 33  1  0
 33 34  2  0
 33 56  1  0
 34 35  1  0
 34 57  1  0
 35 36  2  0
 35 58  1  0
 36 37  1  0
 36 59  1  0
M  CHG  1  16   1
M  END
>  <DOCK_score>  (1) 
-50.730247

>  <SMILES>  (1) 
Oc1ccc2c(c1)[C@@H](N[C@H]1C[C@H]1[NH2+]C(c1ccccc1)c1ccccc1)c1ccccc1-2

$$$$
