CCN1CC[NH+]=C1NCc1ccc(Nc2cccc(O[C@H]3[C@@H](O)[C@H]4C=C[C@@H]3C4)c2)cc1
     RDKit          3D

 62 66  0  0  1  0  0  0  0  0999 V2000
  131.6262  130.4824  158.8791 C   0  0  0  0  0  0  0  0  0  0  0  0
  130.4009  130.2253  157.9997 C   0  0  0  0  0  0  0  0  0  0  0  0
  130.5116  131.0088  156.7667 N   0  0  0  0  0  0  0  0  0  0  0  0
  131.1451  130.5609  155.5153 C   0  0  0  0  0  0  0  0  0  0  0  0
  130.9714  131.7720  154.5774 C   0  0  0  0  0  0  0  0  0  0  0  0
  130.2632  132.7613  155.4016 N   0  0  0  0  0  0  0  0  0  0  0  0
  129.9984  133.6455  155.1035 H   0  0  0  0  0  0  0  0  0  0  0  0
  130.0442  132.2809  156.5819 C   0  0  0  0  0  0  0  0  0  0  0  0
  129.3920  132.9864  157.5654 N   0  0  0  0  0  0  0  0  0  0  0  0
  128.9172  134.3464  157.2990 C   0  0  0  0  0  0  0  0  0  0  0  0
  128.2421  134.8931  158.5304 C   0  0  0  0  0  0  0  0  0  0  0  0
  127.0373  135.5628  158.4168 C   0  0  0  0  0  0  0  0  0  0  0  0
  126.4135  136.0608  159.5437 C   0  0  0  0  0  0  0  0  0  0  0  0
  127.0023  135.8970  160.7912 C   0  0  0  0  0  0  0  0  0  0  0  0
  126.3764  136.4034  161.9331 N   0  0  0  0  0  0  0  0  0  0  0  0
  127.1427  136.8184  163.0246 C   0  0  0  0  0  0  0  0  0  0  0  0
  126.9696  136.2152  164.2654 C   0  0  0  0  0  0  0  0  0  0  0  0
  127.7318  136.6208  165.3433 C   0  0  0  0  0  0  0  0  0  0  0  0
  128.6606  137.6337  165.1944 C   0  0  0  0  0  0  0  0  0  0  0  0
  128.8341  138.2427  163.9596 C   0  0  0  0  0  0  0  0  0  0  0  0
  129.7473  139.2387  163.8152 O   0  0  0  0  0  0  0  0  0  0  0  0
  131.1095  138.9165  164.1025 C   0  0  1  0  0  0  0  0  0  0  0  0
  131.1996  137.8734  164.4056 H   0  0  0  0  0  0  0  0  0  0  0  0
  132.0081  139.2062  162.8753 C   0  0  1  0  0  0  0  0  0  0  0  0
  132.5448  138.3071  162.5727 H   0  0  0  0  0  0  0  0  0  0  0  0
  131.2283  139.7131  161.7903 O   0  0  0  0  0  0  0  0  0  0  0  0
  133.0039  140.2918  163.3943 C   0  0  1  0  0  0  0  0  0  0  0  0
  133.9039  140.4455  162.7991 H   0  0  0  0  0  0  0  0  0  0  0  0
  132.1229  141.5255  163.6265 C   0  0  0  0  0  0  0  0  0  0  0  0
  131.3545  141.2721  164.6925 C   0  0  0  0  0  0  0  0  0  0  0  0
  131.6765  139.8638  165.2073 C   0  0  2  0  0  0  0  0  0  0  0  0
  131.3894  139.6347  166.2336 H   0  0  0  0  0  0  0  0  0  0  0  0
  133.2120  139.8016  164.8740 C   0  0  0  0  0  0  0  0  0  0  0  0
  128.0752  137.8348  162.8738 C   0  0  0  0  0  0  0  0  0  0  0  0
  128.2152  135.2284  160.9011 C   0  0  0  0  0  0  0  0  0  0  0  0
  128.8312  134.7288  159.7707 C   0  0  0  0  0  0  0  0  0  0  0  0
  131.5439  129.8995  159.7963 H   0  0  0  0  0  0  0  0  0  0  0  0
  132.5277  130.1884  158.3414 H   0  0  0  0  0  0  0  0  0  0  0  0
  131.6802  131.5428  159.1259 H   0  0  0  0  0  0  0  0  0  0  0  0
  129.4996  130.5194  158.5374 H   0  0  0  0  0  0  0  0  0  0  0  0
  130.3470  129.1650  157.7526 H   0  0  0  0  0  0  0  0  0  0  0  0
  132.2018  130.3462  155.6745 H   0  0  0  0  0  0  0  0  0  0  0  0
  130.6321  129.6857  155.1163 H   0  0  0  0  0  0  0  0  0  0  0  0
  131.9426  132.1578  154.2676 H   0  0  0  0  0  0  0  0  0  0  0  0
  130.3745  131.4990  153.7072 H   0  0  0  0  0  0  0  0  0  0  0  0
  129.2463  132.5835  158.4357 H   0  0  0  0  0  0  0  0  0  0  0  0
  129.7631  134.9816  157.0361 H   0  0  0  0  0  0  0  0  0  0  0  0
  128.2064  134.3277  156.4729 H   0  0  0  0  0  0  0  0  0  0  0  0
  126.5823  135.6931  157.4462 H   0  0  0  0  0  0  0  0  0  0  0  0
  125.4708  136.5801  159.4548 H   0  0  0  0  0  0  0  0  0  0  0  0
  125.4088  136.4681  161.9670 H   0  0  0  0  0  0  0  0  0  0  0  0
  126.2414  135.4266  164.3855 H   0  0  0  0  0  0  0  0  0  0  0  0
  127.5989  136.1487  166.3054 H   0  0  0  0  0  0  0  0  0  0  0  0
  129.2517  137.9519  166.0405 H   0  0  0  0  0  0  0  0  0  0  0  0
  131.7453  139.9325  161.0030 H   0  0  0  0  0  0  0  0  0  0  0  0
  132.1369  142.4313  163.0385 H   0  0  0  0  0  0  0  0  0  0  0  0
  130.6248  141.9472  165.1145 H   0  0  0  0  0  0  0  0  0  0  0  0
  133.6099  138.7881  164.9260 H   0  0  0  0  0  0  0  0  0  0  0  0
  133.7985  140.5030  165.4677 H   0  0  0  0  0  0  0  0  0  0  0  0
  128.2092  138.3074  161.9120 H   0  0  0  0  0  0  0  0  0  0  0  0
  128.6756  135.0993  161.8696 H   0  0  0  0  0  0  0  0  0  0  0  0
  129.7740  134.2088  159.8553 H   0  0  0  0  0  0  0  0  0  0  0  0
  1  2  1  0
  1 37  1  0
  1 38  1  0
  1 39  1  0
  2  3  1  0
  2 40  1  0
  2 41  1  0
  3  8  1  0
  3  4  1  0
  4  5  1  0
  4 42  1  0
  4 43  1  0
  5  6  1  0
  5 44  1  0
  5 45  1  0
  6  7  1  0
  6  8  2  0
  8  9  1  0
  9 10  1  0
  9 46  1  0
 10 11  1  0
 10 47  1  0
 10 48  1  0
 11 36  1  0
 11 12  2  0
 12 13  1  0
 12 49  1  0
 13 14  2  0
 13 50  1  0
 14 15  1  0
 14 35  1  0
 15 16  1  0
 15 51  1  0
 16 34  1  0
 16 17  2  0
 17 18  1  0
 17 52  1  0
 18 19  2  0
 18 53  1  0
 19 20  1  0
 19 54  1  0
 20 21  1  0
 20 34  2  0
 21 22  1  0
 22 23  1  1
 22 31  1  0
 22 24  1  0
 24 25  1  6
 24 26  1  0
 24 27  1  0
 26 55  1  0
 27 28  1  6
 27 33  1  0
 27 29  1  0
 29 30  2  0
 29 56  1  0
 30 31  1  0
 30 57  1  0
 31 32  1  1
 31 33  1  0
 33 58  1  0
 33 59  1  0
 34 60  1  0
 35 36  2  0
 35 61  1  0
 36 62  1  0
M  CHG  1   6   1
M  END
>  <DOCK_score>  (1) 
-41.548264

>  <SMILES>  (1) 
CCN1CC[NH+]=C1NCc1ccc(Nc2cccc(O[C@H]3[C@@H](O)[C@H]4C=C[C@@H]3C4)c2)cc1

$$$$
