CCc1ccc(-c2ccc(-c3ccccc3C3=CCC[N@@H+](Cc4ccc(-c5ccccc5)[nH]4)C3)cc2)cc1
     RDKit          3D

 73 78  0  0  1  0  0  0  0  0999 V2000
  132.0232  136.3869  172.0745 C   0  0  0  0  0  0  0  0  0  0  0  0
  132.9661  135.4744  171.2878 C   0  0  0  0  0  0  0  0  0  0  0  0
  133.2298  136.0744  169.9308 C   0  0  0  0  0  0  0  0  0  0  0  0
  134.2941  136.9404  169.7553 C   0  0  0  0  0  0  0  0  0  0  0  0
  134.5404  137.4930  168.5149 C   0  0  0  0  0  0  0  0  0  0  0  0
  133.7144  137.1765  167.4377 C   0  0  0  0  0  0  0  0  0  0  0  0
  133.9735  137.7673  166.1023 C   0  0  0  0  0  0  0  0  0  0  0  0
  132.9145  137.9959  165.2237 C   0  0  0  0  0  0  0  0  0  0  0  0
  133.1547  138.5450  163.9838 C   0  0  0  0  0  0  0  0  0  0  0  0
  134.4575  138.8729  163.6066 C   0  0  0  0  0  0  0  0  0  0  0  0
  134.7162  139.4636  162.2731 C   0  0  0  0  0  0  0  0  0  0  0  0
  135.3023  140.7223  162.1662 C   0  0  0  0  0  0  0  0  0  0  0  0
  135.5418  141.2688  160.9217 C   0  0  0  0  0  0  0  0  0  0  0  0
  135.2034  140.5727  159.7730 C   0  0  0  0  0  0  0  0  0  0  0  0
  134.6264  139.3224  159.8586 C   0  0  0  0  0  0  0  0  0  0  0  0
  134.3718  138.7564  161.1075 C   0  0  0  0  0  0  0  0  0  0  0  0
  133.7504  137.4211  161.2050 C   0  0  0  0  0  0  0  0  0  0  0  0
  134.4160  136.4606  161.8121 C   0  0  0  0  0  0  0  0  0  0  0  0
  133.8669  135.0676  161.9551 C   0  0  0  0  0  0  0  0  0  0  0  0
  132.3615  135.0795  161.6777 C   0  0  0  0  0  0  0  0  0  0  0  0
  132.1227  135.7885  160.4112 N   0  0  1  0  0  0  0  0  0  0  0  0
  132.7378  135.4257  159.6984 H   0  0  0  0  0  0  0  0  0  0  0  0
  130.7259  135.6000  159.9976 C   0  0  0  0  0  0  0  0  0  0  0  0
  130.5729  134.2501  159.3453 C   0  0  0  0  0  0  0  0  0  0  0  0
  130.2700  133.0969  159.9797 C   0  0  0  0  0  0  0  0  0  0  0  0
  130.2195  132.0790  159.0135 C   0  0  0  0  0  0  0  0  0  0  0  0
  130.5054  132.6480  157.8090 C   0  0  0  0  0  0  0  0  0  0  0  0
  130.5695  131.9471  156.5087 C   0  0  0  0  0  0  0  0  0  0  0  0
  130.2455  132.6232  155.3315 C   0  0  0  0  0  0  0  0  0  0  0  0
  130.3138  131.9652  154.1208 C   0  0  0  0  0  0  0  0  0  0  0  0
  130.6897  130.6348  154.0731 C   0  0  0  0  0  0  0  0  0  0  0  0
  131.0062  129.9570  155.2372 C   0  0  0  0  0  0  0  0  0  0  0  0
  130.9485  130.6050  156.4538 C   0  0  0  0  0  0  0  0  0  0  0  0
  130.7228  133.9860  158.0165 N   0  0  0  0  0  0  0  0  0  0  0  0
  130.9461  134.6360  157.3319 H   0  0  0  0  0  0  0  0  0  0  0  0
  132.3880  137.2185  160.6074 C   0  0  0  0  0  0  0  0  0  0  0  0
  135.5172  138.6389  164.4837 C   0  0  0  0  0  0  0  0  0  0  0  0
  135.2756  138.0951  165.7257 C   0  0  0  0  0  0  0  0  0  0  0  0
  132.6404  136.3071  167.6215 C   0  0  0  0  0  0  0  0  0  0  0  0
  132.4068  135.7569  168.8653 C   0  0  0  0  0  0  0  0  0  0  0  0
  131.0825  136.4901  171.5339 H   0  0  0  0  0  0  0  0  0  0  0  0
  131.8326  135.9529  173.0561 H   0  0  0  0  0  0  0  0  0  0  0  0
  132.4831  137.3679  172.1942 H   0  0  0  0  0  0  0  0  0  0  0  0
  132.5065  134.4934  171.1682 H   0  0  0  0  0  0  0  0  0  0  0  0
  133.9071  135.3712  171.8284 H   0  0  0  0  0  0  0  0  0  0  0  0
  134.9335  137.1849  170.5908 H   0  0  0  0  0  0  0  0  0  0  0  0
  135.3715  138.1690  168.3790 H   0  0  0  0  0  0  0  0  0  0  0  0
  131.9064  137.7417  165.5157 H   0  0  0  0  0  0  0  0  0  0  0  0
  132.3347  138.7221  163.3036 H   0  0  0  0  0  0  0  0  0  0  0  0
  135.5695  141.2709  163.0572 H   0  0  0  0  0  0  0  0  0  0  0  0
  135.9965  142.2452  160.8430 H   0  0  0  0  0  0  0  0  0  0  0  0
  135.3958  141.0097  158.8043 H   0  0  0  0  0  0  0  0  0  0  0  0
  134.3689  138.7836  158.9588 H   0  0  0  0  0  0  0  0  0  0  0  0
  135.3908  136.6806  162.2217 H   0  0  0  0  0  0  0  0  0  0  0  0
  134.3621  134.4073  161.2431 H   0  0  0  0  0  0  0  0  0  0  0  0
  134.0466  134.7087  162.9685 H   0  0  0  0  0  0  0  0  0  0  0  0
  131.9961  134.0556  161.5978 H   0  0  0  0  0  0  0  0  0  0  0  0
  131.8442  135.5930  162.4882 H   0  0  0  0  0  0  0  0  0  0  0  0
  130.0774  135.6566  160.8719 H   0  0  0  0  0  0  0  0  0  0  0  0
  130.4485  136.3798  159.2884 H   0  0  0  0  0  0  0  0  0  0  0  0
  130.0958  132.9791  161.0390 H   0  0  0  0  0  0  0  0  0  0  0  0
  129.9993  131.0369  159.1927 H   0  0  0  0  0  0  0  0  0  0  0  0
  129.9470  133.6604  155.3678 H   0  0  0  0  0  0  0  0  0  0  0  0
  130.0684  132.4889  153.2084 H   0  0  0  0  0  0  0  0  0  0  0  0
  130.7367  130.1231  153.1232 H   0  0  0  0  0  0  0  0  0  0  0  0
  131.2993  128.9184  155.1933 H   0  0  0  0  0  0  0  0  0  0  0  0
  131.1963  130.0751  157.3616 H   0  0  0  0  0  0  0  0  0  0  0  0
  131.6353  137.6366  161.2757 H   0  0  0  0  0  0  0  0  0  0  0  0
  132.3375  137.7271  159.6444 H   0  0  0  0  0  0  0  0  0  0  0  0
  136.5263  138.8885  164.1903 H   0  0  0  0  0  0  0  0  0  0  0  0
  136.0952  137.9181  166.4063 H   0  0  0  0  0  0  0  0  0  0  0  0
  131.9946  136.0620  166.7913 H   0  0  0  0  0  0  0  0  0  0  0  0
  131.5770  135.0804  169.0081 H   0  0  0  0  0  0  0  0  0  0  0  0
  1  2  1  0
  1 41  1  0
  1 42  1  0
  1 43  1  0
  2  3  1  0
  2 44  1  0
  2 45  1  0
  3 40  2  0
  3  4  1  0
  4  5  2  0
  4 46  1  0
  5  6  1  0
  5 47  1  0
  6  7  1  0
  6 39  2  0
  7 38  1  0
  7  8  2  0
  8  9  1  0
  8 48  1  0
  9 10  2  0
  9 49  1  0
 10 11  1  0
 10 37  1  0
 11 16  1  0
 11 12  2  0
 12 13  1  0
 12 50  1  0
 13 14  2  0
 13 51  1  0
 14 15  1  0
 14 52  1  0
 15 16  2  0
 15 53  1  0
 16 17  1  0
 17 36  1  0
 17 18  2  0
 18 19  1  0
 18 54  1  0
 19 20  1  0
 19 55  1  0
 19 56  1  0
 20 21  1  0
 20 57  1  0
 20 58  1  0
 21 22  1  6
 21 23  1  0
 21 36  1  0
 23 24  1  0
 23 59  1  0
 23 60  1  0
 24 34  1  0
 24 25  2  0
 25 26  1  0
 25 61  1  0
 26 27  2  0
 26 62  1  0
 27 28  1  0
 27 34  1  0
 28 33  1  0
 28 29  2  0
 29 30  1  0
 29 63  1  0
 30 31  2  0
 30 64  1  0
 31 32  1  0
 31 65  1  0
 32 33  2  0
 32 66  1  0
 33 67  1  0
 34 35  1  0
 36 68  1  0
 36 69  1  0
 37 38  2  0
 37 70  1  0
 38 71  1  0
 39 40  1  0
 39 72  1  0
 40 73  1  0
M  CHG  1  21   1
M  END
>  <DOCK_score>  (1) 
-57.587082

>  <SMILES>  (1) 
CCc1ccc(-c2ccc(-c3ccccc3C3=CCC[N@@H+](Cc4ccc(-c5ccccc5)[nH]4)C3)cc2)cc1

$$$$
