Nc1ccc(Sc2ccccc2)c(Nc2[nH]cc(-c3ccncc3)[nH+]2)c1
     RDKit          3D

 44 47  0  0  1  0  0  0  0  0999 V2000
  127.2253  133.3347  161.0857 N   0  0  0  0  0  0  0  0  0  0  0  0
  128.2245  132.7299  160.3148 C   0  0  0  0  0  0  0  0  0  0  0  0
  128.0370  131.4459  159.8195 C   0  0  0  0  0  0  0  0  0  0  0  0
  129.0216  130.8456  159.0579 C   0  0  0  0  0  0  0  0  0  0  0  0
  130.2005  131.5240  158.7862 C   0  0  0  0  0  0  0  0  0  0  0  0
  131.4555  130.7576  157.8155 S   0  0  0  0  0  0  0  0  0  0  0  0
  131.0345  131.2373  156.1732 C   0  0  0  0  0  0  0  0  0  0  0  0
  130.3920  132.4483  155.9440 C   0  0  0  0  0  0  0  0  0  0  0  0
  130.0641  132.8210  154.6557 C   0  0  0  0  0  0  0  0  0  0  0  0
  130.3739  131.9901  153.5935 C   0  0  0  0  0  0  0  0  0  0  0  0
  131.0085  130.7826  153.8182 C   0  0  0  0  0  0  0  0  0  0  0  0
  131.3443  130.4056  155.1033 C   0  0  0  0  0  0  0  0  0  0  0  0
  130.3942  132.8117  159.2871 C   0  0  0  0  0  0  0  0  0  0  0  0
  131.5857  133.4963  159.0198 N   0  0  0  0  0  0  0  0  0  0  0  0
  132.0737  134.4185  159.9304 C   0  0  0  0  0  0  0  0  0  0  0  0
  131.8980  134.3699  161.2799 N   0  0  0  0  0  0  0  0  0  0  0  0
  131.4124  133.6892  161.7717 H   0  0  0  0  0  0  0  0  0  0  0  0
  132.5336  135.4611  161.8156 C   0  0  0  0  0  0  0  0  0  0  0  0
  133.0804  136.1466  160.7799 C   0  0  0  0  0  0  0  0  0  0  0  0
  133.8660  137.3996  160.8808 C   0  0  0  0  0  0  0  0  0  0  0  0
  133.8640  138.3346  159.8406 C   0  0  0  0  0  0  0  0  0  0  0  0
  134.6046  139.4896  159.9782 C   0  0  0  0  0  0  0  0  0  0  0  0
  135.3162  139.7124  161.0672 N   0  0  0  0  0  0  0  0  0  0  0  0
  135.3498  138.8540  162.0688 C   0  0  0  0  0  0  0  0  0  0  0  0
  134.6340  137.6764  162.0163 C   0  0  0  0  0  0  0  0  0  0  0  0
  132.7857  135.4787  159.6362 N   0  0  0  0  0  0  0  0  0  0  0  0
  133.0563  135.7449  158.7435 H   0  0  0  0  0  0  0  0  0  0  0  0
  129.4020  133.4140  160.0454 C   0  0  0  0  0  0  0  0  0  0  0  0
  126.4021  132.8572  161.2740 H   0  0  0  0  0  0  0  0  0  0  0  0
  127.3557  134.2314  161.4319 H   0  0  0  0  0  0  0  0  0  0  0  0
  127.1202  130.9155  160.0303 H   0  0  0  0  0  0  0  0  0  0  0  0
  128.8731  129.8472  158.6740 H   0  0  0  0  0  0  0  0  0  0  0  0
  130.1494  133.0969  156.7728 H   0  0  0  0  0  0  0  0  0  0  0  0
  129.5652  133.7621  154.4768 H   0  0  0  0  0  0  0  0  0  0  0  0
  130.1150  132.2850  152.5873 H   0  0  0  0  0  0  0  0  0  0  0  0
  131.2452  130.1350  152.9870 H   0  0  0  0  0  0  0  0  0  0  0  0
  131.8434  129.4638  155.2777 H   0  0  0  0  0  0  0  0  0  0  0  0
  132.0695  133.3249  158.1967 H   0  0  0  0  0  0  0  0  0  0  0  0
  132.5879  135.7245  162.8616 H   0  0  0  0  0  0  0  0  0  0  0  0
  133.2876  138.1566  158.9448 H   0  0  0  0  0  0  0  0  0  0  0  0
  134.6060  140.2197  159.1824 H   0  0  0  0  0  0  0  0  0  0  0  0
  135.9462  139.0764  162.9414 H   0  0  0  0  0  0  0  0  0  0  0  0
  134.6659  136.9785  162.8400 H   0  0  0  0  0  0  0  0  0  0  0  0
  129.5474  134.4124  160.4307 H   0  0  0  0  0  0  0  0  0  0  0  0
  1  2  1  0
  1 29  1  0
  1 30  1  0
  2 28  2  0
  2  3  1  0
  3  4  2  0
  3 31  1  0
  4  5  1  0
  4 32  1  0
  5  6  1  0
  5 13  2  0
  6  7  1  0
  7 12  1  0
  7  8  2  0
  8  9  1  0
  8 33  1  0
  9 10  2  0
  9 34  1  0
 10 11  1  0
 10 35  1  0
 11 12  2  0
 11 36  1  0
 12 37  1  0
 13 14  1  0
 13 28  1  0
 14 38  1  0
 15 14  1  0
 15 26  2  0
 15 16  1  0
 16 17  1  0
 16 18  1  0
 18 19  2  0
 18 39  1  0
 19 20  1  0
 19 26  1  0
 20 25  1  0
 20 21  2  0
 21 22  1  0
 21 40  1  0
 22 23  2  0
 22 41  1  0
 23 24  1  0
 24 25  2  0
 24 42  1  0
 25 43  1  0
 26 27  1  0
 28 44  1  0
M  CHG  1  26   1
M  END
>  <DOCK_score>  (1) 
-58.038746

>  <SMILES>  (1) 
Nc1ccc(Sc2ccccc2)c(Nc2[nH]cc(-c3ccncc3)[nH+]2)c1

$$$$
