[NH3+]C(C[C@@H]1CC=CCC1)C(=O)Nc1cc(Sc2c[nH]nn2)ccc1Sc1ccccc1
     RDKit          3D

 57 60  0  0  1  0  0  0  0  0999 V2000
  131.2019  139.1018  160.8706 N   0  0  0  0  0  0  0  0  0  0  0  0
  131.9219  139.8002  160.7614 H   0  0  0  0  0  0  0  0  0  0  0  0
  130.4100  139.3420  160.2933 H   0  0  0  0  0  0  0  0  0  0  0  0
  130.9142  139.0635  161.8370 H   0  0  0  0  0  0  0  0  0  0  0  0
  131.7253  137.7912  160.4631 C   0  0  1  0  0  0  0  0  0  0  0  0
  132.9260  137.4268  161.3386 C   0  0  0  0  0  0  0  0  0  0  0  0
  134.0178  138.4859  161.1731 C   0  0  2  0  0  0  0  0  0  0  0  0
  133.6322  139.4597  161.4748 H   0  0  0  0  0  0  0  0  0  0  0  0
  134.4682  138.5363  159.7117 C   0  0  0  0  0  0  0  0  0  0  0  0
  135.7089  139.3704  159.5816 C   0  0  0  0  0  0  0  0  0  0  0  0
  136.4757  139.6895  160.5746 C   0  0  0  0  0  0  0  0  0  0  0  0
  136.2257  139.2782  161.9958 C   0  0  0  0  0  0  0  0  0  0  0  0
  135.2279  138.1188  162.0413 C   0  0  0  0  0  0  0  0  0  0  0  0
  130.6499  136.7480  160.6262 C   0  0  0  0  0  0  0  0  0  0  0  0
  129.8046  136.8778  161.4863 O   0  0  0  0  0  0  0  0  0  0  0  0
  130.6307  135.6683  159.8199 N   0  0  0  0  0  0  0  0  0  0  0  0
  129.6341  134.6958  159.9750 C   0  0  0  0  0  0  0  0  0  0  0  0
  128.3836  135.0536  160.4536 C   0  0  0  0  0  0  0  0  0  0  0  0
  127.3958  134.0882  160.6009 C   0  0  0  0  0  0  0  0  0  0  0  0
  125.8033  134.5430  161.2023 S   0  0  0  0  0  0  0  0  0  0  0  0
  126.1565  135.2097  162.7946 C   0  0  0  0  0  0  0  0  0  0  0  0
  126.7490  134.5646  163.8344 C   0  0  0  0  0  0  0  0  0  0  0  0
  126.8137  135.4710  164.8493 N   0  0  0  0  0  0  0  0  0  0  0  0
  127.1861  135.3123  165.7308 H   0  0  0  0  0  0  0  0  0  0  0  0
  126.2950  136.5741  164.4365 N   0  0  0  0  0  0  0  0  0  0  0  0
  125.8992  136.4551  163.2188 N   0  0  0  0  0  0  0  0  0  0  0  0
  127.6645  132.7630  160.2802 C   0  0  0  0  0  0  0  0  0  0  0  0
  128.9119  132.4033  159.8080 C   0  0  0  0  0  0  0  0  0  0  0  0
  129.9006  133.3647  159.6535 C   0  0  0  0  0  0  0  0  0  0  0  0
  131.4915  132.9044  159.0522 S   0  0  0  0  0  0  0  0  0  0  0  0
  131.1351  132.2298  157.4641 C   0  0  0  0  0  0  0  0  0  0  0  0
  130.5210  133.0151  156.4955 C   0  0  0  0  0  0  0  0  0  0  0  0
  130.2477  132.4845  155.2504 C   0  0  0  0  0  0  0  0  0  0  0  0
  130.5743  131.1701  154.9700 C   0  0  0  0  0  0  0  0  0  0  0  0
  131.1813  130.3843  155.9328 C   0  0  0  0  0  0  0  0  0  0  0  0
  131.4625  130.9095  157.1785 C   0  0  0  0  0  0  0  0  0  0  0  0
  132.0360  137.8325  159.4192 H   0  0  0  0  0  0  0  0  0  0  0  0
  132.6153  137.3853  162.3826 H   0  0  0  0  0  0  0  0  0  0  0  0
  133.3144  136.4543  161.0362 H   0  0  0  0  0  0  0  0  0  0  0  0
  134.6745  137.5247  159.3620 H   0  0  0  0  0  0  0  0  0  0  0  0
  133.6749  138.9716  159.1039 H   0  0  0  0  0  0  0  0  0  0  0  0
  135.9787  139.7270  158.5984 H   0  0  0  0  0  0  0  0  0  0  0  0
  137.3500  140.2885  160.3670 H   0  0  0  0  0  0  0  0  0  0  0  0
  135.8216  140.1246  162.5511 H   0  0  0  0  0  0  0  0  0  0  0  0
  137.1648  138.9647  162.4519 H   0  0  0  0  0  0  0  0  0  0  0  0
  134.9049  137.9536  163.0692 H   0  0  0  0  0  0  0  0  0  0  0  0
  135.6956  137.2135  161.6543 H   0  0  0  0  0  0  0  0  0  0  0  0
  131.3067  135.5644  159.1320 H   0  0  0  0  0  0  0  0  0  0  0  0
  128.1760  136.0826  160.7074 H   0  0  0  0  0  0  0  0  0  0  0  0
  127.0970  133.5425  163.8521 H   0  0  0  0  0  0  0  0  0  0  0  0
  126.8967  132.0131  160.3999 H   0  0  0  0  0  0  0  0  0  0  0  0
  129.1179  131.3728  159.5592 H   0  0  0  0  0  0  0  0  0  0  0  0
  130.2612  134.0401  156.7153 H   0  0  0  0  0  0  0  0  0  0  0  0
  129.7741  133.0953  154.4960 H   0  0  0  0  0  0  0  0  0  0  0  0
  130.3553  130.7564  153.9968 H   0  0  0  0  0  0  0  0  0  0  0  0
  131.4353  129.3585  155.7103 H   0  0  0  0  0  0  0  0  0  0  0  0
  131.9364  130.2954  157.9297 H   0  0  0  0  0  0  0  0  0  0  0  0
  1  2  1  0
  1  3  1  0
  1  4  1  0
  1  5  1  0
  5  6  1  0
  5 14  1  0
  5 37  1  6
  6  7  1  0
  6 38  1  0
  6 39  1  0
  7  8  1  1
  7 13  1  0
  7  9  1  0
  9 10  1  0
  9 40  1  0
  9 41  1  0
 10 11  2  0
 10 42  1  0
 11 12  1  0
 11 43  1  0
 12 13  1  0
 12 44  1  0
 12 45  1  0
 13 46  1  0
 13 47  1  0
 14 15  2  0
 14 16  1  0
 16 17  1  0
 16 48  1  0
 17 29  1  0
 17 18  2  0
 18 19  1  0
 18 49  1  0
 19 20  1  0
 19 27  2  0
 20 21  1  0
 21 26  1  0
 21 22  2  0
 22 23  1  0
 22 50  1  0
 23 24  1  0
 23 25  1  0
 25 26  2  0
 27 28  1  0
 27 51  1  0
 28 29  2  0
 28 52  1  0
 29 30  1  0
 30 31  1  0
 31 36  1  0
 31 32  2  0
 32 33  1  0
 32 53  1  0
 33 34  2  0
 33 54  1  0
 34 35  1  0
 34 55  1  0
 35 36  2  0
 35 56  1  0
 36 57  1  0
M  CHG  1   1   1
M  END
>  <DOCK_score>  (1) 
-43.459255

>  <SMILES>  (1) 
[NH3+]C(C[C@@H]1CC=CCC1)C(=O)Nc1cc(Sc2c[nH]nn2)ccc1Sc1ccccc1

$$$$
