C[C@@H]1CCC=C(c2cccc(N3CC[NH+](C(c4ccccc4)c4ccccc4)CC3)c2CCl)C1
     RDKit          3D

 70 74  0  0  1  0  0  0  0  0999 V2000
  138.5053  136.1266  166.7043 C   0  0  0  0  0  0  0  0  0  0  0  0
  137.5331  137.1771  166.1640 C   0  0  2  0  0  0  0  0  0  0  0  0
  138.0691  138.1059  165.9684 H   0  0  0  0  0  0  0  0  0  0  0  0
  136.4234  137.4294  167.1921 C   0  0  0  0  0  0  0  0  0  0  0  0
  135.5818  138.6157  166.7167 C   0  0  0  0  0  0  0  0  0  0  0  0
  135.1789  138.4222  165.2838 C   0  0  0  0  0  0  0  0  0  0  0  0
  135.7571  137.5713  164.4712 C   0  0  0  0  0  0  0  0  0  0  0  0
  135.2628  137.4920  163.0804 C   0  0  0  0  0  0  0  0  0  0  0  0
  135.8150  138.3102  162.0933 C   0  0  0  0  0  0  0  0  0  0  0  0
  135.3520  138.2345  160.7956 C   0  0  0  0  0  0  0  0  0  0  0  0
  134.3418  137.3499  160.4677 C   0  0  0  0  0  0  0  0  0  0  0  0
  133.7854  136.5309  161.4431 C   0  0  0  0  0  0  0  0  0  0  0  0
  132.7647  135.6385  161.1069 N   0  0  0  0  0  0  0  0  0  0  0  0
  131.5661  136.3566  160.6513 C   0  0  0  0  0  0  0  0  0  0  0  0
  130.4547  135.3486  160.3505 C   0  0  0  0  0  0  0  0  0  0  0  0
  130.9095  134.4128  159.3137 N   0  0  0  0  0  0  0  0  0  0  0  0
  131.1466  134.9263  158.4781 H   0  0  0  0  0  0  0  0  0  0  0  0
  129.8359  133.4565  159.0125 C   0  0  0  0  0  0  0  0  0  0  0  0
  128.6229  134.2022  158.5190 C   0  0  0  0  0  0  0  0  0  0  0  0
  127.3583  133.6913  158.7446 C   0  0  0  0  0  0  0  0  0  0  0  0
  126.2455  134.3778  158.2962 C   0  0  0  0  0  0  0  0  0  0  0  0
  126.3976  135.5699  157.6132 C   0  0  0  0  0  0  0  0  0  0  0  0
  127.6622  136.0781  157.3830 C   0  0  0  0  0  0  0  0  0  0  0  0
  128.7750  135.3943  157.8359 C   0  0  0  0  0  0  0  0  0  0  0  0
  130.3024  132.4962  157.9489 C   0  0  0  0  0  0  0  0  0  0  0  0
  130.0938  132.7887  156.6141 C   0  0  0  0  0  0  0  0  0  0  0  0
  130.5260  131.9101  155.6382 C   0  0  0  0  0  0  0  0  0  0  0  0
  131.1575  130.7341  155.9976 C   0  0  0  0  0  0  0  0  0  0  0  0
  131.3615  130.4392  157.3326 C   0  0  0  0  0  0  0  0  0  0  0  0
  130.9339  131.3203  158.3083 C   0  0  0  0  0  0  0  0  0  0  0  0
  132.0924  133.6856  159.7929 C   0  0  0  0  0  0  0  0  0  0  0  0
  133.2174  134.6798  160.0890 C   0  0  0  0  0  0  0  0  0  0  0  0
  134.2398  136.6042  162.7514 C   0  0  0  0  0  0  0  0  0  0  0  0
  133.6337  135.7222  163.8125 C   0  0  0  0  0  0  0  0  0  0  0  0
  132.2392  136.5725  164.5763 Cl  0  0  0  0  0  0  0  0  0  0  0  0
  136.8872  136.6685  164.8717 C   0  0  0  0  0  0  0  0  0  0  0  0
  137.9681  135.1970  166.8924 H   0  0  0  0  0  0  0  0  0  0  0  0
  139.2927  135.9494  165.9717 H   0  0  0  0  0  0  0  0  0  0  0  0
  138.9478  136.4850  167.6337 H   0  0  0  0  0  0  0  0  0  0  0  0
  136.8670  137.6600  168.1607 H   0  0  0  0  0  0  0  0  0  0  0  0
  135.7935  136.5438  167.2759 H   0  0  0  0  0  0  0  0  0  0  0  0
  136.1652  139.5319  166.8075 H   0  0  0  0  0  0  0  0  0  0  0  0
  134.6882  138.6934  167.3359 H   0  0  0  0  0  0  0  0  0  0  0  0
  134.3651  139.0193  164.8997 H   0  0  0  0  0  0  0  0  0  0  0  0
  136.6045  139.0028  162.3455 H   0  0  0  0  0  0  0  0  0  0  0  0
  135.7808  138.8684  160.0334 H   0  0  0  0  0  0  0  0  0  0  0  0
  133.9835  137.2950  159.4503 H   0  0  0  0  0  0  0  0  0  0  0  0
  131.8007  136.9195  159.7477 H   0  0  0  0  0  0  0  0  0  0  0  0
  131.2341  137.0419  161.4313 H   0  0  0  0  0  0  0  0  0  0  0  0
  129.5693  135.8782  159.9987 H   0  0  0  0  0  0  0  0  0  0  0  0
  130.2108  134.7954  161.2575 H   0  0  0  0  0  0  0  0  0  0  0  0
  129.5793  132.9020  159.9152 H   0  0  0  0  0  0  0  0  0  0  0  0
  127.2398  132.7577  159.2743 H   0  0  0  0  0  0  0  0  0  0  0  0
  125.2574  133.9805  158.4756 H   0  0  0  0  0  0  0  0  0  0  0  0
  125.5283  136.1040  157.2589 H   0  0  0  0  0  0  0  0  0  0  0  0
  127.7811  137.0094  156.8490 H   0  0  0  0  0  0  0  0  0  0  0  0
  129.7631  135.7913  157.6558 H   0  0  0  0  0  0  0  0  0  0  0  0
  129.5965  133.7054  156.3333 H   0  0  0  0  0  0  0  0  0  0  0  0
  130.3663  132.1403  154.5952 H   0  0  0  0  0  0  0  0  0  0  0  0
  131.4912  130.0455  155.2354 H   0  0  0  0  0  0  0  0  0  0  0  0
  131.8544  129.5201  157.6134 H   0  0  0  0  0  0  0  0  0  0  0  0
  131.0929  131.0896  159.3513 H   0  0  0  0  0  0  0  0  0  0  0  0
  131.8401  133.1409  160.7027 H   0  0  0  0  0  0  0  0  0  0  0  0
  132.4212  132.9823  159.0278 H   0  0  0  0  0  0  0  0  0  0  0  0
  133.4793  135.2150  159.1763 H   0  0  0  0  0  0  0  0  0  0  0  0
  134.0905  134.1421  160.4586 H   0  0  0  0  0  0  0  0  0  0  0  0
  133.2886  134.7930  163.3591 H   0  0  0  0  0  0  0  0  0  0  0  0
  134.3836  135.4994  164.5716 H   0  0  0  0  0  0  0  0  0  0  0  0
  136.5058  135.6594  165.0275 H   0  0  0  0  0  0  0  0  0  0  0  0
  137.6347  136.6517  164.0786 H   0  0  0  0  0  0  0  0  0  0  0  0
  1  2  1  0
  1 37  1  0
  1 38  1  0
  1 39  1  0
  2  3  1  6
  2 36  1  0
  2  4  1  0
  4  5  1  0
  4 40  1  0
  4 41  1  0
  5  6  1  0
  5 42  1  0
  5 43  1  0
  6  7  2  0
  6 44  1  0
  7  8  1  0
  7 36  1  0
  8 33  1  0
  8  9  2  0
  9 10  1  0
  9 45  1  0
 10 11  2  0
 10 46  1  0
 11 12  1  0
 11 47  1  0
 12 13  1  0
 12 33  2  0
 13 32  1  0
 13 14  1  0
 14 15  1  0
 14 48  1  0
 14 49  1  0
 15 16  1  0
 15 50  1  0
 15 51  1  0
 16 17  1  0
 16 18  1  0
 16 31  1  0
 18 19  1  0
 18 25  1  0
 18 52  1  0
 19 24  1  0
 19 20  2  0
 20 21  1  0
 20 53  1  0
 21 22  2  0
 21 54  1  0
 22 23  1  0
 22 55  1  0
 23 24  2  0
 23 56  1  0
 24 57  1  0
 25 30  1  0
 25 26  2  0
 26 27  1  0
 26 58  1  0
 27 28  2  0
 27 59  1  0
 28 29  1  0
 28 60  1  0
 29 30  2  0
 29 61  1  0
 30 62  1  0
 31 32  1  0
 31 63  1  0
 31 64  1  0
 32 65  1  0
 32 66  1  0
 33 34  1  0
 34 35  1  0
 34 67  1  0
 34 68  1  0
 36 69  1  0
 36 70  1  0
M  CHG  1  16   1
M  END
>  <DOCK_score>  (1) 
-56.122314

>  <SMILES>  (1) 
C[C@@H]1CCC=C(c2cccc(N3CC[NH+](C(c4ccccc4)c4ccccc4)CC3)c2CCl)C1

$$$$
