CCc1ccc(-c2c[nH]c(N[C@@H](C=C3C=CCC(CC)C3)CCBr)[nH+]2)cc1
     RDKit          3D

 58 60  0  0  1  0  0  0  0  0999 V2000
  130.3635  128.6479  151.8502 C   0  0  0  0  0  0  0  0  0  0  0  0
  131.4341  129.6926  152.1732 C   0  0  0  0  0  0  0  0  0  0  0  0
  131.0393  130.4489  153.4155 C   0  0  0  0  0  0  0  0  0  0  0  0
  131.4395  129.9905  154.6576 C   0  0  0  0  0  0  0  0  0  0  0  0
  131.0808  130.6789  155.7986 C   0  0  0  0  0  0  0  0  0  0  0  0
  130.3136  131.8381  155.6977 C   0  0  0  0  0  0  0  0  0  0  0  0
  129.9249  132.5824  156.9205 C   0  0  0  0  0  0  0  0  0  0  0  0
  129.1840  132.0981  157.9479 C   0  0  0  0  0  0  0  0  0  0  0  0
  129.0630  133.1133  158.8653 N   0  0  0  0  0  0  0  0  0  0  0  0
  128.5871  133.0711  159.7095 H   0  0  0  0  0  0  0  0  0  0  0  0
  129.7341  134.1893  158.3714 C   0  0  0  0  0  0  0  0  0  0  0  0
  129.8544  135.4200  158.9938 N   0  0  0  0  0  0  0  0  0  0  0  0
  129.2274  135.6453  160.2985 C   0  0  1  0  0  0  0  0  0  0  0  0
  129.3495  134.7572  160.9185 H   0  0  0  0  0  0  0  0  0  0  0  0
  129.8817  136.8232  160.9736 C   0  0  0  0  0  0  0  0  0  0  0  0
  131.1825  136.7961  161.2430 C   0  0  0  0  0  0  0  0  0  0  0  0
  132.0098  135.6243  160.8970 C   0  0  0  0  0  0  0  0  0  0  0  0
  133.3280  135.6894  160.9630 C   0  0  0  0  0  0  0  0  0  0  0  0
  134.0706  136.9199  161.3912 C   0  0  0  0  0  0  0  0  0  0  0  0
  133.2159  138.1732  161.2090 C   0  0  2  0  0  0  0  0  0  0  0  0
  133.9360  139.3769  161.8199 C   0  0  0  0  0  0  0  0  0  0  0  0
  133.0788  140.6309  161.6366 C   0  0  0  0  0  0  0  0  0  0  0  0
  131.8696  137.9700  161.9103 C   0  0  0  0  0  0  0  0  0  0  0  0
  127.7369  135.9315  160.1055 C   0  0  0  0  0  0  0  0  0  0  0  0
  126.9943  135.6761  161.4185 C   0  0  0  0  0  0  0  0  0  0  0  0
  127.2374  133.8003  161.9548 Br  0  0  0  0  0  0  0  0  0  0  0  0
  130.2430  133.8699  157.2064 N   0  0  0  0  0  0  0  0  0  0  0  0
  130.7658  134.4592  156.6405 H   0  0  0  0  0  0  0  0  0  0  0  0
  129.9082  132.2922  154.4440 C   0  0  0  0  0  0  0  0  0  0  0  0
  130.2771  131.5986  153.3093 C   0  0  0  0  0  0  0  0  0  0  0  0
  129.4081  129.1458  151.6842 H   0  0  0  0  0  0  0  0  0  0  0  0
  130.6490  128.1010  150.9516 H   0  0  0  0  0  0  0  0  0  0  0  0
  130.2707  127.9527  152.6845 H   0  0  0  0  0  0  0  0  0  0  0  0
  131.5264  130.3878  151.3387 H   0  0  0  0  0  0  0  0  0  0  0  0
  132.3889  129.1946  152.3392 H   0  0  0  0  0  0  0  0  0  0  0  0
  132.0339  129.0921  154.7346 H   0  0  0  0  0  0  0  0  0  0  0  0
  131.3942  130.3202  156.7680 H   0  0  0  0  0  0  0  0  0  0  0  0
  128.7682  131.1047  158.0290 H   0  0  0  0  0  0  0  0  0  0  0  0
  130.3538  136.1331  158.5660 H   0  0  0  0  0  0  0  0  0  0  0  0
  129.2933  137.6891  161.2384 H   0  0  0  0  0  0  0  0  0  0  0  0
  131.5339  134.7057  160.5870 H   0  0  0  0  0  0  0  0  0  0  0  0
  133.8990  134.8127  160.6949 H   0  0  0  0  0  0  0  0  0  0  0  0
  134.3449  136.8242  162.4418 H   0  0  0  0  0  0  0  0  0  0  0  0
  134.9767  137.0165  160.7930 H   0  0  0  0  0  0  0  0  0  0  0  0
  133.0471  138.3481  160.1465 H   0  0  0  0  0  0  0  0  0  0  0  0
  134.0999  139.2011  162.8831 H   0  0  0  0  0  0  0  0  0  0  0  0
  134.8957  139.5171  161.3226 H   0  0  0  0  0  0  0  0  0  0  0  0
  133.5918  141.4885  162.0719 H   0  0  0  0  0  0  0  0  0  0  0  0
  132.9149  140.8067  160.5734 H   0  0  0  0  0  0  0  0  0  0  0  0
  132.1189  140.4909  162.1339 H   0  0  0  0  0  0  0  0  0  0  0  0
  131.2582  138.8663  161.8055 H   0  0  0  0  0  0  0  0  0  0  0  0
  132.0334  137.7529  162.9659 H   0  0  0  0  0  0  0  0  0  0  0  0
  127.6021  136.9715  159.8081 H   0  0  0  0  0  0  0  0  0  0  0  0
  127.3388  135.2774  159.3297 H   0  0  0  0  0  0  0  0  0  0  0  0
  127.3923  136.3304  162.1942 H   0  0  0  0  0  0  0  0  0  0  0  0
  125.9324  135.8799  161.2809 H   0  0  0  0  0  0  0  0  0  0  0  0
  129.3095  133.1872  154.3602 H   0  0  0  0  0  0  0  0  0  0  0  0
  129.9670  131.9518  152.3369 H   0  0  0  0  0  0  0  0  0  0  0  0
  1  2  1  0
  1 31  1  0
  1 32  1  0
  1 33  1  0
  2  3  1  0
  2 34  1  0
  2 35  1  0
  3 30  2  0
  3  4  1  0
  4  5  2  0
  4 36  1  0
  5  6  1  0
  5 37  1  0
  6  7  1  0
  6 29  2  0
  7 27  1  0
  7  8  2  0
  8  9  1  0
  8 38  1  0
  9 10  1  0
  9 11  1  0
 11 12  1  0
 11 27  2  0
 12 13  1  0
 12 39  1  0
 13 14  1  1
 13 15  1  0
 13 24  1  0
 15 16  2  0
 15 40  1  0
 16 23  1  0
 16 17  1  0
 17 18  2  0
 17 41  1  0
 18 19  1  0
 18 42  1  0
 19 20  1  0
 19 43  1  0
 19 44  1  0
 20 21  1  0
 20 23  1  0
 20 45  1  6
 21 22  1  0
 21 46  1  0
 21 47  1  0
 22 48  1  0
 22 49  1  0
 22 50  1  0
 23 51  1  0
 23 52  1  0
 24 25  1  0
 24 53  1  0
 24 54  1  0
 25 26  1  0
 25 55  1  0
 25 56  1  0
 27 28  1  0
 29 30  1  0
 29 57  1  0
 30 58  1  0
M  CHG  1  27   1
M  END
>  <DOCK_score>  (1) 
-55.976501

>  <SMILES>  (1) 
CCc1ccc(-c2c[nH]c(N[C@@H](C=C3C=CCC(CC)C3)CCBr)[nH+]2)cc1

$$$$
