Nc1ccc(-c2c[nH]c(N[C@H](c3ccccc3)c3ccccc3-c3ccccc3)[nH+]2)cc1
     RDKit          3D

 57 61  0  0  1  0  0  0  0  0999 V2000
  131.4549  129.5693  151.1879 N   0  0  0  0  0  0  0  0  0  0  0  0
  131.1452  130.2033  152.3937 C   0  0  0  0  0  0  0  0  0  0  0  0
  130.4066  131.3804  152.3885 C   0  0  0  0  0  0  0  0  0  0  0  0
  130.0997  132.0082  153.5773 C   0  0  0  0  0  0  0  0  0  0  0  0
  130.5305  131.4609  154.7848 C   0  0  0  0  0  0  0  0  0  0  0  0
  130.2013  132.1345  156.0651 C   0  0  0  0  0  0  0  0  0  0  0  0
  129.4874  131.6009  157.0869 C   0  0  0  0  0  0  0  0  0  0  0  0
  129.4207  132.5597  158.0699 N   0  0  0  0  0  0  0  0  0  0  0  0
  128.9747  132.4738  158.9270 H   0  0  0  0  0  0  0  0  0  0  0  0
  130.0965  133.6511  157.6185 C   0  0  0  0  0  0  0  0  0  0  0  0
  130.2608  134.8400  158.3086 N   0  0  0  0  0  0  0  0  0  0  0  0
  129.2357  135.2847  159.2560 C   0  0  2  0  0  0  0  0  0  0  0  0
  129.1186  134.5383  160.0416 H   0  0  0  0  0  0  0  0  0  0  0  0
  127.9257  135.4622  158.5323 C   0  0  0  0  0  0  0  0  0  0  0  0
  126.7334  135.2586  159.2014 C   0  0  0  0  0  0  0  0  0  0  0  0
  125.5319  135.4256  158.5387 C   0  0  0  0  0  0  0  0  0  0  0  0
  125.5227  135.7869  157.2044 C   0  0  0  0  0  0  0  0  0  0  0  0
  126.7151  135.9858  156.5340 C   0  0  0  0  0  0  0  0  0  0  0  0
  127.9167  135.8230  157.1979 C   0  0  0  0  0  0  0  0  0  0  0  0
  129.6530  136.5971  159.8681 C   0  0  0  0  0  0  0  0  0  0  0  0
  129.8637  137.6993  159.0643 C   0  0  0  0  0  0  0  0  0  0  0  0
  130.2467  138.9041  159.6248 C   0  0  0  0  0  0  0  0  0  0  0  0
  130.4208  139.0121  160.9930 C   0  0  0  0  0  0  0  0  0  0  0  0
  130.2127  137.9167  161.8061 C   0  0  0  0  0  0  0  0  0  0  0  0
  129.8213  136.7016  161.2472 C   0  0  0  0  0  0  0  0  0  0  0  0
  129.5902  135.5219  162.1172 C   0  0  0  0  0  0  0  0  0  0  0  0
  128.3249  135.2826  162.6493 C   0  0  0  0  0  0  0  0  0  0  0  0
  128.1141  134.1803  163.4527 C   0  0  0  0  0  0  0  0  0  0  0  0
  129.1593  133.3209  163.7401 C   0  0  0  0  0  0  0  0  0  0  0  0
  130.4186  133.5569  163.2192 C   0  0  0  0  0  0  0  0  0  0  0  0
  130.6391  134.6527  162.4096 C   0  0  0  0  0  0  0  0  0  0  0  0
  130.5614  133.3932  156.4204 N   0  0  0  0  0  0  0  0  0  0  0  0
  131.0802  134.0048  155.8749 H   0  0  0  0  0  0  0  0  0  0  0  0
  131.2758  130.2830  154.7872 C   0  0  0  0  0  0  0  0  0  0  0  0
  131.5756  129.6556  153.5965 C   0  0  0  0  0  0  0  0  0  0  0  0
  131.1542  129.9497  150.3484 H   0  0  0  0  0  0  0  0  0  0  0  0
  131.9698  128.7468  151.1910 H   0  0  0  0  0  0  0  0  0  0  0  0
  130.0735  131.8043  151.4528 H   0  0  0  0  0  0  0  0  0  0  0  0
  129.5256  132.9230  153.5727 H   0  0  0  0  0  0  0  0  0  0  0  0
  129.0540  130.6123  157.1216 H   0  0  0  0  0  0  0  0  0  0  0  0
  131.0546  135.3785  158.1647 H   0  0  0  0  0  0  0  0  0  0  0  0
  126.7406  134.9724  160.2427 H   0  0  0  0  0  0  0  0  0  0  0  0
  124.6001  135.2706  159.0624 H   0  0  0  0  0  0  0  0  0  0  0  0
  124.5841  135.9141  156.6858 H   0  0  0  0  0  0  0  0  0  0  0  0
  126.7080  136.2681  155.4916 H   0  0  0  0  0  0  0  0  0  0  0  0
  128.8484  135.9780  156.6740 H   0  0  0  0  0  0  0  0  0  0  0  0
  129.7296  137.6204  157.9955 H   0  0  0  0  0  0  0  0  0  0  0  0
  130.4108  139.7638  158.9919 H   0  0  0  0  0  0  0  0  0  0  0  0
  130.7203  139.9554  161.4254 H   0  0  0  0  0  0  0  0  0  0  0  0
  130.3493  138.0020  162.8739 H   0  0  0  0  0  0  0  0  0  0  0  0
  127.5094  135.9557  162.4294 H   0  0  0  0  0  0  0  0  0  0  0  0
  127.1328  133.9914  163.8621 H   0  0  0  0  0  0  0  0  0  0  0  0
  128.9911  132.4623  164.3732 H   0  0  0  0  0  0  0  0  0  0  0  0
  131.2311  132.8825  163.4468 H   0  0  0  0  0  0  0  0  0  0  0  0
  131.6229  134.8357  162.0032 H   0  0  0  0  0  0  0  0  0  0  0  0
  131.6147  129.8598  155.7213 H   0  0  0  0  0  0  0  0  0  0  0  0
  132.1490  128.7403  153.5982 H   0  0  0  0  0  0  0  0  0  0  0  0
  1  2  1  0
  1 36  1  0
  1 37  1  0
  2 35  2  0
  2  3  1  0
  3  4  2  0
  3 38  1  0
  4  5  1  0
  4 39  1  0
  5  6  1  0
  5 34  2  0
  6 32  1  0
  6  7  2  0
  7  8  1  0
  7 40  1  0
  8  9  1  0
  8 10  1  0
 10 11  1  0
 10 32  2  0
 11 12  1  0
 11 41  1  0
 12 13  1  1
 12 14  1  0
 12 20  1  0
 14 19  1  0
 14 15  2  0
 15 16  1  0
 15 42  1  0
 16 17  2  0
 16 43  1  0
 17 18  1  0
 17 44  1  0
 18 19  2  0
 18 45  1  0
 19 46  1  0
 20 25  1  0
 20 21  2  0
 21 22  1  0
 21 47  1  0
 22 23  2  0
 22 48  1  0
 23 24  1  0
 23 49  1  0
 24 25  2  0
 24 50  1  0
 25 26  1  0
 26 31  1  0
 26 27  2  0
 27 28  1  0
 27 51  1  0
 28 29  2  0
 28 52  1  0
 29 30  1  0
 29 53  1  0
 30 31  2  0
 30 54  1  0
 31 55  1  0
 32 33  1  0
 34 35  1  0
 34 56  1  0
 35 57  1  0
M  CHG  1  32   1
M  END
>  <DOCK_score>  (1) 
-67.108528

>  <SMILES>  (1) 
Nc1ccc(-c2c[nH]c(N[C@H](c3ccccc3)c3ccccc3-c3ccccc3)[nH+]2)cc1

$$$$
