Oc1ccc2c(c1)C([NH+]1CCC[C@@H]1Cc1ccncc1F)c1cc(O)ccc1-2
     RDKit          3D

 50 54  0  0  1  0  0  0  0  0999 V2000
  131.7022  130.9106  155.6857 O   0  0  0  0  0  0  0  0  0  0  0  0
  130.7272  131.2707  156.5612 C   0  0  0  0  0  0  0  0  0  0  0  0
  130.1766  130.3246  157.4148 C   0  0  0  0  0  0  0  0  0  0  0  0
  129.1874  130.6855  158.3042 C   0  0  0  0  0  0  0  0  0  0  0  0
  128.7355  132.0063  158.3491 C   0  0  0  0  0  0  0  0  0  0  0  0
  129.2927  132.9500  157.4898 C   0  0  0  0  0  0  0  0  0  0  0  0
  130.2814  132.5852  156.6022 C   0  0  0  0  0  0  0  0  0  0  0  0
  128.6152  134.2704  157.7636 C   0  0  0  0  0  0  0  0  0  0  0  0
  129.6026  135.2628  158.2087 N   0  0  1  0  0  0  0  0  0  0  0  0
  130.4549  135.1690  157.6767 H   0  0  0  0  0  0  0  0  0  0  0  0
  129.0558  136.6288  158.0592 C   0  0  0  0  0  0  0  0  0  0  0  0
  129.5908  137.4611  159.2393 C   0  0  0  0  0  0  0  0  0  0  0  0
  130.4416  136.4771  160.0745 C   0  0  0  0  0  0  0  0  0  0  0  0
  129.8807  135.0942  159.6579 C   0  0  2  0  0  0  0  0  0  0  0  0
  128.9630  134.8714  160.2024 H   0  0  0  0  0  0  0  0  0  0  0  0
  130.9239  133.9980  159.8838 C   0  0  0  0  0  0  0  0  0  0  0  0
  131.2413  133.9019  161.3538 C   0  0  0  0  0  0  0  0  0  0  0  0
  130.5163  133.0601  162.1830 C   0  0  0  0  0  0  0  0  0  0  0  0
  130.8384  132.9949  163.5253 C   0  0  0  0  0  0  0  0  0  0  0  0
  131.8157  133.7277  164.0220 N   0  0  0  0  0  0  0  0  0  0  0  0
  132.5245  134.5431  163.2664 C   0  0  0  0  0  0  0  0  0  0  0  0
  132.2632  134.6585  161.9115 C   0  0  0  0  0  0  0  0  0  0  0  0
  132.9931  135.4957  161.1424 F   0  0  0  0  0  0  0  0  0  0  0  0
  127.6127  134.0068  158.8604 C   0  0  0  0  0  0  0  0  0  0  0  0
  126.7167  134.8275  159.5101 C   0  0  0  0  0  0  0  0  0  0  0  0
  125.8952  134.3101  160.5029 C   0  0  0  0  0  0  0  0  0  0  0  0
  125.0118  135.1194  161.1443 O   0  0  0  0  0  0  0  0  0  0  0  0
  125.9771  132.9660  160.8405 C   0  0  0  0  0  0  0  0  0  0  0  0
  126.8754  132.1392  160.1930 C   0  0  0  0  0  0  0  0  0  0  0  0
  127.7021  132.6559  159.1930 C   0  0  0  0  0  0  0  0  0  0  0  0
  132.0228  131.6370  155.1336 H   0  0  0  0  0  0  0  0  0  0  0  0
  130.5246  129.3027  157.3822 H   0  0  0  0  0  0  0  0  0  0  0  0
  128.7616  129.9466  158.9668 H   0  0  0  0  0  0  0  0  0  0  0  0
  130.7096  133.3215  155.9382 H   0  0  0  0  0  0  0  0  0  0  0  0
  128.1063  134.6240  156.8669 H   0  0  0  0  0  0  0  0  0  0  0  0
  127.9666  136.5983  158.0900 H   0  0  0  0  0  0  0  0  0  0  0  0
  129.3913  137.0621  157.1170 H   0  0  0  0  0  0  0  0  0  0  0  0
  128.7640  137.8468  159.8357 H   0  0  0  0  0  0  0  0  0  0  0  0
  130.2096  138.2808  158.8742 H   0  0  0  0  0  0  0  0  0  0  0  0
  131.4963  136.5605  159.8122 H   0  0  0  0  0  0  0  0  0  0  0  0
  130.2935  136.6481  161.1408 H   0  0  0  0  0  0  0  0  0  0  0  0
  130.5298  133.0438  159.5340 H   0  0  0  0  0  0  0  0  0  0  0  0
  131.8315  134.2407  159.3312 H   0  0  0  0  0  0  0  0  0  0  0  0
  129.7117  132.4601  161.7841 H   0  0  0  0  0  0  0  0  0  0  0  0
  130.2798  132.3388  164.1765 H   0  0  0  0  0  0  0  0  0  0  0  0
  133.3175  135.1277  163.7090 H   0  0  0  0  0  0  0  0  0  0  0  0
  126.6536  135.8731  159.2473 H   0  0  0  0  0  0  0  0  0  0  0  0
  125.0280  136.0375  160.8414 H   0  0  0  0  0  0  0  0  0  0  0  0
  125.3373  132.5649  161.6127 H   0  0  0  0  0  0  0  0  0  0  0  0
  126.9364  131.0938  160.4572 H   0  0  0  0  0  0  0  0  0  0  0  0
  1  2  1  0
  1 31  1  0
  2  7  2  0
  2  3  1  0
  3  4  2  0
  3 32  1  0
  4  5  1  0
  4 33  1  0
  5 30  1  0
  5  6  2  0
  6  7  1  0
  6  8  1  0
  7 34  1  0
  8  9  1  0
  8 24  1  0
  8 35  1  0
  9 10  1  6
  9 14  1  0
  9 11  1  0
 11 12  1  0
 11 36  1  0
 11 37  1  0
 12 13  1  0
 12 38  1  0
 12 39  1  0
 13 14  1  0
 13 40  1  0
 13 41  1  0
 14 15  1  1
 14 16  1  0
 16 17  1  0
 16 42  1  0
 16 43  1  0
 17 22  1  0
 17 18  2  0
 18 19  1  0
 18 44  1  0
 19 20  2  0
 19 45  1  0
 20 21  1  0
 21 22  2  0
 21 46  1  0
 22 23  1  0
 24 30  2  0
 24 25  1  0
 25 26  2  0
 25 47  1  0
 26 27  1  0
 26 28  1  0
 27 48  1  0
 28 29  2  0
 28 49  1  0
 29 30  1  0
 29 50  1  0
M  CHG  1   9   1
M  END
>  <DOCK_score>  (1) 
-46.487755

>  <SMILES>  (1) 
Oc1ccc2c(c1)C([NH+]1CCC[C@@H]1Cc1ccncc1F)c1cc(O)ccc1-2

$$$$
