Cc1c[nH]c(Nc2ccc(Nc3ccc(-c4ccccc4)cc3)cc2)[nH+]1
     RDKit          3D

 47 50  0  0  1  0  0  0  0  0999 V2000
  130.4591  132.1264  154.7848 C   0  0  0  0  0  0  0  0  0  0  0  0
  130.0506  132.6572  156.1347 C   0  0  0  0  0  0  0  0  0  0  0  0
  129.1770  132.0785  156.9764 C   0  0  0  0  0  0  0  0  0  0  0  0
  129.0941  132.8871  158.0871 N   0  0  0  0  0  0  0  0  0  0  0  0
  128.5438  132.7355  158.8713 H   0  0  0  0  0  0  0  0  0  0  0  0
  129.9303  133.9395  157.8763 C   0  0  0  0  0  0  0  0  0  0  0  0
  130.1462  134.9910  158.7525 N   0  0  0  0  0  0  0  0  0  0  0  0
  129.1243  135.4040  159.6160 C   0  0  0  0  0  0  0  0  0  0  0  0
  129.4394  135.9573  160.8503 C   0  0  0  0  0  0  0  0  0  0  0  0
  128.4318  136.3645  161.7018 C   0  0  0  0  0  0  0  0  0  0  0  0
  127.1029  136.2212  161.3238 C   0  0  0  0  0  0  0  0  0  0  0  0
  126.0814  136.6336  162.1871 N   0  0  0  0  0  0  0  0  0  0  0  0
  126.2759  136.5917  163.5686 C   0  0  0  0  0  0  0  0  0  0  0  0
  126.1899  137.7600  164.3176 C   0  0  0  0  0  0  0  0  0  0  0  0
  126.3821  137.7206  165.6820 C   0  0  0  0  0  0  0  0  0  0  0  0
  126.6625  136.5083  166.3109 C   0  0  0  0  0  0  0  0  0  0  0  0
  126.8696  136.4637  167.7790 C   0  0  0  0  0  0  0  0  0  0  0  0
  126.5351  135.3177  168.4980 C   0  0  0  0  0  0  0  0  0  0  0  0
  126.7296  135.2820  169.8640 C   0  0  0  0  0  0  0  0  0  0  0  0
  127.2553  136.3809  170.5193 C   0  0  0  0  0  0  0  0  0  0  0  0
  127.5838  137.5231  169.8115 C   0  0  0  0  0  0  0  0  0  0  0  0
  127.3988  137.5680  168.4446 C   0  0  0  0  0  0  0  0  0  0  0  0
  126.7534  135.3389  165.5573 C   0  0  0  0  0  0  0  0  0  0  0  0
  126.5550  135.3816  164.1939 C   0  0  0  0  0  0  0  0  0  0  0  0
  126.7878  135.6634  160.0914 C   0  0  0  0  0  0  0  0  0  0  0  0
  127.7955  135.2606  159.2380 C   0  0  0  0  0  0  0  0  0  0  0  0
  130.4933  133.7926  156.7003 N   0  0  0  0  0  0  0  0  0  0  0  0
  131.1305  134.4063  156.3025 H   0  0  0  0  0  0  0  0  0  0  0  0
  129.7888  132.5209  154.0212 H   0  0  0  0  0  0  0  0  0  0  0  0
  131.4810  132.4363  154.5665 H   0  0  0  0  0  0  0  0  0  0  0  0
  130.4029  131.0378  154.7902 H   0  0  0  0  0  0  0  0  0  0  0  0
  128.6424  131.1545  156.8127 H   0  0  0  0  0  0  0  0  0  0  0  0
  131.0054  135.4410  158.7677 H   0  0  0  0  0  0  0  0  0  0  0  0
  130.4726  136.0688  161.1442 H   0  0  0  0  0  0  0  0  0  0  0  0
  128.6769  136.7948  162.6616 H   0  0  0  0  0  0  0  0  0  0  0  0
  125.2383  136.9487  161.8254 H   0  0  0  0  0  0  0  0  0  0  0  0
  125.9728  138.6988  163.8301 H   0  0  0  0  0  0  0  0  0  0  0  0
  126.3159  138.6283  166.2634 H   0  0  0  0  0  0  0  0  0  0  0  0
  126.1244  134.4593  167.9875 H   0  0  0  0  0  0  0  0  0  0  0  0
  126.4712  134.3943  170.4221 H   0  0  0  0  0  0  0  0  0  0  0  0
  127.4059  136.3486  171.5883 H   0  0  0  0  0  0  0  0  0  0  0  0
  127.9893  138.3799  170.3291 H   0  0  0  0  0  0  0  0  0  0  0  0
  127.6598  138.4586  167.8922 H   0  0  0  0  0  0  0  0  0  0  0  0
  126.9750  134.3996  166.0421 H   0  0  0  0  0  0  0  0  0  0  0  0
  126.6215  134.4752  163.6103 H   0  0  0  0  0  0  0  0  0  0  0  0
  125.7544  135.5478  159.7993 H   0  0  0  0  0  0  0  0  0  0  0  0
  127.5505  134.8301  158.2784 H   0  0  0  0  0  0  0  0  0  0  0  0
  1  2  1  0
  1 29  1  0
  1 30  1  0
  1 31  1  0
  2 27  1  0
  2  3  2  0
  3  4  1  0
  3 32  1  0
  4  5  1  0
  4  6  1  0
  6  7  1  0
  6 27  2  0
  7  8  1  0
  7 33  1  0
  8 26  1  0
  8  9  2  0
  9 10  1  0
  9 34  1  0
 10 11  2  0
 10 35  1  0
 11 12  1  0
 11 25  1  0
 12 13  1  0
 12 36  1  0
 13 24  1  0
 13 14  2  0
 14 15  1  0
 14 37  1  0
 15 16  2  0
 15 38  1  0
 16 17  1  0
 16 23  1  0
 17 22  1  0
 17 18  2  0
 18 19  1  0
 18 39  1  0
 19 20  2  0
 19 40  1  0
 20 21  1  0
 20 41  1  0
 21 22  2  0
 21 42  1  0
 22 43  1  0
 23 24  2  0
 23 44  1  0
 24 45  1  0
 25 26  2  0
 25 46  1  0
 26 47  1  0
 27 28  1  0
M  CHG  1  27   1
M  END
>  <DOCK_score>  (1) 
-50.334572

>  <SMILES>  (1) 
Cc1c[nH]c(Nc2ccc(Nc3ccc(-c4ccccc4)cc3)cc2)[nH+]1

$$$$
