CCc1ccc(-c2c[nH]c(N[C@@H](Sc3ncnn4cccc34)c3ccccc3)[nH+]2)cc1
     RDKit          3D

 54 58  0  0  1  0  0  0  0  0999 V2000
  130.1473  129.2069  151.5210 C   0  0  0  0  0  0  0  0  0  0  0  0
  131.3793  129.3602  152.4143 C   0  0  0  0  0  0  0  0  0  0  0  0
  131.0110  130.1425  153.6485 C   0  0  0  0  0  0  0  0  0  0  0  0
  130.0066  131.0912  153.5885 C   0  0  0  0  0  0  0  0  0  0  0  0
  129.6611  131.8067  154.7169 C   0  0  0  0  0  0  0  0  0  0  0  0
  130.3345  131.5799  155.9159 C   0  0  0  0  0  0  0  0  0  0  0  0
  129.9715  132.3498  157.1308 C   0  0  0  0  0  0  0  0  0  0  0  0
  129.5294  131.8298  158.3027 C   0  0  0  0  0  0  0  0  0  0  0  0
  129.3136  132.8878  159.1519 N   0  0  0  0  0  0  0  0  0  0  0  0
  128.9941  132.8346  160.0662 H   0  0  0  0  0  0  0  0  0  0  0  0
  129.6305  134.0243  158.4736 C   0  0  0  0  0  0  0  0  0  0  0  0
  129.5510  135.3118  158.9760 N   0  0  0  0  0  0  0  0  0  0  0  0
  129.0933  135.5352  160.3496 C   0  0  1  0  0  0  0  0  0  0  0  0
  129.5129  134.7690  161.0015 H   0  0  0  0  0  0  0  0  0  0  0  0
  129.6380  137.1681  160.9090 S   0  0  0  0  0  0  0  0  0  0  0  0
  131.3832  136.9767  160.7580 C   0  0  0  0  0  0  0  0  0  0  0  0
  131.8974  135.8363  160.3251 N   0  0  0  0  0  0  0  0  0  0  0  0
  133.2123  135.6665  160.2016 C   0  0  0  0  0  0  0  0  0  0  0  0
  134.0677  136.6063  160.4969 N   0  0  0  0  0  0  0  0  0  0  0  0
  133.6137  137.8481  160.9633 N   0  0  0  0  0  0  0  0  0  0  0  0
  134.2436  138.9775  161.3374 C   0  0  0  0  0  0  0  0  0  0  0  0
  133.3174  139.9047  161.6981 C   0  0  0  0  0  0  0  0  0  0  0  0
  132.0543  139.3277  161.5555 C   0  0  0  0  0  0  0  0  0  0  0  0
  132.2519  138.0417  161.0923 C   0  0  0  0  0  0  0  0  0  0  0  0
  127.5886  135.4647  160.3954 C   0  0  0  0  0  0  0  0  0  0  0  0
  126.9519  135.0236  161.5403 C   0  0  0  0  0  0  0  0  0  0  0  0
  125.5715  134.9632  161.5838 C   0  0  0  0  0  0  0  0  0  0  0  0
  124.8282  135.3352  160.4791 C   0  0  0  0  0  0  0  0  0  0  0  0
  125.4651  135.7713  159.3324 C   0  0  0  0  0  0  0  0  0  0  0  0
  126.8454  135.8359  159.2904 C   0  0  0  0  0  0  0  0  0  0  0  0
  130.0287  133.6983  157.2682 N   0  0  0  0  0  0  0  0  0  0  0  0
  130.3161  134.3218  156.5830 H   0  0  0  0  0  0  0  0  0  0  0  0
  131.3498  130.6265  155.9694 C   0  0  0  0  0  0  0  0  0  0  0  0
  131.6829  129.9128  154.8362 C   0  0  0  0  0  0  0  0  0  0  0  0
  129.3660  128.6781  152.0667 H   0  0  0  0  0  0  0  0  0  0  0  0
  129.7843  130.1930  151.2310 H   0  0  0  0  0  0  0  0  0  0  0  0
  130.4138  128.6409  150.6283 H   0  0  0  0  0  0  0  0  0  0  0  0
  131.7428  128.3736  152.7047 H   0  0  0  0  0  0  0  0  0  0  0  0
  132.1611  129.8885  151.8690 H   0  0  0  0  0  0  0  0  0  0  0  0
  129.4888  131.2695  152.6577 H   0  0  0  0  0  0  0  0  0  0  0  0
  128.8734  132.5442  154.6699 H   0  0  0  0  0  0  0  0  0  0  0  0
  129.3759  130.7843  158.5254 H   0  0  0  0  0  0  0  0  0  0  0  0
  129.7986  136.0661  158.4185 H   0  0  0  0  0  0  0  0  0  0  0  0
  133.5838  134.7175  159.8440 H   0  0  0  0  0  0  0  0  0  0  0  0
  135.3132  139.1267  161.3398 H   0  0  0  0  0  0  0  0  0  0  0  0
  133.5228  140.9075  162.0425 H   0  0  0  0  0  0  0  0  0  0  0  0
  131.1048  139.7967  161.7671 H   0  0  0  0  0  0  0  0  0  0  0  0
  127.5326  134.7294  162.4020 H   0  0  0  0  0  0  0  0  0  0  0  0
  125.0737  134.6227  162.4797 H   0  0  0  0  0  0  0  0  0  0  0  0
  123.7499  135.2853  160.5122 H   0  0  0  0  0  0  0  0  0  0  0  0
  124.8845  136.0618  158.4695 H   0  0  0  0  0  0  0  0  0  0  0  0
  127.3430  136.1767  158.3946 H   0  0  0  0  0  0  0  0  0  0  0  0
  131.8750  130.4468  156.8959 H   0  0  0  0  0  0  0  0  0  0  0  0
  132.4697  129.1741  154.8764 H   0  0  0  0  0  0  0  0  0  0  0  0
  1  2  1  0
  1 35  1  0
  1 36  1  0
  1 37  1  0
  2  3  1  0
  2 38  1  0
  2 39  1  0
  3 34  2  0
  3  4  1  0
  4  5  2  0
  4 40  1  0
  5  6  1  0
  5 41  1  0
  6  7  1  0
  6 33  2  0
  7 31  1  0
  7  8  2  0
  8  9  1  0
  8 42  1  0
  9 10  1  0
  9 11  1  0
 11 12  1  0
 11 31  2  0
 12 13  1  0
 12 43  1  0
 13 14  1  1
 13 15  1  0
 13 25  1  0
 15 16  1  0
 16 24  1  0
 16 17  2  0
 17 18  1  0
 18 19  2  0
 18 44  1  0
 19 20  1  0
 20 24  1  0
 20 21  1  0
 21 22  2  0
 21 45  1  0
 22 23  1  0
 22 46  1  0
 23 24  2  0
 23 47  1  0
 25 30  1  0
 25 26  2  0
 26 27  1  0
 26 48  1  0
 27 28  2  0
 27 49  1  0
 28 29  1  0
 28 50  1  0
 29 30  2  0
 29 51  1  0
 30 52  1  0
 31 32  1  0
 33 34  1  0
 33 53  1  0
 34 54  1  0
M  CHG  1  31   1
M  END
>  <DOCK_score>  (1) 
-56.769337

>  <SMILES>  (1) 
CCc1ccc(-c2c[nH]c(N[C@@H](Sc3ncnn4cccc34)c3ccccc3)[nH+]2)cc1

$$$$
