Cc1ccccc1C(Nc1[nH]cc(C2CC2)[nH+]1)[C@H]1CC(O)C1(C)C
     RDKit          3D

 52 55  0  0  1  0  0  0  0  0999 V2000
  132.1266  133.5430  160.8210 C   0  0  0  0  0  0  0  0  0  0  0  0
  132.2553  135.0331  161.0059 C   0  0  0  0  0  0  0  0  0  0  0  0
  133.4731  135.5829  161.3607 C   0  0  0  0  0  0  0  0  0  0  0  0
  133.5913  136.9496  161.5299 C   0  0  0  0  0  0  0  0  0  0  0  0
  132.4915  137.7667  161.3448 C   0  0  0  0  0  0  0  0  0  0  0  0
  131.2741  137.2170  160.9896 C   0  0  0  0  0  0  0  0  0  0  0  0
  131.1547  135.8495  160.8251 C   0  0  0  0  0  0  0  0  0  0  0  0
  129.8260  135.2495  160.4440 C   0  0  2  0  0  0  0  0  0  0  0  0
  129.7167  135.1923  158.9842 N   0  0  0  0  0  0  0  0  0  0  0  0
  129.5462  133.9730  158.3498 C   0  0  0  0  0  0  0  0  0  0  0  0
  128.9204  132.8846  158.8732 N   0  0  0  0  0  0  0  0  0  0  0  0
  128.5145  132.8195  159.7518 H   0  0  0  0  0  0  0  0  0  0  0  0
  128.9701  131.8937  157.9187 C   0  0  0  0  0  0  0  0  0  0  0  0
  129.6238  132.4018  156.8604 C   0  0  0  0  0  0  0  0  0  0  0  0
  129.9229  131.6737  155.5752 C   0  0  0  0  0  0  0  0  0  0  0  0
  131.1333  130.7380  155.5587 C   0  0  0  0  0  0  0  0  0  0  0  0
  131.1885  132.0743  154.8144 C   0  0  0  0  0  0  0  0  0  0  0  0
  129.9660  133.6700  157.1443 N   0  0  0  0  0  0  0  0  0  0  0  0
  130.4474  134.2676  156.5508 H   0  0  0  0  0  0  0  0  0  0  0  0
  128.6958  136.1141  161.0064 C   0  0  1  0  0  0  0  0  0  0  0  0
  128.7186  137.1372  160.6309 H   0  0  0  0  0  0  0  0  0  0  0  0
  127.3104  135.4529  160.9146 C   0  0  0  0  0  0  0  0  0  0  0  0
  127.0300  136.0286  162.3129 C   0  0  2  0  0  0  0  0  0  0  0  0
  126.4610  137.3392  162.2885 O   0  0  0  0  0  0  0  0  0  0  0  0
  128.5518  136.0219  162.5345 C   0  0  0  0  0  0  0  0  0  0  0  0
  129.0798  134.7116  163.1221 C   0  0  0  0  0  0  0  0  0  0  0  0
  129.0707  137.2564  163.2747 C   0  0  0  0  0  0  0  0  0  0  0  0
  131.8523  133.0815  161.7696 H   0  0  0  0  0  0  0  0  0  0  0  0
  131.3557  133.3342  160.0792 H   0  0  0  0  0  0  0  0  0  0  0  0
  133.0785  133.1355  160.4805 H   0  0  0  0  0  0  0  0  0  0  0  0
  134.3322  134.9447  161.5053 H   0  0  0  0  0  0  0  0  0  0  0  0
  134.5426  137.3792  161.8070 H   0  0  0  0  0  0  0  0  0  0  0  0
  132.5837  138.8346  161.4773 H   0  0  0  0  0  0  0  0  0  0  0  0
  130.4150  137.8553  160.8450 H   0  0  0  0  0  0  0  0  0  0  0  0
  129.7511  134.2423  160.8538 H   0  0  0  0  0  0  0  0  0  0  0  0
  129.7638  136.0083  158.4619 H   0  0  0  0  0  0  0  0  0  0  0  0
  128.5646  130.8965  158.0058 H   0  0  0  0  0  0  0  0  0  0  0  0
  129.0531  131.3819  154.9869 H   0  0  0  0  0  0  0  0  0  0  0  0
  131.7132  130.6488  156.4774 H   0  0  0  0  0  0  0  0  0  0  0  0
  131.0599  129.8306  154.9592 H   0  0  0  0  0  0  0  0  0  0  0  0
  131.1513  132.0457  153.7254 H   0  0  0  0  0  0  0  0  0  0  0  0
  131.8047  132.8646  155.2432 H   0  0  0  0  0  0  0  0  0  0  0  0
  126.6766  135.8736  160.1340 H   0  0  0  0  0  0  0  0  0  0  0  0
  127.3472  134.3638  160.8904 H   0  0  0  0  0  0  0  0  0  0  0  0
  126.4902  135.3449  162.9679 H   0  0  0  0  0  0  0  0  0  0  0  0
  125.5040  137.3500  162.1494 H   0  0  0  0  0  0  0  0  0  0  0  0
  130.1524  134.6390  162.9426 H   0  0  0  0  0  0  0  0  0  0  0  0
  128.8886  134.6913  164.1950 H   0  0  0  0  0  0  0  0  0  0  0  0
  128.5741  133.8708  162.6471 H   0  0  0  0  0  0  0  0  0  0  0  0
  128.5155  138.1358  162.9481 H   0  0  0  0  0  0  0  0  0  0  0  0
  128.9364  137.1199  164.3478 H   0  0  0  0  0  0  0  0  0  0  0  0
  130.1295  137.3931  163.0555 H   0  0  0  0  0  0  0  0  0  0  0  0
  1  2  1  0
  1 28  1  0
  1 29  1  0
  1 30  1  0
  2  7  2  0
  2  3  1  0
  3  4  2  0
  3 31  1  0
  4  5  1  0
  4 32  1  0
  5  6  2  0
  5 33  1  0
  6  7  1  0
  6 34  1  0
  7  8  1  0
  8  9  1  0
  8 20  1  0
  8 35  1  1
  9 36  1  0
 10  9  1  0
 10 18  2  0
 10 11  1  0
 11 12  1  0
 11 13  1  0
 13 14  2  0
 13 37  1  0
 14 15  1  0
 14 18  1  0
 15 17  1  0
 15 16  1  0
 15 38  1  0
 16 17  1  0
 16 39  1  0
 16 40  1  0
 17 41  1  0
 17 42  1  0
 18 19  1  0
 20 21  1  1
 20 25  1  0
 20 22  1  0
 22 23  1  0
 22 43  1  0
 22 44  1  0
 23 24  1  0
 23 25  1  0
 23 45  1  1
 24 46  1  0
 25 26  1  0
 25 27  1  0
 26 47  1  0
 26 48  1  0
 26 49  1  0
 27 50  1  0
 27 51  1  0
 27 52  1  0
M  CHG  1  18   1
M  END
>  <DOCK_score>  (1) 
-43.827812

>  <SMILES>  (1) 
Cc1ccccc1C(Nc1[nH]cc(C2CC2)[nH+]1)[C@H]1CC(O)C1(C)C

$$$$
