Cc1ccc2c(C[C@H]([NH2+]Cc3cccc4c3NC(=O)CO4)C3=CC(=O)OC3=O)c[nH]c2c1
     RDKit          3D

 54 58  0  0  1  0  0  0  0  0999 V2000
  128.5823  140.6350  165.2788 C   0  0  0  0  0  0  0  0  0  0  0  0
  128.6136  139.4761  164.3158 C   0  0  0  0  0  0  0  0  0  0  0  0
  129.8339  138.9739  163.8844 C   0  0  0  0  0  0  0  0  0  0  0  0
  129.8828  137.9242  163.0115 C   0  0  0  0  0  0  0  0  0  0  0  0
  128.6963  137.3509  162.5495 C   0  0  0  0  0  0  0  0  0  0  0  0
  128.3864  136.2474  161.6373 C   0  0  0  0  0  0  0  0  0  0  0  0
  129.3806  135.3817  160.9072 C   0  0  0  0  0  0  0  0  0  0  0  0
  129.7041  136.0099  159.5502 C   0  0  2  0  0  0  0  0  0  0  0  0
  128.7927  136.4148  159.1106 H   0  0  0  0  0  0  0  0  0  0  0  0
  130.2652  134.9864  158.6581 N   0  0  0  0  0  0  0  0  0  0  0  0
  130.8911  134.3917  159.1803 H   0  0  0  0  0  0  0  0  0  0  0  0
  130.7729  135.4343  157.9098 H   0  0  0  0  0  0  0  0  0  0  0  0
  129.1761  134.1771  158.0953 C   0  0  0  0  0  0  0  0  0  0  0  0
  129.7517  133.1272  157.1801 C   0  0  0  0  0  0  0  0  0  0  0  0
  129.9361  133.4032  155.8373 C   0  0  0  0  0  0  0  0  0  0  0  0
  130.4635  132.4415  154.9958 C   0  0  0  0  0  0  0  0  0  0  0  0
  130.8116  131.1972  155.4906 C   0  0  0  0  0  0  0  0  0  0  0  0
  130.6308  130.9140  156.8327 C   0  0  0  0  0  0  0  0  0  0  0  0
  130.1028  131.8855  157.6823 C   0  0  0  0  0  0  0  0  0  0  0  0
  129.9177  131.5827  159.0388 N   0  0  0  0  0  0  0  0  0  0  0  0
  130.5415  130.5029  159.5581 C   0  0  0  0  0  0  0  0  0  0  0  0
  130.3755  130.2051  160.7222 O   0  0  0  0  0  0  0  0  0  0  0  0
  131.4444  129.6692  158.6850 C   0  0  0  0  0  0  0  0  0  0  0  0
  130.9689  129.6971  157.3366 O   0  0  0  0  0  0  0  0  0  0  0  0
  130.7077  137.1186  159.7364 C   0  0  0  0  0  0  0  0  0  0  0  0
  130.5373  138.4141  159.4206 C   0  0  0  0  0  0  0  0  0  0  0  0
  131.7870  139.1131  159.7857 C   0  0  0  0  0  0  0  0  0  0  0  0
  132.0031  140.2995  159.6485 O   0  0  0  0  0  0  0  0  0  0  0  0
  132.6484  138.2072  160.2936 O   0  0  0  0  0  0  0  0  0  0  0  0
  132.0696  136.9884  160.2951 C   0  0  0  0  0  0  0  0  0  0  0  0
  132.5803  135.9602  160.6888 O   0  0  0  0  0  0  0  0  0  0  0  0
  127.0488  136.1499  161.5796 C   0  0  0  0  0  0  0  0  0  0  0  0
  126.4767  137.1040  162.3763 N   0  0  0  0  0  0  0  0  0  0  0  0
  125.5226  137.2302  162.4971 H   0  0  0  0  0  0  0  0  0  0  0  0
  127.4572  137.8577  162.9815 C   0  0  0  0  0  0  0  0  0  0  0  0
  127.4311  138.9304  163.8672 C   0  0  0  0  0  0  0  0  0  0  0  0
  128.5654  141.5710  164.7203 H   0  0  0  0  0  0  0  0  0  0  0  0
  127.6898  140.5668  165.9006 H   0  0  0  0  0  0  0  0  0  0  0  0
  129.4692  140.6056  165.9116 H   0  0  0  0  0  0  0  0  0  0  0  0
  130.7518  139.4169  164.2415 H   0  0  0  0  0  0  0  0  0  0  0  0
  130.8357  137.5388  162.6801 H   0  0  0  0  0  0  0  0  0  0  0  0
  128.9561  134.3892  160.7562 H   0  0  0  0  0  0  0  0  0  0  0  0
  130.2936  135.3005  161.4969 H   0  0  0  0  0  0  0  0  0  0  0  0
  128.5001  134.8197  157.5312 H   0  0  0  0  0  0  0  0  0  0  0  0
  128.6277  133.6934  158.9037 H   0  0  0  0  0  0  0  0  0  0  0  0
  129.6668  134.3727  155.4449 H   0  0  0  0  0  0  0  0  0  0  0  0
  130.6047  132.6625  153.9482 H   0  0  0  0  0  0  0  0  0  0  0  0
  131.2239  130.4484  154.8305 H   0  0  0  0  0  0  0  0  0  0  0  0
  129.3540  132.1415  159.5965 H   0  0  0  0  0  0  0  0  0  0  0  0
  131.4502  128.6409  159.0465 H   0  0  0  0  0  0  0  0  0  0  0  0
  132.4565  130.0722  158.7212 H   0  0  0  0  0  0  0  0  0  0  0  0
  129.6549  138.8592  158.9847 H   0  0  0  0  0  0  0  0  0  0  0  0
  126.5046  135.4261  160.9911 H   0  0  0  0  0  0  0  0  0  0  0  0
  126.4869  139.3268  164.2102 H   0  0  0  0  0  0  0  0  0  0  0  0
  1  2  1  0
  1 37  1  0
  1 38  1  0
  1 39  1  0
  2 36  2  0
  2  3  1  0
  3  4  2  0
  3 40  1  0
  4  5  1  0
  4 41  1  0
  5 35  2  0
  5  6  1  0
  6  7  1  0
  6 32  2  0
  7  8  1  0
  7 42  1  0
  7 43  1  0
  8  9  1  6
  8 10  1  0
  8 25  1  0
 10 11  1  0
 10 12  1  0
 10 13  1  0
 13 14  1  0
 13 44  1  0
 13 45  1  0
 14 19  1  0
 14 15  2  0
 15 16  1  0
 15 46  1  0
 16 17  2  0
 16 47  1  0
 17 18  1  0
 17 48  1  0
 18 24  1  0
 18 19  2  0
 19 20  1  0
 20 21  1  0
 20 49  1  0
 21 22  2  0
 21 23  1  0
 23 24  1  0
 23 50  1  0
 23 51  1  0
 25 30  1  0
 25 26  2  0
 26 27  1  0
 26 52  1  0
 27 28  2  0
 27 29  1  0
 29 30  1  0
 30 31  2  0
 32 33  1  0
 32 53  1  0
 33 34  1  0
 33 35  1  0
 35 36  1  0
 36 54  1  0
M  CHG  1  10   1
M  END
>  <DOCK_score>  (1) 
-45.164288

>  <SMILES>  (1) 
Cc1ccc2c(C[C@H]([NH2+]Cc3cccc4c3NC(=O)CO4)C3=CC(=O)OC3=O)c[nH]c2c1

$$$$
