CC1(C)C([NH2+]C2c3ccccc3-c3ccc(O)cc32)C[C@@H]1O
     RDKit          3D

 44 47  0  0  1  0  0  0  0  0999 V2000
  131.3374  135.5991  162.6470 C   0  0  0  0  0  0  0  0  0  0  0  0
  131.7415  135.9613  161.2166 C   0  0  0  0  0  0  0  0  0  0  0  0
  132.9632  135.1811  160.7269 C   0  0  0  0  0  0  0  0  0  0  0  0
  130.5671  135.9532  160.2237 C   0  0  1  0  0  0  0  0  0  0  0  0
  129.4610  135.0753  160.6280 N   0  0  0  0  0  0  0  0  0  0  0  0
  128.8950  135.5438  161.3195 H   0  0  0  0  0  0  0  0  0  0  0  0
  129.8337  134.2233  161.0196 H   0  0  0  0  0  0  0  0  0  0  0  0
  128.6361  134.7551  159.4553 C   0  0  1  0  0  0  0  0  0  0  0  0
  129.2441  133.6049  158.6908 C   0  0  0  0  0  0  0  0  0  0  0  0
  130.4639  133.4498  158.0666 C   0  0  0  0  0  0  0  0  0  0  0  0
  130.7663  132.2634  157.4223 C   0  0  0  0  0  0  0  0  0  0  0  0
  129.8504  131.2267  157.4116 C   0  0  0  0  0  0  0  0  0  0  0  0
  128.6300  131.3710  158.0378 C   0  0  0  0  0  0  0  0  0  0  0  0
  128.3159  132.5675  158.6856 C   0  0  0  0  0  0  0  0  0  0  0  0
  127.1003  132.9880  159.4255 C   0  0  0  0  0  0  0  0  0  0  0  0
  125.9084  132.3110  159.6943 C   0  0  0  0  0  0  0  0  0  0  0  0
  124.9114  132.9301  160.4166 C   0  0  0  0  0  0  0  0  0  0  0  0
  125.0869  134.2272  160.8797 C   0  0  0  0  0  0  0  0  0  0  0  0
  124.1016  134.8337  161.5920 O   0  0  0  0  0  0  0  0  0  0  0  0
  126.2700  134.9043  160.6151 C   0  0  0  0  0  0  0  0  0  0  0  0
  127.2693  134.2887  159.8931 C   0  0  0  0  0  0  0  0  0  0  0  0
  130.3477  137.4300  160.5926 C   0  0  0  0  0  0  0  0  0  0  0  0
  131.8382  137.4759  160.9686 C   0  0  2  0  0  0  0  0  0  0  0  0
  132.0437  138.0549  161.8690 H   0  0  0  0  0  0  0  0  0  0  0  0
  132.6932  137.8241  159.8778 O   0  0  0  0  0  0  0  0  0  0  0  0
  130.9071  134.5976  162.6604 H   0  0  0  0  0  0  0  0  0  0  0  0
  132.2167  135.6253  163.2906 H   0  0  0  0  0  0  0  0  0  0  0  0
  130.6006  136.3161  163.0090 H   0  0  0  0  0  0  0  0  0  0  0  0
  133.3224  135.6162  159.7945 H   0  0  0  0  0  0  0  0  0  0  0  0
  133.7511  135.2309  161.4785 H   0  0  0  0  0  0  0  0  0  0  0  0
  132.6862  134.1403  160.5593 H   0  0  0  0  0  0  0  0  0  0  0  0
  130.8705  135.8023  159.1877 H   0  0  0  0  0  0  0  0  0  0  0  0
  128.5457  135.6295  158.8107 H   0  0  0  0  0  0  0  0  0  0  0  0
  131.1820  134.2564  158.0773 H   0  0  0  0  0  0  0  0  0  0  0  0
  131.7206  132.1450  156.9307 H   0  0  0  0  0  0  0  0  0  0  0  0
  130.0920  130.3006  156.9114 H   0  0  0  0  0  0  0  0  0  0  0  0
  127.9178  130.5593  158.0268 H   0  0  0  0  0  0  0  0  0  0  0  0
  125.7680  131.3022  159.3356 H   0  0  0  0  0  0  0  0  0  0  0  0
  123.9907  132.4046  160.6233 H   0  0  0  0  0  0  0  0  0  0  0  0
  124.3154  135.7346  161.8709 H   0  0  0  0  0  0  0  0  0  0  0  0
  126.4069  135.9134  160.9747 H   0  0  0  0  0  0  0  0  0  0  0  0
  130.0928  138.0598  159.7402 H   0  0  0  0  0  0  0  0  0  0  0  0
  129.6787  137.5733  161.4411 H   0  0  0  0  0  0  0  0  0  0  0  0
  132.4453  137.4149  159.0375 H   0  0  0  0  0  0  0  0  0  0  0  0
  1  2  1  0
  1 26  1  0
  1 27  1  0
  1 28  1  0
  2 23  1  0
  2  3  1  0
  2  4  1  0
  3 29  1  0
  3 30  1  0
  3 31  1  0
  4  5  1  0
  4 22  1  0
  4 32  1  6
  5  6  1  0
  5  7  1  0
  5  8  1  0
  8 21  1  0
  8  9  1  0
  8 33  1  6
  9 14  1  0
  9 10  2  0
 10 11  1  0
 10 34  1  0
 11 12  2  0
 11 35  1  0
 12 13  1  0
 12 36  1  0
 13 14  2  0
 13 37  1  0
 14 15  1  0
 15 21  2  0
 15 16  1  0
 16 17  2  0
 16 38  1  0
 17 18  1  0
 17 39  1  0
 18 19  1  0
 18 20  2  0
 19 40  1  0
 20 21  1  0
 20 41  1  0
 22 23  1  0
 22 42  1  0
 22 43  1  0
 23 24  1  1
 23 25  1  0
 25 44  1  0
M  CHG  1   5   1
M  END
>  <DOCK_score>  (1) 
-46.125664

>  <SMILES>  (1) 
CC1(C)C([NH2+]C2c3ccccc3-c3ccc(O)cc32)C[C@@H]1O

$$$$
