CC=CCCc1ccc(C[NH+]2CCN(C(Cc3ccccc3)[C@H](C)Cl)CC2)cc1
     RDKit          3D

 65 67  0  0  1  0  0  0  0  0999 V2000
  133.9528  139.6340  164.8780 C   0  0  0  0  0  0  0  0  0  0  0  0
  134.2334  140.2580  163.5353 C   0  0  0  0  0  0  0  0  0  0  0  0
  135.2974  139.9039  162.8579 C   0  0  0  0  0  0  0  0  0  0  0  0
  135.5780  140.5280  161.5152 C   0  0  0  0  0  0  0  0  0  0  0  0
  135.6157  139.4366  160.4435 C   0  0  0  0  0  0  0  0  0  0  0  0
  134.2860  138.7287  160.4005 C   0  0  0  0  0  0  0  0  0  0  0  0
  133.2842  139.1897  159.5670 C   0  0  0  0  0  0  0  0  0  0  0  0
  132.0649  138.5398  159.5268 C   0  0  0  0  0  0  0  0  0  0  0  0
  131.8470  137.4291  160.3206 C   0  0  0  0  0  0  0  0  0  0  0  0
  130.5176  136.7209  160.2771 C   0  0  0  0  0  0  0  0  0  0  0  0
  130.5543  135.6733  159.2480 N   0  0  0  0  0  0  0  0  0  0  0  0
  131.0508  136.0147  158.4386 H   0  0  0  0  0  0  0  0  0  0  0  0
  131.2411  134.4888  159.7797 C   0  0  0  0  0  0  0  0  0  0  0  0
  131.2962  133.4041  158.7018 C   0  0  0  0  0  0  0  0  0  0  0  0
  129.9286  133.0556  158.2912 N   0  0  0  0  0  0  0  0  0  0  0  0
  129.9370  131.9751  157.2960 C   0  0  1  0  0  0  0  0  0  0  0  0
  131.0882  132.1964  156.3128 C   0  0  0  0  0  0  0  0  0  0  0  0
  130.8251  131.4201  155.0482 C   0  0  0  0  0  0  0  0  0  0  0  0
  131.2837  130.1218  154.9261 C   0  0  0  0  0  0  0  0  0  0  0  0
  131.0380  129.4081  153.7680 C   0  0  0  0  0  0  0  0  0  0  0  0
  130.3430  129.9962  152.7279 C   0  0  0  0  0  0  0  0  0  0  0  0
  129.8891  131.2965  152.8480 C   0  0  0  0  0  0  0  0  0  0  0  0
  130.1300  132.0083  154.0081 C   0  0  0  0  0  0  0  0  0  0  0  0
  130.1218  130.6313  158.0037 C   0  0  2  0  0  0  0  0  0  0  0  0
  129.7816  129.8272  157.3512 H   0  0  0  0  0  0  0  0  0  0  0  0
  129.3043  130.6191  159.2968 C   0  0  0  0  0  0  0  0  0  0  0  0
  131.8659  130.3919  158.3931 Cl  0  0  0  0  0  0  0  0  0  0  0  0
  129.2201  134.2374  157.7796 C   0  0  0  0  0  0  0  0  0  0  0  0
  129.1822  135.3152  158.8652 C   0  0  0  0  0  0  0  0  0  0  0  0
  132.8469  136.9716  161.1584 C   0  0  0  0  0  0  0  0  0  0  0  0
  134.0682  137.6181  161.1943 C   0  0  0  0  0  0  0  0  0  0  0  0
  134.7794  139.8453  165.5566 H   0  0  0  0  0  0  0  0  0  0  0  0
  133.0318  140.0499  165.2866 H   0  0  0  0  0  0  0  0  0  0  0  0
  133.8445  138.5556  164.7621 H   0  0  0  0  0  0  0  0  0  0  0  0
  133.5573  140.9969  163.1313 H   0  0  0  0  0  0  0  0  0  0  0  0
  135.9735  139.1650  163.2619 H   0  0  0  0  0  0  0  0  0  0  0  0
  136.5396  141.0401  161.5464 H   0  0  0  0  0  0  0  0  0  0  0  0
  134.7923  141.2448  161.2764 H   0  0  0  0  0  0  0  0  0  0  0  0
  136.4014  138.7199  160.6823 H   0  0  0  0  0  0  0  0  0  0  0  0
  135.8186  139.8880  159.4723 H   0  0  0  0  0  0  0  0  0  0  0  0
  133.4543  140.0573  158.9467 H   0  0  0  0  0  0  0  0  0  0  0  0
  131.2821  138.9000  158.8755 H   0  0  0  0  0  0  0  0  0  0  0  0
  129.7318  137.4376  160.0383 H   0  0  0  0  0  0  0  0  0  0  0  0
  130.3146  136.2694  161.2482 H   0  0  0  0  0  0  0  0  0  0  0  0
  130.6979  134.1124  160.6466 H   0  0  0  0  0  0  0  0  0  0  0  0
  132.2549  134.7589  160.0755 H   0  0  0  0  0  0  0  0  0  0  0  0
  131.7926  132.5196  159.1010 H   0  0  0  0  0  0  0  0  0  0  0  0
  131.8511  133.7753  157.8402 H   0  0  0  0  0  0  0  0  0  0  0  0
  128.9915  131.9732  156.7538 H   0  0  0  0  0  0  0  0  0  0  0  0
  131.1666  133.2578  156.0780 H   0  0  0  0  0  0  0  0  0  0  0  0
  132.0204  131.8539  156.7620 H   0  0  0  0  0  0  0  0  0  0  0  0
  131.8306  129.6637  155.7369 H   0  0  0  0  0  0  0  0  0  0  0  0
  131.3931  128.3924  153.6740 H   0  0  0  0  0  0  0  0  0  0  0  0
  130.1550  129.4402  151.8214 H   0  0  0  0  0  0  0  0  0  0  0  0
  129.3463  131.7561  152.0353 H   0  0  0  0  0  0  0  0  0  0  0  0
  129.7757  133.0242  154.1018 H   0  0  0  0  0  0  0  0  0  0  0  0
  128.2862  130.9470  159.0862 H   0  0  0  0  0  0  0  0  0  0  0  0
  129.2833  129.6084  159.7041 H   0  0  0  0  0  0  0  0  0  0  0  0
  129.7604  131.2936  160.0215 H   0  0  0  0  0  0  0  0  0  0  0  0
  129.7409  134.6224  156.9029 H   0  0  0  0  0  0  0  0  0  0  0  0
  128.2019  133.9607  157.5060 H   0  0  0  0  0  0  0  0  0  0  0  0
  128.6495  134.9345  159.7366 H   0  0  0  0  0  0  0  0  0  0  0  0
  128.6695  136.1979  158.4830 H   0  0  0  0  0  0  0  0  0  0  0  0
  132.6753  136.1065  161.7818 H   0  0  0  0  0  0  0  0  0  0  0  0
  134.8510  137.2578  161.8453 H   0  0  0  0  0  0  0  0  0  0  0  0
  1  2  1  0
  1 32  1  0
  1 33  1  0
  1 34  1  0
  2  3  2  0
  2 35  1  0
  3  4  1  0
  3 36  1  0
  4  5  1  0
  4 37  1  0
  4 38  1  0
  5  6  1  0
  5 39  1  0
  5 40  1  0
  6 31  2  0
  6  7  1  0
  7  8  2  0
  7 41  1  0
  8  9  1  0
  8 42  1  0
  9 10  1  0
  9 30  2  0
 10 11  1  0
 10 43  1  0
 10 44  1  0
 11 12  1  0
 11 29  1  0
 11 13  1  0
 13 14  1  0
 13 45  1  0
 13 46  1  0
 14 15  1  0
 14 47  1  0
 14 48  1  0
 15 16  1  0
 15 28  1  0
 16 17  1  0
 16 24  1  0
 16 49  1  6
 17 18  1  0
 17 50  1  0
 17 51  1  0
 18 23  1  0
 18 19  2  0
 19 20  1  0
 19 52  1  0
 20 21  2  0
 20 53  1  0
 21 22  1  0
 21 54  1  0
 22 23  2  0
 22 55  1  0
 23 56  1  0
 24 25  1  6
 24 26  1  0
 24 27  1  0
 26 57  1  0
 26 58  1  0
 26 59  1  0
 28 29  1  0
 28 60  1  0
 28 61  1  0
 29 62  1  0
 29 63  1  0
 30 31  1  0
 30 64  1  0
 31 65  1  0
M  CHG  1  11   1
M  END
>  <DOCK_score>  (1) 
-58.072548

>  <SMILES>  (1) 
CC=CCCc1ccc(C[NH+]2CCN(C(Cc3ccccc3)[C@H](C)Cl)CC2)cc1

$$$$
