O=C1CC[C@H](C=Cc2c[nH]c(NC(c3ccccc3)c3ccccc3)[nH+]2)CN1
     RDKit          3D

 53 56  0  0  1  0  0  0  0  0999 V2000
  131.1641  128.8500  150.2998 O   0  0  0  0  0  0  0  0  0  0  0  0
  131.1275  129.5457  151.2926 C   0  0  0  0  0  0  0  0  0  0  0  0
  131.9921  129.1644  152.4597 C   0  0  0  0  0  0  0  0  0  0  0  0
  131.4976  129.8682  153.7260 C   0  0  0  0  0  0  0  0  0  0  0  0
  131.3051  131.3563  153.4096 C   0  0  2  0  0  0  0  0  0  0  0  0
  132.2160  131.7562  152.9641 H   0  0  0  0  0  0  0  0  0  0  0  0
  130.9915  132.1064  154.6785 C   0  0  0  0  0  0  0  0  0  0  0  0
  130.3516  131.4976  155.6681 C   0  0  0  0  0  0  0  0  0  0  0  0
  130.0442  132.2329  156.9119 C   0  0  0  0  0  0  0  0  0  0  0  0
  129.3953  131.7346  157.9964 C   0  0  0  0  0  0  0  0  0  0  0  0
  129.3290  132.7477  158.9207 N   0  0  0  0  0  0  0  0  0  0  0  0
  128.9250  132.6962  159.8012 H   0  0  0  0  0  0  0  0  0  0  0  0
  129.9340  133.8377  158.3743 C   0  0  0  0  0  0  0  0  0  0  0  0
  130.0779  135.0709  158.9864 N   0  0  0  0  0  0  0  0  0  0  0  0
  129.0799  135.5279  159.9566 C   0  0  0  0  0  0  0  0  0  0  0  0
  129.4670  136.8904  160.4717 C   0  0  0  0  0  0  0  0  0  0  0  0
  129.1088  137.2732  161.7507 C   0  0  0  0  0  0  0  0  0  0  0  0
  129.4671  138.5214  162.2244 C   0  0  0  0  0  0  0  0  0  0  0  0
  130.1767  139.3898  161.4162 C   0  0  0  0  0  0  0  0  0  0  0  0
  130.5304  139.0089  160.1352 C   0  0  0  0  0  0  0  0  0  0  0  0
  130.1754  137.7592  159.6629 C   0  0  0  0  0  0  0  0  0  0  0  0
  127.7308  135.6077  159.2900 C   0  0  0  0  0  0  0  0  0  0  0  0
  126.5816  135.3947  160.0278 C   0  0  0  0  0  0  0  0  0  0  0  0
  125.3438  135.4720  159.4170 C   0  0  0  0  0  0  0  0  0  0  0  0
  125.2558  135.7541  158.0667 C   0  0  0  0  0  0  0  0  0  0  0  0
  126.4054  135.9620  157.3276 C   0  0  0  0  0  0  0  0  0  0  0  0
  127.6429  135.8885  157.9392 C   0  0  0  0  0  0  0  0  0  0  0  0
  130.3574  133.5282  157.1734 N   0  0  0  0  0  0  0  0  0  0  0  0
  130.8232  134.1273  156.5694 H   0  0  0  0  0  0  0  0  0  0  0  0
  130.1425  131.5016  152.4269 C   0  0  0  0  0  0  0  0  0  0  0  0
  130.3213  130.6080  151.2894 N   0  0  0  0  0  0  0  0  0  0  0  0
  133.0218  129.4606  152.2597 H   0  0  0  0  0  0  0  0  0  0  0  0
  131.9474  128.0850  152.6046 H   0  0  0  0  0  0  0  0  0  0  0  0
  132.2348  129.7543  154.5208 H   0  0  0  0  0  0  0  0  0  0  0  0
  130.5485  129.4341  154.0402 H   0  0  0  0  0  0  0  0  0  0  0  0
  131.2880  133.1398  154.7822 H   0  0  0  0  0  0  0  0  0  0  0  0
  130.0551  130.4642  155.5644 H   0  0  0  0  0  0  0  0  0  0  0  0
  129.0098  130.7323  158.1113 H   0  0  0  0  0  0  0  0  0  0  0  0
  130.8395  135.6323  158.7730 H   0  0  0  0  0  0  0  0  0  0  0  0
  129.0332  134.8249  160.7884 H   0  0  0  0  0  0  0  0  0  0  0  0
  128.5515  136.5961  162.3809 H   0  0  0  0  0  0  0  0  0  0  0  0
  129.1905  138.8191  163.2250 H   0  0  0  0  0  0  0  0  0  0  0  0
  130.4545  140.3661  161.7853 H   0  0  0  0  0  0  0  0  0  0  0  0
  131.0845  139.6876  159.5036 H   0  0  0  0  0  0  0  0  0  0  0  0
  130.4516  137.4617  158.6621 H   0  0  0  0  0  0  0  0  0  0  0  0
  126.6503  135.1709  161.0821 H   0  0  0  0  0  0  0  0  0  0  0  0
  124.4456  135.3091  159.9943 H   0  0  0  0  0  0  0  0  0  0  0  0
  124.2889  135.8116  157.5889 H   0  0  0  0  0  0  0  0  0  0  0  0
  126.3367  136.1821  156.2726 H   0  0  0  0  0  0  0  0  0  0  0  0
  128.5411  136.0510  157.3619 H   0  0  0  0  0  0  0  0  0  0  0  0
  129.2093  131.2568  152.9342 H   0  0  0  0  0  0  0  0  0  0  0  0
  130.0970  132.5313  152.0725 H   0  0  0  0  0  0  0  0  0  0  0  0
  129.8227  130.7979  150.4794 H   0  0  0  0  0  0  0  0  0  0  0  0
  1  2  2  0
  2 31  1  0
  2  3  1  0
  3  4  1  0
  3 32  1  0
  3 33  1  0
  4  5  1  0
  4 34  1  0
  4 35  1  0
  5  6  1  6
  5  7  1  0
  5 30  1  0
  7  8  2  0
  7 36  1  0
  8  9  1  0
  8 37  1  0
  9 28  1  0
  9 10  2  0
 10 11  1  0
 10 38  1  0
 11 12  1  0
 11 13  1  0
 13 14  1  0
 13 28  2  0
 14 15  1  0
 14 39  1  0
 15 16  1  0
 15 22  1  0
 15 40  1  0
 16 21  1  0
 16 17  2  0
 17 18  1  0
 17 41  1  0
 18 19  2  0
 18 42  1  0
 19 20  1  0
 19 43  1  0
 20 21  2  0
 20 44  1  0
 21 45  1  0
 22 27  1  0
 22 23  2  0
 23 24  1  0
 23 46  1  0
 24 25  2  0
 24 47  1  0
 25 26  1  0
 25 48  1  0
 26 27  2  0
 26 49  1  0
 27 50  1  0
 28 29  1  0
 30 31  1  0
 30 51  1  0
 30 52  1  0
 31 53  1  0
M  CHG  1  28   1
M  END
>  <DOCK_score>  (1) 
-56.870953

>  <SMILES>  (1) 
O=C1CC[C@H](C=Cc2c[nH]c(NC(c3ccccc3)c3ccccc3)[nH+]2)CN1

$$$$
