CCc1ccc(-c2c[nH]c(N[C@@H](c3ccnn3C)C(Cc3ccccc3)Cc3ccccc3)[nH+]2)cc1
     RDKit          3D

 70 74  0  0  1  0  0  0  0  0999 V2000
  129.9133  129.1251  151.2728 C   0  0  0  0  0  0  0  0  0  0  0  0
  131.1984  129.7115  151.8605 C   0  0  0  0  0  0  0  0  0  0  0  0
  130.8867  130.3978  153.1653 C   0  0  0  0  0  0  0  0  0  0  0  0
  130.9438  129.6852  154.3495 C   0  0  0  0  0  0  0  0  0  0  0  0
  130.6650  130.3100  155.5481 C   0  0  0  0  0  0  0  0  0  0  0  0
  130.3139  131.6588  155.5627 C   0  0  0  0  0  0  0  0  0  0  0  0
  130.0075  132.3345  156.8471 C   0  0  0  0  0  0  0  0  0  0  0  0
  129.4829  131.7487  157.9518 C   0  0  0  0  0  0  0  0  0  0  0  0
  129.3631  132.7305  158.9050 N   0  0  0  0  0  0  0  0  0  0  0  0
  129.0175  132.6190  159.8045 H   0  0  0  0  0  0  0  0  0  0  0  0
  129.8184  133.8887  158.3543 C   0  0  0  0  0  0  0  0  0  0  0  0
  129.8678  135.1184  158.9886 N   0  0  0  0  0  0  0  0  0  0  0  0
  130.0544  135.1870  160.4400 C   0  0  1  0  0  0  0  0  0  0  0  0
  129.2350  134.6672  160.9366 H   0  0  0  0  0  0  0  0  0  0  0  0
  131.3611  134.5339  160.8098 C   0  0  0  0  0  0  0  0  0  0  0  0
  132.4707  134.4760  160.0375 C   0  0  0  0  0  0  0  0  0  0  0  0
  133.4565  133.7869  160.7514 C   0  0  0  0  0  0  0  0  0  0  0  0
  132.9542  133.4367  161.9076 N   0  0  0  0  0  0  0  0  0  0  0  0
  131.6325  133.8969  161.9680 N   0  0  0  0  0  0  0  0  0  0  0  0
  130.7080  133.7178  163.0904 C   0  0  0  0  0  0  0  0  0  0  0  0
  130.0726  136.6512  160.8833 C   0  0  0  0  0  0  0  0  0  0  0  0
  131.2226  137.3809  160.1861 C   0  0  0  0  0  0  0  0  0  0  0  0
  131.5582  138.6356  160.9505 C   0  0  0  0  0  0  0  0  0  0  0  0
  130.9274  139.8252  160.6375 C   0  0  0  0  0  0  0  0  0  0  0  0
  131.2316  140.9750  161.3418 C   0  0  0  0  0  0  0  0  0  0  0  0
  132.1744  140.9375  162.3523 C   0  0  0  0  0  0  0  0  0  0  0  0
  132.8090  139.7490  162.6617 C   0  0  0  0  0  0  0  0  0  0  0  0
  132.5008  138.5982  161.9609 C   0  0  0  0  0  0  0  0  0  0  0  0
  128.7458  137.3143  160.5077 C   0  0  0  0  0  0  0  0  0  0  0  0
  127.6130  136.5956  161.1944 C   0  0  0  0  0  0  0  0  0  0  0  0
  126.9877  135.5336  160.5682 C   0  0  0  0  0  0  0  0  0  0  0  0
  125.9519  134.8714  161.2002 C   0  0  0  0  0  0  0  0  0  0  0  0
  125.5344  135.2778  162.4538 C   0  0  0  0  0  0  0  0  0  0  0  0
  126.1562  136.3431  163.0776 C   0  0  0  0  0  0  0  0  0  0  0  0
  127.1956  137.0021  162.4480 C   0  0  0  0  0  0  0  0  0  0  0  0
  130.2082  133.6469  157.1266 N   0  0  0  0  0  0  0  0  0  0  0  0
  130.5784  134.3021  156.5146 H   0  0  0  0  0  0  0  0  0  0  0  0
  130.2523  132.3704  154.3658 C   0  0  0  0  0  0  0  0  0  0  0  0
  130.5388  131.7368  153.1738 C   0  0  0  0  0  0  0  0  0  0  0  0
  129.4908  128.4029  151.9714 H   0  0  0  0  0  0  0  0  0  0  0  0
  129.1945  129.9261  151.0995 H   0  0  0  0  0  0  0  0  0  0  0  0
  130.1387  128.6288  150.3290 H   0  0  0  0  0  0  0  0  0  0  0  0
  131.9171  128.9106  152.0338 H   0  0  0  0  0  0  0  0  0  0  0  0
  131.6209  130.4337  151.1619 H   0  0  0  0  0  0  0  0  0  0  0  0
  131.2113  128.6389  154.3366 H   0  0  0  0  0  0  0  0  0  0  0  0
  130.7145  129.7539  156.4726 H   0  0  0  0  0  0  0  0  0  0  0  0
  129.2110  130.7092  158.0612 H   0  0  0  0  0  0  0  0  0  0  0  0
  129.7786  135.9345  158.4718 H   0  0  0  0  0  0  0  0  0  0  0  0
  132.5771  134.8906  159.0459 H   0  0  0  0  0  0  0  0  0  0  0  0
  134.4582  133.5768  160.4063 H   0  0  0  0  0  0  0  0  0  0  0  0
  130.1526  132.7892  162.9588 H   0  0  0  0  0  0  0  0  0  0  0  0
  131.2719  133.6751  164.0222 H   0  0  0  0  0  0  0  0  0  0  0  0
  130.0119  134.5560  163.1249 H   0  0  0  0  0  0  0  0  0  0  0  0
  130.2115  136.7023  161.9632 H   0  0  0  0  0  0  0  0  0  0  0  0
  132.0972  136.7314  160.1520 H   0  0  0  0  0  0  0  0  0  0  0  0
  130.9245  137.6428  159.1710 H   0  0  0  0  0  0  0  0  0  0  0  0
  130.1942  139.8554  159.8451 H   0  0  0  0  0  0  0  0  0  0  0  0
  130.7362  141.9037  161.0998 H   0  0  0  0  0  0  0  0  0  0  0  0
  132.4153  141.8369  162.8995 H   0  0  0  0  0  0  0  0  0  0  0  0
  133.5457  139.7200  163.4508 H   0  0  0  0  0  0  0  0  0  0  0  0
  132.9969  137.6697  162.2025 H   0  0  0  0  0  0  0  0  0  0  0  0
  128.7588  138.3574  160.8234 H   0  0  0  0  0  0  0  0  0  0  0  0
  128.6070  137.2632  159.4277 H   0  0  0  0  0  0  0  0  0  0  0  0
  127.3109  135.2189  159.5870 H   0  0  0  0  0  0  0  0  0  0  0  0
  125.4658  134.0392  160.7126 H   0  0  0  0  0  0  0  0  0  0  0  0
  124.7221  134.7632  162.9457 H   0  0  0  0  0  0  0  0  0  0  0  0
  125.8300  136.6608  164.0569 H   0  0  0  0  0  0  0  0  0  0  0  0
  127.6812  137.8346  162.9352 H   0  0  0  0  0  0  0  0  0  0  0  0
  129.9806  133.4156  154.3712 H   0  0  0  0  0  0  0  0  0  0  0  0
  130.4912  132.2871  152.2458 H   0  0  0  0  0  0  0  0  0  0  0  0
  1  2  1  0
  1 40  1  0
  1 41  1  0
  1 42  1  0
  2  3  1  0
  2 43  1  0
  2 44  1  0
  3 39  2  0
  3  4  1  0
  4  5  2  0
  4 45  1  0
  5  6  1  0
  5 46  1  0
  6  7  1  0
  6 38  2  0
  7 36  1  0
  7  8  2  0
  8  9  1  0
  8 47  1  0
  9 10  1  0
  9 11  1  0
 11 12  1  0
 11 36  2  0
 12 13  1  0
 12 48  1  0
 13 14  1  1
 13 15  1  0
 13 21  1  0
 15 19  1  0
 15 16  2  0
 16 17  1  0
 16 49  1  0
 17 18  2  0
 17 50  1  0
 18 19  1  0
 19 20  1  0
 20 51  1  0
 20 52  1  0
 20 53  1  0
 21 22  1  0
 21 29  1  0
 21 54  1  0
 22 23  1  0
 22 55  1  0
 22 56  1  0
 23 28  1  0
 23 24  2  0
 24 25  1  0
 24 57  1  0
 25 26  2  0
 25 58  1  0
 26 27  1  0
 26 59  1  0
 27 28  2  0
 27 60  1  0
 28 61  1  0
 29 30  1  0
 29 62  1  0
 29 63  1  0
 30 35  1  0
 30 31  2  0
 31 32  1  0
 31 64  1  0
 32 33  2  0
 32 65  1  0
 33 34  1  0
 33 66  1  0
 34 35  2  0
 34 67  1  0
 35 68  1  0
 36 37  1  0
 38 39  1  0
 38 69  1  0
 39 70  1  0
M  CHG  1  36   1
M  END
>  <DOCK_score>  (1) 
-63.833839

>  <SMILES>  (1) 
CCc1ccc(-c2c[nH]c(N[C@@H](c3ccnn3C)C(Cc3ccccc3)Cc3ccccc3)[nH+]2)cc1

$$$$
