C[C@](CNc1ccc(Oc2ccccc2)cc1)([NH2+]Cc1cccc2c1NC(=O)CO2)c1ccc(F)cc1
     RDKit          3D

 66 70  0  0  1  0  0  0  0  0999 V2000
  129.1655  137.0524  159.2720 C   0  0  0  0  0  0  0  0  0  0  0  0
  129.6710  135.7954  159.9831 C   0  0  2  0  0  0  0  0  0  0  0  0
  130.7505  136.1819  160.9960 C   0  0  0  0  0  0  0  0  0  0  0  0
  131.8643  136.8300  160.2992 N   0  0  0  0  0  0  0  0  0  0  0  0
  132.9775  137.2746  161.0211 C   0  0  0  0  0  0  0  0  0  0  0  0
  133.8261  138.2271  160.4724 C   0  0  0  0  0  0  0  0  0  0  0  0
  134.9215  138.6693  161.1877 C   0  0  0  0  0  0  0  0  0  0  0  0
  135.1804  138.1541  162.4498 C   0  0  0  0  0  0  0  0  0  0  0  0
  136.2621  138.5863  163.1513 O   0  0  0  0  0  0  0  0  0  0  0  0
  137.0338  137.6555  163.7711 C   0  0  0  0  0  0  0  0  0  0  0  0
  137.4625  137.8643  165.0742 C   0  0  0  0  0  0  0  0  0  0  0  0
  138.2429  136.9142  165.7038 C   0  0  0  0  0  0  0  0  0  0  0  0
  138.6053  135.7605  165.0333 C   0  0  0  0  0  0  0  0  0  0  0  0
  138.1838  135.5525  163.7329 C   0  0  0  0  0  0  0  0  0  0  0  0
  137.3993  136.4971  163.1004 C   0  0  0  0  0  0  0  0  0  0  0  0
  134.3361  137.1987  162.9961 C   0  0  0  0  0  0  0  0  0  0  0  0
  133.2372  136.7594  162.2843 C   0  0  0  0  0  0  0  0  0  0  0  0
  130.2365  134.8676  158.9945 N   0  0  0  0  0  0  0  0  0  0  0  0
  130.7587  135.3878  158.3054 H   0  0  0  0  0  0  0  0  0  0  0  0
  130.8495  134.2143  159.4585 H   0  0  0  0  0  0  0  0  0  0  0  0
  129.1489  134.1339  158.3334 C   0  0  0  0  0  0  0  0  0  0  0  0
  129.7290  133.1821  157.3192 C   0  0  0  0  0  0  0  0  0  0  0  0
  129.9353  133.5981  156.0163 C   0  0  0  0  0  0  0  0  0  0  0  0
  130.4677  132.7270  155.0842 C   0  0  0  0  0  0  0  0  0  0  0  0
  130.7981  131.4335  155.4478 C   0  0  0  0  0  0  0  0  0  0  0  0
  130.5946  131.0102  156.7491 C   0  0  0  0  0  0  0  0  0  0  0  0
  130.0623  131.8905  157.6904 C   0  0  0  0  0  0  0  0  0  0  0  0
  129.8533  131.4458  159.0037 N   0  0  0  0  0  0  0  0  0  0  0  0
  130.4603  130.3107  159.4133 C   0  0  0  0  0  0  0  0  0  0  0  0
  130.2747  129.8921  160.5365 O   0  0  0  0  0  0  0  0  0  0  0  0
  131.3696  129.5665  158.4689 C   0  0  0  0  0  0  0  0  0  0  0  0
  130.9150  129.7431  157.1247 O   0  0  0  0  0  0  0  0  0  0  0  0
  128.5252  135.1287  160.6999 C   0  0  0  0  0  0  0  0  0  0  0  0
  127.2586  135.6793  160.6394 C   0  0  0  0  0  0  0  0  0  0  0  0
  126.2071  135.0685  161.2960 C   0  0  0  0  0  0  0  0  0  0  0  0
  126.4224  133.9044  162.0142 C   0  0  0  0  0  0  0  0  0  0  0  0
  125.3951  133.3065  162.6563 F   0  0  0  0  0  0  0  0  0  0  0  0
  127.6914  133.3540  162.0739 C   0  0  0  0  0  0  0  0  0  0  0  0
  128.7415  133.9667  161.4170 C   0  0  0  0  0  0  0  0  0  0  0  0
  128.7457  137.7408  160.0056 H   0  0  0  0  0  0  0  0  0  0  0  0
  129.9942  137.5346  158.7536 H   0  0  0  0  0  0  0  0  0  0  0  0
  128.3963  136.7770  158.5504 H   0  0  0  0  0  0  0  0  0  0  0  0
  130.3310  136.8703  161.7296 H   0  0  0  0  0  0  0  0  0  0  0  0
  131.1107  135.2863  161.5025 H   0  0  0  0  0  0  0  0  0  0  0  0
  131.8301  136.9510  159.3373 H   0  0  0  0  0  0  0  0  0  0  0  0
  133.6273  138.6247  159.4882 H   0  0  0  0  0  0  0  0  0  0  0  0
  135.5795  139.4128  160.7626 H   0  0  0  0  0  0  0  0  0  0  0  0
  137.1831  138.7672  165.5970 H   0  0  0  0  0  0  0  0  0  0  0  0
  138.5737  137.0745  166.7194 H   0  0  0  0  0  0  0  0  0  0  0  0
  139.2189  135.0209  165.5260 H   0  0  0  0  0  0  0  0  0  0  0  0
  138.4685  134.6507  163.2113 H   0  0  0  0  0  0  0  0  0  0  0  0
  137.0709  136.3343  162.0843 H   0  0  0  0  0  0  0  0  0  0  0  0
  134.5383  136.7983  163.9786 H   0  0  0  0  0  0  0  0  0  0  0  0
  132.5800  136.0156  162.7099 H   0  0  0  0  0  0  0  0  0  0  0  0
  128.5847  133.5721  159.0779 H   0  0  0  0  0  0  0  0  0  0  0  0
  128.4867  134.8397  157.8322 H   0  0  0  0  0  0  0  0  0  0  0  0
  129.6799  134.6066  155.7262 H   0  0  0  0  0  0  0  0  0  0  0  0
  130.6268  133.0574  154.0684 H   0  0  0  0  0  0  0  0  0  0  0  0
  131.2137  130.7555  154.7170 H   0  0  0  0  0  0  0  0  0  0  0  0
  129.2857  131.9471  159.6099 H   0  0  0  0  0  0  0  0  0  0  0  0
  131.3616  128.5053  158.7181 H   0  0  0  0  0  0  0  0  0  0  0  0
  132.3843  129.9534  158.5626 H   0  0  0  0  0  0  0  0  0  0  0  0
  127.0916  136.5895  160.0826 H   0  0  0  0  0  0  0  0  0  0  0  0
  125.2176  135.4991  161.2489 H   0  0  0  0  0  0  0  0  0  0  0  0
  127.8606  132.4462  162.6341 H   0  0  0  0  0  0  0  0  0  0  0  0
  129.7315  133.5375  161.4635 H   0  0  0  0  0  0  0  0  0  0  0  0
  1 40  1  0
  1 41  1  0
  1 42  1  0
  2  1  1  6
  2  3  1  0
  2 18  1  0
  2 33  1  0
  3  4  1  0
  3 43  1  0
  3 44  1  0
  4  5  1  0
  4 45  1  0
  5 17  1  0
  5  6  2  0
  6  7  1  0
  6 46  1  0
  7  8  2  0
  7 47  1  0
  8  9  1  0
  8 16  1  0
  9 10  1  0
 10 15  1  0
 10 11  2  0
 11 12  1  0
 11 48  1  0
 12 13  2  0
 12 49  1  0
 13 14  1  0
 13 50  1  0
 14 15  2  0
 14 51  1  0
 15 52  1  0
 16 17  2  0
 16 53  1  0
 17 54  1  0
 18 19  1  0
 18 20  1  0
 18 21  1  0
 21 22  1  0
 21 55  1  0
 21 56  1  0
 22 27  1  0
 22 23  2  0
 23 24  1  0
 23 57  1  0
 24 25  2  0
 24 58  1  0
 25 26  1  0
 25 59  1  0
 26 32  1  0
 26 27  2  0
 27 28  1  0
 28 29  1  0
 28 60  1  0
 29 30  2  0
 29 31  1  0
 31 32  1  0
 31 61  1  0
 31 62  1  0
 33 39  1  0
 33 34  2  0
 34 35  1  0
 34 63  1  0
 35 36  2  0
 35 64  1  0
 36 37  1  0
 36 38  1  0
 38 39  2  0
 38 65  1  0
 39 66  1  0
M  CHG  1  18   1
M  END
>  <DOCK_score>  (1) 
-62.978649

>  <SMILES>  (1) 
C[C@](CNc1ccc(Oc2ccccc2)cc1)([NH2+]Cc1cccc2c1NC(=O)CO2)c1ccc(F)cc1

$$$$
