C[C@@H](c1ccccc1Br)[C@H](Nc1[nH]cc(-c2cccnc2)[nH+]1)c1ccnn1C
     RDKit          3D

 50 53  0  0  1  0  0  0  0  0999 V2000
  129.2110  137.3467  161.5941 C   0  0  0  0  0  0  0  0  0  0  0  0
  129.8981  136.9904  160.2742 C   0  0  1  0  0  0  0  0  0  0  0  0
  129.5328  137.6481  159.4854 H   0  0  0  0  0  0  0  0  0  0  0  0
  131.3881  137.1618  160.4212 C   0  0  0  0  0  0  0  0  0  0  0  0
  132.1673  136.1017  160.8458 C   0  0  0  0  0  0  0  0  0  0  0  0
  133.5340  136.2587  160.9801 C   0  0  0  0  0  0  0  0  0  0  0  0
  134.1223  137.4756  160.6907 C   0  0  0  0  0  0  0  0  0  0  0  0
  133.3441  138.5361  160.2659 C   0  0  0  0  0  0  0  0  0  0  0  0
  131.9768  138.3778  160.1259 C   0  0  0  0  0  0  0  0  0  0  0  0
  130.9124  139.8262  159.5383 Br  0  0  0  0  0  0  0  0  0  0  0  0
  129.5850  135.5372  159.9123 C   0  0  2  0  0  0  0  0  0  0  0  0
  129.9503  134.8796  160.7013 H   0  0  0  0  0  0  0  0  0  0  0  0
  130.2427  135.1960  158.6486 N   0  0  0  0  0  0  0  0  0  0  0  0
  130.1029  133.9256  158.1164 C   0  0  0  0  0  0  0  0  0  0  0  0
  129.3897  132.9079  158.6711 N   0  0  0  0  0  0  0  0  0  0  0  0
  128.8892  132.9428  159.5013 H   0  0  0  0  0  0  0  0  0  0  0  0
  129.5093  131.8219  157.8382 C   0  0  0  0  0  0  0  0  0  0  0  0
  130.2913  132.2070  156.7995 C   0  0  0  0  0  0  0  0  0  0  0  0
  130.6945  131.3608  155.6498 C   0  0  0  0  0  0  0  0  0  0  0  0
  130.3458  131.7220  154.3451 C   0  0  0  0  0  0  0  0  0  0  0  0
  130.7509  130.9017  153.3065 C   0  0  0  0  0  0  0  0  0  0  0  0
  131.4712  129.7556  153.5909 C   0  0  0  0  0  0  0  0  0  0  0  0
  131.7810  129.4378  154.8329 N   0  0  0  0  0  0  0  0  0  0  0  0
  131.4223  130.1901  155.8531 C   0  0  0  0  0  0  0  0  0  0  0  0
  130.6403  133.5030  156.9982 N   0  0  0  0  0  0  0  0  0  0  0  0
  131.1980  134.0323  156.4068 H   0  0  0  0  0  0  0  0  0  0  0  0
  128.0950  135.3658  159.7655 C   0  0  0  0  0  0  0  0  0  0  0  0
  127.3824  135.5231  158.6260 C   0  0  0  0  0  0  0  0  0  0  0  0
  126.0385  135.2709  158.9205 C   0  0  0  0  0  0  0  0  0  0  0  0
  125.9465  134.9805  160.1929 N   0  0  0  0  0  0  0  0  0  0  0  0
  127.2316  135.0339  160.7479 N   0  0  0  0  0  0  0  0  0  0  0  0
  127.5773  134.7746  162.1479 C   0  0  0  0  0  0  0  0  0  0  0  0
  129.5764  136.6891  162.3829 H   0  0  0  0  0  0  0  0  0  0  0  0
  129.4341  138.3820  161.8519 H   0  0  0  0  0  0  0  0  0  0  0  0
  128.1333  137.2228  161.4877 H   0  0  0  0  0  0  0  0  0  0  0  0
  131.7081  135.1508  161.0720 H   0  0  0  0  0  0  0  0  0  0  0  0
  134.1424  135.4303  161.3118 H   0  0  0  0  0  0  0  0  0  0  0  0
  135.1901  137.5983  160.7966 H   0  0  0  0  0  0  0  0  0  0  0  0
  133.8038  139.4868  160.0395 H   0  0  0  0  0  0  0  0  0  0  0  0
  130.7762  135.8601  158.1846 H   0  0  0  0  0  0  0  0  0  0  0  0
  129.0658  130.8480  157.9833 H   0  0  0  0  0  0  0  0  0  0  0  0
  129.7781  132.6202  154.1522 H   0  0  0  0  0  0  0  0  0  0  0  0
  130.5032  131.1514  152.2854 H   0  0  0  0  0  0  0  0  0  0  0  0
  131.7854  129.1112  152.7832 H   0  0  0  0  0  0  0  0  0  0  0  0
  131.6951  129.8968  156.8562 H   0  0  0  0  0  0  0  0  0  0  0  0
  127.7811  135.7935  157.6594 H   0  0  0  0  0  0  0  0  0  0  0  0
  125.2180  135.3124  158.2196 H   0  0  0  0  0  0  0  0  0  0  0  0
  127.4353  135.6842  162.7316 H   0  0  0  0  0  0  0  0  0  0  0  0
  126.9346  133.9869  162.5409 H   0  0  0  0  0  0  0  0  0  0  0  0
  128.6189  134.4601  162.2127 H   0  0  0  0  0  0  0  0  0  0  0  0
  1  2  1  0
  1 33  1  0
  1 34  1  0
  1 35  1  0
  2  3  1  6
  2  4  1  0
  2 11  1  0
  4  9  1  0
  4  5  2  0
  5  6  1  0
  5 36  1  0
  6  7  2  0
  6 37  1  0
  7  8  1  0
  7 38  1  0
  8  9  2  0
  8 39  1  0
  9 10  1  0
 11 12  1  1
 11 13  1  0
 11 27  1  0
 13 40  1  0
 14 13  1  0
 14 25  2  0
 14 15  1  0
 15 16  1  0
 15 17  1  0
 17 18  2  0
 17 41  1  0
 18 19  1  0
 18 25  1  0
 19 24  1  0
 19 20  2  0
 20 21  1  0
 20 42  1  0
 21 22  2  0
 21 43  1  0
 22 23  1  0
 22 44  1  0
 23 24  2  0
 24 45  1  0
 25 26  1  0
 27 31  1  0
 27 28  2  0
 28 29  1  0
 28 46  1  0
 29 30  2  0
 29 47  1  0
 30 31  1  0
 31 32  1  0
 32 48  1  0
 32 49  1  0
 32 50  1  0
M  CHG  1  25   1
M  END
>  <DOCK_score>  (1) 
-59.027687

>  <SMILES>  (1) 
C[C@@H](c1ccccc1Br)[C@H](Nc1[nH]cc(-c2cccnc2)[nH+]1)c1ccnn1C

$$$$
