CC(C)NC(N[C@H]1CCC(=O)NC1)=[NH+][C@H]1CCc2cc(Cl)ccc21
     RDKit          3D

 50 52  0  0  1  0  0  0  0  0999 V2000
  130.6130  132.3224  158.4965 C   0  0  0  0  0  0  0  0  0  0  0  0
  130.2211  133.6008  157.7528 C   0  0  0  0  0  0  0  0  0  0  0  0
  129.4057  133.2382  156.5100 C   0  0  0  0  0  0  0  0  0  0  0  0
  129.4167  134.4511  158.6338 N   0  0  0  0  0  0  0  0  0  0  0  0
  129.9435  134.9049  159.8199 C   0  0  0  0  0  0  0  0  0  0  0  0
  129.1174  135.1422  160.8928 N   0  0  0  0  0  0  0  0  0  0  0  0
  127.6757  134.9117  160.7723 C   0  0  1  0  0  0  0  0  0  0  0  0
  127.3632  135.0806  159.7419 H   0  0  0  0  0  0  0  0  0  0  0  0
  127.3495  133.4695  161.1790 C   0  0  0  0  0  0  0  0  0  0  0  0
  125.8741  133.2020  160.8710 C   0  0  0  0  0  0  0  0  0  0  0  0
  125.0275  134.3134  161.4216 C   0  0  0  0  0  0  0  0  0  0  0  0
  123.8388  134.1158  161.5581 O   0  0  0  0  0  0  0  0  0  0  0  0
  125.5130  135.5059  161.7688 N   0  0  0  0  0  0  0  0  0  0  0  0
  126.9240  135.8674  161.6997 C   0  0  0  0  0  0  0  0  0  0  0  0
  131.2262  135.1099  159.9270 N   0  0  0  0  0  0  0  0  0  0  0  0
  131.7423  135.3715  159.1484 H   0  0  0  0  0  0  0  0  0  0  0  0
  131.8886  134.9453  161.2233 C   0  0  1  0  0  0  0  0  0  0  0  0
  131.1655  134.6507  161.9837 H   0  0  0  0  0  0  0  0  0  0  0  0
  133.0148  133.8949  161.1198 C   0  0  0  0  0  0  0  0  0  0  0  0
  134.0776  134.4520  162.0906 C   0  0  0  0  0  0  0  0  0  0  0  0
  133.8385  135.9462  162.1247 C   0  0  0  0  0  0  0  0  0  0  0  0
  134.6570  136.9761  162.5574 C   0  0  0  0  0  0  0  0  0  0  0  0
  134.2204  138.2859  162.4913 C   0  0  0  0  0  0  0  0  0  0  0  0
  135.2507  139.5738  163.0331 Cl  0  0  0  0  0  0  0  0  0  0  0  0
  132.9613  138.5691  161.9926 C   0  0  0  0  0  0  0  0  0  0  0  0
  132.1442  137.5427  161.5616 C   0  0  0  0  0  0  0  0  0  0  0  0
  132.5807  136.2298  161.6264 C   0  0  0  0  0  0  0  0  0  0  0  0
  129.7127  131.7860  158.7963 H   0  0  0  0  0  0  0  0  0  0  0  0
  131.2115  131.6897  157.8411 H   0  0  0  0  0  0  0  0  0  0  0  0
  131.1938  132.5807  159.3820 H   0  0  0  0  0  0  0  0  0  0  0  0
  131.1214  134.1372  157.4531 H   0  0  0  0  0  0  0  0  0  0  0  0
  128.5891  132.5738  156.7922 H   0  0  0  0  0  0  0  0  0  0  0  0
  128.9982  134.1462  156.0653 H   0  0  0  0  0  0  0  0  0  0  0  0
  130.0490  132.7366  155.7871 H   0  0  0  0  0  0  0  0  0  0  0  0
  128.5125  134.6938  158.3804 H   0  0  0  0  0  0  0  0  0  0  0  0
  129.4890  135.4625  161.7296 H   0  0  0  0  0  0  0  0  0  0  0  0
  127.9738  132.7784  160.6126 H   0  0  0  0  0  0  0  0  0  0  0  0
  127.5313  133.3390  162.2458 H   0  0  0  0  0  0  0  0  0  0  0  0
  125.7348  133.1411  159.7917 H   0  0  0  0  0  0  0  0  0  0  0  0
  125.5744  132.2584  161.3272 H   0  0  0  0  0  0  0  0  0  0  0  0
  124.8879  136.1767  162.0852 H   0  0  0  0  0  0  0  0  0  0  0  0
  127.3565  135.8146  162.6988 H   0  0  0  0  0  0  0  0  0  0  0  0
  127.0199  136.8855  161.3223 H   0  0  0  0  0  0  0  0  0  0  0  0
  133.4063  133.8454  160.1037 H   0  0  0  0  0  0  0  0  0  0  0  0
  132.6639  132.9169  161.4490 H   0  0  0  0  0  0  0  0  0  0  0  0
  135.0793  134.2376  161.7184 H   0  0  0  0  0  0  0  0  0  0  0  0
  133.9447  134.0250  163.0847 H   0  0  0  0  0  0  0  0  0  0  0  0
  135.6399  136.7552  162.9468 H   0  0  0  0  0  0  0  0  0  0  0  0
  132.6196  139.5920  161.9361 H   0  0  0  0  0  0  0  0  0  0  0  0
  131.1615  137.7644  161.1724 H   0  0  0  0  0  0  0  0  0  0  0  0
  1  2  1  0
  1 28  1  0
  1 29  1  0
  1 30  1  0
  2  3  1  0
  2  4  1  0
  2 31  1  0
  3 32  1  0
  3 33  1  0
  3 34  1  0
  4 35  1  0
  5  4  1  0
  5  6  1  0
  5 15  2  0
  6  7  1  0
  6 36  1  0
  7  8  1  6
  7 14  1  0
  7  9  1  0
  9 10  1  0
  9 37  1  0
  9 38  1  0
 10 11  1  0
 10 39  1  0
 10 40  1  0
 11 12  2  0
 11 13  1  0
 13 14  1  0
 13 41  1  0
 14 42  1  0
 14 43  1  0
 15 16  1  0
 15 17  1  0
 17 18  1  1
 17 27  1  0
 17 19  1  0
 19 20  1  0
 19 44  1  0
 19 45  1  0
 20 21  1  0
 20 46  1  0
 20 47  1  0
 21 27  2  0
 21 22  1  0
 22 23  2  0
 22 48  1  0
 23 24  1  0
 23 25  1  0
 25 26  2  0
 25 49  1  0
 26 27  1  0
 26 50  1  0
M  CHG  1  15   1
M  END
>  <DOCK_score>  (1) 
-41.243725

>  <SMILES>  (1) 
CC(C)NC(N[C@H]1CCC(=O)NC1)=[NH+][C@H]1CCc2cc(Cl)ccc21

$$$$
