CS[C@@H]1CC[NH+](C2=CCCC2NCc2cnn(-c3ccccc3)c2)C1
     RDKit          3D

 52 55  0  0  1  0  0  0  0  0999 V2000
  134.2261  139.4839  158.0832 C   0  0  0  0  0  0  0  0  0  0  0  0
  134.0581  140.1310  159.7695 S   0  0  0  0  0  0  0  0  0  0  0  0
  133.3425  138.7311  160.6744 C   0  0  2  0  0  0  0  0  0  0  0  0
  133.1860  138.9877  161.7221 H   0  0  0  0  0  0  0  0  0  0  0  0
  134.2449  137.4758  160.5459 C   0  0  0  0  0  0  0  0  0  0  0  0
  133.2199  136.3317  160.7447 C   0  0  0  0  0  0  0  0  0  0  0  0
  131.9917  136.8038  160.0706 N   0  0  1  0  0  0  0  0  0  0  0  0
  131.9573  136.4328  159.1330 H   0  0  0  0  0  0  0  0  0  0  0  0
  130.8689  136.3795  160.7872 C   0  0  0  0  0  0  0  0  0  0  0  0
  130.6212  136.6984  162.0284 C   0  0  0  0  0  0  0  0  0  0  0  0
  129.3287  136.0757  162.5027 C   0  0  0  0  0  0  0  0  0  0  0  0
  128.5982  135.6515  161.2074 C   0  0  0  0  0  0  0  0  0  0  0  0
  129.7829  135.4906  160.2267 C   0  0  1  0  0  0  0  0  0  0  0  0
  129.3975  135.9362  158.8811 N   0  0  0  0  0  0  0  0  0  0  0  0
  128.3417  135.0794  158.3251 C   0  0  0  0  0  0  0  0  0  0  0  0
  128.9549  133.8131  157.7851 C   0  0  0  0  0  0  0  0  0  0  0  0
  129.1646  132.6297  158.5016 C   0  0  0  0  0  0  0  0  0  0  0  0
  129.7131  131.7553  157.6968 N   0  0  0  0  0  0  0  0  0  0  0  0
  129.8791  132.3578  156.4431 N   0  0  0  0  0  0  0  0  0  0  0  0
  130.4366  131.7564  155.3061 C   0  0  0  0  0  0  0  0  0  0  0  0
  130.5363  132.4706  154.1197 C   0  0  0  0  0  0  0  0  0  0  0  0
  131.0915  131.8773  153.0028 C   0  0  0  0  0  0  0  0  0  0  0  0
  131.5372  130.5697  153.0622 C   0  0  0  0  0  0  0  0  0  0  0  0
  131.4340  129.8539  154.2407 C   0  0  0  0  0  0  0  0  0  0  0  0
  130.8851  130.4437  155.3626 C   0  0  0  0  0  0  0  0  0  0  0  0
  129.4054  133.6217  156.5235 C   0  0  0  0  0  0  0  0  0  0  0  0
  132.0204  138.2772  160.0205 C   0  0  0  0  0  0  0  0  0  0  0  0
  134.8805  138.6123  158.0921 H   0  0  0  0  0  0  0  0  0  0  0  0
  133.2449  139.1978  157.7043 H   0  0  0  0  0  0  0  0  0  0  0  0
  134.6538  140.2529  157.4399 H   0  0  0  0  0  0  0  0  0  0  0  0
  134.7022  137.4231  159.5578 H   0  0  0  0  0  0  0  0  0  0  0  0
  135.0052  137.4599  161.3271 H   0  0  0  0  0  0  0  0  0  0  0  0
  133.0321  136.1706  161.8063 H   0  0  0  0  0  0  0  0  0  0  0  0
  133.5799  135.4144  160.2786 H   0  0  0  0  0  0  0  0  0  0  0  0
  131.2568  137.3249  162.6368 H   0  0  0  0  0  0  0  0  0  0  0  0
  128.7345  136.8058  163.0521 H   0  0  0  0  0  0  0  0  0  0  0  0
  129.5312  135.2052  163.1268 H   0  0  0  0  0  0  0  0  0  0  0  0
  127.9146  136.4310  160.8707 H   0  0  0  0  0  0  0  0  0  0  0  0
  128.0731  134.7063  161.3452 H   0  0  0  0  0  0  0  0  0  0  0  0
  130.1167  134.4533  160.2014 H   0  0  0  0  0  0  0  0  0  0  0  0
  130.1980  135.9680  158.2676 H   0  0  0  0  0  0  0  0  0  0  0  0
  127.6254  134.8310  159.1082 H   0  0  0  0  0  0  0  0  0  0  0  0
  127.8312  135.6079  157.5200 H   0  0  0  0  0  0  0  0  0  0  0  0
  128.9142  132.4651  159.5391 H   0  0  0  0  0  0  0  0  0  0  0  0
  130.1844  133.4904  154.0715 H   0  0  0  0  0  0  0  0  0  0  0  0
  131.1734  132.4337  152.0808 H   0  0  0  0  0  0  0  0  0  0  0  0
  131.9672  130.1065  152.1863 H   0  0  0  0  0  0  0  0  0  0  0  0
  131.7833  128.8330  154.2843 H   0  0  0  0  0  0  0  0  0  0  0  0
  130.8049  129.8844  156.2830 H   0  0  0  0  0  0  0  0  0  0  0  0
  129.3894  134.3481  155.7244 H   0  0  0  0  0  0  0  0  0  0  0  0
  131.9845  138.6136  158.9844 H   0  0  0  0  0  0  0  0  0  0  0  0
  131.1741  138.6837  160.5741 H   0  0  0  0  0  0  0  0  0  0  0  0
  1  2  1  0
  1 28  1  0
  1 29  1  0
  1 30  1  0
  2  3  1  0
  3  4  1  1
  3 27  1  0
  3  5  1  0
  5  6  1  0
  5 31  1  0
  5 32  1  0
  6  7  1  0
  6 33  1  0
  6 34  1  0
  7  8  1  6
  7  9  1  0
  7 27  1  0
  9 13  1  0
  9 10  2  0
 10 11  1  0
 10 35  1  0
 11 12  1  0
 11 36  1  0
 11 37  1  0
 12 13  1  0
 12 38  1  0
 12 39  1  0
 13 14  1  0
 13 40  1  6
 14 15  1  0
 14 41  1  0
 15 16  1  0
 15 42  1  0
 15 43  1  0
 16 26  2  0
 16 17  1  0
 17 18  2  0
 17 44  1  0
 18 19  1  0
 19 20  1  0
 19 26  1  0
 20 25  1  0
 20 21  2  0
 21 22  1  0
 21 45  1  0
 22 23  2  0
 22 46  1  0
 23 24  1  0
 23 47  1  0
 24 25  2  0
 24 48  1  0
 25 49  1  0
 26 50  1  0
 27 51  1  0
 27 52  1  0
M  CHG  1   7   1
M  END
>  <DOCK_score>  (1) 
-56.373726

>  <SMILES>  (1) 
CS[C@@H]1CC[NH+](C2=CCCC2NCc2cnn(-c3ccccc3)c2)C1

$$$$
