O=C1CC[C@H](NC(NC2CC(O)(CO)C2)=[NH+]C2CC(Cl)(Cl)C2)CN1
     RDKit          3D

 49 51  0  0  1  0  0  0  0  0999 V2000
  123.7035  133.5510  161.7001 O   0  0  0  0  0  0  0  0  0  0  0  0
  124.8386  133.8862  161.4347 C   0  0  0  0  0  0  0  0  0  0  0  0
  125.8060  132.8278  160.9880 C   0  0  0  0  0  0  0  0  0  0  0  0
  127.2409  133.3434  161.1232 C   0  0  0  0  0  0  0  0  0  0  0  0
  127.3206  134.7321  160.4778 C   0  0  2  0  0  0  0  0  0  0  0  0
  126.9189  134.6885  159.4654 H   0  0  0  0  0  0  0  0  0  0  0  0
  128.7161  135.1762  160.4376 N   0  0  0  0  0  0  0  0  0  0  0  0
  129.5007  134.8796  159.3484 C   0  0  0  0  0  0  0  0  0  0  0  0
  128.9759  134.1662  158.2969 N   0  0  0  0  0  0  0  0  0  0  0  0
  129.8120  133.8502  157.1361 C   0  0  2  0  0  0  0  0  0  0  0  0
  129.3139  132.6394  156.3295 C   0  0  0  0  0  0  0  0  0  0  0  0
  130.7889  132.2297  156.1828 C   0  0  2  0  0  0  0  0  0  0  0  0
  131.4299  132.7925  155.0363 O   0  0  0  0  0  0  0  0  0  0  0  0
  131.0227  130.7235  156.3149 C   0  0  0  0  0  0  0  0  0  0  0  0
  130.6970  130.0809  155.0807 O   0  0  0  0  0  0  0  0  0  0  0  0
  131.0530  133.0103  157.4813 C   0  0  0  0  0  0  0  0  0  0  0  0
  130.7423  135.2747  159.3126 N   0  0  0  0  0  0  0  0  0  0  0  0
  131.1644  135.4715  158.4619 H   0  0  0  0  0  0  0  0  0  0  0  0
  131.5004  135.4213  160.5576 C   0  0  0  0  0  0  0  0  0  0  0  0
  131.8599  136.8786  160.8920 C   0  0  0  0  0  0  0  0  0  0  0  0
  133.2303  136.3528  161.3507 C   0  0  0  0  0  0  0  0  0  0  0  0
  133.2763  135.8769  163.0892 Cl  0  0  0  0  0  0  0  0  0  0  0  0
  134.6087  137.4148  160.8788 Cl  0  0  0  0  0  0  0  0  0  0  0  0
  133.0086  135.1694  160.3938 C   0  0  0  0  0  0  0  0  0  0  0  0
  126.4950  135.7094  161.3155 C   0  0  0  0  0  0  0  0  0  0  0  0
  125.1606  135.1746  161.5560 N   0  0  0  0  0  0  0  0  0  0  0  0
  125.6089  132.5746  159.9463 H   0  0  0  0  0  0  0  0  0  0  0  0
  125.6811  131.9382  161.6053 H   0  0  0  0  0  0  0  0  0  0  0  0
  127.9247  132.6630  160.6156 H   0  0  0  0  0  0  0  0  0  0  0  0
  127.5079  133.4129  162.1777 H   0  0  0  0  0  0  0  0  0  0  0  0
  129.0865  135.6794  161.1796 H   0  0  0  0  0  0  0  0  0  0  0  0
  128.0518  133.8723  158.3234 H   0  0  0  0  0  0  0  0  0  0  0  0
  130.0329  134.7240  156.5231 H   0  0  0  0  0  0  0  0  0  0  0  0
  128.7219  131.9373  156.9165 H   0  0  0  0  0  0  0  0  0  0  0  0
  128.8397  132.9087  155.3857 H   0  0  0  0  0  0  0  0  0  0  0  0
  131.1580  133.6994  154.8394 H   0  0  0  0  0  0  0  0  0  0  0  0
  132.0694  130.5381  156.5560 H   0  0  0  0  0  0  0  0  0  0  0  0
  130.3909  130.3260  157.1093 H   0  0  0  0  0  0  0  0  0  0  0  0
  129.7787  130.2040  154.8036 H   0  0  0  0  0  0  0  0  0  0  0  0
  131.9829  133.5790  157.4674 H   0  0  0  0  0  0  0  0  0  0  0  0
  130.9367  132.4095  158.3833 H   0  0  0  0  0  0  0  0  0  0  0  0
  131.0551  134.8779  161.3910 H   0  0  0  0  0  0  0  0  0  0  0  0
  131.9115  137.5272  160.0175 H   0  0  0  0  0  0  0  0  0  0  0  0
  131.2620  137.3017  161.6993 H   0  0  0  0  0  0  0  0  0  0  0  0
  133.3381  134.2127  160.7989 H   0  0  0  0  0  0  0  0  0  0  0  0
  133.3743  135.3508  159.3831 H   0  0  0  0  0  0  0  0  0  0  0  0
  126.9939  135.8761  162.2702 H   0  0  0  0  0  0  0  0  0  0  0  0
  126.4095  136.6570  160.7835 H   0  0  0  0  0  0  0  0  0  0  0  0
  124.4632  135.7946  161.8205 H   0  0  0  0  0  0  0  0  0  0  0  0
  1  2  2  0
  2 26  1  0
  2  3  1  0
  3  4  1  0
  3 27  1  0
  3 28  1  0
  4  5  1  0
  4 29  1  0
  4 30  1  0
  5  6  1  6
  5  7  1  0
  5 25  1  0
  7 31  1  0
  8  7  1  0
  8  9  1  0
  8 17  2  0
  9 10  1  0
  9 32  1  0
 10 16  1  0
 10 11  1  0
 10 33  1  6
 11 12  1  0
 11 34  1  0
 11 35  1  0
 12 13  1  6
 12 14  1  0
 12 16  1  0
 13 36  1  0
 14 15  1  0
 14 37  1  0
 14 38  1  0
 15 39  1  0
 16 40  1  0
 16 41  1  0
 17 18  1  0
 17 19  1  0
 19 24  1  0
 19 20  1  0
 19 42  1  0
 20 21  1  0
 20 43  1  0
 20 44  1  0
 21 22  1  0
 21 23  1  0
 21 24  1  0
 24 45  1  0
 24 46  1  0
 25 26  1  0
 25 47  1  0
 25 48  1  0
 26 49  1  0
M  CHG  1  17   1
M  END
>  <DOCK_score>  (1) 
-48.579494

>  <SMILES>  (1) 
O=C1CC[C@H](NC(NC2CC(O)(CO)C2)=[NH+]C2CC(Cl)(Cl)C2)CN1

$$$$
