c1ccc(-c2ccc(-c3c[nH]c(N[C@H](c4ccccc4)C4CCCCC4)[nH+]3)cc2)cc1
     RDKit          3D

 61 65  0  0  1  0  0  0  0  0999 V2000
  130.2758  128.6394  151.2699 C   0  0  0  0  0  0  0  0  0  0  0  0
  129.5705  129.8251  151.3649 C   0  0  0  0  0  0  0  0  0  0  0  0
  129.6250  130.5728  152.5234 C   0  0  0  0  0  0  0  0  0  0  0  0
  130.3924  130.1306  153.5997 C   0  0  0  0  0  0  0  0  0  0  0  0
  130.4554  130.9301  154.8473 C   0  0  0  0  0  0  0  0  0  0  0  0
  130.3218  132.3172  154.7940 C   0  0  0  0  0  0  0  0  0  0  0  0
  130.3754  133.0593  155.9531 C   0  0  0  0  0  0  0  0  0  0  0  0
  130.5735  132.4244  157.1791 C   0  0  0  0  0  0  0  0  0  0  0  0
  130.6360  133.2234  158.4263 C   0  0  0  0  0  0  0  0  0  0  0  0
  130.2652  132.8048  159.6623 C   0  0  0  0  0  0  0  0  0  0  0  0
  130.4868  133.8533  160.5213 N   0  0  0  0  0  0  0  0  0  0  0  0
  130.3179  133.8590  161.4765 H   0  0  0  0  0  0  0  0  0  0  0  0
  130.9868  134.8830  159.7850 C   0  0  0  0  0  0  0  0  0  0  0  0
  131.3445  136.1266  160.2769 N   0  0  0  0  0  0  0  0  0  0  0  0
  131.1954  136.4202  161.7044 C   0  0  2  0  0  0  0  0  0  0  0  0
  131.8011  135.7236  162.2839 H   0  0  0  0  0  0  0  0  0  0  0  0
  129.7480  136.2754  162.0985 C   0  0  0  0  0  0  0  0  0  0  0  0
  129.4171  135.8821  163.3817 C   0  0  0  0  0  0  0  0  0  0  0  0
  128.0894  135.7536  163.7445 C   0  0  0  0  0  0  0  0  0  0  0  0
  127.0927  136.0096  162.8214 C   0  0  0  0  0  0  0  0  0  0  0  0
  127.4238  136.3979  161.5367 C   0  0  0  0  0  0  0  0  0  0  0  0
  128.7514  136.5306  161.1751 C   0  0  0  0  0  0  0  0  0  0  0  0
  131.6586  137.8518  161.9817 C   0  0  0  0  0  0  0  0  0  0  0  0
  130.8082  138.8296  161.1683 C   0  0  0  0  0  0  0  0  0  0  0  0
  131.2714  140.2612  161.4456 C   0  0  0  0  0  0  0  0  0  0  0  0
  132.7409  140.4083  161.0454 C   0  0  0  0  0  0  0  0  0  0  0  0
  133.5913  139.4305  161.8589 C   0  0  0  0  0  0  0  0  0  0  0  0
  133.1280  137.9989  161.5816 C   0  0  0  0  0  0  0  0  0  0  0  0
  131.0796  134.5012  158.5347 N   0  0  0  0  0  0  0  0  0  0  0  0
  131.4101  135.0459  157.8033 H   0  0  0  0  0  0  0  0  0  0  0  0
  130.7124  131.0374  157.2317 C   0  0  0  0  0  0  0  0  0  0  0  0
  130.6540  130.2951  156.0730 C   0  0  0  0  0  0  0  0  0  0  0  0
  131.1051  128.9371  153.4969 C   0  0  0  0  0  0  0  0  0  0  0  0
  131.0389  128.1950  152.3352 C   0  0  0  0  0  0  0  0  0  0  0  0
  130.2302  128.0569  150.3616 H   0  0  0  0  0  0  0  0  0  0  0  0
  128.9765  130.1669  150.5301 H   0  0  0  0  0  0  0  0  0  0  0  0
  129.0743  131.4990  152.5960 H   0  0  0  0  0  0  0  0  0  0  0  0
  130.1720  132.8092  153.8443 H   0  0  0  0  0  0  0  0  0  0  0  0
  130.2677  134.1331  155.9122 H   0  0  0  0  0  0  0  0  0  0  0  0
  129.8713  131.8330  159.9213 H   0  0  0  0  0  0  0  0  0  0  0  0
  131.6939  136.8035  159.6764 H   0  0  0  0  0  0  0  0  0  0  0  0
  130.1958  135.6785  164.1019 H   0  0  0  0  0  0  0  0  0  0  0  0
  127.8307  135.4505  164.7483 H   0  0  0  0  0  0  0  0  0  0  0  0
  126.0555  135.9066  163.1040 H   0  0  0  0  0  0  0  0  0  0  0  0
  126.6452  136.5979  160.8153 H   0  0  0  0  0  0  0  0  0  0  0  0
  129.0100  136.8340  160.1714 H   0  0  0  0  0  0  0  0  0  0  0  0
  131.5477  138.0703  163.0438 H   0  0  0  0  0  0  0  0  0  0  0  0
  130.9191  138.6112  160.1061 H   0  0  0  0  0  0  0  0  0  0  0  0
  129.7614  138.7249  161.4534 H   0  0  0  0  0  0  0  0  0  0  0  0
  131.1604  140.4797  162.5077 H   0  0  0  0  0  0  0  0  0  0  0  0
  130.6656  140.9578  160.8661 H   0  0  0  0  0  0  0  0  0  0  0  0
  133.0708  141.4282  161.2430 H   0  0  0  0  0  0  0  0  0  0  0  0
  132.8518  140.1898  159.9833 H   0  0  0  0  0  0  0  0  0  0  0  0
  133.4803  139.6490  162.9209 H   0  0  0  0  0  0  0  0  0  0  0  0
  134.6382  139.5353  161.5737 H   0  0  0  0  0  0  0  0  0  0  0  0
  133.7338  137.3023  162.1610 H   0  0  0  0  0  0  0  0  0  0  0  0
  133.2390  137.7804  160.5194 H   0  0  0  0  0  0  0  0  0  0  0  0
  130.8663  130.5456  158.1808 H   0  0  0  0  0  0  0  0  0  0  0  0
  130.7616  129.2212  156.1136 H   0  0  0  0  0  0  0  0  0  0  0  0
  131.7046  128.5918  154.3262 H   0  0  0  0  0  0  0  0  0  0  0  0
  131.5871  127.2678  152.2560 H   0  0  0  0  0  0  0  0  0  0  0  0
  1 34  2  0
  1  2  1  0
  1 35  1  0
  2  3  2  0
  2 36  1  0
  3  4  1  0
  3 37  1  0
  4  5  1  0
  4 33  2  0
  5 32  1  0
  5  6  2  0
  6  7  1  0
  6 38  1  0
  7  8  2  0
  7 39  1  0
  8  9  1  0
  8 31  1  0
  9 29  1  0
  9 10  2  0
 10 11  1  0
 10 40  1  0
 11 12  1  0
 11 13  1  0
 13 14  1  0
 13 29  2  0
 14 15  1  0
 14 41  1  0
 15 16  1  1
 15 17  1  0
 15 23  1  0
 17 22  1  0
 17 18  2  0
 18 19  1  0
 18 42  1  0
 19 20  2  0
 19 43  1  0
 20 21  1  0
 20 44  1  0
 21 22  2  0
 21 45  1  0
 22 46  1  0
 23 28  1  0
 23 24  1  0
 23 47  1  0
 24 25  1  0
 24 48  1  0
 24 49  1  0
 25 26  1  0
 25 50  1  0
 25 51  1  0
 26 27  1  0
 26 52  1  0
 26 53  1  0
 27 28  1  0
 27 54  1  0
 27 55  1  0
 28 56  1  0
 28 57  1  0
 29 30  1  0
 31 32  2  0
 31 58  1  0
 32 59  1  0
 33 34  1  0
 33 60  1  0
 34 61  1  0
M  CHG  1  29   1
M  END
>  <DOCK_score>  (1) 
-55.989777

>  <SMILES>  (1) 
c1ccc(-c2ccc(-c3c[nH]c(N[C@H](c4ccccc4)C4CCCCC4)[nH+]3)cc2)cc1

$$$$
