[NH3+][C@H]1CC=C(c2c[nH]c(Nc3ccc(Nc4ccc(F)cc4)cc3)n2)C1
     RDKit          3D

 47 50  0  0  1  0  0  0  0  0999 V2000
  130.2713  133.5291  155.7726 N   0  0  0  0  0  0  0  0  0  0  0  0
  130.6391  132.6358  155.4814 H   0  0  0  0  0  0  0  0  0  0  0  0
  129.6649  133.8938  155.0534 H   0  0  0  0  0  0  0  0  0  0  0  0
  131.0333  134.1721  155.9279 H   0  0  0  0  0  0  0  0  0  0  0  0
  129.5096  133.3627  157.0175 C   0  0  1  0  0  0  0  0  0  0  0  0
  128.6541  132.7045  156.8651 H   0  0  0  0  0  0  0  0  0  0  0  0
  130.4156  132.8387  158.1553 C   0  0  0  0  0  0  0  0  0  0  0  0
  129.9237  133.5418  159.3992 C   0  0  0  0  0  0  0  0  0  0  0  0
  129.1771  134.5869  159.0843 C   0  0  0  0  0  0  0  0  0  0  0  0
  128.5419  135.4901  160.0657 C   0  0  0  0  0  0  0  0  0  0  0  0
  127.3056  135.3392  160.6087 C   0  0  0  0  0  0  0  0  0  0  0  0
  127.1153  136.3950  161.4650 N   0  0  0  0  0  0  0  0  0  0  0  0
  126.3253  136.5640  162.0017 H   0  0  0  0  0  0  0  0  0  0  0  0
  128.2396  137.1617  161.4221 C   0  0  0  0  0  0  0  0  0  0  0  0
  128.4501  138.3251  162.1433 N   0  0  0  0  0  0  0  0  0  0  0  0
  129.6585  139.0207  162.0131 C   0  0  0  0  0  0  0  0  0  0  0  0
  129.6590  140.3321  161.5561 C   0  0  0  0  0  0  0  0  0  0  0  0
  130.8500  141.0196  161.4323 C   0  0  0  0  0  0  0  0  0  0  0  0
  132.0484  140.3960  161.7547 C   0  0  0  0  0  0  0  0  0  0  0  0
  133.2562  141.0912  161.6245 N   0  0  0  0  0  0  0  0  0  0  0  0
  134.2501  140.6112  160.7661 C   0  0  0  0  0  0  0  0  0  0  0  0
  135.5883  140.8589  161.0440 C   0  0  0  0  0  0  0  0  0  0  0  0
  136.5685  140.3788  160.1979 C   0  0  0  0  0  0  0  0  0  0  0  0
  136.2176  139.6608  159.0670 C   0  0  0  0  0  0  0  0  0  0  0  0
  137.1779  139.1973  158.2374 F   0  0  0  0  0  0  0  0  0  0  0  0
  134.8840  139.4175  158.7849 C   0  0  0  0  0  0  0  0  0  0  0  0
  133.9005  139.8907  159.6312 C   0  0  0  0  0  0  0  0  0  0  0  0
  132.0482  139.0826  162.2066 C   0  0  0  0  0  0  0  0  0  0  0  0
  130.8568  138.3971  162.3356 C   0  0  0  0  0  0  0  0  0  0  0  0
  129.0920  136.6153  160.5897 N   0  0  0  0  0  0  0  0  0  0  0  0
  129.0625  134.7328  157.5846 C   0  0  0  0  0  0  0  0  0  0  0  0
  131.4566  133.0963  157.9604 H   0  0  0  0  0  0  0  0  0  0  0  0
  130.3058  131.7594  158.2611 H   0  0  0  0  0  0  0  0  0  0  0  0
  130.1507  133.2323  160.4087 H   0  0  0  0  0  0  0  0  0  0  0  0
  126.6065  134.5414  160.4055 H   0  0  0  0  0  0  0  0  0  0  0  0
  127.7605  138.6580  162.7388 H   0  0  0  0  0  0  0  0  0  0  0  0
  128.7274  140.8157  161.3016 H   0  0  0  0  0  0  0  0  0  0  0  0
  130.8499  142.0408  161.0811 H   0  0  0  0  0  0  0  0  0  0  0  0
  133.4038  141.9059  162.1298 H   0  0  0  0  0  0  0  0  0  0  0  0
  135.8623  141.4230  161.9234 H   0  0  0  0  0  0  0  0  0  0  0  0
  137.6093  140.5677  160.4157 H   0  0  0  0  0  0  0  0  0  0  0  0
  134.6127  138.8576  157.9020 H   0  0  0  0  0  0  0  0  0  0  0  0
  132.8604  139.7011  159.4105 H   0  0  0  0  0  0  0  0  0  0  0  0
  132.9801  138.5978  162.4577 H   0  0  0  0  0  0  0  0  0  0  0  0
  130.8567  137.3760  162.6873 H   0  0  0  0  0  0  0  0  0  0  0  0
  128.0309  134.9418  157.3014 H   0  0  0  0  0  0  0  0  0  0  0  0
  129.7222  135.5242  157.2289 H   0  0  0  0  0  0  0  0  0  0  0  0
  1  2  1  0
  1  3  1  0
  1  4  1  0
  1  5  1  0
  5  6  1  6
  5 31  1  0
  5  7  1  0
  7  8  1  0
  7 32  1  0
  7 33  1  0
  8  9  2  0
  8 34  1  0
  9 10  1  0
  9 31  1  0
 10 30  1  0
 10 11  2  0
 11 12  1  0
 11 35  1  0
 12 13  1  0
 12 14  1  0
 14 15  1  0
 14 30  2  0
 15 16  1  0
 15 36  1  0
 16 29  1  0
 16 17  2  0
 17 18  1  0
 17 37  1  0
 18 19  2  0
 18 38  1  0
 19 20  1  0
 19 28  1  0
 20 21  1  0
 20 39  1  0
 21 27  1  0
 21 22  2  0
 22 23  1  0
 22 40  1  0
 23 24  2  0
 23 41  1  0
 24 25  1  0
 24 26  1  0
 26 27  2  0
 26 42  1  0
 27 43  1  0
 28 29  2  0
 28 44  1  0
 29 45  1  0
 31 46  1  0
 31 47  1  0
M  CHG  1   1   1
M  END
>  <DOCK_score>  (1) 
-43.264675

>  <SMILES>  (1) 
[NH3+][C@H]1CC=C(c2c[nH]c(Nc3ccc(Nc4ccc(F)cc4)cc3)n2)C1

$$$$
