Cc1cccc(N2CC[NH+](C(c3ccccc3)c3ccccc3)CC2)c1N[C@H]1C=CCC(C)C1
     RDKit          3D

 72 76  0  0  1  0  0  0  0  0999 V2000
  136.1036  141.0096  162.8828 C   0  0  0  0  0  0  0  0  0  0  0  0
  135.4469  140.4161  161.6633 C   0  0  0  0  0  0  0  0  0  0  0  0
  135.7414  140.9147  160.4079 C   0  0  0  0  0  0  0  0  0  0  0  0
  135.1418  140.3729  159.2860 C   0  0  0  0  0  0  0  0  0  0  0  0
  134.2432  139.3292  159.4136 C   0  0  0  0  0  0  0  0  0  0  0  0
  133.9417  138.8237  160.6686 C   0  0  0  0  0  0  0  0  0  0  0  0
  133.0318  137.7676  160.8000 N   0  0  0  0  0  0  0  0  0  0  0  0
  133.5358  136.5534  160.1428 C   0  0  0  0  0  0  0  0  0  0  0  0
  132.5425  135.4097  160.3601 C   0  0  0  0  0  0  0  0  0  0  0  0
  131.2361  135.7830  159.8020 N   0  0  0  0  0  0  0  0  0  0  0  0
  131.3339  135.9738  158.8160 H   0  0  0  0  0  0  0  0  0  0  0  0
  130.2878  134.6778  159.9946 C   0  0  0  0  0  0  0  0  0  0  0  0
  128.9474  135.0605  159.4221 C   0  0  0  0  0  0  0  0  0  0  0  0
  127.7886  134.5411  159.9684 C   0  0  0  0  0  0  0  0  0  0  0  0
  126.5589  134.8953  159.4456 C   0  0  0  0  0  0  0  0  0  0  0  0
  126.4881  135.7624  158.3717 C   0  0  0  0  0  0  0  0  0  0  0  0
  127.6473  136.2777  157.8218 C   0  0  0  0  0  0  0  0  0  0  0  0
  128.8768  135.9267  158.3471 C   0  0  0  0  0  0  0  0  0  0  0  0
  130.8012  133.4472  159.2924 C   0  0  0  0  0  0  0  0  0  0  0  0
  130.4509  133.2052  157.9772 C   0  0  0  0  0  0  0  0  0  0  0  0
  130.9250  132.0784  157.3317 C   0  0  0  0  0  0  0  0  0  0  0  0
  131.7431  131.1895  158.0042 C   0  0  0  0  0  0  0  0  0  0  0  0
  132.0887  131.4288  159.3208 C   0  0  0  0  0  0  0  0  0  0  0  0
  131.6177  132.5575  159.9650 C   0  0  0  0  0  0  0  0  0  0  0  0
  130.7346  136.9827  160.4851 C   0  0  0  0  0  0  0  0  0  0  0  0
  131.7129  138.1395  160.2689 C   0  0  0  0  0  0  0  0  0  0  0  0
  134.5430  139.3741  161.8008 C   0  0  0  0  0  0  0  0  0  0  0  0
  134.2383  138.8719  163.0719 N   0  0  0  0  0  0  0  0  0  0  0  0
  134.5814  137.4469  163.1710 C   0  0  1  0  0  0  0  0  0  0  0  0
  134.0148  136.8864  162.4274 H   0  0  0  0  0  0  0  0  0  0  0  0
  136.0488  137.2693  162.9117 C   0  0  0  0  0  0  0  0  0  0  0  0
  136.9290  137.0617  163.8378 C   0  0  0  0  0  0  0  0  0  0  0  0
  136.6038  136.9599  165.2993 C   0  0  0  0  0  0  0  0  0  0  0  0
  135.2160  137.5442  165.5724 C   0  0  2  0  0  0  0  0  0  0  0  0
  134.7825  137.1953  166.9976 C   0  0  0  0  0  0  0  0  0  0  0  0
  134.2276  136.9362  164.5693 C   0  0  0  0  0  0  0  0  0  0  0  0
  135.5428  141.8862  163.2072 H   0  0  0  0  0  0  0  0  0  0  0  0
  136.1180  140.2706  163.6839 H   0  0  0  0  0  0  0  0  0  0  0  0
  137.1252  141.3017  162.6395 H   0  0  0  0  0  0  0  0  0  0  0  0
  136.4429  141.7292  160.3022 H   0  0  0  0  0  0  0  0  0  0  0  0
  135.3756  140.7656  158.3076 H   0  0  0  0  0  0  0  0  0  0  0  0
  133.7767  138.9080  158.5353 H   0  0  0  0  0  0  0  0  0  0  0  0
  134.5013  136.2826  160.5701 H   0  0  0  0  0  0  0  0  0  0  0  0
  133.6497  136.7382  159.0746 H   0  0  0  0  0  0  0  0  0  0  0  0
  132.9075  134.5119  159.8614 H   0  0  0  0  0  0  0  0  0  0  0  0
  132.4395  135.2159  161.4277 H   0  0  0  0  0  0  0  0  0  0  0  0
  130.1824  134.4709  161.0596 H   0  0  0  0  0  0  0  0  0  0  0  0
  127.8440  133.8610  160.8055 H   0  0  0  0  0  0  0  0  0  0  0  0
  125.6534  134.4923  159.8748 H   0  0  0  0  0  0  0  0  0  0  0  0
  125.5277  136.0370  157.9613 H   0  0  0  0  0  0  0  0  0  0  0  0
  127.5920  136.9550  156.9824 H   0  0  0  0  0  0  0  0  0  0  0  0
  129.7823  136.3293  157.9176 H   0  0  0  0  0  0  0  0  0  0  0  0
  129.8093  133.8980  157.4530 H   0  0  0  0  0  0  0  0  0  0  0  0
  130.6543  131.8913  156.3031 H   0  0  0  0  0  0  0  0  0  0  0  0
  132.1107  130.3076  157.5007 H   0  0  0  0  0  0  0  0  0  0  0  0
  132.7273  130.7340  159.8462 H   0  0  0  0  0  0  0  0  0  0  0  0
  131.8880  132.7445  160.9938 H   0  0  0  0  0  0  0  0  0  0  0  0
  130.6409  136.7808  161.5521 H   0  0  0  0  0  0  0  0  0  0  0  0
  129.7593  137.2510  160.0791 H   0  0  0  0  0  0  0  0  0  0  0  0
  131.3484  139.0259  160.7881 H   0  0  0  0  0  0  0  0  0  0  0  0
  131.7964  138.3506  159.2028 H   0  0  0  0  0  0  0  0  0  0  0  0
  133.2675  139.0267  163.2987 H   0  0  0  0  0  0  0  0  0  0  0  0
  136.3918  137.3173  161.8887 H   0  0  0  0  0  0  0  0  0  0  0  0
  137.9619  136.9558  163.5404 H   0  0  0  0  0  0  0  0  0  0  0  0
  137.3475  137.5114  165.8743 H   0  0  0  0  0  0  0  0  0  0  0  0
  136.6206  135.9126  165.6009 H   0  0  0  0  0  0  0  0  0  0  0  0
  135.2437  138.6268  165.4492 H   0  0  0  0  0  0  0  0  0  0  0  0
  134.7658  136.1120  167.1173 H   0  0  0  0  0  0  0  0  0  0  0  0
  135.4865  137.6286  167.7079 H   0  0  0  0  0  0  0  0  0  0  0  0
  133.7861  137.5967  167.1828 H   0  0  0  0  0  0  0  0  0  0  0  0
  133.2126  137.2405  164.8247 H   0  0  0  0  0  0  0  0  0  0  0  0
  134.3005  135.8488  164.5915 H   0  0  0  0  0  0  0  0  0  0  0  0
  1  2  1  0
  1 37  1  0
  1 38  1  0
  1 39  1  0
  2 27  2  0
  2  3  1  0
  3  4  2  0
  3 40  1  0
  4  5  1  0
  4 41  1  0
  5  6  2  0
  5 42  1  0
  6  7  1  0
  6 27  1  0
  7 26  1  0
  7  8  1  0
  8  9  1  0
  8 43  1  0
  8 44  1  0
  9 10  1  0
  9 45  1  0
  9 46  1  0
 10 11  1  0
 10 12  1  0
 10 25  1  0
 12 13  1  0
 12 19  1  0
 12 47  1  0
 13 18  1  0
 13 14  2  0
 14 15  1  0
 14 48  1  0
 15 16  2  0
 15 49  1  0
 16 17  1  0
 16 50  1  0
 17 18  2  0
 17 51  1  0
 18 52  1  0
 19 24  1  0
 19 20  2  0
 20 21  1  0
 20 53  1  0
 21 22  2  0
 21 54  1  0
 22 23  1  0
 22 55  1  0
 23 24  2  0
 23 56  1  0
 24 57  1  0
 25 26  1  0
 25 58  1  0
 25 59  1  0
 26 60  1  0
 26 61  1  0
 27 28  1  0
 28 29  1  0
 28 62  1  0
 29 30  1  6
 29 36  1  0
 29 31  1  0
 31 32  2  0
 31 63  1  0
 32 33  1  0
 32 64  1  0
 33 34  1  0
 33 65  1  0
 33 66  1  0
 34 35  1  0
 34 36  1  0
 34 67  1  1
 35 68  1  0
 35 69  1  0
 35 70  1  0
 36 71  1  0
 36 72  1  0
M  CHG  1  10   1
M  END
>  <DOCK_score>  (1) 
-59.209724

>  <SMILES>  (1) 
Cc1cccc(N2CC[NH+](C(c3ccccc3)c3ccccc3)CC2)c1N[C@H]1C=CCC(C)C1

$$$$
