C[C@H](Cl)C(Cc1ccccc1)N1CC[NH+](Cc2ccc(-c3ccc4sccc4c3)cc2)CC1
     RDKit          3D

 65 69  0  0  1  0  0  0  0  0999 V2000
  129.3885  130.2621  158.8982 C   0  0  0  0  0  0  0  0  0  0  0  0
  130.1971  130.3252  157.6009 C   0  0  2  0  0  0  0  0  0  0  0  0
  129.9034  129.5023  156.9492 H   0  0  0  0  0  0  0  0  0  0  0  0
  131.9545  130.1926  157.9812 Cl  0  0  0  0  0  0  0  0  0  0  0  0
  129.9268  131.6557  156.8956 C   0  0  2  0  0  0  0  0  0  0  0  0
  131.0572  131.9476  155.9066 C   0  0  0  0  0  0  0  0  0  0  0  0
  130.8353  131.1577  154.6425 C   0  0  0  0  0  0  0  0  0  0  0  0
  131.3716  129.8898  154.5166 C   0  0  0  0  0  0  0  0  0  0  0  0
  131.1639  129.1634  153.3591 C   0  0  0  0  0  0  0  0  0  0  0  0
  130.4287  129.7089  152.3233 C   0  0  0  0  0  0  0  0  0  0  0  0
  129.8969  130.9788  152.4471 C   0  0  0  0  0  0  0  0  0  0  0  0
  130.1001  131.7032  153.6068 C   0  0  0  0  0  0  0  0  0  0  0  0
  129.8578  132.7329  157.8919 N   0  0  0  0  0  0  0  0  0  0  0  0
  129.0758  133.8696  157.3854 C   0  0  0  0  0  0  0  0  0  0  0  0
  128.9778  134.9423  158.4723 C   0  0  0  0  0  0  0  0  0  0  0  0
  130.3275  135.3833  158.8483 N   0  0  0  0  0  0  0  0  0  0  0  0
  130.7980  135.7549  158.0367 H   0  0  0  0  0  0  0  0  0  0  0  0
  130.2323  136.4259  159.8788 C   0  0  0  0  0  0  0  0  0  0  0  0
  131.5464  136.5319  160.6088 C   0  0  0  0  0  0  0  0  0  0  0  0
  131.7704  135.7665  161.7391 C   0  0  0  0  0  0  0  0  0  0  0  0
  132.9742  135.8553  162.4084 C   0  0  0  0  0  0  0  0  0  0  0  0
  133.9602  136.7270  161.9505 C   0  0  0  0  0  0  0  0  0  0  0  0
  135.2537  136.8320  162.6701 C   0  0  0  0  0  0  0  0  0  0  0  0
  135.9582  138.0407  162.6660 C   0  0  0  0  0  0  0  0  0  0  0  0
  137.1457  138.1441  163.3247 C   0  0  0  0  0  0  0  0  0  0  0  0
  137.6771  137.0477  164.0133 C   0  0  0  0  0  0  0  0  0  0  0  0
  139.1666  136.8947  164.9375 S   0  0  0  0  0  0  0  0  0  0  0  0
  138.8359  135.2169  165.3220 C   0  0  0  0  0  0  0  0  0  0  0  0
  137.6968  134.8172  164.7930 C   0  0  0  0  0  0  0  0  0  0  0  0
  136.9877  135.8312  164.0289 C   0  0  0  0  0  0  0  0  0  0  0  0
  135.7568  135.7369  163.3475 C   0  0  0  0  0  0  0  0  0  0  0  0
  133.7270  137.4998  160.8147 C   0  0  0  0  0  0  0  0  0  0  0  0
  132.5219  137.3984  160.1497 C   0  0  0  0  0  0  0  0  0  0  0  0
  131.0881  134.2425  159.3752 C   0  0  0  0  0  0  0  0  0  0  0  0
  131.2036  133.1639  158.2958 C   0  0  0  0  0  0  0  0  0  0  0  0
  128.3513  130.5273  158.6930 H   0  0  0  0  0  0  0  0  0  0  0  0
  129.4315  129.2516  159.3044 H   0  0  0  0  0  0  0  0  0  0  0  0
  129.8063  130.9626  159.6212 H   0  0  0  0  0  0  0  0  0  0  0  0
  128.9803  131.5966  156.3583 H   0  0  0  0  0  0  0  0  0  0  0  0
  131.0694  133.0121  155.6725 H   0  0  0  0  0  0  0  0  0  0  0  0
  132.0110  131.6623  156.3506 H   0  0  0  0  0  0  0  0  0  0  0  0
  131.9497  129.4654  155.3242 H   0  0  0  0  0  0  0  0  0  0  0  0
  131.5798  128.1715  153.2621 H   0  0  0  0  0  0  0  0  0  0  0  0
  130.2702  129.1430  151.4171 H   0  0  0  0  0  0  0  0  0  0  0  0
  129.3228  131.4051  151.6378 H   0  0  0  0  0  0  0  0  0  0  0  0
  129.6849  132.6955  153.7034 H   0  0  0  0  0  0  0  0  0  0  0  0
  129.5675  134.2864  156.5063 H   0  0  0  0  0  0  0  0  0  0  0  0
  128.0749  133.5315  157.1168 H   0  0  0  0  0  0  0  0  0  0  0  0
  128.4739  134.5292  159.3461 H   0  0  0  0  0  0  0  0  0  0  0  0
  128.4102  135.7924  158.0937 H   0  0  0  0  0  0  0  0  0  0  0  0
  129.9999  137.3813  159.4085 H   0  0  0  0  0  0  0  0  0  0  0  0
  129.4438  136.1674  160.5855 H   0  0  0  0  0  0  0  0  0  0  0  0
  131.0034  135.0951  162.0962 H   0  0  0  0  0  0  0  0  0  0  0  0
  133.1496  135.2541  163.2881 H   0  0  0  0  0  0  0  0  0  0  0  0
  135.5588  138.8947  162.1391 H   0  0  0  0  0  0  0  0  0  0  0  0
  137.6823  139.0813  163.3159 H   0  0  0  0  0  0  0  0  0  0  0  0
  139.4835  134.5899  165.9169 H   0  0  0  0  0  0  0  0  0  0  0  0
  137.3190  133.8130  164.9173 H   0  0  0  0  0  0  0  0  0  0  0  0
  135.2079  134.8068  163.3519 H   0  0  0  0  0  0  0  0  0  0  0  0
  134.4877  138.1771  160.4558 H   0  0  0  0  0  0  0  0  0  0  0  0
  132.3400  137.9969  159.2693 H   0  0  0  0  0  0  0  0  0  0  0  0
  130.5734  133.8329  160.2444 H   0  0  0  0  0  0  0  0  0  0  0  0
  132.0851  134.5737  159.6660 H   0  0  0  0  0  0  0  0  0  0  0  0
  131.7552  132.3111  158.6915 H   0  0  0  0  0  0  0  0  0  0  0  0
  131.7304  133.5690  157.4318 H   0  0  0  0  0  0  0  0  0  0  0  0
  1  2  1  0
  1 36  1  0
  1 37  1  0
  1 38  1  0
  2  3  1  6
  2  4  1  0
  2  5  1  0
  5  6  1  0
  5 13  1  0
  5 39  1  6
  6  7  1  0
  6 40  1  0
  6 41  1  0
  7 12  1  0
  7  8  2  0
  8  9  1  0
  8 42  1  0
  9 10  2  0
  9 43  1  0
 10 11  1  0
 10 44  1  0
 11 12  2  0
 11 45  1  0
 12 46  1  0
 13 35  1  0
 13 14  1  0
 14 15  1  0
 14 47  1  0
 14 48  1  0
 15 16  1  0
 15 49  1  0
 15 50  1  0
 16 17  1  0
 16 18  1  0
 16 34  1  0
 18 19  1  0
 18 51  1  0
 18 52  1  0
 19 33  1  0
 19 20  2  0
 20 21  1  0
 20 53  1  0
 21 22  2  0
 21 54  1  0
 22 23  1  0
 22 32  1  0
 23 31  1  0
 23 24  2  0
 24 25  1  0
 24 55  1  0
 25 26  2  0
 25 56  1  0
 26 30  1  0
 26 27  1  0
 27 28  1  0
 28 29  2  0
 28 57  1  0
 29 30  1  0
 29 58  1  0
 30 31  2  0
 31 59  1  0
 32 33  2  0
 32 60  1  0
 33 61  1  0
 34 35  1  0
 34 62  1  0
 34 63  1  0
 35 64  1  0
 35 65  1  0
M  CHG  1  16   1
M  END
>  <DOCK_score>  (1) 
-61.826122

>  <SMILES>  (1) 
C[C@H](Cl)C(Cc1ccccc1)N1CC[NH+](Cc2ccc(-c3ccc4sccc4c3)cc2)CC1

$$$$
