C[C@@H](c1ccc(Nc2nc(Cc3ccccc3)cs2)cc1)[NH+]1CCCC1
     RDKit          3D

 52 55  0  0  1  0  0  0  0  0999 V2000
  130.5997  139.0532  158.9603 C   0  0  0  0  0  0  0  0  0  0  0  0
  130.6597  138.3420  160.3141 C   0  0  1  0  0  0  0  0  0  0  0  0
  130.7176  139.0822  161.1112 H   0  0  0  0  0  0  0  0  0  0  0  0
  129.4212  137.5030  160.4960 C   0  0  0  0  0  0  0  0  0  0  0  0
  129.1354  136.4909  159.5970 C   0  0  0  0  0  0  0  0  0  0  0  0
  128.0014  135.7199  159.7610 C   0  0  0  0  0  0  0  0  0  0  0  0
  127.1475  135.9617  160.8297 C   0  0  0  0  0  0  0  0  0  0  0  0
  125.9988  135.1838  160.9983 N   0  0  0  0  0  0  0  0  0  0  0  0
  125.9844  133.8659  160.5665 C   0  0  0  0  0  0  0  0  0  0  0  0
  126.9793  133.2601  159.9962 N   0  0  0  0  0  0  0  0  0  0  0  0
  126.7908  132.0000  159.6482 C   0  0  0  0  0  0  0  0  0  0  0  0
  127.8567  131.1722  158.9774 C   0  0  0  0  0  0  0  0  0  0  0  0
  129.0982  132.0061  158.7926 C   0  0  0  0  0  0  0  0  0  0  0  0
  129.2720  132.7397  157.6339 C   0  0  0  0  0  0  0  0  0  0  0  0
  130.4086  133.5083  157.4664 C   0  0  0  0  0  0  0  0  0  0  0  0
  131.3764  133.5354  158.4531 C   0  0  0  0  0  0  0  0  0  0  0  0
  131.2050  132.7977  159.6096 C   0  0  0  0  0  0  0  0  0  0  0  0
  130.0660  132.0332  159.7793 C   0  0  0  0  0  0  0  0  0  0  0  0
  125.5810  131.5195  159.9381 C   0  0  0  0  0  0  0  0  0  0  0  0
  124.6527  132.8033  160.7085 S   0  0  0  0  0  0  0  0  0  0  0  0
  127.4349  136.9825  161.7273 C   0  0  0  0  0  0  0  0  0  0  0  0
  128.5733  137.7462  161.5603 C   0  0  0  0  0  0  0  0  0  0  0  0
  131.8473  137.4780  160.3602 N   0  0  0  0  0  0  0  0  0  0  0  0
  131.8051  136.7877  159.6257 H   0  0  0  0  0  0  0  0  0  0  0  0
  133.0805  138.2951  160.2268 C   0  0  0  0  0  0  0  0  0  0  0  0
  134.1750  137.3884  160.8433 C   0  0  0  0  0  0  0  0  0  0  0  0
  133.4408  136.7156  162.0258 C   0  0  0  0  0  0  0  0  0  0  0  0
  131.9438  136.8146  161.6786 C   0  0  0  0  0  0  0  0  0  0  0  0
  129.6673  139.6126  158.8851 H   0  0  0  0  0  0  0  0  0  0  0  0
  131.4427  139.7387  158.8725 H   0  0  0  0  0  0  0  0  0  0  0  0
  130.6465  138.3154  158.1594 H   0  0  0  0  0  0  0  0  0  0  0  0
  129.7999  136.3032  158.7667 H   0  0  0  0  0  0  0  0  0  0  0  0
  127.7785  134.9302  159.0589 H   0  0  0  0  0  0  0  0  0  0  0  0
  125.2117  135.5656  161.4172 H   0  0  0  0  0  0  0  0  0  0  0  0
  128.0892  130.3070  159.5983 H   0  0  0  0  0  0  0  0  0  0  0  0
  127.4970  130.8356  158.0052 H   0  0  0  0  0  0  0  0  0  0  0  0
  128.5180  132.7150  156.8610 H   0  0  0  0  0  0  0  0  0  0  0  0
  130.5427  134.0844  156.5626 H   0  0  0  0  0  0  0  0  0  0  0  0
  132.2664  134.1324  158.3203 H   0  0  0  0  0  0  0  0  0  0  0  0
  131.9612  132.8185  160.3803 H   0  0  0  0  0  0  0  0  0  0  0  0
  129.9323  131.4566  160.6826 H   0  0  0  0  0  0  0  0  0  0  0  0
  125.2313  130.5179  159.7357 H   0  0  0  0  0  0  0  0  0  0  0  0
  126.7710  137.1758  162.5568 H   0  0  0  0  0  0  0  0  0  0  0  0
  128.7995  138.5371  162.2600 H   0  0  0  0  0  0  0  0  0  0  0  0
  133.2955  138.4987  159.1777 H   0  0  0  0  0  0  0  0  0  0  0  0
  132.9889  139.2244  160.7892 H   0  0  0  0  0  0  0  0  0  0  0  0
  135.0146  137.9852  161.2000 H   0  0  0  0  0  0  0  0  0  0  0  0
  134.5095  136.6425  160.1222 H   0  0  0  0  0  0  0  0  0  0  0  0
  133.6502  137.2481  162.9535 H   0  0  0  0  0  0  0  0  0  0  0  0
  133.7403  135.6712  162.1142 H   0  0  0  0  0  0  0  0  0  0  0  0
  131.4266  137.4088  162.4320 H   0  0  0  0  0  0  0  0  0  0  0  0
  131.5082  135.8169  161.6251 H   0  0  0  0  0  0  0  0  0  0  0  0
  1  2  1  0
  1 29  1  0
  1 30  1  0
  1 31  1  0
  2  3  1  1
  2  4  1  0
  2 23  1  0
  4 22  1  0
  4  5  2  0
  5  6  1  0
  5 32  1  0
  6  7  2  0
  6 33  1  0
  7  8  1  0
  7 21  1  0
  8  9  1  0
  8 34  1  0
  9 20  1  0
  9 10  2  0
 10 11  1  0
 11 12  1  0
 11 19  2  0
 12 13  1  0
 12 35  1  0
 12 36  1  0
 13 18  1  0
 13 14  2  0
 14 15  1  0
 14 37  1  0
 15 16  2  0
 15 38  1  0
 16 17  1  0
 16 39  1  0
 17 18  2  0
 17 40  1  0
 18 41  1  0
 19 20  1  0
 19 42  1  0
 21 22  2  0
 21 43  1  0
 22 44  1  0
 23 24  1  0
 23 28  1  0
 23 25  1  0
 25 26  1  0
 25 45  1  0
 25 46  1  0
 26 27  1  0
 26 47  1  0
 26 48  1  0
 27 28  1  0
 27 49  1  0
 27 50  1  0
 28 51  1  0
 28 52  1  0
M  CHG  1  23   1
M  END
>  <DOCK_score>  (1) 
-42.015678

>  <SMILES>  (1) 
C[C@@H](c1ccc(Nc2nc(Cc3ccccc3)cs2)cc1)[NH+]1CCCC1

$$$$
