Cc1cccc(N2CC[NH+]([C@H](c3ccccc3)c3cc(NCC(O)C(F)(F)F)ccc3N)CC2)c1C
     RDKit          3D

 70 73  0  0  1  0  0  0  0  0999 V2000
  127.8290  139.3106  169.5419 C   0  0  0  0  0  0  0  0  0  0  0  0
  128.3787  138.2696  168.6010 C   0  0  0  0  0  0  0  0  0  0  0  0
  129.5592  137.6169  168.9066 C   0  0  0  0  0  0  0  0  0  0  0  0
  130.0673  136.6615  168.0458 C   0  0  0  0  0  0  0  0  0  0  0  0
  129.3967  136.3554  166.8778 C   0  0  0  0  0  0  0  0  0  0  0  0
  128.2110  137.0089  166.5680 C   0  0  0  0  0  0  0  0  0  0  0  0
  127.5305  136.7023  165.3874 N   0  0  0  0  0  0  0  0  0  0  0  0
  128.3372  137.0498  164.2090 C   0  0  0  0  0  0  0  0  0  0  0  0
  127.5346  136.7546  162.9400 C   0  0  0  0  0  0  0  0  0  0  0  0
  127.1768  135.3304  162.9070 N   0  0  0  0  0  0  0  0  0  0  0  0
  128.0174  134.7723  162.9224 H   0  0  0  0  0  0  0  0  0  0  0  0
  126.4217  135.0439  161.6799 C   0  0  2  0  0  0  0  0  0  0  0  0
  125.5140  135.6471  161.6627 H   0  0  0  0  0  0  0  0  0  0  0  0
  126.0544  133.5826  161.6459 C   0  0  0  0  0  0  0  0  0  0  0  0
  126.9060  132.6696  161.0525 C   0  0  0  0  0  0  0  0  0  0  0  0
  126.5712  131.3287  161.0251 C   0  0  0  0  0  0  0  0  0  0  0  0
  125.3803  130.9022  161.5825 C   0  0  0  0  0  0  0  0  0  0  0  0
  124.5265  131.8159  162.1716 C   0  0  0  0  0  0  0  0  0  0  0  0
  124.8633  133.1562  162.2028 C   0  0  0  0  0  0  0  0  0  0  0  0
  127.2691  135.3770  160.4792 C   0  0  0  0  0  0  0  0  0  0  0  0
  128.6439  135.2670  160.5522 C   0  0  0  0  0  0  0  0  0  0  0  0
  129.4244  135.5685  159.4442 C   0  0  0  0  0  0  0  0  0  0  0  0
  130.8175  135.4515  159.5164 N   0  0  0  0  0  0  0  0  0  0  0  0
  131.4855  135.4463  160.8202 C   0  0  0  0  0  0  0  0  0  0  0  0
  132.8866  136.0446  160.6778 C   0  0  1  0  0  0  0  0  0  0  0  0
  132.8383  137.1649  159.7919 O   0  0  0  0  0  0  0  0  0  0  0  0
  133.3885  136.5001  162.0494 C   0  0  0  0  0  0  0  0  0  0  0  0
  133.4357  135.4032  162.9166 F   0  0  0  0  0  0  0  0  0  0  0  0
  134.6695  137.0470  161.9191 F   0  0  0  0  0  0  0  0  0  0  0  0
  132.5193  137.4665  162.5668 F   0  0  0  0  0  0  0  0  0  0  0  0
  128.8231  135.9911  158.2658 C   0  0  0  0  0  0  0  0  0  0  0  0
  127.4491  136.1064  158.1944 C   0  0  0  0  0  0  0  0  0  0  0  0
  126.6681  135.7999  159.3012 C   0  0  0  0  0  0  0  0  0  0  0  0
  125.2749  135.9168  159.2289 N   0  0  0  0  0  0  0  0  0  0  0  0
  126.3510  135.0039  164.0770 C   0  0  0  0  0  0  0  0  0  0  0  0
  127.1437  135.2846  165.3554 C   0  0  0  0  0  0  0  0  0  0  0  0
  127.7062  137.9726  167.4322 C   0  0  0  0  0  0  0  0  0  0  0  0
  126.4232  138.6887  167.0972 C   0  0  0  0  0  0  0  0  0  0  0  0
  128.2269  140.2892  169.2736 H   0  0  0  0  0  0  0  0  0  0  0  0
  126.7415  139.3281  169.4691 H   0  0  0  0  0  0  0  0  0  0  0  0
  128.1209  139.0674  170.5636 H   0  0  0  0  0  0  0  0  0  0  0  0
  130.0856  137.8544  169.8192 H   0  0  0  0  0  0  0  0  0  0  0  0
  130.9893  136.1538  168.2874 H   0  0  0  0  0  0  0  0  0  0  0  0
  129.7941  135.6090  166.2060 H   0  0  0  0  0  0  0  0  0  0  0  0
  129.2521  136.4573  164.2068 H   0  0  0  0  0  0  0  0  0  0  0  0
  128.5900  138.1097  164.2411 H   0  0  0  0  0  0  0  0  0  0  0  0
  128.1364  136.9985  162.0645 H   0  0  0  0  0  0  0  0  0  0  0  0
  126.6264  137.3575  162.9359 H   0  0  0  0  0  0  0  0  0  0  0  0
  127.8345  133.0034  160.6134 H   0  0  0  0  0  0  0  0  0  0  0  0
  127.2384  130.6148  160.5651 H   0  0  0  0  0  0  0  0  0  0  0  0
  125.1172  129.8550  161.5582 H   0  0  0  0  0  0  0  0  0  0  0  0
  123.5961  131.4826  162.6071 H   0  0  0  0  0  0  0  0  0  0  0  0
  124.1961  133.8701  162.6628 H   0  0  0  0  0  0  0  0  0  0  0  0
  129.1116  134.9423  161.4699 H   0  0  0  0  0  0  0  0  0  0  0  0
  131.3405  135.3739  158.7031 H   0  0  0  0  0  0  0  0  0  0  0  0
  130.9069  136.0406  161.5274 H   0  0  0  0  0  0  0  0  0  0  0  0
  131.5634  134.4219  161.1845 H   0  0  0  0  0  0  0  0  0  0  0  0
  133.5639  135.2917  160.2746 H   0  0  0  0  0  0  0  0  0  0  0  0
  132.5281  136.9493  158.9018 H   0  0  0  0  0  0  0  0  0  0  0  0
  129.4304  136.2299  157.4051 H   0  0  0  0  0  0  0  0  0  0  0  0
  126.9816  136.4354  157.2781 H   0  0  0  0  0  0  0  0  0  0  0  0
  124.7295  135.7024  160.0019 H   0  0  0  0  0  0  0  0  0  0  0  0
  124.8551  136.2123  158.4059 H   0  0  0  0  0  0  0  0  0  0  0  0
  125.4490  135.6157  164.0670 H   0  0  0  0  0  0  0  0  0  0  0  0
  126.0754  133.9499  164.0444 H   0  0  0  0  0  0  0  0  0  0  0  0
  128.0390  134.6630  165.3721 H   0  0  0  0  0  0  0  0  0  0  0  0
  126.5260  135.0565  166.2240 H   0  0  0  0  0  0  0  0  0  0  0  0
  125.5800  138.1367  167.5123 H   0  0  0  0  0  0  0  0  0  0  0  0
  126.4454  139.6921  167.5223 H   0  0  0  0  0  0  0  0  0  0  0  0
  126.3162  138.7550  166.0144 H   0  0  0  0  0  0  0  0  0  0  0  0
  1  2  1  0
  1 39  1  0
  1 40  1  0
  1 41  1  0
  2 37  2  0
  2  3  1  0
  3  4  2  0
  3 42  1  0
  4  5  1  0
  4 43  1  0
  5  6  2  0
  5 44  1  0
  6  7  1  0
  6 37  1  0
  7 36  1  0
  7  8  1  0
  8  9  1  0
  8 45  1  0
  8 46  1  0
  9 10  1  0
  9 47  1  0
  9 48  1  0
 10 11  1  0
 10 12  1  0
 10 35  1  0
 12 13  1  1
 12 14  1  0
 12 20  1  0
 14 19  1  0
 14 15  2  0
 15 16  1  0
 15 49  1  0
 16 17  2  0
 16 50  1  0
 17 18  1  0
 17 51  1  0
 18 19  2  0
 18 52  1  0
 19 53  1  0
 20 33  1  0
 20 21  2  0
 21 22  1  0
 21 54  1  0
 22 23  1  0
 22 31  2  0
 23 24  1  0
 23 55  1  0
 24 25  1  0
 24 56  1  0
 24 57  1  0
 25 26  1  0
 25 27  1  0
 25 58  1  6
 26 59  1  0
 27 28  1  0
 27 29  1  0
 27 30  1  0
 31 32  1  0
 31 60  1  0
 32 33  2  0
 32 61  1  0
 33 34  1  0
 34 62  1  0
 34 63  1  0
 35 36  1  0
 35 64  1  0
 35 65  1  0
 36 66  1  0
 36 67  1  0
 37 38  1  0
 38 68  1  0
 38 69  1  0
 38 70  1  0
M  CHG  1  10   1
M  END
>  <DOCK_score>  (1) 
-45.618755

>  <SMILES>  (1) 
Cc1cccc(N2CC[NH+]([C@H](c3ccccc3)c3cc(NCC(O)C(F)(F)F)ccc3N)CC2)c1C

$$$$
