O=C1CC[C@H]([NH+]=C(NCc2ncccc2Br)NC2CC(F)(F)C2)CN1
     RDKit          3D

 46 48  0  0  1  0  0  0  0  0999 V2000
  123.7661  133.9381  161.6852 O   0  0  0  0  0  0  0  0  0  0  0  0
  124.9473  133.9478  161.4102 C   0  0  0  0  0  0  0  0  0  0  0  0
  125.7370  132.6883  161.6230 C   0  0  0  0  0  0  0  0  0  0  0  0
  127.2335  133.0093  161.6450 C   0  0  0  0  0  0  0  0  0  0  0  0
  127.5596  133.8837  160.4283 C   0  0  2  0  0  0  0  0  0  0  0  0
  127.1831  133.4066  159.5235 H   0  0  0  0  0  0  0  0  0  0  0  0
  129.0096  134.0633  160.3224 N   0  0  0  0  0  0  0  0  0  0  0  0
  129.5587  134.0575  161.1220 H   0  0  0  0  0  0  0  0  0  0  0  0
  129.5620  134.2306  159.1536 C   0  0  0  0  0  0  0  0  0  0  0  0
  128.7837  134.2386  158.0204 N   0  0  0  0  0  0  0  0  0  0  0  0
  129.3395  133.7744  156.7468 C   0  0  0  0  0  0  0  0  0  0  0  0
  129.7717  132.3371  156.8816 C   0  0  0  0  0  0  0  0  0  0  0  0
  129.6086  131.7124  158.0316 N   0  0  0  0  0  0  0  0  0  0  0  0
  129.9712  130.4553  158.1955 C   0  0  0  0  0  0  0  0  0  0  0  0
  130.5405  129.7420  157.1573 C   0  0  0  0  0  0  0  0  0  0  0  0
  130.7283  130.3643  155.9330 C   0  0  0  0  0  0  0  0  0  0  0  0
  130.3296  131.6863  155.7965 C   0  0  0  0  0  0  0  0  0  0  0  0
  130.5527  132.5888  154.1497 Br  0  0  0  0  0  0  0  0  0  0  0  0
  130.9228  134.3992  159.0543 N   0  0  0  0  0  0  0  0  0  0  0  0
  131.7522  134.3907  160.2620 C   0  0  0  0  0  0  0  0  0  0  0  0
  131.7884  135.7429  160.9937 C   0  0  0  0  0  0  0  0  0  0  0  0
  133.2852  135.4838  161.2334 C   0  0  0  0  0  0  0  0  0  0  0  0
  133.5505  134.7826  162.4145 F   0  0  0  0  0  0  0  0  0  0  0  0
  134.0833  136.6237  161.0874 F   0  0  0  0  0  0  0  0  0  0  0  0
  133.2507  134.5913  159.9816 C   0  0  0  0  0  0  0  0  0  0  0  0
  126.8860  135.2446  160.6088 C   0  0  0  0  0  0  0  0  0  0  0  0
  125.4754  135.0765  160.9355 N   0  0  0  0  0  0  0  0  0  0  0  0
  125.5286  131.9890  160.8132 H   0  0  0  0  0  0  0  0  0  0  0  0
  125.4495  132.2368  162.5725 H   0  0  0  0  0  0  0  0  0  0  0  0
  127.8080  132.0842  161.5966 H   0  0  0  0  0  0  0  0  0  0  0  0
  127.4799  133.5474  162.5603 H   0  0  0  0  0  0  0  0  0  0  0  0
  127.8666  134.5517  158.0640 H   0  0  0  0  0  0  0  0  0  0  0  0
  128.5805  133.8542  155.9686 H   0  0  0  0  0  0  0  0  0  0  0  0
  130.1994  134.3889  156.4801 H   0  0  0  0  0  0  0  0  0  0  0  0
  129.8214  129.9771  159.1522 H   0  0  0  0  0  0  0  0  0  0  0  0
  130.8356  128.7127  157.2983 H   0  0  0  0  0  0  0  0  0  0  0  0
  131.1706  129.8318  155.1042 H   0  0  0  0  0  0  0  0  0  0  0  0
  131.3339  134.5236  158.1846 H   0  0  0  0  0  0  0  0  0  0  0  0
  131.5396  133.5447  160.9155 H   0  0  0  0  0  0  0  0  0  0  0  0
  131.5913  136.5961  160.3446 H   0  0  0  0  0  0  0  0  0  0  0  0
  131.1963  135.7602  161.9087 H   0  0  0  0  0  0  0  0  0  0  0  0
  133.8392  133.6791  160.0794 H   0  0  0  0  0  0  0  0  0  0  0  0
  133.4535  135.1299  159.0558 H   0  0  0  0  0  0  0  0  0  0  0  0
  127.3802  135.7871  161.4148 H   0  0  0  0  0  0  0  0  0  0  0  0
  126.9762  135.8167  159.6853 H   0  0  0  0  0  0  0  0  0  0  0  0
  124.8839  135.8330  160.7989 H   0  0  0  0  0  0  0  0  0  0  0  0
  1  2  2  0
  2 27  1  0
  2  3  1  0
  3  4  1  0
  3 28  1  0
  3 29  1  0
  4  5  1  0
  4 30  1  0
  4 31  1  0
  5  6  1  6
  5  7  1  0
  5 26  1  0
  7  8  1  0
  9  7  2  0
  9 10  1  0
  9 19  1  0
 10 11  1  0
 10 32  1  0
 11 12  1  0
 11 33  1  0
 11 34  1  0
 12 17  1  0
 12 13  2  0
 13 14  1  0
 14 15  2  0
 14 35  1  0
 15 16  1  0
 15 36  1  0
 16 17  2  0
 16 37  1  0
 17 18  1  0
 19 20  1  0
 19 38  1  0
 20 25  1  0
 20 21  1  0
 20 39  1  0
 21 22  1  0
 21 40  1  0
 21 41  1  0
 22 23  1  0
 22 24  1  0
 22 25  1  0
 25 42  1  0
 25 43  1  0
 26 27  1  0
 26 44  1  0
 26 45  1  0
 27 46  1  0
M  CHG  1   7   1
M  END
>  <DOCK_score>  (1) 
-50.038982

>  <SMILES>  (1) 
O=C1CC[C@H]([NH+]=C(NCc2ncccc2Br)NC2CC(F)(F)C2)CN1

$$$$
