CC1(C)C(O)C[C@@H]1[NH+]=C(NC1CCCC1)N[C@H]1CCC(=O)NC1
     RDKit          3D

 54 56  0  0  1  0  0  0  0  0999 V2000
  132.5635  137.6963  160.3645 C   0  0  0  0  0  0  0  0  0  0  0  0
  132.3181  136.7427  161.5356 C   0  0  0  0  0  0  0  0  0  0  0  0
  131.5313  137.3907  162.6766 C   0  0  0  0  0  0  0  0  0  0  0  0
  133.5835  135.9997  162.0012 C   0  0  2  0  0  0  0  0  0  0  0  0
  134.7974  136.6929  161.7051 O   0  0  0  0  0  0  0  0  0  0  0  0
  133.2288  134.9120  160.9736 C   0  0  0  0  0  0  0  0  0  0  0  0
  131.7675  135.3717  161.1086 C   0  0  2  0  0  0  0  0  0  0  0  0
  131.2189  134.8568  161.8970 H   0  0  0  0  0  0  0  0  0  0  0  0
  131.0417  135.4011  159.8363 N   0  0  0  0  0  0  0  0  0  0  0  0
  131.4938  135.6856  159.0264 H   0  0  0  0  0  0  0  0  0  0  0  0
  129.7887  135.0453  159.7925 C   0  0  0  0  0  0  0  0  0  0  0  0
  129.2738  134.4814  158.6490 N   0  0  0  0  0  0  0  0  0  0  0  0
  130.1379  133.6911  157.7688 C   0  0  0  0  0  0  0  0  0  0  0  0
  130.5919  132.3875  158.4716 C   0  0  0  0  0  0  0  0  0  0  0  0
  130.9334  131.4285  157.3126 C   0  0  0  0  0  0  0  0  0  0  0  0
  130.1398  131.9180  156.0885 C   0  0  0  0  0  0  0  0  0  0  0  0
  129.3436  133.1574  156.5465 C   0  0  0  0  0  0  0  0  0  0  0  0
  128.9817  135.2336  160.8895 N   0  0  0  0  0  0  0  0  0  0  0  0
  127.5733  134.8335  160.8402 C   0  0  1  0  0  0  0  0  0  0  0  0
  127.2043  134.9193  159.8182 H   0  0  0  0  0  0  0  0  0  0  0  0
  127.4334  133.3831  161.3178 C   0  0  0  0  0  0  0  0  0  0  0  0
  125.9888  132.9341  161.0844 C   0  0  0  0  0  0  0  0  0  0  0  0
  125.0397  133.9643  161.6259 C   0  0  0  0  0  0  0  0  0  0  0  0
  123.8879  133.6377  161.8202 O   0  0  0  0  0  0  0  0  0  0  0  0
  125.3955  135.2190  161.9040 N   0  0  0  0  0  0  0  0  0  0  0  0
  126.7515  135.7343  161.7631 C   0  0  0  0  0  0  0  0  0  0  0  0
  131.6261  137.8723  159.8367 H   0  0  0  0  0  0  0  0  0  0  0  0
  132.9512  138.6426  160.7417 H   0  0  0  0  0  0  0  0  0  0  0  0
  133.2879  137.2535  159.6808 H   0  0  0  0  0  0  0  0  0  0  0  0
  131.5598  136.7418  163.5519 H   0  0  0  0  0  0  0  0  0  0  0  0
  131.9771  138.3540  162.9239 H   0  0  0  0  0  0  0  0  0  0  0  0
  130.4967  137.5377  162.3667 H   0  0  0  0  0  0  0  0  0  0  0  0
  133.5316  135.6572  163.0348 H   0  0  0  0  0  0  0  0  0  0  0  0
  134.9173  136.8931  160.7668 H   0  0  0  0  0  0  0  0  0  0  0  0
  133.4025  133.8979  161.3335 H   0  0  0  0  0  0  0  0  0  0  0  0
  133.6526  135.0886  159.9850 H   0  0  0  0  0  0  0  0  0  0  0  0
  128.3383  134.6072  158.4251 H   0  0  0  0  0  0  0  0  0  0  0  0
  130.9992  134.2753  157.4448 H   0  0  0  0  0  0  0  0  0  0  0  0
  129.7835  131.9797  159.0785 H   0  0  0  0  0  0  0  0  0  0  0  0
  131.4731  132.5724  159.0860 H   0  0  0  0  0  0  0  0  0  0  0  0
  132.0024  131.4626  157.1023 H   0  0  0  0  0  0  0  0  0  0  0  0
  130.6360  130.4117  157.5692 H   0  0  0  0  0  0  0  0  0  0  0  0
  130.8235  132.1897  155.2844 H   0  0  0  0  0  0  0  0  0  0  0  0
  129.4562  131.1389  155.7508 H   0  0  0  0  0  0  0  0  0  0  0  0
  129.3142  133.9060  155.7547 H   0  0  0  0  0  0  0  0  0  0  0  0
  128.3328  132.8744  156.8403 H   0  0  0  0  0  0  0  0  0  0  0  0
  129.3451  135.6312  161.6962 H   0  0  0  0  0  0  0  0  0  0  0  0
  128.1122  132.7439  160.7533 H   0  0  0  0  0  0  0  0  0  0  0  0
  127.6701  133.3220  162.3801 H   0  0  0  0  0  0  0  0  0  0  0  0
  125.8166  132.8095  160.0153 H   0  0  0  0  0  0  0  0  0  0  0  0
  125.8183  131.9844  161.5916 H   0  0  0  0  0  0  0  0  0  0  0  0
  124.7087  135.8268  162.2198 H   0  0  0  0  0  0  0  0  0  0  0  0
  127.2256  135.7736  162.7439 H   0  0  0  0  0  0  0  0  0  0  0  0
  126.7131  136.7399  161.3445 H   0  0  0  0  0  0  0  0  0  0  0  0
  1  2  1  0
  1 27  1  0
  1 28  1  0
  1 29  1  0
  2  7  1  0
  2  3  1  0
  2  4  1  0
  3 30  1  0
  3 31  1  0
  3 32  1  0
  4  5  1  0
  4  6  1  0
  4 33  1  1
  5 34  1  0
  6  7  1  0
  6 35  1  0
  6 36  1  0
  7  8  1  1
  7  9  1  0
  9 10  1  0
 11  9  2  0
 11 12  1  0
 11 18  1  0
 12 13  1  0
 12 37  1  0
 13 17  1  0
 13 14  1  0
 13 38  1  0
 14 15  1  0
 14 39  1  0
 14 40  1  0
 15 16  1  0
 15 41  1  0
 15 42  1  0
 16 17  1  0
 16 43  1  0
 16 44  1  0
 17 45  1  0
 17 46  1  0
 18 19  1  0
 18 47  1  0
 19 20  1  6
 19 26  1  0
 19 21  1  0
 21 22  1  0
 21 48  1  0
 21 49  1  0
 22 23  1  0
 22 50  1  0
 22 51  1  0
 23 24  2  0
 23 25  1  0
 25 26  1  0
 25 52  1  0
 26 53  1  0
 26 54  1  0
M  CHG  1   9   1
M  END
>  <DOCK_score>  (1) 
-44.695011

>  <SMILES>  (1) 
CC1(C)C(O)C[C@@H]1[NH+]=C(NC1CCCC1)N[C@H]1CCC(=O)NC1

$$$$
