CCc1ccc(-c2c[nH]c(N[C@H](CCO)Cc3ccccc3)[nH+]2)cc1
     RDKit          3D

 51 53  0  0  1  0  0  0  0  0999 V2000
  130.5086  128.6827  152.2215 C   0  0  0  0  0  0  0  0  0  0  0  0
  131.5617  129.7534  152.5133 C   0  0  0  0  0  0  0  0  0  0  0  0
  131.1979  130.4839  153.7803 C   0  0  0  0  0  0  0  0  0  0  0  0
  131.6632  130.0235  154.9984 C   0  0  0  0  0  0  0  0  0  0  0  0
  131.3380  130.6915  156.1615 C   0  0  0  0  0  0  0  0  0  0  0  0
  130.5297  131.8256  156.1078 C   0  0  0  0  0  0  0  0  0  0  0  0
  130.1722  132.5447  157.3550 C   0  0  0  0  0  0  0  0  0  0  0  0
  129.5045  132.0228  158.4137 C   0  0  0  0  0  0  0  0  0  0  0  0
  129.3876  133.0259  159.3450 N   0  0  0  0  0  0  0  0  0  0  0  0
  128.9565  132.9581  160.2113 H   0  0  0  0  0  0  0  0  0  0  0  0
  129.9879  134.1323  158.8278 C   0  0  0  0  0  0  0  0  0  0  0  0
  130.0880  135.3627  159.4543 N   0  0  0  0  0  0  0  0  0  0  0  0
  129.5182  135.5528  160.7905 C   0  0  2  0  0  0  0  0  0  0  0  0
  129.7078  134.6666  161.3958 H   0  0  0  0  0  0  0  0  0  0  0  0
  128.0092  135.7776  160.6740 C   0  0  0  0  0  0  0  0  0  0  0  0
  127.4139  135.9763  162.0694 C   0  0  0  0  0  0  0  0  0  0  0  0
  126.0046  136.1862  161.9606 O   0  0  0  0  0  0  0  0  0  0  0  0
  130.1656  136.7709  161.4524 C   0  0  0  0  0  0  0  0  0  0  0  0
  131.6518  136.5495  161.5670 C   0  0  0  0  0  0  0  0  0  0  0  0
  132.1766  135.9522  162.6977 C   0  0  0  0  0  0  0  0  0  0  0  0
  133.5394  135.7447  162.8008 C   0  0  0  0  0  0  0  0  0  0  0  0
  134.3785  136.1443  161.7775 C   0  0  0  0  0  0  0  0  0  0  0  0
  133.8543  136.7464  160.6490 C   0  0  0  0  0  0  0  0  0  0  0  0
  132.4911  136.9491  160.5436 C   0  0  0  0  0  0  0  0  0  0  0  0
  130.4607  133.8392  157.6409 N   0  0  0  0  0  0  0  0  0  0  0  0
  130.9383  134.4508  157.0590 H   0  0  0  0  0  0  0  0  0  0  0  0
  130.0589  132.2820  154.8779 C   0  0  0  0  0  0  0  0  0  0  0  0
  130.3951  131.6093  153.7207 C   0  0  0  0  0  0  0  0  0  0  0  0
  130.7716  128.1545  151.3051 H   0  0  0  0  0  0  0  0  0  0  0  0
  130.4708  127.9756  153.0502 H   0  0  0  0  0  0  0  0  0  0  0  0
  129.5334  129.1546  152.1018 H   0  0  0  0  0  0  0  0  0  0  0  0
  132.5365  129.2821  152.6324 H   0  0  0  0  0  0  0  0  0  0  0  0
  131.5991  130.4610  151.6840 H   0  0  0  0  0  0  0  0  0  0  0  0
  132.2856  129.1418  155.0392 H   0  0  0  0  0  0  0  0  0  0  0  0
  131.7058  130.3338  157.1118 H   0  0  0  0  0  0  0  0  0  0  0  0
  129.1350  131.0123  158.5067 H   0  0  0  0  0  0  0  0  0  0  0  0
  130.5357  136.0989  159.0086 H   0  0  0  0  0  0  0  0  0  0  0  0
  127.8196  136.6639  160.0686 H   0  0  0  0  0  0  0  0  0  0  0  0
  127.5480  134.9099  160.2023 H   0  0  0  0  0  0  0  0  0  0  0  0
  127.6036  135.0898  162.6749 H   0  0  0  0  0  0  0  0  0  0  0  0
  127.8753  136.8439  162.5411 H   0  0  0  0  0  0  0  0  0  0  0  0
  125.7619  136.9600  161.4340 H   0  0  0  0  0  0  0  0  0  0  0  0
  129.9758  137.6572  160.8471 H   0  0  0  0  0  0  0  0  0  0  0  0
  129.7416  136.9123  162.4467 H   0  0  0  0  0  0  0  0  0  0  0  0
  131.5214  135.6441  163.4992 H   0  0  0  0  0  0  0  0  0  0  0  0
  133.9489  135.2746  163.6824 H   0  0  0  0  0  0  0  0  0  0  0  0
  135.4437  135.9863  161.8598 H   0  0  0  0  0  0  0  0  0  0  0  0
  134.5100  137.0589  159.8496 H   0  0  0  0  0  0  0  0  0  0  0  0
  132.0815  137.4198  159.6622 H   0  0  0  0  0  0  0  0  0  0  0  0
  129.4320  133.1602  154.8306 H   0  0  0  0  0  0  0  0  0  0  0  0
  130.0306  131.9619  152.7671 H   0  0  0  0  0  0  0  0  0  0  0  0
  1  2  1  0
  1 29  1  0
  1 30  1  0
  1 31  1  0
  2  3  1  0
  2 32  1  0
  2 33  1  0
  3 28  2  0
  3  4  1  0
  4  5  2  0
  4 34  1  0
  5  6  1  0
  5 35  1  0
  6  7  1  0
  6 27  2  0
  7 25  1  0
  7  8  2  0
  8  9  1  0
  8 36  1  0
  9 10  1  0
  9 11  1  0
 11 12  1  0
 11 25  2  0
 12 13  1  0
 12 37  1  0
 13 14  1  1
 13 15  1  0
 13 18  1  0
 15 16  1  0
 15 38  1  0
 15 39  1  0
 16 17  1  0
 16 40  1  0
 16 41  1  0
 17 42  1  0
 18 19  1  0
 18 43  1  0
 18 44  1  0
 19 24  1  0
 19 20  2  0
 20 21  1  0
 20 45  1  0
 21 22  2  0
 21 46  1  0
 22 23  1  0
 22 47  1  0
 23 24  2  0
 23 48  1  0
 24 49  1  0
 25 26  1  0
 27 28  1  0
 27 50  1  0
 28 51  1  0
M  CHG  1  25   1
M  END
>  <DOCK_score>  (1) 
-51.958878

>  <SMILES>  (1) 
CCc1ccc(-c2c[nH]c(N[C@H](CCO)Cc3ccccc3)[nH+]2)cc1

$$$$
