Oc1ccc2c(c1)CC[C@@H](NC(NC1CC=CC1)=[NH+][C@@H]1C=C[C@@H](O)[C@H]1Cl)C2
     RDKit          3D

 54 57  0  0  1  0  0  0  0  0999 V2000
  133.4767  136.4181  166.1374 O   0  0  0  0  0  0  0  0  0  0  0  0
  132.9371  135.8822  165.0110 C   0  0  0  0  0  0  0  0  0  0  0  0
  131.8236  135.0585  165.0948 C   0  0  0  0  0  0  0  0  0  0  0  0
  131.2860  134.5176  163.9466 C   0  0  0  0  0  0  0  0  0  0  0  0
  131.8479  134.7900  162.7052 C   0  0  0  0  0  0  0  0  0  0  0  0
  132.9506  135.6105  162.6193 C   0  0  0  0  0  0  0  0  0  0  0  0
  133.4959  136.1547  163.7743 C   0  0  0  0  0  0  0  0  0  0  0  0
  133.6049  135.9548  161.3067 C   0  0  0  0  0  0  0  0  0  0  0  0
  133.1807  134.9694  160.2198 C   0  0  0  0  0  0  0  0  0  0  0  0
  131.6501  134.8784  160.2205 C   0  0  1  0  0  0  0  0  0  0  0  0
  131.2228  135.8808  160.1976 H   0  0  0  0  0  0  0  0  0  0  0  0
  131.2003  134.1236  159.0481 N   0  0  0  0  0  0  0  0  0  0  0  0
  129.8578  133.9137  158.8394 C   0  0  0  0  0  0  0  0  0  0  0  0
  129.4357  133.2054  157.7393 N   0  0  0  0  0  0  0  0  0  0  0  0
  130.4165  132.6742  156.7894 C   0  0  0  0  0  0  0  0  0  0  0  0
  129.7692  132.4164  155.4091 C   0  0  0  0  0  0  0  0  0  0  0  0
  130.4244  131.1501  154.9082 C   0  0  0  0  0  0  0  0  0  0  0  0
  131.0199  130.5133  155.8795 C   0  0  0  0  0  0  0  0  0  0  0  0
  130.8612  131.2484  157.1901 C   0  0  0  0  0  0  0  0  0  0  0  0
  128.9851  134.3864  159.6843 N   0  0  0  0  0  0  0  0  0  0  0  0
  129.1782  135.1992  160.1773 H   0  0  0  0  0  0  0  0  0  0  0  0
  127.7125  133.6901  159.8893 C   0  0  2  0  0  0  0  0  0  0  0  0
  127.8355  132.6196  159.7249 H   0  0  0  0  0  0  0  0  0  0  0  0
  126.6535  134.2463  158.9662 C   0  0  0  0  0  0  0  0  0  0  0  0
  125.8472  135.0492  159.6056 C   0  0  0  0  0  0  0  0  0  0  0  0
  126.2375  135.1670  161.0605 C   0  0  1  0  0  0  0  0  0  0  0  0
  126.7653  136.1041  161.2374 H   0  0  0  0  0  0  0  0  0  0  0  0
  125.0806  135.0808  161.8949 O   0  0  0  0  0  0  0  0  0  0  0  0
  127.1739  133.9605  161.3134 C   0  0  1  0  0  0  0  0  0  0  0  0
  127.9822  134.2314  161.9926 H   0  0  0  0  0  0  0  0  0  0  0  0
  126.2565  132.5399  161.9390 Cl  0  0  0  0  0  0  0  0  0  0  0  0
  131.2098  134.1605  161.4945 C   0  0  0  0  0  0  0  0  0  0  0  0
  134.2492  136.9768  165.9759 H   0  0  0  0  0  0  0  0  0  0  0  0
  131.3799  134.8422  166.0553 H   0  0  0  0  0  0  0  0  0  0  0  0
  130.4194  133.8765  164.0123 H   0  0  0  0  0  0  0  0  0  0  0  0
  134.3628  136.7952  163.7073 H   0  0  0  0  0  0  0  0  0  0  0  0
  133.3111  136.9622  161.0119 H   0  0  0  0  0  0  0  0  0  0  0  0
  134.6879  135.9160  161.4238 H   0  0  0  0  0  0  0  0  0  0  0  0
  133.6070  133.9881  160.4283 H   0  0  0  0  0  0  0  0  0  0  0  0
  133.5271  135.3219  159.2483 H   0  0  0  0  0  0  0  0  0  0  0  0
  131.8498  133.7717  158.4194 H   0  0  0  0  0  0  0  0  0  0  0  0
  128.4884  133.0574  157.5920 H   0  0  0  0  0  0  0  0  0  0  0  0
  131.2740  133.3414  156.7018 H   0  0  0  0  0  0  0  0  0  0  0  0
  128.6940  132.2713  155.5150 H   0  0  0  0  0  0  0  0  0  0  0  0
  129.9766  133.2447  154.7317 H   0  0  0  0  0  0  0  0  0  0  0  0
  130.4029  130.8161  153.8814 H   0  0  0  0  0  0  0  0  0  0  0  0
  131.5554  129.5827  155.7618 H   0  0  0  0  0  0  0  0  0  0  0  0
  131.8111  131.2828  157.7235 H   0  0  0  0  0  0  0  0  0  0  0  0
  130.0983  130.7713  157.8051 H   0  0  0  0  0  0  0  0  0  0  0  0
  126.5739  134.0102  157.9153 H   0  0  0  0  0  0  0  0  0  0  0  0
  125.0132  135.5652  159.1531 H   0  0  0  0  0  0  0  0  0  0  0  0
  124.4331  135.7827  161.7432 H   0  0  0  0  0  0  0  0  0  0  0  0
  130.1256  134.2234  161.5860 H   0  0  0  0  0  0  0  0  0  0  0  0
  131.5047  133.1126  161.4367 H   0  0  0  0  0  0  0  0  0  0  0  0
  1  2  1  0
  1 33  1  0
  2  7  2  0
  2  3  1  0
  3  4  2  0
  3 34  1  0
  4  5  1  0
  4 35  1  0
  5 32  1  0
  5  6  2  0
  6  7  1  0
  6  8  1  0
  7 36  1  0
  8  9  1  0
  8 37  1  0
  8 38  1  0
  9 10  1  0
  9 39  1  0
  9 40  1  0
 10 11  1  6
 10 12  1  0
 10 32  1  0
 12 41  1  0
 13 12  1  0
 13 14  1  0
 13 20  2  0
 14 15  1  0
 14 42  1  0
 15 19  1  0
 15 16  1  0
 15 43  1  0
 16 17  1  0
 16 44  1  0
 16 45  1  0
 17 18  2  0
 17 46  1  0
 18 19  1  0
 18 47  1  0
 19 48  1  0
 19 49  1  0
 20 21  1  0
 20 22  1  0
 22 23  1  6
 22 29  1  0
 22 24  1  0
 24 25  2  0
 24 50  1  0
 25 26  1  0
 25 51  1  0
 26 27  1  6
 26 28  1  0
 26 29  1  0
 28 52  1  0
 29 30  1  1
 29 31  1  0
 32 53  1  0
 32 54  1  0
M  CHG  1  20   1
M  END
>  <DOCK_score>  (1) 
-44.175766

>  <SMILES>  (1) 
Oc1ccc2c(c1)CC[C@@H](NC(NC1CC=CC1)=[NH+][C@@H]1C=C[C@@H](O)[C@H]1Cl)C2

$$$$
