C[NH+]1CC(NC2c3cc(O)ccc3-c3ccc(O)cc32)C1
     RDKit          3D

 40 43  0  0  1  0  0  0  0  0999 V2000
  130.7279  138.6860  160.0676 C   0  0  0  0  0  0  0  0  0  0  0  0
  130.8383  137.3265  159.5223 N   0  0  2  0  0  0  0  0  0  0  0  0
  131.5851  137.2383  158.8493 H   0  0  0  0  0  0  0  0  0  0  0  0
  129.5489  136.7968  159.0265 C   0  0  0  0  0  0  0  0  0  0  0  0
  129.9790  135.4553  159.6469 C   0  0  2  0  0  0  0  0  0  0  0  0
  128.8959  134.7549  160.3500 N   0  0  0  0  0  0  0  0  0  0  0  0
  128.0260  134.0450  159.4027 C   0  0  0  0  0  0  0  0  0  0  0  0
  128.6222  132.7030  159.0552 C   0  0  0  0  0  0  0  0  0  0  0  0
  129.8154  132.3466  158.4650 C   0  0  0  0  0  0  0  0  0  0  0  0
  130.1141  131.0067  158.2570 C   0  0  0  0  0  0  0  0  0  0  0  0
  131.2886  130.6552  157.6708 O   0  0  0  0  0  0  0  0  0  0  0  0
  129.2149  130.0258  158.6534 C   0  0  0  0  0  0  0  0  0  0  0  0
  128.0229  130.3779  159.2488 C   0  0  0  0  0  0  0  0  0  0  0  0
  127.7155  131.7247  159.4553 C   0  0  0  0  0  0  0  0  0  0  0  0
  126.5263  132.3722  160.0624 C   0  0  0  0  0  0  0  0  0  0  0  0
  125.3613  131.8267  160.6068 C   0  0  0  0  0  0  0  0  0  0  0  0
  124.3851  132.6546  161.1172 C   0  0  0  0  0  0  0  0  0  0  0  0
  124.5553  134.0324  161.0932 C   0  0  0  0  0  0  0  0  0  0  0  0
  123.5905  134.8453  161.5985 O   0  0  0  0  0  0  0  0  0  0  0  0
  125.7116  134.5794  160.5535 C   0  0  0  0  0  0  0  0  0  0  0  0
  126.6899  133.7548  160.0414 C   0  0  0  0  0  0  0  0  0  0  0  0
  130.8835  136.2869  160.5742 C   0  0  0  0  0  0  0  0  0  0  0  0
  130.0265  138.6870  160.9020 H   0  0  0  0  0  0  0  0  0  0  0  0
  131.7061  139.0188  160.4149 H   0  0  0  0  0  0  0  0  0  0  0  0
  130.3692  139.3611  159.2906 H   0  0  0  0  0  0  0  0  0  0  0  0
  129.4726  136.7735  157.9393 H   0  0  0  0  0  0  0  0  0  0  0  0
  128.6775  137.2430  159.5057 H   0  0  0  0  0  0  0  0  0  0  0  0
  130.5267  134.8100  158.9602 H   0  0  0  0  0  0  0  0  0  0  0  0
  129.2650  134.1233  161.0449 H   0  0  0  0  0  0  0  0  0  0  0  0
  127.8890  134.6400  158.4997 H   0  0  0  0  0  0  0  0  0  0  0  0
  130.5165  133.1096  158.1608 H   0  0  0  0  0  0  0  0  0  0  0  0
  131.8501  131.4059  157.4339 H   0  0  0  0  0  0  0  0  0  0  0  0
  129.4505  128.9837  158.4951 H   0  0  0  0  0  0  0  0  0  0  0  0
  127.3262  129.6119  159.5561 H   0  0  0  0  0  0  0  0  0  0  0  0
  125.2254  130.7555  160.6275 H   0  0  0  0  0  0  0  0  0  0  0  0
  123.4850  132.2306  161.5373 H   0  0  0  0  0  0  0  0  0  0  0  0
  123.7986  135.7878  161.5374 H   0  0  0  0  0  0  0  0  0  0  0  0
  125.8443  135.6510  160.5347 H   0  0  0  0  0  0  0  0  0  0  0  0
  130.4024  136.5840  161.5061 H   0  0  0  0  0  0  0  0  0  0  0  0
  131.8736  135.8562  160.7238 H   0  0  0  0  0  0  0  0  0  0  0  0
  1  2  1  0
  1 23  1  0
  1 24  1  0
  1 25  1  0
  2  3  1  6
  2 22  1  0
  2  4  1  0
  4  5  1  0
  4 26  1  0
  4 27  1  0
  5  6  1  0
  5 22  1  0
  5 28  1  6
  6  7  1  0
  6 29  1  0
  7 21  1  0
  7  8  1  0
  7 30  1  0
  8 14  1  0
  8  9  2  0
  9 10  1  0
  9 31  1  0
 10 11  1  0
 10 12  2  0
 11 32  1  0
 12 13  1  0
 12 33  1  0
 13 14  2  0
 13 34  1  0
 14 15  1  0
 15 21  2  0
 15 16  1  0
 16 17  2  0
 16 35  1  0
 17 18  1  0
 17 36  1  0
 18 19  1  0
 18 20  2  0
 19 37  1  0
 20 21  1  0
 20 38  1  0
 22 39  1  0
 22 40  1  0
M  CHG  1   2   1
M  END
>  <DOCK_score>  (1) 
-40.97345

>  <SMILES>  (1) 
C[NH+]1CC(NC2c3cc(O)ccc3-c3ccc(O)cc32)C1

$$$$
