O=C1C=C(NC(c2ccccc2)c2cc3ccccc3o2)CCC1CN(c1ncccn1)[C@H]1CC[NH2+]C1
     RDKit          3D

 69 74  0  0  1  0  0  0  0  0999 V2000
  129.7406  133.3259  164.1763 O   0  0  0  0  0  0  0  0  0  0  0  0
  128.8165  133.7645  163.5200 C   0  0  0  0  0  0  0  0  0  0  0  0
  128.2605  135.0048  163.8486 C   0  0  0  0  0  0  0  0  0  0  0  0
  127.2286  135.5268  163.1512 C   0  0  0  0  0  0  0  0  0  0  0  0
  126.7225  136.7394  163.5119 N   0  0  0  0  0  0  0  0  0  0  0  0
  127.5934  137.7420  164.1305 C   0  0  2  0  0  0  0  0  0  0  0  0
  126.7950  138.9844  164.4306 C   0  0  0  0  0  0  0  0  0  0  0  0
  127.1388  139.7843  165.5043 C   0  0  0  0  0  0  0  0  0  0  0  0
  126.4096  140.9266  165.7766 C   0  0  0  0  0  0  0  0  0  0  0  0
  125.3300  141.2633  164.9816 C   0  0  0  0  0  0  0  0  0  0  0  0
  124.9829  140.4606  163.9111 C   0  0  0  0  0  0  0  0  0  0  0  0
  125.7155  139.3211  163.6356 C   0  0  0  0  0  0  0  0  0  0  0  0
  128.7170  138.0829  163.1858 C   0  0  0  0  0  0  0  0  0  0  0  0
  128.6340  138.0423  161.8489 C   0  0  0  0  0  0  0  0  0  0  0  0
  129.9516  138.4481  161.3449 C   0  0  0  0  0  0  0  0  0  0  0  0
  130.5063  138.5950  160.0745 C   0  0  0  0  0  0  0  0  0  0  0  0
  131.8049  139.0033  159.9449 C   0  0  0  0  0  0  0  0  0  0  0  0
  132.5725  139.2712  161.0692 C   0  0  0  0  0  0  0  0  0  0  0  0
  132.0410  139.1316  162.3334 C   0  0  0  0  0  0  0  0  0  0  0  0
  130.7251  138.7129  162.4873 C   0  0  0  0  0  0  0  0  0  0  0  0
  129.9440  138.4835  163.5618 O   0  0  0  0  0  0  0  0  0  0  0  0
  126.6314  134.7958  161.9786 C   0  0  0  0  0  0  0  0  0  0  0  0
  127.7076  133.9329  161.3134 C   0  0  0  0  0  0  0  0  0  0  0  0
  128.2839  132.9696  162.3560 C   0  0  1  0  0  0  0  0  0  0  0  0
  129.4187  132.1570  161.7294 C   0  0  0  0  0  0  0  0  0  0  0  0
  130.2146  133.0225  160.8555 N   0  0  0  0  0  0  0  0  0  0  0  0
  129.8802  133.1517  159.5187 C   0  0  0  0  0  0  0  0  0  0  0  0
  130.1480  134.2878  158.8920 N   0  0  0  0  0  0  0  0  0  0  0  0
  129.8463  134.4420  157.6133 C   0  0  0  0  0  0  0  0  0  0  0  0
  129.2332  133.4017  156.9331 C   0  0  0  0  0  0  0  0  0  0  0  0
  128.9622  132.2291  157.6207 C   0  0  0  0  0  0  0  0  0  0  0  0
  129.2948  132.1383  158.8977 N   0  0  0  0  0  0  0  0  0  0  0  0
  131.3647  133.7512  161.3967 C   0  0  1  0  0  0  0  0  0  0  0  0
  131.4830  133.5352  162.4585 H   0  0  0  0  0  0  0  0  0  0  0  0
  132.6498  133.3755  160.6239 C   0  0  0  0  0  0  0  0  0  0  0  0
  132.7808  134.5227  159.5909 C   0  0  0  0  0  0  0  0  0  0  0  0
  132.3318  135.7173  160.3508 N   0  0  0  0  0  0  0  0  0  0  0  0
  132.0362  136.4431  159.7153 H   0  0  0  0  0  0  0  0  0  0  0  0
  133.0764  136.0545  160.9424 H   0  0  0  0  0  0  0  0  0  0  0  0
  131.1903  135.2652  161.1754 C   0  0  0  0  0  0  0  0  0  0  0  0
  128.6640  135.5574  164.6841 H   0  0  0  0  0  0  0  0  0  0  0  0
  125.7856  136.9388  163.3591 H   0  0  0  0  0  0  0  0  0  0  0  0
  128.0061  137.3428  165.0571 H   0  0  0  0  0  0  0  0  0  0  0  0
  127.9796  139.5189  166.1281 H   0  0  0  0  0  0  0  0  0  0  0  0
  126.6804  141.5536  166.6133 H   0  0  0  0  0  0  0  0  0  0  0  0
  124.7574  142.1534  165.1970 H   0  0  0  0  0  0  0  0  0  0  0  0
  124.1392  140.7234  163.2901 H   0  0  0  0  0  0  0  0  0  0  0  0
  125.4441  138.6938  162.7994 H   0  0  0  0  0  0  0  0  0  0  0  0
  127.7743  137.7574  161.2608 H   0  0  0  0  0  0  0  0  0  0  0  0
  129.9129  138.3877  159.1963 H   0  0  0  0  0  0  0  0  0  0  0  0
  132.2360  139.1175  158.9613 H   0  0  0  0  0  0  0  0  0  0  0  0
  133.5970  139.5923  160.9527 H   0  0  0  0  0  0  0  0  0  0  0  0
  132.6470  139.3429  163.2020 H   0  0  0  0  0  0  0  0  0  0  0  0
  125.8171  134.1587  162.3240 H   0  0  0  0  0  0  0  0  0  0  0  0
  126.2474  135.5174  161.2577 H   0  0  0  0  0  0  0  0  0  0  0  0
  127.2655  133.3641  160.4954 H   0  0  0  0  0  0  0  0  0  0  0  0
  128.5008  134.5725  160.9266 H   0  0  0  0  0  0  0  0  0  0  0  0
  127.5003  132.2952  162.7015 H   0  0  0  0  0  0  0  0  0  0  0  0
  130.0544  131.7531  162.5174 H   0  0  0  0  0  0  0  0  0  0  0  0
  128.9994  131.3378  161.1453 H   0  0  0  0  0  0  0  0  0  0  0  0
  130.0716  135.3688  157.1066 H   0  0  0  0  0  0  0  0  0  0  0  0
  128.9718  133.5026  155.8901 H   0  0  0  0  0  0  0  0  0  0  0  0
  128.4855  131.3995  157.1197 H   0  0  0  0  0  0  0  0  0  0  0  0
  133.5106  133.3583  161.2924 H   0  0  0  0  0  0  0  0  0  0  0  0
  132.5309  132.4156  160.1215 H   0  0  0  0  0  0  0  0  0  0  0  0
  132.1306  134.3450  158.7342 H   0  0  0  0  0  0  0  0  0  0  0  0
  133.8158  134.6379  159.2693 H   0  0  0  0  0  0  0  0  0  0  0  0
  130.2542  135.4586  160.6515 H   0  0  0  0  0  0  0  0  0  0  0  0
  131.1928  135.7833  162.1342 H   0  0  0  0  0  0  0  0  0  0  0  0
  1  2  2  0
  2 24  1  0
  2  3  1  0
  3  4  2  0
  3 41  1  0
  4  5  1  0
  4 22  1  0
  5  6  1  0
  5 42  1  0
  6  7  1  0
  6 13  1  0
  6 43  1  1
  7 12  1  0
  7  8  2  0
  8  9  1  0
  8 44  1  0
  9 10  2  0
  9 45  1  0
 10 11  1  0
 10 46  1  0
 11 12  2  0
 11 47  1  0
 12 48  1  0
 13 21  1  0
 13 14  2  0
 14 15  1  0
 14 49  1  0
 15 20  2  0
 15 16  1  0
 16 17  2  0
 16 50  1  0
 17 18  1  0
 17 51  1  0
 18 19  2  0
 18 52  1  0
 19 20  1  0
 19 53  1  0
 20 21  1  0
 22 23  1  0
 22 54  1  0
 22 55  1  0
 23 24  1  0
 23 56  1  0
 23 57  1  0
 24 25  1  0
 24 58  1  1
 25 26  1  0
 25 59  1  0
 25 60  1  0
 26 27  1  0
 26 33  1  0
 27 32  1  0
 27 28  2  0
 28 29  1  0
 29 30  2  0
 29 61  1  0
 30 31  1  0
 30 62  1  0
 31 32  2  0
 31 63  1  0
 33 34  1  1
 33 40  1  0
 33 35  1  0
 35 36  1  0
 35 64  1  0
 35 65  1  0
 36 37  1  0
 36 66  1  0
 36 67  1  0
 37 38  1  0
 37 39  1  0
 37 40  1  0
 40 68  1  0
 40 69  1  0
M  CHG  1  37   1
M  END
>  <DOCK_score>  (1) 
-51.608299

>  <SMILES>  (1) 
O=C1C=C(NC(c2ccccc2)c2cc3ccccc3o2)CCC1CN(c1ncccn1)[C@H]1CC[NH2+]C1

$$$$
