C[C@H](CCNc1ccc(-c2n[nH]cc2C[NH2+]CC2CC(Cl)C2)o1)Cc1ccccc1
     RDKit          3D

 62 65  0  0  1  0  0  0  0  0999 V2000
  126.3577  140.6213  164.7380 C   0  0  0  0  0  0  0  0  0  0  0  0
  127.2513  139.4915  164.2221 C   0  0  2  0  0  0  0  0  0  0  0  0
  127.8929  139.8702  163.4266 H   0  0  0  0  0  0  0  0  0  0  0  0
  126.3784  138.3590  163.6778 C   0  0  0  0  0  0  0  0  0  0  0  0
  127.2074  137.4841  162.7354 C   0  0  0  0  0  0  0  0  0  0  0  0
  126.3716  136.3996  162.2141 N   0  0  0  0  0  0  0  0  0  0  0  0
  126.9097  135.4700  161.3318 C   0  0  0  0  0  0  0  0  0  0  0  0
  126.2436  134.4277  160.7753 C   0  0  0  0  0  0  0  0  0  0  0  0
  127.1606  133.7474  159.9500 C   0  0  0  0  0  0  0  0  0  0  0  0
  128.3431  134.4106  160.0448 C   0  0  0  0  0  0  0  0  0  0  0  0
  129.5950  134.0522  159.3467 C   0  0  0  0  0  0  0  0  0  0  0  0
  129.7599  133.0386  158.5198 N   0  0  0  0  0  0  0  0  0  0  0  0
  131.0887  133.0506  158.0773 N   0  0  0  0  0  0  0  0  0  0  0  0
  131.4884  132.4180  157.4601 H   0  0  0  0  0  0  0  0  0  0  0  0
  131.7172  134.0955  158.6582 C   0  0  0  0  0  0  0  0  0  0  0  0
  130.8246  134.7374  159.4419 C   0  0  0  0  0  0  0  0  0  0  0  0
  131.0947  135.9647  160.2736 C   0  0  0  0  0  0  0  0  0  0  0  0
  130.8174  137.1671  159.4766 N   0  0  0  0  0  0  0  0  0  0  0  0
  131.4125  137.1754  158.6620 H   0  0  0  0  0  0  0  0  0  0  0  0
  129.8508  137.1631  159.1870 H   0  0  0  0  0  0  0  0  0  0  0  0
  131.0805  138.3634  160.2874 C   0  0  0  0  0  0  0  0  0  0  0  0
  132.5462  138.3695  160.7266 C   0  0  2  0  0  0  0  0  0  0  0  0
  133.0744  139.7672  161.0902 C   0  0  0  0  0  0  0  0  0  0  0  0
  134.3812  139.3701  160.3798 C   0  0  1  0  0  0  0  0  0  0  0  0
  135.5765  138.5688  161.4662 Cl  0  0  0  0  0  0  0  0  0  0  0  0
  133.5406  138.3822  159.5537 C   0  0  0  0  0  0  0  0  0  0  0  0
  128.1760  135.4562  160.8819 O   0  0  0  0  0  0  0  0  0  0  0  0
  128.1171  138.9627  165.3674 C   0  0  0  0  0  0  0  0  0  0  0  0
  129.2912  139.8840  165.5762 C   0  0  0  0  0  0  0  0  0  0  0  0
  130.4734  139.6624  164.8952 C   0  0  0  0  0  0  0  0  0  0  0  0
  131.5488  140.5104  165.0831 C   0  0  0  0  0  0  0  0  0  0  0  0
  131.4454  141.5739  165.9602 C   0  0  0  0  0  0  0  0  0  0  0  0
  130.2648  141.7925  166.6453 C   0  0  0  0  0  0  0  0  0  0  0  0
  129.1877  140.9475  166.4534 C   0  0  0  0  0  0  0  0  0  0  0  0
  126.9789  141.4539  165.0679 H   0  0  0  0  0  0  0  0  0  0  0  0
  125.6966  140.9557  163.9384 H   0  0  0  0  0  0  0  0  0  0  0  0
  125.7610  140.2591  165.5751 H   0  0  0  0  0  0  0  0  0  0  0  0
  125.5339  138.7811  163.1329 H   0  0  0  0  0  0  0  0  0  0  0  0
  126.0104  137.7535  164.5060 H   0  0  0  0  0  0  0  0  0  0  0  0
  128.0520  137.0621  163.2802 H   0  0  0  0  0  0  0  0  0  0  0  0
  127.5753  138.0894  161.9070 H   0  0  0  0  0  0  0  0  0  0  0  0
  125.4417  136.3326  162.4816 H   0  0  0  0  0  0  0  0  0  0  0  0
  125.2074  134.1684  160.9348 H   0  0  0  0  0  0  0  0  0  0  0  0
  126.9619  132.8678  159.3555 H   0  0  0  0  0  0  0  0  0  0  0  0
  132.7517  134.3718  158.5170 H   0  0  0  0  0  0  0  0  0  0  0  0
  130.4517  135.9557  161.1537 H   0  0  0  0  0  0  0  0  0  0  0  0
  132.1388  135.9690  160.5865 H   0  0  0  0  0  0  0  0  0  0  0  0
  130.8747  139.2558  159.6961 H   0  0  0  0  0  0  0  0  0  0  0  0
  130.4375  138.3546  161.1675 H   0  0  0  0  0  0  0  0  0  0  0  0
  132.7661  137.6106  161.4774 H   0  0  0  0  0  0  0  0  0  0  0  0
  132.5386  140.5784  160.5971 H   0  0  0  0  0  0  0  0  0  0  0  0
  133.1899  139.9252  162.1625 H   0  0  0  0  0  0  0  0  0  0  0  0
  134.8199  140.1725  159.7868 H   0  0  0  0  0  0  0  0  0  0  0  0
  134.0319  137.4235  159.3874 H   0  0  0  0  0  0  0  0  0  0  0  0
  133.1326  138.8140  158.6399 H   0  0  0  0  0  0  0  0  0  0  0  0
  127.5237  138.9175  166.2805 H   0  0  0  0  0  0  0  0  0  0  0  0
  128.4781  137.9647  165.1189 H   0  0  0  0  0  0  0  0  0  0  0  0
  130.5557  138.8290  164.2132 H   0  0  0  0  0  0  0  0  0  0  0  0
  132.4714  140.3395  164.5481 H   0  0  0  0  0  0  0  0  0  0  0  0
  132.2870  142.2337  166.1104 H   0  0  0  0  0  0  0  0  0  0  0  0
  130.1840  142.6231  167.3308 H   0  0  0  0  0  0  0  0  0  0  0  0
  128.2654  141.1181  166.9888 H   0  0  0  0  0  0  0  0  0  0  0  0
  1  2  1  0
  1 35  1  0
  1 36  1  0
  1 37  1  0
  2  3  1  6
  2  4  1  0
  2 28  1  0
  4  5  1  0
  4 38  1  0
  4 39  1  0
  5  6  1  0
  5 40  1  0
  5 41  1  0
  6  7  1  0
  6 42  1  0
  7 27  1  0
  7  8  2  0
  8  9  1  0
  8 43  1  0
  9 10  2  0
  9 44  1  0
 10 11  1  0
 10 27  1  0
 11 16  1  0
 11 12  2  0
 12 13  1  0
 13 14  1  0
 13 15  1  0
 15 16  2  0
 15 45  1  0
 16 17  1  0
 17 18  1  0
 17 46  1  0
 17 47  1  0
 18 19  1  0
 18 20  1  0
 18 21  1  0
 21 22  1  0
 21 48  1  0
 21 49  1  0
 22 26  1  0
 22 23  1  0
 22 50  1  1
 23 24  1  0
 23 51  1  0
 23 52  1  0
 24 25  1  0
 24 26  1  0
 24 53  1  6
 26 54  1  0
 26 55  1  0
 28 29  1  0
 28 56  1  0
 28 57  1  0
 29 34  1  0
 29 30  2  0
 30 31  1  0
 30 58  1  0
 31 32  2  0
 31 59  1  0
 32 33  1  0
 32 60  1  0
 33 34  2  0
 33 61  1  0
 34 62  1  0
M  CHG  1  18   1
M  END
>  <DOCK_score>  (1) 
-45.749653

>  <SMILES>  (1) 
C[C@H](CCNc1ccc(-c2n[nH]cc2C[NH2+]CC2CC(Cl)C2)o1)Cc1ccccc1

$$$$
