C/C=C/C[NH2+]Cc1cc(-c2ccccc2)ccc1OCC(C)(C)O
     RDKit          3D

 52 53  0  0  0  0  0  0  0  0999 V2000
  134.5794  139.1876  160.6357 C   0  0  0  0  0  0  0  0  0  0  0  0
  133.3479  138.8521  159.8344 C   0  0  0  0  0  0  0  0  0  0  0  0
  132.1680  138.8826  160.4029 C   0  0  0  0  0  0  0  0  0  0  0  0
  130.9366  138.5470  159.6016 C   0  0  0  0  0  0  0  0  0  0  0  0
  130.6713  137.1050  159.6926 N   0  0  0  0  0  0  0  0  0  0  0  0
  131.4605  136.5940  159.3263 H   0  0  0  0  0  0  0  0  0  0  0  0
  130.5243  136.8503  160.6577 H   0  0  0  0  0  0  0  0  0  0  0  0
  129.4708  136.7779  158.9115 C   0  0  0  0  0  0  0  0  0  0  0  0
  129.1986  135.2987  159.0048 C   0  0  0  0  0  0  0  0  0  0  0  0
  129.7485  134.4373  158.0784 C   0  0  0  0  0  0  0  0  0  0  0  0
  129.4998  133.0689  158.1677 C   0  0  0  0  0  0  0  0  0  0  0  0
  130.0938  132.1392  157.1759 C   0  0  0  0  0  0  0  0  0  0  0  0
  130.4069  130.8318  157.5430 C   0  0  0  0  0  0  0  0  0  0  0  0
  130.9540  129.9695  156.6145 C   0  0  0  0  0  0  0  0  0  0  0  0
  131.2024  130.4042  155.3251 C   0  0  0  0  0  0  0  0  0  0  0  0
  130.8984  131.7023  154.9568 C   0  0  0  0  0  0  0  0  0  0  0  0
  130.3458  132.5716  155.8754 C   0  0  0  0  0  0  0  0  0  0  0  0
  128.6871  132.5762  159.1876 C   0  0  0  0  0  0  0  0  0  0  0  0
  128.1364  133.4426  160.1079 C   0  0  0  0  0  0  0  0  0  0  0  0
  128.3902  134.8050  160.0194 C   0  0  0  0  0  0  0  0  0  0  0  0
  127.8457  135.6565  160.9274 O   0  0  0  0  0  0  0  0  0  0  0  0
  128.1902  135.4496  162.2988 C   0  0  0  0  0  0  0  0  0  0  0  0
  127.4871  136.4967  163.1648 C   0  0  0  0  0  0  0  0  0  0  0  0
  127.8559  136.2752  164.6331 C   0  0  0  0  0  0  0  0  0  0  0  0
  127.9300  137.8962  162.7333 C   0  0  0  0  0  0  0  0  0  0  0  0
  126.0722  136.3747  163.0055 O   0  0  0  0  0  0  0  0  0  0  0  0
  134.6708  138.4920  161.4697 H   0  0  0  0  0  0  0  0  0  0  0  0
  135.4601  139.1089  159.9984 H   0  0  0  0  0  0  0  0  0  0  0  0
  134.4977  140.2050  161.0184 H   0  0  0  0  0  0  0  0  0  0  0  0
  133.4380  138.5865  158.7914 H   0  0  0  0  0  0  0  0  0  0  0  0
  132.0779  139.1482  161.4458 H   0  0  0  0  0  0  0  0  0  0  0  0
  131.0955  138.8223  158.5590 H   0  0  0  0  0  0  0  0  0  0  0  0
  130.0841  139.0989  159.9973 H   0  0  0  0  0  0  0  0  0  0  0  0
  128.6183  137.3299  159.3073 H   0  0  0  0  0  0  0  0  0  0  0  0
  129.6296  137.0532  157.8689 H   0  0  0  0  0  0  0  0  0  0  0  0
  130.3740  134.8223  157.2867 H   0  0  0  0  0  0  0  0  0  0  0  0
  130.2181  130.4929  158.5509 H   0  0  0  0  0  0  0  0  0  0  0  0
  131.1926  128.9546  156.8966 H   0  0  0  0  0  0  0  0  0  0  0  0
  131.6351  129.7274  154.6033 H   0  0  0  0  0  0  0  0  0  0  0  0
  131.0943  132.0364  153.9486 H   0  0  0  0  0  0  0  0  0  0  0  0
  130.1089  133.5850  155.5867 H   0  0  0  0  0  0  0  0  0  0  0  0
  128.4888  131.5168  159.2565 H   0  0  0  0  0  0  0  0  0  0  0  0
  127.5067  133.0615  160.8982 H   0  0  0  0  0  0  0  0  0  0  0  0
  127.8745  134.4526  162.6062 H   0  0  0  0  0  0  0  0  0  0  0  0
  129.2693  135.5427  162.4204 H   0  0  0  0  0  0  0  0  0  0  0  0
  128.9351  136.3682  164.7547 H   0  0  0  0  0  0  0  0  0  0  0  0
  127.3551  137.0212  165.2502 H   0  0  0  0  0  0  0  0  0  0  0  0
  127.5403  135.2781  164.9405 H   0  0  0  0  0  0  0  0  0  0  0  0
  127.6673  138.0540  161.6873 H   0  0  0  0  0  0  0  0  0  0  0  0
  127.4292  138.6422  163.3503 H   0  0  0  0  0  0  0  0  0  0  0  0
  129.0092  137.9893  162.8549 H   0  0  0  0  0  0  0  0  0  0  0  0
  125.7662  136.5034  162.0973 H   0  0  0  0  0  0  0  0  0  0  0  0
  1  2  1  0
  1 27  1  0
  1 28  1  0
  1 29  1  0
  2  3  2  0
  2 30  1  0
  3  4  1  0
  3 31  1  0
  4  5  1  0
  4 32  1  0
  4 33  1  0
  5  6  1  0
  5  7  1  0
  5  8  1  0
  8  9  1  0
  8 34  1  0
  8 35  1  0
  9 20  2  0
  9 10  1  0
 10 11  2  0
 10 36  1  0
 11 12  1  0
 11 18  1  0
 12 17  1  0
 12 13  2  0
 13 14  1  0
 13 37  1  0
 14 15  2  0
 14 38  1  0
 15 16  1  0
 15 39  1  0
 16 17  2  0
 16 40  1  0
 17 41  1  0
 18 19  2  0
 18 42  1  0
 19 20  1  0
 19 43  1  0
 20 21  1  0
 21 22  1  0
 22 23  1  0
 22 44  1  0
 22 45  1  0
 23 24  1  0
 23 25  1  0
 23 26  1  0
 24 46  1  0
 24 47  1  0
 24 48  1  0
 25 49  1  0
 25 50  1  0
 25 51  1  0
 26 52  1  0
M  CHG  1   5   1
M  END
>  <DOCK_score>  (1) 
-42.231777

>  <SMILES>  (1) 
C/C=C/C[NH2+]Cc1cc(-c2ccccc2)ccc1OCC(C)(C)O

$$$$
