CNc1ccc(Nc2cccc(Nc3cccnc3)c2NC2=[NH+]CCN2)cn1
     RDKit          3D

 51 54  0  0  0  0  0  0  0  0999 V2000
  127.1701  138.1815  164.1832 C   0  0  0  0  0  0  0  0  0  0  0  0
  126.2574  137.3165  163.4315 N   0  0  0  0  0  0  0  0  0  0  0  0
  126.6495  136.0260  163.0830 C   0  0  0  0  0  0  0  0  0  0  0  0
  125.7767  135.2115  162.3690 C   0  0  0  0  0  0  0  0  0  0  0  0
  126.1756  133.9327  162.0272 C   0  0  0  0  0  0  0  0  0  0  0  0
  127.4459  133.5073  162.4147 C   0  0  0  0  0  0  0  0  0  0  0  0
  127.8921  132.2204  162.0900 N   0  0  0  0  0  0  0  0  0  0  0  0
  127.9855  131.8298  160.7496 C   0  0  0  0  0  0  0  0  0  0  0  0
  127.2539  130.7427  160.2890 C   0  0  0  0  0  0  0  0  0  0  0  0
  127.3420  130.3584  158.9644 C   0  0  0  0  0  0  0  0  0  0  0  0
  128.1650  131.0471  158.0929 C   0  0  0  0  0  0  0  0  0  0  0  0
  128.9048  132.1321  158.5436 C   0  0  0  0  0  0  0  0  0  0  0  0
  129.7383  132.8276  157.6603 N   0  0  0  0  0  0  0  0  0  0  0  0
  130.3279  132.1600  156.5839 C   0  0  0  0  0  0  0  0  0  0  0  0
  130.6082  132.8378  155.3992 C   0  0  0  0  0  0  0  0  0  0  0  0
  131.1976  132.1340  154.3623 C   0  0  0  0  0  0  0  0  0  0  0  0
  131.4761  130.7899  154.5308 C   0  0  0  0  0  0  0  0  0  0  0  0
  131.1938  130.1759  155.6630 N   0  0  0  0  0  0  0  0  0  0  0  0
  130.6381  130.8090  156.6768 C   0  0  0  0  0  0  0  0  0  0  0  0
  128.8164  132.5266  159.8762 C   0  0  0  0  0  0  0  0  0  0  0  0
  129.5621  133.6236  160.3374 N   0  0  0  0  0  0  0  0  0  0  0  0
  129.3752  134.8603  159.7816 C   0  0  0  0  0  0  0  0  0  0  0  0
  130.0442  135.9311  160.1782 N   0  0  0  0  0  0  0  0  0  0  0  0
  130.7132  135.9472  160.8804 H   0  0  0  0  0  0  0  0  0  0  0  0
  129.6158  137.0925  159.3831 C   0  0  0  0  0  0  0  0  0  0  0  0
  128.5487  136.5060  158.4370 C   0  0  0  0  0  0  0  0  0  0  0  0
  128.5069  135.0829  158.8078 N   0  0  0  0  0  0  0  0  0  0  0  0
  128.2616  134.3746  163.1255 C   0  0  0  0  0  0  0  0  0  0  0  0
  127.8481  135.5892  163.4344 N   0  0  0  0  0  0  0  0  0  0  0  0
  126.6927  139.1449  164.3621 H   0  0  0  0  0  0  0  0  0  0  0  0
  127.4117  137.7130  165.1372 H   0  0  0  0  0  0  0  0  0  0  0  0
  128.0849  138.3303  163.6094 H   0  0  0  0  0  0  0  0  0  0  0  0
  125.3801  137.6422  163.1766 H   0  0  0  0  0  0  0  0  0  0  0  0
  124.7999  135.5739  162.0847 H   0  0  0  0  0  0  0  0  0  0  0  0
  125.5207  133.2801  161.4690 H   0  0  0  0  0  0  0  0  0  0  0  0
  128.1365  131.5996  162.7941 H   0  0  0  0  0  0  0  0  0  0  0  0
  126.6123  130.1988  160.9665 H   0  0  0  0  0  0  0  0  0  0  0  0
  126.7684  129.5150  158.6098 H   0  0  0  0  0  0  0  0  0  0  0  0
  128.2328  130.7402  157.0597 H   0  0  0  0  0  0  0  0  0  0  0  0
  129.9068  133.7733  157.7954 H   0  0  0  0  0  0  0  0  0  0  0  0
  130.3756  133.8872  155.2937 H   0  0  0  0  0  0  0  0  0  0  0  0
  131.4325  132.6279  153.4311 H   0  0  0  0  0  0  0  0  0  0  0  0
  131.9316  130.2355  153.7236 H   0  0  0  0  0  0  0  0  0  0  0  0
  130.4219  130.2723  157.5887 H   0  0  0  0  0  0  0  0  0  0  0  0
  130.2097  133.5049  161.0497 H   0  0  0  0  0  0  0  0  0  0  0  0
  130.4506  137.5013  158.8138 H   0  0  0  0  0  0  0  0  0  0  0  0
  129.1795  137.8552  160.0281 H   0  0  0  0  0  0  0  0  0  0  0  0
  128.8520  136.6228  157.3965 H   0  0  0  0  0  0  0  0  0  0  0  0
  127.5802  136.9759  158.6083 H   0  0  0  0  0  0  0  0  0  0  0  0
  127.9333  134.4135  158.4030 H   0  0  0  0  0  0  0  0  0  0  0  0
  129.2467  134.0526  163.4294 H   0  0  0  0  0  0  0  0  0  0  0  0
  1  2  1  0
  1 30  1  0
  1 31  1  0
  1 32  1  0
  2  3  1  0
  2 33  1  0
  3 29  2  0
  3  4  1  0
  4  5  2  0
  4 34  1  0
  5  6  1  0
  5 35  1  0
  6  7  1  0
  6 28  2  0
  7  8  1  0
  7 36  1  0
  8 20  1  0
  8  9  2  0
  9 10  1  0
  9 37  1  0
 10 11  2  0
 10 38  1  0
 11 12  1  0
 11 39  1  0
 12 13  1  0
 12 20  2  0
 13 14  1  0
 13 40  1  0
 14 19  1  0
 14 15  2  0
 15 16  1  0
 15 41  1  0
 16 17  2  0
 16 42  1  0
 17 18  1  0
 17 43  1  0
 18 19  2  0
 19 44  1  0
 20 21  1  0
 21 22  1  0
 21 45  1  0
 22 27  2  0
 22 23  1  0
 23 24  1  0
 23 25  1  0
 25 26  1  0
 25 46  1  0
 25 47  1  0
 26 27  1  0
 26 48  1  0
 26 49  1  0
 27 50  1  0
 28 29  1  0
 28 51  1  0
M  CHG  1  27   1
M  END
>  <DOCK_score>  (1) 
-41.062153

>  <SMILES>  (1) 
CNc1ccc(Nc2cccc(Nc3cccnc3)c2NC2=[NH+]CCN2)cn1

$$$$
