CC1=CCC=C([C@H](c2ccccc2)[NH+]2CCN(c3cccc(C)c3C)CC2)C1
     RDKit          3D

 61 64  0  0  1  0  0  0  0  0999 V2000
  130.9297  131.7797  155.5471 C   0  0  0  0  0  0  0  0  0  0  0  0
  131.0256  131.8927  157.0469 C   0  0  0  0  0  0  0  0  0  0  0  0
  131.1792  130.8077  157.7428 C   0  0  0  0  0  0  0  0  0  0  0  0
  131.2860  130.8093  159.2381 C   0  0  0  0  0  0  0  0  0  0  0  0
  130.7349  132.0766  159.8194 C   0  0  0  0  0  0  0  0  0  0  0  0
  130.5808  133.1616  159.1234 C   0  0  0  0  0  0  0  0  0  0  0  0
  130.0177  134.3818  159.8054 C   0  0  2  0  0  0  0  0  0  0  0  0
  129.8116  134.1511  160.8506 H   0  0  0  0  0  0  0  0  0  0  0  0
  128.7404  134.7953  159.1208 C   0  0  0  0  0  0  0  0  0  0  0  0
  128.7787  135.6918  158.0693 C   0  0  0  0  0  0  0  0  0  0  0  0
  127.6075  136.0681  157.4389 C   0  0  0  0  0  0  0  0  0  0  0  0
  126.3971  135.5545  157.8654 C   0  0  0  0  0  0  0  0  0  0  0  0
  126.3583  134.6615  158.9200 C   0  0  0  0  0  0  0  0  0  0  0  0
  127.5300  134.2823  159.5480 C   0  0  0  0  0  0  0  0  0  0  0  0
  130.9916  135.4788  159.7289 N   0  0  0  0  0  0  0  0  0  0  0  0
  131.1822  135.6920  158.7612 H   0  0  0  0  0  0  0  0  0  0  0  0
  132.2367  135.0752  160.3955 C   0  0  0  0  0  0  0  0  0  0  0  0
  133.2581  136.2106  160.2996 C   0  0  0  0  0  0  0  0  0  0  0  0
  132.7086  137.4151  160.9379 N   0  0  0  0  0  0  0  0  0  0  0  0
  133.6357  138.4596  160.9177 C   0  0  0  0  0  0  0  0  0  0  0  0
  134.1164  138.9407  159.7061 C   0  0  0  0  0  0  0  0  0  0  0  0
  135.0325  139.9735  159.6896 C   0  0  0  0  0  0  0  0  0  0  0  0
  135.4722  140.5291  160.8775 C   0  0  0  0  0  0  0  0  0  0  0  0
  134.9959  140.0528  162.0850 C   0  0  0  0  0  0  0  0  0  0  0  0
  135.4778  140.6612  163.3768 C   0  0  0  0  0  0  0  0  0  0  0  0
  134.0751  139.0235  162.1085 C   0  0  0  0  0  0  0  0  0  0  0  0
  133.5519  138.5093  163.4248 C   0  0  0  0  0  0  0  0  0  0  0  0
  131.4485  137.8170  160.2970 C   0  0  0  0  0  0  0  0  0  0  0  0
  130.4421  136.6682  160.3929 C   0  0  0  0  0  0  0  0  0  0  0  0
  130.9334  133.2514  157.6690 C   0  0  0  0  0  0  0  0  0  0  0  0
  131.0093  130.7325  155.2558 H   0  0  0  0  0  0  0  0  0  0  0  0
  129.9714  132.1777  155.2133 H   0  0  0  0  0  0  0  0  0  0  0  0
  131.7388  132.3474  155.0876 H   0  0  0  0  0  0  0  0  0  0  0  0
  131.2327  129.8629  157.2221 H   0  0  0  0  0  0  0  0  0  0  0  0
  132.3340  130.7124  159.5216 H   0  0  0  0  0  0  0  0  0  0  0  0
  130.7291  129.9616  159.6371 H   0  0  0  0  0  0  0  0  0  0  0  0
  130.4536  132.0872  160.8620 H   0  0  0  0  0  0  0  0  0  0  0  0
  129.7240  136.0959  157.7384 H   0  0  0  0  0  0  0  0  0  0  0  0
  127.6379  136.7660  156.6151 H   0  0  0  0  0  0  0  0  0  0  0  0
  125.4817  135.8511  157.3751 H   0  0  0  0  0  0  0  0  0  0  0  0
  125.4126  134.2605  159.2535 H   0  0  0  0  0  0  0  0  0  0  0  0
  127.4996  133.5851  160.3721 H   0  0  0  0  0  0  0  0  0  0  0  0
  132.6366  134.1850  159.9101 H   0  0  0  0  0  0  0  0  0  0  0  0
  132.0333  134.8570  161.4438 H   0  0  0  0  0  0  0  0  0  0  0  0
  134.1770  135.9171  160.8071 H   0  0  0  0  0  0  0  0  0  0  0  0
  133.4719  136.4200  159.2515 H   0  0  0  0  0  0  0  0  0  0  0  0
  133.7734  138.5074  158.7781 H   0  0  0  0  0  0  0  0  0  0  0  0
  135.4065  140.3480  158.7481 H   0  0  0  0  0  0  0  0  0  0  0  0
  136.1887  141.3368  160.8619 H   0  0  0  0  0  0  0  0  0  0  0  0
  134.8256  141.4892  163.6540 H   0  0  0  0  0  0  0  0  0  0  0  0
  135.4604  139.9060  164.1628 H   0  0  0  0  0  0  0  0  0  0  0  0
  136.4960  141.0280  163.2480 H   0  0  0  0  0  0  0  0  0  0  0  0
  134.2399  137.7634  163.8229 H   0  0  0  0  0  0  0  0  0  0  0  0
  133.4653  139.3363  164.1296 H   0  0  0  0  0  0  0  0  0  0  0  0
  132.5721  138.0560  163.2744 H   0  0  0  0  0  0  0  0  0  0  0  0
  131.6326  138.0526  159.2488 H   0  0  0  0  0  0  0  0  0  0  0  0
  131.0472  138.6953  160.8026 H   0  0  0  0  0  0  0  0  0  0  0  0
  129.5113  136.9589  159.9056 H   0  0  0  0  0  0  0  0  0  0  0  0
  130.2479  136.4418  161.4412 H   0  0  0  0  0  0  0  0  0  0  0  0
  130.1702  133.8326  157.1517 H   0  0  0  0  0  0  0  0  0  0  0  0
  131.8952  133.7536  157.5648 H   0  0  0  0  0  0  0  0  0  0  0  0
  1  2  1  0
  1 31  1  0
  1 32  1  0
  1 33  1  0
  2 30  1  0
  2  3  2  0
  3  4  1  0
  3 34  1  0
  4  5  1  0
  4 35  1  0
  4 36  1  0
  5  6  2  0
  5 37  1  0
  6  7  1  0
  6 30  1  0
  7  8  1  1
  7  9  1  0
  7 15  1  0
  9 14  1  0
  9 10  2  0
 10 11  1  0
 10 38  1  0
 11 12  2  0
 11 39  1  0
 12 13  1  0
 12 40  1  0
 13 14  2  0
 13 41  1  0
 14 42  1  0
 15 16  1  0
 15 29  1  0
 15 17  1  0
 17 18  1  0
 17 43  1  0
 17 44  1  0
 18 19  1  0
 18 45  1  0
 18 46  1  0
 19 20  1  0
 19 28  1  0
 20 26  1  0
 20 21  2  0
 21 22  1  0
 21 47  1  0
 22 23  2  0
 22 48  1  0
 23 24  1  0
 23 49  1  0
 24 25  1  0
 24 26  2  0
 25 50  1  0
 25 51  1  0
 25 52  1  0
 26 27  1  0
 27 53  1  0
 27 54  1  0
 27 55  1  0
 28 29  1  0
 28 56  1  0
 28 57  1  0
 29 58  1  0
 29 59  1  0
 30 60  1  0
 30 61  1  0
M  CHG  1  15   1
M  END
>  <DOCK_score>  (1) 
-56.640396

>  <SMILES>  (1) 
CC1=CCC=C([C@H](c2ccccc2)[NH+]2CCN(c3cccc(C)c3C)CC2)C1

$$$$
