Brc1c[nH]c(C[N@H+]2CC=C(c3ccc(NC(c4ccccc4)c4ccccc4)cc3)CC2)c1
     RDKit          3D

 62 66  0  0  1  0  0  0  0  0999 V2000
  130.6587  129.5667  158.0916 Br  0  0  0  0  0  0  0  0  0  0  0  0
  130.2406  131.3436  157.5981 C   0  0  0  0  0  0  0  0  0  0  0  0
  130.4776  131.9164  156.3999 C   0  0  0  0  0  0  0  0  0  0  0  0
  130.0298  133.2043  156.4473 N   0  0  0  0  0  0  0  0  0  0  0  0
  130.0755  133.8456  155.7210 H   0  0  0  0  0  0  0  0  0  0  0  0
  129.5080  133.4410  157.6844 C   0  0  0  0  0  0  0  0  0  0  0  0
  128.9051  134.7396  158.1550 C   0  0  0  0  0  0  0  0  0  0  0  0
  129.9530  135.5777  158.7529 N   0  0  1  0  0  0  0  0  0  0  0  0
  130.7985  135.5015  158.2075 H   0  0  0  0  0  0  0  0  0  0  0  0
  129.5078  136.9758  158.7798 C   0  0  0  0  0  0  0  0  0  0  0  0
  130.4810  137.8205  159.5504 C   0  0  0  0  0  0  0  0  0  0  0  0
  131.3614  137.3146  160.3876 C   0  0  0  0  0  0  0  0  0  0  0  0
  132.2723  138.2314  161.1037 C   0  0  0  0  0  0  0  0  0  0  0  0
  132.2617  138.2794  162.4989 C   0  0  0  0  0  0  0  0  0  0  0  0
  133.1158  139.1321  163.1640 C   0  0  0  0  0  0  0  0  0  0  0  0
  133.9801  139.9518  162.4467 C   0  0  0  0  0  0  0  0  0  0  0  0
  134.8396  140.8183  163.1230 N   0  0  0  0  0  0  0  0  0  0  0  0
  135.3362  140.4655  164.4554 C   0  0  0  0  0  0  0  0  0  0  0  0
  136.1084  139.1737  164.3778 C   0  0  0  0  0  0  0  0  0  0  0  0
  136.1493  138.3262  165.4692 C   0  0  0  0  0  0  0  0  0  0  0  0
  136.8535  137.1390  165.3963 C   0  0  0  0  0  0  0  0  0  0  0  0
  137.5256  136.8042  164.2358 C   0  0  0  0  0  0  0  0  0  0  0  0
  137.4891  137.6540  163.1461 C   0  0  0  0  0  0  0  0  0  0  0  0
  136.7804  138.8389  163.2173 C   0  0  0  0  0  0  0  0  0  0  0  0
  136.2390  141.5609  164.9614 C   0  0  0  0  0  0  0  0  0  0  0  0
  136.3310  141.8093  166.3180 C   0  0  0  0  0  0  0  0  0  0  0  0
  137.1629  142.8107  166.7825 C   0  0  0  0  0  0  0  0  0  0  0  0
  137.8950  143.5708  165.8894 C   0  0  0  0  0  0  0  0  0  0  0  0
  137.7990  143.3257  164.5323 C   0  0  0  0  0  0  0  0  0  0  0  0
  136.9711  142.3207  164.0684 C   0  0  0  0  0  0  0  0  0  0  0  0
  133.9892  139.9101  161.0569 C   0  0  0  0  0  0  0  0  0  0  0  0
  133.1411  139.0556  160.3862 C   0  0  0  0  0  0  0  0  0  0  0  0
  131.4731  135.8364  160.6419 C   0  0  0  0  0  0  0  0  0  0  0  0
  130.2139  135.1317  160.1306 C   0  0  0  0  0  0  0  0  0  0  0  0
  129.6187  132.3113  158.4123 C   0  0  0  0  0  0  0  0  0  0  0  0
  130.9422  131.4383  155.5503 H   0  0  0  0  0  0  0  0  0  0  0  0
  128.4612  135.2621  157.3078 H   0  0  0  0  0  0  0  0  0  0  0  0
  128.1355  134.5342  158.8991 H   0  0  0  0  0  0  0  0  0  0  0  0
  129.4348  137.3507  157.7588 H   0  0  0  0  0  0  0  0  0  0  0  0
  128.5275  137.0331  159.2527 H   0  0  0  0  0  0  0  0  0  0  0  0
  130.4578  138.8913  159.4112 H   0  0  0  0  0  0  0  0  0  0  0  0
  131.5877  137.6460  163.0564 H   0  0  0  0  0  0  0  0  0  0  0  0
  133.1108  139.1667  164.2434 H   0  0  0  0  0  0  0  0  0  0  0  0
  135.1084  141.6543  162.7109 H   0  0  0  0  0  0  0  0  0  0  0  0
  134.4939  140.3450  165.1367 H   0  0  0  0  0  0  0  0  0  0  0  0
  135.6277  138.5899  166.3775 H   0  0  0  0  0  0  0  0  0  0  0  0
  136.8825  136.4751  166.2477 H   0  0  0  0  0  0  0  0  0  0  0  0
  138.0796  135.8787  164.1803 H   0  0  0  0  0  0  0  0  0  0  0  0
  138.0145  137.3926  162.2395 H   0  0  0  0  0  0  0  0  0  0  0  0
  136.7521  139.5029  162.3661 H   0  0  0  0  0  0  0  0  0  0  0  0
  135.7557  141.2184  167.0154 H   0  0  0  0  0  0  0  0  0  0  0  0
  137.2376  143.0026  167.8426 H   0  0  0  0  0  0  0  0  0  0  0  0
  138.5416  144.3562  166.2519 H   0  0  0  0  0  0  0  0  0  0  0  0
  138.3707  143.9197  163.8346 H   0  0  0  0  0  0  0  0  0  0  0  0
  136.8958  142.1295  163.0080 H   0  0  0  0  0  0  0  0  0  0  0  0
  134.6615  140.5482  160.5025 H   0  0  0  0  0  0  0  0  0  0  0  0
  133.1485  139.0239  159.3068 H   0  0  0  0  0  0  0  0  0  0  0  0
  131.5791  135.6591  161.7122 H   0  0  0  0  0  0  0  0  0  0  0  0
  132.3460  135.4436  160.1207 H   0  0  0  0  0  0  0  0  0  0  0  0
  129.3666  135.3901  160.7655 H   0  0  0  0  0  0  0  0  0  0  0  0
  130.3680  134.0527  160.1429 H   0  0  0  0  0  0  0  0  0  0  0  0
  129.2933  132.1742  159.4330 H   0  0  0  0  0  0  0  0  0  0  0  0
  1  2  1  0
  2 35  1  0
  2  3  2  0
  3  4  1  0
  3 36  1  0
  4  5  1  0
  4  6  1  0
  6  7  1  0
  6 35  2  0
  7  8  1  0
  7 37  1  0
  7 38  1  0
  8  9  1  6
  8 34  1  0
  8 10  1  0
 10 11  1  0
 10 39  1  0
 10 40  1  0
 11 12  2  0
 11 41  1  0
 12 13  1  0
 12 33  1  0
 13 32  1  0
 13 14  2  0
 14 15  1  0
 14 42  1  0
 15 16  2  0
 15 43  1  0
 16 17  1  0
 16 31  1  0
 17 18  1  0
 17 44  1  0
 18 19  1  0
 18 25  1  0
 18 45  1  0
 19 24  1  0
 19 20  2  0
 20 21  1  0
 20 46  1  0
 21 22  2  0
 21 47  1  0
 22 23  1  0
 22 48  1  0
 23 24  2  0
 23 49  1  0
 24 50  1  0
 25 30  1  0
 25 26  2  0
 26 27  1  0
 26 51  1  0
 27 28  2  0
 27 52  1  0
 28 29  1  0
 28 53  1  0
 29 30  2  0
 29 54  1  0
 30 55  1  0
 31 32  2  0
 31 56  1  0
 32 57  1  0
 33 34  1  0
 33 58  1  0
 33 59  1  0
 34 60  1  0
 34 61  1  0
 35 62  1  0
M  CHG  1   8   1
M  END
>  <DOCK_score>  (1) 
-59.113564

>  <SMILES>  (1) 
Brc1c[nH]c(C[N@H+]2CC=C(c3ccc(NC(c4ccccc4)c4ccccc4)cc3)CC2)c1

$$$$
