Nc1ccc(-c2ccc3c(c2)OC[C@H]([NH+]=C(NC2CC=CC2)N[C@H]2CCC(=O)NC2)C3)cc1
     RDKit          3D

 65 69  0  0  1  0  0  0  0  0999 V2000
  136.9689  139.6570  168.1175 N   0  0  0  0  0  0  0  0  0  0  0  0
  136.3126  139.1150  167.0116 C   0  0  0  0  0  0  0  0  0  0  0  0
  135.5658  137.9505  167.1496 C   0  0  0  0  0  0  0  0  0  0  0  0
  134.9174  137.4129  166.0582 C   0  0  0  0  0  0  0  0  0  0  0  0
  135.0107  138.0379  164.8158 C   0  0  0  0  0  0  0  0  0  0  0  0
  134.3139  137.4612  163.6400 C   0  0  0  0  0  0  0  0  0  0  0  0
  133.8610  138.2927  162.6169 C   0  0  0  0  0  0  0  0  0  0  0  0
  133.2164  137.7500  161.5258 C   0  0  0  0  0  0  0  0  0  0  0  0
  133.0134  136.3813  161.4377 C   0  0  0  0  0  0  0  0  0  0  0  0
  133.4575  135.5485  162.4512 C   0  0  0  0  0  0  0  0  0  0  0  0
  134.1098  136.0881  163.5529 C   0  0  0  0  0  0  0  0  0  0  0  0
  133.2725  134.2031  162.4049 O   0  0  0  0  0  0  0  0  0  0  0  0
  132.9499  133.6159  161.1439 C   0  0  0  0  0  0  0  0  0  0  0  0
  131.8021  134.4173  160.5168 C   0  0  2  0  0  0  0  0  0  0  0  0
  130.9633  134.4628  161.2114 H   0  0  0  0  0  0  0  0  0  0  0  0
  131.3764  133.7768  159.2698 N   0  0  0  0  0  0  0  0  0  0  0  0
  132.0160  133.2784  158.7376 H   0  0  0  0  0  0  0  0  0  0  0  0
  130.1381  133.8769  158.8755 C   0  0  0  0  0  0  0  0  0  0  0  0
  129.7384  133.2760  157.7054 N   0  0  0  0  0  0  0  0  0  0  0  0
  130.7045  132.5230  156.9016 C   0  0  0  0  0  0  0  0  0  0  0  0
  130.2362  132.4107  155.4323 C   0  0  0  0  0  0  0  0  0  0  0  0
  130.6501  131.0216  155.0029 C   0  0  0  0  0  0  0  0  0  0  0  0
  130.9259  130.2728  156.0359 C   0  0  0  0  0  0  0  0  0  0  0  0
  130.7413  131.0366  157.3263 C   0  0  0  0  0  0  0  0  0  0  0  0
  129.2314  134.5835  159.6300 N   0  0  0  0  0  0  0  0  0  0  0  0
  127.8166  134.2034  159.6207 C   0  0  1  0  0  0  0  0  0  0  0  0
  127.4230  134.2746  158.6067 H   0  0  0  0  0  0  0  0  0  0  0  0
  127.6669  132.7650  160.1308 C   0  0  0  0  0  0  0  0  0  0  0  0
  126.2111  132.3328  159.9391 C   0  0  0  0  0  0  0  0  0  0  0  0
  125.2894  133.3876  160.4807 C   0  0  0  0  0  0  0  0  0  0  0  0
  124.1379  133.0820  160.7076 O   0  0  0  0  0  0  0  0  0  0  0  0
  125.6693  134.6423  160.7251 N   0  0  0  0  0  0  0  0  0  0  0  0
  127.0291  135.1346  160.5433 C   0  0  0  0  0  0  0  0  0  0  0  0
  132.3066  135.8323  160.2238 C   0  0  0  0  0  0  0  0  0  0  0  0
  135.7644  139.2026  164.6784 C   0  0  0  0  0  0  0  0  0  0  0  0
  136.4069  139.7398  165.7733 C   0  0  0  0  0  0  0  0  0  0  0  0
  136.9038  139.2215  168.9817 H   0  0  0  0  0  0  0  0  0  0  0  0
  137.4902  140.4696  168.0219 H   0  0  0  0  0  0  0  0  0  0  0  0
  135.4938  137.4666  168.1125 H   0  0  0  0  0  0  0  0  0  0  0  0
  134.3375  136.5082  166.1660 H   0  0  0  0  0  0  0  0  0  0  0  0
  134.0151  139.3599  162.6786 H   0  0  0  0  0  0  0  0  0  0  0  0
  132.8669  138.3957  160.7337 H   0  0  0  0  0  0  0  0  0  0  0  0
  134.4586  135.4401  164.3434 H   0  0  0  0  0  0  0  0  0  0  0  0
  132.6393  132.5811  161.2886 H   0  0  0  0  0  0  0  0  0  0  0  0
  133.8217  133.6500  160.4904 H   0  0  0  0  0  0  0  0  0  0  0  0
  128.8169  133.3504  157.4120 H   0  0  0  0  0  0  0  0  0  0  0  0
  131.6958  132.9721  156.9632 H   0  0  0  0  0  0  0  0  0  0  0  0
  129.1535  132.5205  155.3692 H   0  0  0  0  0  0  0  0  0  0  0  0
  130.7314  133.1622  154.8173 H   0  0  0  0  0  0  0  0  0  0  0  0
  130.7102  130.6922  153.9762 H   0  0  0  0  0  0  0  0  0  0  0  0
  131.2439  129.2423  155.9759 H   0  0  0  0  0  0  0  0  0  0  0  0
  131.5797  130.8543  157.9987 H   0  0  0  0  0  0  0  0  0  0  0  0
  129.8034  130.7552  157.8054 H   0  0  0  0  0  0  0  0  0  0  0  0
  129.5286  135.3338  160.1682 H   0  0  0  0  0  0  0  0  0  0  0  0
  127.9263  132.7220  161.1886 H   0  0  0  0  0  0  0  0  0  0  0  0
  128.3235  132.1043  159.5648 H   0  0  0  0  0  0  0  0  0  0  0  0
  126.0391  131.3954  160.4681 H   0  0  0  0  0  0  0  0  0  0  0  0
  126.0138  132.1905  158.8767 H   0  0  0  0  0  0  0  0  0  0  0  0
  124.9988  135.2663  161.0441 H   0  0  0  0  0  0  0  0  0  0  0  0
  126.9955  136.1321  160.1051 H   0  0  0  0  0  0  0  0  0  0  0  0
  127.5260  135.1866  161.5121 H   0  0  0  0  0  0  0  0  0  0  0  0
  132.9995  135.8035  159.3829 H   0  0  0  0  0  0  0  0  0  0  0  0
  131.4615  136.4745  159.9756 H   0  0  0  0  0  0  0  0  0  0  0  0
  135.8416  139.6859  163.7156 H   0  0  0  0  0  0  0  0  0  0  0  0
  136.9872  140.6447  165.6683 H   0  0  0  0  0  0  0  0  0  0  0  0
  1  2  1  0
  1 37  1  0
  1 38  1  0
  2 36  2  0
  2  3  1  0
  3  4  2  0
  3 39  1  0
  4  5  1  0
  4 40  1  0
  5  6  1  0
  5 35  2  0
  6 11  1  0
  6  7  2  0
  7  8  1  0
  7 41  1  0
  8  9  2  0
  8 42  1  0
  9 34  1  0
  9 10  1  0
 10 11  2  0
 10 12  1  0
 11 43  1  0
 12 13  1  0
 13 14  1  0
 13 44  1  0
 13 45  1  0
 14 15  1  1
 14 16  1  0
 14 34  1  0
 16 17  1  0
 18 16  2  0
 18 19  1  0
 18 25  1  0
 19 20  1  0
 19 46  1  0
 20 24  1  0
 20 21  1  0
 20 47  1  0
 21 22  1  0
 21 48  1  0
 21 49  1  0
 22 23  2  0
 22 50  1  0
 23 24  1  0
 23 51  1  0
 24 52  1  0
 24 53  1  0
 25 26  1  0
 25 54  1  0
 26 27  1  6
 26 33  1  0
 26 28  1  0
 28 29  1  0
 28 55  1  0
 28 56  1  0
 29 30  1  0
 29 57  1  0
 29 58  1  0
 30 31  2  0
 30 32  1  0
 32 33  1  0
 32 59  1  0
 33 60  1  0
 33 61  1  0
 34 62  1  0
 34 63  1  0
 35 36  1  0
 35 64  1  0
 36 65  1  0
M  CHG  1  16   1
M  END
>  <DOCK_score>  (1) 
-42.012123

>  <SMILES>  (1) 
Nc1ccc(-c2ccc3c(c2)OC[C@H]([NH+]=C(NC2CC=CC2)N[C@H]2CCC(=O)NC2)C3)cc1

$$$$
