OC(c1ccccc1)[C@@H](Cc1ccccc1)Nc1[nH]cc(-c2ccccc2)[nH+]1
     RDKit          3D

 52 55  0  0  1  0  0  0  0  0999 V2000
  132.5230  136.1205  160.2831 O   0  0  0  0  0  0  0  0  0  0  0  0
  131.4910  136.4239  161.2238 C   0  0  1  0  0  0  0  0  0  0  0  0
  131.1378  137.8859  161.1281 C   0  0  0  0  0  0  0  0  0  0  0  0
  130.6762  138.5598  162.2432 C   0  0  0  0  0  0  0  0  0  0  0  0
  130.3568  139.9019  162.1564 C   0  0  0  0  0  0  0  0  0  0  0  0
  130.4892  140.5676  160.9521 C   0  0  0  0  0  0  0  0  0  0  0  0
  130.9458  139.8922  159.8358 C   0  0  0  0  0  0  0  0  0  0  0  0
  131.2702  138.5514  159.9237 C   0  0  0  0  0  0  0  0  0  0  0  0
  130.2538  135.5789  160.9137 C   0  0  1  0  0  0  0  0  0  0  0  0
  130.3898  134.5746  161.3150 H   0  0  0  0  0  0  0  0  0  0  0  0
  129.0228  136.2222  161.5552 C   0  0  0  0  0  0  0  0  0  0  0  0
  127.8043  135.3899  161.2496 C   0  0  0  0  0  0  0  0  0  0  0  0
  127.0564  135.6495  160.1165 C   0  0  0  0  0  0  0  0  0  0  0  0
  125.9413  134.8828  159.8338 C   0  0  0  0  0  0  0  0  0  0  0  0
  125.5682  133.8634  160.6896 C   0  0  0  0  0  0  0  0  0  0  0  0
  126.3132  133.6072  161.8255 C   0  0  0  0  0  0  0  0  0  0  0  0
  127.4312  134.3704  162.1056 C   0  0  0  0  0  0  0  0  0  0  0  0
  130.0652  135.5034  159.4628 N   0  0  0  0  0  0  0  0  0  0  0  0
  130.0801  134.2744  158.8259 C   0  0  0  0  0  0  0  0  0  0  0  0
  129.6848  133.0928  159.3735 N   0  0  0  0  0  0  0  0  0  0  0  0
  129.3452  132.9615  160.2726 H   0  0  0  0  0  0  0  0  0  0  0  0
  129.8558  132.1206  158.4183 C   0  0  0  0  0  0  0  0  0  0  0  0
  130.3501  132.7353  157.3152 C   0  0  0  0  0  0  0  0  0  0  0  0
  130.6922  132.0792  156.0297 C   0  0  0  0  0  0  0  0  0  0  0  0
  130.5822  132.7852  154.8329 C   0  0  0  0  0  0  0  0  0  0  0  0
  130.9081  132.1716  153.6405 C   0  0  0  0  0  0  0  0  0  0  0  0
  131.3309  130.8542  153.6304 C   0  0  0  0  0  0  0  0  0  0  0  0
  131.4361  130.1471  154.8144 C   0  0  0  0  0  0  0  0  0  0  0  0
  131.1192  130.7525  156.0133 C   0  0  0  0  0  0  0  0  0  0  0  0
  130.4716  134.0576  157.5939 N   0  0  0  0  0  0  0  0  0  0  0  0
  130.7984  134.7340  156.9804 H   0  0  0  0  0  0  0  0  0  0  0  0
  132.2811  136.2960  159.3634 H   0  0  0  0  0  0  0  0  0  0  0  0
  131.8407  136.1998  162.2316 H   0  0  0  0  0  0  0  0  0  0  0  0
  130.5687  138.0387  163.1830 H   0  0  0  0  0  0  0  0  0  0  0  0
  129.9998  140.4295  163.0287 H   0  0  0  0  0  0  0  0  0  0  0  0
  130.2354  141.6150  160.8834 H   0  0  0  0  0  0  0  0  0  0  0  0
  131.0488  140.4122  158.8949 H   0  0  0  0  0  0  0  0  0  0  0  0
  131.6266  138.0237  159.0514 H   0  0  0  0  0  0  0  0  0  0  0  0
  128.8869  137.2264  161.1538 H   0  0  0  0  0  0  0  0  0  0  0  0
  129.1632  136.2783  162.6346 H   0  0  0  0  0  0  0  0  0  0  0  0
  127.3453  136.4488  159.4501 H   0  0  0  0  0  0  0  0  0  0  0  0
  125.3591  135.0832  158.9464 H   0  0  0  0  0  0  0  0  0  0  0  0
  124.6946  133.2673  160.4709 H   0  0  0  0  0  0  0  0  0  0  0  0
  126.0215  132.8110  162.4944 H   0  0  0  0  0  0  0  0  0  0  0  0
  128.0130  134.1705  162.9931 H   0  0  0  0  0  0  0  0  0  0  0  0
  129.9300  136.3146  158.9484 H   0  0  0  0  0  0  0  0  0  0  0  0
  129.6385  131.0682  158.5253 H   0  0  0  0  0  0  0  0  0  0  0  0
  130.2472  133.8118  154.8392 H   0  0  0  0  0  0  0  0  0  0  0  0
  130.8282  132.7192  152.7131 H   0  0  0  0  0  0  0  0  0  0  0  0
  131.5801  130.3763  152.6945 H   0  0  0  0  0  0  0  0  0  0  0  0
  131.7672  129.1192  154.8005 H   0  0  0  0  0  0  0  0  0  0  0  0
  131.2023  130.1994  156.9373 H   0  0  0  0  0  0  0  0  0  0  0  0
  1  2  1  0
  1 32  1  0
  2  3  1  0
  2  9  1  0
  2 33  1  1
  3  8  1  0
  3  4  2  0
  4  5  1  0
  4 34  1  0
  5  6  2  0
  5 35  1  0
  6  7  1  0
  6 36  1  0
  7  8  2  0
  7 37  1  0
  8 38  1  0
  9 10  1  1
  9 11  1  0
  9 18  1  0
 11 12  1  0
 11 39  1  0
 11 40  1  0
 12 17  1  0
 12 13  2  0
 13 14  1  0
 13 41  1  0
 14 15  2  0
 14 42  1  0
 15 16  1  0
 15 43  1  0
 16 17  2  0
 16 44  1  0
 17 45  1  0
 18 46  1  0
 19 18  1  0
 19 30  2  0
 19 20  1  0
 20 21  1  0
 20 22  1  0
 22 23  2  0
 22 47  1  0
 23 24  1  0
 23 30  1  0
 24 29  1  0
 24 25  2  0
 25 26  1  0
 25 48  1  0
 26 27  2  0
 26 49  1  0
 27 28  1  0
 27 50  1  0
 28 29  2  0
 28 51  1  0
 29 52  1  0
 30 31  1  0
M  CHG  1  30   1
M  END
>  <DOCK_score>  (1) 
-61.181709

>  <SMILES>  (1) 
OC(c1ccccc1)[C@@H](Cc1ccccc1)Nc1[nH]cc(-c2ccccc2)[nH+]1

$$$$
