CC1=CC(=CC[C@H](Nc2[nH]cc(-c3ccc(N)cc3)[nH+]2)c2ccc(F)cc2)CC1
     RDKit          3D

 55 58  0  0  1  0  0  0  0  0999 V2000
  134.2082  139.2431  159.3243 C   0  0  0  0  0  0  0  0  0  0  0  0
  133.4248  138.3547  160.2560 C   0  0  0  0  0  0  0  0  0  0  0  0
  132.1902  137.9434  160.0392 C   0  0  0  0  0  0  0  0  0  0  0  0
  131.6915  137.0895  161.1237 C   0  0  0  0  0  0  0  0  0  0  0  0
  130.4904  136.5254  161.1923 C   0  0  0  0  0  0  0  0  0  0  0  0
  129.4926  136.7400  160.0835 C   0  0  0  0  0  0  0  0  0  0  0  0
  129.1180  135.3909  159.4664 C   0  0  2  0  0  0  0  0  0  0  0  0
  129.0189  134.6455  160.2554 H   0  0  0  0  0  0  0  0  0  0  0  0
  130.1649  134.9746  158.5300 N   0  0  0  0  0  0  0  0  0  0  0  0
  130.0452  133.7772  157.8457 C   0  0  0  0  0  0  0  0  0  0  0  0
  129.4026  132.6664  158.2983 N   0  0  0  0  0  0  0  0  0  0  0  0
  128.9491  132.5721  159.1506 H   0  0  0  0  0  0  0  0  0  0  0  0
  129.5142  131.7027  157.3242 C   0  0  0  0  0  0  0  0  0  0  0  0
  130.2213  132.2527  156.3062 C   0  0  0  0  0  0  0  0  0  0  0  0
  130.5891  131.5808  155.0358 C   0  0  0  0  0  0  0  0  0  0  0  0
  130.1492  132.0995  153.8189 C   0  0  0  0  0  0  0  0  0  0  0  0
  130.4972  131.4765  152.6390 C   0  0  0  0  0  0  0  0  0  0  0  0
  131.2759  130.3258  152.6628 C   0  0  0  0  0  0  0  0  0  0  0  0
  131.6222  129.6934  151.4663 N   0  0  0  0  0  0  0  0  0  0  0  0
  131.7113  129.8037  153.8754 C   0  0  0  0  0  0  0  0  0  0  0  0
  131.3705  130.4264  155.0574 C   0  0  0  0  0  0  0  0  0  0  0  0
  130.5330  133.5260  156.6551 N   0  0  0  0  0  0  0  0  0  0  0  0
  131.0363  134.1511  156.1105 H   0  0  0  0  0  0  0  0  0  0  0  0
  127.8090  135.5212  158.7311 C   0  0  0  0  0  0  0  0  0  0  0  0
  126.6187  135.2822  159.3923 C   0  0  0  0  0  0  0  0  0  0  0  0
  125.4175  135.4059  158.7204 C   0  0  0  0  0  0  0  0  0  0  0  0
  125.4069  135.7593  157.3816 C   0  0  0  0  0  0  0  0  0  0  0  0
  124.2333  135.8760  156.7225 F   0  0  0  0  0  0  0  0  0  0  0  0
  126.6000  135.9933  156.7190 C   0  0  0  0  0  0  0  0  0  0  0  0
  127.7996  135.8740  157.3945 C   0  0  0  0  0  0  0  0  0  0  0  0
  132.7961  136.9756  162.1529 C   0  0  0  0  0  0  0  0  0  0  0  0
  133.9443  137.8139  161.5641 C   0  0  0  0  0  0  0  0  0  0  0  0
  133.5971  139.4869  158.4554 H   0  0  0  0  0  0  0  0  0  0  0  0
  134.4839  140.1609  159.8437 H   0  0  0  0  0  0  0  0  0  0  0  0
  135.1102  138.7240  159.0001 H   0  0  0  0  0  0  0  0  0  0  0  0
  131.6131  138.2048  159.1646 H   0  0  0  0  0  0  0  0  0  0  0  0
  130.2293  135.9130  162.0428 H   0  0  0  0  0  0  0  0  0  0  0  0
  129.9320  137.3800  159.3183 H   0  0  0  0  0  0  0  0  0  0  0  0
  128.5987  137.2161  160.4863 H   0  0  0  0  0  0  0  0  0  0  0  0
  130.9419  135.5381  158.3894 H   0  0  0  0  0  0  0  0  0  0  0  0
  129.1187  130.6985  157.3641 H   0  0  0  0  0  0  0  0  0  0  0  0
  129.5402  132.9911  153.8001 H   0  0  0  0  0  0  0  0  0  0  0  0
  130.1601  131.8804  151.6958 H   0  0  0  0  0  0  0  0  0  0  0  0
  132.1658  128.8895  151.4826 H   0  0  0  0  0  0  0  0  0  0  0  0
  131.3186  130.0563  150.6201 H   0  0  0  0  0  0  0  0  0  0  0  0
  132.3165  128.9094  153.8916 H   0  0  0  0  0  0  0  0  0  0  0  0
  131.7089  130.0205  155.9993 H   0  0  0  0  0  0  0  0  0  0  0  0
  126.6273  135.0026  160.4355 H   0  0  0  0  0  0  0  0  0  0  0  0
  124.4874  135.2232  159.2382 H   0  0  0  0  0  0  0  0  0  0  0  0
  126.5930  136.2685  155.6748 H   0  0  0  0  0  0  0  0  0  0  0  0
  128.7304  136.0568  156.8780 H   0  0  0  0  0  0  0  0  0  0  0  0
  132.4713  137.3871  163.1086 H   0  0  0  0  0  0  0  0  0  0  0  0
  133.1046  135.9366  162.2686 H   0  0  0  0  0  0  0  0  0  0  0  0
  134.8212  137.1898  161.3917 H   0  0  0  0  0  0  0  0  0  0  0  0
  134.1927  138.6335  162.2383 H   0  0  0  0  0  0  0  0  0  0  0  0
  1  2  1  0
  1 33  1  0
  1 34  1  0
  1 35  1  0
  2 32  1  0
  2  3  2  0
  3  4  1  0
  3 36  1  0
  4  5  2  0
  4 31  1  0
  5  6  1  0
  5 37  1  0
  6  7  1  0
  6 38  1  0
  6 39  1  0
  7  8  1  1
  7  9  1  0
  7 24  1  0
  9 40  1  0
 10  9  1  0
 10 22  2  0
 10 11  1  0
 11 12  1  0
 11 13  1  0
 13 14  2  0
 13 41  1  0
 14 15  1  0
 14 22  1  0
 15 21  1  0
 15 16  2  0
 16 17  1  0
 16 42  1  0
 17 18  2  0
 17 43  1  0
 18 19  1  0
 18 20  1  0
 19 44  1  0
 19 45  1  0
 20 21  2  0
 20 46  1  0
 21 47  1  0
 22 23  1  0
 24 30  1  0
 24 25  2  0
 25 26  1  0
 25 48  1  0
 26 27  2  0
 26 49  1  0
 27 28  1  0
 27 29  1  0
 29 30  2  0
 29 50  1  0
 30 51  1  0
 31 32  1  0
 31 52  1  0
 31 53  1  0
 32 54  1  0
 32 55  1  0
M  CHG  1  22   1
M  END
>  <DOCK_score>  (1) 
-64.789284

>  <SMILES>  (1) 
CC1=CC(=CC[C@H](Nc2[nH]cc(-c3ccc(N)cc3)[nH+]2)c2ccc(F)cc2)CC1

$$$$
