CCc1ccc(-c2c[nH]c(N[C@@H](c3ccc(CC)cc3)c3cccnc3)[nH+]2)cc1
     RDKit          3D

 56 59  0  0  1  0  0  0  0  0999 V2000
  135.8707  140.8617  163.6341 C   0  0  0  0  0  0  0  0  0  0  0  0
  135.0882  141.0236  162.3295 C   0  0  0  0  0  0  0  0  0  0  0  0
  134.4548  139.7079  161.9568 C   0  0  0  0  0  0  0  0  0  0  0  0
  135.0650  138.5213  162.3230 C   0  0  0  0  0  0  0  0  0  0  0  0
  134.4895  137.3135  161.9846 C   0  0  0  0  0  0  0  0  0  0  0  0
  133.2915  137.2905  161.2724 C   0  0  0  0  0  0  0  0  0  0  0  0
  132.6682  135.9954  160.9058 C   0  0  0  0  0  0  0  0  0  0  0  0
  132.2638  135.0315  161.7697 C   0  0  0  0  0  0  0  0  0  0  0  0
  131.7469  134.0088  161.0121 N   0  0  0  0  0  0  0  0  0  0  0  0
  131.3764  133.1768  161.3463 H   0  0  0  0  0  0  0  0  0  0  0  0
  131.8507  134.3779  159.7063 C   0  0  0  0  0  0  0  0  0  0  0  0
  131.4418  133.6234  158.6201 N   0  0  0  0  0  0  0  0  0  0  0  0
  130.8380  132.3052  158.8295 C   0  0  1  0  0  0  0  0  0  0  0  0
  131.3674  131.7858  159.6284 H   0  0  0  0  0  0  0  0  0  0  0  0
  129.3897  132.4711  159.2116 C   0  0  0  0  0  0  0  0  0  0  0  0
  128.8421  133.7365  159.3126 C   0  0  0  0  0  0  0  0  0  0  0  0
  127.5126  133.8885  159.6593 C   0  0  0  0  0  0  0  0  0  0  0  0
  126.7328  132.7756  159.9129 C   0  0  0  0  0  0  0  0  0  0  0  0
  125.2844  132.9415  160.2944 C   0  0  0  0  0  0  0  0  0  0  0  0
  125.1674  133.0540  161.8158 C   0  0  0  0  0  0  0  0  0  0  0  0
  127.2817  131.5105  159.8170 C   0  0  0  0  0  0  0  0  0  0  0  0
  128.6102  131.3583  159.4665 C   0  0  0  0  0  0  0  0  0  0  0  0
  130.9332  131.5014  157.5583 C   0  0  0  0  0  0  0  0  0  0  0  0
  130.3349  131.9568  156.3931 C   0  0  0  0  0  0  0  0  0  0  0  0
  130.4523  131.1865  155.2466 C   0  0  0  0  0  0  0  0  0  0  0  0
  131.1487  129.9937  155.3049 C   0  0  0  0  0  0  0  0  0  0  0  0
  131.7007  129.5895  156.4320 N   0  0  0  0  0  0  0  0  0  0  0  0
  131.6131  130.2985  157.5406 C   0  0  0  0  0  0  0  0  0  0  0  0
  132.4068  135.5633  159.6465 N   0  0  0  0  0  0  0  0  0  0  0  0
  132.5987  136.0542  158.8323 H   0  0  0  0  0  0  0  0  0  0  0  0
  132.6845  138.4891  160.9013 C   0  0  0  0  0  0  0  0  0  0  0  0
  133.2662  139.6910  161.2498 C   0  0  0  0  0  0  0  0  0  0  0  0
  136.3286  141.8134  163.9036 H   0  0  0  0  0  0  0  0  0  0  0  0
  135.1926  140.5473  164.4275 H   0  0  0  0  0  0  0  0  0  0  0  0
  136.6479  140.1093  163.5010 H   0  0  0  0  0  0  0  0  0  0  0  0
  135.7665  141.3381  161.5358 H   0  0  0  0  0  0  0  0  0  0  0  0
  134.3112  141.7760  162.4622 H   0  0  0  0  0  0  0  0  0  0  0  0
  135.9932  138.5403  162.8747 H   0  0  0  0  0  0  0  0  0  0  0  0
  134.9664  136.3879  162.2711 H   0  0  0  0  0  0  0  0  0  0  0  0
  132.3340  135.0623  162.8469 H   0  0  0  0  0  0  0  0  0  0  0  0
  131.5514  133.9693  157.7204 H   0  0  0  0  0  0  0  0  0  0  0  0
  129.4522  134.6060  159.1177 H   0  0  0  0  0  0  0  0  0  0  0  0
  127.0838  134.8769  159.7346 H   0  0  0  0  0  0  0  0  0  0  0  0
  124.8880  133.8453  159.8317 H   0  0  0  0  0  0  0  0  0  0  0  0
  124.7164  132.0775  159.9493 H   0  0  0  0  0  0  0  0  0  0  0  0
  124.1197  133.1740  162.0918 H   0  0  0  0  0  0  0  0  0  0  0  0
  125.5638  132.1503  162.2785 H   0  0  0  0  0  0  0  0  0  0  0  0
  125.7353  133.9180  162.1610 H   0  0  0  0  0  0  0  0  0  0  0  0
  126.6726  130.6411  160.0155 H   0  0  0  0  0  0  0  0  0  0  0  0
  129.0391  130.3699  159.3916 H   0  0  0  0  0  0  0  0  0  0  0  0
  129.7935  132.8913  156.3784 H   0  0  0  0  0  0  0  0  0  0  0  0
  130.0021  131.5122  154.3206 H   0  0  0  0  0  0  0  0  0  0  0  0
  131.2419  129.3862  154.4168 H   0  0  0  0  0  0  0  0  0  0  0  0
  132.0784  129.9350  158.4448 H   0  0  0  0  0  0  0  0  0  0  0  0
  131.7587  138.4770  160.3454 H   0  0  0  0  0  0  0  0  0  0  0  0
  132.7946  140.6202  160.9663 H   0  0  0  0  0  0  0  0  0  0  0  0
  1  2  1  0
  1 33  1  0
  1 34  1  0
  1 35  1  0
  2  3  1  0
  2 36  1  0
  2 37  1  0
  3 32  2  0
  3  4  1  0
  4  5  2  0
  4 38  1  0
  5  6  1  0
  5 39  1  0
  6  7  1  0
  6 31  2  0
  7 29  1  0
  7  8  2  0
  8  9  1  0
  8 40  1  0
  9 10  1  0
  9 11  1  0
 11 12  1  0
 11 29  2  0
 12 13  1  0
 12 41  1  0
 13 14  1  1
 13 15  1  0
 13 23  1  0
 15 22  1  0
 15 16  2  0
 16 17  1  0
 16 42  1  0
 17 18  2  0
 17 43  1  0
 18 19  1  0
 18 21  1  0
 19 20  1  0
 19 44  1  0
 19 45  1  0
 20 46  1  0
 20 47  1  0
 20 48  1  0
 21 22  2  0
 21 49  1  0
 22 50  1  0
 23 28  1  0
 23 24  2  0
 24 25  1  0
 24 51  1  0
 25 26  2  0
 25 52  1  0
 26 27  1  0
 26 53  1  0
 27 28  2  0
 28 54  1  0
 29 30  1  0
 31 32  1  0
 31 55  1  0
 32 56  1  0
M  CHG  1  29   1
M  END
>  <DOCK_score>  (1) 
-57.754589

>  <SMILES>  (1) 
CCc1ccc(-c2c[nH]c(N[C@@H](c3ccc(CC)cc3)c3cccnc3)[nH+]2)cc1

$$$$
