Oc1ccc2c(c1)C([N@H+]1CCCC1C1Cc3ccccc3C1)c1cc(O)ccc1-2
     RDKit          3D

 55 60  0  0  1  0  0  0  0  0999 V2000
  131.6563  130.8451  156.2382 O   0  0  0  0  0  0  0  0  0  0  0  0
  130.6879  131.2065  157.1202 C   0  0  0  0  0  0  0  0  0  0  0  0
  130.0939  130.2485  157.9303 C   0  0  0  0  0  0  0  0  0  0  0  0
  129.1108  130.6107  158.8260 C   0  0  0  0  0  0  0  0  0  0  0  0
  128.7090  131.9448  158.9212 C   0  0  0  0  0  0  0  0  0  0  0  0
  129.3095  132.9005  158.1052 C   0  0  0  0  0  0  0  0  0  0  0  0
  130.2918  132.5344  157.2111 C   0  0  0  0  0  0  0  0  0  0  0  0
  128.6798  134.2337  158.4273 C   0  0  0  0  0  0  0  0  0  0  0  0
  129.7000  135.1689  158.9200 N   0  0  1  0  0  0  0  0  0  0  0  0
  130.5533  135.0650  158.3917 H   0  0  0  0  0  0  0  0  0  0  0  0
  129.2041  136.5657  158.8224 C   0  0  0  0  0  0  0  0  0  0  0  0
  130.0818  137.3259  159.8482 C   0  0  0  0  0  0  0  0  0  0  0  0
  130.2316  136.3047  160.9991 C   0  0  0  0  0  0  0  0  0  0  0  0
  129.9577  134.9320  160.3569 C   0  0  2  0  0  0  0  0  0  0  0  0
  131.1785  134.0252  160.5249 C   0  0  0  0  0  0  0  0  0  0  0  0
  132.4631  134.7422  160.0581 C   0  0  0  0  0  0  0  0  0  0  0  0
  133.0215  135.4030  161.3002 C   0  0  0  0  0  0  0  0  0  0  0  0
  133.9554  136.4169  161.4346 C   0  0  0  0  0  0  0  0  0  0  0  0
  134.3181  136.8658  162.6893 C   0  0  0  0  0  0  0  0  0  0  0  0
  133.7516  136.2983  163.8155 C   0  0  0  0  0  0  0  0  0  0  0  0
  132.8156  135.2914  163.6833 C   0  0  0  0  0  0  0  0  0  0  0  0
  132.4510  134.8396  162.4259 C   0  0  0  0  0  0  0  0  0  0  0  0
  131.4700  133.7615  162.0175 C   0  0  0  0  0  0  0  0  0  0  0  0
  127.6590  133.9633  159.5052 C   0  0  0  0  0  0  0  0  0  0  0  0
  126.7887  134.7897  160.1822 C   0  0  0  0  0  0  0  0  0  0  0  0
  125.9398  134.2632  161.1468 C   0  0  0  0  0  0  0  0  0  0  0  0
  125.0817  135.0780  161.8148 O   0  0  0  0  0  0  0  0  0  0  0  0
  125.9685  132.9042  161.4288 C   0  0  0  0  0  0  0  0  0  0  0  0
  126.8382  132.0742  160.7544 C   0  0  0  0  0  0  0  0  0  0  0  0
  127.6932  132.5988  159.7829 C   0  0  0  0  0  0  0  0  0  0  0  0
  132.0093  131.5802  155.7185 H   0  0  0  0  0  0  0  0  0  0  0  0
  130.4031  129.2162  157.8588 H   0  0  0  0  0  0  0  0  0  0  0  0
  128.6509  129.8624  159.4543 H   0  0  0  0  0  0  0  0  0  0  0  0
  130.7537  133.2802  156.5811 H   0  0  0  0  0  0  0  0  0  0  0  0
  128.1929  134.6425  157.5419 H   0  0  0  0  0  0  0  0  0  0  0  0
  128.1516  136.6206  159.1010 H   0  0  0  0  0  0  0  0  0  0  0  0
  129.3559  136.9614  157.8182 H   0  0  0  0  0  0  0  0  0  0  0  0
  129.5763  138.2270  160.1955 H   0  0  0  0  0  0  0  0  0  0  0  0
  131.0542  137.5712  159.4212 H   0  0  0  0  0  0  0  0  0  0  0  0
  129.5019  136.5081  161.7828 H   0  0  0  0  0  0  0  0  0  0  0  0
  131.2428  136.3376  161.4047 H   0  0  0  0  0  0  0  0  0  0  0  0
  129.0864  134.4715  160.8225 H   0  0  0  0  0  0  0  0  0  0  0  0
  131.0400  133.0880  159.9858 H   0  0  0  0  0  0  0  0  0  0  0  0
  132.2247  135.4930  159.3048 H   0  0  0  0  0  0  0  0  0  0  0  0
  133.1762  134.0198  159.6608 H   0  0  0  0  0  0  0  0  0  0  0  0
  134.4016  136.8577  160.5554 H   0  0  0  0  0  0  0  0  0  0  0  0
  135.0469  137.6564  162.7906 H   0  0  0  0  0  0  0  0  0  0  0  0
  134.0375  136.6451  164.7975 H   0  0  0  0  0  0  0  0  0  0  0  0
  132.3703  134.8517  164.5634 H   0  0  0  0  0  0  0  0  0  0  0  0
  130.5536  133.8428  162.6020 H   0  0  0  0  0  0  0  0  0  0  0  0
  131.9145  132.7747  162.1475 H   0  0  0  0  0  0  0  0  0  0  0  0
  126.7671  135.8469  159.9627 H   0  0  0  0  0  0  0  0  0  0  0  0
  125.1348  136.0066  161.5504 H   0  0  0  0  0  0  0  0  0  0  0  0
  125.3074  132.4960  162.1790 H   0  0  0  0  0  0  0  0  0  0  0  0
  126.8572  131.0175  160.9765 H   0  0  0  0  0  0  0  0  0  0  0  0
  1  2  1  0
  1 31  1  0
  2  7  2  0
  2  3  1  0
  3  4  2  0
  3 32  1  0
  4  5  1  0
  4 33  1  0
  5 30  1  0
  5  6  2  0
  6  7  1  0
  6  8  1  0
  7 34  1  0
  8  9  1  0
  8 24  1  0
  8 35  1  0
  9 10  1  6
  9 14  1  0
  9 11  1  0
 11 12  1  0
 11 36  1  0
 11 37  1  0
 12 13  1  0
 12 38  1  0
 12 39  1  0
 13 14  1  0
 13 40  1  0
 13 41  1  0
 14 15  1  0
 14 42  1  1
 15 23  1  0
 15 16  1  0
 15 43  1  0
 16 17  1  0
 16 44  1  0
 16 45  1  0
 17 22  2  0
 17 18  1  0
 18 19  2  0
 18 46  1  0
 19 20  1  0
 19 47  1  0
 20 21  2  0
 20 48  1  0
 21 22  1  0
 21 49  1  0
 22 23  1  0
 23 50  1  0
 23 51  1  0
 24 30  2  0
 24 25  1  0
 25 26  2  0
 25 52  1  0
 26 27  1  0
 26 28  1  0
 27 53  1  0
 28 29  2  0
 28 54  1  0
 29 30  1  0
 29 55  1  0
M  CHG  1   9   1
M  END
>  <DOCK_score>  (1) 
-46.258453

>  <SMILES>  (1) 
Oc1ccc2c(c1)C([N@H+]1CCCC1C1Cc3ccccc3C1)c1cc(O)ccc1-2

$$$$
