CCc1ccc(-c2c[nH]c(N[C@H](C)Cc3ncccc3-c3ncccc3C)[nH+]2)cc1
     RDKit          3D

 58 61  0  0  1  0  0  0  0  0999 V2000
  129.9492  128.7043  151.3620 C   0  0  0  0  0  0  0  0  0  0  0  0
  131.1291  129.6112  151.7173 C   0  0  0  0  0  0  0  0  0  0  0  0
  130.8339  130.3388  153.0035 C   0  0  0  0  0  0  0  0  0  0  0  0
  131.2006  129.7767  154.2126 C   0  0  0  0  0  0  0  0  0  0  0  0
  130.9380  130.4410  155.3935 C   0  0  0  0  0  0  0  0  0  0  0  0
  130.2918  131.6756  155.3666 C   0  0  0  0  0  0  0  0  0  0  0  0
  130.0018  132.3919  156.6328 C   0  0  0  0  0  0  0  0  0  0  0  0
  129.2419  131.9284  157.6558 C   0  0  0  0  0  0  0  0  0  0  0  0
  129.2369  132.9044  158.6226 N   0  0  0  0  0  0  0  0  0  0  0  0
  128.7778  132.8652  159.4761 H   0  0  0  0  0  0  0  0  0  0  0  0
  129.9945  133.9367  158.1615 C   0  0  0  0  0  0  0  0  0  0  0  0
  130.2431  135.1191  158.8372 N   0  0  0  0  0  0  0  0  0  0  0  0
  129.2490  135.6516  159.7722 C   0  0  2  0  0  0  0  0  0  0  0  0
  129.0724  134.9263  160.5667 H   0  0  0  0  0  0  0  0  0  0  0  0
  127.9400  135.9200  159.0268 C   0  0  0  0  0  0  0  0  0  0  0  0
  129.7672  136.9568  160.3792 C   0  0  0  0  0  0  0  0  0  0  0  0
  130.7389  136.6443  161.4880 C   0  0  0  0  0  0  0  0  0  0  0  0
  132.0206  136.5117  161.2146 N   0  0  0  0  0  0  0  0  0  0  0  0
  132.9083  136.2432  162.1525 C   0  0  0  0  0  0  0  0  0  0  0  0
  132.5245  136.0782  163.4711 C   0  0  0  0  0  0  0  0  0  0  0  0
  131.1879  136.2027  163.8079 C   0  0  0  0  0  0  0  0  0  0  0  0
  130.2725  136.4928  162.7920 C   0  0  0  0  0  0  0  0  0  0  0  0
  128.8281  136.6375  163.0977 C   0  0  0  0  0  0  0  0  0  0  0  0
  127.9493  135.8280  162.5209 N   0  0  0  0  0  0  0  0  0  0  0  0
  126.6583  135.9235  162.7653 C   0  0  0  0  0  0  0  0  0  0  0  0
  126.1698  136.8781  163.6385 C   0  0  0  0  0  0  0  0  0  0  0  0
  127.0545  137.7450  164.2634 C   0  0  0  0  0  0  0  0  0  0  0  0
  128.4063  137.6183  163.9924 C   0  0  0  0  0  0  0  0  0  0  0  0
  129.4067  138.5325  164.6516 C   0  0  0  0  0  0  0  0  0  0  0  0
  130.4547  133.6243  156.9747 N   0  0  0  0  0  0  0  0  0  0  0  0
  131.0256  134.1856  156.4272 H   0  0  0  0  0  0  0  0  0  0  0  0
  129.9196  132.2349  154.1455 C   0  0  0  0  0  0  0  0  0  0  0  0
  130.1923  131.5644  152.9706 C   0  0  0  0  0  0  0  0  0  0  0  0
  129.0501  129.3082  151.2398 H   0  0  0  0  0  0  0  0  0  0  0  0
  130.1627  128.1782  150.4315 H   0  0  0  0  0  0  0  0  0  0  0  0
  129.7945  127.9800  152.1617 H   0  0  0  0  0  0  0  0  0  0  0  0
  132.0280  129.0079  151.8391 H   0  0  0  0  0  0  0  0  0  0  0  0
  131.2834  130.3361  150.9171 H   0  0  0  0  0  0  0  0  0  0  0  0
  131.6969  128.8177  154.2327 H   0  0  0  0  0  0  0  0  0  0  0  0
  131.2290  130.0031  156.3369 H   0  0  0  0  0  0  0  0  0  0  0  0
  128.7371  130.9748  157.7017 H   0  0  0  0  0  0  0  0  0  0  0  0
  131.0757  135.5951  158.6917 H   0  0  0  0  0  0  0  0  0  0  0  0
  127.2003  136.3160  159.7224 H   0  0  0  0  0  0  0  0  0  0  0  0
  128.1166  136.6451  158.2324 H   0  0  0  0  0  0  0  0  0  0  0  0
  127.5708  134.9900  158.5944 H   0  0  0  0  0  0  0  0  0  0  0  0
  130.2706  137.5410  159.6089 H   0  0  0  0  0  0  0  0  0  0  0  0
  128.9302  137.5287  160.7800 H   0  0  0  0  0  0  0  0  0  0  0  0
  133.9504  136.1463  161.8859 H   0  0  0  0  0  0  0  0  0  0  0  0
  133.2600  135.8541  164.2296 H   0  0  0  0  0  0  0  0  0  0  0  0
  130.8604  136.0785  164.8295 H   0  0  0  0  0  0  0  0  0  0  0  0
  125.9722  135.2475  162.2769 H   0  0  0  0  0  0  0  0  0  0  0  0
  125.1095  136.9485  163.8317 H   0  0  0  0  0  0  0  0  0  0  0  0
  126.6973  138.4987  164.9494 H   0  0  0  0  0  0  0  0  0  0  0  0
  129.5044  139.4467  164.0663 H   0  0  0  0  0  0  0  0  0  0  0  0
  129.0657  138.7795  165.6570 H   0  0  0  0  0  0  0  0  0  0  0  0
  130.3735  138.0322  164.7085 H   0  0  0  0  0  0  0  0  0  0  0  0
  129.4182  133.1913  154.1188 H   0  0  0  0  0  0  0  0  0  0  0  0
  129.9039  131.9967  152.0238 H   0  0  0  0  0  0  0  0  0  0  0  0
  1  2  1  0
  1 34  1  0
  1 35  1  0
  1 36  1  0
  2  3  1  0
  2 37  1  0
  2 38  1  0
  3 33  2  0
  3  4  1  0
  4  5  2  0
  4 39  1  0
  5  6  1  0
  5 40  1  0
  6  7  1  0
  6 32  2  0
  7 30  1  0
  7  8  2  0
  8  9  1  0
  8 41  1  0
  9 10  1  0
  9 11  1  0
 11 12  1  0
 11 30  2  0
 12 13  1  0
 12 42  1  0
 13 14  1  1
 13 15  1  0
 13 16  1  0
 15 43  1  0
 15 44  1  0
 15 45  1  0
 16 17  1  0
 16 46  1  0
 16 47  1  0
 17 22  1  0
 17 18  2  0
 18 19  1  0
 19 20  2  0
 19 48  1  0
 20 21  1  0
 20 49  1  0
 21 22  2  0
 21 50  1  0
 22 23  1  0
 23 28  1  0
 23 24  2  0
 24 25  1  0
 25 26  2  0
 25 51  1  0
 26 27  1  0
 26 52  1  0
 27 28  2  0
 27 53  1  0
 28 29  1  0
 29 54  1  0
 29 55  1  0
 29 56  1  0
 30 31  1  0
 32 33  1  0
 32 57  1  0
 33 58  1  0
M  CHG  1  30   1
M  END
>  <DOCK_score>  (1) 
-56.040421

>  <SMILES>  (1) 
CCc1ccc(-c2c[nH]c(N[C@H](C)Cc3ncccc3-c3ncccc3C)[nH+]2)cc1

$$$$
