O=C1CC[C@H](NC(NC2CCCC2)=[NH+]C2COc3cc(OCc4ccccn4)ccc3C2)CN1
     RDKit          3D

 68 72  0  0  1  0  0  0  0  0999 V2000
  123.8593  133.8226  161.9746 O   0  0  0  0  0  0  0  0  0  0  0  0
  125.0097  134.0817  161.6909 C   0  0  0  0  0  0  0  0  0  0  0  0
  125.9053  132.9569  161.2574 C   0  0  0  0  0  0  0  0  0  0  0  0
  127.3707  133.3853  161.3695 C   0  0  0  0  0  0  0  0  0  0  0  0
  127.5288  134.7523  160.6931 C   0  0  2  0  0  0  0  0  0  0  0  0
  127.1165  134.7140  159.6847 H   0  0  0  0  0  0  0  0  0  0  0  0
  128.9484  135.1086  160.6304 N   0  0  0  0  0  0  0  0  0  0  0  0
  129.7019  134.7411  159.5408 C   0  0  0  0  0  0  0  0  0  0  0  0
  129.1232  134.0392  158.5100 N   0  0  0  0  0  0  0  0  0  0  0  0
  129.9263  133.6476  157.3489 C   0  0  0  0  0  0  0  0  0  0  0  0
  129.0709  132.8159  156.3711 C   0  0  0  0  0  0  0  0  0  0  0  0
  130.0505  131.7462  155.8256 C   0  0  0  0  0  0  0  0  0  0  0  0
  130.9021  131.3949  157.0708 C   0  0  0  0  0  0  0  0  0  0  0  0
  131.0903  132.7448  157.7935 C   0  0  0  0  0  0  0  0  0  0  0  0
  130.9650  135.0579  159.4851 N   0  0  0  0  0  0  0  0  0  0  0  0
  131.3895  135.2103  158.6263 H   0  0  0  0  0  0  0  0  0  0  0  0
  131.7437  135.1840  160.7197 C   0  0  1  0  0  0  0  0  0  0  0  0
  132.9226  134.2028  160.6898 C   0  0  0  0  0  0  0  0  0  0  0  0
  133.6000  134.2748  161.9451 O   0  0  0  0  0  0  0  0  0  0  0  0
  133.9280  135.5047  162.4196 C   0  0  0  0  0  0  0  0  0  0  0  0
  134.8891  135.5938  163.4207 C   0  0  0  0  0  0  0  0  0  0  0  0
  135.2426  136.8284  163.9381 C   0  0  0  0  0  0  0  0  0  0  0  0
  136.1789  136.9128  164.9194 O   0  0  0  0  0  0  0  0  0  0  0  0
  136.4935  138.2195  165.4052 C   0  0  0  0  0  0  0  0  0  0  0  0
  137.5433  138.1159  166.4815 C   0  0  0  0  0  0  0  0  0  0  0  0
  138.6393  137.2956  166.2900 C   0  0  0  0  0  0  0  0  0  0  0  0
  139.5990  137.2071  167.2865 C   0  0  0  0  0  0  0  0  0  0  0  0
  139.4197  137.9503  168.4434 C   0  0  0  0  0  0  0  0  0  0  0  0
  138.2954  138.7443  168.5663 C   0  0  0  0  0  0  0  0  0  0  0  0
  137.4056  138.8084  167.5950 N   0  0  0  0  0  0  0  0  0  0  0  0
  134.6428  137.9800  163.4479 C   0  0  0  0  0  0  0  0  0  0  0  0
  133.6941  137.8907  162.4498 C   0  0  0  0  0  0  0  0  0  0  0  0
  133.3355  136.6567  161.9317 C   0  0  0  0  0  0  0  0  0  0  0  0
  132.3026  136.6041  160.8345 C   0  0  0  0  0  0  0  0  0  0  0  0
  126.7737  135.7964  161.5165 C   0  0  0  0  0  0  0  0  0  0  0  0
  125.4116  135.3500  161.7809 N   0  0  0  0  0  0  0  0  0  0  0  0
  125.7318  132.0898  161.8946 H   0  0  0  0  0  0  0  0  0  0  0  0
  125.6838  132.6959  160.2226 H   0  0  0  0  0  0  0  0  0  0  0  0
  128.0061  132.6534  160.8708 H   0  0  0  0  0  0  0  0  0  0  0  0
  127.6520  133.4609  162.4199 H   0  0  0  0  0  0  0  0  0  0  0  0
  129.3567  135.6039  161.3577 H   0  0  0  0  0  0  0  0  0  0  0  0
  128.1832  133.8034  158.5515 H   0  0  0  0  0  0  0  0  0  0  0  0
  130.3124  134.5343  156.8460 H   0  0  0  0  0  0  0  0  0  0  0  0
  128.2426  132.3413  156.8972 H   0  0  0  0  0  0  0  0  0  0  0  0
  128.6997  133.4431  155.5605 H   0  0  0  0  0  0  0  0  0  0  0  0
  130.6754  132.1629  155.0354 H   0  0  0  0  0  0  0  0  0  0  0  0
  129.5102  130.8701  155.4674 H   0  0  0  0  0  0  0  0  0  0  0  0
  131.8664  130.9853  156.7704 H   0  0  0  0  0  0  0  0  0  0  0  0
  130.3721  130.6901  157.7115 H   0  0  0  0  0  0  0  0  0  0  0  0
  132.0414  133.1930  157.5056 H   0  0  0  0  0  0  0  0  0  0  0  0
  131.0584  132.5988  158.8732 H   0  0  0  0  0  0  0  0  0  0  0  0
  131.1080  134.9684  161.5785 H   0  0  0  0  0  0  0  0  0  0  0  0
  133.6074  134.4759  159.8868 H   0  0  0  0  0  0  0  0  0  0  0  0
  132.5539  133.1898  160.5291 H   0  0  0  0  0  0  0  0  0  0  0  0
  135.3580  134.6971  163.7984 H   0  0  0  0  0  0  0  0  0  0  0  0
  135.5954  138.6800  165.8168 H   0  0  0  0  0  0  0  0  0  0  0  0
  136.8724  138.8302  164.5857 H   0  0  0  0  0  0  0  0  0  0  0  0
  138.7467  136.7311  165.3757 H   0  0  0  0  0  0  0  0  0  0  0  0
  140.4659  136.5747  167.1646 H   0  0  0  0  0  0  0  0  0  0  0  0
  140.1473  137.9057  169.2404 H   0  0  0  0  0  0  0  0  0  0  0  0
  138.1460  139.3224  169.4661 H   0  0  0  0  0  0  0  0  0  0  0  0
  134.9182  138.9450  163.8471 H   0  0  0  0  0  0  0  0  0  0  0  0
  133.2286  138.7882  162.0696 H   0  0  0  0  0  0  0  0  0  0  0  0
  131.4921  137.2952  161.0659 H   0  0  0  0  0  0  0  0  0  0  0  0
  132.7632  136.8902  159.8888 H   0  0  0  0  0  0  0  0  0  0  0  0
  127.2917  135.9524  162.4628 H   0  0  0  0  0  0  0  0  0  0  0  0
  126.7410  136.7357  160.9647 H   0  0  0  0  0  0  0  0  0  0  0  0
  124.7563  136.0173  162.0381 H   0  0  0  0  0  0  0  0  0  0  0  0
  1  2  2  0
  2 36  1  0
  2  3  1  0
  3  4  1  0
  3 37  1  0
  3 38  1  0
  4  5  1  0
  4 39  1  0
  4 40  1  0
  5  6  1  6
  5  7  1  0
  5 35  1  0
  7 41  1  0
  8  7  1  0
  8  9  1  0
  8 15  2  0
  9 10  1  0
  9 42  1  0
 10 14  1  0
 10 11  1  0
 10 43  1  0
 11 12  1  0
 11 44  1  0
 11 45  1  0
 12 13  1  0
 12 46  1  0
 12 47  1  0
 13 14  1  0
 13 48  1  0
 13 49  1  0
 14 50  1  0
 14 51  1  0
 15 16  1  0
 15 17  1  0
 17 34  1  0
 17 18  1  0
 17 52  1  1
 18 19  1  0
 18 53  1  0
 18 54  1  0
 19 20  1  0
 20 33  2  0
 20 21  1  0
 21 22  2  0
 21 55  1  0
 22 23  1  0
 22 31  1  0
 23 24  1  0
 24 25  1  0
 24 56  1  0
 24 57  1  0
 25 30  1  0
 25 26  2  0
 26 27  1  0
 26 58  1  0
 27 28  2  0
 27 59  1  0
 28 29  1  0
 28 60  1  0
 29 30  2  0
 29 61  1  0
 31 32  2  0
 31 62  1  0
 32 33  1  0
 32 63  1  0
 33 34  1  0
 34 64  1  0
 34 65  1  0
 35 36  1  0
 35 66  1  0
 35 67  1  0
 36 68  1  0
M  CHG  1  15   1
M  END
>  <DOCK_score>  (1) 
-50.258816

>  <SMILES>  (1) 
O=C1CC[C@H](NC(NC2CCCC2)=[NH+]C2COc3cc(OCc4ccccn4)ccc3C2)CN1

$$$$
