CCc1ccc(-c2c[nH]c(NC(c3ccnn3C)[C@@H](c3ccccc3)c3ccncc3)[nH+]2)cc1
     RDKit          3D

 63 67  0  0  1  0  0  0  0  0999 V2000
  130.2697  128.5507  151.4871 C   0  0  0  0  0  0  0  0  0  0  0  0
  131.2377  129.7211  151.6697 C   0  0  0  0  0  0  0  0  0  0  0  0
  130.9912  130.3733  153.0058 C   0  0  0  0  0  0  0  0  0  0  0  0
  131.6761  129.9338  154.1236 C   0  0  0  0  0  0  0  0  0  0  0  0
  131.4580  130.5303  155.3489 C   0  0  0  0  0  0  0  0  0  0  0  0
  130.5378  131.5713  155.4602 C   0  0  0  0  0  0  0  0  0  0  0  0
  130.2957  132.2133  156.7753 C   0  0  0  0  0  0  0  0  0  0  0  0
  129.8374  131.5962  157.8924 C   0  0  0  0  0  0  0  0  0  0  0  0
  129.7632  132.5535  158.8747 N   0  0  0  0  0  0  0  0  0  0  0  0
  129.4711  132.4166  159.7896 H   0  0  0  0  0  0  0  0  0  0  0  0
  130.1704  133.7306  158.3263 C   0  0  0  0  0  0  0  0  0  0  0  0
  130.2377  134.9465  158.9848 N   0  0  0  0  0  0  0  0  0  0  0  0
  129.3096  135.2386  160.0802 C   0  0  2  0  0  0  0  0  0  0  0  0
  127.8936  135.1798  159.5679 C   0  0  0  0  0  0  0  0  0  0  0  0
  127.3683  135.9470  158.5848 C   0  0  0  0  0  0  0  0  0  0  0  0
  126.0303  135.5754  158.4173 C   0  0  0  0  0  0  0  0  0  0  0  0
  125.7619  134.6193  159.2693 N   0  0  0  0  0  0  0  0  0  0  0  0
  126.9239  134.3484  160.0035 N   0  0  0  0  0  0  0  0  0  0  0  0
  127.0611  133.3428  161.0598 C   0  0  0  0  0  0  0  0  0  0  0  0
  129.5950  136.6372  160.6311 C   0  0  1  0  0  0  0  0  0  0  0  0
  129.1379  137.3837  159.9816 H   0  0  0  0  0  0  0  0  0  0  0  0
  129.0189  136.7578  162.0183 C   0  0  0  0  0  0  0  0  0  0  0  0
  127.7247  137.2113  162.1922 C   0  0  0  0  0  0  0  0  0  0  0  0
  127.1947  137.3178  163.4646 C   0  0  0  0  0  0  0  0  0  0  0  0
  127.9620  136.9795  164.5634 C   0  0  0  0  0  0  0  0  0  0  0  0
  129.2581  136.5308  164.3898 C   0  0  0  0  0  0  0  0  0  0  0  0
  129.7866  136.4202  163.1173 C   0  0  0  0  0  0  0  0  0  0  0  0
  131.0842  136.8618  160.6843 C   0  0  0  0  0  0  0  0  0  0  0  0
  131.9554  135.8013  160.8812 C   0  0  0  0  0  0  0  0  0  0  0  0
  133.3152  136.0451  160.9192 C   0  0  0  0  0  0  0  0  0  0  0  0
  133.7852  137.2695  160.7813 N   0  0  0  0  0  0  0  0  0  0  0  0
  132.9862  138.3023  160.5981 C   0  0  0  0  0  0  0  0  0  0  0  0
  131.6155  138.1348  160.5432 C   0  0  0  0  0  0  0  0  0  0  0  0
  130.4879  133.5233  157.0716 N   0  0  0  0  0  0  0  0  0  0  0  0
  130.8085  134.1987  156.4536 H   0  0  0  0  0  0  0  0  0  0  0  0
  129.8463  132.0069  154.3312 C   0  0  0  0  0  0  0  0  0  0  0  0
  130.0761  131.4061  153.1102 C   0  0  0  0  0  0  0  0  0  0  0  0
  129.2438  128.9170  151.5291 H   0  0  0  0  0  0  0  0  0  0  0  0
  130.4478  128.0793  150.5207 H   0  0  0  0  0  0  0  0  0  0  0  0
  130.4280  127.8216  152.2818 H   0  0  0  0  0  0  0  0  0  0  0  0
  132.2630  129.3556  151.6273 H   0  0  0  0  0  0  0  0  0  0  0  0
  131.0789  130.4509  150.8746 H   0  0  0  0  0  0  0  0  0  0  0  0
  132.3861  129.1246  154.0368 H   0  0  0  0  0  0  0  0  0  0  0  0
  131.9969  130.1890  156.2204 H   0  0  0  0  0  0  0  0  0  0  0  0
  129.5822  130.5515  157.9915 H   0  0  0  0  0  0  0  0  0  0  0  0
  130.8992  135.6050  158.7210 H   0  0  0  0  0  0  0  0  0  0  0  0
  129.4401  134.5022  160.8730 H   0  0  0  0  0  0  0  0  0  0  0  0
  127.8901  136.7111  158.0276 H   0  0  0  0  0  0  0  0  0  0  0  0
  125.3384  136.0032  157.7070 H   0  0  0  0  0  0  0  0  0  0  0  0
  126.8124  133.7902  162.0221 H   0  0  0  0  0  0  0  0  0  0  0  0
  126.3850  132.5115  160.8600 H   0  0  0  0  0  0  0  0  0  0  0  0
  128.0881  132.9783  161.0832 H   0  0  0  0  0  0  0  0  0  0  0  0
  127.1265  137.4793  161.3339 H   0  0  0  0  0  0  0  0  0  0  0  0
  126.1821  137.6679  163.6001 H   0  0  0  0  0  0  0  0  0  0  0  0
  127.5490  137.0651  165.5576 H   0  0  0  0  0  0  0  0  0  0  0  0
  129.8576  136.2665  165.2483 H   0  0  0  0  0  0  0  0  0  0  0  0
  130.7990  136.0697  162.9816 H   0  0  0  0  0  0  0  0  0  0  0  0
  131.5763  134.7970  160.9994 H   0  0  0  0  0  0  0  0  0  0  0  0
  134.0007  135.2237  161.0674 H   0  0  0  0  0  0  0  0  0  0  0  0
  133.4078  139.2907  160.4890 H   0  0  0  0  0  0  0  0  0  0  0  0
  130.9662  138.9846  160.3928 H   0  0  0  0  0  0  0  0  0  0  0  0
  129.1319  132.8129  154.4118 H   0  0  0  0  0  0  0  0  0  0  0  0
  129.5408  131.7430  152.2347 H   0  0  0  0  0  0  0  0  0  0  0  0
  1  2  1  0
  1 38  1  0
  1 39  1  0
  1 40  1  0
  2  3  1  0
  2 41  1  0
  2 42  1  0
  3 37  2  0
  3  4  1  0
  4  5  2  0
  4 43  1  0
  5  6  1  0
  5 44  1  0
  6  7  1  0
  6 36  2  0
  7 34  1  0
  7  8  2  0
  8  9  1  0
  8 45  1  0
  9 10  1  0
  9 11  1  0
 11 12  1  0
 11 34  2  0
 12 13  1  0
 12 46  1  0
 13 14  1  0
 13 20  1  0
 13 47  1  1
 14 18  1  0
 14 15  2  0
 15 16  1  0
 15 48  1  0
 16 17  2  0
 16 49  1  0
 17 18  1  0
 18 19  1  0
 19 50  1  0
 19 51  1  0
 19 52  1  0
 20 21  1  6
 20 22  1  0
 20 28  1  0
 22 27  1  0
 22 23  2  0
 23 24  1  0
 23 53  1  0
 24 25  2  0
 24 54  1  0
 25 26  1  0
 25 55  1  0
 26 27  2  0
 26 56  1  0
 27 57  1  0
 28 33  1  0
 28 29  2  0
 29 30  1  0
 29 58  1  0
 30 31  2  0
 30 59  1  0
 31 32  1  0
 32 33  2  0
 32 60  1  0
 33 61  1  0
 34 35  1  0
 36 37  1  0
 36 62  1  0
 37 63  1  0
M  CHG  1  34   1
M  END
>  <DOCK_score>  (1) 
-61.621834

>  <SMILES>  (1) 
CCc1ccc(-c2c[nH]c(NC(c3ccnn3C)[C@@H](c3ccccc3)c3ccncc3)[nH+]2)cc1

$$$$
