Nc1ccc(-c2c[nH]c(N[C@H](c3cccc(F)c3)c3cccc(C4=CCC=CC4)c3)[nH+]2)cc1
     RDKit          3D

 59 63  0  0  1  0  0  0  0  0999 V2000
  131.2079  129.6080  151.6093 N   0  0  0  0  0  0  0  0  0  0  0  0
  131.0106  130.1908  152.8635 C   0  0  0  0  0  0  0  0  0  0  0  0
  130.0977  131.2283  153.0107 C   0  0  0  0  0  0  0  0  0  0  0  0
  129.9014  131.8049  154.2478 C   0  0  0  0  0  0  0  0  0  0  0  0
  130.6194  131.3465  155.3513 C   0  0  0  0  0  0  0  0  0  0  0  0
  130.4099  131.9653  156.6832 C   0  0  0  0  0  0  0  0  0  0  0  0
  129.9775  131.3288  157.7996 C   0  0  0  0  0  0  0  0  0  0  0  0
  129.9267  132.2699  158.8006 N   0  0  0  0  0  0  0  0  0  0  0  0
  129.6541  132.1177  159.7189 H   0  0  0  0  0  0  0  0  0  0  0  0
  130.3300  133.4540  158.2650 C   0  0  0  0  0  0  0  0  0  0  0  0
  130.4212  134.6568  158.9443 N   0  0  0  0  0  0  0  0  0  0  0  0
  130.0668  134.7247  160.3642 C   0  0  2  0  0  0  0  0  0  0  0  0
  130.4340  133.8338  160.8733 H   0  0  0  0  0  0  0  0  0  0  0  0
  128.5683  134.8024  160.5048 C   0  0  0  0  0  0  0  0  0  0  0  0
  127.8744  135.8545  159.9363 C   0  0  0  0  0  0  0  0  0  0  0  0
  126.4995  135.9240  160.0596 C   0  0  0  0  0  0  0  0  0  0  0  0
  125.8178  134.9473  160.7611 C   0  0  0  0  0  0  0  0  0  0  0  0
  126.5122  133.8964  161.3353 C   0  0  0  0  0  0  0  0  0  0  0  0
  125.8469  132.9409  162.0208 F   0  0  0  0  0  0  0  0  0  0  0  0
  127.8891  133.8249  161.2064 C   0  0  0  0  0  0  0  0  0  0  0  0
  130.6931  135.9494  160.9802 C   0  0  0  0  0  0  0  0  0  0  0  0
  130.0722  136.5821  162.0425 C   0  0  0  0  0  0  0  0  0  0  0  0
  130.6404  137.7066  162.6134 C   0  0  0  0  0  0  0  0  0  0  0  0
  131.8345  138.2011  162.1297 C   0  0  0  0  0  0  0  0  0  0  0  0
  132.4625  137.5714  161.0547 C   0  0  0  0  0  0  0  0  0  0  0  0
  133.7383  138.0996  160.5273 C   0  0  0  0  0  0  0  0  0  0  0  0
  133.7902  138.4866  159.2718 C   0  0  0  0  0  0  0  0  0  0  0  0
  135.0374  139.0348  158.6458 C   0  0  0  0  0  0  0  0  0  0  0  0
  136.0028  139.5118  159.6883 C   0  0  0  0  0  0  0  0  0  0  0  0
  135.9505  139.1308  160.9269 C   0  0  0  0  0  0  0  0  0  0  0  0
  134.9215  138.1722  161.4453 C   0  0  0  0  0  0  0  0  0  0  0  0
  131.8839  136.4373  160.4831 C   0  0  0  0  0  0  0  0  0  0  0  0
  130.6124  133.2691  156.9984 N   0  0  0  0  0  0  0  0  0  0  0  0
  130.9194  133.9548  156.3848 H   0  0  0  0  0  0  0  0  0  0  0  0
  131.5387  130.3094  155.2001 C   0  0  0  0  0  0  0  0  0  0  0  0
  131.7272  129.7316  153.9624 C   0  0  0  0  0  0  0  0  0  0  0  0
  130.7079  129.9276  150.8420 H   0  0  0  0  0  0  0  0  0  0  0  0
  131.8448  128.8838  151.5058 H   0  0  0  0  0  0  0  0  0  0  0  0
  129.5420  131.5833  152.1556 H   0  0  0  0  0  0  0  0  0  0  0  0
  129.1917  132.6110  154.3618 H   0  0  0  0  0  0  0  0  0  0  0  0
  129.7216  130.2830  157.8858 H   0  0  0  0  0  0  0  0  0  0  0  0
  130.7198  135.4544  158.4802 H   0  0  0  0  0  0  0  0  0  0  0  0
  128.4068  136.6207  159.3922 H   0  0  0  0  0  0  0  0  0  0  0  0
  125.9580  136.7440  159.6115 H   0  0  0  0  0  0  0  0  0  0  0  0
  124.7440  135.0042  160.8613 H   0  0  0  0  0  0  0  0  0  0  0  0
  128.4318  133.0056  161.6543 H   0  0  0  0  0  0  0  0  0  0  0  0
  129.1396  136.1966  162.4273 H   0  0  0  0  0  0  0  0  0  0  0  0
  130.1510  138.1957  163.4426 H   0  0  0  0  0  0  0  0  0  0  0  0
  132.2795  139.0765  162.5792 H   0  0  0  0  0  0  0  0  0  0  0  0
  132.8988  138.4062  158.6673 H   0  0  0  0  0  0  0  0  0  0  0  0
  135.5111  138.2541  158.0506 H   0  0  0  0  0  0  0  0  0  0  0  0
  134.7738  139.8690  157.9956 H   0  0  0  0  0  0  0  0  0  0  0  0
  136.7769  140.2054  159.3946 H   0  0  0  0  0  0  0  0  0  0  0  0
  136.6833  139.5223  161.6167 H   0  0  0  0  0  0  0  0  0  0  0  0
  134.5900  138.5017  162.4300 H   0  0  0  0  0  0  0  0  0  0  0  0
  135.3678  137.1815  161.5319 H   0  0  0  0  0  0  0  0  0  0  0  0
  132.3676  135.9425  159.6540 H   0  0  0  0  0  0  0  0  0  0  0  0
  132.0993  129.9556  156.0527 H   0  0  0  0  0  0  0  0  0  0  0  0
  132.4356  128.9247  153.8459 H   0  0  0  0  0  0  0  0  0  0  0  0
  1  2  1  0
  1 37  1  0
  1 38  1  0
  2 36  2  0
  2  3  1  0
  3  4  2  0
  3 39  1  0
  4  5  1  0
  4 40  1  0
  5  6  1  0
  5 35  2  0
  6 33  1  0
  6  7  2  0
  7  8  1  0
  7 41  1  0
  8  9  1  0
  8 10  1  0
 10 11  1  0
 10 33  2  0
 11 12  1  0
 11 42  1  0
 12 13  1  1
 12 14  1  0
 12 21  1  0
 14 20  1  0
 14 15  2  0
 15 16  1  0
 15 43  1  0
 16 17  2  0
 16 44  1  0
 17 18  1  0
 17 45  1  0
 18 19  1  0
 18 20  2  0
 20 46  1  0
 21 32  1  0
 21 22  2  0
 22 23  1  0
 22 47  1  0
 23 24  2  0
 23 48  1  0
 24 25  1  0
 24 49  1  0
 25 26  1  0
 25 32  2  0
 26 31  1  0
 26 27  2  0
 27 28  1  0
 27 50  1  0
 28 29  1  0
 28 51  1  0
 28 52  1  0
 29 30  2  0
 29 53  1  0
 30 31  1  0
 30 54  1  0
 31 55  1  0
 31 56  1  0
 32 57  1  0
 33 34  1  0
 35 36  1  0
 35 58  1  0
 36 59  1  0
M  CHG  1  33   1
M  END
>  <DOCK_score>  (1) 
-62.57008

>  <SMILES>  (1) 
Nc1ccc(-c2c[nH]c(N[C@H](c3cccc(F)c3)c3cccc(C4=CCC=CC4)c3)[nH+]2)cc1

$$$$
