COC[C@H](Nc1[nH]cc(-c2ccc(N)cc2)[nH+]1)c1ccccc1
     RDKit          3D

 44 46  0  0  1  0  0  0  0  0999 V2000
  131.3020  138.1284  161.1426 C   0  0  0  0  0  0  0  0  0  0  0  0
  130.8512  136.8880  160.5947 O   0  0  0  0  0  0  0  0  0  0  0  0
  129.4557  136.8610  160.2880 C   0  0  0  0  0  0  0  0  0  0  0  0
  129.0867  135.4929  159.7109 C   0  0  2  0  0  0  0  0  0  0  0  0
  128.9703  134.7754  160.5232 H   0  0  0  0  0  0  0  0  0  0  0  0
  130.1487  135.0409  158.8087 N   0  0  0  0  0  0  0  0  0  0  0  0
  130.0365  133.8209  158.1638 C   0  0  0  0  0  0  0  0  0  0  0  0
  129.3755  132.7309  158.6395 N   0  0  0  0  0  0  0  0  0  0  0  0
  128.9028  132.6688  159.4842 H   0  0  0  0  0  0  0  0  0  0  0  0
  129.5020  131.7334  157.7019 C   0  0  0  0  0  0  0  0  0  0  0  0
  130.2358  132.2432  156.6820 C   0  0  0  0  0  0  0  0  0  0  0  0
  130.6263  131.5257  155.4436 C   0  0  0  0  0  0  0  0  0  0  0  0
  130.2178  132.0060  154.2004 C   0  0  0  0  0  0  0  0  0  0  0  0
  130.5867  131.3406  153.0503 C   0  0  0  0  0  0  0  0  0  0  0  0
  131.3555  130.1856  153.1307 C   0  0  0  0  0  0  0  0  0  0  0  0
  131.7233  129.5096  151.9647 N   0  0  0  0  0  0  0  0  0  0  0  0
  131.7595  129.7020  154.3695 C   0  0  0  0  0  0  0  0  0  0  0  0
  131.3976  130.3672  155.5219 C   0  0  0  0  0  0  0  0  0  0  0  0
  130.5448  133.5274  156.9917 N   0  0  0  0  0  0  0  0  0  0  0  0
  131.0612  134.1313  156.4355 H   0  0  0  0  0  0  0  0  0  0  0  0
  127.7918  135.6022  158.9478 C   0  0  0  0  0  0  0  0  0  0  0  0
  126.5884  135.3934  159.5951 C   0  0  0  0  0  0  0  0  0  0  0  0
  125.4006  135.4932  158.8949 C   0  0  0  0  0  0  0  0  0  0  0  0
  125.4165  135.8007  157.5473 C   0  0  0  0  0  0  0  0  0  0  0  0
  126.6199  136.0082  156.8997 C   0  0  0  0  0  0  0  0  0  0  0  0
  127.8077  135.9087  157.6000 C   0  0  0  0  0  0  0  0  0  0  0  0
  130.7651  138.3330  162.0688 H   0  0  0  0  0  0  0  0  0  0  0  0
  132.3707  138.0679  161.3479 H   0  0  0  0  0  0  0  0  0  0  0  0
  131.1139  138.9305  160.4289 H   0  0  0  0  0  0  0  0  0  0  0  0
  129.2296  137.6368  159.5565 H   0  0  0  0  0  0  0  0  0  0  0  0
  128.8805  137.0393  161.1965 H   0  0  0  0  0  0  0  0  0  0  0  0
  130.9304  135.5964  158.6630 H   0  0  0  0  0  0  0  0  0  0  0  0
  129.0948  130.7351  157.7654 H   0  0  0  0  0  0  0  0  0  0  0  0
  129.6162  132.9007  154.1377 H   0  0  0  0  0  0  0  0  0  0  0  0
  130.2740  131.7146  152.0866 H   0  0  0  0  0  0  0  0  0  0  0  0
  132.2609  128.7043  152.0198 H   0  0  0  0  0  0  0  0  0  0  0  0
  131.4426  129.8473  151.0996 H   0  0  0  0  0  0  0  0  0  0  0  0
  132.3568  128.8040  154.4297 H   0  0  0  0  0  0  0  0  0  0  0  0
  131.7118  129.9911  156.4843 H   0  0  0  0  0  0  0  0  0  0  0  0
  126.5760  135.1534  160.6481 H   0  0  0  0  0  0  0  0  0  0  0  0
  124.4601  135.3355  159.4018 H   0  0  0  0  0  0  0  0  0  0  0  0
  124.4884  135.8783  157.0003 H   0  0  0  0  0  0  0  0  0  0  0  0
  126.6324  136.2476  155.8467 H   0  0  0  0  0  0  0  0  0  0  0  0
  128.7481  136.0702  157.0939 H   0  0  0  0  0  0  0  0  0  0  0  0
  1  2  1  0
  1 27  1  0
  1 28  1  0
  1 29  1  0
  2  3  1  0
  3  4  1  0
  3 30  1  0
  3 31  1  0
  4  5  1  1
  4  6  1  0
  4 21  1  0
  6 32  1  0
  7  6  1  0
  7 19  2  0
  7  8  1  0
  8  9  1  0
  8 10  1  0
 10 11  2  0
 10 33  1  0
 11 12  1  0
 11 19  1  0
 12 18  1  0
 12 13  2  0
 13 14  1  0
 13 34  1  0
 14 15  2  0
 14 35  1  0
 15 16  1  0
 15 17  1  0
 16 36  1  0
 16 37  1  0
 17 18  2  0
 17 38  1  0
 18 39  1  0
 19 20  1  0
 21 26  1  0
 21 22  2  0
 22 23  1  0
 22 40  1  0
 23 24  2  0
 23 41  1  0
 24 25  1  0
 24 42  1  0
 25 26  2  0
 25 43  1  0
 26 44  1  0
M  CHG  1  19   1
M  END
>  <DOCK_score>  (1) 
-56.50647

>  <SMILES>  (1) 
COC[C@H](Nc1[nH]cc(-c2ccc(N)cc2)[nH+]1)c1ccccc1

$$$$
