O=C1CC[C@H](NC(N[C@H]2Cc3ccc(Br)cc3C2)=[NH+]C2CC2)CN1
     RDKit          3D

 48 51  0  0  1  0  0  0  0  0999 V2000
  123.6684  133.8493  161.4081 O   0  0  0  0  0  0  0  0  0  0  0  0
  124.8561  134.0363  161.2494 C   0  0  0  0  0  0  0  0  0  0  0  0
  125.6203  133.0663  160.3947 C   0  0  0  0  0  0  0  0  0  0  0  0
  127.1207  133.2045  160.6644 C   0  0  0  0  0  0  0  0  0  0  0  0
  127.4903  134.6912  160.5981 C   0  0  2  0  0  0  0  0  0  0  0  0
  127.1312  135.1158  159.6606 H   0  0  0  0  0  0  0  0  0  0  0  0
  128.9454  134.8400  160.6795 N   0  0  0  0  0  0  0  0  0  0  0  0
  129.7019  134.8387  159.5315 C   0  0  0  0  0  0  0  0  0  0  0  0
  129.2835  134.1253  158.4333 N   0  0  0  0  0  0  0  0  0  0  0  0
  130.2686  133.5650  157.5050 C   0  0  1  0  0  0  0  0  0  0  0  0
  131.1686  134.1794  157.4760 H   0  0  0  0  0  0  0  0  0  0  0  0
  130.6123  132.1061  157.8798 C   0  0  0  0  0  0  0  0  0  0  0  0
  130.8271  131.3969  156.5599 C   0  0  0  0  0  0  0  0  0  0  0  0
  131.4492  130.1915  156.2799 C   0  0  0  0  0  0  0  0  0  0  0  0
  131.5278  129.7356  154.9788 C   0  0  0  0  0  0  0  0  0  0  0  0
  130.9832  130.4844  153.9509 C   0  0  0  0  0  0  0  0  0  0  0  0
  131.0896  129.8636  152.1679 Br  0  0  0  0  0  0  0  0  0  0  0  0
  130.3619  131.6871  154.2288 C   0  0  0  0  0  0  0  0  0  0  0  0
  130.2828  132.1455  155.5332 C   0  0  0  0  0  0  0  0  0  0  0  0
  129.6651  133.4090  156.0930 C   0  0  0  0  0  0  0  0  0  0  0  0
  130.8160  135.5137  159.4844 N   0  0  0  0  0  0  0  0  0  0  0  0
  131.3496  135.5126  158.6743 H   0  0  0  0  0  0  0  0  0  0  0  0
  131.2620  136.2737  160.6547 C   0  0  0  0  0  0  0  0  0  0  0  0
  130.2603  137.2362  161.2958 C   0  0  0  0  0  0  0  0  0  0  0  0
  131.4407  137.7842  160.4901 C   0  0  0  0  0  0  0  0  0  0  0  0
  126.8341  135.4119  161.7764 C   0  0  0  0  0  0  0  0  0  0  0  0
  125.4136  135.0924  161.8428 N   0  0  0  0  0  0  0  0  0  0  0  0
  125.4207  133.2748  159.3435 H   0  0  0  0  0  0  0  0  0  0  0  0
  125.3025  132.0501  160.6276 H   0  0  0  0  0  0  0  0  0  0  0  0
  127.6815  132.6528  159.9098 H   0  0  0  0  0  0  0  0  0  0  0  0
  127.3537  132.8121  161.6543 H   0  0  0  0  0  0  0  0  0  0  0  0
  129.3752  134.9395  161.5435 H   0  0  0  0  0  0  0  0  0  0  0  0
  128.3361  133.9927  158.2732 H   0  0  0  0  0  0  0  0  0  0  0  0
  129.7837  131.6516  158.4230 H   0  0  0  0  0  0  0  0  0  0  0  0
  131.5215  132.0718  158.4800 H   0  0  0  0  0  0  0  0  0  0  0  0
  131.8741  129.6062  157.0818 H   0  0  0  0  0  0  0  0  0  0  0  0
  132.0142  128.7955  154.7639 H   0  0  0  0  0  0  0  0  0  0  0  0
  129.9369  132.2715  153.4262 H   0  0  0  0  0  0  0  0  0  0  0  0
  129.9283  134.2657  155.4724 H   0  0  0  0  0  0  0  0  0  0  0  0
  128.5818  133.3055  156.1540 H   0  0  0  0  0  0  0  0  0  0  0  0
  131.9550  135.7541  161.3165 H   0  0  0  0  0  0  0  0  0  0  0  0
  129.2693  137.3040  160.8468 H   0  0  0  0  0  0  0  0  0  0  0  0
  130.2944  137.3501  162.3793 H   0  0  0  0  0  0  0  0  0  0  0  0
  132.2510  138.2585  161.0438 H   0  0  0  0  0  0  0  0  0  0  0  0
  131.2267  138.2125  159.5108 H   0  0  0  0  0  0  0  0  0  0  0  0
  127.3169  135.1010  162.7029 H   0  0  0  0  0  0  0  0  0  0  0  0
  126.9560  136.4881  161.6536 H   0  0  0  0  0  0  0  0  0  0  0  0
  124.8376  135.6852  162.3505 H   0  0  0  0  0  0  0  0  0  0  0  0
  1  2  2  0
  2 27  1  0
  2  3  1  0
  3  4  1  0
  3 28  1  0
  3 29  1  0
  4  5  1  0
  4 30  1  0
  4 31  1  0
  5  6  1  6
  5  7  1  0
  5 26  1  0
  7 32  1  0
  8  7  1  0
  8  9  1  0
  8 21  2  0
  9 10  1  0
  9 33  1  0
 10 11  1  6
 10 20  1  0
 10 12  1  0
 12 13  1  0
 12 34  1  0
 12 35  1  0
 13 19  2  0
 13 14  1  0
 14 15  2  0
 14 36  1  0
 15 16  1  0
 15 37  1  0
 16 17  1  0
 16 18  2  0
 18 19  1  0
 18 38  1  0
 19 20  1  0
 20 39  1  0
 20 40  1  0
 21 22  1  0
 21 23  1  0
 23 25  1  0
 23 24  1  0
 23 41  1  0
 24 25  1  0
 24 42  1  0
 24 43  1  0
 25 44  1  0
 25 45  1  0
 26 27  1  0
 26 46  1  0
 26 47  1  0
 27 48  1  0
M  CHG  1  21   1
M  END
>  <DOCK_score>  (1) 
-50.589535

>  <SMILES>  (1) 
O=C1CC[C@H](NC(N[C@H]2Cc3ccc(Br)cc3C2)=[NH+]C2CC2)CN1

$$$$
