Nc1ccc(-c2c[nH]c(N[C@H](Cc3cccnn3)Cc3cccc4ccccc34)[nH+]2)cc1
     RDKit          3D

 57 61  0  0  1  0  0  0  0  0999 V2000
  131.5074  129.8943  152.6644 N   0  0  0  0  0  0  0  0  0  0  0  0
  131.1833  130.5858  153.8342 C   0  0  0  0  0  0  0  0  0  0  0  0
  130.3848  131.7223  153.7691 C   0  0  0  0  0  0  0  0  0  0  0  0
  130.0638  132.4072  154.9220 C   0  0  0  0  0  0  0  0  0  0  0  0
  130.5401  131.9594  156.1532 C   0  0  0  0  0  0  0  0  0  0  0  0
  130.1964  132.6948  157.3949 C   0  0  0  0  0  0  0  0  0  0  0  0
  129.5212  132.1931  158.4583 C   0  0  0  0  0  0  0  0  0  0  0  0
  129.4225  133.2067  159.3820 N   0  0  0  0  0  0  0  0  0  0  0  0
  128.9917  133.1536  160.2494 H   0  0  0  0  0  0  0  0  0  0  0  0
  130.0410  134.2978  158.8545 C   0  0  0  0  0  0  0  0  0  0  0  0
  130.1632  135.5318  159.4703 N   0  0  0  0  0  0  0  0  0  0  0  0
  129.5985  135.7433  160.8054 C   0  0  2  0  0  0  0  0  0  0  0  0
  129.7738  134.8591  161.4183 H   0  0  0  0  0  0  0  0  0  0  0  0
  128.0936  135.9932  160.6891 C   0  0  0  0  0  0  0  0  0  0  0  0
  127.3773  134.6777  160.5232 C   0  0  0  0  0  0  0  0  0  0  0  0
  126.9449  133.9765  161.6380 C   0  0  0  0  0  0  0  0  0  0  0  0
  126.2949  132.7664  161.4346 C   0  0  0  0  0  0  0  0  0  0  0  0
  126.1185  132.3343  160.1295 C   0  0  0  0  0  0  0  0  0  0  0  0
  126.5644  133.0695  159.1286 N   0  0  0  0  0  0  0  0  0  0  0  0
  127.1653  134.1879  159.3166 N   0  0  0  0  0  0  0  0  0  0  0  0
  130.2680  136.9554  161.4561 C   0  0  0  0  0  0  0  0  0  0  0  0
  131.7504  136.7093  161.5707 C   0  0  0  0  0  0  0  0  0  0  0  0
  132.5847  137.0732  160.5585 C   0  0  0  0  0  0  0  0  0  0  0  0
  133.9586  136.8599  160.6493 C   0  0  0  0  0  0  0  0  0  0  0  0
  134.5049  136.2698  161.7475 C   0  0  0  0  0  0  0  0  0  0  0  0
  133.6750  135.8748  162.8100 C   0  0  0  0  0  0  0  0  0  0  0  0
  134.2025  135.2628  163.9600 C   0  0  0  0  0  0  0  0  0  0  0  0
  133.3677  134.8930  164.9692 C   0  0  0  0  0  0  0  0  0  0  0  0
  131.9940  135.1119  164.8807 C   0  0  0  0  0  0  0  0  0  0  0  0
  131.4475  135.7021  163.7831 C   0  0  0  0  0  0  0  0  0  0  0  0
  132.2780  136.0979  162.7204 C   0  0  0  0  0  0  0  0  0  0  0  0
  130.4971  133.9897  157.6649 N   0  0  0  0  0  0  0  0  0  0  0  0
  130.9753  134.5913  157.0728 H   0  0  0  0  0  0  0  0  0  0  0  0
  131.3445  130.8225  156.2152 C   0  0  0  0  0  0  0  0  0  0  0  0
  131.6588  130.1376  155.0602 C   0  0  0  0  0  0  0  0  0  0  0  0
  131.1756  130.2067  151.8081 H   0  0  0  0  0  0  0  0  0  0  0  0
  132.0646  129.1015  152.7088 H   0  0  0  0  0  0  0  0  0  0  0  0
  130.0161  132.0690  152.8150 H   0  0  0  0  0  0  0  0  0  0  0  0
  129.4435  133.2898  154.8712 H   0  0  0  0  0  0  0  0  0  0  0  0
  129.1345  131.1899  158.5600 H   0  0  0  0  0  0  0  0  0  0  0  0
  130.6225  136.2564  159.0176 H   0  0  0  0  0  0  0  0  0  0  0  0
  127.8962  136.6260  159.8239 H   0  0  0  0  0  0  0  0  0  0  0  0
  127.7369  136.4898  161.5915 H   0  0  0  0  0  0  0  0  0  0  0  0
  127.1089  134.3598  162.6344 H   0  0  0  0  0  0  0  0  0  0  0  0
  125.9378  132.1796  162.2681 H   0  0  0  0  0  0  0  0  0  0  0  0
  125.6171  131.3984  159.9322 H   0  0  0  0  0  0  0  0  0  0  0  0
  130.0929  137.8397  160.8434 H   0  0  0  0  0  0  0  0  0  0  0  0
  129.8479  137.1128  162.4496 H   0  0  0  0  0  0  0  0  0  0  0  0
  132.1760  137.5390  159.6738 H   0  0  0  0  0  0  0  0  0  0  0  0
  134.5989  137.1626  159.8339 H   0  0  0  0  0  0  0  0  0  0  0  0
  135.5711  136.1057  161.8018 H   0  0  0  0  0  0  0  0  0  0  0  0
  135.2650  135.0872  164.0425 H   0  0  0  0  0  0  0  0  0  0  0  0
  133.7758  134.4225  165.8515 H   0  0  0  0  0  0  0  0  0  0  0  0
  131.3538  134.8087  165.6960 H   0  0  0  0  0  0  0  0  0  0  0  0
  130.3815  135.8660  163.7289 H   0  0  0  0  0  0  0  0  0  0  0  0
  131.7180  130.4760  157.1674 H   0  0  0  0  0  0  0  0  0  0  0  0
  132.2785  129.2546  155.1082 H   0  0  0  0  0  0  0  0  0  0  0  0
  1  2  1  0
  1 36  1  0
  1 37  1  0
  2 35  2  0
  2  3  1  0
  3  4  2  0
  3 38  1  0
  4  5  1  0
  4 39  1  0
  5  6  1  0
  5 34  2  0
  6 32  1  0
  6  7  2  0
  7  8  1  0
  7 40  1  0
  8  9  1  0
  8 10  1  0
 10 11  1  0
 10 32  2  0
 11 12  1  0
 11 41  1  0
 12 13  1  1
 12 14  1  0
 12 21  1  0
 14 15  1  0
 14 42  1  0
 14 43  1  0
 15 20  1  0
 15 16  2  0
 16 17  1  0
 16 44  1  0
 17 18  2  0
 17 45  1  0
 18 19  1  0
 18 46  1  0
 19 20  2  0
 21 22  1  0
 21 47  1  0
 21 48  1  0
 22 31  1  0
 22 23  2  0
 23 24  1  0
 23 49  1  0
 24 25  2  0
 24 50  1  0
 25 26  1  0
 25 51  1  0
 26 31  2  0
 26 27  1  0
 27 28  2  0
 27 52  1  0
 28 29  1  0
 28 53  1  0
 29 30  2  0
 29 54  1  0
 30 31  1  0
 30 55  1  0
 32 33  1  0
 34 35  1  0
 34 56  1  0
 35 57  1  0
M  CHG  1  32   1
M  END
>  <DOCK_score>  (1) 
-57.451866

>  <SMILES>  (1) 
Nc1ccc(-c2c[nH]c(N[C@H](Cc3cccnn3)Cc3cccc4ccccc34)[nH+]2)cc1

$$$$
