CC(=O)c1ccccc1[C@H](c1ccccc1)[NH+]1CCN(c2cccc(C)c2CCl)CC1
     RDKit          3D

 61 64  0  0  1  0  0  0  0  0999 V2000
  130.9769  129.5148  159.7091 C   0  0  0  0  0  0  0  0  0  0  0  0
  129.9119  130.3412  159.0354 C   0  0  0  0  0  0  0  0  0  0  0  0
  128.8170  130.4510  159.5446 O   0  0  0  0  0  0  0  0  0  0  0  0
  130.2009  131.0152  157.7594 C   0  0  0  0  0  0  0  0  0  0  0  0
  130.5678  130.2666  156.6363 C   0  0  0  0  0  0  0  0  0  0  0  0
  130.8425  130.9058  155.4460 C   0  0  0  0  0  0  0  0  0  0  0  0
  130.7500  132.2842  155.3590 C   0  0  0  0  0  0  0  0  0  0  0  0
  130.3821  133.0315  156.4642 C   0  0  0  0  0  0  0  0  0  0  0  0
  130.1045  132.4069  157.6620 C   0  0  0  0  0  0  0  0  0  0  0  0
  129.7046  133.2224  158.8645 C   0  0  2  0  0  0  0  0  0  0  0  0
  129.5321  132.5594  159.7123 H   0  0  0  0  0  0  0  0  0  0  0  0
  128.4411  133.9841  158.5572 C   0  0  0  0  0  0  0  0  0  0  0  0
  127.2093  133.4129  158.8169 C   0  0  0  0  0  0  0  0  0  0  0  0
  126.0504  134.1131  158.5387 C   0  0  0  0  0  0  0  0  0  0  0  0
  126.1230  135.3810  157.9927 C   0  0  0  0  0  0  0  0  0  0  0  0
  127.3548  135.9503  157.7285 C   0  0  0  0  0  0  0  0  0  0  0  0
  128.5137  135.2516  158.0103 C   0  0  0  0  0  0  0  0  0  0  0  0
  130.7790  134.1687  159.1936 N   0  0  0  0  0  0  0  0  0  0  0  0
  130.9383  134.7823  158.4087 H   0  0  0  0  0  0  0  0  0  0  0  0
  130.3885  134.9641  160.3651 C   0  0  0  0  0  0  0  0  0  0  0  0
  131.4993  135.9629  160.6969 C   0  0  0  0  0  0  0  0  0  0  0  0
  132.7447  135.2327  160.9722 N   0  0  0  0  0  0  0  0  0  0  0  0
  133.7702  136.1098  161.3324 C   0  0  0  0  0  0  0  0  0  0  0  0
  134.1794  137.1024  160.4503 C   0  0  0  0  0  0  0  0  0  0  0  0
  135.1967  137.9649  160.8077 C   0  0  0  0  0  0  0  0  0  0  0  0
  135.8052  137.8446  162.0440 C   0  0  0  0  0  0  0  0  0  0  0  0
  135.3976  136.8606  162.9257 C   0  0  0  0  0  0  0  0  0  0  0  0
  136.0638  136.7332  164.2714 C   0  0  0  0  0  0  0  0  0  0  0  0
  134.3802  135.9949  162.5749 C   0  0  0  0  0  0  0  0  0  0  0  0
  133.9366  134.9229  163.5366 C   0  0  0  0  0  0  0  0  0  0  0  0
  132.6138  135.5627  164.5814 Cl  0  0  0  0  0  0  0  0  0  0  0  0
  133.1349  134.4122  159.8168 C   0  0  0  0  0  0  0  0  0  0  0  0
  132.0106  133.4261  159.4922 C   0  0  0  0  0  0  0  0  0  0  0  0
  131.5548  130.1468  160.3833 H   0  0  0  0  0  0  0  0  0  0  0  0
  130.5080  128.7112  160.2770 H   0  0  0  0  0  0  0  0  0  0  0  0
  131.6379  129.0888  158.9543 H   0  0  0  0  0  0  0  0  0  0  0  0
  130.6401  129.1911  156.7025 H   0  0  0  0  0  0  0  0  0  0  0  0
  131.1302  130.3296  154.5790 H   0  0  0  0  0  0  0  0  0  0  0  0
  130.9656  132.7791  154.4237 H   0  0  0  0  0  0  0  0  0  0  0  0
  130.3118  134.1065  156.3884 H   0  0  0  0  0  0  0  0  0  0  0  0
  127.1525  132.4209  159.2400 H   0  0  0  0  0  0  0  0  0  0  0  0
  125.0880  133.6684  158.7446 H   0  0  0  0  0  0  0  0  0  0  0  0
  125.2175  135.9268  157.7721 H   0  0  0  0  0  0  0  0  0  0  0  0
  127.4116  136.9408  157.3016 H   0  0  0  0  0  0  0  0  0  0  0  0
  129.4761  135.6962  157.8037 H   0  0  0  0  0  0  0  0  0  0  0  0
  130.2285  134.3026  161.2165 H   0  0  0  0  0  0  0  0  0  0  0  0
  129.4674  135.5045  160.1467 H   0  0  0  0  0  0  0  0  0  0  0  0
  131.2164  136.5432  161.5752 H   0  0  0  0  0  0  0  0  0  0  0  0
  131.6502  136.6335  159.8508 H   0  0  0  0  0  0  0  0  0  0  0  0
  133.7047  137.1967  159.4849 H   0  0  0  0  0  0  0  0  0  0  0  0
  135.5175  138.7345  160.1213 H   0  0  0  0  0  0  0  0  0  0  0  0
  136.6007  138.5205  162.3210 H   0  0  0  0  0  0  0  0  0  0  0  0
  136.9138  136.0554  164.1933 H   0  0  0  0  0  0  0  0  0  0  0  0
  136.4095  137.7132  164.6001 H   0  0  0  0  0  0  0  0  0  0  0  0
  135.3498  136.3386  164.9944 H   0  0  0  0  0  0  0  0  0  0  0  0
  133.5732  134.0607  162.9774 H   0  0  0  0  0  0  0  0  0  0  0  0
  134.7791  134.6227  164.1600 H   0  0  0  0  0  0  0  0  0  0  0  0
  133.3128  135.0571  158.9563 H   0  0  0  0  0  0  0  0  0  0  0  0
  134.0451  133.8610  160.0530 H   0  0  0  0  0  0  0  0  0  0  0  0
  131.8423  132.7725  160.3482 H   0  0  0  0  0  0  0  0  0  0  0  0
  132.2921  132.8263  158.6268 H   0  0  0  0  0  0  0  0  0  0  0  0
  1  2  1  0
  1 34  1  0
  1 35  1  0
  1 36  1  0
  2  3  2  0
  2  4  1  0
  4  9  2  0
  4  5  1  0
  5  6  2  0
  5 37  1  0
  6  7  1  0
  6 38  1  0
  7  8  2  0
  7 39  1  0
  8  9  1  0
  8 40  1  0
  9 10  1  0
 10 11  1  1
 10 12  1  0
 10 18  1  0
 12 17  1  0
 12 13  2  0
 13 14  1  0
 13 41  1  0
 14 15  2  0
 14 42  1  0
 15 16  1  0
 15 43  1  0
 16 17  2  0
 16 44  1  0
 17 45  1  0
 18 19  1  0
 18 33  1  0
 18 20  1  0
 20 21  1  0
 20 46  1  0
 20 47  1  0
 21 22  1  0
 21 48  1  0
 21 49  1  0
 22 23  1  0
 22 32  1  0
 23 29  1  0
 23 24  2  0
 24 25  1  0
 24 50  1  0
 25 26  2  0
 25 51  1  0
 26 27  1  0
 26 52  1  0
 27 28  1  0
 27 29  2  0
 28 53  1  0
 28 54  1  0
 28 55  1  0
 29 30  1  0
 30 31  1  0
 30 56  1  0
 30 57  1  0
 32 33  1  0
 32 58  1  0
 32 59  1  0
 33 60  1  0
 33 61  1  0
M  CHG  1  18   1
M  END
>  <DOCK_score>  (1) 
-58.019737

>  <SMILES>  (1) 
CC(=O)c1ccccc1[C@H](c1ccccc1)[NH+]1CCN(c2cccc(C)c2CCl)CC1

$$$$
