Nc1ccc(Sc2ccccc2)c(Nc2[nH]cc(C3=CCC=CC3)[nH+]2)c1
     RDKit          3D

 47 50  0  0  1  0  0  0  0  0999 V2000
  125.9049  135.9880  160.3271 N   0  0  0  0  0  0  0  0  0  0  0  0
  127.2518  135.8214  160.6694 C   0  0  0  0  0  0  0  0  0  0  0  0
  127.6552  135.9673  161.9904 C   0  0  0  0  0  0  0  0  0  0  0  0
  128.9842  135.8036  162.3320 C   0  0  0  0  0  0  0  0  0  0  0  0
  129.9185  135.4878  161.3567 C   0  0  0  0  0  0  0  0  0  0  0  0
  131.6117  135.2726  161.7943 S   0  0  0  0  0  0  0  0  0  0  0  0
  132.2750  136.8958  161.6218 C   0  0  0  0  0  0  0  0  0  0  0  0
  132.2697  137.7691  162.7032 C   0  0  0  0  0  0  0  0  0  0  0  0
  132.7953  139.0385  162.5659 C   0  0  0  0  0  0  0  0  0  0  0  0
  133.3171  139.4451  161.3511 C   0  0  0  0  0  0  0  0  0  0  0  0
  133.3188  138.5808  160.2712 C   0  0  0  0  0  0  0  0  0  0  0  0
  132.7999  137.3081  160.4027 C   0  0  0  0  0  0  0  0  0  0  0  0
  129.5172  135.3453  160.0281 C   0  0  0  0  0  0  0  0  0  0  0  0
  130.4588  135.0309  159.0410 N   0  0  0  0  0  0  0  0  0  0  0  0
  130.3216  133.8707  158.2976 C   0  0  0  0  0  0  0  0  0  0  0  0
  129.7443  132.7158  158.7301 N   0  0  0  0  0  0  0  0  0  0  0  0
  129.3591  132.5596  159.6066 H   0  0  0  0  0  0  0  0  0  0  0  0
  129.8040  131.8148  157.6964 C   0  0  0  0  0  0  0  0  0  0  0  0
  130.4236  132.4418  156.6625 C   0  0  0  0  0  0  0  0  0  0  0  0
  130.7114  131.8569  155.3368 C   0  0  0  0  0  0  0  0  0  0  0  0
  130.9276  130.5621  155.2512 C   0  0  0  0  0  0  0  0  0  0  0  0
  131.2214  129.8759  153.9509 C   0  0  0  0  0  0  0  0  0  0  0  0
  130.7859  130.7123  152.7860 C   0  0  0  0  0  0  0  0  0  0  0  0
  130.5772  131.9900  152.8712 C   0  0  0  0  0  0  0  0  0  0  0  0
  130.7505  132.7635  154.1432 C   0  0  0  0  0  0  0  0  0  0  0  0
  130.7262  133.7036  157.0622 N   0  0  0  0  0  0  0  0  0  0  0  0
  131.1711  134.3739  156.5205 H   0  0  0  0  0  0  0  0  0  0  0  0
  128.1832  135.5100  159.6883 C   0  0  0  0  0  0  0  0  0  0  0  0
  125.6227  135.8858  159.4047 H   0  0  0  0  0  0  0  0  0  0  0  0
  125.2538  136.2054  161.0124 H   0  0  0  0  0  0  0  0  0  0  0  0
  126.9288  136.2096  162.7522 H   0  0  0  0  0  0  0  0  0  0  0  0
  129.2949  135.9176  163.3600 H   0  0  0  0  0  0  0  0  0  0  0  0
  131.8587  137.4538  163.6508 H   0  0  0  0  0  0  0  0  0  0  0  0
  132.7955  139.7161  163.4068 H   0  0  0  0  0  0  0  0  0  0  0  0
  133.7236  140.4399  161.2455 H   0  0  0  0  0  0  0  0  0  0  0  0
  133.7272  138.9018  159.3244 H   0  0  0  0  0  0  0  0  0  0  0  0
  132.8014  136.6338  159.5589 H   0  0  0  0  0  0  0  0  0  0  0  0
  131.2075  135.6257  158.8777 H   0  0  0  0  0  0  0  0  0  0  0  0
  129.4317  130.8010  157.7040 H   0  0  0  0  0  0  0  0  0  0  0  0
  130.8873  129.9690  156.1529 H   0  0  0  0  0  0  0  0  0  0  0  0
  132.2935  129.6926  153.8781 H   0  0  0  0  0  0  0  0  0  0  0  0
  130.6935  128.9227  153.9226 H   0  0  0  0  0  0  0  0  0  0  0  0
  130.6387  130.2289  151.8315 H   0  0  0  0  0  0  0  0  0  0  0  0
  130.2642  132.5209  151.9842 H   0  0  0  0  0  0  0  0  0  0  0  0
  131.7078  133.2843  154.1168 H   0  0  0  0  0  0  0  0  0  0  0  0
  129.9483  133.4964  154.2278 H   0  0  0  0  0  0  0  0  0  0  0  0
  127.8690  135.3967  158.6612 H   0  0  0  0  0  0  0  0  0  0  0  0
  1  2  1  0
  1 29  1  0
  1 30  1  0
  2 28  2  0
  2  3  1  0
  3  4  2  0
  3 31  1  0
  4  5  1  0
  4 32  1  0
  5  6  1  0
  5 13  2  0
  6  7  1  0
  7 12  1  0
  7  8  2  0
  8  9  1  0
  8 33  1  0
  9 10  2  0
  9 34  1  0
 10 11  1  0
 10 35  1  0
 11 12  2  0
 11 36  1  0
 12 37  1  0
 13 14  1  0
 13 28  1  0
 14 38  1  0
 15 14  1  0
 15 26  2  0
 15 16  1  0
 16 17  1  0
 16 18  1  0
 18 19  2  0
 18 39  1  0
 19 20  1  0
 19 26  1  0
 20 25  1  0
 20 21  2  0
 21 22  1  0
 21 40  1  0
 22 23  1  0
 22 41  1  0
 22 42  1  0
 23 24  2  0
 23 43  1  0
 24 25  1  0
 24 44  1  0
 25 45  1  0
 25 46  1  0
 26 27  1  0
 28 47  1  0
M  CHG  1  26   1
M  END
>  <DOCK_score>  (1) 
-57.274658

>  <SMILES>  (1) 
Nc1ccc(Sc2ccccc2)c(Nc2[nH]cc(C3=CCC=CC3)[nH+]2)c1

$$$$
