Nc1ccc(-c2c[nH]c(N[C@@H](C3=CCCC3)c3cccc4ccccc34)[nH+]2)cc1
     RDKit          3D

 54 58  0  0  1  0  0  0  0  0999 V2000
  130.8282  129.1818  151.1151 N   0  0  0  0  0  0  0  0  0  0  0  0
  130.7646  129.8065  152.3630 C   0  0  0  0  0  0  0  0  0  0  0  0
  130.0555  130.9938  152.5086 C   0  0  0  0  0  0  0  0  0  0  0  0
  129.9917  131.6131  153.7389 C   0  0  0  0  0  0  0  0  0  0  0  0
  130.6383  131.0479  154.8370 C   0  0  0  0  0  0  0  0  0  0  0  0
  130.5716  131.7126  156.1616 C   0  0  0  0  0  0  0  0  0  0  0  0
  130.0544  131.1801  157.2963 C   0  0  0  0  0  0  0  0  0  0  0  0
  130.1945  132.1285  158.2816 N   0  0  0  0  0  0  0  0  0  0  0  0
  129.9174  132.0410  159.2071 H   0  0  0  0  0  0  0  0  0  0  0  0
  130.7934  133.2130  157.7186 C   0  0  0  0  0  0  0  0  0  0  0  0
  131.1138  134.3888  158.3753 N   0  0  0  0  0  0  0  0  0  0  0  0
  130.8067  134.5392  159.7999 C   0  0  1  0  0  0  0  0  0  0  0  0
  131.0178  133.6037  160.3178 H   0  0  0  0  0  0  0  0  0  0  0  0
  131.6560  135.6390  160.3832 C   0  0  0  0  0  0  0  0  0  0  0  0
  132.8368  135.4596  160.9098 C   0  0  0  0  0  0  0  0  0  0  0  0
  133.4178  136.7653  161.4005 C   0  0  0  0  0  0  0  0  0  0  0  0
  132.2125  137.7318  161.4664 C   0  0  0  0  0  0  0  0  0  0  0  0
  131.2552  137.0952  160.4297 C   0  0  0  0  0  0  0  0  0  0  0  0
  129.3500  134.8878  159.9658 C   0  0  0  0  0  0  0  0  0  0  0  0
  128.5481  135.0142  158.8731 C   0  0  0  0  0  0  0  0  0  0  0  0
  127.1992  135.3368  159.0067 C   0  0  0  0  0  0  0  0  0  0  0  0
  126.6442  135.5350  160.2338 C   0  0  0  0  0  0  0  0  0  0  0  0
  127.4405  135.4128  161.3848 C   0  0  0  0  0  0  0  0  0  0  0  0
  126.9031  135.6098  162.6686 C   0  0  0  0  0  0  0  0  0  0  0  0
  127.7047  135.4826  163.7609 C   0  0  0  0  0  0  0  0  0  0  0  0
  129.0540  135.1597  163.6272 C   0  0  0  0  0  0  0  0  0  0  0  0
  129.6090  134.9614  162.4006 C   0  0  0  0  0  0  0  0  0  0  0  0
  128.8138  135.0890  161.2487 C   0  0  0  0  0  0  0  0  0  0  0  0
  131.0121  132.9626  156.4507 N   0  0  0  0  0  0  0  0  0  0  0  0
  131.4249  133.5733  155.8199 H   0  0  0  0  0  0  0  0  0  0  0  0
  131.3528  129.8603  154.6872 C   0  0  0  0  0  0  0  0  0  0  0  0
  131.4095  129.2417  153.4561 C   0  0  0  0  0  0  0  0  0  0  0  0
  130.3779  129.5757  150.3515 H   0  0  0  0  0  0  0  0  0  0  0  0
  131.3226  128.3537  151.0125 H   0  0  0  0  0  0  0  0  0  0  0  0
  129.5548  131.4314  151.6576 H   0  0  0  0  0  0  0  0  0  0  0  0
  129.4409  132.5352  153.8518 H   0  0  0  0  0  0  0  0  0  0  0  0
  129.6160  130.1991  157.4050 H   0  0  0  0  0  0  0  0  0  0  0  0
  131.5415  135.1131  157.8923 H   0  0  0  0  0  0  0  0  0  0  0  0
  133.3332  134.5034  160.9851 H   0  0  0  0  0  0  0  0  0  0  0  0
  133.8566  136.6375  162.3903 H   0  0  0  0  0  0  0  0  0  0  0  0
  134.1643  137.1365  160.6983 H   0  0  0  0  0  0  0  0  0  0  0  0
  131.7693  137.7373  162.4623 H   0  0  0  0  0  0  0  0  0  0  0  0
  132.5009  138.7380  161.1626 H   0  0  0  0  0  0  0  0  0  0  0  0
  131.3890  137.5573  159.4517 H   0  0  0  0  0  0  0  0  0  0  0  0
  130.2208  137.1939  160.7590 H   0  0  0  0  0  0  0  0  0  0  0  0
  128.9636  134.8623  157.8879 H   0  0  0  0  0  0  0  0  0  0  0  0
  126.5849  135.4312  158.1234 H   0  0  0  0  0  0  0  0  0  0  0  0
  125.5971  135.7846  160.3220 H   0  0  0  0  0  0  0  0  0  0  0  0
  125.8593  135.8603  162.7875 H   0  0  0  0  0  0  0  0  0  0  0  0
  127.2893  135.6344  164.7461 H   0  0  0  0  0  0  0  0  0  0  0  0
  129.6684  135.0652  164.5105 H   0  0  0  0  0  0  0  0  0  0  0  0
  130.6560  134.7118  162.3124 H   0  0  0  0  0  0  0  0  0  0  0  0
  131.8578  129.4228  155.5356 H   0  0  0  0  0  0  0  0  0  0  0  0
  131.9594  128.3194  153.3405 H   0  0  0  0  0  0  0  0  0  0  0  0
  1  2  1  0
  1 33  1  0
  1 34  1  0
  2 32  2  0
  2  3  1  0
  3  4  2  0
  3 35  1  0
  4  5  1  0
  4 36  1  0
  5  6  1  0
  5 31  2  0
  6 29  1  0
  6  7  2  0
  7  8  1  0
  7 37  1  0
  8  9  1  0
  8 10  1  0
 10 11  1  0
 10 29  2  0
 11 12  1  0
 11 38  1  0
 12 13  1  1
 12 14  1  0
 12 19  1  0
 14 18  1  0
 14 15  2  0
 15 16  1  0
 15 39  1  0
 16 17  1  0
 16 40  1  0
 16 41  1  0
 17 18  1  0
 17 42  1  0
 17 43  1  0
 18 44  1  0
 18 45  1  0
 19 28  1  0
 19 20  2  0
 20 21  1  0
 20 46  1  0
 21 22  2  0
 21 47  1  0
 22 23  1  0
 22 48  1  0
 23 28  2  0
 23 24  1  0
 24 25  2  0
 24 49  1  0
 25 26  1  0
 25 50  1  0
 26 27  2  0
 26 51  1  0
 27 28  1  0
 27 52  1  0
 29 30  1  0
 31 32  1  0
 31 53  1  0
 32 54  1  0
M  CHG  1  29   1
M  END
>  <DOCK_score>  (1) 
-58.693146

>  <SMILES>  (1) 
Nc1ccc(-c2c[nH]c(N[C@@H](C3=CCCC3)c3cccc4ccccc34)[nH+]2)cc1

$$$$
