Cc1ccc2c(c1)C[C@H]([NH+]=C(NC=C1NCCN1)N[C@H]1CCC(=O)NC1)CO2
     RDKit          3D

 57 60  0  0  1  0  0  0  0  0999 V2000
  126.7501  135.4848  168.0432 C   0  0  0  0  0  0  0  0  0  0  0  0
  126.7768  135.7258  166.5558 C   0  0  0  0  0  0  0  0  0  0  0  0
  125.6106  135.6319  165.8187 C   0  0  0  0  0  0  0  0  0  0  0  0
  125.6366  135.8514  164.4569 C   0  0  0  0  0  0  0  0  0  0  0  0
  126.8333  136.1676  163.8213 C   0  0  0  0  0  0  0  0  0  0  0  0
  127.9981  136.2644  164.5620 C   0  0  0  0  0  0  0  0  0  0  0  0
  127.9663  136.0409  165.9285 C   0  0  0  0  0  0  0  0  0  0  0  0
  129.3135  136.6164  163.9148 C   0  0  0  0  0  0  0  0  0  0  0  0
  129.2227  136.3849  162.4040 C   0  0  2  0  0  0  0  0  0  0  0  0
  129.1956  135.3152  162.1965 H   0  0  0  0  0  0  0  0  0  0  0  0
  130.3820  136.9880  161.7419 N   0  0  0  0  0  0  0  0  0  0  0  0
  130.8060  137.7718  162.1248 H   0  0  0  0  0  0  0  0  0  0  0  0
  130.8442  136.4706  160.6366 C   0  0  0  0  0  0  0  0  0  0  0  0
  130.2440  135.3611  160.0945 N   0  0  0  0  0  0  0  0  0  0  0  0
  131.0077  134.4405  159.3465 C   0  0  0  0  0  0  0  0  0  0  0  0
  130.4253  133.3641  158.8205 C   0  0  0  0  0  0  0  0  0  0  0  0
  129.0744  133.0620  158.9608 N   0  0  0  0  0  0  0  0  0  0  0  0
  128.7903  131.8096  158.2487 C   0  0  0  0  0  0  0  0  0  0  0  0
  130.1395  131.3684  157.6579 C   0  0  0  0  0  0  0  0  0  0  0  0
  131.0959  132.4036  158.0699 N   0  0  0  0  0  0  0  0  0  0  0  0
  131.9331  137.0369  160.0146 N   0  0  0  0  0  0  0  0  0  0  0  0
  132.9520  137.7288  160.8079 C   0  0  1  0  0  0  0  0  0  0  0  0
  132.4953  138.5603  161.3446 H   0  0  0  0  0  0  0  0  0  0  0  0
  133.5759  136.7502  161.8102 C   0  0  0  0  0  0  0  0  0  0  0  0
  134.4995  137.5368  162.7436 C   0  0  0  0  0  0  0  0  0  0  0  0
  135.4096  138.4187  161.9377 C   0  0  0  0  0  0  0  0  0  0  0  0
  136.4051  138.8583  162.4733 O   0  0  0  0  0  0  0  0  0  0  0  0
  135.1816  138.7445  160.6649 N   0  0  0  0  0  0  0  0  0  0  0  0
  134.0529  138.2525  159.8848 C   0  0  0  0  0  0  0  0  0  0  0  0
  127.9349  137.0435  161.8931 C   0  0  0  0  0  0  0  0  0  0  0  0
  126.8206  136.3679  162.4777 O   0  0  0  0  0  0  0  0  0  0  0  0
  126.5625  136.4259  168.5603 H   0  0  0  0  0  0  0  0  0  0  0  0
  125.9581  134.7751  168.2819 H   0  0  0  0  0  0  0  0  0  0  0  0
  127.7100  135.0796  168.3629 H   0  0  0  0  0  0  0  0  0  0  0  0
  124.6798  135.3873  166.3090 H   0  0  0  0  0  0  0  0  0  0  0  0
  124.7249  135.7783  163.8825 H   0  0  0  0  0  0  0  0  0  0  0  0
  128.8757  136.1137  166.5064 H   0  0  0  0  0  0  0  0  0  0  0  0
  129.5444  137.6638  164.1086 H   0  0  0  0  0  0  0  0  0  0  0  0
  130.1018  135.9890  164.3308 H   0  0  0  0  0  0  0  0  0  0  0  0
  129.2948  135.2103  160.2259 H   0  0  0  0  0  0  0  0  0  0  0  0
  132.0645  134.6084  159.2002 H   0  0  0  0  0  0  0  0  0  0  0  0
  128.4253  133.5937  159.4476 H   0  0  0  0  0  0  0  0  0  0  0  0
  128.0658  131.9791  157.4522 H   0  0  0  0  0  0  0  0  0  0  0  0
  128.4178  131.0576  158.9443 H   0  0  0  0  0  0  0  0  0  0  0  0
  130.0788  131.3207  156.5705 H   0  0  0  0  0  0  0  0  0  0  0  0
  130.4317  130.4000  158.0640 H   0  0  0  0  0  0  0  0  0  0  0  0
  132.0415  132.4156  157.8540 H   0  0  0  0  0  0  0  0  0  0  0  0
  132.0262  136.9781  159.0509 H   0  0  0  0  0  0  0  0  0  0  0  0
  132.7893  136.2695  162.3920 H   0  0  0  0  0  0  0  0  0  0  0  0
  134.1515  135.9945  161.2757 H   0  0  0  0  0  0  0  0  0  0  0  0
  133.8988  138.1522  163.4132 H   0  0  0  0  0  0  0  0  0  0  0  0
  135.0974  136.8410  163.3322 H   0  0  0  0  0  0  0  0  0  0  0  0
  135.8060  139.3467  160.2309 H   0  0  0  0  0  0  0  0  0  0  0  0
  134.3898  137.4466  159.2326 H   0  0  0  0  0  0  0  0  0  0  0  0
  133.6559  139.0635  159.2745 H   0  0  0  0  0  0  0  0  0  0  0  0
  127.8860  136.9605  160.8073 H   0  0  0  0  0  0  0  0  0  0  0  0
  127.9196  138.0944  162.1819 H   0  0  0  0  0  0  0  0  0  0  0  0
  1  2  1  0
  1 32  1  0
  1 33  1  0
  1 34  1  0
  2  7  2  0
  2  3  1  0
  3  4  2  0
  3 35  1  0
  4  5  1  0
  4 36  1  0
  5 31  1  0
  5  6  2  0
  6  7  1  0
  6  8  1  0
  7 37  1  0
  8  9  1  0
  8 38  1  0
  8 39  1  0
  9 10  1  1
  9 11  1  0
  9 30  1  0
 11 12  1  0
 13 11  2  0
 13 14  1  0
 13 21  1  0
 14 15  1  0
 14 40  1  0
 15 16  2  0
 15 41  1  0
 16 20  1  0
 16 17  1  0
 17 18  1  0
 17 42  1  0
 18 19  1  0
 18 43  1  0
 18 44  1  0
 19 20  1  0
 19 45  1  0
 19 46  1  0
 20 47  1  0
 21 22  1  0
 21 48  1  0
 22 23  1  1
 22 29  1  0
 22 24  1  0
 24 25  1  0
 24 49  1  0
 24 50  1  0
 25 26  1  0
 25 51  1  0
 25 52  1  0
 26 27  2  0
 26 28  1  0
 28 29  1  0
 28 53  1  0
 29 54  1  0
 29 55  1  0
 30 31  1  0
 30 56  1  0
 30 57  1  0
M  CHG  1  11   1
M  END
>  <DOCK_score>  (1) 
-45.131264

>  <SMILES>  (1) 
Cc1ccc2c(c1)C[C@H]([NH+]=C(NC=C1NCCN1)N[C@H]1CCC(=O)NC1)CO2

$$$$
