Fc1ccc(OCCc2cccc3[nH]c(CN[C@H]4CC[NH+]5CCCCC45)cc23)cc1
     RDKit          3D

 61 65  0  0  1  0  0  0  0  0999 V2000
  139.0740  133.6588  163.1771 F   0  0  0  0  0  0  0  0  0  0  0  0
  138.2769  134.7444  163.2854 C   0  0  0  0  0  0  0  0  0  0  0  0
  138.6870  135.8311  164.0389 C   0  0  0  0  0  0  0  0  0  0  0  0
  137.8730  136.9417  164.1506 C   0  0  0  0  0  0  0  0  0  0  0  0
  136.6445  136.9677  163.5072 C   0  0  0  0  0  0  0  0  0  0  0  0
  135.8423  138.0599  163.6166 O   0  0  0  0  0  0  0  0  0  0  0  0
  136.4867  139.3227  163.7959 C   0  0  0  0  0  0  0  0  0  0  0  0
  135.6263  140.4265  163.1774 C   0  0  0  0  0  0  0  0  0  0  0  0
  135.4471  140.1584  161.7054 C   0  0  0  0  0  0  0  0  0  0  0  0
  136.3360  140.6694  160.8020 C   0  0  0  0  0  0  0  0  0  0  0  0
  136.1818  140.4236  159.4447 C   0  0  0  0  0  0  0  0  0  0  0  0
  135.1253  139.6693  158.9827 C   0  0  0  0  0  0  0  0  0  0  0  0
  134.2055  139.1438  159.8839 C   0  0  0  0  0  0  0  0  0  0  0  0
  133.0743  138.3717  159.7422 N   0  0  0  0  0  0  0  0  0  0  0  0
  132.7211  138.0505  158.8979 H   0  0  0  0  0  0  0  0  0  0  0  0
  132.5224  138.1254  160.9699 C   0  0  0  0  0  0  0  0  0  0  0  0
  131.2757  137.3137  161.2108 C   0  0  0  0  0  0  0  0  0  0  0  0
  131.3286  136.0848  160.4076 N   0  0  0  0  0  0  0  0  0  0  0  0
  129.9874  135.5116  160.2336 C   0  0  1  0  0  0  0  0  0  0  0  0
  129.4156  135.5927  161.1579 H   0  0  0  0  0  0  0  0  0  0  0  0
  129.2439  136.2132  159.0681 C   0  0  0  0  0  0  0  0  0  0  0  0
  129.0285  135.1022  158.0056 C   0  0  0  0  0  0  0  0  0  0  0  0
  130.0945  134.1325  158.3031 N   0  0  2  0  0  0  0  0  0  0  0  0
  130.9827  134.4922  157.9873 H   0  0  0  0  0  0  0  0  0  0  0  0
  129.8808  132.7915  157.7752 C   0  0  0  0  0  0  0  0  0  0  0  0
  131.1061  131.9414  158.1434 C   0  0  0  0  0  0  0  0  0  0  0  0
  131.3138  131.9164  159.6573 C   0  0  0  0  0  0  0  0  0  0  0  0
  131.3554  133.3425  160.2308 C   0  0  0  0  0  0  0  0  0  0  0  0
  130.0827  134.0490  159.7881 C   0  0  1  0  0  0  0  0  0  0  0  0
  133.2561  138.7135  161.9279 C   0  0  0  0  0  0  0  0  0  0  0  0
  134.3691  139.3918  161.2592 C   0  0  0  0  0  0  0  0  0  0  0  0
  136.2325  135.8763  162.7570 C   0  0  0  0  0  0  0  0  0  0  0  0
  137.0507  134.7689  162.6430 C   0  0  0  0  0  0  0  0  0  0  0  0
  139.6435  135.8103  164.5401 H   0  0  0  0  0  0  0  0  0  0  0  0
  138.1930  137.7890  164.7388 H   0  0  0  0  0  0  0  0  0  0  0  0
  137.4615  139.3057  163.3082 H   0  0  0  0  0  0  0  0  0  0  0  0
  136.6164  139.5167  164.8606 H   0  0  0  0  0  0  0  0  0  0  0  0
  134.6516  140.4435  163.6650 H   0  0  0  0  0  0  0  0  0  0  0  0
  136.1178  141.3898  163.3141 H   0  0  0  0  0  0  0  0  0  0  0  0
  137.1672  141.2664  161.1472 H   0  0  0  0  0  0  0  0  0  0  0  0
  136.8950  140.8308  158.7433 H   0  0  0  0  0  0  0  0  0  0  0  0
  135.0117  139.4871  157.9243 H   0  0  0  0  0  0  0  0  0  0  0  0
  131.2096  137.0545  162.2674 H   0  0  0  0  0  0  0  0  0  0  0  0
  130.4010  137.8976  160.9245 H   0  0  0  0  0  0  0  0  0  0  0  0
  131.7679  136.2548  159.5153 H   0  0  0  0  0  0  0  0  0  0  0  0
  128.2847  136.6020  159.4097 H   0  0  0  0  0  0  0  0  0  0  0  0
  129.8552  137.0169  158.6576 H   0  0  0  0  0  0  0  0  0  0  0  0
  129.1458  135.5051  156.9995 H   0  0  0  0  0  0  0  0  0  0  0  0
  128.0473  134.6426  158.1241 H   0  0  0  0  0  0  0  0  0  0  0  0
  128.9843  132.3587  158.2190 H   0  0  0  0  0  0  0  0  0  0  0  0
  129.7723  132.8345  156.6915 H   0  0  0  0  0  0  0  0  0  0  0  0
  130.9569  130.9230  157.7849 H   0  0  0  0  0  0  0  0  0  0  0  0
  131.9914  132.3625  157.6668 H   0  0  0  0  0  0  0  0  0  0  0  0
  130.4916  131.3738  160.1239 H   0  0  0  0  0  0  0  0  0  0  0  0
  132.2524  131.4104  159.8831 H   0  0  0  0  0  0  0  0  0  0  0  0
  132.2261  133.8674  159.8378 H   0  0  0  0  0  0  0  0  0  0  0  0
  131.4016  133.3102  161.3193 H   0  0  0  0  0  0  0  0  0  0  0  0
  129.2077  133.4946  160.1276 H   0  0  0  0  0  0  0  0  0  0  0  0
  133.0624  138.6910  162.9901 H   0  0  0  0  0  0  0  0  0  0  0  0
  135.2743  135.8936  162.2591 H   0  0  0  0  0  0  0  0  0  0  0  0
  136.7317  133.9203  162.0560 H   0  0  0  0  0  0  0  0  0  0  0  0
  1  2  1  0
  2 33  2  0
  2  3  1  0
  3  4  2  0
  3 34  1  0
  4  5  1  0
  4 35  1  0
  5  6  1  0
  5 32  2  0
  6  7  1  0
  7  8  1  0
  7 36  1  0
  7 37  1  0
  8  9  1  0
  8 38  1  0
  8 39  1  0
  9 31  1  0
  9 10  2  0
 10 11  1  0
 10 40  1  0
 11 12  2  0
 11 41  1  0
 12 13  1  0
 12 42  1  0
 13 31  2  0
 13 14  1  0
 14 15  1  0
 14 16  1  0
 16 17  1  0
 16 30  2  0
 17 18  1  0
 17 43  1  0
 17 44  1  0
 18 19  1  0
 18 45  1  0
 19 20  1  1
 19 29  1  0
 19 21  1  0
 21 22  1  0
 21 46  1  0
 21 47  1  0
 22 23  1  0
 22 48  1  0
 22 49  1  0
 23 24  1  6
 23 29  1  0
 23 25  1  0
 25 26  1  0
 25 50  1  0
 25 51  1  0
 26 27  1  0
 26 52  1  0
 26 53  1  0
 27 28  1  0
 27 54  1  0
 27 55  1  0
 28 29  1  0
 28 56  1  0
 28 57  1  0
 29 58  1  6
 30 31  1  0
 30 59  1  0
 32 33  1  0
 32 60  1  0
 33 61  1  0
M  CHG  1  23   1
M  END
>  <DOCK_score>  (1) 
-63.882645

>  <SMILES>  (1) 
Fc1ccc(OCCc2cccc3[nH]c(CN[C@H]4CC[NH+]5CCCCC45)cc23)cc1

$$$$
