C1=CCC(c2ccc([C@H](Nc3[nH]cc(C4CC4)[nH+]3)c3ccccc3)cc2)C1
     RDKit          3D

 53 57  0  0  1  0  0  0  0  0999 V2000
  131.3453  141.5057  164.0756 C   0  0  0  0  0  0  0  0  0  0  0  0
  132.5889  141.2092  163.8125 C   0  0  0  0  0  0  0  0  0  0  0  0
  132.6886  140.2961  162.6128 C   0  0  0  0  0  0  0  0  0  0  0  0
  131.3128  140.4075  161.9155 C   0  0  0  0  0  0  0  0  0  0  0  0
  130.8796  139.0759  161.3586 C   0  0  0  0  0  0  0  0  0  0  0  0
  130.7129  137.9944  162.2022 C   0  0  0  0  0  0  0  0  0  0  0  0
  130.3116  136.7742  161.6913 C   0  0  0  0  0  0  0  0  0  0  0  0
  130.0849  136.6338  160.3349 C   0  0  0  0  0  0  0  0  0  0  0  0
  129.6510  135.3025  159.7774 C   0  0  2  0  0  0  0  0  0  0  0  0
  130.0589  134.5006  160.3926 H   0  0  0  0  0  0  0  0  0  0  0  0
  130.1439  135.1640  158.4048 N   0  0  0  0  0  0  0  0  0  0  0  0
  129.8679  134.0149  157.6827 C   0  0  0  0  0  0  0  0  0  0  0  0
  129.1590  132.9442  158.1315 N   0  0  0  0  0  0  0  0  0  0  0  0
  128.7567  132.8455  159.0086 H   0  0  0  0  0  0  0  0  0  0  0  0
  129.1185  132.0286  157.1042 C   0  0  0  0  0  0  0  0  0  0  0  0
  129.8028  132.5612  156.0777 C   0  0  0  0  0  0  0  0  0  0  0  0
  130.0297  131.9117  154.7369 C   0  0  0  0  0  0  0  0  0  0  0  0
  131.1584  130.8841  154.6317 C   0  0  0  0  0  0  0  0  0  0  0  0
  131.3174  132.2647  153.9897 C   0  0  0  0  0  0  0  0  0  0  0  0
  130.2509  133.7718  156.4515 N   0  0  0  0  0  0  0  0  0  0  0  0
  130.7748  134.3718  155.8979 H   0  0  0  0  0  0  0  0  0  0  0  0
  128.1462  135.2228  159.7811 C   0  0  0  0  0  0  0  0  0  0  0  0
  127.4839  134.7109  160.8813 C   0  0  0  0  0  0  0  0  0  0  0  0
  126.1033  134.6418  160.8866 C   0  0  0  0  0  0  0  0  0  0  0  0
  125.3854  135.0763  159.7880 C   0  0  0  0  0  0  0  0  0  0  0  0
  126.0479  135.5834  158.6858 C   0  0  0  0  0  0  0  0  0  0  0  0
  127.4283  135.6563  158.6823 C   0  0  0  0  0  0  0  0  0  0  0  0
  130.2566  137.7142  159.4899 C   0  0  0  0  0  0  0  0  0  0  0  0
  130.6541  138.9354  160.0013 C   0  0  0  0  0  0  0  0  0  0  0  0
  130.4081  140.8399  163.0950 C   0  0  0  0  0  0  0  0  0  0  0  0
  131.0279  142.1431  164.8876 H   0  0  0  0  0  0  0  0  0  0  0  0
  133.4356  141.5690  164.3783 H   0  0  0  0  0  0  0  0  0  0  0  0
  133.4813  140.6322  161.9446 H   0  0  0  0  0  0  0  0  0  0  0  0
  132.8708  139.2695  162.9311 H   0  0  0  0  0  0  0  0  0  0  0  0
  131.3297  141.1694  161.1363 H   0  0  0  0  0  0  0  0  0  0  0  0
  130.8934  138.1033  163.2614 H   0  0  0  0  0  0  0  0  0  0  0  0
  130.1780  135.9300  162.3515 H   0  0  0  0  0  0  0  0  0  0  0  0
  130.6636  135.8771  158.0017 H   0  0  0  0  0  0  0  0  0  0  0  0
  128.6325  131.0643  157.1214 H   0  0  0  0  0  0  0  0  0  0  0  0
  129.1336  131.7378  154.1411 H   0  0  0  0  0  0  0  0  0  0  0  0
  131.7369  130.6779  155.5322 H   0  0  0  0  0  0  0  0  0  0  0  0
  131.0051  130.0345  153.9664 H   0  0  0  0  0  0  0  0  0  0  0  0
  131.2685  132.3228  152.9023 H   0  0  0  0  0  0  0  0  0  0  0  0
  132.0002  132.9671  154.4679 H   0  0  0  0  0  0  0  0  0  0  0  0
  128.0449  134.3681  161.7380 H   0  0  0  0  0  0  0  0  0  0  0  0
  125.5856  134.2460  161.7477 H   0  0  0  0  0  0  0  0  0  0  0  0
  124.3069  135.0199  159.7909 H   0  0  0  0  0  0  0  0  0  0  0  0
  125.4870  135.9228  157.8275 H   0  0  0  0  0  0  0  0  0  0  0  0
  127.9459  136.0526  157.8212 H   0  0  0  0  0  0  0  0  0  0  0  0
  130.0797  137.6043  158.4301 H   0  0  0  0  0  0  0  0  0  0  0  0
  130.7882  139.7794  159.3411 H   0  0  0  0  0  0  0  0  0  0  0  0
  129.9388  139.9680  163.5507 H   0  0  0  0  0  0  0  0  0  0  0  0
  129.6492  141.5450  162.7563 H   0  0  0  0  0  0  0  0  0  0  0  0
  1 30  1  0
  1  2  2  0
  1 31  1  0
  2  3  1  0
  2 32  1  0
  3  4  1  0
  3 33  1  0
  3 34  1  0
  4  5  1  0
  4 30  1  0
  4 35  1  0
  5 29  1  0
  5  6  2  0
  6  7  1  0
  6 36  1  0
  7  8  2  0
  7 37  1  0
  8  9  1  0
  8 28  1  0
  9 10  1  1
  9 11  1  0
  9 22  1  0
 11 38  1  0
 12 11  1  0
 12 20  2  0
 12 13  1  0
 13 14  1  0
 13 15  1  0
 15 16  2  0
 15 39  1  0
 16 17  1  0
 16 20  1  0
 17 19  1  0
 17 18  1  0
 17 40  1  0
 18 19  1  0
 18 41  1  0
 18 42  1  0
 19 43  1  0
 19 44  1  0
 20 21  1  0
 22 27  1  0
 22 23  2  0
 23 24  1  0
 23 45  1  0
 24 25  2  0
 24 46  1  0
 25 26  1  0
 25 47  1  0
 26 27  2  0
 26 48  1  0
 27 49  1  0
 28 29  2  0
 28 50  1  0
 29 51  1  0
 30 52  1  0
 30 53  1  0
M  CHG  1  20   1
M  END
>  <DOCK_score>  (1) 
-57.167522

>  <SMILES>  (1) 
C1=CCC(c2ccc([C@H](Nc3[nH]cc(C4CC4)[nH+]3)c3ccccc3)cc2)C1

$$$$
