CCc1ccc(-c2c[nH]c(N[C@H](c3ccnn3C)C(C)(C)Sc3ccnn3C)[nH+]2)cc1
     RDKit          3D

 61 64  0  0  1  0  0  0  0  0999 V2000
  130.1149  128.8180  151.7313 C   0  0  0  0  0  0  0  0  0  0  0  0
  131.3522  129.6403  152.0966 C   0  0  0  0  0  0  0  0  0  0  0  0
  131.1005  130.3819  153.3841 C   0  0  0  0  0  0  0  0  0  0  0  0
  131.4205  129.7917  154.5931 C   0  0  0  0  0  0  0  0  0  0  0  0
  131.1966  130.4681  155.7750 C   0  0  0  0  0  0  0  0  0  0  0  0
  130.6371  131.7444  155.7492 C   0  0  0  0  0  0  0  0  0  0  0  0
  130.3893  132.4743  157.0165 C   0  0  0  0  0  0  0  0  0  0  0  0
  129.5933  132.0604  158.0333 C   0  0  0  0  0  0  0  0  0  0  0  0
  129.6501  133.0305  159.0043 N   0  0  0  0  0  0  0  0  0  0  0  0
  129.1843  133.0197  159.8551 H   0  0  0  0  0  0  0  0  0  0  0  0
  130.4801  134.0097  158.5520 C   0  0  0  0  0  0  0  0  0  0  0  0
  130.8056  135.1696  159.2341 N   0  0  0  0  0  0  0  0  0  0  0  0
  130.8325  135.1749  160.6989 C   0  0  2  0  0  0  0  0  0  0  0  0
  131.2713  134.2438  161.0576 H   0  0  0  0  0  0  0  0  0  0  0  0
  129.4268  135.3037  161.2267 C   0  0  0  0  0  0  0  0  0  0  0  0
  128.4009  135.9412  160.6166 C   0  0  0  0  0  0  0  0  0  0  0  0
  127.2739  135.8264  161.4372 C   0  0  0  0  0  0  0  0  0  0  0  0
  127.6112  135.1446  162.5016 N   0  0  0  0  0  0  0  0  0  0  0  0
  128.9642  134.7990  162.3895 N   0  0  0  0  0  0  0  0  0  0  0  0
  129.7404  134.0286  163.3642 C   0  0  0  0  0  0  0  0  0  0  0  0
  131.6715  136.3564  161.1892 C   0  0  0  0  0  0  0  0  0  0  0  0
  131.6997  136.3620  162.7191 C   0  0  0  0  0  0  0  0  0  0  0  0
  133.0988  136.2257  160.6534 C   0  0  0  0  0  0  0  0  0  0  0  0
  130.9411  137.9059  160.5923 S   0  0  0  0  0  0  0  0  0  0  0  0
  132.0247  139.1323  161.2452 C   0  0  0  0  0  0  0  0  0  0  0  0
  131.9055  139.7534  162.4521 C   0  0  0  0  0  0  0  0  0  0  0  0
  132.9701  140.6493  162.5796 C   0  0  0  0  0  0  0  0  0  0  0  0
  133.6991  140.5834  161.4954 N   0  0  0  0  0  0  0  0  0  0  0  0
  133.1292  139.6362  160.6351 N   0  0  0  0  0  0  0  0  0  0  0  0
  133.6344  139.2562  159.3136 C   0  0  0  0  0  0  0  0  0  0  0  0
  130.9238  133.6714  157.3661 N   0  0  0  0  0  0  0  0  0  0  0  0
  131.5353  134.1941  156.8241 H   0  0  0  0  0  0  0  0  0  0  0  0
  130.3117  132.3324  154.5282 C   0  0  0  0  0  0  0  0  0  0  0  0
  130.5449  131.6488  153.3522 C   0  0  0  0  0  0  0  0  0  0  0  0
  130.2970  128.2817  150.8000 H   0  0  0  0  0  0  0  0  0  0  0  0
  129.9061  128.1034  152.5274 H   0  0  0  0  0  0  0  0  0  0  0  0
  129.2603  129.4830  151.6066 H   0  0  0  0  0  0  0  0  0  0  0  0
  132.2068  128.9758  152.2210 H   0  0  0  0  0  0  0  0  0  0  0  0
  131.5612  130.3554  151.3003 H   0  0  0  0  0  0  0  0  0  0  0  0
  131.8499  128.8009  154.6121 H   0  0  0  0  0  0  0  0  0  0  0  0
  131.4509  130.0078  156.7183 H   0  0  0  0  0  0  0  0  0  0  0  0
  129.0233  131.1439  158.0721 H   0  0  0  0  0  0  0  0  0  0  0  0
  131.0158  135.9787  158.7422 H   0  0  0  0  0  0  0  0  0  0  0  0
  128.4446  136.4491  159.6644 H   0  0  0  0  0  0  0  0  0  0  0  0
  126.2946  136.2313  161.2283 H   0  0  0  0  0  0  0  0  0  0  0  0
  130.1928  134.7077  164.0868 H   0  0  0  0  0  0  0  0  0  0  0  0
  129.0827  133.3314  163.8831 H   0  0  0  0  0  0  0  0  0  0  0  0
  130.5235  133.4735  162.8476 H   0  0  0  0  0  0  0  0  0  0  0  0
  132.0527  135.3959  163.0795 H   0  0  0  0  0  0  0  0  0  0  0  0
  132.3708  137.1472  163.0671 H   0  0  0  0  0  0  0  0  0  0  0  0
  130.6954  136.5471  163.1001 H   0  0  0  0  0  0  0  0  0  0  0  0
  133.0886  136.3144  159.5671 H   0  0  0  0  0  0  0  0  0  0  0  0
  133.7195  137.0155  161.0766 H   0  0  0  0  0  0  0  0  0  0  0  0
  133.5050  135.2542  160.9350 H   0  0  0  0  0  0  0  0  0  0  0  0
  131.1275  139.5821  163.1814 H   0  0  0  0  0  0  0  0  0  0  0  0
  133.1568  141.2911  163.4280 H   0  0  0  0  0  0  0  0  0  0  0  0
  133.2572  139.9538  158.5660 H   0  0  0  0  0  0  0  0  0  0  0  0
  134.7241  139.2839  159.3193 H   0  0  0  0  0  0  0  0  0  0  0  0
  133.2980  138.2478  159.0722 H   0  0  0  0  0  0  0  0  0  0  0  0
  129.8777  133.3209  154.5023 H   0  0  0  0  0  0  0  0  0  0  0  0
  130.2929  132.1032  152.4055 H   0  0  0  0  0  0  0  0  0  0  0  0
  1  2  1  0
  1 35  1  0
  1 36  1  0
  1 37  1  0
  2  3  1  0
  2 38  1  0
  2 39  1  0
  3 34  2  0
  3  4  1  0
  4  5  2  0
  4 40  1  0
  5  6  1  0
  5 41  1  0
  6  7  1  0
  6 33  2  0
  7 31  1  0
  7  8  2  0
  8  9  1  0
  8 42  1  0
  9 10  1  0
  9 11  1  0
 11 12  1  0
 11 31  2  0
 12 13  1  0
 12 43  1  0
 13 14  1  1
 13 15  1  0
 13 21  1  0
 15 19  1  0
 15 16  2  0
 16 17  1  0
 16 44  1  0
 17 18  2  0
 17 45  1  0
 18 19  1  0
 19 20  1  0
 20 46  1  0
 20 47  1  0
 20 48  1  0
 21 22  1  0
 21 23  1  0
 21 24  1  0
 22 49  1  0
 22 50  1  0
 22 51  1  0
 23 52  1  0
 23 53  1  0
 23 54  1  0
 24 25  1  0
 25 29  1  0
 25 26  2  0
 26 27  1  0
 26 55  1  0
 27 28  2  0
 27 56  1  0
 28 29  1  0
 29 30  1  0
 30 57  1  0
 30 58  1  0
 30 59  1  0
 31 32  1  0
 33 34  1  0
 33 60  1  0
 34 61  1  0
M  CHG  1  31   1
M  END
>  <DOCK_score>  (1) 
-60.219936

>  <SMILES>  (1) 
CCc1ccc(-c2c[nH]c(N[C@H](c3ccnn3C)C(C)(C)Sc3ccnn3C)[nH+]2)cc1

$$$$
