CC[N@H+](C)Cc1c[nH]nc1-c1ccc(Nc2ccccc2)o1
     RDKit          3D

 43 45  0  0  1  0  0  0  0  0999 V2000
  129.6292  133.4300  156.8083 C   0  0  0  0  0  0  0  0  0  0  0  0
  129.3750  133.4819  158.3163 C   0  0  0  0  0  0  0  0  0  0  0  0
  130.3275  134.4090  158.9418 N   0  0  2  0  0  0  0  0  0  0  0  0
  130.2075  135.3305  158.5486 H   0  0  0  0  0  0  0  0  0  0  0  0
  131.6987  133.9447  158.6920 C   0  0  0  0  0  0  0  0  0  0  0  0
  130.0835  134.4587  160.3895 C   0  0  0  0  0  0  0  0  0  0  0  0
  128.9142  135.3669  160.6710 C   0  0  0  0  0  0  0  0  0  0  0  0
  127.6179  134.9960  160.7400 C   0  0  0  0  0  0  0  0  0  0  0  0
  126.8824  136.0947  161.0161 N   0  0  0  0  0  0  0  0  0  0  0  0
  125.9188  136.1222  161.1228 H   0  0  0  0  0  0  0  0  0  0  0  0
  127.7520  137.1876  161.1228 N   0  0  0  0  0  0  0  0  0  0  0  0
  128.9802  136.7549  160.9155 C   0  0  0  0  0  0  0  0  0  0  0  0
  130.2074  137.5774  160.9355 C   0  0  0  0  0  0  0  0  0  0  0  0
  130.4054  138.6940  161.6851 C   0  0  0  0  0  0  0  0  0  0  0  0
  131.7048  139.1547  161.3959 C   0  0  0  0  0  0  0  0  0  0  0  0
  132.2348  138.2991  160.4864 C   0  0  0  0  0  0  0  0  0  0  0  0
  133.5060  138.3895  159.9306 N   0  0  0  0  0  0  0  0  0  0  0  0
  134.5501  138.9577  160.6641 C   0  0  0  0  0  0  0  0  0  0  0  0
  135.2132  140.0780  160.1787 C   0  0  0  0  0  0  0  0  0  0  0  0
  136.2417  140.6399  160.9089 C   0  0  0  0  0  0  0  0  0  0  0  0
  136.6191  140.0826  162.1170 C   0  0  0  0  0  0  0  0  0  0  0  0
  135.9649  138.9643  162.6008 C   0  0  0  0  0  0  0  0  0  0  0  0
  134.9319  138.4003  161.8783 C   0  0  0  0  0  0  0  0  0  0  0  0
  131.3262  137.3458  160.2172 O   0  0  0  0  0  0  0  0  0  0  0  0
  128.8612  132.8213  156.3312 H   0  0  0  0  0  0  0  0  0  0  0  0
  129.5982  134.4400  156.3997 H   0  0  0  0  0  0  0  0  0  0  0  0
  130.6094  132.9918  156.6200 H   0  0  0  0  0  0  0  0  0  0  0  0
  129.5045  132.4865  158.7411 H   0  0  0  0  0  0  0  0  0  0  0  0
  128.3576  133.8264  158.5015 H   0  0  0  0  0  0  0  0  0  0  0  0
  132.4054  134.6327  159.1561 H   0  0  0  0  0  0  0  0  0  0  0  0
  131.8282  132.9494  159.1167 H   0  0  0  0  0  0  0  0  0  0  0  0
  131.8797  133.9078  157.6177 H   0  0  0  0  0  0  0  0  0  0  0  0
  130.9705  134.8412  160.8945 H   0  0  0  0  0  0  0  0  0  0  0  0
  129.8612  133.4562  160.7551 H   0  0  0  0  0  0  0  0  0  0  0  0
  127.2358  133.9957  160.5993 H   0  0  0  0  0  0  0  0  0  0  0  0
  129.7016  139.1419  162.3708 H   0  0  0  0  0  0  0  0  0  0  0  0
  132.1871  140.0240  161.8176 H   0  0  0  0  0  0  0  0  0  0  0  0
  133.6678  138.0581  159.0334 H   0  0  0  0  0  0  0  0  0  0  0  0
  134.9217  140.5113  159.2333 H   0  0  0  0  0  0  0  0  0  0  0  0
  136.7550  141.5130  160.5340 H   0  0  0  0  0  0  0  0  0  0  0  0
  137.4269  140.5214  162.6838 H   0  0  0  0  0  0  0  0  0  0  0  0
  136.2623  138.5314  163.5444 H   0  0  0  0  0  0  0  0  0  0  0  0
  134.4216  137.5268  162.2565 H   0  0  0  0  0  0  0  0  0  0  0  0
  1  2  1  0
  1 25  1  0
  1 26  1  0
  1 27  1  0
  2  3  1  0
  2 28  1  0
  2 29  1  0
  3  4  1  6
  3  5  1  0
  3  6  1  0
  5 30  1  0
  5 31  1  0
  5 32  1  0
  6  7  1  0
  6 33  1  0
  6 34  1  0
  7 12  1  0
  7  8  2  0
  8  9  1  0
  8 35  1  0
  9 10  1  0
  9 11  1  0
 11 12  2  0
 12 13  1  0
 13 24  1  0
 13 14  2  0
 14 15  1  0
 14 36  1  0
 15 16  2  0
 15 37  1  0
 16 17  1  0
 16 24  1  0
 17 18  1  0
 17 38  1  0
 18 23  1  0
 18 19  2  0
 19 20  1  0
 19 39  1  0
 20 21  2  0
 20 40  1  0
 21 22  1  0
 21 41  1  0
 22 23  2  0
 22 42  1  0
 23 43  1  0
M  CHG  1   3   1
M  END
>  <DOCK_score>  (1) 
-40.958145

>  <SMILES>  (1) 
CC[N@H+](C)Cc1c[nH]nc1-c1ccc(Nc2ccccc2)o1

$$$$
