C[C@@H](NC(NC1CC=CC1)=[NH+][C@H](C)c1cnn(C)c1)c1ccc2c(c1)CCCC2
     RDKit          3D

 63 66  0  0  1  0  0  0  0  0999 V2000
  133.1170  134.8058  160.8591 C   0  0  0  0  0  0  0  0  0  0  0  0
  132.6180  136.2166  160.5402 C   0  0  1  0  0  0  0  0  0  0  0  0
  132.5767  136.3517  159.4594 H   0  0  0  0  0  0  0  0  0  0  0  0
  131.2797  136.4010  161.1070 N   0  0  0  0  0  0  0  0  0  0  0  0
  130.2467  135.5855  160.7095 C   0  0  0  0  0  0  0  0  0  0  0  0
  130.2379  135.0562  159.4407 N   0  0  0  0  0  0  0  0  0  0  0  0
  129.1372  134.1872  159.0170 C   0  0  0  0  0  0  0  0  0  0  0  0
  129.1632  132.8446  159.7840 C   0  0  0  0  0  0  0  0  0  0  0  0
  128.7445  131.8114  158.7639 C   0  0  0  0  0  0  0  0  0  0  0  0
  128.8386  132.2837  157.5507 C   0  0  0  0  0  0  0  0  0  0  0  0
  129.3356  133.7107  157.5594 C   0  0  0  0  0  0  0  0  0  0  0  0
  129.2757  135.3141  161.5355 N   0  0  0  0  0  0  0  0  0  0  0  0
  128.5468  134.7387  161.2551 H   0  0  0  0  0  0  0  0  0  0  0  0
  129.2850  135.8781  162.8876 C   0  0  2  0  0  0  0  0  0  0  0  0
  130.3149  136.0195  163.2153 H   0  0  0  0  0  0  0  0  0  0  0  0
  128.5722  134.9205  163.8446 C   0  0  0  0  0  0  0  0  0  0  0  0
  128.5727  137.2062  162.8829 C   0  0  0  0  0  0  0  0  0  0  0  0
  127.2392  137.4234  162.5210 C   0  0  0  0  0  0  0  0  0  0  0  0
  126.9840  138.7003  162.6480 N   0  0  0  0  0  0  0  0  0  0  0  0
  128.1517  139.3384  163.0859 N   0  0  0  0  0  0  0  0  0  0  0  0
  128.3037  140.7715  163.3495 C   0  0  0  0  0  0  0  0  0  0  0  0
  129.1117  138.3999  163.2223 C   0  0  0  0  0  0  0  0  0  0  0  0
  133.5605  137.2296  161.1374 C   0  0  0  0  0  0  0  0  0  0  0  0
  133.7778  137.2544  162.5026 C   0  0  0  0  0  0  0  0  0  0  0  0
  134.6353  138.1903  163.0427 C   0  0  0  0  0  0  0  0  0  0  0  0
  135.2920  139.1009  162.2247 C   0  0  0  0  0  0  0  0  0  0  0  0
  135.0794  139.0730  160.8650 C   0  0  0  0  0  0  0  0  0  0  0  0
  134.2085  138.1356  160.3240 C   0  0  0  0  0  0  0  0  0  0  0  0
  135.7649  140.0226  159.9175 C   0  0  0  0  0  0  0  0  0  0  0  0
  136.3248  141.2254  160.6739 C   0  0  0  0  0  0  0  0  0  0  0  0
  137.1601  140.7103  161.8519 C   0  0  0  0  0  0  0  0  0  0  0  0
  136.2137  140.0954  162.8809 C   0  0  0  0  0  0  0  0  0  0  0  0
  133.2407  134.6991  161.9367 H   0  0  0  0  0  0  0  0  0  0  0  0
  132.3916  134.0746  160.5024 H   0  0  0  0  0  0  0  0  0  0  0  0
  134.0742  134.6387  160.3652 H   0  0  0  0  0  0  0  0  0  0  0  0
  131.1225  137.0984  161.7625 H   0  0  0  0  0  0  0  0  0  0  0  0
  130.9606  135.2582  158.8260 H   0  0  0  0  0  0  0  0  0  0  0  0
  128.1770  134.6887  159.1375 H   0  0  0  0  0  0  0  0  0  0  0  0
  130.1692  132.6340  160.1468 H   0  0  0  0  0  0  0  0  0  0  0  0
  128.4565  132.8674  160.6135 H   0  0  0  0  0  0  0  0  0  0  0  0
  128.4109  130.8134  159.0068 H   0  0  0  0  0  0  0  0  0  0  0  0
  128.5929  131.7278  156.6579 H   0  0  0  0  0  0  0  0  0  0  0  0
  128.7461  134.3223  156.8764 H   0  0  0  0  0  0  0  0  0  0  0  0
  130.3908  133.7469  157.2884 H   0  0  0  0  0  0  0  0  0  0  0  0
  128.5791  135.3402  164.8506 H   0  0  0  0  0  0  0  0  0  0  0  0
  127.5423  134.7792  163.5168 H   0  0  0  0  0  0  0  0  0  0  0  0
  129.0874  133.9599  163.8480 H   0  0  0  0  0  0  0  0  0  0  0  0
  126.5400  136.6672  162.1959 H   0  0  0  0  0  0  0  0  0  0  0  0
  128.6261  141.2764  162.4388 H   0  0  0  0  0  0  0  0  0  0  0  0
  127.3488  141.1843  163.6751 H   0  0  0  0  0  0  0  0  0  0  0  0
  129.0491  140.9202  164.1308 H   0  0  0  0  0  0  0  0  0  0  0  0
  130.1281  138.5710  163.5450 H   0  0  0  0  0  0  0  0  0  0  0  0
  133.2748  136.5462  163.1444 H   0  0  0  0  0  0  0  0  0  0  0  0
  134.8006  138.2123  164.1096 H   0  0  0  0  0  0  0  0  0  0  0  0
  134.0380  138.1157  159.2578 H   0  0  0  0  0  0  0  0  0  0  0  0
  136.5805  139.5024  159.4151 H   0  0  0  0  0  0  0  0  0  0  0  0
  135.0474  140.3681  159.1733 H   0  0  0  0  0  0  0  0  0  0  0  0
  135.5046  141.8393  161.0461 H   0  0  0  0  0  0  0  0  0  0  0  0
  136.9538  141.8174  160.0090 H   0  0  0  0  0  0  0  0  0  0  0  0
  137.7065  141.5381  162.3043 H   0  0  0  0  0  0  0  0  0  0  0  0
  137.8624  139.9542  161.5012 H   0  0  0  0  0  0  0  0  0  0  0  0
  135.6207  140.8856  163.3414 H   0  0  0  0  0  0  0  0  0  0  0  0
  136.7980  139.5907  163.6504 H   0  0  0  0  0  0  0  0  0  0  0  0
  1  2  1  0
  1 33  1  0
  1 34  1  0
  1 35  1  0
  2  3  1  6
  2  4  1  0
  2 23  1  0
  4 36  1  0
  5  4  1  0
  5  6  1  0
  5 12  2  0
  6  7  1  0
  6 37  1  0
  7 11  1  0
  7  8  1  0
  7 38  1  0
  8  9  1  0
  8 39  1  0
  8 40  1  0
  9 10  2  0
  9 41  1  0
 10 11  1  0
 10 42  1  0
 11 43  1  0
 11 44  1  0
 12 13  1  0
 12 14  1  0
 14 15  1  1
 14 16  1  0
 14 17  1  0
 16 45  1  0
 16 46  1  0
 16 47  1  0
 17 22  2  0
 17 18  1  0
 18 19  2  0
 18 48  1  0
 19 20  1  0
 20 21  1  0
 20 22  1  0
 21 49  1  0
 21 50  1  0
 21 51  1  0
 22 52  1  0
 23 28  1  0
 23 24  2  0
 24 25  1  0
 24 53  1  0
 25 26  2  0
 25 54  1  0
 26 32  1  0
 26 27  1  0
 27 28  2  0
 27 29  1  0
 28 55  1  0
 29 30  1  0
 29 56  1  0
 29 57  1  0
 30 31  1  0
 30 58  1  0
 30 59  1  0
 31 32  1  0
 31 60  1  0
 31 61  1  0
 32 62  1  0
 32 63  1  0
M  CHG  1  12   1
M  END
>  <DOCK_score>  (1) 
-41.959751

>  <SMILES>  (1) 
C[C@@H](NC(NC1CC=CC1)=[NH+][C@H](C)c1cnn(C)c1)c1ccc2c(c1)CCCC2

$$$$
