O=C1CC[C@H](NC(NC2CC=CC2)=[NH+]C2Cc3ccccc3C2)CN1
     RDKit          3D

 52 55  0  0  1  0  0  0  0  0999 V2000
  124.2496  133.8597  161.5080 O   0  0  0  0  0  0  0  0  0  0  0  0
  125.4211  134.1439  161.3743 C   0  0  0  0  0  0  0  0  0  0  0  0
  126.3918  133.0367  161.0794 C   0  0  0  0  0  0  0  0  0  0  0  0
  127.8187  133.5046  161.3758 C   0  0  0  0  0  0  0  0  0  0  0  0
  128.0309  134.8675  160.7057 C   0  0  2  0  0  0  0  0  0  0  0  0
  127.7540  134.8046  159.6534 H   0  0  0  0  0  0  0  0  0  0  0  0
  129.4381  135.2583  160.8212 N   0  0  0  0  0  0  0  0  0  0  0  0
  130.3342  134.8974  159.8430 C   0  0  0  0  0  0  0  0  0  0  0  0
  129.9099  134.1697  158.7565 N   0  0  0  0  0  0  0  0  0  0  0  0
  130.8304  133.2465  158.0884 C   0  0  0  0  0  0  0  0  0  0  0  0
  130.0922  132.3966  157.0284 C   0  0  0  0  0  0  0  0  0  0  0  0
  130.7326  131.0303  157.1185 C   0  0  0  0  0  0  0  0  0  0  0  0
  131.4067  130.8991  158.2284 C   0  0  0  0  0  0  0  0  0  0  0  0
  131.3280  132.1554  159.0645 C   0  0  0  0  0  0  0  0  0  0  0  0
  131.5862  135.2451  159.9459 N   0  0  0  0  0  0  0  0  0  0  0  0
  132.2185  134.9905  159.2559 H   0  0  0  0  0  0  0  0  0  0  0  0
  132.0383  136.0206  161.1037 C   0  0  0  0  0  0  0  0  0  0  0  0
  131.4200  137.4347  161.0923 C   0  0  0  0  0  0  0  0  0  0  0  0
  132.5013  138.3410  161.6491 C   0  0  0  0  0  0  0  0  0  0  0  0
  132.4187  139.6267  162.1575 C   0  0  0  0  0  0  0  0  0  0  0  0
  133.5527  140.2661  162.6183 C   0  0  0  0  0  0  0  0  0  0  0  0
  134.7749  139.6212  162.5728 C   0  0  0  0  0  0  0  0  0  0  0  0
  134.8590  138.3387  162.0675 C   0  0  0  0  0  0  0  0  0  0  0  0
  133.7231  137.6964  161.6037 C   0  0  0  0  0  0  0  0  0  0  0  0
  133.5507  136.3146  161.0105 C   0  0  0  0  0  0  0  0  0  0  0  0
  127.1486  135.9008  161.4074 C   0  0  0  0  0  0  0  0  0  0  0  0
  125.7750  135.4219  161.4975 N   0  0  0  0  0  0  0  0  0  0  0  0
  126.3135  132.7566  160.0288 H   0  0  0  0  0  0  0  0  0  0  0  0
  126.1570  132.1737  161.7025 H   0  0  0  0  0  0  0  0  0  0  0  0
  127.9574  133.5997  162.4527 H   0  0  0  0  0  0  0  0  0  0  0  0
  128.5319  132.7840  160.9757 H   0  0  0  0  0  0  0  0  0  0  0  0
  129.7375  135.7717  161.5878 H   0  0  0  0  0  0  0  0  0  0  0  0
  129.0009  134.2675  158.4323 H   0  0  0  0  0  0  0  0  0  0  0  0
  131.6676  133.7853  157.6442 H   0  0  0  0  0  0  0  0  0  0  0  0
  129.0298  132.3342  157.2645 H   0  0  0  0  0  0  0  0  0  0  0  0
  130.2368  132.8199  156.0343 H   0  0  0  0  0  0  0  0  0  0  0  0
  130.6442  130.2634  156.3632 H   0  0  0  0  0  0  0  0  0  0  0  0
  131.9492  130.0094  158.5122 H   0  0  0  0  0  0  0  0  0  0  0  0
  132.3124  132.4145  159.4540 H   0  0  0  0  0  0  0  0  0  0  0  0
  130.6190  132.0254  159.8822 H   0  0  0  0  0  0  0  0  0  0  0  0
  131.8010  135.5014  162.0323 H   0  0  0  0  0  0  0  0  0  0  0  0
  131.1684  137.7293  160.0734 H   0  0  0  0  0  0  0  0  0  0  0  0
  130.5333  137.4649  161.7254 H   0  0  0  0  0  0  0  0  0  0  0  0
  131.4644  140.1311  162.1933 H   0  0  0  0  0  0  0  0  0  0  0  0
  133.4850  141.2687  163.0140 H   0  0  0  0  0  0  0  0  0  0  0  0
  135.6626  140.1196  162.9331 H   0  0  0  0  0  0  0  0  0  0  0  0
  135.8140  137.8355  162.0328 H   0  0  0  0  0  0  0  0  0  0  0  0
  134.1147  135.5820  161.5880 H   0  0  0  0  0  0  0  0  0  0  0  0
  133.8740  136.3068  159.9696 H   0  0  0  0  0  0  0  0  0  0  0  0
  127.5338  136.0812  162.4110 H   0  0  0  0  0  0  0  0  0  0  0  0
  127.1658  136.8326  160.8422 H   0  0  0  0  0  0  0  0  0  0  0  0
  125.0755  136.0747  161.6566 H   0  0  0  0  0  0  0  0  0  0  0  0
  1  2  2  0
  2 27  1  0
  2  3  1  0
  3  4  1  0
  3 28  1  0
  3 29  1  0
  4  5  1  0
  4 30  1  0
  4 31  1  0
  5  6  1  6
  5  7  1  0
  5 26  1  0
  7 32  1  0
  8  7  1  0
  8  9  1  0
  8 15  2  0
  9 10  1  0
  9 33  1  0
 10 14  1  0
 10 11  1  0
 10 34  1  0
 11 12  1  0
 11 35  1  0
 11 36  1  0
 12 13  2  0
 12 37  1  0
 13 14  1  0
 13 38  1  0
 14 39  1  0
 14 40  1  0
 15 16  1  0
 15 17  1  0
 17 25  1  0
 17 18  1  0
 17 41  1  0
 18 19  1  0
 18 42  1  0
 18 43  1  0
 19 24  2  0
 19 20  1  0
 20 21  2  0
 20 44  1  0
 21 22  1  0
 21 45  1  0
 22 23  2  0
 22 46  1  0
 23 24  1  0
 23 47  1  0
 24 25  1  0
 25 48  1  0
 25 49  1  0
 26 27  1  0
 26 50  1  0
 26 51  1  0
 27 52  1  0
M  CHG  1  15   1
M  END
>  <DOCK_score>  (1) 
-44.483398

>  <SMILES>  (1) 
O=C1CC[C@H](NC(NC2CC=CC2)=[NH+]C2Cc3ccccc3C2)CN1

$$$$
