COc1cccc(N2CC[NH+](C(c3ccccc3)c3ccccc3)CC2)c1CCl
     RDKit          3D

 57 60  0  0  0  0  0  0  0  0999 V2000
  136.4626  141.7812  163.0980 C   0  0  0  0  0  0  0  0  0  0  0  0
  135.5051  140.7248  163.1952 O   0  0  0  0  0  0  0  0  0  0  0  0
  135.0485  140.1968  162.0292 C   0  0  0  0  0  0  0  0  0  0  0  0
  135.5138  140.6857  160.8163 C   0  0  0  0  0  0  0  0  0  0  0  0
  135.0508  140.1499  159.6299 C   0  0  0  0  0  0  0  0  0  0  0  0
  134.1236  139.1257  159.6466 C   0  0  0  0  0  0  0  0  0  0  0  0
  133.6546  138.6320  160.8576 C   0  0  0  0  0  0  0  0  0  0  0  0
  132.7174  137.5968  160.8749 N   0  0  0  0  0  0  0  0  0  0  0  0
  133.2767  136.3699  160.2903 C   0  0  0  0  0  0  0  0  0  0  0  0
  132.2416  135.2466  160.3822 C   0  0  0  0  0  0  0  0  0  0  0  0
  131.0244  135.6420  159.6616 N   0  0  0  0  0  0  0  0  0  0  0  0
  131.2505  135.8259  158.6956 H   0  0  0  0  0  0  0  0  0  0  0  0
  130.0378  134.5562  159.7349 C   0  0  0  0  0  0  0  0  0  0  0  0
  128.7887  134.9615  158.9956 C   0  0  0  0  0  0  0  0  0  0  0  0
  127.5599  134.4669  159.3912 C   0  0  0  0  0  0  0  0  0  0  0  0
  126.4137  134.8426  158.7160 C   0  0  0  0  0  0  0  0  0  0  0  0
  126.4974  135.7046  157.6386 C   0  0  0  0  0  0  0  0  0  0  0  0
  127.7266  136.1950  157.2396 C   0  0  0  0  0  0  0  0  0  0  0  0
  128.8724  135.8235  157.9180 C   0  0  0  0  0  0  0  0  0  0  0  0
  130.6120  133.3125  159.1067 C   0  0  0  0  0  0  0  0  0  0  0  0
  130.4269  133.0705  157.7583 C   0  0  0  0  0  0  0  0  0  0  0  0
  130.9577  131.9322  157.1812 C   0  0  0  0  0  0  0  0  0  0  0  0
  131.6647  131.0304  157.9545 C   0  0  0  0  0  0  0  0  0  0  0  0
  131.8453  131.2697  159.3039 C   0  0  0  0  0  0  0  0  0  0  0  0
  131.3189  132.4107  159.8800 C   0  0  0  0  0  0  0  0  0  0  0  0
  130.4638  136.8545  160.2722 C   0  0  0  0  0  0  0  0  0  0  0  0
  131.4841  137.9911  160.1794 C   0  0  0  0  0  0  0  0  0  0  0  0
  134.1188  139.1694  162.0506 C   0  0  0  0  0  0  0  0  0  0  0  0
  133.6122  138.6370  163.3662 C   0  0  0  0  0  0  0  0  0  0  0  0
  132.1497  139.5648  163.8671 Cl  0  0  0  0  0  0  0  0  0  0  0  0
  136.0276  142.6163  162.5489 H   0  0  0  0  0  0  0  0  0  0  0  0
  136.7427  142.1109  164.0986 H   0  0  0  0  0  0  0  0  0  0  0  0
  137.3475  141.4224  162.5726 H   0  0  0  0  0  0  0  0  0  0  0  0
  136.2389  141.4859  160.7998 H   0  0  0  0  0  0  0  0  0  0  0  0
  135.4178  140.5291  158.6876 H   0  0  0  0  0  0  0  0  0  0  0  0
  133.7633  138.7086  158.7179 H   0  0  0  0  0  0  0  0  0  0  0  0
  133.5288  136.5473  159.2448 H   0  0  0  0  0  0  0  0  0  0  0  0
  134.1746  136.0828  160.8376 H   0  0  0  0  0  0  0  0  0  0  0  0
  131.9999  135.0600  161.4286 H   0  0  0  0  0  0  0  0  0  0  0  0
  132.6494  134.3394  159.9363 H   0  0  0  0  0  0  0  0  0  0  0  0
  129.7937  134.3567  160.7783 H   0  0  0  0  0  0  0  0  0  0  0  0
  127.4951  133.7900  160.2303 H   0  0  0  0  0  0  0  0  0  0  0  0
  125.4533  134.4591  159.0275 H   0  0  0  0  0  0  0  0  0  0  0  0
  125.6023  135.9946  157.1083 H   0  0  0  0  0  0  0  0  0  0  0  0
  127.7920  136.8682  156.3976 H   0  0  0  0  0  0  0  0  0  0  0  0
  129.8328  136.2064  157.6061 H   0  0  0  0  0  0  0  0  0  0  0  0
  129.8707  133.7728  157.1550 H   0  0  0  0  0  0  0  0  0  0  0  0
  130.8163  131.7450  156.1269 H   0  0  0  0  0  0  0  0  0  0  0  0
  132.0756  130.1388  157.5043 H   0  0  0  0  0  0  0  0  0  0  0  0
  132.3973  130.5651  159.9082 H   0  0  0  0  0  0  0  0  0  0  0  0
  131.4597  132.5976  160.9344 H   0  0  0  0  0  0  0  0  0  0  0  0
  130.2311  136.6598  161.3193 H   0  0  0  0  0  0  0  0  0  0  0  0
  129.5534  137.1396  159.7448 H   0  0  0  0  0  0  0  0  0  0  0  0
  131.0741  138.8870  160.6458 H   0  0  0  0  0  0  0  0  0  0  0  0
  131.7067  138.1955  159.1321 H   0  0  0  0  0  0  0  0  0  0  0  0
  133.3544  137.5836  163.2567 H   0  0  0  0  0  0  0  0  0  0  0  0
  134.3879  138.7443  164.1245 H   0  0  0  0  0  0  0  0  0  0  0  0
  1  2  1  0
  1 31  1  0
  1 32  1  0
  1 33  1  0
  2  3  1  0
  3 28  2  0
  3  4  1  0
  4  5  2  0
  4 34  1  0
  5  6  1  0
  5 35  1  0
  6  7  2  0
  6 36  1  0
  7  8  1  0
  7 28  1  0
  8 27  1  0
  8  9  1  0
  9 10  1  0
  9 37  1  0
  9 38  1  0
 10 11  1  0
 10 39  1  0
 10 40  1  0
 11 12  1  0
 11 13  1  0
 11 26  1  0
 13 14  1  0
 13 20  1  0
 13 41  1  0
 14 19  1  0
 14 15  2  0
 15 16  1  0
 15 42  1  0
 16 17  2  0
 16 43  1  0
 17 18  1  0
 17 44  1  0
 18 19  2  0
 18 45  1  0
 19 46  1  0
 20 25  1  0
 20 21  2  0
 21 22  1  0
 21 47  1  0
 22 23  2  0
 22 48  1  0
 23 24  1  0
 23 49  1  0
 24 25  2  0
 24 50  1  0
 25 51  1  0
 26 27  1  0
 26 52  1  0
 26 53  1  0
 27 54  1  0
 27 55  1  0
 28 29  1  0
 29 30  1  0
 29 56  1  0
 29 57  1  0
M  CHG  1  11   1
M  END
>  <DOCK_score>  (1) 
-57.27375

>  <SMILES>  (1) 
COc1cccc(N2CC[NH+](C(c3ccccc3)c3ccccc3)CC2)c1CCl

$$$$
