Cc1nn(C(C)C)cc1[C@H]1[NH2+][C@H](CO)Cc2c1[nH]c1ccc(O)cc21
     RDKit          3D

 50 53  0  0  1  0  0  0  0  0999 V2000
  130.8991  129.8689  158.5045 C   0  0  0  0  0  0  0  0  0  0  0  0
  130.5415  130.7430  157.3302 C   0  0  0  0  0  0  0  0  0  0  0  0
  130.4534  130.3551  156.0839 N   0  0  0  0  0  0  0  0  0  0  0  0
  130.0995  131.4640  155.3044 N   0  0  0  0  0  0  0  0  0  0  0  0
  129.8967  131.4683  153.8535 C   0  0  0  0  0  0  0  0  0  0  0  0
  130.2594  132.8445  153.2918 C   0  0  0  0  0  0  0  0  0  0  0  0
  130.7881  130.4038  153.2108 C   0  0  0  0  0  0  0  0  0  0  0  0
  129.9790  132.5277  156.1259 C   0  0  0  0  0  0  0  0  0  0  0  0
  130.2471  132.1093  157.3846 C   0  0  0  0  0  0  0  0  0  0  0  0
  130.2258  132.9631  158.6263 C   0  0  1  0  0  0  0  0  0  0  0  0
  130.9400  132.5723  159.3511 H   0  0  0  0  0  0  0  0  0  0  0  0
  130.5816  134.3477  158.2795 N   0  0  0  0  0  0  0  0  0  0  0  0
  131.5466  134.3817  157.9869 H   0  0  0  0  0  0  0  0  0  0  0  0
  129.9921  134.6654  157.5248 H   0  0  0  0  0  0  0  0  0  0  0  0
  130.3943  135.2255  159.4423 C   0  0  2  0  0  0  0  0  0  0  0  0
  130.8640  136.1898  159.2488 H   0  0  0  0  0  0  0  0  0  0  0  0
  131.0359  134.5837  160.6741 C   0  0  0  0  0  0  0  0  0  0  0  0
  132.2750  133.9760  160.3038 O   0  0  0  0  0  0  0  0  0  0  0  0
  128.8936  135.4289  159.6947 C   0  0  0  0  0  0  0  0  0  0  0  0
  128.2388  134.0704  159.7021 C   0  0  0  0  0  0  0  0  0  0  0  0
  128.8383  132.9563  159.2222 C   0  0  0  0  0  0  0  0  0  0  0  0
  128.0028  131.8832  159.3679 N   0  0  0  0  0  0  0  0  0  0  0  0
  128.2094  130.9744  159.0989 H   0  0  0  0  0  0  0  0  0  0  0  0
  126.8315  132.2851  159.9495 C   0  0  0  0  0  0  0  0  0  0  0  0
  125.6806  131.5845  160.3032 C   0  0  0  0  0  0  0  0  0  0  0  0
  124.6549  132.3076  160.8851 C   0  0  0  0  0  0  0  0  0  0  0  0
  124.7506  133.6748  161.1147 C   0  0  0  0  0  0  0  0  0  0  0  0
  123.7034  134.3234  161.6907 O   0  0  0  0  0  0  0  0  0  0  0  0
  125.8846  134.3961  160.7722 C   0  0  0  0  0  0  0  0  0  0  0  0
  126.9328  133.6811  160.1830 C   0  0  0  0  0  0  0  0  0  0  0  0
  129.9910  129.4382  158.9268 H   0  0  0  0  0  0  0  0  0  0  0  0
  131.5608  129.0684  158.1736 H   0  0  0  0  0  0  0  0  0  0  0  0
  131.4039  130.4674  159.2629 H   0  0  0  0  0  0  0  0  0  0  0  0
  128.8521  131.2494  153.6320 H   0  0  0  0  0  0  0  0  0  0  0  0
  130.1085  132.8476  152.2124 H   0  0  0  0  0  0  0  0  0  0  0  0
  129.6243  133.6027  153.7497 H   0  0  0  0  0  0  0  0  0  0  0  0
  131.3041  133.0634  153.5133 H   0  0  0  0  0  0  0  0  0  0  0  0
  130.5297  129.4235  153.6108 H   0  0  0  0  0  0  0  0  0  0  0  0
  130.6372  130.4070  152.1313 H   0  0  0  0  0  0  0  0  0  0  0  0
  131.8328  130.6228  153.4321 H   0  0  0  0  0  0  0  0  0  0  0  0
  129.7155  133.5329  155.8317 H   0  0  0  0  0  0  0  0  0  0  0  0
  131.2176  135.3485  161.4292 H   0  0  0  0  0  0  0  0  0  0  0  0
  130.3659  133.8252  161.0792 H   0  0  0  0  0  0  0  0  0  0  0  0
  132.9210  134.5936  159.9345 H   0  0  0  0  0  0  0  0  0  0  0  0
  128.7442  135.9160  160.6584 H   0  0  0  0  0  0  0  0  0  0  0  0
  128.4657  136.0416  158.9013 H   0  0  0  0  0  0  0  0  0  0  0  0
  125.5928  130.5221  160.1302 H   0  0  0  0  0  0  0  0  0  0  0  0
  123.7497  131.7923  161.1709 H   0  0  0  0  0  0  0  0  0  0  0  0
  123.8486  135.2712  161.8161 H   0  0  0  0  0  0  0  0  0  0  0  0
  125.9553  135.4586  160.9523 H   0  0  0  0  0  0  0  0  0  0  0  0
  1  2  1  0
  1 31  1  0
  1 32  1  0
  1 33  1  0
  2  9  1  0
  2  3  2  0
  3  4  1  0
  4  5  1  0
  4  8  1  0
  5  6  1  0
  5  7  1  0
  5 34  1  0
  6 35  1  0
  6 36  1  0
  6 37  1  0
  7 38  1  0
  7 39  1  0
  7 40  1  0
  8  9  2  0
  8 41  1  0
  9 10  1  0
 10 11  1  1
 10 21  1  0
 10 12  1  0
 12 13  1  0
 12 14  1  0
 12 15  1  0
 15 16  1  6
 15 17  1  0
 15 19  1  0
 17 18  1  0
 17 42  1  0
 17 43  1  0
 18 44  1  0
 19 20  1  0
 19 45  1  0
 19 46  1  0
 20 30  1  0
 20 21  2  0
 21 22  1  0
 22 23  1  0
 22 24  1  0
 24 30  2  0
 24 25  1  0
 25 26  2  0
 25 47  1  0
 26 27  1  0
 26 48  1  0
 27 28  1  0
 27 29  2  0
 28 49  1  0
 29 30  1  0
 29 50  1  0
M  CHG  1  12   1
M  END
>  <DOCK_score>  (1) 
-50.974331

>  <SMILES>  (1) 
Cc1nn(C(C)C)cc1[C@H]1[NH2+][C@H](CO)Cc2c1[nH]c1ccc(O)cc21

$$$$
