Nc1ccc(-c2c[nH]c(N[C@@H](c3cccnc3)c3c[nH]c4ccccc34)[nH+]2)cc1
     RDKit          3D

 50 54  0  0  1  0  0  0  0  0999 V2000
  130.9904  129.4929  150.8689 N   0  0  0  0  0  0  0  0  0  0  0  0
  130.9097  130.0589  152.1436 C   0  0  0  0  0  0  0  0  0  0  0  0
  130.1414  131.1984  152.3493 C   0  0  0  0  0  0  0  0  0  0  0  0
  130.0604  131.7590  153.6064 C   0  0  0  0  0  0  0  0  0  0  0  0
  130.7498  131.1816  154.6717 C   0  0  0  0  0  0  0  0  0  0  0  0
  130.6640  131.7828  156.0252 C   0  0  0  0  0  0  0  0  0  0  0  0
  130.1906  131.1736  157.1403 C   0  0  0  0  0  0  0  0  0  0  0  0
  130.2922  132.0840  158.1656 N   0  0  0  0  0  0  0  0  0  0  0  0
  130.0324  131.9408  159.0890 H   0  0  0  0  0  0  0  0  0  0  0  0
  130.8253  133.2228  157.6454 C   0  0  0  0  0  0  0  0  0  0  0  0
  131.0908  134.3842  158.3507 N   0  0  0  0  0  0  0  0  0  0  0  0
  131.4356  134.3149  159.7729 C   0  0  1  0  0  0  0  0  0  0  0  0
  132.0933  133.4631  159.9462 H   0  0  0  0  0  0  0  0  0  0  0  0
  132.1382  135.5838  160.1819 C   0  0  0  0  0  0  0  0  0  0  0  0
  133.4283  135.5397  160.6888 C   0  0  0  0  0  0  0  0  0  0  0  0
  134.0370  136.7323  161.0478 C   0  0  0  0  0  0  0  0  0  0  0  0
  133.3391  137.9162  160.8995 C   0  0  0  0  0  0  0  0  0  0  0  0
  132.1114  137.9197  160.4183 N   0  0  0  0  0  0  0  0  0  0  0  0
  131.5032  136.8051  160.0617 C   0  0  0  0  0  0  0  0  0  0  0  0
  130.1780  134.1523  160.5872 C   0  0  0  0  0  0  0  0  0  0  0  0
  130.0658  133.5185  161.7652 C   0  0  0  0  0  0  0  0  0  0  0  0
  128.7712  133.5759  162.2044 N   0  0  0  0  0  0  0  0  0  0  0  0
  128.4458  133.1883  163.0319 H   0  0  0  0  0  0  0  0  0  0  0  0
  127.9979  134.2602  161.2936 C   0  0  0  0  0  0  0  0  0  0  0  0
  126.6486  134.5959  161.2434 C   0  0  0  0  0  0  0  0  0  0  0  0
  126.1602  135.3066  160.1693 C   0  0  0  0  0  0  0  0  0  0  0  0
  127.0006  135.6920  159.1338 C   0  0  0  0  0  0  0  0  0  0  0  0
  128.3306  135.3809  159.1671 C   0  0  0  0  0  0  0  0  0  0  0  0
  128.8463  134.6567  160.2438 C   0  0  0  0  0  0  0  0  0  0  0  0
  131.0408  133.0408  156.3652 N   0  0  0  0  0  0  0  0  0  0  0  0
  131.4125  133.7000  155.7583 H   0  0  0  0  0  0  0  0  0  0  0  0
  131.5242  130.0416  154.4621 C   0  0  0  0  0  0  0  0  0  0  0  0
  131.5973  129.4809  153.2044 C   0  0  0  0  0  0  0  0  0  0  0  0
  130.5103  129.8948  150.1284 H   0  0  0  0  0  0  0  0  0  0  0  0
  131.5262  128.6969  150.7249 H   0  0  0  0  0  0  0  0  0  0  0  0
  129.6078  131.6457  151.5237 H   0  0  0  0  0  0  0  0  0  0  0  0
  129.4630  132.6445  153.7658 H   0  0  0  0  0  0  0  0  0  0  0  0
  129.8067  130.1665  157.2097 H   0  0  0  0  0  0  0  0  0  0  0  0
  131.0485  135.2437  157.9032 H   0  0  0  0  0  0  0  0  0  0  0  0
  133.9476  134.5991  160.7978 H   0  0  0  0  0  0  0  0  0  0  0  0
  135.0423  136.7360  161.4427 H   0  0  0  0  0  0  0  0  0  0  0  0
  133.8048  138.8493  161.1806 H   0  0  0  0  0  0  0  0  0  0  0  0
  130.4971  136.8475  159.6715 H   0  0  0  0  0  0  0  0  0  0  0  0
  130.8772  133.0346  162.2886 H   0  0  0  0  0  0  0  0  0  0  0  0
  125.9866  134.2999  162.0436 H   0  0  0  0  0  0  0  0  0  0  0  0
  125.1123  135.5663  160.1322 H   0  0  0  0  0  0  0  0  0  0  0  0
  126.6014  136.2483  158.2986 H   0  0  0  0  0  0  0  0  0  0  0  0
  128.9784  135.6832  158.3575 H   0  0  0  0  0  0  0  0  0  0  0  0
  132.0626  129.5953  155.2849 H   0  0  0  0  0  0  0  0  0  0  0  0
  132.1938  128.5952  153.0424 H   0  0  0  0  0  0  0  0  0  0  0  0
  1  2  1  0
  1 34  1  0
  1 35  1  0
  2 33  2  0
  2  3  1  0
  3  4  2  0
  3 36  1  0
  4  5  1  0
  4 37  1  0
  5  6  1  0
  5 32  2  0
  6 30  1  0
  6  7  2  0
  7  8  1  0
  7 38  1  0
  8  9  1  0
  8 10  1  0
 10 11  1  0
 10 30  2  0
 11 12  1  0
 11 39  1  0
 12 13  1  6
 12 14  1  0
 12 20  1  0
 14 19  1  0
 14 15  2  0
 15 16  1  0
 15 40  1  0
 16 17  2  0
 16 41  1  0
 17 18  1  0
 17 42  1  0
 18 19  2  0
 19 43  1  0
 20 29  1  0
 20 21  2  0
 21 22  1  0
 21 44  1  0
 22 23  1  0
 22 24  1  0
 24 29  2  0
 24 25  1  0
 25 26  2  0
 25 45  1  0
 26 27  1  0
 26 46  1  0
 27 28  2  0
 27 47  1  0
 28 29  1  0
 28 48  1  0
 30 31  1  0
 32 33  1  0
 32 49  1  0
 33 50  1  0
M  CHG  1  30   1
M  END
>  <DOCK_score>  (1) 
-55.913921

>  <SMILES>  (1) 
Nc1ccc(-c2c[nH]c(N[C@@H](c3cccnc3)c3c[nH]c4ccccc34)[nH+]2)cc1

$$$$
