Cc1[nH]c(C(=O)N[C@H]2C=CCC2)c(C[NH2+]Cc2cnn(C)c2)c1C
     RDKit          3D

 50 52  0  0  1  0  0  0  0  0999 V2000
  128.9999  134.1161  157.4033 C   0  0  0  0  0  0  0  0  0  0  0  0
  129.3880  134.6348  158.7639 C   0  0  0  0  0  0  0  0  0  0  0  0
  130.4682  135.4075  159.0343 N   0  0  0  0  0  0  0  0  0  0  0  0
  131.1186  135.7179  158.3850 H   0  0  0  0  0  0  0  0  0  0  0  0
  130.4900  135.6766  160.3841 C   0  0  0  0  0  0  0  0  0  0  0  0
  131.4937  136.4781  161.0923 C   0  0  0  0  0  0  0  0  0  0  0  0
  131.4023  136.6440  162.2944 O   0  0  0  0  0  0  0  0  0  0  0  0
  132.5173  137.0308  160.4116 N   0  0  0  0  0  0  0  0  0  0  0  0
  133.5199  137.8313  161.1189 C   0  0  1  0  0  0  0  0  0  0  0  0
  134.0184  137.2311  161.8801 H   0  0  0  0  0  0  0  0  0  0  0  0
  134.5303  138.3904  160.1445 C   0  0  0  0  0  0  0  0  0  0  0  0
  134.7752  139.6485  160.3913 C   0  0  0  0  0  0  0  0  0  0  0  0
  133.9735  140.1366  161.5755 C   0  0  0  0  0  0  0  0  0  0  0  0
  132.8617  139.0753  161.7596 C   0  0  0  0  0  0  0  0  0  0  0  0
  129.3931  135.0604  160.9482 C   0  0  0  0  0  0  0  0  0  0  0  0
  129.0033  135.0832  162.4037 C   0  0  0  0  0  0  0  0  0  0  0  0
  128.1228  136.2314  162.6570 N   0  0  0  0  0  0  0  0  0  0  0  0
  128.6084  137.0851  162.4254 H   0  0  0  0  0  0  0  0  0  0  0  0
  127.2935  136.1513  162.0879 H   0  0  0  0  0  0  0  0  0  0  0  0
  127.7429  136.2536  164.0758 C   0  0  0  0  0  0  0  0  0  0  0  0
  126.8396  137.4316  164.3356 C   0  0  0  0  0  0  0  0  0  0  0  0
  125.4442  137.4354  164.2400 C   0  0  0  0  0  0  0  0  0  0  0  0
  125.0170  138.6344  164.5426 N   0  0  0  0  0  0  0  0  0  0  0  0
  126.1295  139.4354  164.8310 N   0  0  0  0  0  0  0  0  0  0  0  0
  126.0977  140.8500  165.2108 C   0  0  0  0  0  0  0  0  0  0  0  0
  127.2354  138.6740  164.6970 C   0  0  0  0  0  0  0  0  0  0  0  0
  128.7110  134.4098  159.9154 C   0  0  0  0  0  0  0  0  0  0  0  0
  127.4468  133.6021  160.0578 C   0  0  0  0  0  0  0  0  0  0  0  0
  128.3472  134.8376  156.9119 H   0  0  0  0  0  0  0  0  0  0  0  0
  129.8965  133.9685  156.8014 H   0  0  0  0  0  0  0  0  0  0  0  0
  128.4752  133.1669  157.5124 H   0  0  0  0  0  0  0  0  0  0  0  0
  132.5900  136.8986  159.4535 H   0  0  0  0  0  0  0  0  0  0  0  0
  134.9897  137.8234  159.3482 H   0  0  0  0  0  0  0  0  0  0  0  0
  135.4640  140.2591  159.8264 H   0  0  0  0  0  0  0  0  0  0  0  0
  134.6024  140.1893  162.4642 H   0  0  0  0  0  0  0  0  0  0  0  0
  133.5349  141.1111  161.3613 H   0  0  0  0  0  0  0  0  0  0  0  0
  131.9543  139.3568  161.2251 H   0  0  0  0  0  0  0  0  0  0  0  0
  132.6544  138.9077  162.8165 H   0  0  0  0  0  0  0  0  0  0  0  0
  128.4787  134.1610  162.6538 H   0  0  0  0  0  0  0  0  0  0  0  0
  129.8991  135.1697  163.0185 H   0  0  0  0  0  0  0  0  0  0  0  0
  127.2184  135.3315  164.3260 H   0  0  0  0  0  0  0  0  0  0  0  0
  128.6388  136.3403  164.6905 H   0  0  0  0  0  0  0  0  0  0  0  0
  124.8258  136.5932  163.9664 H   0  0  0  0  0  0  0  0  0  0  0  0
  126.1539  141.4680  164.3147 H   0  0  0  0  0  0  0  0  0  0  0  0
  125.1699  141.0630  165.7415 H   0  0  0  0  0  0  0  0  0  0  0  0
  126.9459  141.0714  165.8586 H   0  0  0  0  0  0  0  0  0  0  0  0
  128.2540  138.9981  164.8509 H   0  0  0  0  0  0  0  0  0  0  0  0
  126.5827  134.2537  159.9285 H   0  0  0  0  0  0  0  0  0  0  0  0
  127.4283  132.8192  159.2996 H   0  0  0  0  0  0  0  0  0  0  0  0
  127.4150  133.1489  161.0488 H   0  0  0  0  0  0  0  0  0  0  0  0
  1  2  1  0
  1 29  1  0
  1 30  1  0
  1 31  1  0
  2 27  2  0
  2  3  1  0
  3  4  1  0
  3  5  1  0
  5  6  1  0
  5 15  2  0
  6  7  2  0
  6  8  1  0
  8  9  1  0
  8 32  1  0
  9 10  1  1
  9 14  1  0
  9 11  1  0
 11 12  2  0
 11 33  1  0
 12 13  1  0
 12 34  1  0
 13 14  1  0
 13 35  1  0
 13 36  1  0
 14 37  1  0
 14 38  1  0
 15 16  1  0
 15 27  1  0
 16 17  1  0
 16 39  1  0
 16 40  1  0
 17 18  1  0
 17 19  1  0
 17 20  1  0
 20 21  1  0
 20 41  1  0
 20 42  1  0
 21 26  2  0
 21 22  1  0
 22 23  2  0
 22 43  1  0
 23 24  1  0
 24 25  1  0
 24 26  1  0
 25 44  1  0
 25 45  1  0
 25 46  1  0
 26 47  1  0
 27 28  1  0
 28 48  1  0
 28 49  1  0
 28 50  1  0
M  CHG  1  17   1
M  END
>  <DOCK_score>  (1) 
-42.704052

>  <SMILES>  (1) 
Cc1[nH]c(C(=O)N[C@H]2C=CCC2)c(C[NH2+]Cc2cnn(C)c2)c1C

$$$$
