CCc1ccc(-c2c[nH]c(N[C@@H](CSC3=Cc4ccccc4C3)c3ccnn3C)[nH+]2)cc1
     RDKit          3D

 60 64  0  0  1  0  0  0  0  0999 V2000
  130.4865  128.4176  151.7041 C   0  0  0  0  0  0  0  0  0  0  0  0
  131.5452  129.4836  151.9927 C   0  0  0  0  0  0  0  0  0  0  0  0
  131.1974  130.2042  153.2698 C   0  0  0  0  0  0  0  0  0  0  0  0
  131.6752  129.7329  154.4788 C   0  0  0  0  0  0  0  0  0  0  0  0
  131.3639  130.3915  155.6509 C   0  0  0  0  0  0  0  0  0  0  0  0
  130.5576  131.5279  155.6158 C   0  0  0  0  0  0  0  0  0  0  0  0
  130.2153  132.2371  156.8727 C   0  0  0  0  0  0  0  0  0  0  0  0
  129.5580  131.7077  157.9342 C   0  0  0  0  0  0  0  0  0  0  0  0
  129.4542  132.7028  158.8755 N   0  0  0  0  0  0  0  0  0  0  0  0
  129.0326  132.6285  159.7459 H   0  0  0  0  0  0  0  0  0  0  0  0
  130.0518  133.8122  158.3613 C   0  0  0  0  0  0  0  0  0  0  0  0
  130.1618  135.0369  158.9973 N   0  0  0  0  0  0  0  0  0  0  0  0
  129.6068  135.2169  160.3411 C   0  0  1  0  0  0  0  0  0  0  0  0
  129.8007  134.3248  160.9368 H   0  0  0  0  0  0  0  0  0  0  0  0
  130.2646  136.4275  161.0067 C   0  0  0  0  0  0  0  0  0  0  0  0
  132.0300  136.4495  160.6084 S   0  0  0  0  0  0  0  0  0  0  0  0
  132.6227  137.4880  161.9026 C   0  0  0  0  0  0  0  0  0  0  0  0
  133.5210  137.1494  162.8298 C   0  0  0  0  0  0  0  0  0  0  0  0
  133.7751  138.2700  163.7487 C   0  0  0  0  0  0  0  0  0  0  0  0
  134.6190  138.3941  164.8578 C   0  0  0  0  0  0  0  0  0  0  0  0
  134.6657  139.5819  165.5559 C   0  0  0  0  0  0  0  0  0  0  0  0
  133.8820  140.6541  165.1662 C   0  0  0  0  0  0  0  0  0  0  0  0
  133.0437  140.5405  164.0698 C   0  0  0  0  0  0  0  0  0  0  0  0
  132.9890  139.3602  163.3658 C   0  0  0  0  0  0  0  0  0  0  0  0
  132.2073  138.9191  162.1522 C   0  0  0  0  0  0  0  0  0  0  0  0
  128.1200  135.4429  160.2445 C   0  0  0  0  0  0  0  0  0  0  0  0
  127.4674  136.0281  159.2136 C   0  0  0  0  0  0  0  0  0  0  0  0
  126.1026  136.0407  159.5198 C   0  0  0  0  0  0  0  0  0  0  0  0
  125.9417  135.4831  160.6924 N   0  0  0  0  0  0  0  0  0  0  0  0
  127.2003  135.0928  161.1679 N   0  0  0  0  0  0  0  0  0  0  0  0
  127.4707  134.4256  162.4437 C   0  0  0  0  0  0  0  0  0  0  0  0
  130.5098  133.5285  157.1665 N   0  0  0  0  0  0  0  0  0  0  0  0
  130.9823  134.1441  156.5845 H   0  0  0  0  0  0  0  0  0  0  0  0
  130.0746  131.9956  154.3950 C   0  0  0  0  0  0  0  0  0  0  0  0
  130.3966  131.3320  153.2285 C   0  0  0  0  0  0  0  0  0  0  0  0
  129.5113  128.8927  151.5992 H   0  0  0  0  0  0  0  0  0  0  0  0
  130.7382  127.8964  150.7804 H   0  0  0  0  0  0  0  0  0  0  0  0
  130.4563  127.7038  152.5273 H   0  0  0  0  0  0  0  0  0  0  0  0
  132.5204  129.0090  152.0974 H   0  0  0  0  0  0  0  0  0  0  0  0
  131.5752  130.1980  151.1692 H   0  0  0  0  0  0  0  0  0  0  0  0
  132.2963  128.8497  154.5054 H   0  0  0  0  0  0  0  0  0  0  0  0
  131.7413  130.0250  156.5942 H   0  0  0  0  0  0  0  0  0  0  0  0
  129.1867  130.6974  158.0224 H   0  0  0  0  0  0  0  0  0  0  0  0
  130.6062  135.7758  158.5532 H   0  0  0  0  0  0  0  0  0  0  0  0
  129.7979  137.3417  160.6400 H   0  0  0  0  0  0  0  0  0  0  0  0
  130.1367  136.3621  162.0872 H   0  0  0  0  0  0  0  0  0  0  0  0
  133.9977  136.1826  162.8965 H   0  0  0  0  0  0  0  0  0  0  0  0
  135.2331  137.5609  165.1662 H   0  0  0  0  0  0  0  0  0  0  0  0
  135.3174  139.6763  166.4120 H   0  0  0  0  0  0  0  0  0  0  0  0
  133.9241  141.5812  165.7186 H   0  0  0  0  0  0  0  0  0  0  0  0
  132.4331  141.3785  163.7676 H   0  0  0  0  0  0  0  0  0  0  0  0
  132.4592  139.5404  161.2928 H   0  0  0  0  0  0  0  0  0  0  0  0
  131.1378  138.9713  162.3556 H   0  0  0  0  0  0  0  0  0  0  0  0
  127.9203  136.4171  158.3137 H   0  0  0  0  0  0  0  0  0  0  0  0
  125.3175  136.4419  158.8962 H   0  0  0  0  0  0  0  0  0  0  0  0
  127.6467  135.1748  163.2155 H   0  0  0  0  0  0  0  0  0  0  0  0
  126.6136  133.8120  162.7216 H   0  0  0  0  0  0  0  0  0  0  0  0
  128.3528  133.7933  162.3433 H   0  0  0  0  0  0  0  0  0  0  0  0
  129.4491  132.8754  154.3617 H   0  0  0  0  0  0  0  0  0  0  0  0
  130.0231  131.6937  152.2819 H   0  0  0  0  0  0  0  0  0  0  0  0
  1  2  1  0
  1 36  1  0
  1 37  1  0
  1 38  1  0
  2  3  1  0
  2 39  1  0
  2 40  1  0
  3 35  2  0
  3  4  1  0
  4  5  2  0
  4 41  1  0
  5  6  1  0
  5 42  1  0
  6  7  1  0
  6 34  2  0
  7 32  1  0
  7  8  2  0
  8  9  1  0
  8 43  1  0
  9 10  1  0
  9 11  1  0
 11 12  1  0
 11 32  2  0
 12 13  1  0
 12 44  1  0
 13 14  1  1
 13 15  1  0
 13 26  1  0
 15 16  1  0
 15 45  1  0
 15 46  1  0
 16 17  1  0
 17 25  1  0
 17 18  2  0
 18 19  1  0
 18 47  1  0
 19 24  2  0
 19 20  1  0
 20 21  2  0
 20 48  1  0
 21 22  1  0
 21 49  1  0
 22 23  2  0
 22 50  1  0
 23 24  1  0
 23 51  1  0
 24 25  1  0
 25 52  1  0
 25 53  1  0
 26 30  1  0
 26 27  2  0
 27 28  1  0
 27 54  1  0
 28 29  2  0
 28 55  1  0
 29 30  1  0
 30 31  1  0
 31 56  1  0
 31 57  1  0
 31 58  1  0
 32 33  1  0
 34 35  1  0
 34 59  1  0
 35 60  1  0
M  CHG  1  32   1
M  END
>  <DOCK_score>  (1) 
-57.976215

>  <SMILES>  (1) 
CCc1ccc(-c2c[nH]c(N[C@@H](CSC3=Cc4ccccc4C3)c3ccnn3C)[nH+]2)cc1

$$$$
