CCc1ccc(-c2c[nH]c(N[C@@H](c3ccccc3)c3ccccc3-c3ccccc3)[nH+]2)cc1
     RDKit          3D

 61 65  0  0  1  0  0  0  0  0999 V2000
  130.8151  128.9915  151.7375 C   0  0  0  0  0  0  0  0  0  0  0  0
  132.0103  129.6707  152.4082 C   0  0  0  0  0  0  0  0  0  0  0  0
  131.5420  130.4231  153.6270 C   0  0  0  0  0  0  0  0  0  0  0  0
  131.5070  129.7906  154.8560 C   0  0  0  0  0  0  0  0  0  0  0  0
  131.0836  130.4763  155.9763 C   0  0  0  0  0  0  0  0  0  0  0  0
  130.6810  131.8060  155.8655 C   0  0  0  0  0  0  0  0  0  0  0  0
  130.2199  132.5467  157.0651 C   0  0  0  0  0  0  0  0  0  0  0  0
  129.6090  132.0083  158.1494 C   0  0  0  0  0  0  0  0  0  0  0  0
  129.3559  133.0416  159.0185 N   0  0  0  0  0  0  0  0  0  0  0  0
  128.9260  132.9713  159.8851 H   0  0  0  0  0  0  0  0  0  0  0  0
  129.8200  134.1824  158.4392 C   0  0  0  0  0  0  0  0  0  0  0  0
  129.7572  135.4504  158.9914 N   0  0  0  0  0  0  0  0  0  0  0  0
  129.1506  135.6456  160.3104 C   0  0  1  0  0  0  0  0  0  0  0  0
  128.1113  135.3181  160.2845 H   0  0  0  0  0  0  0  0  0  0  0  0
  129.9061  134.8393  161.3352 C   0  0  0  0  0  0  0  0  0  0  0  0
  129.2514  134.3517  162.4507 C   0  0  0  0  0  0  0  0  0  0  0  0
  129.9436  133.6087  163.3887 C   0  0  0  0  0  0  0  0  0  0  0  0
  131.2923  133.3608  163.2155 C   0  0  0  0  0  0  0  0  0  0  0  0
  131.9482  133.8524  162.1024 C   0  0  0  0  0  0  0  0  0  0  0  0
  131.2552  134.5922  161.1624 C   0  0  0  0  0  0  0  0  0  0  0  0
  129.2079  137.1059  160.6784 C   0  0  0  0  0  0  0  0  0  0  0  0
  130.2346  137.8983  160.2060 C   0  0  0  0  0  0  0  0  0  0  0  0
  130.2853  139.2398  160.5384 C   0  0  0  0  0  0  0  0  0  0  0  0
  129.3150  139.7924  161.3552 C   0  0  0  0  0  0  0  0  0  0  0  0
  128.2868  139.0085  161.8370 C   0  0  0  0  0  0  0  0  0  0  0  0
  128.2278  137.6573  161.5007 C   0  0  0  0  0  0  0  0  0  0  0  0
  127.1245  136.8091  162.0162 C   0  0  0  0  0  0  0  0  0  0  0  0
  126.9511  136.6460  163.3891 C   0  0  0  0  0  0  0  0  0  0  0  0
  125.9209  135.8592  163.8632 C   0  0  0  0  0  0  0  0  0  0  0  0
  125.0673  135.2259  162.9780 C   0  0  0  0  0  0  0  0  0  0  0  0
  125.2380  135.3806  161.6141 C   0  0  0  0  0  0  0  0  0  0  0  0
  126.2620  136.1685  161.1292 C   0  0  0  0  0  0  0  0  0  0  0  0
  130.3403  133.8818  157.2743 N   0  0  0  0  0  0  0  0  0  0  0  0
  130.7449  134.5133  156.6592 H   0  0  0  0  0  0  0  0  0  0  0  0
  130.7136  132.4373  154.6233 C   0  0  0  0  0  0  0  0  0  0  0  0
  131.1439  131.7434  153.5106 C   0  0  0  0  0  0  0  0  0  0  0  0
  130.0872  129.7464  151.4408 H   0  0  0  0  0  0  0  0  0  0  0  0
  131.1539  128.4473  150.8560 H   0  0  0  0  0  0  0  0  0  0  0  0
  130.3527  128.2963  152.4382 H   0  0  0  0  0  0  0  0  0  0  0  0
  132.7387  128.9164  152.7044 H   0  0  0  0  0  0  0  0  0  0  0  0
  132.4731  130.3665  151.7072 H   0  0  0  0  0  0  0  0  0  0  0  0
  131.8151  128.7589  154.9398 H   0  0  0  0  0  0  0  0  0  0  0  0
  131.0606  129.9823  156.9365 H   0  0  0  0  0  0  0  0  0  0  0  0
  129.3673  130.9666  158.3006 H   0  0  0  0  0  0  0  0  0  0  0  0
  130.1150  136.2094  158.5047 H   0  0  0  0  0  0  0  0  0  0  0  0
  128.1983  134.5486  162.5878 H   0  0  0  0  0  0  0  0  0  0  0  0
  129.4313  133.2248  164.2585 H   0  0  0  0  0  0  0  0  0  0  0  0
  131.8339  132.7831  163.9501 H   0  0  0  0  0  0  0  0  0  0  0  0
  133.0020  133.6591  161.9672 H   0  0  0  0  0  0  0  0  0  0  0  0
  131.7677  134.9766  160.2930 H   0  0  0  0  0  0  0  0  0  0  0  0
  130.9975  137.4708  159.5721 H   0  0  0  0  0  0  0  0  0  0  0  0
  131.0879  139.8572  160.1626 H   0  0  0  0  0  0  0  0  0  0  0  0
  129.3613  140.8399  161.6142 H   0  0  0  0  0  0  0  0  0  0  0  0
  127.5298  139.4409  162.4744 H   0  0  0  0  0  0  0  0  0  0  0  0
  127.6195  137.1368  164.0811 H   0  0  0  0  0  0  0  0  0  0  0  0
  125.7834  135.7347  164.9271 H   0  0  0  0  0  0  0  0  0  0  0  0
  124.2648  134.6081  163.3532 H   0  0  0  0  0  0  0  0  0  0  0  0
  124.5688  134.8835  160.9274 H   0  0  0  0  0  0  0  0  0  0  0  0
  126.3943  136.2887  160.0640 H   0  0  0  0  0  0  0  0  0  0  0  0
  130.4023  133.4675  154.5316 H   0  0  0  0  0  0  0  0  0  0  0  0
  131.1698  132.2317  152.5477 H   0  0  0  0  0  0  0  0  0  0  0  0
  1  2  1  0
  1 37  1  0
  1 38  1  0
  1 39  1  0
  2  3  1  0
  2 40  1  0
  2 41  1  0
  3 36  2  0
  3  4  1  0
  4  5  2  0
  4 42  1  0
  5  6  1  0
  5 43  1  0
  6  7  1  0
  6 35  2  0
  7 33  1  0
  7  8  2  0
  8  9  1  0
  8 44  1  0
  9 10  1  0
  9 11  1  0
 11 12  1  0
 11 33  2  0
 12 13  1  0
 12 45  1  0
 13 14  1  6
 13 15  1  0
 13 21  1  0
 15 20  1  0
 15 16  2  0
 16 17  1  0
 16 46  1  0
 17 18  2  0
 17 47  1  0
 18 19  1  0
 18 48  1  0
 19 20  2  0
 19 49  1  0
 20 50  1  0
 21 26  1  0
 21 22  2  0
 22 23  1  0
 22 51  1  0
 23 24  2  0
 23 52  1  0
 24 25  1  0
 24 53  1  0
 25 26  2  0
 25 54  1  0
 26 27  1  0
 27 32  1  0
 27 28  2  0
 28 29  1  0
 28 55  1  0
 29 30  2  0
 29 56  1  0
 30 31  1  0
 30 57  1  0
 31 32  2  0
 31 58  1  0
 32 59  1  0
 33 34  1  0
 35 36  1  0
 35 60  1  0
 36 61  1  0
M  CHG  1  33   1
M  END
>  <DOCK_score>  (1) 
-56.412838

>  <SMILES>  (1) 
CCc1ccc(-c2c[nH]c(N[C@@H](c3ccccc3)c3ccccc3-c3ccccc3)[nH+]2)cc1

$$$$
