C=C/C=C/CC=CCC[C@H](Nc1[nH]cc(-c2ccc(N)cc2)[nH+]1)c1ccccc1
     RDKit          3D

 58 60  0  0  1  0  0  0  0  0999 V2000
  128.5152  142.6110  164.8955 C   0  0  0  0  0  0  0  0  0  0  0  0
  129.4740  141.6939  164.9664 C   0  0  0  0  0  0  0  0  0  0  0  0
  130.3091  141.4103  163.7889 C   0  0  0  0  0  0  0  0  0  0  0  0
  131.2679  140.4930  163.8599 C   0  0  0  0  0  0  0  0  0  0  0  0
  132.1233  140.2025  162.6537 C   0  0  0  0  0  0  0  0  0  0  0  0
  131.9679  138.7548  162.2646 C   0  0  0  0  0  0  0  0  0  0  0  0
  131.5133  138.4410  161.0768 C   0  0  0  0  0  0  0  0  0  0  0  0
  131.3579  136.9934  160.6877 C   0  0  0  0  0  0  0  0  0  0  0  0
  129.8920  136.7096  160.3538 C   0  0  0  0  0  0  0  0  0  0  0  0
  129.7343  135.2399  159.9588 C   0  0  2  0  0  0  0  0  0  0  0  0
  130.3547  134.6209  160.6068 H   0  0  0  0  0  0  0  0  0  0  0  0
  130.1524  135.0610  158.5662 N   0  0  0  0  0  0  0  0  0  0  0  0
  130.0979  133.8066  157.9827 C   0  0  0  0  0  0  0  0  0  0  0  0
  129.6714  132.6670  158.5919 N   0  0  0  0  0  0  0  0  0  0  0  0
  129.3544  132.5878  159.5052 H   0  0  0  0  0  0  0  0  0  0  0  0
  129.7737  131.6487  157.6740 C   0  0  0  0  0  0  0  0  0  0  0  0
  130.2590  132.1958  156.5322 C   0  0  0  0  0  0  0  0  0  0  0  0
  130.5340  131.4732  155.2661 C   0  0  0  0  0  0  0  0  0  0  0  0
  129.8696  131.8374  154.0960 C   0  0  0  0  0  0  0  0  0  0  0  0
  130.1310  131.1682  152.9191 C   0  0  0  0  0  0  0  0  0  0  0  0
  131.0474  130.1235  152.9013 C   0  0  0  0  0  0  0  0  0  0  0  0
  131.3065  129.4428  151.7092 N   0  0  0  0  0  0  0  0  0  0  0  0
  131.7068  129.7548  154.0679 C   0  0  0  0  0  0  0  0  0  0  0  0
  131.4529  130.4251  155.2459 C   0  0  0  0  0  0  0  0  0  0  0  0
  130.4432  133.5220  156.7506 N   0  0  0  0  0  0  0  0  0  0  0  0
  130.7788  134.1578  156.0995 H   0  0  0  0  0  0  0  0  0  0  0  0
  128.2909  134.8322  160.1062 C   0  0  0  0  0  0  0  0  0  0  0  0
  127.8377  134.3160  161.3058 C   0  0  0  0  0  0  0  0  0  0  0  0
  126.5138  133.9417  161.4410 C   0  0  0  0  0  0  0  0  0  0  0  0
  125.6436  134.0823  160.3762 C   0  0  0  0  0  0  0  0  0  0  0  0
  126.0972  134.5973  159.1762 C   0  0  0  0  0  0  0  0  0  0  0  0
  127.4209  134.9720  159.0411 C   0  0  0  0  0  0  0  0  0  0  0  0
  127.9023  142.8193  165.7599 H   0  0  0  0  0  0  0  0  0  0  0  0
  128.3489  143.1481  163.9736 H   0  0  0  0  0  0  0  0  0  0  0  0
  129.6404  141.1568  165.8885 H   0  0  0  0  0  0  0  0  0  0  0  0
  130.1428  141.9474  162.8669 H   0  0  0  0  0  0  0  0  0  0  0  0
  131.4341  139.9559  164.7819 H   0  0  0  0  0  0  0  0  0  0  0  0
  133.1676  140.4047  162.8915 H   0  0  0  0  0  0  0  0  0  0  0  0
  131.8101  140.8371  161.8247 H   0  0  0  0  0  0  0  0  0  0  0  0
  132.2314  137.9762  162.9650 H   0  0  0  0  0  0  0  0  0  0  0  0
  131.2498  139.2197  160.3764 H   0  0  0  0  0  0  0  0  0  0  0  0
  131.6711  136.3587  161.5168 H   0  0  0  0  0  0  0  0  0  0  0  0
  131.9766  136.7831  159.8154 H   0  0  0  0  0  0  0  0  0  0  0  0
  129.5788  137.3443  159.5248 H   0  0  0  0  0  0  0  0  0  0  0  0
  129.2734  136.9198  161.2262 H   0  0  0  0  0  0  0  0  0  0  0  0
  130.4675  135.8213  158.0528 H   0  0  0  0  0  0  0  0  0  0  0  0
  129.5167  130.6117  157.8320 H   0  0  0  0  0  0  0  0  0  0  0  0
  129.1537  132.6460  154.1105 H   0  0  0  0  0  0  0  0  0  0  0  0
  129.6196  131.4526  152.0114 H   0  0  0  0  0  0  0  0  0  0  0  0
  131.9466  128.7143  151.6956 H   0  0  0  0  0  0  0  0  0  0  0  0
  130.8470  129.6999  150.8943 H   0  0  0  0  0  0  0  0  0  0  0  0
  132.4185  128.9424  154.0520 H   0  0  0  0  0  0  0  0  0  0  0  0
  131.9658  130.1385  156.1521 H   0  0  0  0  0  0  0  0  0  0  0  0
  128.5175  134.2064  162.1378 H   0  0  0  0  0  0  0  0  0  0  0  0
  126.1585  133.5435  162.3799 H   0  0  0  0  0  0  0  0  0  0  0  0
  124.6095  133.7895  160.4817 H   0  0  0  0  0  0  0  0  0  0  0  0
  125.4175  134.7065  158.3440 H   0  0  0  0  0  0  0  0  0  0  0  0
  127.7755  135.3738  158.1034 H   0  0  0  0  0  0  0  0  0  0  0  0
  1  2  2  0
  1 33  1  0
  1 34  1  0
  2  3  1  0
  2 35  1  0
  3  4  2  0
  3 36  1  0
  4  5  1  0
  4 37  1  0
  5  6  1  0
  5 38  1  0
  5 39  1  0
  6  7  2  0
  6 40  1  0
  7  8  1  0
  7 41  1  0
  8  9  1  0
  8 42  1  0
  8 43  1  0
  9 10  1  0
  9 44  1  0
  9 45  1  0
 10 11  1  1
 10 12  1  0
 10 27  1  0
 12 46  1  0
 13 12  1  0
 13 25  2  0
 13 14  1  0
 14 15  1  0
 14 16  1  0
 16 17  2  0
 16 47  1  0
 17 18  1  0
 17 25  1  0
 18 24  1  0
 18 19  2  0
 19 20  1  0
 19 48  1  0
 20 21  2  0
 20 49  1  0
 21 22  1  0
 21 23  1  0
 22 50  1  0
 22 51  1  0
 23 24  2  0
 23 52  1  0
 24 53  1  0
 25 26  1  0
 27 32  1  0
 27 28  2  0
 28 29  1  0
 28 54  1  0
 29 30  2  0
 29 55  1  0
 30 31  1  0
 30 56  1  0
 31 32  2  0
 31 57  1  0
 32 58  1  0
M  CHG  1  25   1
M  END
>  <DOCK_score>  (1) 
-56.311707

>  <SMILES>  (1) 
C=C/C=C/CC=CCC[C@H](Nc1[nH]cc(-c2ccc(N)cc2)[nH+]1)c1ccccc1

$$$$
