CCc1ccc(-c2c[nH]c(N[C@@H](CO)CCBr)[nH+]2)cc1
     RDKit          3D

 41 42  0  0  1  0  0  0  0  0999 V2000
  129.8265  128.5651  150.8947 C   0  0  0  0  0  0  0  0  0  0  0  0
  130.9406  129.5959  151.0874 C   0  0  0  0  0  0  0  0  0  0  0  0
  130.7883  130.2555  152.4338 C   0  0  0  0  0  0  0  0  0  0  0  0
  131.4132  129.7123  153.5421 C   0  0  0  0  0  0  0  0  0  0  0  0
  131.2761  130.3117  154.7776 C   0  0  0  0  0  0  0  0  0  0  0  0
  130.5061  131.4662  154.9075 C   0  0  0  0  0  0  0  0  0  0  0  0
  130.3551  132.1150  156.2329 C   0  0  0  0  0  0  0  0  0  0  0  0
  129.8262  131.5460  157.3444 C   0  0  0  0  0  0  0  0  0  0  0  0
  129.8732  132.4933  158.3381 N   0  0  0  0  0  0  0  0  0  0  0  0
  129.5633  132.3844  159.2508 H   0  0  0  0  0  0  0  0  0  0  0  0
  130.4345  133.6129  157.8055 C   0  0  0  0  0  0  0  0  0  0  0  0
  130.6623  134.8000  158.4805 N   0  0  0  0  0  0  0  0  0  0  0  0
  130.2887  134.9234  159.8917 C   0  0  1  0  0  0  0  0  0  0  0  0
  130.5290  133.9973  160.4137 H   0  0  0  0  0  0  0  0  0  0  0  0
  131.0627  136.0814  160.5249 C   0  0  0  0  0  0  0  0  0  0  0  0
  132.4655  135.8283  160.4239 O   0  0  0  0  0  0  0  0  0  0  0  0
  128.7866  135.1946  159.9997 C   0  0  0  0  0  0  0  0  0  0  0  0
  128.3034  134.8358  161.4063 C   0  0  0  0  0  0  0  0  0  0  0  0
  126.3736  135.1842  161.5449 Br  0  0  0  0  0  0  0  0  0  0  0  0
  130.7240  133.3820  156.5482 N   0  0  0  0  0  0  0  0  0  0  0  0
  131.1327  134.0169  155.9394 H   0  0  0  0  0  0  0  0  0  0  0  0
  129.8740  132.0054  153.7886 C   0  0  0  0  0  0  0  0  0  0  0  0
  130.0228  131.4009  152.5569 C   0  0  0  0  0  0  0  0  0  0  0  0
  129.9373  128.0881  149.9209 H   0  0  0  0  0  0  0  0  0  0  0  0
  129.8903  127.8102  151.6784 H   0  0  0  0  0  0  0  0  0  0  0  0
  128.8583  129.0628  150.9476 H   0  0  0  0  0  0  0  0  0  0  0  0
  130.8772  130.3505  150.3039 H   0  0  0  0  0  0  0  0  0  0  0  0
  131.9091  129.0979  151.0347 H   0  0  0  0  0  0  0  0  0  0  0  0
  132.0096  128.8177  153.4402 H   0  0  0  0  0  0  0  0  0  0  0  0
  131.7649  129.8872  155.6422 H   0  0  0  0  0  0  0  0  0  0  0  0
  129.4387  130.5416  157.4308 H   0  0  0  0  0  0  0  0  0  0  0  0
  131.0692  135.5499  158.0191 H   0  0  0  0  0  0  0  0  0  0  0  0
  130.8222  137.0076  160.0030 H   0  0  0  0  0  0  0  0  0  0  0  0
  130.7846  136.1731  161.5748 H   0  0  0  0  0  0  0  0  0  0  0  0
  132.7840  135.7351  159.5156 H   0  0  0  0  0  0  0  0  0  0  0  0
  128.5932  136.2500  159.8071 H   0  0  0  0  0  0  0  0  0  0  0  0
  128.2544  134.5881  159.2669 H   0  0  0  0  0  0  0  0  0  0  0  0
  128.4969  133.7806  161.5988 H   0  0  0  0  0  0  0  0  0  0  0  0
  128.8357  135.4424  162.1390 H   0  0  0  0  0  0  0  0  0  0  0  0
  129.2723  132.8972  153.8844 H   0  0  0  0  0  0  0  0  0  0  0  0
  129.5370  131.8205  151.6883 H   0  0  0  0  0  0  0  0  0  0  0  0
  1  2  1  0
  1 24  1  0
  1 25  1  0
  1 26  1  0
  2  3  1  0
  2 27  1  0
  2 28  1  0
  3 23  2  0
  3  4  1  0
  4  5  2  0
  4 29  1  0
  5  6  1  0
  5 30  1  0
  6  7  1  0
  6 22  2  0
  7 20  1  0
  7  8  2  0
  8  9  1  0
  8 31  1  0
  9 10  1  0
  9 11  1  0
 11 12  1  0
 11 20  2  0
 12 13  1  0
 12 32  1  0
 13 14  1  1
 13 15  1  0
 13 17  1  0
 15 16  1  0
 15 33  1  0
 15 34  1  0
 16 35  1  0
 17 18  1  0
 17 36  1  0
 17 37  1  0
 18 19  1  0
 18 38  1  0
 18 39  1  0
 20 21  1  0
 22 23  1  0
 22 40  1  0
 23 41  1  0
M  CHG  1  20   1
M  END
>  <DOCK_score>  (1) 
-57.965187

>  <SMILES>  (1) 
CCc1ccc(-c2c[nH]c(N[C@@H](CO)CCBr)[nH+]2)cc1

$$$$
