CCOC(=O)c1oc2ccc(-c3c[nH]c4ccc(F)cc34)cc2c1C[NH2+][C@@H]1COC2(CC2)C1
     RDKit          3D

 59 64  0  0  1  0  0  0  0  0999 V2000
  126.2854  140.9210  165.0569 C   0  0  0  0  0  0  0  0  0  0  0  0
  127.5030  140.8261  164.1354 C   0  0  0  0  0  0  0  0  0  0  0  0
  127.4043  139.6252  163.3251 O   0  0  0  0  0  0  0  0  0  0  0  0
  128.4059  139.3913  162.4529 C   0  0  0  0  0  0  0  0  0  0  0  0
  129.3361  140.1700  162.3721 O   0  0  0  0  0  0  0  0  0  0  0  0
  128.3730  138.1962  161.6008 C   0  0  0  0  0  0  0  0  0  0  0  0
  127.3934  137.2681  161.6023 O   0  0  0  0  0  0  0  0  0  0  0  0
  127.6569  136.2899  160.7129 C   0  0  0  0  0  0  0  0  0  0  0  0
  126.9781  135.1315  160.3484 C   0  0  0  0  0  0  0  0  0  0  0  0
  127.4988  134.2990  159.3855 C   0  0  0  0  0  0  0  0  0  0  0  0
  128.7140  134.6033  158.7614 C   0  0  0  0  0  0  0  0  0  0  0  0
  129.2623  133.6958  157.7245 C   0  0  0  0  0  0  0  0  0  0  0  0
  129.5338  134.0116  156.4353 C   0  0  0  0  0  0  0  0  0  0  0  0
  130.0270  132.9159  155.7857 N   0  0  0  0  0  0  0  0  0  0  0  0
  130.2938  132.8963  154.8534 H   0  0  0  0  0  0  0  0  0  0  0  0
  130.0905  131.8417  156.6481 C   0  0  0  0  0  0  0  0  0  0  0  0
  130.5076  130.5229  156.4979 C   0  0  0  0  0  0  0  0  0  0  0  0
  130.4537  129.6583  157.5685 C   0  0  0  0  0  0  0  0  0  0  0  0
  129.9856  130.0898  158.8042 C   0  0  0  0  0  0  0  0  0  0  0  0
  129.9397  129.2285  159.8441 F   0  0  0  0  0  0  0  0  0  0  0  0
  129.5681  131.3927  158.9734 C   0  0  0  0  0  0  0  0  0  0  0  0
  129.6228  132.2798  157.8984 C   0  0  0  0  0  0  0  0  0  0  0  0
  129.4059  135.7541  159.1121 C   0  0  0  0  0  0  0  0  0  0  0  0
  128.8797  136.6014  160.0888 C   0  0  0  0  0  0  0  0  0  0  0  0
  129.3230  137.8592  160.6893 C   0  0  0  0  0  0  0  0  0  0  0  0
  130.5813  138.6234  160.3674 C   0  0  0  0  0  0  0  0  0  0  0  0
  131.7133  137.6907  160.2863 N   0  0  0  0  0  0  0  0  0  0  0  0
  131.5378  137.0110  159.5616 H   0  0  0  0  0  0  0  0  0  0  0  0
  131.8237  137.2182  161.1710 H   0  0  0  0  0  0  0  0  0  0  0  0
  132.9400  138.4356  159.9725 C   0  0  2  0  0  0  0  0  0  0  0  0
  132.8445  138.9555  159.0192 H   0  0  0  0  0  0  0  0  0  0  0  0
  134.1723  137.4953  159.9687 C   0  0  0  0  0  0  0  0  0  0  0  0
  135.2761  138.3823  160.2548 O   0  0  0  0  0  0  0  0  0  0  0  0
  134.8184  139.3094  161.2489 C   0  0  0  0  0  0  0  0  0  0  0  0
  135.4803  139.3724  162.6236 C   0  0  0  0  0  0  0  0  0  0  0  0
  135.6595  140.5248  161.6323 C   0  0  0  0  0  0  0  0  0  0  0  0
  133.2909  139.4266  161.1099 C   0  0  0  0  0  0  0  0  0  0  0  0
  125.3770  140.9618  164.4558 H   0  0  0  0  0  0  0  0  0  0  0  0
  126.2521  140.0461  165.7064 H   0  0  0  0  0  0  0  0  0  0  0  0
  126.3593  141.8224  165.6652 H   0  0  0  0  0  0  0  0  0  0  0  0
  128.4113  140.7851  164.7365 H   0  0  0  0  0  0  0  0  0  0  0  0
  127.5362  141.7008  163.4860 H   0  0  0  0  0  0  0  0  0  0  0  0
  126.0394  134.8855  160.8226 H   0  0  0  0  0  0  0  0  0  0  0  0
  126.9651  133.4019  159.1087 H   0  0  0  0  0  0  0  0  0  0  0  0
  129.3833  134.9833  155.9886 H   0  0  0  0  0  0  0  0  0  0  0  0
  130.8732  130.1774  155.5422 H   0  0  0  0  0  0  0  0  0  0  0  0
  130.7787  128.6356  157.4470 H   0  0  0  0  0  0  0  0  0  0  0  0
  129.2050  131.7260  159.9343 H   0  0  0  0  0  0  0  0  0  0  0  0
  130.3441  135.9923  158.6331 H   0  0  0  0  0  0  0  0  0  0  0  0
  130.7708  139.3577  161.1502 H   0  0  0  0  0  0  0  0  0  0  0  0
  130.4620  139.1338  159.4117 H   0  0  0  0  0  0  0  0  0  0  0  0
  134.0784  136.7366  160.7458 H   0  0  0  0  0  0  0  0  0  0  0  0
  134.2956  137.0285  158.9915 H   0  0  0  0  0  0  0  0  0  0  0  0
  134.8355  139.5454  163.4854 H   0  0  0  0  0  0  0  0  0  0  0  0
  136.3372  138.7222  162.8000 H   0  0  0  0  0  0  0  0  0  0  0  0
  136.6343  140.6327  161.1567 H   0  0  0  0  0  0  0  0  0  0  0  0
  135.1327  141.4556  161.8419 H   0  0  0  0  0  0  0  0  0  0  0  0
  132.7993  139.1333  162.0375 H   0  0  0  0  0  0  0  0  0  0  0  0
  133.0094  140.4424  160.8319 H   0  0  0  0  0  0  0  0  0  0  0  0
  1  2  1  0
  1 38  1  0
  1 39  1  0
  1 40  1  0
  2  3  1  0
  2 41  1  0
  2 42  1  0
  3  4  1  0
  4  5  2  0
  4  6  1  0
  6 25  2  0
  6  7  1  0
  7  8  1  0
  8 24  2  0
  8  9  1  0
  9 10  2  0
  9 43  1  0
 10 11  1  0
 10 44  1  0
 11 12  1  0
 11 23  2  0
 12 22  1  0
 12 13  2  0
 13 14  1  0
 13 45  1  0
 14 15  1  0
 14 16  1  0
 16 22  2  0
 16 17  1  0
 17 18  2  0
 17 46  1  0
 18 19  1  0
 18 47  1  0
 19 20  1  0
 19 21  2  0
 21 22  1  0
 21 48  1  0
 23 24  1  0
 23 49  1  0
 24 25  1  0
 25 26  1  0
 26 27  1  0
 26 50  1  0
 26 51  1  0
 27 28  1  0
 27 29  1  0
 27 30  1  0
 30 31  1  6
 30 37  1  0
 30 32  1  0
 32 33  1  0
 32 52  1  0
 32 53  1  0
 33 34  1  0
 34 36  1  0
 34 35  1  0
 34 37  1  0
 35 36  1  0
 35 54  1  0
 35 55  1  0
 36 56  1  0
 36 57  1  0
 37 58  1  0
 37 59  1  0
M  CHG  1  27   1
M  END
>  <DOCK_score>  (1) 
-47.251911

>  <SMILES>  (1) 
CCOC(=O)c1oc2ccc(-c3c[nH]c4ccc(F)cc34)cc2c1C[NH2+][C@@H]1COC2(CC2)C1

$$$$
