Cc1nc(CSc2ccc(Sc3ccccc3)c(NC(=O)[C@H](C)[NH3+])c2)[nH]c1C
     RDKit          3D

 53 55  0  0  1  0  0  0  0  0999 V2000
  129.2197  135.0877  164.5432 C   0  0  0  0  0  0  0  0  0  0  0  0
  127.9213  135.3848  163.8384 C   0  0  0  0  0  0  0  0  0  0  0  0
  127.2452  134.5421  163.0436 N   0  0  0  0  0  0  0  0  0  0  0  0
  126.1674  135.1339  162.6066 C   0  0  0  0  0  0  0  0  0  0  0  0
  125.1415  134.5233  161.6871 C   0  0  0  0  0  0  0  0  0  0  0  0
  125.5979  134.8589  159.9638 S   0  0  0  0  0  0  0  0  0  0  0  0
  126.8323  133.6449  159.6370 C   0  0  0  0  0  0  0  0  0  0  0  0
  126.4671  132.3999  159.1392 C   0  0  0  0  0  0  0  0  0  0  0  0
  127.4329  131.4478  158.8765 C   0  0  0  0  0  0  0  0  0  0  0  0
  128.7699  131.7283  159.1199 C   0  0  0  0  0  0  0  0  0  0  0  0
  130.0003  130.5107  158.7907 S   0  0  0  0  0  0  0  0  0  0  0  0
  130.4426  130.8367  157.1165 C   0  0  0  0  0  0  0  0  0  0  0  0
  130.3579  132.1293  156.6126 C   0  0  0  0  0  0  0  0  0  0  0  0
  130.7103  132.3818  155.3017 C   0  0  0  0  0  0  0  0  0  0  0  0
  131.1372  131.3488  154.4873 C   0  0  0  0  0  0  0  0  0  0  0  0
  131.2172  130.0601  154.9837 C   0  0  0  0  0  0  0  0  0  0  0  0
  130.8716  129.8009  156.2950 C   0  0  0  0  0  0  0  0  0  0  0  0
  129.1392  132.9750  159.6249 C   0  0  0  0  0  0  0  0  0  0  0  0
  130.4885  133.2609  159.8711 N   0  0  0  0  0  0  0  0  0  0  0  0
  130.9394  134.5265  159.7655 C   0  0  0  0  0  0  0  0  0  0  0  0
  130.1769  135.4183  159.4575 O   0  0  0  0  0  0  0  0  0  0  0  0
  132.3906  134.8340  160.0303 C   0  0  2  0  0  0  0  0  0  0  0  0
  133.0139  134.2736  159.3333 H   0  0  0  0  0  0  0  0  0  0  0  0
  132.7433  134.4342  161.4646 C   0  0  0  0  0  0  0  0  0  0  0  0
  132.6272  136.2726  159.8508 N   0  0  0  0  0  0  0  0  0  0  0  0
  132.0503  136.7914  160.4960 H   0  0  0  0  0  0  0  0  0  0  0  0
  133.5988  136.4785  160.0281 H   0  0  0  0  0  0  0  0  0  0  0  0
  132.3946  136.5363  158.9050 H   0  0  0  0  0  0  0  0  0  0  0  0
  128.1689  133.9308  159.8824 C   0  0  0  0  0  0  0  0  0  0  0  0
  126.1237  136.3843  163.1148 N   0  0  0  0  0  0  0  0  0  0  0  0
  125.4310  137.0451  162.9588 H   0  0  0  0  0  0  0  0  0  0  0  0
  127.2364  136.5430  163.8961 C   0  0  0  0  0  0  0  0  0  0  0  0
  127.6208  137.7762  164.6723 C   0  0  0  0  0  0  0  0  0  0  0  0
  129.0112  134.6673  165.5270 H   0  0  0  0  0  0  0  0  0  0  0  0
  129.7961  134.3723  163.9569 H   0  0  0  0  0  0  0  0  0  0  0  0
  129.7912  136.0092  164.6558 H   0  0  0  0  0  0  0  0  0  0  0  0
  125.1032  133.4461  161.8496 H   0  0  0  0  0  0  0  0  0  0  0  0
  124.1632  134.9569  161.8950 H   0  0  0  0  0  0  0  0  0  0  0  0
  125.4266  132.1778  158.9531 H   0  0  0  0  0  0  0  0  0  0  0  0
  127.1468  130.4825  158.4859 H   0  0  0  0  0  0  0  0  0  0  0  0
  130.0208  132.9357  157.2468 H   0  0  0  0  0  0  0  0  0  0  0  0
  130.6490  133.3867  154.9108 H   0  0  0  0  0  0  0  0  0  0  0  0
  131.4083  131.5487  153.4612 H   0  0  0  0  0  0  0  0  0  0  0  0
  131.5510  129.2558  154.3447 H   0  0  0  0  0  0  0  0  0  0  0  0
  130.9339  128.7945  156.6817 H   0  0  0  0  0  0  0  0  0  0  0  0
  131.0982  132.5478  160.1175 H   0  0  0  0  0  0  0  0  0  0  0  0
  132.5679  133.3668  161.5978 H   0  0  0  0  0  0  0  0  0  0  0  0
  133.7930  134.6566  161.6560 H   0  0  0  0  0  0  0  0  0  0  0  0
  132.1202  134.9946  162.1615 H   0  0  0  0  0  0  0  0  0  0  0  0
  128.4520  134.8970  160.2731 H   0  0  0  0  0  0  0  0  0  0  0  0
  127.1916  137.7240  165.6729 H   0  0  0  0  0  0  0  0  0  0  0  0
  128.7066  137.8358  164.7453 H   0  0  0  0  0  0  0  0  0  0  0  0
  127.2419  138.6607  164.1600 H   0  0  0  0  0  0  0  0  0  0  0  0
  1  2  1  0
  1 34  1  0
  1 35  1  0
  1 36  1  0
  2 32  2  0
  2  3  1  0
  3  4  2  0
  4  5  1  0
  4 30  1  0
  5  6  1  0
  5 37  1  0
  5 38  1  0
  6  7  1  0
  7 29  1  0
  7  8  2  0
  8  9  1  0
  8 39  1  0
  9 10  2  0
  9 40  1  0
 10 11  1  0
 10 18  1  0
 11 12  1  0
 12 17  1  0
 12 13  2  0
 13 14  1  0
 13 41  1  0
 14 15  2  0
 14 42  1  0
 15 16  1  0
 15 43  1  0
 16 17  2  0
 16 44  1  0
 17 45  1  0
 18 19  1  0
 18 29  2  0
 19 20  1  0
 19 46  1  0
 20 21  2  0
 20 22  1  0
 22 23  1  6
 22 24  1  0
 22 25  1  0
 24 47  1  0
 24 48  1  0
 24 49  1  0
 25 26  1  0
 25 27  1  0
 25 28  1  0
 29 50  1  0
 30 31  1  0
 30 32  1  0
 32 33  1  0
 33 51  1  0
 33 52  1  0
 33 53  1  0
M  CHG  1  25   1
M  END
>  <DOCK_score>  (1) 
-45.076244

>  <SMILES>  (1) 
Cc1nc(CSc2ccc(Sc3ccccc3)c(NC(=O)[C@H](C)[NH3+])c2)[nH]c1C

$$$$
