C1=C(CCNc2ccc(-c3n[nH]cc3C[NH2+]CC3=CCCC3)o2)CCOC1
     RDKit          3D

 56 59  0  0  0  0  0  0  0  0999 V2000
  127.8974  136.8306  166.0829 C   0  0  0  0  0  0  0  0  0  0  0  0
  127.1881  137.4604  165.1942 C   0  0  0  0  0  0  0  0  0  0  0  0
  126.3669  136.6563  164.2195 C   0  0  0  0  0  0  0  0  0  0  0  0
  126.8220  136.9659  162.7921 C   0  0  0  0  0  0  0  0  0  0  0  0
  126.0237  136.1841  161.8445 N   0  0  0  0  0  0  0  0  0  0  0  0
  126.6460  135.2811  160.9906 C   0  0  0  0  0  0  0  0  0  0  0  0
  126.0435  134.2419  160.3605 C   0  0  0  0  0  0  0  0  0  0  0  0
  127.0352  133.5913  159.6001 C   0  0  0  0  0  0  0  0  0  0  0  0
  128.1958  134.2683  159.8051 C   0  0  0  0  0  0  0  0  0  0  0  0
  129.5060  133.9412  159.2057 C   0  0  0  0  0  0  0  0  0  0  0  0
  129.7548  132.9435  158.3803 N   0  0  0  0  0  0  0  0  0  0  0  0
  131.1148  132.9836  158.0475 N   0  0  0  0  0  0  0  0  0  0  0  0
  131.5740  132.3674  157.4555 H   0  0  0  0  0  0  0  0  0  0  0  0
  131.6751  134.0321  158.6885 C   0  0  0  0  0  0  0  0  0  0  0  0
  130.7132  134.6405  159.4152 C   0  0  0  0  0  0  0  0  0  0  0  0
  130.8956  135.8545  160.2893 C   0  0  0  0  0  0  0  0  0  0  0  0
  130.6671  137.0687  159.4947 N   0  0  0  0  0  0  0  0  0  0  0  0
  129.7280  137.0576  159.1260 H   0  0  0  0  0  0  0  0  0  0  0  0
  131.3273  137.1009  158.7323 H   0  0  0  0  0  0  0  0  0  0  0  0
  130.8449  138.2521  160.3466 C   0  0  0  0  0  0  0  0  0  0  0  0
  132.2476  138.2684  160.8972 C   0  0  0  0  0  0  0  0  0  0  0  0
  132.5422  138.2442  162.1686 C   0  0  0  0  0  0  0  0  0  0  0  0
  134.0379  138.2700  162.3812 C   0  0  0  0  0  0  0  0  0  0  0  0
  134.6368  137.8918  161.0067 C   0  0  0  0  0  0  0  0  0  0  0  0
  133.4979  138.3144  160.0500 C   0  0  0  0  0  0  0  0  0  0  0  0
  127.9473  135.2871  160.6548 O   0  0  0  0  0  0  0  0  0  0  0  0
  127.1509  138.9613  165.1053 C   0  0  0  0  0  0  0  0  0  0  0  0
  127.6974  139.5662  166.4016 C   0  0  0  0  0  0  0  0  0  0  0  0
  128.9276  138.9061  166.7248 O   0  0  0  0  0  0  0  0  0  0  0  0
  128.7464  137.5391  167.0998 C   0  0  0  0  0  0  0  0  0  0  0  0
  127.8786  135.7507  166.0879 H   0  0  0  0  0  0  0  0  0  0  0  0
  125.3143  136.9167  164.3299 H   0  0  0  0  0  0  0  0  0  0  0  0
  126.5013  135.5935  164.4214 H   0  0  0  0  0  0  0  0  0  0  0  0
  127.8747  136.7056  162.6817 H   0  0  0  0  0  0  0  0  0  0  0  0
  126.6875  138.0286  162.5903 H   0  0  0  0  0  0  0  0  0  0  0  0
  125.0607  136.2967  161.8132 H   0  0  0  0  0  0  0  0  0  0  0  0
  125.0016  133.9659  160.4286 H   0  0  0  0  0  0  0  0  0  0  0  0
  126.8993  132.7215  158.9746 H   0  0  0  0  0  0  0  0  0  0  0  0
  132.7115  134.3306  158.6315 H   0  0  0  0  0  0  0  0  0  0  0  0
  131.9102  135.8664  160.6875 H   0  0  0  0  0  0  0  0  0  0  0  0
  130.1824  135.8197  161.1129 H   0  0  0  0  0  0  0  0  0  0  0  0
  130.1317  138.2173  161.1702 H   0  0  0  0  0  0  0  0  0  0  0  0
  130.6755  139.1531  159.7572 H   0  0  0  0  0  0  0  0  0  0  0  0
  131.8125  138.2098  162.9641 H   0  0  0  0  0  0  0  0  0  0  0  0
  134.3269  137.5383  163.1357 H   0  0  0  0  0  0  0  0  0  0  0  0
  134.3625  139.2682  162.6751 H   0  0  0  0  0  0  0  0  0  0  0  0
  135.5463  138.4585  160.8069 H   0  0  0  0  0  0  0  0  0  0  0  0
  134.8239  136.8199  160.9429 H   0  0  0  0  0  0  0  0  0  0  0  0
  133.6686  139.3253  159.6795 H   0  0  0  0  0  0  0  0  0  0  0  0
  133.4198  137.6129  159.2193 H   0  0  0  0  0  0  0  0  0  0  0  0
  127.7623  139.2904  164.2652 H   0  0  0  0  0  0  0  0  0  0  0  0
  126.1227  139.2907  164.9564 H   0  0  0  0  0  0  0  0  0  0  0  0
  127.8784  140.6319  166.2617 H   0  0  0  0  0  0  0  0  0  0  0  0
  126.9785  139.4180  167.2074 H   0  0  0  0  0  0  0  0  0  0  0  0
  129.7187  137.0506  167.1660 H   0  0  0  0  0  0  0  0  0  0  0  0
  128.2522  137.4929  168.0703 H   0  0  0  0  0  0  0  0  0  0  0  0
  1 30  1  0
  1  2  2  0
  1 31  1  0
  2  3  1  0
  2 27  1  0
  3  4  1  0
  3 32  1  0
  3 33  1  0
  4  5  1  0
  4 34  1  0
  4 35  1  0
  5  6  1  0
  5 36  1  0
  6 26  1  0
  6  7  2  0
  7  8  1  0
  7 37  1  0
  8  9  2  0
  8 38  1  0
  9 10  1  0
  9 26  1  0
 10 15  1  0
 10 11  2  0
 11 12  1  0
 12 13  1  0
 12 14  1  0
 14 15  2  0
 14 39  1  0
 15 16  1  0
 16 17  1  0
 16 40  1  0
 16 41  1  0
 17 18  1  0
 17 19  1  0
 17 20  1  0
 20 21  1  0
 20 42  1  0
 20 43  1  0
 21 25  1  0
 21 22  2  0
 22 23  1  0
 22 44  1  0
 23 24  1  0
 23 45  1  0
 23 46  1  0
 24 25  1  0
 24 47  1  0
 24 48  1  0
 25 49  1  0
 25 50  1  0
 27 28  1  0
 27 51  1  0
 27 52  1  0
 28 29  1  0
 28 53  1  0
 28 54  1  0
 29 30  1  0
 30 55  1  0
 30 56  1  0
M  CHG  1  17   1
M  END
>  <DOCK_score>  (1) 
-42.19429

>  <SMILES>  (1) 
C1=C(CCNc2ccc(-c3n[nH]cc3C[NH2+]CC3=CCCC3)o2)CCOC1

$$$$
