O=C1CC=C(Nc2ccc([C@@H](O)C[NH+]=C(NC3CCCCC3)NC3CCCCC3)cc2)N1
     RDKit          3D

 70 73  0  0  1  0  0  0  0  0999 V2000
  128.9842  137.0571  170.6445 O   0  0  0  0  0  0  0  0  0  0  0  0
  128.0405  137.7076  170.2481 C   0  0  0  0  0  0  0  0  0  0  0  0
  127.1626  138.6345  171.0649 C   0  0  0  0  0  0  0  0  0  0  0  0
  126.1625  139.1672  170.0594 C   0  0  0  0  0  0  0  0  0  0  0  0
  126.4681  138.6025  168.8936 C   0  0  0  0  0  0  0  0  0  0  0  0
  125.7728  138.8391  167.7125 N   0  0  0  0  0  0  0  0  0  0  0  0
  126.1637  138.2017  166.5319 C   0  0  0  0  0  0  0  0  0  0  0  0
  126.5475  138.9539  165.4288 C   0  0  0  0  0  0  0  0  0  0  0  0
  126.9386  138.3206  164.2655 C   0  0  0  0  0  0  0  0  0  0  0  0
  126.9376  136.9396  164.1943 C   0  0  0  0  0  0  0  0  0  0  0  0
  127.3596  136.2522  162.9213 C   0  0  1  0  0  0  0  0  0  0  0  0
  127.2949  135.1723  163.0529 H   0  0  0  0  0  0  0  0  0  0  0  0
  126.4981  136.6545  161.8546 O   0  0  0  0  0  0  0  0  0  0  0  0
  128.8014  136.6396  162.5862 C   0  0  0  0  0  0  0  0  0  0  0  0
  129.2116  135.9714  161.3488 N   0  0  0  0  0  0  0  0  0  0  0  0
  128.5910  135.3890  160.8834 H   0  0  0  0  0  0  0  0  0  0  0  0
  130.4106  136.1593  160.8733 C   0  0  0  0  0  0  0  0  0  0  0  0
  130.7956  135.5322  159.7119 N   0  0  0  0  0  0  0  0  0  0  0  0
  130.2224  134.2314  159.3572 C   0  0  0  0  0  0  0  0  0  0  0  0
  130.5493  133.2144  160.4525 C   0  0  0  0  0  0  0  0  0  0  0  0
  129.9507  131.8559  160.0820 C   0  0  0  0  0  0  0  0  0  0  0  0
  130.5434  131.3827  158.7533 C   0  0  0  0  0  0  0  0  0  0  0  0
  130.2165  132.3998  157.6581 C   0  0  0  0  0  0  0  0  0  0  0  0
  130.8150  133.7582  158.0285 C   0  0  0  0  0  0  0  0  0  0  0  0
  131.2901  136.9846  161.5330 N   0  0  0  0  0  0  0  0  0  0  0  0
  132.6377  137.1959  160.9985 C   0  0  0  0  0  0  0  0  0  0  0  0
  133.6063  137.4695  162.1509 C   0  0  0  0  0  0  0  0  0  0  0  0
  135.0136  137.6901  161.5927 C   0  0  0  0  0  0  0  0  0  0  0  0
  135.0028  138.8876  160.6405 C   0  0  0  0  0  0  0  0  0  0  0  0
  134.0341  138.6139  159.4881 C   0  0  0  0  0  0  0  0  0  0  0  0
  132.6269  138.3934  160.0463 C   0  0  0  0  0  0  0  0  0  0  0  0
  126.5508  136.1878  165.2887 C   0  0  0  0  0  0  0  0  0  0  0  0
  126.1640  136.8145  166.4569 C   0  0  0  0  0  0  0  0  0  0  0  0
  127.5573  137.7543  168.9913 N   0  0  0  0  0  0  0  0  0  0  0  0
  126.6540  138.0826  171.8554 H   0  0  0  0  0  0  0  0  0  0  0  0
  127.7528  139.4483  171.4861 H   0  0  0  0  0  0  0  0  0  0  0  0
  125.3613  139.8653  170.2523 H   0  0  0  0  0  0  0  0  0  0  0  0
  125.0164  139.4465  167.7084 H   0  0  0  0  0  0  0  0  0  0  0  0
  126.5438  140.0325  165.4823 H   0  0  0  0  0  0  0  0  0  0  0  0
  127.2416  138.9048  163.4091 H   0  0  0  0  0  0  0  0  0  0  0  0
  125.5663  136.4402  161.9994 H   0  0  0  0  0  0  0  0  0  0  0  0
  128.8660  137.7198  162.4544 H   0  0  0  0  0  0  0  0  0  0  0  0
  129.4586  136.3329  163.3999 H   0  0  0  0  0  0  0  0  0  0  0  0
  131.4467  135.9510  159.1274 H   0  0  0  0  0  0  0  0  0  0  0  0
  129.1409  134.3254  159.2598 H   0  0  0  0  0  0  0  0  0  0  0  0
  131.6308  133.1204  160.5500 H   0  0  0  0  0  0  0  0  0  0  0  0
  130.1270  133.5514  161.3991 H   0  0  0  0  0  0  0  0  0  0  0  0
  128.8692  131.9498  159.9845 H   0  0  0  0  0  0  0  0  0  0  0  0
  130.1836  131.1313  160.8624 H   0  0  0  0  0  0  0  0  0  0  0  0
  130.1169  130.4149  158.4894 H   0  0  0  0  0  0  0  0  0  0  0  0
  131.6250  131.2888  158.8508 H   0  0  0  0  0  0  0  0  0  0  0  0
  129.1349  132.4937  157.5605 H   0  0  0  0  0  0  0  0  0  0  0  0
  130.6387  132.0626  156.7114 H   0  0  0  0  0  0  0  0  0  0  0  0
  130.5822  134.4828  157.2482 H   0  0  0  0  0  0  0  0  0  0  0  0
  131.8966  133.6643  158.1260 H   0  0  0  0  0  0  0  0  0  0  0  0
  131.0185  137.4272  162.3522 H   0  0  0  0  0  0  0  0  0  0  0  0
  132.9582  136.3050  160.4583 H   0  0  0  0  0  0  0  0  0  0  0  0
  133.2859  138.3605  162.6910 H   0  0  0  0  0  0  0  0  0  0  0  0
  133.6141  136.6163  162.8292 H   0  0  0  0  0  0  0  0  0  0  0  0
  135.3341  136.7992  161.0525 H   0  0  0  0  0  0  0  0  0  0  0  0
  135.7037  137.8850  162.4137 H   0  0  0  0  0  0  0  0  0  0  0  0
  136.0054  139.0448  160.2428 H   0  0  0  0  0  0  0  0  0  0  0  0
  134.6823  139.7785  161.1806 H   0  0  0  0  0  0  0  0  0  0  0  0
  134.3547  137.7231  158.9479 H   0  0  0  0  0  0  0  0  0  0  0  0
  134.0264  139.4671  158.8098 H   0  0  0  0  0  0  0  0  0  0  0  0
  131.9368  138.1984  159.2252 H   0  0  0  0  0  0  0  0  0  0  0  0
  132.3064  139.2843  160.5864 H   0  0  0  0  0  0  0  0  0  0  0  0
  126.5516  135.1094  165.2297 H   0  0  0  0  0  0  0  0  0  0  0  0
  125.8615  136.2268  167.3111 H   0  0  0  0  0  0  0  0  0  0  0  0
  127.9275  137.2552  168.2465 H   0  0  0  0  0  0  0  0  0  0  0  0
  1  2  2  0
  2 34  1  0
  2  3  1  0
  3  4  1  0
  3 35  1  0
  3 36  1  0
  4  5  2  0
  4 37  1  0
  5  6  1  0
  5 34  1  0
  6  7  1  0
  6 38  1  0
  7 33  1  0
  7  8  2  0
  8  9  1  0
  8 39  1  0
  9 10  2  0
  9 40  1  0
 10 11  1  0
 10 32  1  0
 11 12  1  1
 11 13  1  0
 11 14  1  0
 13 41  1  0
 14 15  1  0
 14 42  1  0
 14 43  1  0
 15 16  1  0
 15 17  2  0
 17 18  1  0
 17 25  1  0
 18 19  1  0
 18 44  1  0
 19 24  1  0
 19 20  1  0
 19 45  1  0
 20 21  1  0
 20 46  1  0
 20 47  1  0
 21 22  1  0
 21 48  1  0
 21 49  1  0
 22 23  1  0
 22 50  1  0
 22 51  1  0
 23 24  1  0
 23 52  1  0
 23 53  1  0
 24 54  1  0
 24 55  1  0
 25 26  1  0
 25 56  1  0
 26 31  1  0
 26 27  1  0
 26 57  1  0
 27 28  1  0
 27 58  1  0
 27 59  1  0
 28 29  1  0
 28 60  1  0
 28 61  1  0
 29 30  1  0
 29 62  1  0
 29 63  1  0
 30 31  1  0
 30 64  1  0
 30 65  1  0
 31 66  1  0
 31 67  1  0
 32 33  2  0
 32 68  1  0
 33 69  1  0
 34 70  1  0
M  CHG  1  15   1
M  END
>  <DOCK_score>  (1) 
-42.040714

>  <SMILES>  (1) 
O=C1CC=C(Nc2ccc([C@@H](O)C[NH+]=C(NC3CCCCC3)NC3CCCCC3)cc2)N1

$$$$
