[NH3+][C@@H](C#Cc1ccc(Nc2ccc(Nc3nc(Br)c[nH]3)cc2)cc1)Cc1ccccc1
     RDKit          3D

 54 57  0  0  1  0  0  0  0  0999 V2000
  131.8589  137.8017  168.0537 N   0  0  0  0  0  0  0  0  0  0  0  0
  132.3806  137.9208  168.9090 H   0  0  0  0  0  0  0  0  0  0  0  0
  132.3152  137.1126  167.4747 H   0  0  0  0  0  0  0  0  0  0  0  0
  131.8167  138.6808  167.5602 H   0  0  0  0  0  0  0  0  0  0  0  0
  130.4967  137.3515  168.3695 C   0  0  1  0  0  0  0  0  0  0  0  0
  130.0040  138.0958  168.9950 H   0  0  0  0  0  0  0  0  0  0  0  0
  129.7357  137.1776  167.1217 C   0  0  0  0  0  0  0  0  0  0  0  0
  129.1286  137.0390  166.1264 C   0  0  0  0  0  0  0  0  0  0  0  0
  128.3882  136.8699  164.9124 C   0  0  0  0  0  0  0  0  0  0  0  0
  128.1938  137.9544  164.0549 C   0  0  0  0  0  0  0  0  0  0  0  0
  127.4806  137.7887  162.8877 C   0  0  0  0  0  0  0  0  0  0  0  0
  126.9545  136.5433  162.5637 C   0  0  0  0  0  0  0  0  0  0  0  0
  126.2311  136.3791  161.3809 N   0  0  0  0  0  0  0  0  0  0  0  0
  126.8920  136.0169  160.2015 C   0  0  0  0  0  0  0  0  0  0  0  0
  126.1732  135.8529  159.0250 C   0  0  0  0  0  0  0  0  0  0  0  0
  126.8251  135.4960  157.8615 C   0  0  0  0  0  0  0  0  0  0  0  0
  128.2000  135.2997  157.8680 C   0  0  0  0  0  0  0  0  0  0  0  0
  128.8611  134.9373  156.6882 N   0  0  0  0  0  0  0  0  0  0  0  0
  129.5662  133.7461  156.6270 C   0  0  0  0  0  0  0  0  0  0  0  0
  129.6890  132.8763  157.6019 N   0  0  0  0  0  0  0  0  0  0  0  0
  130.4401  131.8434  157.1841 C   0  0  0  0  0  0  0  0  0  0  0  0
  130.9107  130.3286  158.2136 Br  0  0  0  0  0  0  0  0  0  0  0  0
  130.8000  132.0714  155.9086 C   0  0  0  0  0  0  0  0  0  0  0  0
  130.2481  133.2800  155.5461 N   0  0  0  0  0  0  0  0  0  0  0  0
  130.3306  133.7164  154.6838 H   0  0  0  0  0  0  0  0  0  0  0  0
  128.9184  135.4575  159.0462 C   0  0  0  0  0  0  0  0  0  0  0  0
  128.2676  135.8204  160.2083 C   0  0  0  0  0  0  0  0  0  0  0  0
  127.1417  135.4620  163.4185 C   0  0  0  0  0  0  0  0  0  0  0  0
  127.8591  135.6202  164.5842 C   0  0  0  0  0  0  0  0  0  0  0  0
  130.5608  136.0184  169.1178 C   0  0  0  0  0  0  0  0  0  0  0  0
  129.2682  135.7964  169.8602 C   0  0  0  0  0  0  0  0  0  0  0  0
  129.1310  136.2483  171.1592 C   0  0  0  0  0  0  0  0  0  0  0  0
  127.9437  136.0490  171.8385 C   0  0  0  0  0  0  0  0  0  0  0  0
  126.8973  135.3884  171.2223 C   0  0  0  0  0  0  0  0  0  0  0  0
  127.0366  134.9318  169.9250 C   0  0  0  0  0  0  0  0  0  0  0  0
  128.2220  135.1359  169.2439 C   0  0  0  0  0  0  0  0  0  0  0  0
  128.6017  138.9223  164.3064 H   0  0  0  0  0  0  0  0  0  0  0  0
  127.3299  138.6273  162.2239 H   0  0  0  0  0  0  0  0  0  0  0  0
  125.2717  136.5155  161.3771 H   0  0  0  0  0  0  0  0  0  0  0  0
  125.1040  136.0054  159.0197 H   0  0  0  0  0  0  0  0  0  0  0  0
  126.2658  135.3690  156.9464 H   0  0  0  0  0  0  0  0  0  0  0  0
  128.8255  135.5201  155.9136 H   0  0  0  0  0  0  0  0  0  0  0  0
  131.4029  131.4272  155.2857 H   0  0  0  0  0  0  0  0  0  0  0  0
  129.9870  135.3003  159.0523 H   0  0  0  0  0  0  0  0  0  0  0  0
  128.8268  135.9474  161.1236 H   0  0  0  0  0  0  0  0  0  0  0  0
  126.7279  134.4967  163.1664 H   0  0  0  0  0  0  0  0  0  0  0  0
  128.0074  134.7797  165.2458 H   0  0  0  0  0  0  0  0  0  0  0  0
  130.7140  135.2085  168.4046 H   0  0  0  0  0  0  0  0  0  0  0  0
  131.3883  136.0393  169.8271 H   0  0  0  0  0  0  0  0  0  0  0  0
  129.9499  136.7605  171.6422 H   0  0  0  0  0  0  0  0  0  0  0  0
  127.8350  136.4054  172.8523 H   0  0  0  0  0  0  0  0  0  0  0  0
  125.9712  135.2287  171.7545 H   0  0  0  0  0  0  0  0  0  0  0  0
  126.2193  134.4154  169.4437 H   0  0  0  0  0  0  0  0  0  0  0  0
  128.3309  134.7788  168.2304 H   0  0  0  0  0  0  0  0  0  0  0  0
  1  2  1  0
  1  3  1  0
  1  4  1  0
  1  5  1  0
  5  6  1  1
  5  7  1  0
  5 30  1  0
  7  8  3  0
  8  9  1  0
  9 29  1  0
  9 10  2  0
 10 11  1  0
 10 37  1  0
 11 12  2  0
 11 38  1  0
 12 13  1  0
 12 28  1  0
 13 14  1  0
 13 39  1  0
 14 27  1  0
 14 15  2  0
 15 16  1  0
 15 40  1  0
 16 17  2  0
 16 41  1  0
 17 18  1  0
 17 26  1  0
 18 19  1  0
 18 42  1  0
 19 24  1  0
 19 20  2  0
 20 21  1  0
 21 22  1  0
 21 23  2  0
 23 24  1  0
 23 43  1  0
 24 25  1  0
 26 27  2  0
 26 44  1  0
 27 45  1  0
 28 29  2  0
 28 46  1  0
 29 47  1  0
 30 31  1  0
 30 48  1  0
 30 49  1  0
 31 36  1  0
 31 32  2  0
 32 33  1  0
 32 50  1  0
 33 34  2  0
 33 51  1  0
 34 35  1  0
 34 52  1  0
 35 36  2  0
 35 53  1  0
 36 54  1  0
M  CHG  1   1   1
M  END
>  <DOCK_score>  (1) 
-43.721241

>  <SMILES>  (1) 
[NH3+][C@@H](C#Cc1ccc(Nc2ccc(Nc3nc(Br)c[nH]3)cc2)cc1)Cc1ccccc1

$$$$
