O=C1CCC([NH+]=C(NC2CC2)N[C@@H]2Cc3ccc(Br)cc3C2)CN1
     RDKit          3D

 48 51  0  0  1  0  0  0  0  0999 V2000
  124.2220  133.7003  161.4880 O   0  0  0  0  0  0  0  0  0  0  0  0
  125.3773  134.0248  161.3128 C   0  0  0  0  0  0  0  0  0  0  0  0
  126.2927  133.0520  160.6264 C   0  0  0  0  0  0  0  0  0  0  0  0
  127.7512  133.4378  160.8849 C   0  0  0  0  0  0  0  0  0  0  0  0
  127.9161  134.9339  160.5913 C   0  0  2  0  0  0  0  0  0  0  0  0
  129.3341  135.2951  160.6617 N   0  0  0  0  0  0  0  0  0  0  0  0
  129.6341  135.9598  161.3012 H   0  0  0  0  0  0  0  0  0  0  0  0
  130.1934  134.7195  159.8687 C   0  0  0  0  0  0  0  0  0  0  0  0
  129.7690  133.7731  158.9661 N   0  0  0  0  0  0  0  0  0  0  0  0
  130.6697  132.6905  158.5619 C   0  0  0  0  0  0  0  0  0  0  0  0
  130.1396  131.2584  158.6562 C   0  0  0  0  0  0  0  0  0  0  0  0
  131.1859  131.7551  159.6571 C   0  0  0  0  0  0  0  0  0  0  0  0
  131.5242  135.0585  159.9346 N   0  0  0  0  0  0  0  0  0  0  0  0
  131.9762  136.0670  160.8963 C   0  0  2  0  0  0  0  0  0  0  0  0
  131.7479  135.7574  161.9161 H   0  0  0  0  0  0  0  0  0  0  0  0
  131.3469  137.4418  160.5862 C   0  0  0  0  0  0  0  0  0  0  0  0
  132.4180  138.4546  160.9303 C   0  0  0  0  0  0  0  0  0  0  0  0
  132.3250  139.8183  161.1538 C   0  0  0  0  0  0  0  0  0  0  0  0
  133.4547  140.5515  161.4581 C   0  0  0  0  0  0  0  0  0  0  0  0
  134.6843  139.9228  161.5401 C   0  0  0  0  0  0  0  0  0  0  0  0
  136.2337  140.9239  161.9562 Br  0  0  0  0  0  0  0  0  0  0  0  0
  134.7789  138.5623  161.3170 C   0  0  0  0  0  0  0  0  0  0  0  0
  133.6463  137.8259  161.0120 C   0  0  0  0  0  0  0  0  0  0  0  0
  133.4857  136.3438  160.7320 C   0  0  0  0  0  0  0  0  0  0  0  0
  127.1319  135.7274  161.6372 C   0  0  0  0  0  0  0  0  0  0  0  0
  125.7669  135.2267  161.7397 N   0  0  0  0  0  0  0  0  0  0  0  0
  126.0986  133.0674  159.5540 H   0  0  0  0  0  0  0  0  0  0  0  0
  126.1092  132.0496  161.0132 H   0  0  0  0  0  0  0  0  0  0  0  0
  128.4048  132.8612  160.2305 H   0  0  0  0  0  0  0  0  0  0  0  0
  128.0052  133.2379  161.9259 H   0  0  0  0  0  0  0  0  0  0  0  0
  127.5311  135.1559  159.5960 H   0  0  0  0  0  0  0  0  0  0  0  0
  128.8735  133.8222  158.5968 H   0  0  0  0  0  0  0  0  0  0  0  0
  131.3458  132.9239  157.7394 H   0  0  0  0  0  0  0  0  0  0  0  0
  129.1209  131.1216  159.0187 H   0  0  0  0  0  0  0  0  0  0  0  0
  130.4673  130.5494  157.8959 H   0  0  0  0  0  0  0  0  0  0  0  0
  132.2014  131.3727  159.5549 H   0  0  0  0  0  0  0  0  0  0  0  0
  130.8557  131.9453  160.6783 H   0  0  0  0  0  0  0  0  0  0  0  0
  132.1636  134.6301  159.3443 H   0  0  0  0  0  0  0  0  0  0  0  0
  131.0878  137.5095  159.5297 H   0  0  0  0  0  0  0  0  0  0  0  0
  130.4632  137.6011  161.2041 H   0  0  0  0  0  0  0  0  0  0  0  0
  131.3654  140.3097  161.0901 H   0  0  0  0  0  0  0  0  0  0  0  0
  133.3786  141.6147  161.6325 H   0  0  0  0  0  0  0  0  0  0  0  0
  135.7389  138.0716  161.3813 H   0  0  0  0  0  0  0  0  0  0  0  0
  134.0584  135.7557  161.4492 H   0  0  0  0  0  0  0  0  0  0  0  0
  133.8038  136.1153  159.7148 H   0  0  0  0  0  0  0  0  0  0  0  0
  127.6242  135.6325  162.6051 H   0  0  0  0  0  0  0  0  0  0  0  0
  127.1094  136.7785  161.3495 H   0  0  0  0  0  0  0  0  0  0  0  0
  125.1002  135.8038  162.1436 H   0  0  0  0  0  0  0  0  0  0  0  0
  1  2  2  0
  2 26  1  0
  2  3  1  0
  3  4  1  0
  3 27  1  0
  3 28  1  0
  4  5  1  0
  4 29  1  0
  4 30  1  0
  5  6  1  0
  5 25  1  0
  5 31  1  6
  6  7  1  0
  8  6  2  0
  8  9  1  0
  8 13  1  0
  9 10  1  0
  9 32  1  0
 10 12  1  0
 10 11  1  0
 10 33  1  0
 11 12  1  0
 11 34  1  0
 11 35  1  0
 12 36  1  0
 12 37  1  0
 13 14  1  0
 13 38  1  0
 14 15  1  1
 14 24  1  0
 14 16  1  0
 16 17  1  0
 16 39  1  0
 16 40  1  0
 17 23  2  0
 17 18  1  0
 18 19  2  0
 18 41  1  0
 19 20  1  0
 19 42  1  0
 20 21  1  0
 20 22  2  0
 22 23  1  0
 22 43  1  0
 23 24  1  0
 24 44  1  0
 24 45  1  0
 25 26  1  0
 25 46  1  0
 25 47  1  0
 26 48  1  0
M  CHG  1   6   1
M  END
>  <DOCK_score>  (1) 
-42.137436

>  <SMILES>  (1) 
O=C1CCC([NH+]=C(NC2CC2)N[C@@H]2Cc3ccc(Br)cc3C2)CN1

$$$$
