CC1=CCc2[nH]c3cc(Nc4[nH]cc(-c5ccncc5)[nH+]4)c(Sc4ccccc4)cc3c2C1
     RDKit          3D

 57 62  0  0  1  0  0  0  0  0999 V2000
  128.2454  141.0049  167.6848 C   0  0  0  0  0  0  0  0  0  0  0  0
  127.8318  140.1553  166.5108 C   0  0  0  0  0  0  0  0  0  0  0  0
  126.6078  140.2474  166.1060 C   0  0  0  0  0  0  0  0  0  0  0  0
  126.0185  139.4814  164.9584 C   0  0  0  0  0  0  0  0  0  0  0  0
  127.1228  138.8816  164.1242 C   0  0  0  0  0  0  0  0  0  0  0  0
  127.0220  138.3622  162.8646 N   0  0  0  0  0  0  0  0  0  0  0  0
  126.2048  138.3173  162.3440 H   0  0  0  0  0  0  0  0  0  0  0  0
  128.2567  137.9113  162.4424 C   0  0  0  0  0  0  0  0  0  0  0  0
  128.6991  137.3111  161.2681 C   0  0  0  0  0  0  0  0  0  0  0  0
  130.0282  136.9598  161.1292 C   0  0  0  0  0  0  0  0  0  0  0  0
  130.4670  136.3501  159.9473 N   0  0  0  0  0  0  0  0  0  0  0  0
  129.9226  135.1411  159.5485 C   0  0  0  0  0  0  0  0  0  0  0  0
  130.2667  134.4472  158.4285 N   0  0  0  0  0  0  0  0  0  0  0  0
  130.9310  134.7092  157.7720 H   0  0  0  0  0  0  0  0  0  0  0  0
  129.5004  133.3098  158.3993 C   0  0  0  0  0  0  0  0  0  0  0  0
  128.7089  133.3392  159.5013 C   0  0  0  0  0  0  0  0  0  0  0  0
  127.7134  132.3115  159.8879 C   0  0  0  0  0  0  0  0  0  0  0  0
  126.9560  132.4483  161.0558 C   0  0  0  0  0  0  0  0  0  0  0  0
  126.0366  131.4714  161.3752 C   0  0  0  0  0  0  0  0  0  0  0  0
  125.8752  130.4143  160.6016 N   0  0  0  0  0  0  0  0  0  0  0  0
  126.5730  130.2442  159.4947 C   0  0  0  0  0  0  0  0  0  0  0  0
  127.5095  131.1756  159.0979 C   0  0  0  0  0  0  0  0  0  0  0  0
  128.9950  134.4729  160.1896 N   0  0  0  0  0  0  0  0  0  0  0  0
  128.5782  134.7462  161.0218 H   0  0  0  0  0  0  0  0  0  0  0  0
  130.9380  137.2044  162.1654 C   0  0  0  0  0  0  0  0  0  0  0  0
  132.6298  136.7504  161.9743 S   0  0  0  0  0  0  0  0  0  0  0  0
  133.3505  138.1948  161.2677 C   0  0  0  0  0  0  0  0  0  0  0  0
  133.8725  139.1863  162.0898 C   0  0  0  0  0  0  0  0  0  0  0  0
  134.4416  140.3140  161.5324 C   0  0  0  0  0  0  0  0  0  0  0  0
  134.4826  140.4628  160.1580 C   0  0  0  0  0  0  0  0  0  0  0  0
  133.9586  139.4811  159.3368 C   0  0  0  0  0  0  0  0  0  0  0  0
  133.3929  138.3478  159.8871 C   0  0  0  0  0  0  0  0  0  0  0  0
  130.5134  137.8002  163.3358 C   0  0  0  0  0  0  0  0  0  0  0  0
  129.1701  138.1588  163.4848 C   0  0  0  0  0  0  0  0  0  0  0  0
  128.3975  138.7868  164.5513 C   0  0  0  0  0  0  0  0  0  0  0  0
  128.8716  139.2628  165.8965 C   0  0  0  0  0  0  0  0  0  0  0  0
  128.6146  141.9656  167.3260 H   0  0  0  0  0  0  0  0  0  0  0  0
  127.3870  141.1662  168.3369 H   0  0  0  0  0  0  0  0  0  0  0  0
  129.0336  140.4974  168.2409 H   0  0  0  0  0  0  0  0  0  0  0  0
  125.9584  140.9290  166.6354 H   0  0  0  0  0  0  0  0  0  0  0  0
  125.4228  140.1541  164.3415 H   0  0  0  0  0  0  0  0  0  0  0  0
  125.3817  138.6849  165.3434 H   0  0  0  0  0  0  0  0  0  0  0  0
  128.0033  137.1191  160.4647 H   0  0  0  0  0  0  0  0  0  0  0  0
  131.1524  136.7749  159.4081 H   0  0  0  0  0  0  0  0  0  0  0  0
  129.5222  132.5388  157.6433 H   0  0  0  0  0  0  0  0  0  0  0  0
  127.0866  133.3084  161.6959 H   0  0  0  0  0  0  0  0  0  0  0  0
  125.4441  131.5705  162.2726 H   0  0  0  0  0  0  0  0  0  0  0  0
  126.4088  129.3636  158.8913 H   0  0  0  0  0  0  0  0  0  0  0  0
  128.0768  131.0301  158.1905 H   0  0  0  0  0  0  0  0  0  0  0  0
  133.8371  139.0728  163.1633 H   0  0  0  0  0  0  0  0  0  0  0  0
  134.8515  141.0830  162.1706 H   0  0  0  0  0  0  0  0  0  0  0  0
  134.9247  141.3479  159.7249 H   0  0  0  0  0  0  0  0  0  0  0  0
  133.9920  139.6007  158.2641 H   0  0  0  0  0  0  0  0  0  0  0  0
  132.9839  137.5816  159.2453 H   0  0  0  0  0  0  0  0  0  0  0  0
  131.2160  137.9881  164.1340 H   0  0  0  0  0  0  0  0  0  0  0  0
  129.0422  138.4041  166.5459 H   0  0  0  0  0  0  0  0  0  0  0  0
  129.8018  139.8184  165.7777 H   0  0  0  0  0  0  0  0  0  0  0  0
  1  2  1  0
  1 37  1  0
  1 38  1  0
  1 39  1  0
  2 36  1  0
  2  3  2  0
  3  4  1  0
  3 40  1  0
  4  5  1  0
  4 41  1  0
  4 42  1  0
  5 35  2  0
  5  6  1  0
  6  7  1  0
  6  8  1  0
  8 34  2  0
  8  9  1  0
  9 10  2  0
  9 43  1  0
 10 11  1  0
 10 25  1  0
 11 44  1  0
 12 11  1  0
 12 23  2  0
 12 13  1  0
 13 14  1  0
 13 15  1  0
 15 16  2  0
 15 45  1  0
 16 17  1  0
 16 23  1  0
 17 22  1  0
 17 18  2  0
 18 19  1  0
 18 46  1  0
 19 20  2  0
 19 47  1  0
 20 21  1  0
 21 22  2  0
 21 48  1  0
 22 49  1  0
 23 24  1  0
 25 26  1  0
 25 33  2  0
 26 27  1  0
 27 32  1  0
 27 28  2  0
 28 29  1  0
 28 50  1  0
 29 30  2  0
 29 51  1  0
 30 31  1  0
 30 52  1  0
 31 32  2  0
 31 53  1  0
 32 54  1  0
 33 34  1  0
 33 55  1  0
 34 35  1  0
 35 36  1  0
 36 56  1  0
 36 57  1  0
M  CHG  1  23   1
M  END
>  <DOCK_score>  (1) 
-46.912827

>  <SMILES>  (1) 
CC1=CCc2[nH]c3cc(Nc4[nH]cc(-c5ccncc5)[nH+]4)c(Sc4ccccc4)cc3c2C1

$$$$
