Nc1ccc(-c2c[nH]c(N[C@H](CO)c3ccc(-c4ccccc4)cc3)[nH+]2)cc1
     RDKit          3D

 51 54  0  0  1  0  0  0  0  0999 V2000
  131.6540  129.4628  151.4347 N   0  0  0  0  0  0  0  0  0  0  0  0
  131.2828  130.1579  152.5882 C   0  0  0  0  0  0  0  0  0  0  0  0
  130.5065  131.3069  152.4856 C   0  0  0  0  0  0  0  0  0  0  0  0
  130.1391  131.9953  153.6224 C   0  0  0  0  0  0  0  0  0  0  0  0
  130.5463  131.5385  154.8749 C   0  0  0  0  0  0  0  0  0  0  0  0
  130.1527  132.2778  156.0994 C   0  0  0  0  0  0  0  0  0  0  0  0
  129.4175  131.7856  157.1269 C   0  0  0  0  0  0  0  0  0  0  0  0
  129.2888  132.7993  158.0465 N   0  0  0  0  0  0  0  0  0  0  0  0
  128.8145  132.7521  158.8913 H   0  0  0  0  0  0  0  0  0  0  0  0
  129.9498  133.8814  157.5526 C   0  0  0  0  0  0  0  0  0  0  0  0
  130.0604  135.1125  158.1761 N   0  0  0  0  0  0  0  0  0  0  0  0
  128.9939  135.5825  159.0638 C   0  0  2  0  0  0  0  0  0  0  0  0
  128.6266  134.7495  159.6631 H   0  0  0  0  0  0  0  0  0  0  0  0
  127.8475  136.1526  158.2260 C   0  0  0  0  0  0  0  0  0  0  0  0
  127.3357  135.1346  157.3638 O   0  0  0  0  0  0  0  0  0  0  0  0
  129.5339  136.6561  159.9730 C   0  0  0  0  0  0  0  0  0  0  0  0
  130.0575  137.8170  159.4334 C   0  0  0  0  0  0  0  0  0  0  0  0
  130.5490  138.8057  160.2618 C   0  0  0  0  0  0  0  0  0  0  0  0
  130.5266  138.6279  161.6436 C   0  0  0  0  0  0  0  0  0  0  0  0
  131.0591  139.6847  162.5390 C   0  0  0  0  0  0  0  0  0  0  0  0
  131.6137  139.3434  163.7707 C   0  0  0  0  0  0  0  0  0  0  0  0
  132.1120  140.3299  164.5975 C   0  0  0  0  0  0  0  0  0  0  0  0
  132.0518  141.6564  164.2098 C   0  0  0  0  0  0  0  0  0  0  0  0
  131.4974  142.0013  162.9904 C   0  0  0  0  0  0  0  0  0  0  0  0
  131.0010  141.0224  162.1535 C   0  0  0  0  0  0  0  0  0  0  0  0
  130.0027  137.4543  162.1815 C   0  0  0  0  0  0  0  0  0  0  0  0
  129.5092  136.4745  161.3441 C   0  0  0  0  0  0  0  0  0  0  0  0
  130.4598  133.5676  156.3866 N   0  0  0  0  0  0  0  0  0  0  0  0
  130.9762  134.1621  155.8202 H   0  0  0  0  0  0  0  0  0  0  0  0
  131.3288  130.3891  154.9747 C   0  0  0  0  0  0  0  0  0  0  0  0
  131.6894  129.7009  153.8355 C   0  0  0  0  0  0  0  0  0  0  0  0
  131.3702  129.7813  150.5635 H   0  0  0  0  0  0  0  0  0  0  0  0
  132.1957  128.6611  151.5052 H   0  0  0  0  0  0  0  0  0  0  0  0
  130.1912  131.6604  151.5151 H   0  0  0  0  0  0  0  0  0  0  0  0
  129.5359  132.8876  153.5426 H   0  0  0  0  0  0  0  0  0  0  0  0
  129.0106  130.7885  157.2072 H   0  0  0  0  0  0  0  0  0  0  0  0
  130.8441  135.6639  158.0253 H   0  0  0  0  0  0  0  0  0  0  0  0
  127.0540  136.5024  158.8864 H   0  0  0  0  0  0  0  0  0  0  0  0
  128.2149  136.9855  157.6266 H   0  0  0  0  0  0  0  0  0  0  0  0
  127.9889  134.7763  156.7472 H   0  0  0  0  0  0  0  0  0  0  0  0
  130.0780  137.9520  158.3620 H   0  0  0  0  0  0  0  0  0  0  0  0
  130.9541  139.7133  159.8395 H   0  0  0  0  0  0  0  0  0  0  0  0
  131.6577  138.3084  164.0762 H   0  0  0  0  0  0  0  0  0  0  0  0
  132.5458  140.0661  165.5507 H   0  0  0  0  0  0  0  0  0  0  0  0
  132.4387  142.4254  164.8619 H   0  0  0  0  0  0  0  0  0  0  0  0
  131.4527  143.0385  162.6928 H   0  0  0  0  0  0  0  0  0  0  0  0
  130.5682  141.2929  161.2018 H   0  0  0  0  0  0  0  0  0  0  0  0
  129.9834  137.3112  163.2518 H   0  0  0  0  0  0  0  0  0  0  0  0
  129.1026  135.5645  161.7600 H   0  0  0  0  0  0  0  0  0  0  0  0
  131.6489  130.0356  155.9437 H   0  0  0  0  0  0  0  0  0  0  0  0
  132.2922  128.8079  153.9126 H   0  0  0  0  0  0  0  0  0  0  0  0
  1  2  1  0
  1 32  1  0
  1 33  1  0
  2 31  2  0
  2  3  1  0
  3  4  2  0
  3 34  1  0
  4  5  1  0
  4 35  1  0
  5  6  1  0
  5 30  2  0
  6 28  1  0
  6  7  2  0
  7  8  1  0
  7 36  1  0
  8  9  1  0
  8 10  1  0
 10 11  1  0
 10 28  2  0
 11 12  1  0
 11 37  1  0
 12 13  1  1
 12 14  1  0
 12 16  1  0
 14 15  1  0
 14 38  1  0
 14 39  1  0
 15 40  1  0
 16 27  1  0
 16 17  2  0
 17 18  1  0
 17 41  1  0
 18 19  2  0
 18 42  1  0
 19 20  1  0
 19 26  1  0
 20 25  1  0
 20 21  2  0
 21 22  1  0
 21 43  1  0
 22 23  2  0
 22 44  1  0
 23 24  1  0
 23 45  1  0
 24 25  2  0
 24 46  1  0
 25 47  1  0
 26 27  2  0
 26 48  1  0
 27 49  1  0
 28 29  1  0
 30 31  1  0
 30 50  1  0
 31 51  1  0
M  CHG  1  28   1
M  END
>  <DOCK_score>  (1) 
-57.973137

>  <SMILES>  (1) 
Nc1ccc(-c2c[nH]c(N[C@H](CO)c3ccc(-c4ccccc4)cc3)[nH+]2)cc1

$$$$
