C[C@@H]([NH2+]Cc1c[nH]nc1-c1ccc(NCCC2=CCCC2)o1)c1cc2ccccc2[nH]1
     RDKit          3D

 61 65  0  0  1  0  0  0  0  0999 V2000
  130.4663  139.3441  159.9403 C   0  0  0  0  0  0  0  0  0  0  0  0
  131.1801  138.1854  160.6395 C   0  0  1  0  0  0  0  0  0  0  0  0
  130.7454  138.0340  161.6274 H   0  0  0  0  0  0  0  0  0  0  0  0
  131.0234  136.9614  159.8426 N   0  0  0  0  0  0  0  0  0  0  0  0
  131.6860  136.9682  159.0817 H   0  0  0  0  0  0  0  0  0  0  0  0
  130.0858  136.9192  159.4718 H   0  0  0  0  0  0  0  0  0  0  0  0
  131.2665  135.7888  160.6935 C   0  0  0  0  0  0  0  0  0  0  0  0
  131.1056  134.5330  159.8758 C   0  0  0  0  0  0  0  0  0  0  0  0
  132.0809  133.9013  159.1883 C   0  0  0  0  0  0  0  0  0  0  0  0
  131.5362  132.8224  158.5854 N   0  0  0  0  0  0  0  0  0  0  0  0
  132.0062  132.1878  158.0221 H   0  0  0  0  0  0  0  0  0  0  0  0
  130.1753  132.7787  158.9135 N   0  0  0  0  0  0  0  0  0  0  0  0
  129.9095  133.8069  159.6950 C   0  0  0  0  0  0  0  0  0  0  0  0
  128.5920  134.1425  160.2733 C   0  0  0  0  0  0  0  0  0  0  0  0
  127.4425  133.4394  160.0965 C   0  0  0  0  0  0  0  0  0  0  0  0
  126.4391  134.1074  160.8260 C   0  0  0  0  0  0  0  0  0  0  0  0
  127.0225  135.1868  161.4041 C   0  0  0  0  0  0  0  0  0  0  0  0
  126.3834  136.1194  162.2128 N   0  0  0  0  0  0  0  0  0  0  0  0
  127.1674  136.9656  163.1158 C   0  0  0  0  0  0  0  0  0  0  0  0
  126.2287  137.8967  163.8859 C   0  0  0  0  0  0  0  0  0  0  0  0
  127.0354  138.7671  164.8147 C   0  0  0  0  0  0  0  0  0  0  0  0
  126.8951  138.7908  166.1123 C   0  0  0  0  0  0  0  0  0  0  0  0
  127.8518  139.7743  166.7451 C   0  0  0  0  0  0  0  0  0  0  0  0
  128.9119  140.0484  165.6508 C   0  0  0  0  0  0  0  0  0  0  0  0
  128.1131  139.7266  164.3665 C   0  0  0  0  0  0  0  0  0  0  0  0
  128.3237  135.1998  161.0682 O   0  0  0  0  0  0  0  0  0  0  0  0
  132.6452  138.5094  160.7796 C   0  0  0  0  0  0  0  0  0  0  0  0
  133.3072  138.5965  161.9442 C   0  0  0  0  0  0  0  0  0  0  0  0
  134.6981  138.9249  161.6226 C   0  0  0  0  0  0  0  0  0  0  0  0
  135.8463  139.1401  162.3875 C   0  0  0  0  0  0  0  0  0  0  0  0
  137.0259  139.4449  161.7691 C   0  0  0  0  0  0  0  0  0  0  0  0
  137.0925  139.5418  160.3858 C   0  0  0  0  0  0  0  0  0  0  0  0
  135.9721  139.3331  159.6122 C   0  0  0  0  0  0  0  0  0  0  0  0
  134.7603  139.0220  160.2206 C   0  0  0  0  0  0  0  0  0  0  0  0
  133.4966  138.7639  159.7391 N   0  0  0  0  0  0  0  0  0  0  0  0
  133.2468  138.7626  158.8018 H   0  0  0  0  0  0  0  0  0  0  0  0
  130.9009  139.4957  158.9522 H   0  0  0  0  0  0  0  0  0  0  0  0
  129.4065  139.1098  159.8389 H   0  0  0  0  0  0  0  0  0  0  0  0
  130.5826  140.2524  160.5315 H   0  0  0  0  0  0  0  0  0  0  0  0
  130.5506  135.7815  161.5154 H   0  0  0  0  0  0  0  0  0  0  0  0
  132.2791  135.8343  161.0940 H   0  0  0  0  0  0  0  0  0  0  0  0
  133.1149  134.2074  159.1278 H   0  0  0  0  0  0  0  0  0  0  0  0
  127.3221  132.5389  159.5126 H   0  0  0  0  0  0  0  0  0  0  0  0
  125.4024  133.8163  160.9079 H   0  0  0  0  0  0  0  0  0  0  0  0
  125.4182  136.2100  162.1792 H   0  0  0  0  0  0  0  0  0  0  0  0
  127.8732  137.5600  162.5356 H   0  0  0  0  0  0  0  0  0  0  0  0
  127.7137  136.3374  163.8194 H   0  0  0  0  0  0  0  0  0  0  0  0
  125.5231  137.3022  164.4661 H   0  0  0  0  0  0  0  0  0  0  0  0
  125.6823  138.5247  163.1823 H   0  0  0  0  0  0  0  0  0  0  0  0
  126.1852  138.1897  166.6611 H   0  0  0  0  0  0  0  0  0  0  0  0
  127.3303  140.6939  167.0110 H   0  0  0  0  0  0  0  0  0  0  0  0
  128.3212  139.3350  167.6252 H   0  0  0  0  0  0  0  0  0  0  0  0
  129.7689  139.3832  165.7556 H   0  0  0  0  0  0  0  0  0  0  0  0
  129.2248  141.0925  165.6655 H   0  0  0  0  0  0  0  0  0  0  0  0
  128.7587  139.2536  163.6264 H   0  0  0  0  0  0  0  0  0  0  0  0
  127.6679  140.6340  163.9588 H   0  0  0  0  0  0  0  0  0  0  0  0
  132.8933  138.4503  162.9310 H   0  0  0  0  0  0  0  0  0  0  0  0
  135.8019  139.0660  163.4640 H   0  0  0  0  0  0  0  0  0  0  0  0
  137.9137  139.6115  162.3613 H   0  0  0  0  0  0  0  0  0  0  0  0
  138.0324  139.7829  159.9116 H   0  0  0  0  0  0  0  0  0  0  0  0
  136.0342  139.4103  158.5366 H   0  0  0  0  0  0  0  0  0  0  0  0
  1  2  1  0
  1 37  1  0
  1 38  1  0
  1 39  1  0
  2  3  1  1
  2  4  1  0
  2 27  1  0
  4  5  1  0
  4  6  1  0
  4  7  1  0
  7  8  1  0
  7 40  1  0
  7 41  1  0
  8 13  1  0
  8  9  2  0
  9 10  1  0
  9 42  1  0
 10 11  1  0
 10 12  1  0
 12 13  2  0
 13 14  1  0
 14 26  1  0
 14 15  2  0
 15 16  1  0
 15 43  1  0
 16 17  2  0
 16 44  1  0
 17 18  1  0
 17 26  1  0
 18 19  1  0
 18 45  1  0
 19 20  1  0
 19 46  1  0
 19 47  1  0
 20 21  1  0
 20 48  1  0
 20 49  1  0
 21 25  1  0
 21 22  2  0
 22 23  1  0
 22 50  1  0
 23 24  1  0
 23 51  1  0
 23 52  1  0
 24 25  1  0
 24 53  1  0
 24 54  1  0
 25 55  1  0
 25 56  1  0
 27 35  1  0
 27 28  2  0
 28 29  1  0
 28 57  1  0
 29 34  2  0
 29 30  1  0
 30 31  2  0
 30 58  1  0
 31 32  1  0
 31 59  1  0
 32 33  2  0
 32 60  1  0
 33 34  1  0
 33 61  1  0
 34 35  1  0
 35 36  1  0
M  CHG  1   4   1
M  END
>  <DOCK_score>  (1) 
-52.578022

>  <SMILES>  (1) 
C[C@@H]([NH2+]Cc1c[nH]nc1-c1ccc(NCCC2=CCCC2)o1)c1cc2ccccc2[nH]1

$$$$
