CC(Nc1[nH]cc(-c2ccc(N)cc2)[nH+]1)[C@H](C)Cc1ccccc1
     RDKit          3D

 49 51  0  0  1  0  0  0  0  0999 V2000
  128.5292  136.2198  160.0759 C   0  0  0  0  0  0  0  0  0  0  0  0
  129.9201  135.5952  160.2012 C   0  0  1  0  0  0  0  0  0  0  0  0
  130.4598  135.3325  158.8647 N   0  0  0  0  0  0  0  0  0  0  0  0
  130.2224  134.1153  158.2493 C   0  0  0  0  0  0  0  0  0  0  0  0
  129.5114  133.0838  158.7806 N   0  0  0  0  0  0  0  0  0  0  0  0
  129.0834  133.0690  159.6510 H   0  0  0  0  0  0  0  0  0  0  0  0
  129.5086  132.0680  157.8542 C   0  0  0  0  0  0  0  0  0  0  0  0
  130.2252  132.5050  156.7894 C   0  0  0  0  0  0  0  0  0  0  0  0
  130.4961  131.7412  155.5467 C   0  0  0  0  0  0  0  0  0  0  0  0
  130.0612  132.2322  154.3167 C   0  0  0  0  0  0  0  0  0  0  0  0
  130.3191  131.5235  153.1624 C   0  0  0  0  0  0  0  0  0  0  0  0
  131.0020  130.3151  153.2256 C   0  0  0  0  0  0  0  0  0  0  0  0
  131.2564  129.5950  152.0558 N   0  0  0  0  0  0  0  0  0  0  0  0
  131.4317  129.8204  154.4517 C   0  0  0  0  0  0  0  0  0  0  0  0
  131.1809  130.5286  155.6080 C   0  0  0  0  0  0  0  0  0  0  0  0
  130.6501  133.7643  157.0611 N   0  0  0  0  0  0  0  0  0  0  0  0
  131.1855  134.3168  156.4702 H   0  0  0  0  0  0  0  0  0  0  0  0
  130.8470  136.5588  160.9451 C   0  0  2  0  0  0  0  0  0  0  0  0
  131.8846  136.3007  160.7339 H   0  0  0  0  0  0  0  0  0  0  0  0
  130.5911  136.4529  162.4498 C   0  0  0  0  0  0  0  0  0  0  0  0
  130.5728  137.9906  160.4807 C   0  0  0  0  0  0  0  0  0  0  0  0
  131.7583  138.8610  160.8098 C   0  0  0  0  0  0  0  0  0  0  0  0
  131.8201  139.5132  162.0271 C   0  0  0  0  0  0  0  0  0  0  0  0
  132.9075  140.3115  162.3290 C   0  0  0  0  0  0  0  0  0  0  0  0
  133.9331  140.4575  161.4137 C   0  0  0  0  0  0  0  0  0  0  0  0
  133.8688  139.8096  160.1943 C   0  0  0  0  0  0  0  0  0  0  0  0
  132.7841  139.0067  159.8947 C   0  0  0  0  0  0  0  0  0  0  0  0
  128.6000  137.1561  159.5222 H   0  0  0  0  0  0  0  0  0  0  0  0
  127.8689  135.5334  159.5459 H   0  0  0  0  0  0  0  0  0  0  0  0
  128.1277  136.4153  161.0703 H   0  0  0  0  0  0  0  0  0  0  0  0
  129.8494  134.6588  160.7549 H   0  0  0  0  0  0  0  0  0  0  0  0
  130.9834  136.0113  158.4111 H   0  0  0  0  0  0  0  0  0  0  0  0
  129.0316  131.1045  157.9573 H   0  0  0  0  0  0  0  0  0  0  0  0
  129.5262  133.1692  154.2674 H   0  0  0  0  0  0  0  0  0  0  0  0
  129.9862  131.9057  152.2087 H   0  0  0  0  0  0  0  0  0  0  0  0
  131.7331  128.7513  152.0993 H   0  0  0  0  0  0  0  0  0  0  0  0
  130.9567  129.9392  151.1999 H   0  0  0  0  0  0  0  0  0  0  0  0
  131.9623  128.8808  154.4987 H   0  0  0  0  0  0  0  0  0  0  0  0
  131.5152  130.1442  156.5603 H   0  0  0  0  0  0  0  0  0  0  0  0
  130.7863  135.4328  162.7808 H   0  0  0  0  0  0  0  0  0  0  0  0
  131.2513  137.1394  162.9798 H   0  0  0  0  0  0  0  0  0  0  0  0
  129.5533  136.7110  162.6610 H   0  0  0  0  0  0  0  0  0  0  0  0
  129.6882  138.3743  160.9889 H   0  0  0  0  0  0  0  0  0  0  0  0
  130.4048  137.9974  159.4037 H   0  0  0  0  0  0  0  0  0  0  0  0
  131.0187  139.3993  162.7420 H   0  0  0  0  0  0  0  0  0  0  0  0
  132.9557  140.8214  163.2798 H   0  0  0  0  0  0  0  0  0  0  0  0
  134.7826  141.0815  161.6495 H   0  0  0  0  0  0  0  0  0  0  0  0
  134.6679  139.9272  159.4774 H   0  0  0  0  0  0  0  0  0  0  0  0
  132.7360  138.4968  158.9438 H   0  0  0  0  0  0  0  0  0  0  0  0
  1  2  1  0
  1 28  1  0
  1 29  1  0
  1 30  1  0
  2  3  1  0
  2 18  1  0
  2 31  1  1
  3 32  1  0
  4  3  1  0
  4 16  2  0
  4  5  1  0
  5  6  1  0
  5  7  1  0
  7  8  2  0
  7 33  1  0
  8  9  1  0
  8 16  1  0
  9 15  1  0
  9 10  2  0
 10 11  1  0
 10 34  1  0
 11 12  2  0
 11 35  1  0
 12 13  1  0
 12 14  1  0
 13 36  1  0
 13 37  1  0
 14 15  2  0
 14 38  1  0
 15 39  1  0
 16 17  1  0
 18 19  1  1
 18 20  1  0
 18 21  1  0
 20 40  1  0
 20 41  1  0
 20 42  1  0
 21 22  1  0
 21 43  1  0
 21 44  1  0
 22 27  1  0
 22 23  2  0
 23 24  1  0
 23 45  1  0
 24 25  2  0
 24 46  1  0
 25 26  1  0
 25 47  1  0
 26 27  2  0
 26 48  1  0
 27 49  1  0
M  CHG  1  16   1
M  END
>  <DOCK_score>  (1) 
-56.42458

>  <SMILES>  (1) 
CC(Nc1[nH]cc(-c2ccc(N)cc2)[nH+]1)[C@H](C)Cc1ccccc1

$$$$
