CC[C@H](Nc1[nH]cc(-c2ccc(-c3ccccc3)cc2)[nH+]1)c1ccccc1
     RDKit          3D

 51 54  0  0  1  0  0  0  0  0999 V2000
  131.2412  138.3467  160.9029 C   0  0  0  0  0  0  0  0  0  0  0  0
  132.0599  137.2938  161.6525 C   0  0  0  0  0  0  0  0  0  0  0  0
  131.5477  135.8978  161.2920 C   0  0  2  0  0  0  0  0  0  0  0  0
  132.1309  135.1478  161.8260 H   0  0  0  0  0  0  0  0  0  0  0  0
  131.6835  135.6856  159.8489 N   0  0  0  0  0  0  0  0  0  0  0  0
  131.2827  134.4865  159.2849 C   0  0  0  0  0  0  0  0  0  0  0  0
  130.7447  133.4340  159.9595 N   0  0  0  0  0  0  0  0  0  0  0  0
  130.5749  133.3894  160.9134 H   0  0  0  0  0  0  0  0  0  0  0  0
  130.4866  132.4466  159.0403 C   0  0  0  0  0  0  0  0  0  0  0  0
  130.8742  132.9236  157.8309 C   0  0  0  0  0  0  0  0  0  0  0  0
  130.7851  132.2021  156.5389 C   0  0  0  0  0  0  0  0  0  0  0  0
  130.0203  132.7280  155.4976 C   0  0  0  0  0  0  0  0  0  0  0  0
  129.9412  132.0596  154.2959 C   0  0  0  0  0  0  0  0  0  0  0  0
  130.6171  130.8527  154.1232 C   0  0  0  0  0  0  0  0  0  0  0  0
  130.5270  130.1295  152.8316 C   0  0  0  0  0  0  0  0  0  0  0  0
  130.6284  128.7397  152.7989 C   0  0  0  0  0  0  0  0  0  0  0  0
  130.5393  128.0723  151.5941 C   0  0  0  0  0  0  0  0  0  0  0  0
  130.3598  128.7806  150.4196 C   0  0  0  0  0  0  0  0  0  0  0  0
  130.2634  130.1604  150.4456 C   0  0  0  0  0  0  0  0  0  0  0  0
  130.3464  130.8381  151.6450 C   0  0  0  0  0  0  0  0  0  0  0  0
  131.3782  130.3237  155.1662 C   0  0  0  0  0  0  0  0  0  0  0  0
  131.4613  130.9943  156.3665 C   0  0  0  0  0  0  0  0  0  0  0  0
  131.3539  134.1799  158.0126 N   0  0  0  0  0  0  0  0  0  0  0  0
  131.6965  134.7579  157.3130 H   0  0  0  0  0  0  0  0  0  0  0  0
  130.0972  135.7786  161.6830 C   0  0  0  0  0  0  0  0  0  0  0  0
  129.7563  135.3230  162.9427 C   0  0  0  0  0  0  0  0  0  0  0  0
  128.4257  135.2132  163.3014 C   0  0  0  0  0  0  0  0  0  0  0  0
  127.4361  135.5575  162.3996 C   0  0  0  0  0  0  0  0  0  0  0  0
  127.7771  136.0118  161.1394 C   0  0  0  0  0  0  0  0  0  0  0  0
  129.1077  136.1221  160.7811 C   0  0  0  0  0  0  0  0  0  0  0  0
  130.1922  138.2604  161.1857 H   0  0  0  0  0  0  0  0  0  0  0  0
  131.6061  139.3413  161.1597 H   0  0  0  0  0  0  0  0  0  0  0  0
  131.3423  138.1888  159.8291 H   0  0  0  0  0  0  0  0  0  0  0  0
  131.9589  137.4518  162.7264 H   0  0  0  0  0  0  0  0  0  0  0  0
  133.1090  137.3802  161.3696 H   0  0  0  0  0  0  0  0  0  0  0  0
  132.0542  136.3852  159.2885 H   0  0  0  0  0  0  0  0  0  0  0  0
  130.0570  131.4764  159.2417 H   0  0  0  0  0  0  0  0  0  0  0  0
  129.4933  133.6609  155.6324 H   0  0  0  0  0  0  0  0  0  0  0  0
  129.3521  132.4686  153.4883 H   0  0  0  0  0  0  0  0  0  0  0  0
  130.7730  128.1860  153.7148 H   0  0  0  0  0  0  0  0  0  0  0  0
  130.6136  126.9952  151.5680 H   0  0  0  0  0  0  0  0  0  0  0  0
  130.2952  128.2545  149.4786 H   0  0  0  0  0  0  0  0  0  0  0  0
  130.1234  130.7083  149.5255 H   0  0  0  0  0  0  0  0  0  0  0  0
  130.2716  131.9153  151.6640 H   0  0  0  0  0  0  0  0  0  0  0  0
  131.9017  129.3888  155.0326 H   0  0  0  0  0  0  0  0  0  0  0  0
  132.0506  130.5852  157.1739 H   0  0  0  0  0  0  0  0  0  0  0  0
  130.5294  135.0543  163.6474 H   0  0  0  0  0  0  0  0  0  0  0  0
  128.1594  134.8624  164.2876 H   0  0  0  0  0  0  0  0  0  0  0  0
  126.3966  135.4713  162.6797 H   0  0  0  0  0  0  0  0  0  0  0  0
  127.0040  136.2801  160.4346 H   0  0  0  0  0  0  0  0  0  0  0  0
  129.3741  136.4764  159.7961 H   0  0  0  0  0  0  0  0  0  0  0  0
  1  2  1  0
  1 31  1  0
  1 32  1  0
  1 33  1  0
  2  3  1  0
  2 34  1  0
  2 35  1  0
  3  4  1  1
  3  5  1  0
  3 25  1  0
  5 36  1  0
  6  5  1  0
  6 23  2  0
  6  7  1  0
  7  8  1  0
  7  9  1  0
  9 10  2  0
  9 37  1  0
 10 11  1  0
 10 23  1  0
 11 22  1  0
 11 12  2  0
 12 13  1  0
 12 38  1  0
 13 14  2  0
 13 39  1  0
 14 15  1  0
 14 21  1  0
 15 20  1  0
 15 16  2  0
 16 17  1  0
 16 40  1  0
 17 18  2  0
 17 41  1  0
 18 19  1  0
 18 42  1  0
 19 20  2  0
 19 43  1  0
 20 44  1  0
 21 22  2  0
 21 45  1  0
 22 46  1  0
 23 24  1  0
 25 30  1  0
 25 26  2  0
 26 27  1  0
 26 47  1  0
 27 28  2  0
 27 48  1  0
 28 29  1  0
 28 49  1  0
 29 30  2  0
 29 50  1  0
 30 51  1  0
M  CHG  1  23   1
M  END
>  <DOCK_score>  (1) 
-56.976215

>  <SMILES>  (1) 
CC[C@H](Nc1[nH]cc(-c2ccc(-c3ccccc3)cc2)[nH+]1)c1ccccc1

$$$$
