OCCc1ccc(-c2c[nH]c(NC(c3ccccc3)c3ccccc3)[nH+]2)cc1
     RDKit          3D

 52 55  0  0  1  0  0  0  0  0999 V2000
  129.3413  129.0262  151.5502 O   0  0  0  0  0  0  0  0  0  0  0  0
  130.5984  128.3833  151.7703 C   0  0  0  0  0  0  0  0  0  0  0  0
  131.6562  129.4348  152.1137 C   0  0  0  0  0  0  0  0  0  0  0  0
  131.2442  130.1730  153.3612 C   0  0  0  0  0  0  0  0  0  0  0  0
  131.6390  129.7045  154.6013 C   0  0  0  0  0  0  0  0  0  0  0  0
  131.2645  130.3763  155.7471 C   0  0  0  0  0  0  0  0  0  0  0  0
  130.4868  131.5291  155.6531 C   0  0  0  0  0  0  0  0  0  0  0  0
  130.0812  132.2556  156.8810 C   0  0  0  0  0  0  0  0  0  0  0  0
  129.3419  131.7507  157.8996 C   0  0  0  0  0  0  0  0  0  0  0  0
  129.2060  132.7534  158.8286 N   0  0  0  0  0  0  0  0  0  0  0  0
  128.7300  132.6947  159.6719 H   0  0  0  0  0  0  0  0  0  0  0  0
  129.8600  133.8451  158.3466 C   0  0  0  0  0  0  0  0  0  0  0  0
  129.9602  135.0710  158.9821 N   0  0  0  0  0  0  0  0  0  0  0  0
  128.8882  135.5245  159.8717 C   0  0  0  0  0  0  0  0  0  0  0  0
  129.2394  136.8787  160.4318 C   0  0  0  0  0  0  0  0  0  0  0  0
  128.7793  137.2505  161.6812 C   0  0  0  0  0  0  0  0  0  0  0  0
  129.1053  138.4909  162.1969 C   0  0  0  0  0  0  0  0  0  0  0  0
  129.8830  139.3636  161.4591 C   0  0  0  0  0  0  0  0  0  0  0  0
  130.3389  138.9938  160.2075 C   0  0  0  0  0  0  0  0  0  0  0  0
  130.0173  137.7514  159.6940 C   0  0  0  0  0  0  0  0  0  0  0  0
  127.5992  135.6202  159.0970 C   0  0  0  0  0  0  0  0  0  0  0  0
  126.3916  135.4070  159.7354 C   0  0  0  0  0  0  0  0  0  0  0  0
  125.2089  135.4996  159.0257 C   0  0  0  0  0  0  0  0  0  0  0  0
  125.2343  135.7952  157.6756 C   0  0  0  0  0  0  0  0  0  0  0  0
  126.4421  136.0031  157.0362 C   0  0  0  0  0  0  0  0  0  0  0  0
  127.6245  135.9157  157.7468 C   0  0  0  0  0  0  0  0  0  0  0  0
  130.3844  133.5430  157.1841 N   0  0  0  0  0  0  0  0  0  0  0  0
  130.9057  134.1436  156.6289 H   0  0  0  0  0  0  0  0  0  0  0  0
  130.0868  131.9934  154.4014 C   0  0  0  0  0  0  0  0  0  0  0  0
  130.4716  131.3165  153.2619 C   0  0  0  0  0  0  0  0  0  0  0  0
  129.3493  129.6691  150.8279 H   0  0  0  0  0  0  0  0  0  0  0  0
  130.8964  127.8494  150.8681 H   0  0  0  0  0  0  0  0  0  0  0  0
  130.5059  127.6778  152.5961 H   0  0  0  0  0  0  0  0  0  0  0  0
  131.7481  130.1401  151.2879 H   0  0  0  0  0  0  0  0  0  0  0  0
  132.6145  128.9443  152.2816 H   0  0  0  0  0  0  0  0  0  0  0  0
  132.2417  128.8110  154.6729 H   0  0  0  0  0  0  0  0  0  0  0  0
  131.5739  130.0097  156.7147 H   0  0  0  0  0  0  0  0  0  0  0  0
  128.9399  130.7508  157.9687 H   0  0  0  0  0  0  0  0  0  0  0  0
  130.7382  135.6314  158.8352 H   0  0  0  0  0  0  0  0  0  0  0  0
  128.7688  134.8132  160.6890 H   0  0  0  0  0  0  0  0  0  0  0  0
  128.1678  136.5705  162.2558 H   0  0  0  0  0  0  0  0  0  0  0  0
  128.7488  138.7800  163.1747 H   0  0  0  0  0  0  0  0  0  0  0  0
  130.1342  140.3343  161.8601 H   0  0  0  0  0  0  0  0  0  0  0  0
  130.9462  139.6757  159.6309 H   0  0  0  0  0  0  0  0  0  0  0  0
  130.3731  137.4627  158.7159 H   0  0  0  0  0  0  0  0  0  0  0  0
  126.3721  135.1719  160.7892 H   0  0  0  0  0  0  0  0  0  0  0  0
  124.2655  135.3368  159.5252 H   0  0  0  0  0  0  0  0  0  0  0  0
  124.3106  135.8631  157.1202 H   0  0  0  0  0  0  0  0  0  0  0  0
  126.4619  136.2337  155.9813 H   0  0  0  0  0  0  0  0  0  0  0  0
  128.5681  136.0779  157.2472 H   0  0  0  0  0  0  0  0  0  0  0  0
  129.4802  132.8835  154.3229 H   0  0  0  0  0  0  0  0  0  0  0  0
  130.1657  131.6776  152.2911 H   0  0  0  0  0  0  0  0  0  0  0  0
  1  2  1  0
  1 31  1  0
  2  3  1  0
  2 32  1  0
  2 33  1  0
  3  4  1  0
  3 34  1  0
  3 35  1  0
  4 30  2  0
  4  5  1  0
  5  6  2  0
  5 36  1  0
  6  7  1  0
  6 37  1  0
  7  8  1  0
  7 29  2  0
  8 27  1  0
  8  9  2  0
  9 10  1  0
  9 38  1  0
 10 11  1  0
 10 12  1  0
 12 13  1  0
 12 27  2  0
 13 14  1  0
 13 39  1  0
 14 15  1  0
 14 21  1  0
 14 40  1  0
 15 20  1  0
 15 16  2  0
 16 17  1  0
 16 41  1  0
 17 18  2  0
 17 42  1  0
 18 19  1  0
 18 43  1  0
 19 20  2  0
 19 44  1  0
 20 45  1  0
 21 26  1  0
 21 22  2  0
 22 23  1  0
 22 46  1  0
 23 24  2  0
 23 47  1  0
 24 25  1  0
 24 48  1  0
 25 26  2  0
 25 49  1  0
 26 50  1  0
 27 28  1  0
 29 30  1  0
 29 51  1  0
 30 52  1  0
M  CHG  1  27   1
M  END
>  <DOCK_score>  (1) 
-61.414059

>  <SMILES>  (1) 
OCCc1ccc(-c2c[nH]c(NC(c3ccccc3)c3ccccc3)[nH+]2)cc1

$$$$
