Nc1ccc(-c2c[nH]c(N[C@@H](c3ccccc3)c3ccccc3Br)[nH+]2)cc1
     RDKit          3D

 47 50  0  0  1  0  0  0  0  0999 V2000
  130.9046  129.2690  150.8295 N   0  0  0  0  0  0  0  0  0  0  0  0
  130.8597  129.8459  152.1009 C   0  0  0  0  0  0  0  0  0  0  0  0
  130.1343  131.0133  152.3080 C   0  0  0  0  0  0  0  0  0  0  0  0
  130.0886  131.5844  153.5622 C   0  0  0  0  0  0  0  0  0  0  0  0
  130.7708  130.9903  154.6228 C   0  0  0  0  0  0  0  0  0  0  0  0
  130.7232  131.6029  155.9731 C   0  0  0  0  0  0  0  0  0  0  0  0
  130.2431  131.0178  157.0981 C   0  0  0  0  0  0  0  0  0  0  0  0
  130.3895  131.9306  158.1157 N   0  0  0  0  0  0  0  0  0  0  0  0
  130.1367  131.8025  159.0435 H   0  0  0  0  0  0  0  0  0  0  0  0
  130.9552  133.0467  157.5812 C   0  0  0  0  0  0  0  0  0  0  0  0
  131.2700  134.2027  158.2750 N   0  0  0  0  0  0  0  0  0  0  0  0
  130.9942  134.2930  159.7110 C   0  0  1  0  0  0  0  0  0  0  0  0
  131.2342  133.3426  160.1876 H   0  0  0  0  0  0  0  0  0  0  0  0
  131.8370  135.3856  160.3166 C   0  0  0  0  0  0  0  0  0  0  0  0
  133.0922  135.0935  160.8167 C   0  0  0  0  0  0  0  0  0  0  0  0
  133.8669  136.0965  161.3687 C   0  0  0  0  0  0  0  0  0  0  0  0
  133.3830  137.3900  161.4286 C   0  0  0  0  0  0  0  0  0  0  0  0
  132.1258  137.6812  160.9329 C   0  0  0  0  0  0  0  0  0  0  0  0
  131.3527  136.6790  160.3773 C   0  0  0  0  0  0  0  0  0  0  0  0
  129.5358  134.6073  159.9237 C   0  0  0  0  0  0  0  0  0  0  0  0
  128.8432  135.3455  158.9822 C   0  0  0  0  0  0  0  0  0  0  0  0
  127.5054  135.6336  159.1768 C   0  0  0  0  0  0  0  0  0  0  0  0
  126.8593  135.1838  160.3135 C   0  0  0  0  0  0  0  0  0  0  0  0
  127.5509  134.4458  161.2553 C   0  0  0  0  0  0  0  0  0  0  0  0
  128.8885  134.1525  161.0581 C   0  0  0  0  0  0  0  0  0  0  0  0
  129.8334  133.1367  162.3430 Br  0  0  0  0  0  0  0  0  0  0  0  0
  131.1478  132.8492  156.2997 N   0  0  0  0  0  0  0  0  0  0  0  0
  131.5345  133.4910  155.6837 H   0  0  0  0  0  0  0  0  0  0  0  0
  131.5026  129.8229  154.4114 C   0  0  0  0  0  0  0  0  0  0  0  0
  131.5404  129.2517  153.1568 C   0  0  0  0  0  0  0  0  0  0  0  0
  130.4297  129.6832  150.0919 H   0  0  0  0  0  0  0  0  0  0  0  0
  131.4109  128.4546  150.6839 H   0  0  0  0  0  0  0  0  0  0  0  0
  129.6062  131.4734  151.4859 H   0  0  0  0  0  0  0  0  0  0  0  0
  129.5244  132.4912  153.7228 H   0  0  0  0  0  0  0  0  0  0  0  0
  129.8254  130.0252  157.1793 H   0  0  0  0  0  0  0  0  0  0  0  0
  131.6694  134.9543  157.8097 H   0  0  0  0  0  0  0  0  0  0  0  0
  133.4690  134.0823  160.7733 H   0  0  0  0  0  0  0  0  0  0  0  0
  134.8489  135.8689  161.7563 H   0  0  0  0  0  0  0  0  0  0  0  0
  133.9868  138.1730  161.8630 H   0  0  0  0  0  0  0  0  0  0  0  0
  131.7475  138.6917  160.9801 H   0  0  0  0  0  0  0  0  0  0  0  0
  130.3703  136.9064  159.9904 H   0  0  0  0  0  0  0  0  0  0  0  0
  129.3477  135.6975  158.0944 H   0  0  0  0  0  0  0  0  0  0  0  0
  126.9647  136.2102  158.4410 H   0  0  0  0  0  0  0  0  0  0  0  0
  125.8143  135.4097  160.4655 H   0  0  0  0  0  0  0  0  0  0  0  0
  127.0460  134.0943  162.1430 H   0  0  0  0  0  0  0  0  0  0  0  0
  132.0356  129.3631  155.2306 H   0  0  0  0  0  0  0  0  0  0  0  0
  132.1030  128.3443  152.9938 H   0  0  0  0  0  0  0  0  0  0  0  0
  1  2  1  0
  1 31  1  0
  1 32  1  0
  2 30  2  0
  2  3  1  0
  3  4  2  0
  3 33  1  0
  4  5  1  0
  4 34  1  0
  5  6  1  0
  5 29  2  0
  6 27  1  0
  6  7  2  0
  7  8  1  0
  7 35  1  0
  8  9  1  0
  8 10  1  0
 10 11  1  0
 10 27  2  0
 11 12  1  0
 11 36  1  0
 12 13  1  1
 12 14  1  0
 12 20  1  0
 14 19  1  0
 14 15  2  0
 15 16  1  0
 15 37  1  0
 16 17  2  0
 16 38  1  0
 17 18  1  0
 17 39  1  0
 18 19  2  0
 18 40  1  0
 19 41  1  0
 20 25  1  0
 20 21  2  0
 21 22  1  0
 21 42  1  0
 22 23  2  0
 22 43  1  0
 23 24  1  0
 23 44  1  0
 24 25  2  0
 24 45  1  0
 25 26  1  0
 27 28  1  0
 29 30  1  0
 29 46  1  0
 30 47  1  0
M  CHG  1  27   1
M  END
>  <DOCK_score>  (1) 
-60.978474

>  <SMILES>  (1) 
Nc1ccc(-c2c[nH]c(N[C@@H](c3ccccc3)c3ccccc3Br)[nH+]2)cc1

$$$$
