C[C@H](Nc1ccc(C2=CC[NH2+]C3(CCC3)C2)c(C(F)F)c1)c1cnn(C)c1
     RDKit          3D

 54 57  0  0  1  0  0  0  0  0999 V2000
  126.3769  139.1747  165.8676 C   0  0  0  0  0  0  0  0  0  0  0  0
  126.9745  137.9438  165.1830 C   0  0  2  0  0  0  0  0  0  0  0  0
  128.0211  138.1329  164.9447 H   0  0  0  0  0  0  0  0  0  0  0  0
  126.2354  137.6642  163.9493 N   0  0  0  0  0  0  0  0  0  0  0  0
  126.8832  137.0641  162.8688 C   0  0  0  0  0  0  0  0  0  0  0  0
  127.9761  137.6908  162.2799 C   0  0  0  0  0  0  0  0  0  0  0  0
  128.6174  137.1010  161.2125 C   0  0  0  0  0  0  0  0  0  0  0  0
  128.1692  135.8727  160.7226 C   0  0  0  0  0  0  0  0  0  0  0  0
  128.8544  135.2378  159.5778 C   0  0  0  0  0  0  0  0  0  0  0  0
  128.4428  135.5133  158.3608 C   0  0  0  0  0  0  0  0  0  0  0  0
  129.0463  134.9249  157.1204 C   0  0  0  0  0  0  0  0  0  0  0  0
  130.3878  134.3954  157.3945 N   0  0  0  0  0  0  0  0  0  0  0  0
  130.7108  133.8652  156.5990 H   0  0  0  0  0  0  0  0  0  0  0  0
  131.0228  135.1593  157.5716 H   0  0  0  0  0  0  0  0  0  0  0  0
  130.3244  133.5236  158.5725 C   0  0  0  0  0  0  0  0  0  0  0  0
  131.5271  132.5834  158.7105 C   0  0  0  0  0  0  0  0  0  0  0  0
  130.5271  131.5038  159.1596 C   0  0  0  0  0  0  0  0  0  0  0  0
  129.4556  132.2769  158.3709 C   0  0  0  0  0  0  0  0  0  0  0  0
  130.0002  134.2989  159.8474 C   0  0  0  0  0  0  0  0  0  0  0  0
  127.0689  135.2486  161.3127 C   0  0  0  0  0  0  0  0  0  0  0  0
  126.5785  133.9257  160.7832 C   0  0  0  0  0  0  0  0  0  0  0  0
  125.4739  133.5045  161.5315 F   0  0  0  0  0  0  0  0  0  0  0  0
  126.2062  134.0691  159.4423 F   0  0  0  0  0  0  0  0  0  0  0  0
  126.4343  135.8414  162.3829 C   0  0  0  0  0  0  0  0  0  0  0  0
  126.8761  136.7576  166.1073 C   0  0  0  0  0  0  0  0  0  0  0  0
  127.3170  135.4595  165.8299 C   0  0  0  0  0  0  0  0  0  0  0  0
  127.0608  134.7097  166.8712 N   0  0  0  0  0  0  0  0  0  0  0  0
  126.4480  135.5081  167.8454 N   0  0  0  0  0  0  0  0  0  0  0  0
  125.9972  135.0628  169.1663 C   0  0  0  0  0  0  0  0  0  0  0  0
  126.3510  136.7615  167.3544 C   0  0  0  0  0  0  0  0  0  0  0  0
  125.3302  138.9856  166.1059 H   0  0  0  0  0  0  0  0  0  0  0  0
  126.9267  139.3827  166.7856 H   0  0  0  0  0  0  0  0  0  0  0  0
  126.4480  140.0327  165.1991 H   0  0  0  0  0  0  0  0  0  0  0  0
  125.2959  137.8963  163.8836 H   0  0  0  0  0  0  0  0  0  0  0  0
  128.3223  138.6407  162.6594 H   0  0  0  0  0  0  0  0  0  0  0  0
  129.4657  137.5883  160.7551 H   0  0  0  0  0  0  0  0  0  0  0  0
  127.6206  136.2044  158.2474 H   0  0  0  0  0  0  0  0  0  0  0  0
  129.1151  135.6969  156.3540 H   0  0  0  0  0  0  0  0  0  0  0  0
  128.4090  134.1175  156.7598 H   0  0  0  0  0  0  0  0  0  0  0  0
  132.0170  132.3585  157.7630 H   0  0  0  0  0  0  0  0  0  0  0  0
  132.2278  132.8817  159.4903 H   0  0  0  0  0  0  0  0  0  0  0  0
  130.3526  131.4910  160.2354 H   0  0  0  0  0  0  0  0  0  0  0  0
  130.7401  130.5153  158.7527 H   0  0  0  0  0  0  0  0  0  0  0  0
  128.4922  132.3288  158.8781 H   0  0  0  0  0  0  0  0  0  0  0  0
  129.3710  131.9669  157.3293 H   0  0  0  0  0  0  0  0  0  0  0  0
  129.7210  133.6011  160.6369 H   0  0  0  0  0  0  0  0  0  0  0  0
  130.8747  134.8701  160.1587 H   0  0  0  0  0  0  0  0  0  0  0  0
  127.3744  133.1851  160.8621 H   0  0  0  0  0  0  0  0  0  0  0  0
  125.5850  135.3574  162.8421 H   0  0  0  0  0  0  0  0  0  0  0  0
  127.7873  135.1325  164.9144 H   0  0  0  0  0  0  0  0  0  0  0  0
  126.8071  135.1820  169.8859 H   0  0  0  0  0  0  0  0  0  0  0  0
  125.1419  135.6616  169.4793 H   0  0  0  0  0  0  0  0  0  0  0  0
  125.7072  134.0133  169.1163 H   0  0  0  0  0  0  0  0  0  0  0  0
  125.9276  137.6142  167.8644 H   0  0  0  0  0  0  0  0  0  0  0  0
  1  2  1  0
  1 31  1  0
  1 32  1  0
  1 33  1  0
  2  3  1  6
  2  4  1  0
  2 25  1  0
  4  5  1  0
  4 34  1  0
  5 24  1  0
  5  6  2  0
  6  7  1  0
  6 35  1  0
  7  8  2  0
  7 36  1  0
  8  9  1  0
  8 20  1  0
  9 19  1  0
  9 10  2  0
 10 11  1  0
 10 37  1  0
 11 12  1  0
 11 38  1  0
 11 39  1  0
 12 13  1  0
 12 14  1  0
 12 15  1  0
 15 18  1  0
 15 16  1  0
 15 19  1  0
 16 17  1  0
 16 40  1  0
 16 41  1  0
 17 18  1  0
 17 42  1  0
 17 43  1  0
 18 44  1  0
 18 45  1  0
 19 46  1  0
 19 47  1  0
 20 21  1  0
 20 24  2  0
 21 22  1  0
 21 23  1  0
 21 48  1  0
 24 49  1  0
 25 30  2  0
 25 26  1  0
 26 27  2  0
 26 50  1  0
 27 28  1  0
 28 29  1  0
 28 30  1  0
 29 51  1  0
 29 52  1  0
 29 53  1  0
 30 54  1  0
M  CHG  1  12   1
M  END
>  <DOCK_score>  (1) 
-41.8596

>  <SMILES>  (1) 
C[C@H](Nc1ccc(C2=CC[NH2+]C3(CCC3)C2)c(C(F)F)c1)c1cnn(C)c1

$$$$
