Oc1ccc([C@@H](Nc2[nH]cc(-c3ccc(-c4ccccc4)cc3)[nH+]2)c2ccccc2)cc1
     RDKit          3D

 56 60  0  0  1  0  0  0  0  0999 V2000
  130.1857  141.6723  162.8889 O   0  0  0  0  0  0  0  0  0  0  0  0
  130.4470  140.3634  162.6330 C   0  0  0  0  0  0  0  0  0  0  0  0
  129.5322  139.3874  163.0005 C   0  0  0  0  0  0  0  0  0  0  0  0
  129.8000  138.0576  162.7387 C   0  0  0  0  0  0  0  0  0  0  0  0
  130.9788  137.6992  162.1113 C   0  0  0  0  0  0  0  0  0  0  0  0
  131.2685  136.2479  161.8270 C   0  0  1  0  0  0  0  0  0  0  0  0
  130.4411  135.6353  162.1850 H   0  0  0  0  0  0  0  0  0  0  0  0
  131.4296  136.0556  160.3836 N   0  0  0  0  0  0  0  0  0  0  0  0
  131.0896  134.8452  159.8043 C   0  0  0  0  0  0  0  0  0  0  0  0
  130.5971  133.7614  160.4640 N   0  0  0  0  0  0  0  0  0  0  0  0
  130.4230  133.6986  161.4162 H   0  0  0  0  0  0  0  0  0  0  0  0
  130.3920  132.7729  159.5328 C   0  0  0  0  0  0  0  0  0  0  0  0
  130.7597  133.2824  158.3303 C   0  0  0  0  0  0  0  0  0  0  0  0
  130.7054  132.5742  157.0291 C   0  0  0  0  0  0  0  0  0  0  0  0
  129.9193  133.0783  155.9929 C   0  0  0  0  0  0  0  0  0  0  0  0
  129.8722  132.4223  154.7827 C   0  0  0  0  0  0  0  0  0  0  0  0
  130.6025  131.2497  154.5960 C   0  0  0  0  0  0  0  0  0  0  0  0
  130.5477  130.5401  153.2951 C   0  0  0  0  0  0  0  0  0  0  0  0
  130.7123  129.1568  153.2446 C   0  0  0  0  0  0  0  0  0  0  0  0
  130.6557  128.5019  152.0311 C   0  0  0  0  0  0  0  0  0  0  0  0
  130.4458  129.2164  150.8655 C   0  0  0  0  0  0  0  0  0  0  0  0
  130.2871  130.5900  150.9090 C   0  0  0  0  0  0  0  0  0  0  0  0
  130.3370  131.2549  152.1172 C   0  0  0  0  0  0  0  0  0  0  0  0
  131.3849  130.7424  155.6340 C   0  0  0  0  0  0  0  0  0  0  0  0
  131.4359  131.4005  156.8429 C   0  0  0  0  0  0  0  0  0  0  0  0
  131.1884  134.5542  158.5302 N   0  0  0  0  0  0  0  0  0  0  0  0
  131.5123  135.1537  157.8399 H   0  0  0  0  0  0  0  0  0  0  0  0
  132.5365  135.8412  162.5325 C   0  0  0  0  0  0  0  0  0  0  0  0
  132.4814  135.3443  163.8214 C   0  0  0  0  0  0  0  0  0  0  0  0
  133.6441  134.9672  164.4671 C   0  0  0  0  0  0  0  0  0  0  0  0
  134.8627  135.0957  163.8274 C   0  0  0  0  0  0  0  0  0  0  0  0
  134.9184  135.5975  162.5405 C   0  0  0  0  0  0  0  0  0  0  0  0
  133.7553  135.9704  161.8931 C   0  0  0  0  0  0  0  0  0  0  0  0
  131.8948  138.6695  161.7491 C   0  0  0  0  0  0  0  0  0  0  0  0
  131.6290  140.0012  162.0034 C   0  0  0  0  0  0  0  0  0  0  0  0
  129.3388  141.8253  163.3299 H   0  0  0  0  0  0  0  0  0  0  0  0
  128.6115  139.6668  163.4909 H   0  0  0  0  0  0  0  0  0  0  0  0
  129.0881  137.2974  163.0242 H   0  0  0  0  0  0  0  0  0  0  0  0
  131.7745  136.7766  159.8338 H   0  0  0  0  0  0  0  0  0  0  0  0
  130.0075  131.7813  159.7211 H   0  0  0  0  0  0  0  0  0  0  0  0
  129.3503  133.9846  156.1384 H   0  0  0  0  0  0  0  0  0  0  0  0
  129.2663  132.8145  153.9793 H   0  0  0  0  0  0  0  0  0  0  0  0
  130.8799  128.5983  154.1535 H   0  0  0  0  0  0  0  0  0  0  0  0
  130.7794  127.4298  151.9912 H   0  0  0  0  0  0  0  0  0  0  0  0
  130.4062  128.7002  149.9177 H   0  0  0  0  0  0  0  0  0  0  0  0
  130.1242  131.1430  149.9956 H   0  0  0  0  0  0  0  0  0  0  0  0
  130.2133  132.3274  152.1500 H   0  0  0  0  0  0  0  0  0  0  0  0
  131.9505  129.8336  155.4897 H   0  0  0  0  0  0  0  0  0  0  0  0
  132.0416  131.0080  157.6462 H   0  0  0  0  0  0  0  0  0  0  0  0
  131.5296  135.2475  164.3226 H   0  0  0  0  0  0  0  0  0  0  0  0
  133.6006  134.5747  165.4724 H   0  0  0  0  0  0  0  0  0  0  0  0
  135.7713  134.8035  164.3328 H   0  0  0  0  0  0  0  0  0  0  0  0
  135.8704  135.6977  162.0407 H   0  0  0  0  0  0  0  0  0  0  0  0
  133.7986  136.3626  160.8879 H   0  0  0  0  0  0  0  0  0  0  0  0
  132.8170  138.3866  161.2634 H   0  0  0  0  0  0  0  0  0  0  0  0
  132.3429  140.7592  161.7164 H   0  0  0  0  0  0  0  0  0  0  0  0
  1  2  1  0
  1 36  1  0
  2 35  2  0
  2  3  1  0
  3  4  2  0
  3 37  1  0
  4  5  1  0
  4 38  1  0
  5  6  1  0
  5 34  2  0
  6  7  1  1
  6  8  1  0
  6 28  1  0
  8 39  1  0
  9  8  1  0
  9 26  2  0
  9 10  1  0
 10 11  1  0
 10 12  1  0
 12 13  2  0
 12 40  1  0
 13 14  1  0
 13 26  1  0
 14 25  1  0
 14 15  2  0
 15 16  1  0
 15 41  1  0
 16 17  2  0
 16 42  1  0
 17 18  1  0
 17 24  1  0
 18 23  1  0
 18 19  2  0
 19 20  1  0
 19 43  1  0
 20 21  2  0
 20 44  1  0
 21 22  1  0
 21 45  1  0
 22 23  2  0
 22 46  1  0
 23 47  1  0
 24 25  2  0
 24 48  1  0
 25 49  1  0
 26 27  1  0
 28 33  1  0
 28 29  2  0
 29 30  1  0
 29 50  1  0
 30 31  2  0
 30 51  1  0
 31 32  1  0
 31 52  1  0
 32 33  2  0
 32 53  1  0
 33 54  1  0
 34 35  1  0
 34 55  1  0
 35 56  1  0
M  CHG  1  26   1
M  END
>  <DOCK_score>  (1) 
-57.086594

>  <SMILES>  (1) 
Oc1ccc([C@@H](Nc2[nH]cc(-c3ccc(-c4ccccc4)cc3)[nH+]2)c2ccccc2)cc1

$$$$
