CC(C)c1ccc(-c2c[nH]c(N[C@@H](Cc3cccc(O)c3)c3ccccc3)[nH+]2)cc1
     RDKit          3D

 58 61  0  0  1  0  0  0  0  0999 V2000
  130.8453  128.5111  151.8459 C   0  0  0  0  0  0  0  0  0  0  0  0
  131.1245  130.0138  151.7766 C   0  0  0  0  0  0  0  0  0  0  0  0
  130.2284  130.6504  150.7123 C   0  0  0  0  0  0  0  0  0  0  0  0
  130.8356  130.6405  153.1163 C   0  0  0  0  0  0  0  0  0  0  0  0
  130.4084  131.9543  153.1848 C   0  0  0  0  0  0  0  0  0  0  0  0
  130.1434  132.5336  154.4090 C   0  0  0  0  0  0  0  0  0  0  0  0
  130.3073  131.7922  155.5778 C   0  0  0  0  0  0  0  0  0  0  0  0
  130.0241  132.4094  156.8966 C   0  0  0  0  0  0  0  0  0  0  0  0
  129.5806  131.7615  158.0022 C   0  0  0  0  0  0  0  0  0  0  0  0
  129.4527  132.7048  158.9926 N   0  0  0  0  0  0  0  0  0  0  0  0
  129.1546  132.5462  159.9020 H   0  0  0  0  0  0  0  0  0  0  0  0
  129.8223  133.9026  158.4628 C   0  0  0  0  0  0  0  0  0  0  0  0
  129.8353  135.1124  159.1357 N   0  0  0  0  0  0  0  0  0  0  0  0
  129.4268  135.1732  160.5413 C   0  0  1  0  0  0  0  0  0  0  0  0
  129.8145  134.3025  161.0703 H   0  0  0  0  0  0  0  0  0  0  0  0
  129.9837  136.4473  161.1797 C   0  0  0  0  0  0  0  0  0  0  0  0
  131.4313  136.2365  161.5415 C   0  0  0  0  0  0  0  0  0  0  0  0
  132.4232  136.5381  160.6264 C   0  0  0  0  0  0  0  0  0  0  0  0
  133.7525  136.3516  160.9576 C   0  0  0  0  0  0  0  0  0  0  0  0
  134.0928  135.8585  162.2025 C   0  0  0  0  0  0  0  0  0  0  0  0
  133.0994  135.5499  163.1202 C   0  0  0  0  0  0  0  0  0  0  0  0
  133.4317  135.0650  164.3455 O   0  0  0  0  0  0  0  0  0  0  0  0
  131.7661  135.7375  162.7852 C   0  0  0  0  0  0  0  0  0  0  0  0
  127.9223  135.1844  160.6272 C   0  0  0  0  0  0  0  0  0  0  0  0
  127.2886  134.6292  161.7231 C   0  0  0  0  0  0  0  0  0  0  0  0
  125.9086  134.6430  161.8038 C   0  0  0  0  0  0  0  0  0  0  0  0
  125.1622  135.2044  160.7848 C   0  0  0  0  0  0  0  0  0  0  0  0
  125.7958  135.7549  159.6864 C   0  0  0  0  0  0  0  0  0  0  0  0
  127.1759  135.7446  159.6076 C   0  0  0  0  0  0  0  0  0  0  0  0
  130.1584  133.7230  157.2088 N   0  0  0  0  0  0  0  0  0  0  0  0
  130.4572  134.4178  156.6014 H   0  0  0  0  0  0  0  0  0  0  0  0
  130.7438  130.4706  155.5032 C   0  0  0  0  0  0  0  0  0  0  0  0
  131.0002  129.8999  154.2732 C   0  0  0  0  0  0  0  0  0  0  0  0
  131.4837  128.0575  152.6041 H   0  0  0  0  0  0  0  0  0  0  0  0
  129.7995  128.3474  152.1063 H   0  0  0  0  0  0  0  0  0  0  0  0
  131.0537  128.0577  150.8768 H   0  0  0  0  0  0  0  0  0  0  0  0
  132.1702  130.1775  151.5162 H   0  0  0  0  0  0  0  0  0  0  0  0
  130.4271  131.7210  150.6629 H   0  0  0  0  0  0  0  0  0  0  0  0
  130.4367  130.1970  149.7432 H   0  0  0  0  0  0  0  0  0  0  0  0
  129.1826  130.4868  150.9726 H   0  0  0  0  0  0  0  0  0  0  0  0
  130.2818  132.5277  152.2784 H   0  0  0  0  0  0  0  0  0  0  0  0
  129.8094  133.5592  154.4612 H   0  0  0  0  0  0  0  0  0  0  0  0
  129.3679  130.7061  158.0875 H   0  0  0  0  0  0  0  0  0  0  0  0
  130.1149  135.9197  158.6766 H   0  0  0  0  0  0  0  0  0  0  0  0
  129.4147  136.6816  162.0793 H   0  0  0  0  0  0  0  0  0  0  0  0
  129.9024  137.2732  160.4729 H   0  0  0  0  0  0  0  0  0  0  0  0
  132.1593  136.9241  159.6528 H   0  0  0  0  0  0  0  0  0  0  0  0
  134.5254  136.5921  160.2427 H   0  0  0  0  0  0  0  0  0  0  0  0
  135.1313  135.7130  162.4608 H   0  0  0  0  0  0  0  0  0  0  0  0
  134.3838  134.9694  164.4857 H   0  0  0  0  0  0  0  0  0  0  0  0
  130.9908  135.4982  163.4981 H   0  0  0  0  0  0  0  0  0  0  0  0
  127.8716  134.1876  162.5178 H   0  0  0  0  0  0  0  0  0  0  0  0
  125.4136  134.2125  162.6617 H   0  0  0  0  0  0  0  0  0  0  0  0
  124.0841  135.2128  160.8466 H   0  0  0  0  0  0  0  0  0  0  0  0
  125.2127  136.1933  158.8900 H   0  0  0  0  0  0  0  0  0  0  0  0
  127.6710  136.1748  158.7494 H   0  0  0  0  0  0  0  0  0  0  0  0
  130.8771  129.8931  156.4061 H   0  0  0  0  0  0  0  0  0  0  0  0
  131.3343  128.8746  154.2138 H   0  0  0  0  0  0  0  0  0  0  0  0
  1  2  1  0
  1 34  1  0
  1 35  1  0
  1 36  1  0
  2  3  1  0
  2  4  1  0
  2 37  1  0
  3 38  1  0
  3 39  1  0
  3 40  1  0
  4 33  2  0
  4  5  1  0
  5  6  2  0
  5 41  1  0
  6  7  1  0
  6 42  1  0
  7  8  1  0
  7 32  2  0
  8 30  1  0
  8  9  2  0
  9 10  1  0
  9 43  1  0
 10 11  1  0
 10 12  1  0
 12 13  1  0
 12 30  2  0
 13 14  1  0
 13 44  1  0
 14 15  1  1
 14 16  1  0
 14 24  1  0
 16 17  1  0
 16 45  1  0
 16 46  1  0
 17 23  1  0
 17 18  2  0
 18 19  1  0
 18 47  1  0
 19 20  2  0
 19 48  1  0
 20 21  1  0
 20 49  1  0
 21 22  1  0
 21 23  2  0
 22 50  1  0
 23 51  1  0
 24 29  1  0
 24 25  2  0
 25 26  1  0
 25 52  1  0
 26 27  2  0
 26 53  1  0
 27 28  1  0
 27 54  1  0
 28 29  2  0
 28 55  1  0
 29 56  1  0
 30 31  1  0
 32 33  1  0
 32 57  1  0
 33 58  1  0
M  CHG  1  30   1
M  END
>  <DOCK_score>  (1) 
-57.22287

>  <SMILES>  (1) 
CC(C)c1ccc(-c2c[nH]c(N[C@@H](Cc3cccc(O)c3)c3ccccc3)[nH+]2)cc1

$$$$
