CC=Cc1c[nH]c(Nc2ccc(Nc3ccc(-c4ccccc4)cc3)cc2)[nH+]1
     RDKit          3D

 51 54  0  0  1  0  0  0  0  0999 V2000
  130.7494  132.3103  152.3066 C   0  0  0  0  0  0  0  0  0  0  0  0
  130.4854  132.9003  153.6679 C   0  0  0  0  0  0  0  0  0  0  0  0
  129.8964  132.1691  154.6049 C   0  0  0  0  0  0  0  0  0  0  0  0
  129.6376  132.7475  155.9395 C   0  0  0  0  0  0  0  0  0  0  0  0
  129.0396  132.1156  156.9830 C   0  0  0  0  0  0  0  0  0  0  0  0
  129.0002  133.0124  158.0215 N   0  0  0  0  0  0  0  0  0  0  0  0
  128.6307  132.8530  158.9042 H   0  0  0  0  0  0  0  0  0  0  0  0
  129.5748  134.1669  157.5848 C   0  0  0  0  0  0  0  0  0  0  0  0
  129.7322  135.3220  158.3321 N   0  0  0  0  0  0  0  0  0  0  0  0
  128.8114  135.6352  159.3394 C   0  0  0  0  0  0  0  0  0  0  0  0
  129.2200  136.3563  160.4538 C   0  0  0  0  0  0  0  0  0  0  0  0
  128.3122  136.6651  161.4471 C   0  0  0  0  0  0  0  0  0  0  0  0
  126.9901  136.2548  161.3318 C   0  0  0  0  0  0  0  0  0  0  0  0
  126.0699  136.5675  162.3389 N   0  0  0  0  0  0  0  0  0  0  0  0
  126.4995  136.6991  163.6602 C   0  0  0  0  0  0  0  0  0  0  0  0
  126.3213  137.9037  164.3315 C   0  0  0  0  0  0  0  0  0  0  0  0
  126.7449  138.0357  165.6365 C   0  0  0  0  0  0  0  0  0  0  0  0
  127.3519  136.9604  166.2836 C   0  0  0  0  0  0  0  0  0  0  0  0
  127.8089  137.1004  167.6878 C   0  0  0  0  0  0  0  0  0  0  0  0
  127.8243  135.9919  168.5323 C   0  0  0  0  0  0  0  0  0  0  0  0
  128.2501  136.1282  169.8379 C   0  0  0  0  0  0  0  0  0  0  0  0
  128.6611  137.3621  170.3090 C   0  0  0  0  0  0  0  0  0  0  0  0
  128.6426  138.4670  169.4769 C   0  0  0  0  0  0  0  0  0  0  0  0
  128.2241  138.3413  168.1678 C   0  0  0  0  0  0  0  0  0  0  0  0
  127.5340  135.7549  165.6073 C   0  0  0  0  0  0  0  0  0  0  0  0
  127.1047  135.6254  164.3038 C   0  0  0  0  0  0  0  0  0  0  0  0
  126.5827  135.5294  160.2195 C   0  0  0  0  0  0  0  0  0  0  0  0
  127.4895  135.2249  159.2240 C   0  0  0  0  0  0  0  0  0  0  0  0
  129.9492  134.0071  156.3389 N   0  0  0  0  0  0  0  0  0  0  0  0
  130.3822  134.6802  155.7909 H   0  0  0  0  0  0  0  0  0  0  0  0
  131.3975  131.4397  152.4074 H   0  0  0  0  0  0  0  0  0  0  0  0
  129.8056  132.0099  151.8516 H   0  0  0  0  0  0  0  0  0  0  0  0
  131.2360  133.0545  151.6761 H   0  0  0  0  0  0  0  0  0  0  0  0
  130.7757  133.9186  153.8808 H   0  0  0  0  0  0  0  0  0  0  0  0
  129.6060  131.1509  154.3921 H   0  0  0  0  0  0  0  0  0  0  0  0
  128.6669  131.1020  156.9935 H   0  0  0  0  0  0  0  0  0  0  0  0
  130.4804  135.9143  158.1579 H   0  0  0  0  0  0  0  0  0  0  0  0
  130.2478  136.6753  160.5436 H   0  0  0  0  0  0  0  0  0  0  0  0
  128.6298  137.2260  162.3138 H   0  0  0  0  0  0  0  0  0  0  0  0
  125.1335  136.6926  162.1185 H   0  0  0  0  0  0  0  0  0  0  0  0
  125.8511  138.7365  163.8298 H   0  0  0  0  0  0  0  0  0  0  0  0
  126.6069  138.9718  166.1573 H   0  0  0  0  0  0  0  0  0  0  0  0
  127.5033  135.0281  168.1656 H   0  0  0  0  0  0  0  0  0  0  0  0
  128.2627  135.2696  170.4931 H   0  0  0  0  0  0  0  0  0  0  0  0
  128.9934  137.4642  171.3315 H   0  0  0  0  0  0  0  0  0  0  0  0
  128.9600  139.4290  169.8513 H   0  0  0  0  0  0  0  0  0  0  0  0
  128.2142  139.2037  167.5177 H   0  0  0  0  0  0  0  0  0  0  0  0
  128.0080  134.9222  166.1054 H   0  0  0  0  0  0  0  0  0  0  0  0
  127.2422  134.6905  163.7808 H   0  0  0  0  0  0  0  0  0  0  0  0
  125.5560  135.2064  160.1319 H   0  0  0  0  0  0  0  0  0  0  0  0
  127.1720  134.6638  158.3575 H   0  0  0  0  0  0  0  0  0  0  0  0
  1  2  1  0
  1 31  1  0
  1 32  1  0
  1 33  1  0
  2  3  2  0
  2 34  1  0
  3  4  1  0
  3 35  1  0
  4 29  1  0
  4  5  2  0
  5  6  1  0
  5 36  1  0
  6  7  1  0
  6  8  1  0
  8  9  1  0
  8 29  2  0
  9 10  1  0
  9 37  1  0
 10 28  1  0
 10 11  2  0
 11 12  1  0
 11 38  1  0
 12 13  2  0
 12 39  1  0
 13 14  1  0
 13 27  1  0
 14 15  1  0
 14 40  1  0
 15 26  1  0
 15 16  2  0
 16 17  1  0
 16 41  1  0
 17 18  2  0
 17 42  1  0
 18 19  1  0
 18 25  1  0
 19 24  1  0
 19 20  2  0
 20 21  1  0
 20 43  1  0
 21 22  2  0
 21 44  1  0
 22 23  1  0
 22 45  1  0
 23 24  2  0
 23 46  1  0
 24 47  1  0
 25 26  2  0
 25 48  1  0
 26 49  1  0
 27 28  2  0
 27 50  1  0
 28 51  1  0
 29 30  1  0
M  CHG  1  29   1
M  END
>  <DOCK_score>  (1) 
-52.565899

>  <SMILES>  (1) 
CC=Cc1c[nH]c(Nc2ccc(Nc3ccc(-c4ccccc4)cc3)cc2)[nH+]1

$$$$
