O=C1CC[C@H]([NH+]=C(NCC2=CCCC2)NC2CC=CC2)CN1
     RDKit          3D

 49 51  0  0  1  0  0  0  0  0999 V2000
  124.2798  133.9625  161.3092 O   0  0  0  0  0  0  0  0  0  0  0  0
  125.4400  134.2232  161.0714 C   0  0  0  0  0  0  0  0  0  0  0  0
  126.3386  133.1110  160.6121 C   0  0  0  0  0  0  0  0  0  0  0  0
  127.8035  133.5193  160.7865 C   0  0  0  0  0  0  0  0  0  0  0  0
  127.9932  134.9148  160.1797 C   0  0  2  0  0  0  0  0  0  0  0  0
  127.6115  134.9245  159.1588 H   0  0  0  0  0  0  0  0  0  0  0  0
  129.4171  135.2595  160.1754 N   0  0  0  0  0  0  0  0  0  0  0  0
  129.7284  136.0409  160.6586 H   0  0  0  0  0  0  0  0  0  0  0  0
  130.2656  134.5163  159.5223 C   0  0  0  0  0  0  0  0  0  0  0  0
  131.5650  134.4105  159.9590 N   0  0  0  0  0  0  0  0  0  0  0  0
  131.8698  134.5305  161.3870 C   0  0  0  0  0  0  0  0  0  0  0  0
  132.8078  135.6898  161.6046 C   0  0  0  0  0  0  0  0  0  0  0  0
  133.2665  136.4571  160.6534 C   0  0  0  0  0  0  0  0  0  0  0  0
  134.1869  137.5196  161.2077 C   0  0  0  0  0  0  0  0  0  0  0  0
  133.8928  137.5413  162.7256 C   0  0  0  0  0  0  0  0  0  0  0  0
  133.3456  136.1127  162.9518 C   0  0  0  0  0  0  0  0  0  0  0  0
  129.8612  133.8381  158.3968 N   0  0  0  0  0  0  0  0  0  0  0  0
  130.8148  133.0027  157.6628 C   0  0  0  0  0  0  0  0  0  0  0  0
  130.1029  132.1861  156.5593 C   0  0  0  0  0  0  0  0  0  0  0  0
  130.8075  130.8487  156.5572 C   0  0  0  0  0  0  0  0  0  0  0  0
  131.5017  130.6811  157.6499 C   0  0  0  0  0  0  0  0  0  0  0  0
  131.3756  131.8777  158.5636 C   0  0  0  0  0  0  0  0  0  0  0  0
  127.2229  135.9268  161.0288 C   0  0  0  0  0  0  0  0  0  0  0  0
  125.8498  135.4820  161.2319 N   0  0  0  0  0  0  0  0  0  0  0  0
  126.1444  132.8994  159.5607 H   0  0  0  0  0  0  0  0  0  0  0  0
  126.1392  132.2170  161.2030 H   0  0  0  0  0  0  0  0  0  0  0  0
  128.4471  132.8051  160.2728 H   0  0  0  0  0  0  0  0  0  0  0  0
  128.0541  133.5432  161.8470 H   0  0  0  0  0  0  0  0  0  0  0  0
  132.2797  134.2564  159.3217 H   0  0  0  0  0  0  0  0  0  0  0  0
  132.3406  133.6117  161.7364 H   0  0  0  0  0  0  0  0  0  0  0  0
  130.9475  134.7003  161.9424 H   0  0  0  0  0  0  0  0  0  0  0  0
  133.0208  136.3466  159.6075 H   0  0  0  0  0  0  0  0  0  0  0  0
  133.9595  138.4884  160.7630 H   0  0  0  0  0  0  0  0  0  0  0  0
  135.2279  137.2524  161.0263 H   0  0  0  0  0  0  0  0  0  0  0  0
  133.1400  138.2915  162.9677 H   0  0  0  0  0  0  0  0  0  0  0  0
  134.8053  137.7059  163.2986 H   0  0  0  0  0  0  0  0  0  0  0  0
  132.5465  136.1250  163.6929 H   0  0  0  0  0  0  0  0  0  0  0  0
  134.1457  135.4435  163.2683 H   0  0  0  0  0  0  0  0  0  0  0  0
  128.9444  133.9128  158.0887 H   0  0  0  0  0  0  0  0  0  0  0  0
  131.6199  133.6069  157.2446 H   0  0  0  0  0  0  0  0  0  0  0  0
  129.0479  132.0589  156.8020 H   0  0  0  0  0  0  0  0  0  0  0  0
  130.2146  132.6765  155.5923 H   0  0  0  0  0  0  0  0  0  0  0  0
  130.7451  130.1269  155.7563 H   0  0  0  0  0  0  0  0  0  0  0  0
  132.0888  129.8022  157.8718 H   0  0  0  0  0  0  0  0  0  0  0  0
  132.3519  132.1586  158.9585 H   0  0  0  0  0  0  0  0  0  0  0  0
  130.6843  131.6640  159.3788 H   0  0  0  0  0  0  0  0  0  0  0  0
  127.7140  136.0334  161.9960 H   0  0  0  0  0  0  0  0  0  0  0  0
  127.2178  136.8920  160.5225 H   0  0  0  0  0  0  0  0  0  0  0  0
  125.1929  136.1431  161.5008 H   0  0  0  0  0  0  0  0  0  0  0  0
  1  2  2  0
  2 24  1  0
  2  3  1  0
  3  4  1  0
  3 25  1  0
  3 26  1  0
  4  5  1  0
  4 27  1  0
  4 28  1  0
  5  6  1  6
  5  7  1  0
  5 23  1  0
  7  8  1  0
  9  7  2  0
  9 10  1  0
  9 17  1  0
 10 11  1  0
 10 29  1  0
 11 12  1  0
 11 30  1  0
 11 31  1  0
 12 16  1  0
 12 13  2  0
 13 14  1  0
 13 32  1  0
 14 15  1  0
 14 33  1  0
 14 34  1  0
 15 16  1  0
 15 35  1  0
 15 36  1  0
 16 37  1  0
 16 38  1  0
 17 18  1  0
 17 39  1  0
 18 22  1  0
 18 19  1  0
 18 40  1  0
 19 20  1  0
 19 41  1  0
 19 42  1  0
 20 21  2  0
 20 43  1  0
 21 22  1  0
 21 44  1  0
 22 45  1  0
 22 46  1  0
 23 24  1  0
 23 47  1  0
 23 48  1  0
 24 49  1  0
M  CHG  1   7   1
M  END
>  <DOCK_score>  (1) 
-42.191422

>  <SMILES>  (1) 
O=C1CC[C@H]([NH+]=C(NCC2=CCCC2)NC2CC=CC2)CN1

$$$$
