CCc1ccc(C=C[C@H](Nc2[nH]cc(-c3ccc(Br)cc3)[nH+]2)c2ccccc2)cc1
     RDKit          3D

 55 58  0  0  1  0  0  0  0  0999 V2000
  132.2001  141.8067  164.6035 C   0  0  0  0  0  0  0  0  0  0  0  0
  131.6099  142.0408  163.2114 C   0  0  0  0  0  0  0  0  0  0  0  0
  131.2774  140.7148  162.5771 C   0  0  0  0  0  0  0  0  0  0  0  0
  130.0248  140.1578  162.7621 C   0  0  0  0  0  0  0  0  0  0  0  0
  129.7125  138.9462  162.1801 C   0  0  0  0  0  0  0  0  0  0  0  0
  130.6669  138.2778  161.4124 C   0  0  0  0  0  0  0  0  0  0  0  0
  130.3412  136.9769  160.7912 C   0  0  0  0  0  0  0  0  0  0  0  0
  129.0753  136.6252  160.6142 C   0  0  0  0  0  0  0  0  0  0  0  0
  128.7432  135.2988  159.9809 C   0  0  2  0  0  0  0  0  0  0  0  0
  128.6561  134.5375  160.7561 H   0  0  0  0  0  0  0  0  0  0  0  0
  129.8072  134.9240  159.0460 N   0  0  0  0  0  0  0  0  0  0  0  0
  129.7219  133.7361  158.3403 C   0  0  0  0  0  0  0  0  0  0  0  0
  129.0969  132.6045  158.7657 N   0  0  0  0  0  0  0  0  0  0  0  0
  128.6353  132.4861  159.6106 H   0  0  0  0  0  0  0  0  0  0  0  0
  129.2408  131.6607  157.7777 C   0  0  0  0  0  0  0  0  0  0  0  0
  129.9489  132.2422  156.7781 C   0  0  0  0  0  0  0  0  0  0  0  0
  130.3467  131.5994  155.5018 C   0  0  0  0  0  0  0  0  0  0  0  0
  129.9122  132.1278  154.2876 C   0  0  0  0  0  0  0  0  0  0  0  0
  130.2899  131.5294  153.1028 C   0  0  0  0  0  0  0  0  0  0  0  0
  131.0891  130.3998  153.1193 C   0  0  0  0  0  0  0  0  0  0  0  0
  131.5957  129.5796  151.4925 Br  0  0  0  0  0  0  0  0  0  0  0  0
  131.5190  129.8675  154.3230 C   0  0  0  0  0  0  0  0  0  0  0  0
  131.1517  130.4615  155.5131 C   0  0  0  0  0  0  0  0  0  0  0  0
  130.2248  133.5175  157.1498 N   0  0  0  0  0  0  0  0  0  0  0  0
  130.7178  134.1635  156.6203 H   0  0  0  0  0  0  0  0  0  0  0  0
  127.4374  135.4101  159.2371 C   0  0  0  0  0  0  0  0  0  0  0  0
  126.2478  135.1313  159.8836 C   0  0  0  0  0  0  0  0  0  0  0  0
  125.0496  135.2372  159.2023 C   0  0  0  0  0  0  0  0  0  0  0  0
  125.0416  135.6140  157.8723 C   0  0  0  0  0  0  0  0  0  0  0  0
  126.2316  135.8878  157.2245 C   0  0  0  0  0  0  0  0  0  0  0  0
  127.4295  135.7856  157.9067 C   0  0  0  0  0  0  0  0  0  0  0  0
  131.9303  138.8428  161.2341 C   0  0  0  0  0  0  0  0  0  0  0  0
  132.2283  140.0572  161.8172 C   0  0  0  0  0  0  0  0  0  0  0  0
  132.4406  142.7657  165.0621 H   0  0  0  0  0  0  0  0  0  0  0  0
  131.4734  141.2800  165.2222 H   0  0  0  0  0  0  0  0  0  0  0  0
  133.1065  141.2073  164.5177 H   0  0  0  0  0  0  0  0  0  0  0  0
  132.3365  142.5674  162.5927 H   0  0  0  0  0  0  0  0  0  0  0  0
  130.7035  142.6401  163.2971 H   0  0  0  0  0  0  0  0  0  0  0  0
  129.2883  140.6740  163.3599 H   0  0  0  0  0  0  0  0  0  0  0  0
  128.7329  138.5144  162.3219 H   0  0  0  0  0  0  0  0  0  0  0  0
  131.1345  136.3127  160.4815 H   0  0  0  0  0  0  0  0  0  0  0  0
  128.2821  137.2895  160.9240 H   0  0  0  0  0  0  0  0  0  0  0  0
  130.5714  135.5083  158.9215 H   0  0  0  0  0  0  0  0  0  0  0  0
  128.8620  130.6495  157.7940 H   0  0  0  0  0  0  0  0  0  0  0  0
  129.2847  133.0068  154.2736 H   0  0  0  0  0  0  0  0  0  0  0  0
  129.9572  131.9405  152.1612 H   0  0  0  0  0  0  0  0  0  0  0  0
  132.1426  128.9857  154.3305 H   0  0  0  0  0  0  0  0  0  0  0  0
  131.4875  130.0458  156.4514 H   0  0  0  0  0  0  0  0  0  0  0  0
  126.2542  134.8338  160.9217 H   0  0  0  0  0  0  0  0  0  0  0  0
  124.1199  135.0230  159.7085 H   0  0  0  0  0  0  0  0  0  0  0  0
  124.1057  135.6942  157.3394 H   0  0  0  0  0  0  0  0  0  0  0  0
  126.2254  136.1818  156.1853 H   0  0  0  0  0  0  0  0  0  0  0  0
  128.3592  135.9995  157.4004 H   0  0  0  0  0  0  0  0  0  0  0  0
  132.6735  138.3303  160.6414 H   0  0  0  0  0  0  0  0  0  0  0  0
  133.2058  140.4954  161.6802 H   0  0  0  0  0  0  0  0  0  0  0  0
  1  2  1  0
  1 34  1  0
  1 35  1  0
  1 36  1  0
  2  3  1  0
  2 37  1  0
  2 38  1  0
  3 33  2  0
  3  4  1  0
  4  5  2  0
  4 39  1  0
  5  6  1  0
  5 40  1  0
  6  7  1  0
  6 32  2  0
  7  8  2  0
  7 41  1  0
  8  9  1  0
  8 42  1  0
  9 10  1  1
  9 11  1  0
  9 26  1  0
 11 43  1  0
 12 11  1  0
 12 24  2  0
 12 13  1  0
 13 14  1  0
 13 15  1  0
 15 16  2  0
 15 44  1  0
 16 17  1  0
 16 24  1  0
 17 23  1  0
 17 18  2  0
 18 19  1  0
 18 45  1  0
 19 20  2  0
 19 46  1  0
 20 21  1  0
 20 22  1  0
 22 23  2  0
 22 47  1  0
 23 48  1  0
 24 25  1  0
 26 31  1  0
 26 27  2  0
 27 28  1  0
 27 49  1  0
 28 29  2  0
 28 50  1  0
 29 30  1  0
 29 51  1  0
 30 31  2  0
 30 52  1  0
 31 53  1  0
 32 33  1  0
 32 54  1  0
 33 55  1  0
M  CHG  1  24   1
M  END
>  <DOCK_score>  (1) 
-56.580765

>  <SMILES>  (1) 
CCc1ccc(C=C[C@H](Nc2[nH]cc(-c3ccc(Br)cc3)[nH+]2)c2ccccc2)cc1

$$$$
