O=C1C=C(c2ccc([C@@H](O)C[NH+]=C(NC3CCCCC3)NC3CCCCC3)cc2)CC1
     RDKit          3D

 69 72  0  0  1  0  0  0  0  0999 V2000
  125.5886  139.0217  171.1501 O   0  0  0  0  0  0  0  0  0  0  0  0
  126.0625  138.1491  170.4510 C   0  0  0  0  0  0  0  0  0  0  0  0
  126.1058  138.1540  169.0476 C   0  0  0  0  0  0  0  0  0  0  0  0
  126.6862  137.0542  168.5356 C   0  0  0  0  0  0  0  0  0  0  0  0
  126.8676  136.7829  167.1019 C   0  0  0  0  0  0  0  0  0  0  0  0
  126.8781  135.4652  166.6311 C   0  0  0  0  0  0  0  0  0  0  0  0
  127.0483  135.2194  165.2853 C   0  0  0  0  0  0  0  0  0  0  0  0
  127.2081  136.2719  164.4005 C   0  0  0  0  0  0  0  0  0  0  0  0
  127.3931  135.9939  162.9310 C   0  0  1  0  0  0  0  0  0  0  0  0
  127.3732  134.9177  162.7595 H   0  0  0  0  0  0  0  0  0  0  0  0
  126.3381  136.6133  162.1925 O   0  0  0  0  0  0  0  0  0  0  0  0
  128.7382  136.5590  162.4703 C   0  0  0  0  0  0  0  0  0  0  0  0
  129.1414  135.9049  161.2230 N   0  0  0  0  0  0  0  0  0  0  0  0
  128.5733  135.2266  160.8255 H   0  0  0  0  0  0  0  0  0  0  0  0
  130.2634  136.2344  160.6474 C   0  0  0  0  0  0  0  0  0  0  0  0
  130.6418  135.6206  159.4769 N   0  0  0  0  0  0  0  0  0  0  0  0
  130.2279  134.2416  159.2060 C   0  0  0  0  0  0  0  0  0  0  0  0
  130.7739  133.3211  160.2993 C   0  0  0  0  0  0  0  0  0  0  0  0
  130.3417  131.8810  160.0164 C   0  0  0  0  0  0  0  0  0  0  0  0
  130.8912  131.4410  158.6579 C   0  0  0  0  0  0  0  0  0  0  0  0
  130.3452  132.3616  157.5645 C   0  0  0  0  0  0  0  0  0  0  0  0
  130.7775  133.8017  157.8475 C   0  0  0  0  0  0  0  0  0  0  0  0
  131.0685  137.1959  161.2108 N   0  0  0  0  0  0  0  0  0  0  0  0
  132.3297  137.5663  160.5638 C   0  0  0  0  0  0  0  0  0  0  0  0
  133.3361  138.0126  161.6263 C   0  0  0  0  0  0  0  0  0  0  0  0
  134.6532  138.3995  160.9507 C   0  0  0  0  0  0  0  0  0  0  0  0
  134.4052  139.5468  159.9692 C   0  0  0  0  0  0  0  0  0  0  0  0
  133.3988  139.1005  158.9068 C   0  0  0  0  0  0  0  0  0  0  0  0
  132.0817  138.7136  159.5824 C   0  0  0  0  0  0  0  0  0  0  0  0
  127.2047  137.5780  164.8589 C   0  0  0  0  0  0  0  0  0  0  0  0
  127.0303  137.8410  166.2008 C   0  0  0  0  0  0  0  0  0  0  0  0
  127.1294  136.1429  169.6554 C   0  0  0  0  0  0  0  0  0  0  0  0
  126.7122  136.8751  170.9443 C   0  0  0  0  0  0  0  0  0  0  0  0
  125.7110  138.9564  168.4421 H   0  0  0  0  0  0  0  0  0  0  0  0
  126.7528  134.6431  167.3201 H   0  0  0  0  0  0  0  0  0  0  0  0
  127.0567  134.2029  164.9203 H   0  0  0  0  0  0  0  0  0  0  0  0
  125.4546  136.3023  162.4328 H   0  0  0  0  0  0  0  0  0  0  0  0
  128.6436  137.6320  162.3038 H   0  0  0  0  0  0  0  0  0  0  0  0
  129.4911  136.3753  163.2368 H   0  0  0  0  0  0  0  0  0  0  0  0
  131.1828  136.1005  158.8304 H   0  0  0  0  0  0  0  0  0  0  0  0
  129.1395  134.1848  159.1932 H   0  0  0  0  0  0  0  0  0  0  0  0
  131.8623  133.3779  160.3120 H   0  0  0  0  0  0  0  0  0  0  0  0
  130.3824  133.6345  161.2671 H   0  0  0  0  0  0  0  0  0  0  0  0
  129.2533  131.8241  160.0036 H   0  0  0  0  0  0  0  0  0  0  0  0
  130.7307  131.2251  160.7952 H   0  0  0  0  0  0  0  0  0  0  0  0
  130.5833  130.4151  158.4563 H   0  0  0  0  0  0  0  0  0  0  0  0
  131.9796  131.4979  158.6706 H   0  0  0  0  0  0  0  0  0  0  0  0
  129.2567  132.3049  157.5518 H   0  0  0  0  0  0  0  0  0  0  0  0
  130.7367  132.0482  156.5967 H   0  0  0  0  0  0  0  0  0  0  0  0
  130.3885  134.4575  157.0685 H   0  0  0  0  0  0  0  0  0  0  0  0
  131.8659  133.8586  157.8602 H   0  0  0  0  0  0  0  0  0  0  0  0
  130.8016  137.6291  162.0366 H   0  0  0  0  0  0  0  0  0  0  0  0
  132.7278  136.7067  160.0247 H   0  0  0  0  0  0  0  0  0  0  0  0
  132.9382  138.8723  162.1654 H   0  0  0  0  0  0  0  0  0  0  0  0
  133.5128  137.1953  162.3255 H   0  0  0  0  0  0  0  0  0  0  0  0
  135.0513  137.5399  160.4115 H   0  0  0  0  0  0  0  0  0  0  0  0
  135.3702  138.7174  161.7076 H   0  0  0  0  0  0  0  0  0  0  0  0
  135.3435  139.8224  159.4879 H   0  0  0  0  0  0  0  0  0  0  0  0
  134.0072  140.4065  160.5084 H   0  0  0  0  0  0  0  0  0  0  0  0
  133.7968  138.2409  158.3677 H   0  0  0  0  0  0  0  0  0  0  0  0
  133.2222  139.9179  158.2076 H   0  0  0  0  0  0  0  0  0  0  0  0
  131.3647  138.3956  158.8255 H   0  0  0  0  0  0  0  0  0  0  0  0
  131.6836  139.5733  160.1216 H   0  0  0  0  0  0  0  0  0  0  0  0
  127.3347  138.3934  164.1626 H   0  0  0  0  0  0  0  0  0  0  0  0
  127.0234  138.8609  166.5563 H   0  0  0  0  0  0  0  0  0  0  0  0
  126.6230  135.1802  169.5847 H   0  0  0  0  0  0  0  0  0  0  0  0
  128.2103  136.0053  169.6279 H   0  0  0  0  0  0  0  0  0  0  0  0
  125.9977  136.2762  171.5093 H   0  0  0  0  0  0  0  0  0  0  0  0
  127.5863  137.1014  171.5549 H   0  0  0  0  0  0  0  0  0  0  0  0
  1  2  2  0
  2 33  1  0
  2  3  1  0
  3  4  2  0
  3 34  1  0
  4  5  1  0
  4 32  1  0
  5 31  1  0
  5  6  2  0
  6  7  1  0
  6 35  1  0
  7  8  2  0
  7 36  1  0
  8  9  1  0
  8 30  1  0
  9 10  1  1
  9 11  1  0
  9 12  1  0
 11 37  1  0
 12 13  1  0
 12 38  1  0
 12 39  1  0
 13 14  1  0
 13 15  2  0
 15 16  1  0
 15 23  1  0
 16 17  1  0
 16 40  1  0
 17 22  1  0
 17 18  1  0
 17 41  1  0
 18 19  1  0
 18 42  1  0
 18 43  1  0
 19 20  1  0
 19 44  1  0
 19 45  1  0
 20 21  1  0
 20 46  1  0
 20 47  1  0
 21 22  1  0
 21 48  1  0
 21 49  1  0
 22 50  1  0
 22 51  1  0
 23 24  1  0
 23 52  1  0
 24 29  1  0
 24 25  1  0
 24 53  1  0
 25 26  1  0
 25 54  1  0
 25 55  1  0
 26 27  1  0
 26 56  1  0
 26 57  1  0
 27 28  1  0
 27 58  1  0
 27 59  1  0
 28 29  1  0
 28 60  1  0
 28 61  1  0
 29 62  1  0
 29 63  1  0
 30 31  2  0
 30 64  1  0
 31 65  1  0
 32 33  1  0
 32 66  1  0
 32 67  1  0
 33 68  1  0
 33 69  1  0
M  CHG  1  13   1
M  END
>  <DOCK_score>  (1) 
-45.111752

>  <SMILES>  (1) 
O=C1C=C(c2ccc([C@@H](O)C[NH+]=C(NC3CCCCC3)NC3CCCCC3)cc2)CC1

$$$$
