CCc1ccc(-c2c[nH]c(Nc3cc(Cl)nc(NC[C@H](C)c4c[nH]c(-c5ccccc5)n4)c3)[nH+]2)cc1
     RDKit          3D

 65 69  0  0  1  0  0  0  0  0999 V2000
  129.7673  129.0621  150.7643 C   0  0  0  0  0  0  0  0  0  0  0  0
  131.0826  129.6035  151.3279 C   0  0  0  0  0  0  0  0  0  0  0  0
  130.8109  130.3515  152.6077 C   0  0  0  0  0  0  0  0  0  0  0  0
  130.8356  129.6814  153.8168 C   0  0  0  0  0  0  0  0  0  0  0  0
  130.5869  130.3620  154.9913 C   0  0  0  0  0  0  0  0  0  0  0  0
  130.3107  131.7276  154.9573 C   0  0  0  0  0  0  0  0  0  0  0  0
  130.0420  132.4644  156.2164 C   0  0  0  0  0  0  0  0  0  0  0  0
  129.4761  131.9505  157.3367 C   0  0  0  0  0  0  0  0  0  0  0  0
  129.4150  132.9690  158.2555 N   0  0  0  0  0  0  0  0  0  0  0  0
  129.0594  132.9097  159.1561 H   0  0  0  0  0  0  0  0  0  0  0  0
  129.9458  134.0768  157.6697 C   0  0  0  0  0  0  0  0  0  0  0  0
  130.0704  135.3229  158.2635 N   0  0  0  0  0  0  0  0  0  0  0  0
  129.1527  135.7288  159.2303 C   0  0  0  0  0  0  0  0  0  0  0  0
  127.8322  135.2763  159.1977 C   0  0  0  0  0  0  0  0  0  0  0  0
  126.9529  135.6945  160.1744 C   0  0  0  0  0  0  0  0  0  0  0  0
  125.3110  135.1315  160.1461 Cl  0  0  0  0  0  0  0  0  0  0  0  0
  127.3433  136.5177  161.1319 N   0  0  0  0  0  0  0  0  0  0  0  0
  128.5856  136.9749  161.1961 C   0  0  0  0  0  0  0  0  0  0  0  0
  128.9485  137.8390  162.2228 N   0  0  0  0  0  0  0  0  0  0  0  0
  127.9596  138.2400  163.2267 C   0  0  0  0  0  0  0  0  0  0  0  0
  128.6122  139.1871  164.2356 C   0  0  2  0  0  0  0  0  0  0  0  0
  127.8766  139.4854  164.9824 H   0  0  0  0  0  0  0  0  0  0  0  0
  129.1320  140.4284  163.5075 C   0  0  0  0  0  0  0  0  0  0  0  0
  129.7603  138.4850  164.9137 C   0  0  0  0  0  0  0  0  0  0  0  0
  129.8731  138.2546  166.2378 C   0  0  0  0  0  0  0  0  0  0  0  0
  131.0568  137.5947  166.4304 N   0  0  0  0  0  0  0  0  0  0  0  0
  131.4173  137.2923  167.2785 H   0  0  0  0  0  0  0  0  0  0  0  0
  131.6332  137.4428  165.2033 C   0  0  0  0  0  0  0  0  0  0  0  0
  132.9283  136.7823  164.9306 C   0  0  0  0  0  0  0  0  0  0  0  0
  133.1400  136.1299  163.7156 C   0  0  0  0  0  0  0  0  0  0  0  0
  134.3523  135.5207  163.4652 C   0  0  0  0  0  0  0  0  0  0  0  0
  135.3528  135.5459  164.4204 C   0  0  0  0  0  0  0  0  0  0  0  0
  135.1472  136.1864  165.6294 C   0  0  0  0  0  0  0  0  0  0  0  0
  133.9415  136.8042  165.8898 C   0  0  0  0  0  0  0  0  0  0  0  0
  130.8383  137.9789  164.3041 N   0  0  0  0  0  0  0  0  0  0  0  0
  129.5285  136.5992  160.2491 C   0  0  0  0  0  0  0  0  0  0  0  0
  130.3145  133.7724  156.4494 N   0  0  0  0  0  0  0  0  0  0  0  0
  130.7198  134.3843  155.8151 H   0  0  0  0  0  0  0  0  0  0  0  0
  130.2820  132.3973  153.7352 C   0  0  0  0  0  0  0  0  0  0  0  0
  130.5375  131.7076  152.5674 C   0  0  0  0  0  0  0  0  0  0  0  0
  129.9639  128.5206  149.8391 H   0  0  0  0  0  0  0  0  0  0  0  0
  129.3111  128.3884  151.4897 H   0  0  0  0  0  0  0  0  0  0  0  0
  129.0896  129.8917  150.5628 H   0  0  0  0  0  0  0  0  0  0  0  0
  131.5388  130.2771  150.6025 H   0  0  0  0  0  0  0  0  0  0  0  0
  131.7602  128.7738  151.5295 H   0  0  0  0  0  0  0  0  0  0  0  0
  131.0498  128.6232  153.8419 H   0  0  0  0  0  0  0  0  0  0  0  0
  130.6066  129.8373  155.9352 H   0  0  0  0  0  0  0  0  0  0  0  0
  129.1385  130.9345  157.4790 H   0  0  0  0  0  0  0  0  0  0  0  0
  130.7963  135.9124  158.0059 H   0  0  0  0  0  0  0  0  0  0  0  0
  127.5045  134.6032  158.4193 H   0  0  0  0  0  0  0  0  0  0  0  0
  129.8564  138.1767  162.2747 H   0  0  0  0  0  0  0  0  0  0  0  0
  127.1292  138.7479  162.7361 H   0  0  0  0  0  0  0  0  0  0  0  0
  127.5893  137.3558  163.7453 H   0  0  0  0  0  0  0  0  0  0  0  0
  129.8678  140.1300  162.7606 H   0  0  0  0  0  0  0  0  0  0  0  0
  128.3016  140.9361  163.0169 H   0  0  0  0  0  0  0  0  0  0  0  0
  129.5969  141.1032  164.2262 H   0  0  0  0  0  0  0  0  0  0  0  0
  129.1637  138.5373  167.0016 H   0  0  0  0  0  0  0  0  0  0  0  0
  132.3581  136.1057  162.9710 H   0  0  0  0  0  0  0  0  0  0  0  0
  134.5191  135.0194  162.5232 H   0  0  0  0  0  0  0  0  0  0  0  0
  136.2982  135.0634  164.2213 H   0  0  0  0  0  0  0  0  0  0  0  0
  135.9324  136.2027  166.3707 H   0  0  0  0  0  0  0  0  0  0  0  0
  133.7823  137.3040  166.8338 H   0  0  0  0  0  0  0  0  0  0  0  0
  130.5401  136.9730  160.3048 H   0  0  0  0  0  0  0  0  0  0  0  0
  130.0642  133.4546  153.7026 H   0  0  0  0  0  0  0  0  0  0  0  0
  130.5201  132.2263  151.6203 H   0  0  0  0  0  0  0  0  0  0  0  0
  1  2  1  0
  1 41  1  0
  1 42  1  0
  1 43  1  0
  2  3  1  0
  2 44  1  0
  2 45  1  0
  3 40  2  0
  3  4  1  0
  4  5  2  0
  4 46  1  0
  5  6  1  0
  5 47  1  0
  6  7  1  0
  6 39  2  0
  7 37  1  0
  7  8  2  0
  8  9  1  0
  8 48  1  0
  9 10  1  0
  9 11  1  0
 11 12  1  0
 11 37  2  0
 12 13  1  0
 12 49  1  0
 13 36  1  0
 13 14  2  0
 14 15  1  0
 14 50  1  0
 15 16  1  0
 15 17  2  0
 17 18  1  0
 18 19  1  0
 18 36  2  0
 19 20  1  0
 19 51  1  0
 20 21  1  0
 20 52  1  0
 20 53  1  0
 21 22  1  1
 21 23  1  0
 21 24  1  0
 23 54  1  0
 23 55  1  0
 23 56  1  0
 24 35  1  0
 24 25  2  0
 25 26  1  0
 25 57  1  0
 26 27  1  0
 26 28  1  0
 28 29  1  0
 28 35  2  0
 29 34  1  0
 29 30  2  0
 30 31  1  0
 30 58  1  0
 31 32  2  0
 31 59  1  0
 32 33  1  0
 32 60  1  0
 33 34  2  0
 33 61  1  0
 34 62  1  0
 36 63  1  0
 37 38  1  0
 39 40  1  0
 39 64  1  0
 40 65  1  0
M  CHG  1  37   1
M  END
>  <DOCK_score>  (1) 
-57.969807

>  <SMILES>  (1) 
CCc1ccc(-c2c[nH]c(Nc3cc(Cl)nc(NC[C@H](C)c4c[nH]c(-c5ccccc5)n4)c3)[nH+]2)cc1

$$$$
