Cc1ccc(-c2c[nH]c(NC(C[C@@H]3CC=CCC3)c3ccccc3)[nH+]2)cc1
     RDKit          3D

 55 58  0  0  1  0  0  0  0  0999 V2000
  131.8223  129.4369  152.0356 C   0  0  0  0  0  0  0  0  0  0  0  0
  131.4109  130.1716  153.2854 C   0  0  0  0  0  0  0  0  0  0  0  0
  130.6372  131.3148  153.1891 C   0  0  0  0  0  0  0  0  0  0  0  0
  130.2579  131.9924  154.3299 C   0  0  0  0  0  0  0  0  0  0  0  0
  130.6557  131.5233  155.5807 C   0  0  0  0  0  0  0  0  0  0  0  0
  130.2513  132.2472  156.8104 C   0  0  0  0  0  0  0  0  0  0  0  0
  129.5141  131.7398  157.8293 C   0  0  0  0  0  0  0  0  0  0  0  0
  129.3786  132.7408  158.7603 N   0  0  0  0  0  0  0  0  0  0  0  0
  128.9039  132.6802  159.6041 H   0  0  0  0  0  0  0  0  0  0  0  0
  130.0306  133.8340  158.2791 C   0  0  0  0  0  0  0  0  0  0  0  0
  130.1304  135.0589  158.9165 N   0  0  0  0  0  0  0  0  0  0  0  0
  129.0595  135.5097  159.8087 C   0  0  1  0  0  0  0  0  0  0  0  0
  129.4155  136.8840  160.3790 C   0  0  0  0  0  0  0  0  0  0  0  0
  130.7255  136.7870  161.1632 C   0  0  2  0  0  0  0  0  0  0  0  0
  131.5683  136.8042  160.4724 H   0  0  0  0  0  0  0  0  0  0  0  0
  130.7475  135.4862  161.9690 C   0  0  0  0  0  0  0  0  0  0  0  0
  131.8920  135.4984  162.9395 C   0  0  0  0  0  0  0  0  0  0  0  0
  132.5299  136.5672  163.2950 C   0  0  0  0  0  0  0  0  0  0  0  0
  132.2209  137.9419  162.7786 C   0  0  0  0  0  0  0  0  0  0  0  0
  130.8301  137.9646  162.1405 C   0  0  0  0  0  0  0  0  0  0  0  0
  127.7691  135.6055  159.0360 C   0  0  0  0  0  0  0  0  0  0  0  0
  126.5625  135.3951  159.6771 C   0  0  0  0  0  0  0  0  0  0  0  0
  125.3788  135.4832  158.9685 C   0  0  0  0  0  0  0  0  0  0  0  0
  125.4017  135.7816  157.6189 C   0  0  0  0  0  0  0  0  0  0  0  0
  126.6086  135.9862  156.9767 C   0  0  0  0  0  0  0  0  0  0  0  0
  127.7920  135.9033  157.6864 C   0  0  0  0  0  0  0  0  0  0  0  0
  130.5534  133.5344  157.1151 N   0  0  0  0  0  0  0  0  0  0  0  0
  131.0728  134.1368  156.5599 H   0  0  0  0  0  0  0  0  0  0  0  0
  131.4399  130.3745  155.6711 C   0  0  0  0  0  0  0  0  0  0  0  0
  131.8091  129.7023  154.5238 C   0  0  0  0  0  0  0  0  0  0  0  0
  132.7733  129.8319  151.6780 H   0  0  0  0  0  0  0  0  0  0  0  0
  131.9302  128.3753  152.2578 H   0  0  0  0  0  0  0  0  0  0  0  0
  131.0610  129.5718  151.2674 H   0  0  0  0  0  0  0  0  0  0  0  0
  130.3295  131.6774  152.2194 H   0  0  0  0  0  0  0  0  0  0  0  0
  129.6542  132.8847  154.2537 H   0  0  0  0  0  0  0  0  0  0  0  0
  129.1138  130.7391  157.8976 H   0  0  0  0  0  0  0  0  0  0  0  0
  130.9094  135.6186  158.7725 H   0  0  0  0  0  0  0  0  0  0  0  0
  128.9422  134.7969  160.6249 H   0  0  0  0  0  0  0  0  0  0  0  0
  129.5326  137.5970  159.5629 H   0  0  0  0  0  0  0  0  0  0  0  0
  128.6186  137.2195  161.0428 H   0  0  0  0  0  0  0  0  0  0  0  0
  129.8106  135.3845  162.5167 H   0  0  0  0  0  0  0  0  0  0  0  0
  130.8595  134.6417  161.2889 H   0  0  0  0  0  0  0  0  0  0  0  0
  132.2028  134.5571  163.3681 H   0  0  0  0  0  0  0  0  0  0  0  0
  133.3350  136.4630  164.0076 H   0  0  0  0  0  0  0  0  0  0  0  0
  132.2513  138.6533  163.6039 H   0  0  0  0  0  0  0  0  0  0  0  0
  132.9637  138.2228  162.0319 H   0  0  0  0  0  0  0  0  0  0  0  0
  130.6896  138.9016  161.6015 H   0  0  0  0  0  0  0  0  0  0  0  0
  130.0696  137.8666  162.9153 H   0  0  0  0  0  0  0  0  0  0  0  0
  126.5445  135.1620  160.7316 H   0  0  0  0  0  0  0  0  0  0  0  0
  124.4362  135.3188  159.4693 H   0  0  0  0  0  0  0  0  0  0  0  0
  124.4769  135.8501  157.0653 H   0  0  0  0  0  0  0  0  0  0  0  0
  126.6267  136.2149  155.9213 H   0  0  0  0  0  0  0  0  0  0  0  0
  128.7346  136.0673  157.1855 H   0  0  0  0  0  0  0  0  0  0  0  0
  131.7549  130.0093  156.6374 H   0  0  0  0  0  0  0  0  0  0  0  0
  132.4136  128.8100  154.5929 H   0  0  0  0  0  0  0  0  0  0  0  0
  1  2  1  0
  1 31  1  0
  1 32  1  0
  1 33  1  0
  2 30  2  0
  2  3  1  0
  3  4  2  0
  3 34  1  0
  4  5  1  0
  4 35  1  0
  5  6  1  0
  5 29  2  0
  6 27  1  0
  6  7  2  0
  7  8  1  0
  7 36  1  0
  8  9  1  0
  8 10  1  0
 10 11  1  0
 10 27  2  0
 11 12  1  0
 11 37  1  0
 12 13  1  0
 12 21  1  0
 12 38  1  1
 13 14  1  0
 13 39  1  0
 13 40  1  0
 14 15  1  6
 14 20  1  0
 14 16  1  0
 16 17  1  0
 16 41  1  0
 16 42  1  0
 17 18  2  0
 17 43  1  0
 18 19  1  0
 18 44  1  0
 19 20  1  0
 19 45  1  0
 19 46  1  0
 20 47  1  0
 20 48  1  0
 21 26  1  0
 21 22  2  0
 22 23  1  0
 22 49  1  0
 23 24  2  0
 23 50  1  0
 24 25  1  0
 24 51  1  0
 25 26  2  0
 25 52  1  0
 26 53  1  0
 27 28  1  0
 29 30  1  0
 29 54  1  0
 30 55  1  0
M  CHG  1  27   1
M  END
>  <DOCK_score>  (1) 
-58.945694

>  <SMILES>  (1) 
Cc1ccc(-c2c[nH]c(NC(C[C@@H]3CC=CCC3)c3ccccc3)[nH+]2)cc1

$$$$
