N#CC=CNc1cccc(N2CC[NH+](C(c3ccccc3)c3ccccc3)CC2)c1CO
     RDKit          3D

 61 64  0  0  1  0  0  0  0  0999 V2000
  133.7461  142.6338  167.0792 N   0  0  0  0  0  0  0  0  0  0  0  0
  134.4505  142.1716  166.3170 C   0  0  0  0  0  0  0  0  0  0  0  0
  135.3384  141.5889  165.3563 C   0  0  0  0  0  0  0  0  0  0  0  0
  134.8518  141.1009  164.1980 C   0  0  0  0  0  0  0  0  0  0  0  0
  135.7021  140.5429  163.2780 N   0  0  0  0  0  0  0  0  0  0  0  0
  135.1977  140.0369  162.0772 C   0  0  0  0  0  0  0  0  0  0  0  0
  135.6314  140.5604  160.8648 C   0  0  0  0  0  0  0  0  0  0  0  0
  135.1333  140.0608  159.6774 C   0  0  0  0  0  0  0  0  0  0  0  0
  134.2030  139.0389  159.6901 C   0  0  0  0  0  0  0  0  0  0  0  0
  133.7654  138.5108  160.8987 C   0  0  0  0  0  0  0  0  0  0  0  0
  132.8248  137.4782  160.9106 N   0  0  0  0  0  0  0  0  0  0  0  0
  133.3635  136.2677  160.2747 C   0  0  0  0  0  0  0  0  0  0  0  0
  132.3270  135.1453  160.3615 C   0  0  0  0  0  0  0  0  0  0  0  0
  131.0921  135.5658  159.6862 N   0  0  0  0  0  0  0  0  0  0  0  0
  131.2925  135.7778  158.7205 H   0  0  0  0  0  0  0  0  0  0  0  0
  130.1037  134.4812  159.7542 C   0  0  0  0  0  0  0  0  0  0  0  0
  128.8366  134.9122  159.0615 C   0  0  0  0  0  0  0  0  0  0  0  0
  127.6172  134.4098  159.4758 C   0  0  0  0  0  0  0  0  0  0  0  0
  126.4545  134.8088  158.8436 C   0  0  0  0  0  0  0  0  0  0  0  0
  126.5120  135.7023  157.7903 C   0  0  0  0  0  0  0  0  0  0  0  0
  127.7320  136.2006  157.3727 C   0  0  0  0  0  0  0  0  0  0  0  0
  128.8942  135.8056  158.0083 C   0  0  0  0  0  0  0  0  0  0  0  0
  130.6558  133.2550  159.0740 C   0  0  0  0  0  0  0  0  0  0  0  0
  130.4334  133.0540  157.7245 C   0  0  0  0  0  0  0  0  0  0  0  0
  130.9439  131.9317  157.0995 C   0  0  0  0  0  0  0  0  0  0  0  0
  131.6682  131.0051  157.8262 C   0  0  0  0  0  0  0  0  0  0  0  0
  131.8862  131.2036  159.1767 C   0  0  0  0  0  0  0  0  0  0  0  0
  131.3800  132.3285  159.8006 C   0  0  0  0  0  0  0  0  0  0  0  0
  130.5529  136.7612  160.3480 C   0  0  0  0  0  0  0  0  0  0  0  0
  131.5748  137.8970  160.2610 C   0  0  0  0  0  0  0  0  0  0  0  0
  134.2633  139.0110  162.0937 C   0  0  0  0  0  0  0  0  0  0  0  0
  133.7903  138.4414  163.4062 C   0  0  0  0  0  0  0  0  0  0  0  0
  132.6452  139.1685  163.8560 O   0  0  0  0  0  0  0  0  0  0  0  0
  136.3979  141.5405  165.5600 H   0  0  0  0  0  0  0  0  0  0  0  0
  133.7922  141.1493  163.9944 H   0  0  0  0  0  0  0  0  0  0  0  0
  136.6537  140.4994  163.4609 H   0  0  0  0  0  0  0  0  0  0  0  0
  136.3586  141.3587  160.8512 H   0  0  0  0  0  0  0  0  0  0  0  0
  135.4717  140.4694  158.7367 H   0  0  0  0  0  0  0  0  0  0  0  0
  133.8125  138.6534  158.7600 H   0  0  0  0  0  0  0  0  0  0  0  0
  133.5878  136.4755  159.2285 H   0  0  0  0  0  0  0  0  0  0  0  0
  134.2749  135.9617  160.7885 H   0  0  0  0  0  0  0  0  0  0  0  0
  132.1131  134.9284  161.4080 H   0  0  0  0  0  0  0  0  0  0  0  0
  132.7189  134.2506  159.8777 H   0  0  0  0  0  0  0  0  0  0  0  0
  129.8873  134.2514  160.7975 H   0  0  0  0  0  0  0  0  0  0  0  0
  127.5726  133.7084  160.2959 H   0  0  0  0  0  0  0  0  0  0  0  0
  125.5014  134.4192  159.1696 H   0  0  0  0  0  0  0  0  0  0  0  0
  125.6040  136.0107  157.2935 H   0  0  0  0  0  0  0  0  0  0  0  0
  127.7769  136.8983  156.5495 H   0  0  0  0  0  0  0  0  0  0  0  0
  129.8473  136.1947  157.6817 H   0  0  0  0  0  0  0  0  0  0  0  0
  129.8637  133.7755  157.1577 H   0  0  0  0  0  0  0  0  0  0  0  0
  130.7733  131.7765  156.0445 H   0  0  0  0  0  0  0  0  0  0  0  0
  132.0634  130.1261  157.3388 H   0  0  0  0  0  0  0  0  0  0  0  0
  132.4517  130.4795  159.7445 H   0  0  0  0  0  0  0  0  0  0  0  0
  131.5501  132.4833  160.8558 H   0  0  0  0  0  0  0  0  0  0  0  0
  130.3482  136.5360  161.3946 H   0  0  0  0  0  0  0  0  0  0  0  0
  129.6298  137.0644  159.8541 H   0  0  0  0  0  0  0  0  0  0  0  0
  131.1810  138.7798  160.7650 H   0  0  0  0  0  0  0  0  0  0  0  0
  131.7695  138.1317  159.2146 H   0  0  0  0  0  0  0  0  0  0  0  0
  133.5252  137.3926  163.2728 H   0  0  0  0  0  0  0  0  0  0  0  0
  134.5865  138.5235  164.1460 H   0  0  0  0  0  0  0  0  0  0  0  0
  131.8959  139.1390  163.2456 H   0  0  0  0  0  0  0  0  0  0  0  0
  1  2  3  0
  2  3  1  0
  3  4  2  0
  3 34  1  0
  4  5  1  0
  4 35  1  0
  5  6  1  0
  5 36  1  0
  6 31  2  0
  6  7  1  0
  7  8  2  0
  7 37  1  0
  8  9  1  0
  8 38  1  0
  9 10  2  0
  9 39  1  0
 10 11  1  0
 10 31  1  0
 11 30  1  0
 11 12  1  0
 12 13  1  0
 12 40  1  0
 12 41  1  0
 13 14  1  0
 13 42  1  0
 13 43  1  0
 14 15  1  0
 14 16  1  0
 14 29  1  0
 16 17  1  0
 16 23  1  0
 16 44  1  0
 17 22  1  0
 17 18  2  0
 18 19  1  0
 18 45  1  0
 19 20  2  0
 19 46  1  0
 20 21  1  0
 20 47  1  0
 21 22  2  0
 21 48  1  0
 22 49  1  0
 23 28  1  0
 23 24  2  0
 24 25  1  0
 24 50  1  0
 25 26  2  0
 25 51  1  0
 26 27  1  0
 26 52  1  0
 27 28  2  0
 27 53  1  0
 28 54  1  0
 29 30  1  0
 29 55  1  0
 29 56  1  0
 30 57  1  0
 30 58  1  0
 31 32  1  0
 32 33  1  0
 32 59  1  0
 32 60  1  0
 33 61  1  0
M  CHG  1  14   1
M  END
>  <DOCK_score>  (1) 
-59.88131

>  <SMILES>  (1) 
N#CC=CNc1cccc(N2CC[NH+](C(c3ccccc3)c3ccccc3)CC2)c1CO

$$$$
