C1=C(c2c[nH]c(N[C@@H](Cc3ccc(-c4ccccc4)cc3)c3ccccc3)[nH+]2)CCC1
     RDKit          3D

 59 63  0  0  1  0  0  0  0  0999 V2000
  130.0606  131.7124  153.7750 C   0  0  0  0  0  0  0  0  0  0  0  0
  130.5258  131.2809  154.9355 C   0  0  0  0  0  0  0  0  0  0  0  0
  130.3005  131.9530  156.2315 C   0  0  0  0  0  0  0  0  0  0  0  0
  129.6741  131.4182  157.3118 C   0  0  0  0  0  0  0  0  0  0  0  0
  129.6840  132.3781  158.2934 N   0  0  0  0  0  0  0  0  0  0  0  0
  129.3103  132.2923  159.1844 H   0  0  0  0  0  0  0  0  0  0  0  0
  130.3156  133.4722  157.7864 C   0  0  0  0  0  0  0  0  0  0  0  0
  130.5342  134.6610  158.4611 N   0  0  0  0  0  0  0  0  0  0  0  0
  129.5921  135.1018  159.4928 C   0  0  1  0  0  0  0  0  0  0  0  0
  129.5449  134.3544  160.2847 H   0  0  0  0  0  0  0  0  0  0  0  0
  130.0629  136.4351  160.0771 C   0  0  0  0  0  0  0  0  0  0  0  0
  131.1529  136.1841  161.0871 C   0  0  0  0  0  0  0  0  0  0  0  0
  132.4752  136.1584  160.6818 C   0  0  0  0  0  0  0  0  0  0  0  0
  133.4776  135.9294  161.6026 C   0  0  0  0  0  0  0  0  0  0  0  0
  133.1554  135.7233  162.9424 C   0  0  0  0  0  0  0  0  0  0  0  0
  134.2286  135.4757  163.9368 C   0  0  0  0  0  0  0  0  0  0  0  0
  134.0625  135.8791  165.2601 C   0  0  0  0  0  0  0  0  0  0  0  0
  135.0620  135.6419  166.1819 C   0  0  0  0  0  0  0  0  0  0  0  0
  136.2307  135.0145  165.7924 C   0  0  0  0  0  0  0  0  0  0  0  0
  136.4036  134.6165  164.4783 C   0  0  0  0  0  0  0  0  0  0  0  0
  135.4086  134.8441  163.5493 C   0  0  0  0  0  0  0  0  0  0  0  0
  131.8217  135.7502  163.3451 C   0  0  0  0  0  0  0  0  0  0  0  0
  130.8275  135.9806  162.4160 C   0  0  0  0  0  0  0  0  0  0  0  0
  128.2249  135.2752  158.8834 C   0  0  0  0  0  0  0  0  0  0  0  0
  127.0945  135.0672  159.6513 C   0  0  0  0  0  0  0  0  0  0  0  0
  125.8403  135.2301  159.0934 C   0  0  0  0  0  0  0  0  0  0  0  0
  125.7164  135.5930  157.7653 C   0  0  0  0  0  0  0  0  0  0  0  0
  126.8467  135.7959  156.9959 C   0  0  0  0  0  0  0  0  0  0  0  0
  128.1010  135.6368  157.5549 C   0  0  0  0  0  0  0  0  0  0  0  0
  130.6776  133.2174  156.5531 N   0  0  0  0  0  0  0  0  0  0  0  0
  131.1423  133.8328  155.9647 H   0  0  0  0  0  0  0  0  0  0  0  0
  131.3136  130.0038  154.7568 C   0  0  0  0  0  0  0  0  0  0  0  0
  131.6262  129.9404  153.2441 C   0  0  0  0  0  0  0  0  0  0  0  0
  130.4792  130.7913  152.6527 C   0  0  0  0  0  0  0  0  0  0  0  0
  129.4644  132.6038  153.6468 H   0  0  0  0  0  0  0  0  0  0  0  0
  129.2494  130.4278  157.3846 H   0  0  0  0  0  0  0  0  0  0  0  0
  131.3113  135.2023  158.2507 H   0  0  0  0  0  0  0  0  0  0  0  0
  129.2251  136.9347  160.5635 H   0  0  0  0  0  0  0  0  0  0  0  0
  130.4478  137.0671  159.2767 H   0  0  0  0  0  0  0  0  0  0  0  0
  132.7233  136.3136  159.6422 H   0  0  0  0  0  0  0  0  0  0  0  0
  134.5096  135.9093  161.2850 H   0  0  0  0  0  0  0  0  0  0  0  0
  133.1515  136.3729  165.5649 H   0  0  0  0  0  0  0  0  0  0  0  0
  134.9324  135.9503  167.2088 H   0  0  0  0  0  0  0  0  0  0  0  0
  137.0127  134.8348  166.5153 H   0  0  0  0  0  0  0  0  0  0  0  0
  137.3189  134.1272  164.1791 H   0  0  0  0  0  0  0  0  0  0  0  0
  135.5444  134.5332  162.5240 H   0  0  0  0  0  0  0  0  0  0  0  0
  131.5665  135.5914  164.3824 H   0  0  0  0  0  0  0  0  0  0  0  0
  129.7934  136.0016  162.7270 H   0  0  0  0  0  0  0  0  0  0  0  0
  127.1912  134.7803  160.6880 H   0  0  0  0  0  0  0  0  0  0  0  0
  124.9571  135.0712  159.6945 H   0  0  0  0  0  0  0  0  0  0  0  0
  124.7365  135.7176  157.3287 H   0  0  0  0  0  0  0  0  0  0  0  0
  126.7500  136.0791  155.9582 H   0  0  0  0  0  0  0  0  0  0  0  0
  128.9842  135.7953  156.9538 H   0  0  0  0  0  0  0  0  0  0  0  0
  132.2375  130.0441  155.3337 H   0  0  0  0  0  0  0  0  0  0  0  0
  130.7151  129.1438  155.0570 H   0  0  0  0  0  0  0  0  0  0  0  0
  132.5961  130.3875  153.0268 H   0  0  0  0  0  0  0  0  0  0  0  0
  131.5800  128.9146  152.8786 H   0  0  0  0  0  0  0  0  0  0  0  0
  130.8355  131.3672  151.7986 H   0  0  0  0  0  0  0  0  0  0  0  0
  129.6454  130.1531  152.3598 H   0  0  0  0  0  0  0  0  0  0  0  0
  1 34  1  0
  1  2  2  0
  1 35  1  0
  2  3  1  0
  2 32  1  0
  3 30  1  0
  3  4  2  0
  4  5  1  0
  4 36  1  0
  5  6  1  0
  5  7  1  0
  7  8  1  0
  7 30  2  0
  8  9  1  0
  8 37  1  0
  9 10  1  1
  9 11  1  0
  9 24  1  0
 11 12  1  0
 11 38  1  0
 11 39  1  0
 12 23  1  0
 12 13  2  0
 13 14  1  0
 13 40  1  0
 14 15  2  0
 14 41  1  0
 15 16  1  0
 15 22  1  0
 16 21  1  0
 16 17  2  0
 17 18  1  0
 17 42  1  0
 18 19  2  0
 18 43  1  0
 19 20  1  0
 19 44  1  0
 20 21  2  0
 20 45  1  0
 21 46  1  0
 22 23  2  0
 22 47  1  0
 23 48  1  0
 24 29  1  0
 24 25  2  0
 25 26  1  0
 25 49  1  0
 26 27  2  0
 26 50  1  0
 27 28  1  0
 27 51  1  0
 28 29  2  0
 28 52  1  0
 29 53  1  0
 30 31  1  0
 32 33  1  0
 32 54  1  0
 32 55  1  0
 33 34  1  0
 33 56  1  0
 33 57  1  0
 34 58  1  0
 34 59  1  0
M  CHG  1  30   1
M  END
>  <DOCK_score>  (1) 
-63.900513

>  <SMILES>  (1) 
C1=C(c2c[nH]c(N[C@@H](Cc3ccc(-c4ccccc4)cc3)c3ccccc3)[nH+]2)CCC1

$$$$
