Oc1ccc(-c2ccc(-c3c[nH]c(N[C@H](c4ccccc4)[C@H](O)c4ccccc4)[nH+]3)cc2)cc1
     RDKit          3D

 60 64  0  0  1  0  0  0  0  0999 V2000
  130.2579  127.8878  150.1155 O   0  0  0  0  0  0  0  0  0  0  0  0
  130.3038  128.6317  151.2516 C   0  0  0  0  0  0  0  0  0  0  0  0
  131.0761  128.2093  152.3257 C   0  0  0  0  0  0  0  0  0  0  0  0
  131.1245  128.9621  153.4801 C   0  0  0  0  0  0  0  0  0  0  0  0
  130.3975  130.1484  153.5679 C   0  0  0  0  0  0  0  0  0  0  0  0
  130.4473  130.9604  154.8076 C   0  0  0  0  0  0  0  0  0  0  0  0
  130.2932  132.3449  154.7414 C   0  0  0  0  0  0  0  0  0  0  0  0
  130.3396  133.0989  155.8930 C   0  0  0  0  0  0  0  0  0  0  0  0
  130.5408  132.4779  157.1258 C   0  0  0  0  0  0  0  0  0  0  0  0
  130.5907  133.2894  158.3654 C   0  0  0  0  0  0  0  0  0  0  0  0
  130.2180  132.8796  159.6037 C   0  0  0  0  0  0  0  0  0  0  0  0
  130.4201  133.9406  160.4523 N   0  0  0  0  0  0  0  0  0  0  0  0
  130.2425  133.9556  161.4059 H   0  0  0  0  0  0  0  0  0  0  0  0
  130.9163  134.9669  159.7087 C   0  0  0  0  0  0  0  0  0  0  0  0
  131.2557  136.2200  160.1889 N   0  0  0  0  0  0  0  0  0  0  0  0
  131.0893  136.5291  161.6113 C   0  0  2  0  0  0  0  0  0  0  0  0
  131.6968  135.8461  162.2051 H   0  0  0  0  0  0  0  0  0  0  0  0
  129.6397  136.3734  161.9929 C   0  0  0  0  0  0  0  0  0  0  0  0
  129.3004  135.9917  163.2775 C   0  0  0  0  0  0  0  0  0  0  0  0
  127.9707  135.8529  163.6287 C   0  0  0  0  0  0  0  0  0  0  0  0
  126.9805  136.0870  162.6929 C   0  0  0  0  0  0  0  0  0  0  0  0
  127.3200  136.4635  161.4070 C   0  0  0  0  0  0  0  0  0  0  0  0
  128.6496  136.6065  161.0568 C   0  0  0  0  0  0  0  0  0  0  0  0
  131.5345  137.9689  161.8758 C   0  0  2  0  0  0  0  0  0  0  0  0
  131.0975  138.3181  162.8112 H   0  0  0  0  0  0  0  0  0  0  0  0
  131.0979  138.8069  160.8038 O   0  0  0  0  0  0  0  0  0  0  0  0
  133.0374  138.0201  161.9735 C   0  0  0  0  0  0  0  0  0  0  0  0
  133.6564  137.8543  163.1983 C   0  0  0  0  0  0  0  0  0  0  0  0
  135.0352  137.8970  163.2873 C   0  0  0  0  0  0  0  0  0  0  0  0
  135.7946  138.1145  162.1529 C   0  0  0  0  0  0  0  0  0  0  0  0
  135.1754  138.2854  160.9289 C   0  0  0  0  0  0  0  0  0  0  0  0
  133.7968  138.2385  160.8392 C   0  0  0  0  0  0  0  0  0  0  0  0
  131.0202  134.5730  158.4629 N   0  0  0  0  0  0  0  0  0  0  0  0
  131.3477  135.1140  157.7274 H   0  0  0  0  0  0  0  0  0  0  0  0
  130.7005  131.0937  157.1913 C   0  0  0  0  0  0  0  0  0  0  0  0
  130.6484  130.3391  156.0403 C   0  0  0  0  0  0  0  0  0  0  0  0
  129.6196  130.5674  152.4894 C   0  0  0  0  0  0  0  0  0  0  0  0
  129.5790  129.8125  151.3361 C   0  0  0  0  0  0  0  0  0  0  0  0
  130.7950  127.0838  150.1501 H   0  0  0  0  0  0  0  0  0  0  0  0
  131.6386  127.2898  152.2572 H   0  0  0  0  0  0  0  0  0  0  0  0
  131.7248  128.6328  154.3154 H   0  0  0  0  0  0  0  0  0  0  0  0
  130.1378  132.8258  153.7870 H   0  0  0  0  0  0  0  0  0  0  0  0
  130.2200  134.1710  155.8418 H   0  0  0  0  0  0  0  0  0  0  0  0
  129.8314  131.9070  159.8703 H   0  0  0  0  0  0  0  0  0  0  0  0
  131.6039  136.8934  159.5838 H   0  0  0  0  0  0  0  0  0  0  0  0
  130.0742  135.8051  164.0075 H   0  0  0  0  0  0  0  0  0  0  0  0
  127.7055  135.5591  164.6337 H   0  0  0  0  0  0  0  0  0  0  0  0
  125.9418  135.9759  162.9668 H   0  0  0  0  0  0  0  0  0  0  0  0
  126.5463  136.6463  160.6759 H   0  0  0  0  0  0  0  0  0  0  0  0
  128.9148  136.9007  160.0522 H   0  0  0  0  0  0  0  0  0  0  0  0
  131.3456  139.7362  160.9051 H   0  0  0  0  0  0  0  0  0  0  0  0
  133.0629  137.6881  164.0851 H   0  0  0  0  0  0  0  0  0  0  0  0
  135.5190  137.7630  164.2435 H   0  0  0  0  0  0  0  0  0  0  0  0
  136.8718  138.1504  162.2228 H   0  0  0  0  0  0  0  0  0  0  0  0
  135.7686  138.4553  160.0426 H   0  0  0  0  0  0  0  0  0  0  0  0
  133.3129  138.3721  159.8829 H   0  0  0  0  0  0  0  0  0  0  0  0
  130.8608  130.6131  158.1452 H   0  0  0  0  0  0  0  0  0  0  0  0
  130.7676  129.2669  156.0915 H   0  0  0  0  0  0  0  0  0  0  0  0
  129.0520  131.4839  152.5559 H   0  0  0  0  0  0  0  0  0  0  0  0
  128.9791  130.1380  150.4990 H   0  0  0  0  0  0  0  0  0  0  0  0
  1  2  1  0
  1 39  1  0
  2 38  2  0
  2  3  1  0
  3  4  2  0
  3 40  1  0
  4  5  1  0
  4 41  1  0
  5  6  1  0
  5 37  2  0
  6 36  1  0
  6  7  2  0
  7  8  1  0
  7 42  1  0
  8  9  2  0
  8 43  1  0
  9 10  1  0
  9 35  1  0
 10 33  1  0
 10 11  2  0
 11 12  1  0
 11 44  1  0
 12 13  1  0
 12 14  1  0
 14 15  1  0
 14 33  2  0
 15 16  1  0
 15 45  1  0
 16 17  1  1
 16 18  1  0
 16 24  1  0
 18 23  1  0
 18 19  2  0
 19 20  1  0
 19 46  1  0
 20 21  2  0
 20 47  1  0
 21 22  1  0
 21 48  1  0
 22 23  2  0
 22 49  1  0
 23 50  1  0
 24 25  1  1
 24 26  1  0
 24 27  1  0
 26 51  1  0
 27 32  1  0
 27 28  2  0
 28 29  1  0
 28 52  1  0
 29 30  2  0
 29 53  1  0
 30 31  1  0
 30 54  1  0
 31 32  2  0
 31 55  1  0
 32 56  1  0
 33 34  1  0
 35 36  2  0
 35 57  1  0
 36 58  1  0
 37 38  1  0
 37 59  1  0
 38 60  1  0
M  CHG  1  33   1
M  END
>  <DOCK_score>  (1) 
-57.271187

>  <SMILES>  (1) 
Oc1ccc(-c2ccc(-c3c[nH]c(N[C@H](c4ccccc4)[C@H](O)c4ccccc4)[nH+]3)cc2)cc1

$$$$
