Nc1ccc(-c2c[nH]c(N[C@@H](c3ccc(Cl)cc3)c3ccccc3Cl)[nH+]2)cc1
     RDKit          3D

 47 50  0  0  1  0  0  0  0  0999 V2000
  131.2362  129.5242  151.9987 N   0  0  0  0  0  0  0  0  0  0  0  0
  130.9678  130.2371  153.1697 C   0  0  0  0  0  0  0  0  0  0  0  0
  130.2133  131.4031  153.1146 C   0  0  0  0  0  0  0  0  0  0  0  0
  129.9471  132.1082  154.2693 C   0  0  0  0  0  0  0  0  0  0  0  0
  130.4352  131.6511  155.4923 C   0  0  0  0  0  0  0  0  0  0  0  0
  130.1501  132.4081  156.7359 C   0  0  0  0  0  0  0  0  0  0  0  0
  129.4826  131.9403  157.8194 C   0  0  0  0  0  0  0  0  0  0  0  0
  129.4457  132.9632  158.7372 N   0  0  0  0  0  0  0  0  0  0  0  0
  129.0349  132.9328  159.6154 H   0  0  0  0  0  0  0  0  0  0  0  0
  130.0924  134.0261  158.1862 C   0  0  0  0  0  0  0  0  0  0  0  0
  130.2770  135.2587  158.7889 N   0  0  0  0  0  0  0  0  0  0  0  0
  129.7541  135.5010  160.1358 C   0  0  1  0  0  0  0  0  0  0  0  0
  130.2066  134.7963  160.8335 H   0  0  0  0  0  0  0  0  0  0  0  0
  130.0863  136.9091  160.5578 C   0  0  0  0  0  0  0  0  0  0  0  0
  130.2755  137.2029  161.8954 C   0  0  0  0  0  0  0  0  0  0  0  0
  130.5857  138.4929  162.2826 C   0  0  0  0  0  0  0  0  0  0  0  0
  130.6957  139.4926  161.3325 C   0  0  0  0  0  0  0  0  0  0  0  0
  131.0788  141.1144  161.8187 Cl  0  0  0  0  0  0  0  0  0  0  0  0
  130.5006  139.1990  159.9947 C   0  0  0  0  0  0  0  0  0  0  0  0
  130.1960  137.9075  159.6081 C   0  0  0  0  0  0  0  0  0  0  0  0
  128.2585  135.3166  160.1348 C   0  0  0  0  0  0  0  0  0  0  0  0
  127.5297  135.5847  158.9911 C   0  0  0  0  0  0  0  0  0  0  0  0
  126.1580  135.4147  158.9897 C   0  0  0  0  0  0  0  0  0  0  0  0
  125.5139  134.9764  160.1320 C   0  0  0  0  0  0  0  0  0  0  0  0
  126.2414  134.7085  161.2760 C   0  0  0  0  0  0  0  0  0  0  0  0
  127.6139  134.8844  161.2798 C   0  0  0  0  0  0  0  0  0  0  0  0
  128.5274  134.5554  162.7190 Cl  0  0  0  0  0  0  0  0  0  0  0  0
  130.5069  133.6924  156.9882 N   0  0  0  0  0  0  0  0  0  0  0  0
  130.9932  134.2708  156.3801 H   0  0  0  0  0  0  0  0  0  0  0  0
  131.1967  130.4845  155.5443 C   0  0  0  0  0  0  0  0  0  0  0  0
  131.4552  129.7791  154.3880 C   0  0  0  0  0  0  0  0  0  0  0  0
  130.8962  129.8430  151.1481 H   0  0  0  0  0  0  0  0  0  0  0  0
  131.7628  128.7104  152.0362 H   0  0  0  0  0  0  0  0  0  0  0  0
  129.8356  131.7571  152.1668 H   0  0  0  0  0  0  0  0  0  0  0  0
  129.3605  133.0140  154.2261 H   0  0  0  0  0  0  0  0  0  0  0  0
  129.0605  130.9534  157.9385 H   0  0  0  0  0  0  0  0  0  0  0  0
  130.7525  135.9618  158.3195 H   0  0  0  0  0  0  0  0  0  0  0  0
  130.1854  136.4234  162.6375 H   0  0  0  0  0  0  0  0  0  0  0  0
  130.7379  138.7216  163.3271 H   0  0  0  0  0  0  0  0  0  0  0  0
  130.5860  139.9790  159.2525 H   0  0  0  0  0  0  0  0  0  0  0  0
  130.0441  137.6781  158.5637 H   0  0  0  0  0  0  0  0  0  0  0  0
  128.0322  135.9267  158.0985 H   0  0  0  0  0  0  0  0  0  0  0  0
  125.5890  135.6240  158.0958 H   0  0  0  0  0  0  0  0  0  0  0  0
  124.4422  134.8432  160.1301 H   0  0  0  0  0  0  0  0  0  0  0  0
  125.7382  134.3661  162.1682 H   0  0  0  0  0  0  0  0  0  0  0  0
  131.5797  130.1308  156.4902 H   0  0  0  0  0  0  0  0  0  0  0  0
  132.0407  128.8725  154.4285 H   0  0  0  0  0  0  0  0  0  0  0  0
  1  2  1  0
  1 32  1  0
  1 33  1  0
  2 31  2  0
  2  3  1  0
  3  4  2  0
  3 34  1  0
  4  5  1  0
  4 35  1  0
  5  6  1  0
  5 30  2  0
  6 28  1  0
  6  7  2  0
  7  8  1  0
  7 36  1  0
  8  9  1  0
  8 10  1  0
 10 11  1  0
 10 28  2  0
 11 12  1  0
 11 37  1  0
 12 13  1  1
 12 14  1  0
 12 21  1  0
 14 20  1  0
 14 15  2  0
 15 16  1  0
 15 38  1  0
 16 17  2  0
 16 39  1  0
 17 18  1  0
 17 19  1  0
 19 20  2  0
 19 40  1  0
 20 41  1  0
 21 26  1  0
 21 22  2  0
 22 23  1  0
 22 42  1  0
 23 24  2  0
 23 43  1  0
 24 25  1  0
 24 44  1  0
 25 26  2  0
 25 45  1  0
 26 27  1  0
 28 29  1  0
 30 31  1  0
 30 46  1  0
 31 47  1  0
M  CHG  1  28   1
M  END
>  <DOCK_score>  (1) 
-61.492275

>  <SMILES>  (1) 
Nc1ccc(-c2c[nH]c(N[C@@H](c3ccc(Cl)cc3)c3ccccc3Cl)[nH+]2)cc1

$$$$
