CCc1ccc(-c2c[nH]c(N[C@@H](Cc3ccc(CBr)cc3)c3ccnn3C)[nH+]2)cc1
     RDKit          3D

 57 60  0  0  1  0  0  0  0  0999 V2000
  130.4252  128.8280  151.9995 C   0  0  0  0  0  0  0  0  0  0  0  0
  131.5278  129.8317  152.3419 C   0  0  0  0  0  0  0  0  0  0  0  0
  131.2154  130.4908  153.6606 C   0  0  0  0  0  0  0  0  0  0  0  0
  131.6787  129.9315  154.8373 C   0  0  0  0  0  0  0  0  0  0  0  0
  131.3997  130.5334  156.0474 C   0  0  0  0  0  0  0  0  0  0  0  0
  130.6404  131.7017  156.0830 C   0  0  0  0  0  0  0  0  0  0  0  0
  130.3330  132.3504  157.3810 C   0  0  0  0  0  0  0  0  0  0  0  0
  129.6591  131.7878  158.4146 C   0  0  0  0  0  0  0  0  0  0  0  0
  129.6003  132.7303  159.4123 N   0  0  0  0  0  0  0  0  0  0  0  0
  129.1797  132.6230  160.2798 H   0  0  0  0  0  0  0  0  0  0  0  0
  130.2405  133.8423  158.9588 C   0  0  0  0  0  0  0  0  0  0  0  0
  130.4032  135.0228  159.6634 N   0  0  0  0  0  0  0  0  0  0  0  0
  129.8619  135.1473  161.0190 C   0  0  1  0  0  0  0  0  0  0  0  0
  130.0217  134.2152  161.5611 H   0  0  0  0  0  0  0  0  0  0  0  0
  130.5715  136.2897  161.7487 C   0  0  0  0  0  0  0  0  0  0  0  0
  131.9069  135.8091  162.2555 C   0  0  0  0  0  0  0  0  0  0  0  0
  132.5900  134.8199  161.5730 C   0  0  0  0  0  0  0  0  0  0  0  0
  133.8173  134.3827  162.0351 C   0  0  0  0  0  0  0  0  0  0  0  0
  134.3561  134.9265  163.1860 C   0  0  0  0  0  0  0  0  0  0  0  0
  135.6912  134.4455  163.6933 C   0  0  0  0  0  0  0  0  0  0  0  0
  137.1241  135.5343  162.9016 Br  0  0  0  0  0  0  0  0  0  0  0  0
  133.6706  135.9119  163.8715 C   0  0  0  0  0  0  0  0  0  0  0  0
  132.4459  136.3532  163.4063 C   0  0  0  0  0  0  0  0  0  0  0  0
  128.3852  135.4387  160.9455 C   0  0  0  0  0  0  0  0  0  0  0  0
  127.7527  136.1084  159.9544 C   0  0  0  0  0  0  0  0  0  0  0  0
  126.3909  136.1587  160.2699 C   0  0  0  0  0  0  0  0  0  0  0  0
  126.2124  135.5413  161.4095 N   0  0  0  0  0  0  0  0  0  0  0  0
  127.4560  135.0734  161.8533 N   0  0  0  0  0  0  0  0  0  0  0  0
  127.7044  134.3232  163.0869 C   0  0  0  0  0  0  0  0  0  0  0  0
  130.6813  133.6097  157.7465 N   0  0  0  0  0  0  0  0  0  0  0  0
  131.1760  134.2382  157.1977 H   0  0  0  0  0  0  0  0  0  0  0  0
  130.1717  132.2583  154.8944 C   0  0  0  0  0  0  0  0  0  0  0  0
  130.4612  131.6507  153.6896 C   0  0  0  0  0  0  0  0  0  0  0  0
  130.3694  128.0696  152.7805 H   0  0  0  0  0  0  0  0  0  0  0  0
  129.4698  129.3475  151.9286 H   0  0  0  0  0  0  0  0  0  0  0  0
  130.6513  128.3512  151.0457 H   0  0  0  0  0  0  0  0  0  0  0  0
  132.4833  129.3126  152.4125 H   0  0  0  0  0  0  0  0  0  0  0  0
  131.5835  130.5906  151.5606 H   0  0  0  0  0  0  0  0  0  0  0  0
  132.2633  129.0237  154.8089 H   0  0  0  0  0  0  0  0  0  0  0  0
  131.7660  130.0980  156.9655 H   0  0  0  0  0  0  0  0  0  0  0  0
  129.2473  130.7899  158.4471 H   0  0  0  0  0  0  0  0  0  0  0  0
  130.8756  135.7675  159.2595 H   0  0  0  0  0  0  0  0  0  0  0  0
  130.7221  137.1220  161.0610 H   0  0  0  0  0  0  0  0  0  0  0  0
  129.9607  136.6188  162.5892 H   0  0  0  0  0  0  0  0  0  0  0  0
  132.1668  134.3917  160.6764 H   0  0  0  0  0  0  0  0  0  0  0  0
  134.3531  133.6132  161.4993 H   0  0  0  0  0  0  0  0  0  0  0  0
  135.7222  134.5379  164.7788 H   0  0  0  0  0  0  0  0  0  0  0  0
  135.8315  133.4014  163.4133 H   0  0  0  0  0  0  0  0  0  0  0  0
  134.0915  136.3368  164.7707 H   0  0  0  0  0  0  0  0  0  0  0  0
  131.9102  137.1227  163.9421 H   0  0  0  0  0  0  0  0  0  0  0  0
  128.2172  136.5301  159.0753 H   0  0  0  0  0  0  0  0  0  0  0  0
  125.6201  136.6267  159.6757 H   0  0  0  0  0  0  0  0  0  0  0  0
  127.9143  135.0189  163.8993 H   0  0  0  0  0  0  0  0  0  0  0  0
  126.8241  133.7299  163.3347 H   0  0  0  0  0  0  0  0  0  0  0  0
  128.5594  133.6625  162.9443 H   0  0  0  0  0  0  0  0  0  0  0  0
  129.5826  133.1633  154.9160 H   0  0  0  0  0  0  0  0  0  0  0  0
  130.0981  132.0809  152.7679 H   0  0  0  0  0  0  0  0  0  0  0  0
  1  2  1  0
  1 34  1  0
  1 35  1  0
  1 36  1  0
  2  3  1  0
  2 37  1  0
  2 38  1  0
  3 33  2  0
  3  4  1  0
  4  5  2  0
  4 39  1  0
  5  6  1  0
  5 40  1  0
  6  7  1  0
  6 32  2  0
  7 30  1  0
  7  8  2  0
  8  9  1  0
  8 41  1  0
  9 10  1  0
  9 11  1  0
 11 12  1  0
 11 30  2  0
 12 13  1  0
 12 42  1  0
 13 14  1  1
 13 15  1  0
 13 24  1  0
 15 16  1  0
 15 43  1  0
 15 44  1  0
 16 23  1  0
 16 17  2  0
 17 18  1  0
 17 45  1  0
 18 19  2  0
 18 46  1  0
 19 20  1  0
 19 22  1  0
 20 21  1  0
 20 47  1  0
 20 48  1  0
 22 23  2  0
 22 49  1  0
 23 50  1  0
 24 28  1  0
 24 25  2  0
 25 26  1  0
 25 51  1  0
 26 27  2  0
 26 52  1  0
 27 28  1  0
 28 29  1  0
 29 53  1  0
 29 54  1  0
 29 55  1  0
 30 31  1  0
 32 33  1  0
 32 56  1  0
 33 57  1  0
M  CHG  1  30   1
M  END
>  <DOCK_score>  (1) 
-56.343895

>  <SMILES>  (1) 
CCc1ccc(-c2c[nH]c(N[C@@H](Cc3ccc(CBr)cc3)c3ccnn3C)[nH+]2)cc1

$$$$
