O=C1CC[C@H](NC(NC2CC2)=[NH+][C@H]2COc3ccc(Br)cc3C2)CN1
     RDKit          3D

 49 52  0  0  1  0  0  0  0  0999 V2000
  123.7127  133.7880  161.5287 O   0  0  0  0  0  0  0  0  0  0  0  0
  124.8799  133.9538  161.2439 C   0  0  0  0  0  0  0  0  0  0  0  0
  125.6425  132.7951  160.6683 C   0  0  0  0  0  0  0  0  0  0  0  0
  127.1468  133.0515  160.7866 C   0  0  0  0  0  0  0  0  0  0  0  0
  127.4416  134.4602  160.2574 C   0  0  2  0  0  0  0  0  0  0  0  0
  127.0132  134.5738  159.2616 H   0  0  0  0  0  0  0  0  0  0  0  0
  128.8903  134.6692  160.1961 N   0  0  0  0  0  0  0  0  0  0  0  0
  129.5837  134.3462  159.0537 C   0  0  0  0  0  0  0  0  0  0  0  0
  128.9176  133.8269  157.9690 N   0  0  0  0  0  0  0  0  0  0  0  0
  129.6565  133.4827  156.7517 C   0  0  0  0  0  0  0  0  0  0  0  0
  129.4487  132.0824  156.1713 C   0  0  0  0  0  0  0  0  0  0  0  0
  130.7643  132.4341  156.8704 C   0  0  0  0  0  0  0  0  0  0  0  0
  130.8727  134.5322  158.9992 N   0  0  0  0  0  0  0  0  0  0  0  0
  131.2983  134.7323  158.1510 H   0  0  0  0  0  0  0  0  0  0  0  0
  131.6785  134.4391  160.2192 C   0  0  1  0  0  0  0  0  0  0  0  0
  131.2173  133.7352  160.9121 H   0  0  0  0  0  0  0  0  0  0  0  0
  133.0952  133.9665  159.8684 C   0  0  0  0  0  0  0  0  0  0  0  0
  133.8238  133.7861  161.0835 O   0  0  0  0  0  0  0  0  0  0  0  0
  133.7942  134.7911  161.9971 C   0  0  0  0  0  0  0  0  0  0  0  0
  134.7543  134.8011  163.0042 C   0  0  0  0  0  0  0  0  0  0  0  0
  134.7561  135.8034  163.9523 C   0  0  0  0  0  0  0  0  0  0  0  0
  133.7967  136.7995  163.9063 C   0  0  0  0  0  0  0  0  0  0  0  0
  133.7939  138.1711  165.2080 Br  0  0  0  0  0  0  0  0  0  0  0  0
  132.8410  136.7913  162.9084 C   0  0  0  0  0  0  0  0  0  0  0  0
  132.8377  135.7899  161.9518 C   0  0  0  0  0  0  0  0  0  0  0  0
  131.7812  135.8178  160.8763 C   0  0  0  0  0  0  0  0  0  0  0  0
  126.8152  135.4839  161.2052 C   0  0  0  0  0  0  0  0  0  0  0  0
  125.4175  135.1550  161.4589 N   0  0  0  0  0  0  0  0  0  0  0  0
  125.3774  132.6732  159.6181 H   0  0  0  0  0  0  0  0  0  0  0  0
  125.3858  131.8873  161.2142 H   0  0  0  0  0  0  0  0  0  0  0  0
  127.6921  132.3159  160.1953 H   0  0  0  0  0  0  0  0  0  0  0  0
  127.4507  132.9808  161.8310 H   0  0  0  0  0  0  0  0  0  0  0  0
  129.3602  135.0355  160.9614 H   0  0  0  0  0  0  0  0  0  0  0  0
  127.9584  133.6885  158.0096 H   0  0  0  0  0  0  0  0  0  0  0  0
  129.8113  134.3010  156.0484 H   0  0  0  0  0  0  0  0  0  0  0  0
  128.7623  131.4172  156.6953 H   0  0  0  0  0  0  0  0  0  0  0  0
  129.4672  131.9793  155.0864 H   0  0  0  0  0  0  0  0  0  0  0  0
  131.6477  132.5623  156.2450 H   0  0  0  0  0  0  0  0  0  0  0  0
  130.9437  132.0007  157.8544 H   0  0  0  0  0  0  0  0  0  0  0  0
  133.0435  133.0215  159.3275 H   0  0  0  0  0  0  0  0  0  0  0  0
  133.5898  134.7162  159.2508 H   0  0  0  0  0  0  0  0  0  0  0  0
  135.5035  134.0241  163.0411 H   0  0  0  0  0  0  0  0  0  0  0  0
  135.5040  135.8090  164.7313 H   0  0  0  0  0  0  0  0  0  0  0  0
  132.0931  137.5699  162.8740 H   0  0  0  0  0  0  0  0  0  0  0  0
  130.8204  136.0815  161.3184 H   0  0  0  0  0  0  0  0  0  0  0  0
  132.0496  136.5588  160.1233 H   0  0  0  0  0  0  0  0  0  0  0  0
  127.3605  135.4821  162.1489 H   0  0  0  0  0  0  0  0  0  0  0  0
  126.8794  136.4758  160.7576 H   0  0  0  0  0  0  0  0  0  0  0  0
  124.8419  135.8555  161.8038 H   0  0  0  0  0  0  0  0  0  0  0  0
  1  2  2  0
  2 28  1  0
  2  3  1  0
  3  4  1  0
  3 29  1  0
  3 30  1  0
  4  5  1  0
  4 31  1  0
  4 32  1  0
  5  6  1  6
  5  7  1  0
  5 27  1  0
  7 33  1  0
  8  7  1  0
  8  9  1  0
  8 13  2  0
  9 10  1  0
  9 34  1  0
 10 12  1  0
 10 11  1  0
 10 35  1  0
 11 12  1  0
 11 36  1  0
 11 37  1  0
 12 38  1  0
 12 39  1  0
 13 14  1  0
 13 15  1  0
 15 16  1  1
 15 26  1  0
 15 17  1  0
 17 18  1  0
 17 40  1  0
 17 41  1  0
 18 19  1  0
 19 25  2  0
 19 20  1  0
 20 21  2  0
 20 42  1  0
 21 22  1  0
 21 43  1  0
 22 23  1  0
 22 24  2  0
 24 25  1  0
 24 44  1  0
 25 26  1  0
 26 45  1  0
 26 46  1  0
 27 28  1  0
 27 47  1  0
 27 48  1  0
 28 49  1  0
M  CHG  1  13   1
M  END
>  <DOCK_score>  (1) 
-47.062572

>  <SMILES>  (1) 
O=C1CC[C@H](NC(NC2CC2)=[NH+][C@H]2COc3ccc(Br)cc3C2)CN1

$$$$
