O[C@@H](C[NH+]=C(NC1CCCCC1)NC1CCCCC1)c1ccc(-c2ccccc2)cc1
     RDKit          3D

 69 72  0  0  1  0  0  0  0  0999 V2000
  126.3640  136.4182  162.2180 O   0  0  0  0  0  0  0  0  0  0  0  0
  127.4083  135.7442  162.9233 C   0  0  1  0  0  0  0  0  0  0  0  0
  127.3722  134.6790  162.6949 H   0  0  0  0  0  0  0  0  0  0  0  0
  128.7626  136.3123  162.4942 C   0  0  0  0  0  0  0  0  0  0  0  0
  129.1575  135.7191  161.2142 N   0  0  0  0  0  0  0  0  0  0  0  0
  128.5797  135.0716  160.7809 H   0  0  0  0  0  0  0  0  0  0  0  0
  130.2854  136.0613  160.6576 C   0  0  0  0  0  0  0  0  0  0  0  0
  130.6560  135.5046  159.4565 N   0  0  0  0  0  0  0  0  0  0  0  0
  130.2214  134.1485  159.1125 C   0  0  0  0  0  0  0  0  0  0  0  0
  130.7516  133.1631  160.1559 C   0  0  0  0  0  0  0  0  0  0  0  0
  130.2979  131.7467  159.7968 C   0  0  0  0  0  0  0  0  0  0  0  0
  130.8425  131.3710  158.4172 C   0  0  0  0  0  0  0  0  0  0  0  0
  130.3123  132.3566  157.3738 C   0  0  0  0  0  0  0  0  0  0  0  0
  130.7662  133.7728  157.7330 C   0  0  0  0  0  0  0  0  0  0  0  0
  131.1042  136.9792  161.2717 N   0  0  0  0  0  0  0  0  0  0  0  0
  132.3719  137.3639  160.6461 C   0  0  0  0  0  0  0  0  0  0  0  0
  133.3834  137.7377  161.7315 C   0  0  0  0  0  0  0  0  0  0  0  0
  134.7073  138.1396  161.0781 C   0  0  0  0  0  0  0  0  0  0  0  0
  134.4783  139.3409  160.1587 C   0  0  0  0  0  0  0  0  0  0  0  0
  133.4668  138.9671  159.0734 C   0  0  0  0  0  0  0  0  0  0  0  0
  132.1429  138.5653  159.7267 C   0  0  0  0  0  0  0  0  0  0  0  0
  127.2254  135.9468  164.4054 C   0  0  0  0  0  0  0  0  0  0  0  0
  126.4673  135.0488  165.1352 C   0  0  0  0  0  0  0  0  0  0  0  0
  126.3005  135.2268  166.4937 C   0  0  0  0  0  0  0  0  0  0  0  0
  126.8886  136.3194  167.1279 C   0  0  0  0  0  0  0  0  0  0  0  0
  126.7076  136.5193  168.5871 C   0  0  0  0  0  0  0  0  0  0  0  0
  127.7023  137.1452  169.3356 C   0  0  0  0  0  0  0  0  0  0  0  0
  127.5267  137.3329  170.6917 C   0  0  0  0  0  0  0  0  0  0  0  0
  126.3705  136.8915  171.3096 C   0  0  0  0  0  0  0  0  0  0  0  0
  125.3822  136.2649  170.5723 C   0  0  0  0  0  0  0  0  0  0  0  0
  125.5450  136.0767  169.2146 C   0  0  0  0  0  0  0  0  0  0  0  0
  127.6466  137.2236  166.3869 C   0  0  0  0  0  0  0  0  0  0  0  0
  127.8113  137.0330  165.0299 C   0  0  0  0  0  0  0  0  0  0  0  0
  125.4754  136.1085  162.4410 H   0  0  0  0  0  0  0  0  0  0  0  0
  128.6846  137.3939  162.3847 H   0  0  0  0  0  0  0  0  0  0  0  0
  129.5114  136.0767  163.2503 H   0  0  0  0  0  0  0  0  0  0  0  0
  131.2052  136.0097  158.8367 H   0  0  0  0  0  0  0  0  0  0  0  0
  129.1323  134.1092  159.0961 H   0  0  0  0  0  0  0  0  0  0  0  0
  131.8408  133.2023  160.1723 H   0  0  0  0  0  0  0  0  0  0  0  0
  130.3636  133.4307  161.1387 H   0  0  0  0  0  0  0  0  0  0  0  0
  129.2087  131.7074  159.7803 H   0  0  0  0  0  0  0  0  0  0  0  0
  130.6756  131.0446  160.5400 H   0  0  0  0  0  0  0  0  0  0  0  0
  130.5192  130.3621  158.1613 H   0  0  0  0  0  0  0  0  0  0  0  0
  131.9317  131.4104  158.4336 H   0  0  0  0  0  0  0  0  0  0  0  0
  129.2232  132.3173  157.3574 H   0  0  0  0  0  0  0  0  0  0  0  0
  130.7005  132.0889  156.3911 H   0  0  0  0  0  0  0  0  0  0  0  0
  130.3884  134.4749  156.9897 H   0  0  0  0  0  0  0  0  0  0  0  0
  131.8554  133.8122  157.7495 H   0  0  0  0  0  0  0  0  0  0  0  0
  130.8428  137.3720  162.1191 H   0  0  0  0  0  0  0  0  0  0  0  0
  132.7576  136.5280  160.0625 H   0  0  0  0  0  0  0  0  0  0  0  0
  132.9979  138.5737  162.3151 H   0  0  0  0  0  0  0  0  0  0  0  0
  133.5465  136.8819  162.3864 H   0  0  0  0  0  0  0  0  0  0  0  0
  135.0929  137.3037  160.4944 H   0  0  0  0  0  0  0  0  0  0  0  0
  135.4280  138.4059  161.8513 H   0  0  0  0  0  0  0  0  0  0  0  0
  135.4215  139.6272  159.6933 H   0  0  0  0  0  0  0  0  0  0  0  0
  134.0928  140.1769  160.7425 H   0  0  0  0  0  0  0  0  0  0  0  0
  133.8524  138.1313  158.4898 H   0  0  0  0  0  0  0  0  0  0  0  0
  133.3037  139.8230  158.4184 H   0  0  0  0  0  0  0  0  0  0  0  0
  131.4222  138.2989  158.9535 H   0  0  0  0  0  0  0  0  0  0  0  0
  131.7573  139.4012  160.3104 H   0  0  0  0  0  0  0  0  0  0  0  0
  126.0088  134.2046  164.6418 H   0  0  0  0  0  0  0  0  0  0  0  0
  125.7117  134.5231  167.0631 H   0  0  0  0  0  0  0  0  0  0  0  0
  128.6071  137.4866  168.8549 H   0  0  0  0  0  0  0  0  0  0  0  0
  128.2953  137.8217  171.2722 H   0  0  0  0  0  0  0  0  0  0  0  0
  126.2392  137.0365  172.3718 H   0  0  0  0  0  0  0  0  0  0  0  0
  124.4815  135.9219  171.0598 H   0  0  0  0  0  0  0  0  0  0  0  0
  124.7729  135.5869  168.6400 H   0  0  0  0  0  0  0  0  0  0  0  0
  128.1043  138.0722  166.8734 H   0  0  0  0  0  0  0  0  0  0  0  0
  128.3990  137.7331  164.4546 H   0  0  0  0  0  0  0  0  0  0  0  0
  1  2  1  0
  1 34  1  0
  2  3  1  1
  2  4  1  0
  2 22  1  0
  4  5  1  0
  4 35  1  0
  4 36  1  0
  5  6  1  0
  5  7  2  0
  7  8  1  0
  7 15  1  0
  8  9  1  0
  8 37  1  0
  9 14  1  0
  9 10  1  0
  9 38  1  0
 10 11  1  0
 10 39  1  0
 10 40  1  0
 11 12  1  0
 11 41  1  0
 11 42  1  0
 12 13  1  0
 12 43  1  0
 12 44  1  0
 13 14  1  0
 13 45  1  0
 13 46  1  0
 14 47  1  0
 14 48  1  0
 15 16  1  0
 15 49  1  0
 16 21  1  0
 16 17  1  0
 16 50  1  0
 17 18  1  0
 17 51  1  0
 17 52  1  0
 18 19  1  0
 18 53  1  0
 18 54  1  0
 19 20  1  0
 19 55  1  0
 19 56  1  0
 20 21  1  0
 20 57  1  0
 20 58  1  0
 21 59  1  0
 21 60  1  0
 22 33  1  0
 22 23  2  0
 23 24  1  0
 23 61  1  0
 24 25  2  0
 24 62  1  0
 25 26  1  0
 25 32  1  0
 26 31  1  0
 26 27  2  0
 27 28  1  0
 27 63  1  0
 28 29  2  0
 28 64  1  0
 29 30  1  0
 29 65  1  0
 30 31  2  0
 30 66  1  0
 31 67  1  0
 32 33  2  0
 32 68  1  0
 33 69  1  0
M  CHG  1   5   1
M  END
>  <DOCK_score>  (1) 
-45.709343

>  <SMILES>  (1) 
O[C@@H](C[NH+]=C(NC1CCCCC1)NC1CCCCC1)c1ccc(-c2ccccc2)cc1

$$$$
