Cc1cccc([C@@H](Nc2[nH]cc(-c3ccc(Br)cc3)[nH+]2)C(=O)NC2CC2)c1
     RDKit          3D

 49 52  0  0  1  0  0  0  0  0999 V2000
  125.8540  134.6747  162.9482 C   0  0  0  0  0  0  0  0  0  0  0  0
  126.6237  135.1264  161.7340 C   0  0  0  0  0  0  0  0  0  0  0  0
  125.9478  135.5216  160.5940 C   0  0  0  0  0  0  0  0  0  0  0  0
  126.6538  135.9352  159.4806 C   0  0  0  0  0  0  0  0  0  0  0  0
  128.0360  135.9543  159.5060 C   0  0  0  0  0  0  0  0  0  0  0  0
  128.7117  135.5604  160.6455 C   0  0  0  0  0  0  0  0  0  0  0  0
  130.2184  135.5813  160.6732 C   0  0  1  0  0  0  0  0  0  0  0  0
  130.5802  134.8027  161.3447 H   0  0  0  0  0  0  0  0  0  0  0  0
  130.7350  135.3411  159.3236 N   0  0  0  0  0  0  0  0  0  0  0  0
  130.4290  134.1627  158.6648 C   0  0  0  0  0  0  0  0  0  0  0  0
  129.6666  133.1512  159.1627 N   0  0  0  0  0  0  0  0  0  0  0  0
  129.2438  133.1264  160.0353 H   0  0  0  0  0  0  0  0  0  0  0  0
  129.6068  132.1717  158.2011 C   0  0  0  0  0  0  0  0  0  0  0  0
  130.3334  132.6124  157.1445 C   0  0  0  0  0  0  0  0  0  0  0  0
  130.5520  131.8843  155.8708 C   0  0  0  0  0  0  0  0  0  0  0  0
  130.1360  132.4451  154.6645 C   0  0  0  0  0  0  0  0  0  0  0  0
  130.3422  131.7638  153.4823 C   0  0  0  0  0  0  0  0  0  0  0  0
  130.9556  130.5232  153.4937 C   0  0  0  0  0  0  0  0  0  0  0  0
  131.2278  129.5917  151.8706 Br  0  0  0  0  0  0  0  0  0  0  0  0
  131.3758  129.9644  154.6884 C   0  0  0  0  0  0  0  0  0  0  0  0
  131.1745  130.6373  155.8760 C   0  0  0  0  0  0  0  0  0  0  0  0
  130.8300  133.8348  157.4608 N   0  0  0  0  0  0  0  0  0  0  0  0
  131.3902  134.3800  156.8866 H   0  0  0  0  0  0  0  0  0  0  0  0
  130.6932  136.9258  161.1612 C   0  0  0  0  0  0  0  0  0  0  0  0
  130.8977  137.8208  160.3686 O   0  0  0  0  0  0  0  0  0  0  0  0
  130.8907  137.1335  162.4780 N   0  0  0  0  0  0  0  0  0  0  0  0
  131.3522  138.4407  162.9523 C   0  0  0  0  0  0  0  0  0  0  0  0
  132.8604  138.6984  162.9561 C   0  0  0  0  0  0  0  0  0  0  0  0
  132.1172  138.4818  164.2767 C   0  0  0  0  0  0  0  0  0  0  0  0
  128.0056  135.1419  161.7580 C   0  0  0  0  0  0  0  0  0  0  0  0
  125.6885  133.5986  162.8939 H   0  0  0  0  0  0  0  0  0  0  0  0
  126.4232  134.9097  163.8475 H   0  0  0  0  0  0  0  0  0  0  0  0
  124.8935  135.1887  162.9814 H   0  0  0  0  0  0  0  0  0  0  0  0
  124.8682  135.5064  160.5738 H   0  0  0  0  0  0  0  0  0  0  0  0
  126.1258  136.2433  158.5902 H   0  0  0  0  0  0  0  0  0  0  0  0
  128.5878  136.2774  158.6356 H   0  0  0  0  0  0  0  0  0  0  0  0
  131.2916  136.0078  158.8917 H   0  0  0  0  0  0  0  0  0  0  0  0
  129.0810  131.2310  158.2729 H   0  0  0  0  0  0  0  0  0  0  0  0
  129.6528  133.4110  154.6551 H   0  0  0  0  0  0  0  0  0  0  0  0
  130.0200  132.1974  152.5470 H   0  0  0  0  0  0  0  0  0  0  0  0
  131.8576  128.9978  154.6913 H   0  0  0  0  0  0  0  0  0  0  0  0
  131.4989  130.1986  156.8082 H   0  0  0  0  0  0  0  0  0  0  0  0
  130.7271  136.4177  163.1119 H   0  0  0  0  0  0  0  0  0  0  0  0
  130.6985  139.2819  162.7223 H   0  0  0  0  0  0  0  0  0  0  0  0
  133.5092  137.8956  162.6059 H   0  0  0  0  0  0  0  0  0  0  0  0
  133.1988  139.7094  162.7292 H   0  0  0  0  0  0  0  0  0  0  0  0
  131.9668  139.3503  164.9179 H   0  0  0  0  0  0  0  0  0  0  0  0
  132.2769  137.5364  164.7953 H   0  0  0  0  0  0  0  0  0  0  0  0
  128.5338  134.8299  162.6469 H   0  0  0  0  0  0  0  0  0  0  0  0
  1  2  1  0
  1 31  1  0
  1 32  1  0
  1 33  1  0
  2 30  2  0
  2  3  1  0
  3  4  2  0
  3 34  1  0
  4  5  1  0
  4 35  1  0
  5  6  2  0
  5 36  1  0
  6  7  1  0
  6 30  1  0
  7  8  1  1
  7  9  1  0
  7 24  1  0
  9 37  1  0
 10  9  1  0
 10 22  2  0
 10 11  1  0
 11 12  1  0
 11 13  1  0
 13 14  2  0
 13 38  1  0
 14 15  1  0
 14 22  1  0
 15 21  1  0
 15 16  2  0
 16 17  1  0
 16 39  1  0
 17 18  2  0
 17 40  1  0
 18 19  1  0
 18 20  1  0
 20 21  2  0
 20 41  1  0
 21 42  1  0
 22 23  1  0
 24 25  2  0
 24 26  1  0
 26 27  1  0
 26 43  1  0
 27 29  1  0
 27 28  1  0
 27 44  1  0
 28 29  1  0
 28 45  1  0
 28 46  1  0
 29 47  1  0
 29 48  1  0
 30 49  1  0
M  CHG  1  22   1
M  END
>  <DOCK_score>  (1) 
-57.674297

>  <SMILES>  (1) 
Cc1cccc([C@@H](Nc2[nH]cc(-c3ccc(Br)cc3)[nH+]2)C(=O)NC2CC2)c1

$$$$
