CCc1ccc(-c2c[nH]c(N[C@H](c3ccc(C)cc3)c3ccccn3)[nH+]2)cc1
     RDKit          3D

 53 56  0  0  1  0  0  0  0  0999 V2000
  130.3689  128.4843  151.7953 C   0  0  0  0  0  0  0  0  0  0  0  0
  131.4996  129.4622  152.1204 C   0  0  0  0  0  0  0  0  0  0  0  0
  131.1326  130.2669  153.3407 C   0  0  0  0  0  0  0  0  0  0  0  0
  131.4797  129.8080  154.5981 C   0  0  0  0  0  0  0  0  0  0  0  0
  131.1514  130.5434  155.7190 C   0  0  0  0  0  0  0  0  0  0  0  0
  130.4586  131.7450  155.5824 C   0  0  0  0  0  0  0  0  0  0  0  0
  130.0980  132.5371  156.7836 C   0  0  0  0  0  0  0  0  0  0  0  0
  129.3226  132.1165  157.8137 C   0  0  0  0  0  0  0  0  0  0  0  0
  129.2466  133.1579  158.7064 N   0  0  0  0  0  0  0  0  0  0  0  0
  128.7608  133.1606  159.5459 H   0  0  0  0  0  0  0  0  0  0  0  0
  129.9784  134.1852  158.1953 C   0  0  0  0  0  0  0  0  0  0  0  0
  130.1575  135.4221  158.7907 N   0  0  0  0  0  0  0  0  0  0  0  0
  129.5305  135.7106  160.0830 C   0  0  2  0  0  0  0  0  0  0  0  0
  128.4484  135.6169  159.9907 H   0  0  0  0  0  0  0  0  0  0  0  0
  129.8786  137.1139  160.5080 C   0  0  0  0  0  0  0  0  0  0  0  0
  130.1075  138.0882  159.5545 C   0  0  0  0  0  0  0  0  0  0  0  0
  130.4216  139.3767  159.9445 C   0  0  0  0  0  0  0  0  0  0  0  0
  130.5181  139.6882  161.2874 C   0  0  0  0  0  0  0  0  0  0  0  0
  130.8668  141.0914  161.7122 C   0  0  0  0  0  0  0  0  0  0  0  0
  130.2946  138.7125  162.2413 C   0  0  0  0  0  0  0  0  0  0  0  0
  129.9747  137.4254  161.8513 C   0  0  0  0  0  0  0  0  0  0  0  0
  130.0333  134.7338  161.1146 C   0  0  0  0  0  0  0  0  0  0  0  0
  131.3846  134.6762  161.3990 C   0  0  0  0  0  0  0  0  0  0  0  0
  131.8361  133.7777  162.3535 C   0  0  0  0  0  0  0  0  0  0  0  0
  130.9087  132.9598  162.9811 C   0  0  0  0  0  0  0  0  0  0  0  0
  129.5740  133.0706  162.6408 C   0  0  0  0  0  0  0  0  0  0  0  0
  129.1796  133.9406  161.7314 N   0  0  0  0  0  0  0  0  0  0  0  0
  130.4903  133.8084  157.0490 N   0  0  0  0  0  0  0  0  0  0  0  0
  131.0572  134.3525  156.4802 H   0  0  0  0  0  0  0  0  0  0  0  0
  130.1064  132.2000  154.3130 C   0  0  0  0  0  0  0  0  0  0  0  0
  130.4449  131.4592  153.1988 C   0  0  0  0  0  0  0  0  0  0  0  0
  129.4515  129.0402  151.6019 H   0  0  0  0  0  0  0  0  0  0  0  0
  130.6342  127.9024  150.9127 H   0  0  0  0  0  0  0  0  0  0  0  0
  130.2156  127.8130  152.6404 H   0  0  0  0  0  0  0  0  0  0  0  0
  132.4167  128.9069  152.3134 H   0  0  0  0  0  0  0  0  0  0  0  0
  131.6526  130.1340  151.2749 H   0  0  0  0  0  0  0  0  0  0  0  0
  132.0123  128.8744  154.7031 H   0  0  0  0  0  0  0  0  0  0  0  0
  131.4269  130.1863  156.7003 H   0  0  0  0  0  0  0  0  0  0  0  0
  128.8543  131.1485  157.9130 H   0  0  0  0  0  0  0  0  0  0  0  0
  130.6983  136.0976  158.3524 H   0  0  0  0  0  0  0  0  0  0  0  0
  130.0367  137.8438  158.5049 H   0  0  0  0  0  0  0  0  0  0  0  0
  130.5960  140.1390  159.1995 H   0  0  0  0  0  0  0  0  0  0  0  0
  131.9492  141.1861  161.8003 H   0  0  0  0  0  0  0  0  0  0  0  0
  130.4992  141.7981  160.9690 H   0  0  0  0  0  0  0  0  0  0  0  0
  130.4043  141.3044  162.6765 H   0  0  0  0  0  0  0  0  0  0  0  0
  130.3700  138.9559  163.2908 H   0  0  0  0  0  0  0  0  0  0  0  0
  129.8005  136.6632  162.5963 H   0  0  0  0  0  0  0  0  0  0  0  0
  132.0796  135.3253  160.8871 H   0  0  0  0  0  0  0  0  0  0  0  0
  132.8858  133.7135  162.5994 H   0  0  0  0  0  0  0  0  0  0  0  0
  131.2256  132.2451  163.7261 H   0  0  0  0  0  0  0  0  0  0  0  0
  128.8454  132.4373  163.1250 H   0  0  0  0  0  0  0  0  0  0  0  0
  129.5693  133.1304  154.2013 H   0  0  0  0  0  0  0  0  0  0  0  0
  130.1729  131.8111  152.2147 H   0  0  0  0  0  0  0  0  0  0  0  0
  1  2  1  0
  1 32  1  0
  1 33  1  0
  1 34  1  0
  2  3  1  0
  2 35  1  0
  2 36  1  0
  3 31  2  0
  3  4  1  0
  4  5  2  0
  4 37  1  0
  5  6  1  0
  5 38  1  0
  6  7  1  0
  6 30  2  0
  7 28  1  0
  7  8  2  0
  8  9  1  0
  8 39  1  0
  9 10  1  0
  9 11  1  0
 11 12  1  0
 11 28  2  0
 12 13  1  0
 12 40  1  0
 13 14  1  6
 13 15  1  0
 13 22  1  0
 15 21  1  0
 15 16  2  0
 16 17  1  0
 16 41  1  0
 17 18  2  0
 17 42  1  0
 18 19  1  0
 18 20  1  0
 19 43  1  0
 19 44  1  0
 19 45  1  0
 20 21  2  0
 20 46  1  0
 21 47  1  0
 22 27  1  0
 22 23  2  0
 23 24  1  0
 23 48  1  0
 24 25  2  0
 24 49  1  0
 25 26  1  0
 25 50  1  0
 26 27  2  0
 26 51  1  0
 28 29  1  0
 30 31  1  0
 30 52  1  0
 31 53  1  0
M  CHG  1  28   1
M  END
>  <DOCK_score>  (1) 
-59.096066

>  <SMILES>  (1) 
CCc1ccc(-c2c[nH]c(N[C@H](c3ccc(C)cc3)c3ccccn3)[nH+]2)cc1

$$$$
