CC[C@H]1CCN(c2ccc3c(c2)OCC(NC(N[C@H]2CCC(=O)NC2)=[NH+]C2CC2)C3)C1C
     RDKit          3D

 70 74  0  0  1  0  0  0  0  0999 V2000
  138.0149  139.0883  169.2934 C   0  0  0  0  0  0  0  0  0  0  0  0
  136.7495  138.9722  168.4411 C   0  0  0  0  0  0  0  0  0  0  0  0
  137.0744  138.2275  167.1446 C   0  0  1  0  0  0  0  0  0  0  0  0
  137.8355  138.7650  166.5792 H   0  0  0  0  0  0  0  0  0  0  0  0
  137.5524  136.7908  167.4565 C   0  0  0  0  0  0  0  0  0  0  0  0
  136.8906  135.9501  166.3358 C   0  0  0  0  0  0  0  0  0  0  0  0
  135.5631  136.5986  166.1658 N   0  0  0  0  0  0  0  0  0  0  0  0
  135.0105  136.2912  164.9204 C   0  0  0  0  0  0  0  0  0  0  0  0
  135.6801  136.6434  163.7547 C   0  0  0  0  0  0  0  0  0  0  0  0
  135.1315  136.3361  162.5267 C   0  0  0  0  0  0  0  0  0  0  0  0
  133.9146  135.6779  162.4467 C   0  0  0  0  0  0  0  0  0  0  0  0
  133.2417  135.3266  163.6047 C   0  0  0  0  0  0  0  0  0  0  0  0
  133.7951  135.6287  164.8435 C   0  0  0  0  0  0  0  0  0  0  0  0
  132.0440  134.6861  163.5701 O   0  0  0  0  0  0  0  0  0  0  0  0
  131.6625  134.0492  162.3500 C   0  0  0  0  0  0  0  0  0  0  0  0
  131.8593  135.0472  161.2018 C   0  0  2  0  0  0  0  0  0  0  0  0
  131.3764  134.4612  159.9488 N   0  0  0  0  0  0  0  0  0  0  0  0
  130.0673  134.6370  159.5673 C   0  0  0  0  0  0  0  0  0  0  0  0
  129.2114  135.3628  160.3616 N   0  0  0  0  0  0  0  0  0  0  0  0
  127.7808  135.0473  160.3760 C   0  0  1  0  0  0  0  0  0  0  0  0
  127.3703  135.1647  159.3731 H   0  0  0  0  0  0  0  0  0  0  0  0
  127.5772  133.6030  160.8495 C   0  0  0  0  0  0  0  0  0  0  0  0
  126.0991  133.2427  160.6814 C   0  0  0  0  0  0  0  0  0  0  0  0
  125.2393  134.3219  161.2742 C   0  0  0  0  0  0  0  0  0  0  0  0
  124.0807  134.0619  161.5211 O   0  0  0  0  0  0  0  0  0  0  0  0
  125.6817  135.5506  161.5440 N   0  0  0  0  0  0  0  0  0  0  0  0
  127.0575  135.9888  161.3398 C   0  0  0  0  0  0  0  0  0  0  0  0
  129.6378  134.1157  158.4526 N   0  0  0  0  0  0  0  0  0  0  0  0
  128.7142  134.2397  158.1835 H   0  0  0  0  0  0  0  0  0  0  0  0
  130.5499  133.3423  157.6063 C   0  0  0  0  0  0  0  0  0  0  0  0
  129.9286  132.3579  156.6133 C   0  0  0  0  0  0  0  0  0  0  0  0
  130.6444  131.8366  157.8611 C   0  0  0  0  0  0  0  0  0  0  0  0
  133.3537  135.3564  161.0844 C   0  0  0  0  0  0  0  0  0  0  0  0
  135.8017  138.0524  166.2954 C   0  0  1  0  0  0  0  0  0  0  0  0
  134.6133  138.7155  166.9948 C   0  0  0  0  0  0  0  0  0  0  0  0
  138.7765  139.6377  168.7399 H   0  0  0  0  0  0  0  0  0  0  0  0
  137.7833  139.6188  170.2170 H   0  0  0  0  0  0  0  0  0  0  0  0
  138.3862  138.0913  169.5302 H   0  0  0  0  0  0  0  0  0  0  0  0
  136.3782  139.9691  168.2042 H   0  0  0  0  0  0  0  0  0  0  0  0
  135.9879  138.4228  168.9946 H   0  0  0  0  0  0  0  0  0  0  0  0
  138.6388  136.7244  167.3979 H   0  0  0  0  0  0  0  0  0  0  0  0
  137.2002  136.4713  168.4373 H   0  0  0  0  0  0  0  0  0  0  0  0
  137.4694  136.0140  165.4142 H   0  0  0  0  0  0  0  0  0  0  0  0
  136.7779  134.9122  166.6492 H   0  0  0  0  0  0  0  0  0  0  0  0
  136.6285  137.1573  163.8100 H   0  0  0  0  0  0  0  0  0  0  0  0
  135.6539  136.6100  161.6220 H   0  0  0  0  0  0  0  0  0  0  0  0
  133.2753  135.3502  165.7482 H   0  0  0  0  0  0  0  0  0  0  0  0
  130.6152  133.7519  162.4028 H   0  0  0  0  0  0  0  0  0  0  0  0
  132.2857  133.1704  162.1835 H   0  0  0  0  0  0  0  0  0  0  0  0
  131.3099  135.9644  161.4140 H   0  0  0  0  0  0  0  0  0  0  0  0
  131.9804  133.9493  159.3885 H   0  0  0  0  0  0  0  0  0  0  0  0
  129.5547  136.0837  160.9123 H   0  0  0  0  0  0  0  0  0  0  0  0
  128.1895  132.9303  160.2492 H   0  0  0  0  0  0  0  0  0  0  0  0
  127.8586  133.5180  161.8992 H   0  0  0  0  0  0  0  0  0  0  0  0
  125.8701  133.1390  159.6207 H   0  0  0  0  0  0  0  0  0  0  0  0
  125.8965  132.2991  161.1881 H   0  0  0  0  0  0  0  0  0  0  0  0
  125.0480  136.1949  161.8961 H   0  0  0  0  0  0  0  0  0  0  0  0
  127.5778  135.9931  162.2976 H   0  0  0  0  0  0  0  0  0  0  0  0
  127.0598  136.9978  160.9276 H   0  0  0  0  0  0  0  0  0  0  0  0
  131.4596  133.8592  157.3007 H   0  0  0  0  0  0  0  0  0  0  0  0
  128.8412  132.2857  156.5899 H   0  0  0  0  0  0  0  0  0  0  0  0
  130.4295  132.2269  155.6541 H   0  0  0  0  0  0  0  0  0  0  0  0
  131.6163  131.3628  157.7228 H   0  0  0  0  0  0  0  0  0  0  0  0
  130.0279  131.4215  158.6585 H   0  0  0  0  0  0  0  0  0  0  0  0
  133.4964  136.2108  160.4227 H   0  0  0  0  0  0  0  0  0  0  0  0
  133.8718  134.4895  160.6743 H   0  0  0  0  0  0  0  0  0  0  0  0
  135.9481  138.4970  165.3110 H   0  0  0  0  0  0  0  0  0  0  0  0
  134.8150  139.7786  167.1248 H   0  0  0  0  0  0  0  0  0  0  0  0
  133.7169  138.5873  166.3879 H   0  0  0  0  0  0  0  0  0  0  0  0
  134.4611  138.2525  167.9698 H   0  0  0  0  0  0  0  0  0  0  0  0
  1  2  1  0
  1 36  1  0
  1 37  1  0
  1 38  1  0
  2  3  1  0
  2 39  1  0
  2 40  1  0
  3  4  1  6
  3 34  1  0
  3  5  1  0
  5  6  1  0
  5 41  1  0
  5 42  1  0
  6  7  1  0
  6 43  1  0
  6 44  1  0
  7  8  1  0
  7 34  1  0
  8 13  1  0
  8  9  2  0
  9 10  1  0
  9 45  1  0
 10 11  2  0
 10 46  1  0
 11 33  1  0
 11 12  1  0
 12 13  2  0
 12 14  1  0
 13 47  1  0
 14 15  1  0
 15 16  1  0
 15 48  1  0
 15 49  1  0
 16 17  1  0
 16 33  1  0
 16 50  1  1
 17 51  1  0
 18 17  1  0
 18 19  1  0
 18 28  2  0
 19 20  1  0
 19 52  1  0
 20 21  1  6
 20 27  1  0
 20 22  1  0
 22 23  1  0
 22 53  1  0
 22 54  1  0
 23 24  1  0
 23 55  1  0
 23 56  1  0
 24 25  2  0
 24 26  1  0
 26 27  1  0
 26 57  1  0
 27 58  1  0
 27 59  1  0
 28 29  1  0
 28 30  1  0
 30 32  1  0
 30 31  1  0
 30 60  1  0
 31 32  1  0
 31 61  1  0
 31 62  1  0
 32 63  1  0
 32 64  1  0
 33 65  1  0
 33 66  1  0
 34 35  1  0
 34 67  1  6
 35 68  1  0
 35 69  1  0
 35 70  1  0
M  CHG  1  28   1
M  END
>  <DOCK_score>  (1) 
-41.112923

>  <SMILES>  (1) 
CC[C@H]1CCN(c2ccc3c(c2)OCC(NC(N[C@H]2CCC(=O)NC2)=[NH+]C2CC2)C3)C1C

$$$$
