Cc1cccnc1C[NH+]=C(NC1COc2ccccc2C1)N[C@H]1CCC(=O)NC1
     RDKit          3D

 57 60  0  0  1  0  0  0  0  0999 V2000
  130.6140  132.1880  154.6027 C   0  0  0  0  0  0  0  0  0  0  0  0
  130.4250  131.5143  155.9375 C   0  0  0  0  0  0  0  0  0  0  0  0
  130.8212  130.1984  156.1221 C   0  0  0  0  0  0  0  0  0  0  0  0
  130.6236  129.6180  157.3655 C   0  0  0  0  0  0  0  0  0  0  0  0
  130.0511  130.3682  158.3755 C   0  0  0  0  0  0  0  0  0  0  0  0
  129.6864  131.6175  158.1639 N   0  0  0  0  0  0  0  0  0  0  0  0
  129.8550  132.2003  156.9929 C   0  0  0  0  0  0  0  0  0  0  0  0
  129.4205  133.6309  156.8035 C   0  0  0  0  0  0  0  0  0  0  0  0
  128.8508  134.1379  158.0542 N   0  0  0  0  0  0  0  0  0  0  0  0
  127.9326  134.4497  158.0778 H   0  0  0  0  0  0  0  0  0  0  0  0
  129.5779  134.1703  159.1357 C   0  0  0  0  0  0  0  0  0  0  0  0
  130.9391  134.3392  159.0441 N   0  0  0  0  0  0  0  0  0  0  0  0
  131.7561  134.3757  160.2597 C   0  0  1  0  0  0  0  0  0  0  0  0
  133.1672  133.8593  159.9500 C   0  0  0  0  0  0  0  0  0  0  0  0
  133.9063  133.8092  161.1711 O   0  0  0  0  0  0  0  0  0  0  0  0
  133.8914  134.9095  161.9678 C   0  0  0  0  0  0  0  0  0  0  0  0
  134.8660  135.0285  162.9538 C   0  0  0  0  0  0  0  0  0  0  0  0
  134.8814  136.1292  163.7854 C   0  0  0  0  0  0  0  0  0  0  0  0
  133.9260  137.1183  163.6398 C   0  0  0  0  0  0  0  0  0  0  0  0
  132.9582  137.0040  162.6613 C   0  0  0  0  0  0  0  0  0  0  0  0
  132.9384  135.9021  161.8225 C   0  0  0  0  0  0  0  0  0  0  0  0
  131.8714  135.8175  160.7607 C   0  0  0  0  0  0  0  0  0  0  0  0
  128.9832  134.0356  160.3679 N   0  0  0  0  0  0  0  0  0  0  0  0
  127.5327  133.8555  160.4655 C   0  0  1  0  0  0  0  0  0  0  0  0
  127.1676  133.3391  159.5778 H   0  0  0  0  0  0  0  0  0  0  0  0
  127.1992  133.0336  161.7165 C   0  0  0  0  0  0  0  0  0  0  0  0
  125.7040  132.7061  161.6954 C   0  0  0  0  0  0  0  0  0  0  0  0
  124.9118  133.9521  161.4214 C   0  0  0  0  0  0  0  0  0  0  0  0
  123.7282  133.9497  161.6863 O   0  0  0  0  0  0  0  0  0  0  0  0
  125.4403  135.0612  160.9028 N   0  0  0  0  0  0  0  0  0  0  0  0
  126.8528  135.2204  160.5809 C   0  0  0  0  0  0  0  0  0  0  0  0
  129.7287  132.0288  153.9868 H   0  0  0  0  0  0  0  0  0  0  0  0
  130.7643  133.2569  154.7533 H   0  0  0  0  0  0  0  0  0  0  0  0
  131.4853  131.7652  154.1025 H   0  0  0  0  0  0  0  0  0  0  0  0
  131.2692  129.6375  155.3152 H   0  0  0  0  0  0  0  0  0  0  0  0
  130.9164  128.5938  157.5437 H   0  0  0  0  0  0  0  0  0  0  0  0
  129.8971  129.9246  159.3481 H   0  0  0  0  0  0  0  0  0  0  0  0
  130.2815  134.2381  156.5240 H   0  0  0  0  0  0  0  0  0  0  0  0
  128.6693  133.6812  156.0153 H   0  0  0  0  0  0  0  0  0  0  0  0
  131.3587  134.4344  158.1747 H   0  0  0  0  0  0  0  0  0  0  0  0
  131.2980  133.7542  161.0290 H   0  0  0  0  0  0  0  0  0  0  0  0
  133.1059  132.8610  159.5167 H   0  0  0  0  0  0  0  0  0  0  0  0
  133.6595  134.5339  159.2495 H   0  0  0  0  0  0  0  0  0  0  0  0
  135.6126  134.2565  163.0687 H   0  0  0  0  0  0  0  0  0  0  0  0
  135.6395  136.2185  164.5495 H   0  0  0  0  0  0  0  0  0  0  0  0
  133.9368  137.9798  164.2910 H   0  0  0  0  0  0  0  0  0  0  0  0
  132.2128  137.7778  162.5497 H   0  0  0  0  0  0  0  0  0  0  0  0
  132.1348  136.4707  159.9289 H   0  0  0  0  0  0  0  0  0  0  0  0
  130.9162  136.1330  161.1805 H   0  0  0  0  0  0  0  0  0  0  0  0
  129.5242  134.0596  161.1727 H   0  0  0  0  0  0  0  0  0  0  0  0
  127.7773  132.1094  161.7132 H   0  0  0  0  0  0  0  0  0  0  0  0
  127.4360  133.6120  162.6095 H   0  0  0  0  0  0  0  0  0  0  0  0
  125.4098  132.2951  162.6611 H   0  0  0  0  0  0  0  0  0  0  0  0
  125.5063  131.9722  160.9141 H   0  0  0  0  0  0  0  0  0  0  0  0
  124.8472  135.8088  160.7284 H   0  0  0  0  0  0  0  0  0  0  0  0
  127.3383  135.7994  161.3665 H   0  0  0  0  0  0  0  0  0  0  0  0
  126.9459  135.7504  159.6330 H   0  0  0  0  0  0  0  0  0  0  0  0
  1  2  1  0
  1 32  1  0
  1 33  1  0
  1 34  1  0
  2  7  2  0
  2  3  1  0
  3  4  2  0
  3 35  1  0
  4  5  1  0
  4 36  1  0
  5  6  2  0
  5 37  1  0
  6  7  1  0
  7  8  1  0
  8  9  1  0
  8 38  1  0
  8 39  1  0
  9 10  1  0
 11  9  2  0
 11 12  1  0
 11 23  1  0
 12 13  1  0
 12 40  1  0
 13 22  1  0
 13 14  1  0
 13 41  1  1
 14 15  1  0
 14 42  1  0
 14 43  1  0
 15 16  1  0
 16 21  2  0
 16 17  1  0
 17 18  2  0
 17 44  1  0
 18 19  1  0
 18 45  1  0
 19 20  2  0
 19 46  1  0
 20 21  1  0
 20 47  1  0
 21 22  1  0
 22 48  1  0
 22 49  1  0
 23 24  1  0
 23 50  1  0
 24 25  1  6
 24 31  1  0
 24 26  1  0
 26 27  1  0
 26 51  1  0
 26 52  1  0
 27 28  1  0
 27 53  1  0
 27 54  1  0
 28 29  2  0
 28 30  1  0
 30 31  1  0
 30 55  1  0
 31 56  1  0
 31 57  1  0
M  CHG  1   9   1
M  END
>  <DOCK_score>  (1) 
-52.374023

>  <SMILES>  (1) 
Cc1cccnc1C[NH+]=C(NC1COc2ccccc2C1)N[C@H]1CCC(=O)NC1

$$$$
