C[C@H](CCc1ccc(Br)cc1)Nc1[nH]cc(-c2ccc(C3=CCC=CC3)cc2)[nH+]1
     RDKit          3D

 56 59  0  0  1  0  0  0  0  0999 V2000
  130.6618  137.0305  161.9503 C   0  0  0  0  0  0  0  0  0  0  0  0
  131.5550  135.8223  161.6616 C   0  0  2  0  0  0  0  0  0  0  0  0
  131.1082  134.9280  162.0961 H   0  0  0  0  0  0  0  0  0  0  0  0
  132.9374  136.0516  162.2759 C   0  0  0  0  0  0  0  0  0  0  0  0
  133.6534  134.7090  162.4361 C   0  0  0  0  0  0  0  0  0  0  0  0
  135.0149  134.9349  163.0411 C   0  0  0  0  0  0  0  0  0  0  0  0
  136.0550  134.0744  162.7432 C   0  0  0  0  0  0  0  0  0  0  0  0
  137.3053  134.2838  163.2941 C   0  0  0  0  0  0  0  0  0  0  0  0
  137.5129  135.3488  164.1521 C   0  0  0  0  0  0  0  0  0  0  0  0
  139.2211  135.6315  164.9124 Br  0  0  0  0  0  0  0  0  0  0  0  0
  136.4706  136.2066  164.4542 C   0  0  0  0  0  0  0  0  0  0  0  0
  135.2221  135.9993  163.8986 C   0  0  0  0  0  0  0  0  0  0  0  0
  131.6871  135.6477  160.2131 N   0  0  0  0  0  0  0  0  0  0  0  0
  131.2666  134.4715  159.6165 C   0  0  0  0  0  0  0  0  0  0  0  0
  130.7110  133.4099  160.2621 N   0  0  0  0  0  0  0  0  0  0  0  0
  130.5409  133.3416  161.2146 H   0  0  0  0  0  0  0  0  0  0  0  0
  130.4362  132.4527  159.3163 C   0  0  0  0  0  0  0  0  0  0  0  0
  130.8315  132.9566  158.1200 C   0  0  0  0  0  0  0  0  0  0  0  0
  130.7298  132.2729  156.8088 C   0  0  0  0  0  0  0  0  0  0  0  0
  129.9735  132.8409  155.7831 C   0  0  0  0  0  0  0  0  0  0  0  0
  129.8825  132.2087  154.5634 C   0  0  0  0  0  0  0  0  0  0  0  0
  130.5386  130.9938  154.3562 C   0  0  0  0  0  0  0  0  0  0  0  0
  130.4373  130.3125  153.0497 C   0  0  0  0  0  0  0  0  0  0  0  0
  130.5143  128.9991  153.0145 C   0  0  0  0  0  0  0  0  0  0  0  0
  130.4179  128.2179  151.7387 C   0  0  0  0  0  0  0  0  0  0  0  0
  130.7098  129.0842  150.5508 C   0  0  0  0  0  0  0  0  0  0  0  0
  130.6390  130.3792  150.5852 C   0  0  0  0  0  0  0  0  0  0  0  0
  130.2574  131.1446  151.8160 C   0  0  0  0  0  0  0  0  0  0  0  0
  131.2915  130.4228  155.3854 C   0  0  0  0  0  0  0  0  0  0  0  0
  131.3860  131.0587  156.6028 C   0  0  0  0  0  0  0  0  0  0  0  0
  131.3325  134.1990  158.3363 N   0  0  0  0  0  0  0  0  0  0  0  0
  131.6852  134.7902  157.6527 H   0  0  0  0  0  0  0  0  0  0  0  0
  129.6770  136.8672  161.5127 H   0  0  0  0  0  0  0  0  0  0  0  0
  131.1087  137.9248  161.5159 H   0  0  0  0  0  0  0  0  0  0  0  0
  130.5635  137.1604  163.0281 H   0  0  0  0  0  0  0  0  0  0  0  0
  133.5222  136.6995  161.6230 H   0  0  0  0  0  0  0  0  0  0  0  0
  132.8275  136.5235  163.2523 H   0  0  0  0  0  0  0  0  0  0  0  0
  133.0686  134.0610  163.0889 H   0  0  0  0  0  0  0  0  0  0  0  0
  133.7634  134.2372  161.4597 H   0  0  0  0  0  0  0  0  0  0  0  0
  135.8917  133.2404  162.0765 H   0  0  0  0  0  0  0  0  0  0  0  0
  138.1186  133.6136  163.0583 H   0  0  0  0  0  0  0  0  0  0  0  0
  136.6324  137.0379  165.1243 H   0  0  0  0  0  0  0  0  0  0  0  0
  134.4083  136.6688  164.1347 H   0  0  0  0  0  0  0  0  0  0  0  0
  132.0694  136.3563  159.6721 H   0  0  0  0  0  0  0  0  0  0  0  0
  129.9907  131.4845  159.4912 H   0  0  0  0  0  0  0  0  0  0  0  0
  129.4623  133.7783  155.9447 H   0  0  0  0  0  0  0  0  0  0  0  0
  129.3006  132.6506  153.7681 H   0  0  0  0  0  0  0  0  0  0  0  0
  130.6486  128.4624  153.9421 H   0  0  0  0  0  0  0  0  0  0  0  0
  129.4130  127.8070  151.6428 H   0  0  0  0  0  0  0  0  0  0  0  0
  131.1370  127.3993  151.7692 H   0  0  0  0  0  0  0  0  0  0  0  0
  130.9925  128.6082  149.6234 H   0  0  0  0  0  0  0  0  0  0  0  0
  130.8652  130.9313  149.6849 H   0  0  0  0  0  0  0  0  0  0  0  0
  129.2133  131.4477  151.7389 H   0  0  0  0  0  0  0  0  0  0  0  0
  130.8829  132.0341  151.8907 H   0  0  0  0  0  0  0  0  0  0  0  0
  131.7990  129.4830  155.2262 H   0  0  0  0  0  0  0  0  0  0  0  0
  131.9681  130.6179  157.3984 H   0  0  0  0  0  0  0  0  0  0  0  0
  1  2  1  0
  1 33  1  0
  1 34  1  0
  1 35  1  0
  2  3  1  1
  2  4  1  0
  2 13  1  0
  4  5  1  0
  4 36  1  0
  4 37  1  0
  5  6  1  0
  5 38  1  0
  5 39  1  0
  6 12  1  0
  6  7  2  0
  7  8  1  0
  7 40  1  0
  8  9  2  0
  8 41  1  0
  9 10  1  0
  9 11  1  0
 11 12  2  0
 11 42  1  0
 12 43  1  0
 13 44  1  0
 14 13  1  0
 14 31  2  0
 14 15  1  0
 15 16  1  0
 15 17  1  0
 17 18  2  0
 17 45  1  0
 18 19  1  0
 18 31  1  0
 19 30  1  0
 19 20  2  0
 20 21  1  0
 20 46  1  0
 21 22  2  0
 21 47  1  0
 22 23  1  0
 22 29  1  0
 23 28  1  0
 23 24  2  0
 24 25  1  0
 24 48  1  0
 25 26  1  0
 25 49  1  0
 25 50  1  0
 26 27  2  0
 26 51  1  0
 27 28  1  0
 27 52  1  0
 28 53  1  0
 28 54  1  0
 29 30  2  0
 29 55  1  0
 30 56  1  0
 31 32  1  0
M  CHG  1  31   1
M  END
>  <DOCK_score>  (1) 
-60.851555

>  <SMILES>  (1) 
C[C@H](CCc1ccc(Br)cc1)Nc1[nH]cc(-c2ccc(C3=CCC=CC3)cc2)[nH+]1

$$$$
