Nc1ccc(-c2c[nH]c(N[C@@H](CCc3ccccc3)Cc3ccc(-c4ccccc4)cc3)[nH+]2)cc1
     RDKit          3D

 66 70  0  0  1  0  0  0  0  0999 V2000
  131.2688  129.9485  151.6695 N   0  0  0  0  0  0  0  0  0  0  0  0
  131.0431  130.4207  152.9646 C   0  0  0  0  0  0  0  0  0  0  0  0
  131.6241  129.7751  154.0496 C   0  0  0  0  0  0  0  0  0  0  0  0
  131.4027  130.2395  155.3289 C   0  0  0  0  0  0  0  0  0  0  0  0
  130.5953  131.3574  155.5336 C   0  0  0  0  0  0  0  0  0  0  0  0
  130.3557  131.8589  156.9090 C   0  0  0  0  0  0  0  0  0  0  0  0
  129.1498  131.9710  157.5187 C   0  0  0  0  0  0  0  0  0  0  0  0
  129.3842  132.4742  158.7765 N   0  0  0  0  0  0  0  0  0  0  0  0
  128.7157  132.6651  159.4528 H   0  0  0  0  0  0  0  0  0  0  0  0
  130.7276  132.6546  158.8974 C   0  0  0  0  0  0  0  0  0  0  0  0
  131.3776  133.1463  160.0164 N   0  0  0  0  0  0  0  0  0  0  0  0
  130.6076  133.5225  161.2046 C   0  0  1  0  0  0  0  0  0  0  0  0
  129.8995  134.3092  160.9444 H   0  0  0  0  0  0  0  0  0  0  0  0
  129.8457  132.3025  161.7260 C   0  0  0  0  0  0  0  0  0  0  0  0
  128.6906  132.7649  162.6164 C   0  0  0  0  0  0  0  0  0  0  0  0
  127.7570  133.6357  161.8158 C   0  0  0  0  0  0  0  0  0  0  0  0
  127.9562  135.0028  161.7695 C   0  0  0  0  0  0  0  0  0  0  0  0
  127.1026  135.8011  161.0311 C   0  0  0  0  0  0  0  0  0  0  0  0
  126.0435  135.2335  160.3477 C   0  0  0  0  0  0  0  0  0  0  0  0
  125.8413  133.8669  160.3983 C   0  0  0  0  0  0  0  0  0  0  0  0
  126.6979  133.0681  161.1323 C   0  0  0  0  0  0  0  0  0  0  0  0
  131.5595  134.0313  162.2890 C   0  0  0  0  0  0  0  0  0  0  0  0
  132.3100  135.2331  161.7753 C   0  0  0  0  0  0  0  0  0  0  0  0
  131.7189  136.0683  160.8445 C   0  0  0  0  0  0  0  0  0  0  0  0
  132.4016  137.1705  160.3710 C   0  0  0  0  0  0  0  0  0  0  0  0
  133.6887  137.4406  160.8321 C   0  0  0  0  0  0  0  0  0  0  0  0
  134.4274  138.6238  160.3260 C   0  0  0  0  0  0  0  0  0  0  0  0
  135.3547  139.2701  161.1406 C   0  0  0  0  0  0  0  0  0  0  0  0
  136.0429  140.3671  160.6630 C   0  0  0  0  0  0  0  0  0  0  0  0
  135.8064  140.8312  159.3822 C   0  0  0  0  0  0  0  0  0  0  0  0
  134.8828  140.1964  158.5704 C   0  0  0  0  0  0  0  0  0  0  0  0
  134.1928  139.0957  159.0360 C   0  0  0  0  0  0  0  0  0  0  0  0
  134.2789  136.5959  161.7695 C   0  0  0  0  0  0  0  0  0  0  0  0
  133.5870  135.4968  162.2366 C   0  0  0  0  0  0  0  0  0  0  0  0
  131.3040  132.2911  157.7776 N   0  0  0  0  0  0  0  0  0  0  0  0
  132.2569  132.3238  157.5993 H   0  0  0  0  0  0  0  0  0  0  0  0
  130.0090  131.9999  154.4443 C   0  0  0  0  0  0  0  0  0  0  0  0
  130.2382  131.5357  153.1661 C   0  0  0  0  0  0  0  0  0  0  0  0
  131.8306  129.1706  151.5278 H   0  0  0  0  0  0  0  0  0  0  0  0
  130.8637  130.3985  150.9116 H   0  0  0  0  0  0  0  0  0  0  0  0
  132.2491  128.9088  153.8906 H   0  0  0  0  0  0  0  0  0  0  0  0
  131.8546  129.7377  156.1718 H   0  0  0  0  0  0  0  0  0  0  0  0
  128.1893  131.7145  157.0970 H   0  0  0  0  0  0  0  0  0  0  0  0
  132.3429  133.2418  160.0136 H   0  0  0  0  0  0  0  0  0  0  0  0
  129.4508  131.7338  160.8843 H   0  0  0  0  0  0  0  0  0  0  0  0
  130.5212  131.6727  162.3051 H   0  0  0  0  0  0  0  0  0  0  0  0
  128.1478  131.8958  162.9879 H   0  0  0  0  0  0  0  0  0  0  0  0
  129.0858  133.3336  163.4581 H   0  0  0  0  0  0  0  0  0  0  0  0
  128.7809  135.4469  162.3070 H   0  0  0  0  0  0  0  0  0  0  0  0
  127.2605  136.8688  160.9920 H   0  0  0  0  0  0  0  0  0  0  0  0
  125.3741  135.8577  159.7746 H   0  0  0  0  0  0  0  0  0  0  0  0
  125.0136  133.4234  159.8647 H   0  0  0  0  0  0  0  0  0  0  0  0
  126.5396  132.0004  161.1721 H   0  0  0  0  0  0  0  0  0  0  0  0
  132.2677  133.2446  162.5491 H   0  0  0  0  0  0  0  0  0  0  0  0
  130.9866  134.3114  163.1732 H   0  0  0  0  0  0  0  0  0  0  0  0
  130.7234  135.8552  160.4845 H   0  0  0  0  0  0  0  0  0  0  0  0
  131.9393  137.8219  159.6440 H   0  0  0  0  0  0  0  0  0  0  0  0
  135.5375  138.9110  162.1427 H   0  0  0  0  0  0  0  0  0  0  0  0
  136.7650  140.8662  161.2922 H   0  0  0  0  0  0  0  0  0  0  0  0
  136.3434  141.6927  159.0136 H   0  0  0  0  0  0  0  0  0  0  0  0
  134.7013  140.5634  157.5709 H   0  0  0  0  0  0  0  0  0  0  0  0
  133.4720  138.6010  158.4018 H   0  0  0  0  0  0  0  0  0  0  0  0
  135.2760  136.8010  162.1304 H   0  0  0  0  0  0  0  0  0  0  0  0
  134.0437  134.8413  162.9635 H   0  0  0  0  0  0  0  0  0  0  0  0
  129.3797  132.8636  154.6008 H   0  0  0  0  0  0  0  0  0  0  0  0
  129.7878  132.0359  152.3216 H   0  0  0  0  0  0  0  0  0  0  0  0
  1  2  1  0
  1 39  1  0
  1 40  1  0
  2 38  2  0
  2  3  1  0
  3  4  2  0
  3 41  1  0
  4  5  1  0
  4 42  1  0
  5  6  1  0
  5 37  2  0
  6 35  1  0
  6  7  2  0
  7  8  1  0
  7 43  1  0
  8  9  1  0
  8 10  1  0
 10 11  1  0
 10 35  2  0
 11 12  1  0
 11 44  1  0
 12 13  1  6
 12 14  1  0
 12 22  1  0
 14 15  1  0
 14 45  1  0
 14 46  1  0
 15 16  1  0
 15 47  1  0
 15 48  1  0
 16 21  1  0
 16 17  2  0
 17 18  1  0
 17 49  1  0
 18 19  2  0
 18 50  1  0
 19 20  1  0
 19 51  1  0
 20 21  2  0
 20 52  1  0
 21 53  1  0
 22 23  1  0
 22 54  1  0
 22 55  1  0
 23 34  1  0
 23 24  2  0
 24 25  1  0
 24 56  1  0
 25 26  2  0
 25 57  1  0
 26 27  1  0
 26 33  1  0
 27 32  1  0
 27 28  2  0
 28 29  1  0
 28 58  1  0
 29 30  2  0
 29 59  1  0
 30 31  1  0
 30 60  1  0
 31 32  2  0
 31 61  1  0
 32 62  1  0
 33 34  2  0
 33 63  1  0
 34 64  1  0
 35 36  1  0
 37 38  1  0
 37 65  1  0
 38 66  1  0
M  CHG  1  35   1
M  END
>  <DOCK_score>  (1) 
-59.727669

>  <SMILES>  (1) 
Nc1ccc(-c2c[nH]c(N[C@@H](CCc3ccccc3)Cc3ccc(-c4ccccc4)cc3)[nH+]2)cc1

$$$$
