CC1=CCC(Nc2ccc(F)c(O[C@@H](c3ccc(C)c(F)c3)C(C)NC3=[NH+]CCN3)c2)CC1
     RDKit          3D

 66 69  0  0  1  0  0  0  0  0999 V2000
  137.2423  141.0777  161.4146 C   0  0  0  0  0  0  0  0  0  0  0  0
  136.0337  140.3183  160.9310 C   0  0  0  0  0  0  0  0  0  0  0  0
  135.2006  139.8753  161.8172 C   0  0  0  0  0  0  0  0  0  0  0  0
  133.9609  139.0955  161.4901 C   0  0  0  0  0  0  0  0  0  0  0  0
  133.6051  139.2670  160.0118 C   0  0  2  0  0  0  0  0  0  0  0  0
  132.5599  138.3093  159.6424 N   0  0  0  0  0  0  0  0  0  0  0  0
  131.3217  138.3411  160.2909 C   0  0  0  0  0  0  0  0  0  0  0  0
  130.8251  139.5417  160.7823 C   0  0  0  0  0  0  0  0  0  0  0  0
  129.6012  139.5740  161.4229 C   0  0  0  0  0  0  0  0  0  0  0  0
  128.8652  138.4121  161.5716 C   0  0  0  0  0  0  0  0  0  0  0  0
  127.6662  138.4475  162.1931 F   0  0  0  0  0  0  0  0  0  0  0  0
  129.3604  137.2079  161.0869 C   0  0  0  0  0  0  0  0  0  0  0  0
  128.6392  136.0654  161.2384 O   0  0  0  0  0  0  0  0  0  0  0  0
  127.7220  135.7340  160.1938 C   0  0  1  0  0  0  0  0  0  0  0  0
  127.3586  136.6489  159.7257 H   0  0  0  0  0  0  0  0  0  0  0  0
  128.4203  134.8853  159.1628 C   0  0  0  0  0  0  0  0  0  0  0  0
  128.5131  135.3237  157.8547 C   0  0  0  0  0  0  0  0  0  0  0  0
  129.1530  134.5462  156.9079 C   0  0  0  0  0  0  0  0  0  0  0  0
  129.7064  133.3321  157.2691 C   0  0  0  0  0  0  0  0  0  0  0  0
  130.4093  132.4875  156.2380 C   0  0  0  0  0  0  0  0  0  0  0  0
  129.6099  132.8900  158.5775 C   0  0  0  0  0  0  0  0  0  0  0  0
  130.1463  131.7015  158.9307 F   0  0  0  0  0  0  0  0  0  0  0  0
  128.9682  133.6696  159.5252 C   0  0  0  0  0  0  0  0  0  0  0  0
  126.5413  134.9568  160.7793 C   0  0  2  0  0  0  0  0  0  0  0  0
  125.5594  134.6021  159.6609 C   0  0  0  0  0  0  0  0  0  0  0  0
  125.8624  135.7820  161.7816 N   0  0  0  0  0  0  0  0  0  0  0  0
  126.2530  135.7266  163.0914 C   0  0  0  0  0  0  0  0  0  0  0  0
  125.6815  136.4518  164.0388 N   0  0  0  0  0  0  0  0  0  0  0  0
  124.9514  137.0763  163.9046 H   0  0  0  0  0  0  0  0  0  0  0  0
  126.3258  136.1591  165.3286 C   0  0  0  0  0  0  0  0  0  0  0  0
  127.4053  135.1202  164.9630 C   0  0  0  0  0  0  0  0  0  0  0  0
  127.2363  134.9476  163.5116 N   0  0  0  0  0  0  0  0  0  0  0  0
  130.5876  137.1732  160.4441 C   0  0  0  0  0  0  0  0  0  0  0  0
  134.8642  139.0039  159.1760 C   0  0  0  0  0  0  0  0  0  0  0  0
  135.8712  140.1224  159.4522 C   0  0  0  0  0  0  0  0  0  0  0  0
  137.2224  141.1374  162.5028 H   0  0  0  0  0  0  0  0  0  0  0  0
  138.1476  140.5611  161.0956 H   0  0  0  0  0  0  0  0  0  0  0  0
  137.2311  142.0837  160.9952 H   0  0  0  0  0  0  0  0  0  0  0  0
  135.4107  140.0799  162.8567 H   0  0  0  0  0  0  0  0  0  0  0  0
  133.1354  139.4550  162.1044 H   0  0  0  0  0  0  0  0  0  0  0  0
  134.1345  138.0401  161.7000 H   0  0  0  0  0  0  0  0  0  0  0  0
  133.2503  140.2826  159.8357 H   0  0  0  0  0  0  0  0  0  0  0  0
  132.7268  137.6530  158.9479 H   0  0  0  0  0  0  0  0  0  0  0  0
  131.3957  140.4509  160.6631 H   0  0  0  0  0  0  0  0  0  0  0  0
  129.2166  140.5084  161.8043 H   0  0  0  0  0  0  0  0  0  0  0  0
  128.0850  136.2742  157.5726 H   0  0  0  0  0  0  0  0  0  0  0  0
  129.2246  134.8894  155.8864 H   0  0  0  0  0  0  0  0  0  0  0  0
  129.6908  131.8172  155.7662 H   0  0  0  0  0  0  0  0  0  0  0  0
  130.8546  133.1335  155.4813 H   0  0  0  0  0  0  0  0  0  0  0  0
  131.1910  131.9007  156.7204 H   0  0  0  0  0  0  0  0  0  0  0  0
  128.8956  133.3275  160.5468 H   0  0  0  0  0  0  0  0  0  0  0  0
  126.9048  134.0421  161.2475 H   0  0  0  0  0  0  0  0  0  0  0  0
  124.7183  134.0483  160.0779 H   0  0  0  0  0  0  0  0  0  0  0  0
  125.1960  135.5168  159.1928 H   0  0  0  0  0  0  0  0  0  0  0  0
  126.0645  133.9881  158.9151 H   0  0  0  0  0  0  0  0  0  0  0  0
  125.1360  136.3674  161.5164 H   0  0  0  0  0  0  0  0  0  0  0  0
  125.6091  135.7364  166.0327 H   0  0  0  0  0  0  0  0  0  0  0  0
  126.7829  137.0596  165.7387 H   0  0  0  0  0  0  0  0  0  0  0  0
  127.2259  134.1803  165.4848 H   0  0  0  0  0  0  0  0  0  0  0  0
  128.4008  135.5009  165.1911 H   0  0  0  0  0  0  0  0  0  0  0  0
  127.7630  134.3563  162.9514 H   0  0  0  0  0  0  0  0  0  0  0  0
  130.9720  136.2388  160.0623 H   0  0  0  0  0  0  0  0  0  0  0  0
  135.2969  138.0439  159.4577 H   0  0  0  0  0  0  0  0  0  0  0  0
  134.6061  138.9963  158.1171 H   0  0  0  0  0  0  0  0  0  0  0  0
  135.5143  141.0488  159.0020 H   0  0  0  0  0  0  0  0  0  0  0  0
  136.8335  139.8557  159.0150 H   0  0  0  0  0  0  0  0  0  0  0  0
  1  2  1  0
  1 36  1  0
  1 37  1  0
  1 38  1  0
  2 35  1  0
  2  3  2  0
  3  4  1  0
  3 39  1  0
  4  5  1  0
  4 40  1  0
  4 41  1  0
  5  6  1  0
  5 34  1  0
  5 42  1  1
  6  7  1  0
  6 43  1  0
  7 33  1  0
  7  8  2  0
  8  9  1  0
  8 44  1  0
  9 10  2  0
  9 45  1  0
 10 11  1  0
 10 12  1  0
 12 13  1  0
 12 33  2  0
 13 14  1  0
 14 15  1  6
 14 16  1  0
 14 24  1  0
 16 23  1  0
 16 17  2  0
 17 18  1  0
 17 46  1  0
 18 19  2  0
 18 47  1  0
 19 20  1  0
 19 21  1  0
 20 48  1  0
 20 49  1  0
 20 50  1  0
 21 22  1  0
 21 23  2  0
 23 51  1  0
 24 25  1  0
 24 26  1  0
 24 52  1  1
 25 53  1  0
 25 54  1  0
 25 55  1  0
 26 27  1  0
 26 56  1  0
 27 32  2  0
 27 28  1  0
 28 29  1  0
 28 30  1  0
 30 31  1  0
 30 57  1  0
 30 58  1  0
 31 32  1  0
 31 59  1  0
 31 60  1  0
 32 61  1  0
 33 62  1  0
 34 35  1  0
 34 63  1  0
 34 64  1  0
 35 65  1  0
 35 66  1  0
M  CHG  1  32   1
M  END
>  <DOCK_score>  (1) 
-47.811771

>  <SMILES>  (1) 
CC1=CCC(Nc2ccc(F)c(O[C@@H](c3ccc(C)c(F)c3)C(C)NC3=[NH+]CCN3)c2)CC1

$$$$
