O=C(C=Cc1cn(-c2ccccc2)nc1-c1ccncc1)Nc1c[nH]nc1[C@H]1CCC[NH2+]C1
     RDKit          3D

 59 63  0  0  1  0  0  0  0  0999 V2000
  128.8221  138.8392  162.1454 O   0  0  0  0  0  0  0  0  0  0  0  0
  129.7742  138.0850  162.0583 C   0  0  0  0  0  0  0  0  0  0  0  0
  131.0767  138.5483  162.3731 C   0  0  0  0  0  0  0  0  0  0  0  0
  131.2617  139.8266  162.7700 C   0  0  0  0  0  0  0  0  0  0  0  0
  132.6103  140.3063  163.0959 C   0  0  0  0  0  0  0  0  0  0  0  0
  133.0372  140.8176  164.3065 C   0  0  0  0  0  0  0  0  0  0  0  0
  134.3396  141.1346  164.1833 N   0  0  0  0  0  0  0  0  0  0  0  0
  135.1366  141.6806  165.1975 C   0  0  0  0  0  0  0  0  0  0  0  0
  136.4747  141.9626  164.9551 C   0  0  0  0  0  0  0  0  0  0  0  0
  137.2567  142.5052  165.9559 C   0  0  0  0  0  0  0  0  0  0  0  0
  136.7114  142.7579  167.2012 C   0  0  0  0  0  0  0  0  0  0  0  0
  135.3806  142.4734  167.4473 C   0  0  0  0  0  0  0  0  0  0  0  0
  134.5920  141.9356  166.4492 C   0  0  0  0  0  0  0  0  0  0  0  0
  134.7736  140.8427  162.8872 N   0  0  0  0  0  0  0  0  0  0  0  0
  133.7712  140.3440  162.1987 C   0  0  0  0  0  0  0  0  0  0  0  0
  133.8064  139.9037  160.7843 C   0  0  0  0  0  0  0  0  0  0  0  0
  134.9829  139.4045  160.2163 C   0  0  0  0  0  0  0  0  0  0  0  0
  134.9702  139.0009  158.8972 C   0  0  0  0  0  0  0  0  0  0  0  0
  133.8717  139.0908  158.1720 N   0  0  0  0  0  0  0  0  0  0  0  0
  132.7427  139.5604  158.6675 C   0  0  0  0  0  0  0  0  0  0  0  0
  132.6656  139.9812  159.9790 C   0  0  0  0  0  0  0  0  0  0  0  0
  129.5897  136.8098  161.6626 N   0  0  0  0  0  0  0  0  0  0  0  0
  128.2971  136.3503  161.3502 C   0  0  0  0  0  0  0  0  0  0  0  0
  127.1361  136.7983  161.8929 C   0  0  0  0  0  0  0  0  0  0  0  0
  126.1210  136.0945  161.3277 N   0  0  0  0  0  0  0  0  0  0  0  0
  125.1768  136.1963  161.5249 H   0  0  0  0  0  0  0  0  0  0  0  0
  126.6795  135.1956  160.4101 N   0  0  0  0  0  0  0  0  0  0  0  0
  127.9786  135.3496  160.4202 C   0  0  0  0  0  0  0  0  0  0  0  0
  128.9649  134.5791  159.5808 C   0  0  1  0  0  0  0  0  0  0  0  0
  129.9098  134.4923  160.1172 H   0  0  0  0  0  0  0  0  0  0  0  0
  128.4096  133.1811  159.2936 C   0  0  0  0  0  0  0  0  0  0  0  0
  129.3830  132.4344  158.3769 C   0  0  0  0  0  0  0  0  0  0  0  0
  129.5966  133.2475  157.0984 C   0  0  0  0  0  0  0  0  0  0  0  0
  130.1530  134.5627  157.4377 N   0  0  0  0  0  0  0  0  0  0  0  0
  131.0116  134.4405  157.9535 H   0  0  0  0  0  0  0  0  0  0  0  0
  130.3414  135.0761  156.5899 H   0  0  0  0  0  0  0  0  0  0  0  0
  129.1939  135.3127  158.2576 C   0  0  0  0  0  0  0  0  0  0  0  0
  131.9211  137.8793  162.2959 H   0  0  0  0  0  0  0  0  0  0  0  0
  130.4173  140.4956  162.8472 H   0  0  0  0  0  0  0  0  0  0  0  0
  132.4342  140.9385  165.1943 H   0  0  0  0  0  0  0  0  0  0  0  0
  136.9021  141.7615  163.9840 H   0  0  0  0  0  0  0  0  0  0  0  0
  138.2962  142.7288  165.7668 H   0  0  0  0  0  0  0  0  0  0  0  0
  137.3259  143.1788  167.9833 H   0  0  0  0  0  0  0  0  0  0  0  0
  134.9577  142.6723  168.4209 H   0  0  0  0  0  0  0  0  0  0  0  0
  133.5527  141.7139  166.6419 H   0  0  0  0  0  0  0  0  0  0  0  0
  135.8871  139.3327  160.8027 H   0  0  0  0  0  0  0  0  0  0  0  0
  135.8728  138.6106  158.4507 H   0  0  0  0  0  0  0  0  0  0  0  0
  131.8670  139.6163  158.0378 H   0  0  0  0  0  0  0  0  0  0  0  0
  131.7384  140.3651  160.3779 H   0  0  0  0  0  0  0  0  0  0  0  0
  130.3481  136.2091  161.5932 H   0  0  0  0  0  0  0  0  0  0  0  0
  127.0378  137.5711  162.6409 H   0  0  0  0  0  0  0  0  0  0  0  0
  128.2979  132.6339  160.2296 H   0  0  0  0  0  0  0  0  0  0  0  0
  127.4403  133.2677  158.8027 H   0  0  0  0  0  0  0  0  0  0  0  0
  130.3366  132.3031  158.8884 H   0  0  0  0  0  0  0  0  0  0  0  0
  128.9685  131.4586  158.1235 H   0  0  0  0  0  0  0  0  0  0  0  0
  130.2890  132.7186  156.4433 H   0  0  0  0  0  0  0  0  0  0  0  0
  128.6425  133.3784  156.5879 H   0  0  0  0  0  0  0  0  0  0  0  0
  128.2485  135.3992  157.7221 H   0  0  0  0  0  0  0  0  0  0  0  0
  129.5891  136.3086  158.4585 H   0  0  0  0  0  0  0  0  0  0  0  0
  1  2  2  0
  2  3  1  0
  2 22  1  0
  3  4  2  0
  3 38  1  0
  4  5  1  0
  4 39  1  0
  5 15  1  0
  5  6  2  0
  6  7  1  0
  6 40  1  0
  7  8  1  0
  7 14  1  0
  8 13  1  0
  8  9  2  0
  9 10  1  0
  9 41  1  0
 10 11  2  0
 10 42  1  0
 11 12  1  0
 11 43  1  0
 12 13  2  0
 12 44  1  0
 13 45  1  0
 14 15  2  0
 15 16  1  0
 16 21  1  0
 16 17  2  0
 17 18  1  0
 17 46  1  0
 18 19  2  0
 18 47  1  0
 19 20  1  0
 20 21  2  0
 20 48  1  0
 21 49  1  0
 22 23  1  0
 22 50  1  0
 23 28  1  0
 23 24  2  0
 24 25  1  0
 24 51  1  0
 25 26  1  0
 25 27  1  0
 27 28  2  0
 28 29  1  0
 29 30  1  1
 29 37  1  0
 29 31  1  0
 31 32  1  0
 31 52  1  0
 31 53  1  0
 32 33  1  0
 32 54  1  0
 32 55  1  0
 33 34  1  0
 33 56  1  0
 33 57  1  0
 34 35  1  0
 34 36  1  0
 34 37  1  0
 37 58  1  0
 37 59  1  0
M  CHG  1  34   1
M  END
>  <DOCK_score>  (1) 
-43.4314

>  <SMILES>  (1) 
O=C(C=Cc1cn(-c2ccccc2)nc1-c1ccncc1)Nc1c[nH]nc1[C@H]1CCC[NH2+]C1

$$$$
