Nc1ccc(Sc2ccccc2)c(Nc2[nH]cc(C3=CCC3)[nH+]2)c1
     RDKit          3D

 43 46  0  0  1  0  0  0  0  0999 V2000
  127.4865  132.5956  161.2174 N   0  0  0  0  0  0  0  0  0  0  0  0
  128.4693  132.0863  160.3609 C   0  0  0  0  0  0  0  0  0  0  0  0
  128.3396  130.8052  159.8401 C   0  0  0  0  0  0  0  0  0  0  0  0
  129.3080  130.2991  158.9942 C   0  0  0  0  0  0  0  0  0  0  0  0
  130.4101  131.0715  158.6583 C   0  0  0  0  0  0  0  0  0  0  0  0
  131.6410  130.4276  157.5743 S   0  0  0  0  0  0  0  0  0  0  0  0
  131.0631  130.9167  155.9833 C   0  0  0  0  0  0  0  0  0  0  0  0
  130.3181  132.0813  155.8404 C   0  0  0  0  0  0  0  0  0  0  0  0
  129.8715  132.4642  154.5912 C   0  0  0  0  0  0  0  0  0  0  0  0
  130.1555  131.6849  153.4845 C   0  0  0  0  0  0  0  0  0  0  0  0
  130.8920  130.5223  153.6237 C   0  0  0  0  0  0  0  0  0  0  0  0
  131.3464  130.1358  154.8689 C   0  0  0  0  0  0  0  0  0  0  0  0
  130.5456  132.3568  159.1836 C   0  0  0  0  0  0  0  0  0  0  0  0
  131.6591  133.1370  158.8499 N   0  0  0  0  0  0  0  0  0  0  0  0
  132.1458  134.0699  159.7502 C   0  0  0  0  0  0  0  0  0  0  0  0
  132.0676  133.9785  161.1064 N   0  0  0  0  0  0  0  0  0  0  0  0
  131.6646  133.2547  161.6109 H   0  0  0  0  0  0  0  0  0  0  0  0
  132.6638  135.0992  161.6285 C   0  0  0  0  0  0  0  0  0  0  0  0
  133.0904  135.8451  160.5760 C   0  0  0  0  0  0  0  0  0  0  0  0
  133.7916  137.1430  160.6569 C   0  0  0  0  0  0  0  0  0  0  0  0
  134.2471  137.9469  159.7041 C   0  0  0  0  0  0  0  0  0  0  0  0
  134.7363  138.9067  160.7588 C   0  0  0  0  0  0  0  0  0  0  0  0
  134.2123  137.9668  161.8473 C   0  0  0  0  0  0  0  0  0  0  0  0
  132.7525  135.1886  159.4367 N   0  0  0  0  0  0  0  0  0  0  0  0
  132.9334  135.4968  158.5349 H   0  0  0  0  0  0  0  0  0  0  0  0
  129.5725  132.8621  160.0322 C   0  0  0  0  0  0  0  0  0  0  0  0
  127.5765  133.4904  161.5810 H   0  0  0  0  0  0  0  0  0  0  0  0
  126.7155  132.0540  161.4473 H   0  0  0  0  0  0  0  0  0  0  0  0
  127.4805  130.2034  160.0972 H   0  0  0  0  0  0  0  0  0  0  0  0
  129.2046  129.3026  158.5907 H   0  0  0  0  0  0  0  0  0  0  0  0
  130.0922  132.6881  156.7048 H   0  0  0  0  0  0  0  0  0  0  0  0
  129.2962  133.3713  154.4788 H   0  0  0  0  0  0  0  0  0  0  0  0
  129.8012  131.9847  152.5094 H   0  0  0  0  0  0  0  0  0  0  0  0
  131.1121  129.9163  152.7572 H   0  0  0  0  0  0  0  0  0  0  0  0
  131.9210  129.2278  154.9769 H   0  0  0  0  0  0  0  0  0  0  0  0
  132.0897  133.0241  157.9881 H   0  0  0  0  0  0  0  0  0  0  0  0
  132.7736  135.3414  162.6753 H   0  0  0  0  0  0  0  0  0  0  0  0
  134.2583  137.9249  158.6244 H   0  0  0  0  0  0  0  0  0  0  0  0
  135.8208  139.0143  160.7709 H   0  0  0  0  0  0  0  0  0  0  0  0
  134.2218  139.8674  160.7363 H   0  0  0  0  0  0  0  0  0  0  0  0
  134.9897  137.5122  162.4613 H   0  0  0  0  0  0  0  0  0  0  0  0
  133.3822  138.3694  162.4277 H   0  0  0  0  0  0  0  0  0  0  0  0
  129.6729  133.8582  160.4373 H   0  0  0  0  0  0  0  0  0  0  0  0
  1  2  1  0
  1 27  1  0
  1 28  1  0
  2 26  2  0
  2  3  1  0
  3  4  2  0
  3 29  1  0
  4  5  1  0
  4 30  1  0
  5  6  1  0
  5 13  2  0
  6  7  1  0
  7 12  1  0
  7  8  2  0
  8  9  1  0
  8 31  1  0
  9 10  2  0
  9 32  1  0
 10 11  1  0
 10 33  1  0
 11 12  2  0
 11 34  1  0
 12 35  1  0
 13 14  1  0
 13 26  1  0
 14 36  1  0
 15 14  1  0
 15 24  2  0
 15 16  1  0
 16 17  1  0
 16 18  1  0
 18 19  2  0
 18 37  1  0
 19 20  1  0
 19 24  1  0
 20 23  1  0
 20 21  2  0
 21 22  1  0
 21 38  1  0
 22 23  1  0
 22 39  1  0
 22 40  1  0
 23 41  1  0
 23 42  1  0
 24 25  1  0
 26 43  1  0
M  CHG  1  24   1
M  END
>  <DOCK_score>  (1) 
-56.417641

>  <SMILES>  (1) 
Nc1ccc(Sc2ccccc2)c(Nc2[nH]cc(C3=CCC3)[nH+]2)c1

$$$$
