CCc1ccc(-c2cccc(-c3cccc(Nc4ccccc4[C@@H](C)Nc4[nH]c(C)c(C)[nH+]4)c3)c2)cc1
     RDKit          3D

 72 76  0  0  1  0  0  0  0  0999 V2000
  134.5970  138.0875  171.0893 C   0  0  0  0  0  0  0  0  0  0  0  0
  133.4618  138.4709  170.1378 C   0  0  0  0  0  0  0  0  0  0  0  0
  134.0373  139.1121  168.9015 C   0  0  0  0  0  0  0  0  0  0  0  0
  134.3757  138.3288  167.8128 C   0  0  0  0  0  0  0  0  0  0  0  0
  134.8988  138.9115  166.6762 C   0  0  0  0  0  0  0  0  0  0  0  0
  135.0959  140.2900  166.6307 C   0  0  0  0  0  0  0  0  0  0  0  0
  135.6641  140.9213  165.4139 C   0  0  0  0  0  0  0  0  0  0  0  0
  136.4217  142.0869  165.5205 C   0  0  0  0  0  0  0  0  0  0  0  0
  136.9557  142.6721  164.3896 C   0  0  0  0  0  0  0  0  0  0  0  0
  136.7334  142.1136  163.1461 C   0  0  0  0  0  0  0  0  0  0  0  0
  135.9728  140.9517  163.0269 C   0  0  0  0  0  0  0  0  0  0  0  0
  135.7352  140.3525  161.6901 C   0  0  0  0  0  0  0  0  0  0  0  0
  136.6817  140.5040  160.6782 C   0  0  0  0  0  0  0  0  0  0  0  0
  136.4621  139.9416  159.4367 C   0  0  0  0  0  0  0  0  0  0  0  0
  135.2999  139.2359  159.1890 C   0  0  0  0  0  0  0  0  0  0  0  0
  134.3480  139.0845  160.1903 C   0  0  0  0  0  0  0  0  0  0  0  0
  133.1736  138.3712  159.9361 N   0  0  0  0  0  0  0  0  0  0  0  0
  131.9957  138.7019  160.6106 C   0  0  0  0  0  0  0  0  0  0  0  0
  131.4517  139.9737  160.4793 C   0  0  0  0  0  0  0  0  0  0  0  0
  130.2871  140.2971  161.1470 C   0  0  0  0  0  0  0  0  0  0  0  0
  129.6620  139.3565  161.9457 C   0  0  0  0  0  0  0  0  0  0  0  0
  130.2006  138.0901  162.0786 C   0  0  0  0  0  0  0  0  0  0  0  0
  131.3624  137.7582  161.4093 C   0  0  0  0  0  0  0  0  0  0  0  0
  131.9456  136.3757  161.5501 C   0  0  1  0  0  0  0  0  0  0  0  0
  132.4785  136.1115  160.6368 H   0  0  0  0  0  0  0  0  0  0  0  0
  132.9160  136.3495  162.7326 C   0  0  0  0  0  0  0  0  0  0  0  0
  130.8668  135.4121  161.7823 N   0  0  0  0  0  0  0  0  0  0  0  0
  130.2516  134.7925  160.7112 C   0  0  0  0  0  0  0  0  0  0  0  0
  129.2691  133.8996  160.7915 N   0  0  0  0  0  0  0  0  0  0  0  0
  128.8634  133.5723  161.6095 H   0  0  0  0  0  0  0  0  0  0  0  0
  128.9299  133.5264  159.5277 C   0  0  0  0  0  0  0  0  0  0  0  0
  127.8603  132.5350  159.1479 C   0  0  0  0  0  0  0  0  0  0  0  0
  129.7272  134.1992  158.6805 C   0  0  0  0  0  0  0  0  0  0  0  0
  129.7149  134.1010  157.1767 C   0  0  0  0  0  0  0  0  0  0  0  0
  130.5474  134.9857  159.4290 N   0  0  0  0  0  0  0  0  0  0  0  0
  131.2297  135.5842  159.0867 H   0  0  0  0  0  0  0  0  0  0  0  0
  134.5640  139.6424  161.4421 C   0  0  0  0  0  0  0  0  0  0  0  0
  135.4369  140.3544  164.1638 C   0  0  0  0  0  0  0  0  0  0  0  0
  134.7581  141.0735  167.7323 C   0  0  0  0  0  0  0  0  0  0  0  0
  134.2305  140.4811  168.8617 C   0  0  0  0  0  0  0  0  0  0  0  0
  135.1539  138.9816  171.3694 H   0  0  0  0  0  0  0  0  0  0  0  0
  135.2653  137.3839  170.5926 H   0  0  0  0  0  0  0  0  0  0  0  0
  134.1806  137.6237  171.9835 H   0  0  0  0  0  0  0  0  0  0  0  0
  132.9049  137.5767  169.8577 H   0  0  0  0  0  0  0  0  0  0  0  0
  132.7935  139.1744  170.6344 H   0  0  0  0  0  0  0  0  0  0  0  0
  134.2267  137.2598  167.8508 H   0  0  0  0  0  0  0  0  0  0  0  0
  135.1588  138.2994  165.8253 H   0  0  0  0  0  0  0  0  0  0  0  0
  136.5950  142.5303  166.4899 H   0  0  0  0  0  0  0  0  0  0  0  0
  137.5460  143.5723  164.4774 H   0  0  0  0  0  0  0  0  0  0  0  0
  137.1500  142.5778  162.2645 H   0  0  0  0  0  0  0  0  0  0  0  0
  137.5894  141.0583  160.8667 H   0  0  0  0  0  0  0  0  0  0  0  0
  137.1987  140.0572  158.6553 H   0  0  0  0  0  0  0  0  0  0  0  0
  135.1309  138.8013  158.2149 H   0  0  0  0  0  0  0  0  0  0  0  0
  133.1762  137.6467  159.2912 H   0  0  0  0  0  0  0  0  0  0  0  0
  131.9395  140.7088  159.8562 H   0  0  0  0  0  0  0  0  0  0  0  0
  129.8640  141.2856  161.0456 H   0  0  0  0  0  0  0  0  0  0  0  0
  128.7514  139.6121  162.4670 H   0  0  0  0  0  0  0  0  0  0  0  0
  129.7100  137.3580  162.7030 H   0  0  0  0  0  0  0  0  0  0  0  0
  133.3378  135.3497  162.8344 H   0  0  0  0  0  0  0  0  0  0  0  0
  133.7187  137.0667  162.5599 H   0  0  0  0  0  0  0  0  0  0  0  0
  132.3831  136.6138  163.6460 H   0  0  0  0  0  0  0  0  0  0  0  0
  130.5844  135.2090  162.6877 H   0  0  0  0  0  0  0  0  0  0  0  0
  128.2917  131.5351  159.1008 H   0  0  0  0  0  0  0  0  0  0  0  0
  127.0661  132.5533  159.8943 H   0  0  0  0  0  0  0  0  0  0  0  0
  127.4493  132.7995  158.1736 H   0  0  0  0  0  0  0  0  0  0  0  0
  130.4010  133.3161  156.8583 H   0  0  0  0  0  0  0  0  0  0  0  0
  128.7071  133.8626  156.8365 H   0  0  0  0  0  0  0  0  0  0  0  0
  130.0276  135.0530  156.7479 H   0  0  0  0  0  0  0  0  0  0  0  0
  133.8256  139.5264  162.2215 H   0  0  0  0  0  0  0  0  0  0  0  0
  134.8473  139.4539  164.0761 H   0  0  0  0  0  0  0  0  0  0  0  0
  134.9087  142.1426  167.7021 H   0  0  0  0  0  0  0  0  0  0  0  0
  133.9685  141.0876  169.7160 H   0  0  0  0  0  0  0  0  0  0  0  0
  1  2  1  0
  1 41  1  0
  1 42  1  0
  1 43  1  0
  2  3  1  0
  2 44  1  0
  2 45  1  0
  3 40  2  0
  3  4  1  0
  4  5  2  0
  4 46  1  0
  5  6  1  0
  5 47  1  0
  6  7  1  0
  6 39  2  0
  7 38  1  0
  7  8  2  0
  8  9  1  0
  8 48  1  0
  9 10  2  0
  9 49  1  0
 10 11  1  0
 10 50  1  0
 11 12  1  0
 11 38  2  0
 12 37  1  0
 12 13  2  0
 13 14  1  0
 13 51  1  0
 14 15  2  0
 14 52  1  0
 15 16  1  0
 15 53  1  0
 16 17  1  0
 16 37  2  0
 17 18  1  0
 17 54  1  0
 18 23  1  0
 18 19  2  0
 19 20  1  0
 19 55  1  0
 20 21  2  0
 20 56  1  0
 21 22  1  0
 21 57  1  0
 22 23  2  0
 22 58  1  0
 23 24  1  0
 24 25  1  6
 24 26  1  0
 24 27  1  0
 26 59  1  0
 26 60  1  0
 26 61  1  0
 27 62  1  0
 28 27  1  0
 28 35  1  0
 28 29  2  0
 29 30  1  0
 29 31  1  0
 31 32  1  0
 31 33  2  0
 32 63  1  0
 32 64  1  0
 32 65  1  0
 33 34  1  0
 33 35  1  0
 34 66  1  0
 34 67  1  0
 34 68  1  0
 35 36  1  0
 37 69  1  0
 38 70  1  0
 39 40  1  0
 39 71  1  0
 40 72  1  0
M  CHG  1  29   1
M  END
>  <DOCK_score>  (1) 
-56.47435

>  <SMILES>  (1) 
CCc1ccc(-c2cccc(-c3cccc(Nc4ccccc4[C@@H](C)Nc4[nH]c(C)c(C)[nH+]4)c3)c2)cc1

$$$$
