c1ccc(Cc2ccc(C[NH2+]Cc3c[nH]nc3-c3ccc(N[C@H]4CC45CCOCC5)o3)cc2)cc1
     RDKit          3D

 68 73  0  0  1  0  0  0  0  0999 V2000
  136.6280  142.0924  164.6815 C   0  0  0  0  0  0  0  0  0  0  0  0
  136.2110  140.9236  165.2904 C   0  0  0  0  0  0  0  0  0  0  0  0
  136.0782  139.7661  164.5464 C   0  0  0  0  0  0  0  0  0  0  0  0
  136.3630  139.7774  163.1938 C   0  0  0  0  0  0  0  0  0  0  0  0
  136.2188  138.5150  162.3829 C   0  0  0  0  0  0  0  0  0  0  0  0
  134.8191  138.4297  161.8308 C   0  0  0  0  0  0  0  0  0  0  0  0
  133.8275  137.7961  162.5557 C   0  0  0  0  0  0  0  0  0  0  0  0
  132.5425  137.7223  162.0515 C   0  0  0  0  0  0  0  0  0  0  0  0
  132.2515  138.2737  160.8178 C   0  0  0  0  0  0  0  0  0  0  0  0
  130.8518  138.1885  160.2657 C   0  0  0  0  0  0  0  0  0  0  0  0
  130.7113  136.9587  159.4748 N   0  0  0  0  0  0  0  0  0  0  0  0
  129.7741  136.9018  159.1051 H   0  0  0  0  0  0  0  0  0  0  0  0
  131.3730  136.9713  158.7131 H   0  0  0  0  0  0  0  0  0  0  0  0
  130.9719  135.7937  160.3306 C   0  0  0  0  0  0  0  0  0  0  0  0
  130.8276  134.5320  159.5190 C   0  0  0  0  0  0  0  0  0  0  0  0
  131.8118  133.9092  158.8359 C   0  0  0  0  0  0  0  0  0  0  0  0
  131.2826  132.8173  158.2424 N   0  0  0  0  0  0  0  0  0  0  0  0
  131.7623  132.1831  157.6867 H   0  0  0  0  0  0  0  0  0  0  0  0
  129.9216  132.7590  158.5677 N   0  0  0  0  0  0  0  0  0  0  0  0
  129.6418  133.7883  159.3429 C   0  0  0  0  0  0  0  0  0  0  0  0
  128.3202  134.1083  159.9210 C   0  0  0  0  0  0  0  0  0  0  0  0
  127.1817  133.3851  159.7532 C   0  0  0  0  0  0  0  0  0  0  0  0
  126.1682  134.0466  160.4745 C   0  0  0  0  0  0  0  0  0  0  0  0
  126.7364  135.1377  161.0454 C   0  0  0  0  0  0  0  0  0  0  0  0
  126.0839  136.0679  161.8462 N   0  0  0  0  0  0  0  0  0  0  0  0
  126.8237  137.2046  162.4001 C   0  0  1  0  0  0  0  0  0  0  0  0
  127.5475  137.6668  161.7289 H   0  0  0  0  0  0  0  0  0  0  0  0
  126.0852  138.1180  163.3816 C   0  0  0  0  0  0  0  0  0  0  0  0
  127.1662  137.1657  163.8880 C   0  0  0  0  0  0  0  0  0  0  0  0
  128.5034  137.7697  164.3305 C   0  0  0  0  0  0  0  0  0  0  0  0
  129.5443  136.6462  164.4020 C   0  0  0  0  0  0  0  0  0  0  0  0
  129.0513  135.5977  165.2380 O   0  0  0  0  0  0  0  0  0  0  0  0
  127.8843  134.9412  164.7397 C   0  0  0  0  0  0  0  0  0  0  0  0
  126.7216  135.9397  164.6928 C   0  0  0  0  0  0  0  0  0  0  0  0
  128.0378  135.1655  160.7110 O   0  0  0  0  0  0  0  0  0  0  0  0
  133.2444  138.9028  160.0902 C   0  0  0  0  0  0  0  0  0  0  0  0
  134.5282  138.9812  160.5968 C   0  0  0  0  0  0  0  0  0  0  0  0
  136.7856  140.9448  162.5862 C   0  0  0  0  0  0  0  0  0  0  0  0
  136.9133  142.1036  163.3289 C   0  0  0  0  0  0  0  0  0  0  0  0
  136.7313  142.9969  165.2626 H   0  0  0  0  0  0  0  0  0  0  0  0
  135.9884  140.9148  166.3471 H   0  0  0  0  0  0  0  0  0  0  0  0
  135.7523  138.8528  165.0221 H   0  0  0  0  0  0  0  0  0  0  0  0
  136.4118  137.6510  163.0184 H   0  0  0  0  0  0  0  0  0  0  0  0
  136.9337  138.5284  161.5602 H   0  0  0  0  0  0  0  0  0  0  0  0
  134.0559  137.3617  163.5178 H   0  0  0  0  0  0  0  0  0  0  0  0
  131.7669  137.2305  162.6198 H   0  0  0  0  0  0  0  0  0  0  0  0
  130.1369  138.1752  161.0885 H   0  0  0  0  0  0  0  0  0  0  0  0
  130.6586  139.0531  159.6306 H   0  0  0  0  0  0  0  0  0  0  0  0
  131.9842  135.8551  160.7298 H   0  0  0  0  0  0  0  0  0  0  0  0
  130.2570  135.7801  161.1533 H   0  0  0  0  0  0  0  0  0  0  0  0
  132.8418  134.2282  158.7747 H   0  0  0  0  0  0  0  0  0  0  0  0
  127.0746  132.4774  159.1779 H   0  0  0  0  0  0  0  0  0  0  0  0
  125.1352  133.7424  160.5571 H   0  0  0  0  0  0  0  0  0  0  0  0
  125.1387  135.9643  162.0384 H   0  0  0  0  0  0  0  0  0  0  0  0
  126.3229  139.1813  163.3560 H   0  0  0  0  0  0  0  0  0  0  0  0
  125.0490  137.8730  163.6150 H   0  0  0  0  0  0  0  0  0  0  0  0
  128.8233  138.5201  163.6074 H   0  0  0  0  0  0  0  0  0  0  0  0
  128.3911  138.2281  165.3130 H   0  0  0  0  0  0  0  0  0  0  0  0
  130.4731  137.0368  164.8179 H   0  0  0  0  0  0  0  0  0  0  0  0
  129.7288  136.2569  163.4009 H   0  0  0  0  0  0  0  0  0  0  0  0
  127.6249  134.1114  165.3971 H   0  0  0  0  0  0  0  0  0  0  0  0
  128.0800  134.5634  163.7362 H   0  0  0  0  0  0  0  0  0  0  0  0
  126.4580  136.2426  165.7061 H   0  0  0  0  0  0  0  0  0  0  0  0
  125.8586  135.4792  164.2120 H   0  0  0  0  0  0  0  0  0  0  0  0
  133.0171  139.3332  159.1262 H   0  0  0  0  0  0  0  0  0  0  0  0
  135.3038  139.4726  160.0284 H   0  0  0  0  0  0  0  0  0  0  0  0
  137.0123  140.9526  161.5302 H   0  0  0  0  0  0  0  0  0  0  0  0
  137.2394  143.0167  162.8533 H   0  0  0  0  0  0  0  0  0  0  0  0
  1 39  2  0
  1  2  1  0
  1 40  1  0
  2  3  2  0
  2 41  1  0
  3  4  1  0
  3 42  1  0
  4  5  1  0
  4 38  2  0
  5  6  1  0
  5 43  1  0
  5 44  1  0
  6 37  1  0
  6  7  2  0
  7  8  1  0
  7 45  1  0
  8  9  2  0
  8 46  1  0
  9 10  1  0
  9 36  1  0
 10 11  1  0
 10 47  1  0
 10 48  1  0
 11 12  1  0
 11 13  1  0
 11 14  1  0
 14 15  1  0
 14 49  1  0
 14 50  1  0
 15 20  1  0
 15 16  2  0
 16 17  1  0
 16 51  1  0
 17 18  1  0
 17 19  1  0
 19 20  2  0
 20 21  1  0
 21 35  1  0
 21 22  2  0
 22 23  1  0
 22 52  1  0
 23 24  2  0
 23 53  1  0
 24 25  1  0
 24 35  1  0
 25 26  1  0
 25 54  1  0
 26 27  1  6
 26 29  1  0
 26 28  1  0
 28 29  1  0
 28 55  1  0
 28 56  1  0
 29 34  1  0
 29 30  1  0
 30 31  1  0
 30 57  1  0
 30 58  1  0
 31 32  1  0
 31 59  1  0
 31 60  1  0
 32 33  1  0
 33 34  1  0
 33 61  1  0
 33 62  1  0
 34 63  1  0
 34 64  1  0
 36 37  2  0
 36 65  1  0
 37 66  1  0
 38 39  1  0
 38 67  1  0
 39 68  1  0
M  CHG  1  11   1
M  END
>  <DOCK_score>  (1) 
-48.983959

>  <SMILES>  (1) 
c1ccc(Cc2ccc(C[NH2+]Cc3c[nH]nc3-c3ccc(N[C@H]4CC45CCOCC5)o3)cc2)cc1

$$$$
