C1=C(C[NH2+]Cc2c[nH]nc2-c2ccc(NCCc3cccc4ccccc34)o2)CCCC1
     RDKit          3D

 63 67  0  0  0  0  0  0  0  0999 V2000
  132.5106  138.0656  162.2676 C   0  0  0  0  0  0  0  0  0  0  0  0
  132.3631  138.1096  160.9823 C   0  0  0  0  0  0  0  0  0  0  0  0
  130.9609  138.0823  160.4306 C   0  0  0  0  0  0  0  0  0  0  0  0
  130.7993  136.9089  159.5618 N   0  0  0  0  0  0  0  0  0  0  0  0
  131.4593  136.9607  158.8004 H   0  0  0  0  0  0  0  0  0  0  0  0
  129.8605  136.8907  159.1925 H   0  0  0  0  0  0  0  0  0  0  0  0
  131.0434  135.6866  160.3393 C   0  0  0  0  0  0  0  0  0  0  0  0
  130.8777  134.4828  159.4480 C   0  0  0  0  0  0  0  0  0  0  0  0
  131.8484  133.8956  158.7160 C   0  0  0  0  0  0  0  0  0  0  0  0
  131.3028  132.8473  158.0618 N   0  0  0  0  0  0  0  0  0  0  0  0
  131.7714  132.2432  157.4649 H   0  0  0  0  0  0  0  0  0  0  0  0
  129.9436  132.7839  158.3940 N   0  0  0  0  0  0  0  0  0  0  0  0
  129.6798  133.7706  159.2278 C   0  0  0  0  0  0  0  0  0  0  0  0
  128.3647  134.0729  159.8297 C   0  0  0  0  0  0  0  0  0  0  0  0
  127.2145  133.3801  159.6192 C   0  0  0  0  0  0  0  0  0  0  0  0
  126.2131  134.0093  160.3848 C   0  0  0  0  0  0  0  0  0  0  0  0
  126.7998  135.0522  161.0233 C   0  0  0  0  0  0  0  0  0  0  0  0
  126.1638  135.9388  161.8846 N   0  0  0  0  0  0  0  0  0  0  0  0
  126.9225  137.0256  162.5086 C   0  0  0  0  0  0  0  0  0  0  0  0
  126.8611  136.8821  164.0306 C   0  0  0  0  0  0  0  0  0  0  0  0
  127.6417  138.0001  164.6724 C   0  0  0  0  0  0  0  0  0  0  0  0
  128.9657  137.8412  164.9455 C   0  0  0  0  0  0  0  0  0  0  0  0
  129.7048  138.8652  165.5344 C   0  0  0  0  0  0  0  0  0  0  0  0
  129.1219  140.0507  165.8624 C   0  0  0  0  0  0  0  0  0  0  0  0
  127.7559  140.2499  165.6005 C   0  0  0  0  0  0  0  0  0  0  0  0
  127.1195  141.4603  165.9248 C   0  0  0  0  0  0  0  0  0  0  0  0
  125.7948  141.6175  165.6559 C   0  0  0  0  0  0  0  0  0  0  0  0
  125.0564  140.5947  165.0632 C   0  0  0  0  0  0  0  0  0  0  0  0
  125.6388  139.4093  164.7352 C   0  0  0  0  0  0  0  0  0  0  0  0
  127.0051  139.2098  164.9974 C   0  0  0  0  0  0  0  0  0  0  0  0
  128.1008  135.0808  160.6877 O   0  0  0  0  0  0  0  0  0  0  0  0
  133.5012  138.1921  160.0077 C   0  0  0  0  0  0  0  0  0  0  0  0
  134.7789  138.6323  160.7255 C   0  0  0  0  0  0  0  0  0  0  0  0
  134.9598  137.7588  161.9734 C   0  0  0  0  0  0  0  0  0  0  0  0
  133.8403  138.0902  162.9626 C   0  0  0  0  0  0  0  0  0  0  0  0
  131.6214  138.0040  162.8775 H   0  0  0  0  0  0  0  0  0  0  0  0
  130.7797  138.9893  159.8538 H   0  0  0  0  0  0  0  0  0  0  0  0
  130.2479  138.0264  161.2531 H   0  0  0  0  0  0  0  0  0  0  0  0
  130.3304  135.6307  161.1618 H   0  0  0  0  0  0  0  0  0  0  0  0
  132.0577  135.7063  160.7383 H   0  0  0  0  0  0  0  0  0  0  0  0
  132.8814  134.2066  158.6660 H   0  0  0  0  0  0  0  0  0  0  0  0
  127.0919  132.5133  158.9865 H   0  0  0  0  0  0  0  0  0  0  0  0
  125.1757  133.7165  160.4510 H   0  0  0  0  0  0  0  0  0  0  0  0
  125.2175  135.8377  162.0725 H   0  0  0  0  0  0  0  0  0  0  0  0
  127.9609  136.9786  162.1807 H   0  0  0  0  0  0  0  0  0  0  0  0
  126.4923  137.9835  162.2164 H   0  0  0  0  0  0  0  0  0  0  0  0
  125.8227  136.9291  164.3585 H   0  0  0  0  0  0  0  0  0  0  0  0
  127.2915  135.9242  164.3228 H   0  0  0  0  0  0  0  0  0  0  0  0
  129.4516  136.9087  164.6988 H   0  0  0  0  0  0  0  0  0  0  0  0
  130.7549  138.7146  165.7370 H   0  0  0  0  0  0  0  0  0  0  0  0
  129.7065  140.8344  166.3213 H   0  0  0  0  0  0  0  0  0  0  0  0
  127.6788  142.2614  166.3850 H   0  0  0  0  0  0  0  0  0  0  0  0
  125.3082  142.5487  165.9061 H   0  0  0  0  0  0  0  0  0  0  0  0
  124.0062  140.7453  164.8609 H   0  0  0  0  0  0  0  0  0  0  0  0
  125.0543  138.6261  164.2757 H   0  0  0  0  0  0  0  0  0  0  0  0
  133.6602  137.2137  159.5544 H   0  0  0  0  0  0  0  0  0  0  0  0
  133.2588  138.9158  159.2295 H   0  0  0  0  0  0  0  0  0  0  0  0
  135.6343  138.5049  160.0621 H   0  0  0  0  0  0  0  0  0  0  0  0
  134.6921  139.6781  161.0199 H   0  0  0  0  0  0  0  0  0  0  0  0
  134.9033  136.7064  161.6954 H   0  0  0  0  0  0  0  0  0  0  0  0
  135.9283  137.9659  162.4285 H   0  0  0  0  0  0  0  0  0  0  0  0
  133.8424  137.3574  163.7694 H   0  0  0  0  0  0  0  0  0  0  0  0
  134.0084  139.0835  163.3790 H   0  0  0  0  0  0  0  0  0  0  0  0
  1 35  1  0
  1  2  2  0
  1 36  1  0
  2  3  1  0
  2 32  1  0
  3  4  1  0
  3 37  1  0
  3 38  1  0
  4  5  1  0
  4  6  1  0
  4  7  1  0
  7  8  1  0
  7 39  1  0
  7 40  1  0
  8 13  1  0
  8  9  2  0
  9 10  1  0
  9 41  1  0
 10 11  1  0
 10 12  1  0
 12 13  2  0
 13 14  1  0
 14 31  1  0
 14 15  2  0
 15 16  1  0
 15 42  1  0
 16 17  2  0
 16 43  1  0
 17 18  1  0
 17 31  1  0
 18 19  1  0
 18 44  1  0
 19 20  1  0
 19 45  1  0
 19 46  1  0
 20 21  1  0
 20 47  1  0
 20 48  1  0
 21 30  1  0
 21 22  2  0
 22 23  1  0
 22 49  1  0
 23 24  2  0
 23 50  1  0
 24 25  1  0
 24 51  1  0
 25 30  2  0
 25 26  1  0
 26 27  2  0
 26 52  1  0
 27 28  1  0
 27 53  1  0
 28 29  2  0
 28 54  1  0
 29 30  1  0
 29 55  1  0
 32 33  1  0
 32 56  1  0
 32 57  1  0
 33 34  1  0
 33 58  1  0
 33 59  1  0
 34 35  1  0
 34 60  1  0
 34 61  1  0
 35 62  1  0
 35 63  1  0
M  CHG  1   4   1
M  END
>  <DOCK_score>  (1) 
-46.701683

>  <SMILES>  (1) 
C1=C(C[NH2+]Cc2c[nH]nc2-c2ccc(NCCc3cccc4ccccc34)o2)CCCC1

$$$$
