Nc1ccc(-c2c[nH]c(N[C@@H](CC3=CCCCC3)[C@@H](O)c3ccccc3)[nH+]2)cc1
     RDKit          3D

 58 61  0  0  1  0  0  0  0  0999 V2000
  131.1100  129.8558  151.9033 N   0  0  0  0  0  0  0  0  0  0  0  0
  130.9519  130.4913  153.1371 C   0  0  0  0  0  0  0  0  0  0  0  0
  130.3394  131.7372  153.2025 C   0  0  0  0  0  0  0  0  0  0  0  0
  130.1824  132.3664  154.4194 C   0  0  0  0  0  0  0  0  0  0  0  0
  130.6383  131.7519  155.5846 C   0  0  0  0  0  0  0  0  0  0  0  0
  130.4704  132.4268  156.8950 C   0  0  0  0  0  0  0  0  0  0  0  0
  130.3165  131.8134  158.0944 C   0  0  0  0  0  0  0  0  0  0  0  0
  130.1905  132.8065  159.0368 N   0  0  0  0  0  0  0  0  0  0  0  0
  130.0641  132.6811  159.9903 H   0  0  0  0  0  0  0  0  0  0  0  0
  130.2762  133.9977  158.3848 C   0  0  0  0  0  0  0  0  0  0  0  0
  130.1972  135.2475  158.9748 N   0  0  0  0  0  0  0  0  0  0  0  0
  129.3964  135.4359  160.1871 C   0  0  1  0  0  0  0  0  0  0  0  0
  129.5294  134.5786  160.8472 H   0  0  0  0  0  0  0  0  0  0  0  0
  129.8504  136.7080  160.9056 C   0  0  0  0  0  0  0  0  0  0  0  0
  131.3051  136.5822  161.2789 C   0  0  0  0  0  0  0  0  0  0  0  0
  132.1883  136.9920  160.4259 C   0  0  0  0  0  0  0  0  0  0  0  0
  133.6703  136.9230  160.6513 C   0  0  0  0  0  0  0  0  0  0  0  0
  133.9683  136.7161  162.1380 C   0  0  0  0  0  0  0  0  0  0  0  0
  133.1062  135.5545  162.6485 C   0  0  0  0  0  0  0  0  0  0  0  0
  131.6395  135.9951  162.6189 C   0  0  0  0  0  0  0  0  0  0  0  0
  127.9197  135.5636  159.8082 C   0  0  1  0  0  0  0  0  0  0  0  0
  127.7199  136.5775  159.4617 H   0  0  0  0  0  0  0  0  0  0  0  0
  127.6133  134.6348  158.7662 O   0  0  0  0  0  0  0  0  0  0  0  0
  127.0645  135.2668  161.0130 C   0  0  0  0  0  0  0  0  0  0  0  0
  126.6447  133.9734  161.2611 C   0  0  0  0  0  0  0  0  0  0  0  0
  125.8635  133.7006  162.3684 C   0  0  0  0  0  0  0  0  0  0  0  0
  125.4953  134.7227  163.2232 C   0  0  0  0  0  0  0  0  0  0  0  0
  125.9106  136.0171  162.9723 C   0  0  0  0  0  0  0  0  0  0  0  0
  126.6950  136.2892  161.8671 C   0  0  0  0  0  0  0  0  0  0  0  0
  130.4466  133.7666  157.1057 N   0  0  0  0  0  0  0  0  0  0  0  0
  130.5368  134.4456  156.4188 H   0  0  0  0  0  0  0  0  0  0  0  0
  131.2574  130.5049  155.5160 C   0  0  0  0  0  0  0  0  0  0  0  0
  131.4068  129.8765  154.2976 C   0  0  0  0  0  0  0  0  0  0  0  0
  130.7924  130.2841  151.0929 H   0  0  0  0  0  0  0  0  0  0  0  0
  131.5374  128.9863  151.8567 H   0  0  0  0  0  0  0  0  0  0  0  0
  129.9866  132.2130  152.2995 H   0  0  0  0  0  0  0  0  0  0  0  0
  129.7060  133.3344  154.4697 H   0  0  0  0  0  0  0  0  0  0  0  0
  130.2929  130.7487  158.2744 H   0  0  0  0  0  0  0  0  0  0  0  0
  130.6719  135.9985  158.5857 H   0  0  0  0  0  0  0  0  0  0  0  0
  129.7177  137.5652  160.2456 H   0  0  0  0  0  0  0  0  0  0  0  0
  129.2548  136.8482  161.8076 H   0  0  0  0  0  0  0  0  0  0  0  0
  131.8367  137.4100  159.4942 H   0  0  0  0  0  0  0  0  0  0  0  0
  134.0843  136.0917  160.0807 H   0  0  0  0  0  0  0  0  0  0  0  0
  134.1304  137.8528  160.3167 H   0  0  0  0  0  0  0  0  0  0  0  0
  135.0231  136.4752  162.2702 H   0  0  0  0  0  0  0  0  0  0  0  0
  133.7281  137.6249  162.6898 H   0  0  0  0  0  0  0  0  0  0  0  0
  133.2444  134.6855  162.0053 H   0  0  0  0  0  0  0  0  0  0  0  0
  133.3954  135.3046  163.6692 H   0  0  0  0  0  0  0  0  0  0  0  0
  131.4675  136.7421  163.3938 H   0  0  0  0  0  0  0  0  0  0  0  0
  131.0009  135.1314  162.8046 H   0  0  0  0  0  0  0  0  0  0  0  0
  127.7678  133.7108  159.0050 H   0  0  0  0  0  0  0  0  0  0  0  0
  126.9296  133.1754  160.5915 H   0  0  0  0  0  0  0  0  0  0  0  0
  125.5386  132.6894  162.5644 H   0  0  0  0  0  0  0  0  0  0  0  0
  124.8826  134.5101  164.0869 H   0  0  0  0  0  0  0  0  0  0  0  0
  125.6226  136.8157  163.6399 H   0  0  0  0  0  0  0  0  0  0  0  0
  127.0196  137.3004  161.6709 H   0  0  0  0  0  0  0  0  0  0  0  0
  131.6158  130.0290  156.4168 H   0  0  0  0  0  0  0  0  0  0  0  0
  131.8822  128.9082  154.2445 H   0  0  0  0  0  0  0  0  0  0  0  0
  1  2  1  0
  1 34  1  0
  1 35  1  0
  2 33  2  0
  2  3  1  0
  3  4  2  0
  3 36  1  0
  4  5  1  0
  4 37  1  0
  5  6  1  0
  5 32  2  0
  6 30  1  0
  6  7  2  0
  7  8  1  0
  7 38  1  0
  8  9  1  0
  8 10  1  0
 10 11  1  0
 10 30  2  0
 11 12  1  0
 11 39  1  0
 12 13  1  1
 12 14  1  0
 12 21  1  0
 14 15  1  0
 14 40  1  0
 14 41  1  0
 15 20  1  0
 15 16  2  0
 16 17  1  0
 16 42  1  0
 17 18  1  0
 17 43  1  0
 17 44  1  0
 18 19  1  0
 18 45  1  0
 18 46  1  0
 19 20  1  0
 19 47  1  0
 19 48  1  0
 20 49  1  0
 20 50  1  0
 21 22  1  6
 21 23  1  0
 21 24  1  0
 23 51  1  0
 24 29  1  0
 24 25  2  0
 25 26  1  0
 25 52  1  0
 26 27  2  0
 26 53  1  0
 27 28  1  0
 27 54  1  0
 28 29  2  0
 28 55  1  0
 29 56  1  0
 30 31  1  0
 32 33  1  0
 32 57  1  0
 33 58  1  0
M  CHG  1  30   1
M  END
>  <DOCK_score>  (1) 
-56.642994

>  <SMILES>  (1) 
Nc1ccc(-c2c[nH]c(N[C@@H](CC3=CCCCC3)[C@@H](O)c3ccccc3)[nH+]2)cc1

$$$$
