Cc1ccc2c(c1)CC(Nc1ccc(-c3n[nH]cc3C[N@@H+](C)Cc3c[nH]nc3C)o1)CO2
     RDKit          3D

 61 65  0  0  1  0  0  0  0  0999 V2000
  126.6948  142.9897  165.8446 C   0  0  0  0  0  0  0  0  0  0  0  0
  127.3674  141.7384  165.3414 C   0  0  0  0  0  0  0  0  0  0  0  0
  128.7170  141.5396  165.5683 C   0  0  0  0  0  0  0  0  0  0  0  0
  129.3318  140.3943  165.1061 C   0  0  0  0  0  0  0  0  0  0  0  0
  128.5984  139.4372  164.4117 C   0  0  0  0  0  0  0  0  0  0  0  0
  127.2476  139.6375  164.1889 C   0  0  0  0  0  0  0  0  0  0  0  0
  126.6360  140.7899  164.6540 C   0  0  0  0  0  0  0  0  0  0  0  0
  126.4150  138.6237  163.4457 C   0  0  0  0  0  0  0  0  0  0  0  0
  127.3303  137.6817  162.6594 C   0  0  2  0  0  0  0  0  0  0  0  0
  126.5592  136.5336  162.1760 N   0  0  0  0  0  0  0  0  0  0  0  0
  127.1847  135.5399  161.4322 C   0  0  0  0  0  0  0  0  0  0  0  0
  126.5862  134.4317  160.9288 C   0  0  0  0  0  0  0  0  0  0  0  0
  127.5793  133.7030  160.2447 C   0  0  0  0  0  0  0  0  0  0  0  0
  128.7385  134.4007  160.3735 C   0  0  0  0  0  0  0  0  0  0  0  0
  130.0504  134.0094  159.8177 C   0  0  0  0  0  0  0  0  0  0  0  0
  130.3033  132.9220  159.1162 N   0  0  0  0  0  0  0  0  0  0  0  0
  131.6626  132.9291  158.7785 N   0  0  0  0  0  0  0  0  0  0  0  0
  132.1240  132.2501  158.2619 H   0  0  0  0  0  0  0  0  0  0  0  0
  132.2213  134.0420  159.3019 C   0  0  0  0  0  0  0  0  0  0  0  0
  131.2562  134.7299  159.9486 C   0  0  0  0  0  0  0  0  0  0  0  0
  131.4352  136.0357  160.6796 C   0  0  0  0  0  0  0  0  0  0  0  0
  131.2064  137.1515  159.7520 N   0  0  1  0  0  0  0  0  0  0  0  0
  131.6160  136.9333  158.8560 H   0  0  0  0  0  0  0  0  0  0  0  0
  129.7623  137.3663  159.5909 C   0  0  0  0  0  0  0  0  0  0  0  0
  131.8259  138.3701  160.2898 C   0  0  0  0  0  0  0  0  0  0  0  0
  133.3054  138.3497  160.0038 C   0  0  0  0  0  0  0  0  0  0  0  0
  134.2633  137.8238  160.8018 C   0  0  0  0  0  0  0  0  0  0  0  0
  135.4529  138.0060  160.1912 N   0  0  0  0  0  0  0  0  0  0  0  0
  136.3178  137.7288  160.5322 H   0  0  0  0  0  0  0  0  0  0  0  0
  135.2183  138.6657  158.9780 N   0  0  0  0  0  0  0  0  0  0  0  0
  133.9304  138.8658  158.8638 C   0  0  0  0  0  0  0  0  0  0  0  0
  133.2399  139.5398  157.7062 C   0  0  0  0  0  0  0  0  0  0  0  0
  128.4855  135.5125  161.0956 O   0  0  0  0  0  0  0  0  0  0  0  0
  128.4441  137.1987  163.5972 C   0  0  0  0  0  0  0  0  0  0  0  0
  129.2402  138.3251  163.9682 O   0  0  0  0  0  0  0  0  0  0  0  0
  126.7513  143.7649  165.0804 H   0  0  0  0  0  0  0  0  0  0  0  0
  125.6498  142.7755  166.0685 H   0  0  0  0  0  0  0  0  0  0  0  0
  127.1971  143.3335  166.7487 H   0  0  0  0  0  0  0  0  0  0  0  0
  129.2892  142.2802  166.1072 H   0  0  0  0  0  0  0  0  0  0  0  0
  130.3860  140.2402  165.2836 H   0  0  0  0  0  0  0  0  0  0  0  0
  125.5822  140.9477  164.4779 H   0  0  0  0  0  0  0  0  0  0  0  0
  125.7463  139.1389  162.7561 H   0  0  0  0  0  0  0  0  0  0  0  0
  125.8262  138.0463  164.1584 H   0  0  0  0  0  0  0  0  0  0  0  0
  127.7660  138.2139  161.8139 H   0  0  0  0  0  0  0  0  0  0  0  0
  125.6113  136.4691  162.3717 H   0  0  0  0  0  0  0  0  0  0  0  0
  125.5458  134.1604  161.0312 H   0  0  0  0  0  0  0  0  0  0  0  0
  127.4459  132.7672  159.7223 H   0  0  0  0  0  0  0  0  0  0  0  0
  133.2587  134.3307  159.2181 H   0  0  0  0  0  0  0  0  0  0  0  0
  130.7204  136.0934  161.5006 H   0  0  0  0  0  0  0  0  0  0  0  0
  132.4490  136.0943  161.0757 H   0  0  0  0  0  0  0  0  0  0  0  0
  129.2902  136.4374  159.2709 H   0  0  0  0  0  0  0  0  0  0  0  0
  129.3338  137.6828  160.5420 H   0  0  0  0  0  0  0  0  0  0  0  0
  129.5912  138.1381  158.8406 H   0  0  0  0  0  0  0  0  0  0  0  0
  131.3768  139.2444  159.8186 H   0  0  0  0  0  0  0  0  0  0  0  0
  131.6647  138.4147  161.3669 H   0  0  0  0  0  0  0  0  0  0  0  0
  134.1044  137.3440  161.7561 H   0  0  0  0  0  0  0  0  0  0  0  0
  133.2562  140.6199  157.8525 H   0  0  0  0  0  0  0  0  0  0  0  0
  133.7572  139.2908  156.7797 H   0  0  0  0  0  0  0  0  0  0  0  0
  132.2071  139.1964  157.6493 H   0  0  0  0  0  0  0  0  0  0  0  0
  128.0050  136.7497  164.4880 H   0  0  0  0  0  0  0  0  0  0  0  0
  129.0641  136.4643  163.0829 H   0  0  0  0  0  0  0  0  0  0  0  0
  1  2  1  0
  1 36  1  0
  1 37  1  0
  1 38  1  0
  2  7  2  0
  2  3  1  0
  3  4  2  0
  3 39  1  0
  4  5  1  0
  4 40  1  0
  5 35  1  0
  5  6  2  0
  6  7  1  0
  6  8  1  0
  7 41  1  0
  8  9  1  0
  8 42  1  0
  8 43  1  0
  9 10  1  0
  9 34  1  0
  9 44  1  6
 10 11  1  0
 10 45  1  0
 11 33  1  0
 11 12  2  0
 12 13  1  0
 12 46  1  0
 13 14  2  0
 13 47  1  0
 14 15  1  0
 14 33  1  0
 15 20  1  0
 15 16  2  0
 16 17  1  0
 17 18  1  0
 17 19  1  0
 19 20  2  0
 19 48  1  0
 20 21  1  0
 21 22  1  0
 21 49  1  0
 21 50  1  0
 22 23  1  6
 22 24  1  0
 22 25  1  0
 24 51  1  0
 24 52  1  0
 24 53  1  0
 25 26  1  0
 25 54  1  0
 25 55  1  0
 26 31  1  0
 26 27  2  0
 27 28  1  0
 27 56  1  0
 28 29  1  0
 28 30  1  0
 30 31  2  0
 31 32  1  0
 32 57  1  0
 32 58  1  0
 32 59  1  0
 34 35  1  0
 34 60  1  0
 34 61  1  0
M  CHG  1  22   1
M  END
>  <DOCK_score>  (1) 
-41.770676

>  <SMILES>  (1) 
Cc1ccc2c(c1)CC(Nc1ccc(-c3n[nH]cc3C[N@@H+](C)Cc3c[nH]nc3C)o1)CO2

$$$$
