Nc1ccc(Nc2[nH]cc(-c3ccc(F)cc3)[nH+]2)cc1
     RDKit          3D

 34 36  0  0  1  0  0  0  0  0999 V2000
  126.4000  136.0673  161.8016 N   0  0  0  0  0  0  0  0  0  0  0  0
  127.3297  135.7407  160.8077 C   0  0  0  0  0  0  0  0  0  0  0  0
  128.5535  135.1851  161.1573 C   0  0  0  0  0  0  0  0  0  0  0  0
  129.4731  134.8687  160.1772 C   0  0  0  0  0  0  0  0  0  0  0  0
  129.1698  135.0954  158.8411 C   0  0  0  0  0  0  0  0  0  0  0  0
  130.1002  134.7686  157.8466 N   0  0  0  0  0  0  0  0  0  0  0  0
  130.0887  133.5070  157.2752 C   0  0  0  0  0  0  0  0  0  0  0  0
  129.6997  132.3594  157.8952 N   0  0  0  0  0  0  0  0  0  0  0  0
  129.3835  132.2784  158.8086 H   0  0  0  0  0  0  0  0  0  0  0  0
  129.8344  131.3372  156.9870 C   0  0  0  0  0  0  0  0  0  0  0  0
  130.3100  131.8879  155.8425 C   0  0  0  0  0  0  0  0  0  0  0  0
  130.6157  131.1613  154.5857 C   0  0  0  0  0  0  0  0  0  0  0  0
  129.9487  131.4917  153.4074 C   0  0  0  0  0  0  0  0  0  0  0  0
  130.2398  130.8166  152.2398 C   0  0  0  0  0  0  0  0  0  0  0  0
  131.1851  129.8047  152.2394 C   0  0  0  0  0  0  0  0  0  0  0  0
  131.4633  129.1419  151.0956 F   0  0  0  0  0  0  0  0  0  0  0  0
  131.8475  129.4691  153.4099 C   0  0  0  0  0  0  0  0  0  0  0  0
  131.5667  130.1424  154.5811 C   0  0  0  0  0  0  0  0  0  0  0  0
  130.4559  133.2203  156.0499 N   0  0  0  0  0  0  0  0  0  0  0  0
  130.7807  133.8589  155.3960 H   0  0  0  0  0  0  0  0  0  0  0  0
  127.9460  135.6511  158.4915 C   0  0  0  0  0  0  0  0  0  0  0  0
  127.0286  135.9729  159.4720 C   0  0  0  0  0  0  0  0  0  0  0  0
  126.6105  135.9056  162.7346 H   0  0  0  0  0  0  0  0  0  0  0  0
  125.5452  136.4555  161.5575 H   0  0  0  0  0  0  0  0  0  0  0  0
  128.7876  135.0046  162.1960 H   0  0  0  0  0  0  0  0  0  0  0  0
  130.4266  134.4407  160.4493 H   0  0  0  0  0  0  0  0  0  0  0  0
  130.7527  135.4259  157.5580 H   0  0  0  0  0  0  0  0  0  0  0  0
  129.6095  130.2942  157.1542 H   0  0  0  0  0  0  0  0  0  0  0  0
  129.2081  132.2778  153.4074 H   0  0  0  0  0  0  0  0  0  0  0  0
  129.7263  131.0747  151.3253 H   0  0  0  0  0  0  0  0  0  0  0  0
  132.5843  128.6794  153.4053 H   0  0  0  0  0  0  0  0  0  0  0  0
  132.0833  129.8808  155.4926 H   0  0  0  0  0  0  0  0  0  0  0  0
  127.7118  135.8313  157.4528 H   0  0  0  0  0  0  0  0  0  0  0  0
  126.0771  136.4053  159.2002 H   0  0  0  0  0  0  0  0  0  0  0  0
  1  2  1  0
  1 23  1  0
  1 24  1  0
  2 22  2  0
  2  3  1  0
  3  4  2  0
  3 25  1  0
  4  5  1  0
  4 26  1  0
  5  6  1  0
  5 21  2  0
  6 27  1  0
  7  6  1  0
  7 19  2  0
  7  8  1  0
  8  9  1  0
  8 10  1  0
 10 11  2  0
 10 28  1  0
 11 12  1  0
 11 19  1  0
 12 18  1  0
 12 13  2  0
 13 14  1  0
 13 29  1  0
 14 15  2  0
 14 30  1  0
 15 16  1  0
 15 17  1  0
 17 18  2  0
 17 31  1  0
 18 32  1  0
 19 20  1  0
 21 22  1  0
 21 33  1  0
 22 34  1  0
M  CHG  1  19   1
M  END
>  <DOCK_score>  (1) 
-50.990372

>  <SMILES>  (1) 
Nc1ccc(Nc2[nH]cc(-c3ccc(F)cc3)[nH+]2)cc1

$$$$
