OC(Cc1ccccc1)[C@@H](Nc1[nH]cc(-c2ccncc2)[nH+]1)c1ccccc1
     RDKit          3D

 51 54  0  0  1  0  0  0  0  0999 V2000
  127.3212  136.5440  158.0712 O   0  0  0  0  0  0  0  0  0  0  0  0
  127.6094  135.3297  158.7674 C   0  0  2  0  0  0  0  0  0  0  0  0
  126.6026  135.1423  159.9041 C   0  0  0  0  0  0  0  0  0  0  0  0
  126.5738  133.6930  160.3159 C   0  0  0  0  0  0  0  0  0  0  0  0
  125.6918  132.8192  159.7079 C   0  0  0  0  0  0  0  0  0  0  0  0
  125.6687  131.4886  160.0821 C   0  0  0  0  0  0  0  0  0  0  0  0
  126.5204  131.0341  161.0716 C   0  0  0  0  0  0  0  0  0  0  0  0
  127.3987  131.9091  161.6832 C   0  0  0  0  0  0  0  0  0  0  0  0
  127.4254  133.2384  161.3052 C   0  0  0  0  0  0  0  0  0  0  0  0
  129.0245  135.3968  159.3452 C   0  0  1  0  0  0  0  0  0  0  0  0
  129.1238  134.6671  160.1488 H   0  0  0  0  0  0  0  0  0  0  0  0
  129.9971  135.0979  158.2912 N   0  0  0  0  0  0  0  0  0  0  0  0
  129.9591  133.8767  157.6406 C   0  0  0  0  0  0  0  0  0  0  0  0
  129.5282  132.7036  158.1806 N   0  0  0  0  0  0  0  0  0  0  0  0
  129.1955  132.5746  159.0826 H   0  0  0  0  0  0  0  0  0  0  0  0
  129.6565  131.7364  157.2159 C   0  0  0  0  0  0  0  0  0  0  0  0
  130.1567  132.3454  156.1114 C   0  0  0  0  0  0  0  0  0  0  0  0
  130.4610  131.6912  154.8167 C   0  0  0  0  0  0  0  0  0  0  0  0
  130.3637  132.3984  153.6139 C   0  0  0  0  0  0  0  0  0  0  0  0
  130.6609  131.7525  152.4323 C   0  0  0  0  0  0  0  0  0  0  0  0
  131.0221  130.4832  152.4263 N   0  0  0  0  0  0  0  0  0  0  0  0
  131.1210  129.7786  153.5379 C   0  0  0  0  0  0  0  0  0  0  0  0
  130.8477  130.3480  154.7636 C   0  0  0  0  0  0  0  0  0  0  0  0
  130.3285  133.6599  156.4021 N   0  0  0  0  0  0  0  0  0  0  0  0
  130.6736  134.3307  155.7923 H   0  0  0  0  0  0  0  0  0  0  0  0
  129.2806  136.7793  159.8877 C   0  0  0  0  0  0  0  0  0  0  0  0
  129.8231  137.7529  159.0701 C   0  0  0  0  0  0  0  0  0  0  0  0
  130.0539  139.0224  159.5666 C   0  0  0  0  0  0  0  0  0  0  0  0
  129.7508  139.3154  160.8830 C   0  0  0  0  0  0  0  0  0  0  0  0
  129.2130  138.3401  161.7020 C   0  0  0  0  0  0  0  0  0  0  0  0
  128.9781  137.0721  161.2044 C   0  0  0  0  0  0  0  0  0  0  0  0
  127.3659  137.3351  158.6252 H   0  0  0  0  0  0  0  0  0  0  0  0
  127.5384  134.4893  158.0769 H   0  0  0  0  0  0  0  0  0  0  0  0
  126.8975  135.7560  160.7554 H   0  0  0  0  0  0  0  0  0  0  0  0
  125.6114  135.4436  159.5650 H   0  0  0  0  0  0  0  0  0  0  0  0
  125.0234  133.1754  158.9380 H   0  0  0  0  0  0  0  0  0  0  0  0
  124.9822  130.8052  159.6046 H   0  0  0  0  0  0  0  0  0  0  0  0
  126.4991  129.9955  161.3671 H   0  0  0  0  0  0  0  0  0  0  0  0
  128.0638  131.5539  162.4564 H   0  0  0  0  0  0  0  0  0  0  0  0
  128.1114  133.9220  161.7834 H   0  0  0  0  0  0  0  0  0  0  0  0
  130.6677  135.7556  158.0493 H   0  0  0  0  0  0  0  0  0  0  0  0
  129.4067  130.6905  157.3164 H   0  0  0  0  0  0  0  0  0  0  0  0
  130.0641  133.4360  153.6110 H   0  0  0  0  0  0  0  0  0  0  0  0
  130.5926  132.2913  151.4988 H   0  0  0  0  0  0  0  0  0  0  0  0
  131.4202  128.7422  153.4867 H   0  0  0  0  0  0  0  0  0  0  0  0
  130.9312  129.7656  155.6693 H   0  0  0  0  0  0  0  0  0  0  0  0
  130.0636  137.5230  158.0427 H   0  0  0  0  0  0  0  0  0  0  0  0
  130.4738  139.7843  158.9267 H   0  0  0  0  0  0  0  0  0  0  0  0
  129.9335  140.3064  161.2716 H   0  0  0  0  0  0  0  0  0  0  0  0
  128.9760  138.5691  162.7305 H   0  0  0  0  0  0  0  0  0  0  0  0
  128.5580  136.3102  161.8443 H   0  0  0  0  0  0  0  0  0  0  0  0
  1  2  1  0
  1 32  1  0
  2  3  1  0
  2 10  1  0
  2 33  1  6
  3  4  1  0
  3 34  1  0
  3 35  1  0
  4  9  1  0
  4  5  2  0
  5  6  1  0
  5 36  1  0
  6  7  2  0
  6 37  1  0
  7  8  1  0
  7 38  1  0
  8  9  2  0
  8 39  1  0
  9 40  1  0
 10 11  1  1
 10 12  1  0
 10 26  1  0
 12 41  1  0
 13 12  1  0
 13 24  2  0
 13 14  1  0
 14 15  1  0
 14 16  1  0
 16 17  2  0
 16 42  1  0
 17 18  1  0
 17 24  1  0
 18 23  1  0
 18 19  2  0
 19 20  1  0
 19 43  1  0
 20 21  2  0
 20 44  1  0
 21 22  1  0
 22 23  2  0
 22 45  1  0
 23 46  1  0
 24 25  1  0
 26 31  1  0
 26 27  2  0
 27 28  1  0
 27 47  1  0
 28 29  2  0
 28 48  1  0
 29 30  1  0
 29 49  1  0
 30 31  2  0
 30 50  1  0
 31 51  1  0
M  CHG  1  24   1
M  END
>  <DOCK_score>  (1) 
-57.458748

>  <SMILES>  (1) 
OC(Cc1ccccc1)[C@@H](Nc1[nH]cc(-c2ccncc2)[nH+]1)c1ccccc1

$$$$
