Nc1ccc(-c2c[nH]c(Nc3ccc(Nc4ccc(N)c(Cl)c4)cc3)[nH+]2)cc1
     RDKit          3D

 48 51  0  0  1  0  0  0  0  0999 V2000
  131.3317  129.6754  151.2514 N   0  0  0  0  0  0  0  0  0  0  0  0
  131.0391  130.3299  152.4504 C   0  0  0  0  0  0  0  0  0  0  0  0
  130.6814  131.6729  152.4383 C   0  0  0  0  0  0  0  0  0  0  0  0
  130.3921  132.3212  153.6203 C   0  0  0  0  0  0  0  0  0  0  0  0
  130.4584  131.6283  154.8282 C   0  0  0  0  0  0  0  0  0  0  0  0
  130.1482  132.3237  156.1015 C   0  0  0  0  0  0  0  0  0  0  0  0
  129.6207  131.7546  157.2136 C   0  0  0  0  0  0  0  0  0  0  0  0
  129.5029  132.7505  158.1535 N   0  0  0  0  0  0  0  0  0  0  0  0
  129.1594  132.6518  159.0554 H   0  0  0  0  0  0  0  0  0  0  0  0
  129.9538  133.9013  157.5838 C   0  0  0  0  0  0  0  0  0  0  0  0
  130.0007  135.1415  158.1987 N   0  0  0  0  0  0  0  0  0  0  0  0
  129.0621  135.4701  159.1847 C   0  0  0  0  0  0  0  0  0  0  0  0
  129.4859  135.7872  160.4687 C   0  0  0  0  0  0  0  0  0  0  0  0
  128.5605  136.1107  161.4408 C   0  0  0  0  0  0  0  0  0  0  0  0
  127.2059  136.1195  161.1348 C   0  0  0  0  0  0  0  0  0  0  0  0
  126.2680  136.4476  162.1204 N   0  0  0  0  0  0  0  0  0  0  0  0
  126.6952  136.7670  163.4146 C   0  0  0  0  0  0  0  0  0  0  0  0
  127.5495  137.8425  163.6180 C   0  0  0  0  0  0  0  0  0  0  0  0
  127.9662  138.1617  164.8953 C   0  0  0  0  0  0  0  0  0  0  0  0
  127.5349  137.4043  165.9760 C   0  0  0  0  0  0  0  0  0  0  0  0
  127.9576  137.7282  167.2714 N   0  0  0  0  0  0  0  0  0  0  0  0
  126.6843  136.3246  165.7725 C   0  0  0  0  0  0  0  0  0  0  0  0
  126.1452  135.3771  167.1234 Cl  0  0  0  0  0  0  0  0  0  0  0  0
  126.2678  136.0050  164.4942 C   0  0  0  0  0  0  0  0  0  0  0  0
  126.7816  135.7970  159.8518 C   0  0  0  0  0  0  0  0  0  0  0  0
  127.7074  135.4792  158.8782 C   0  0  0  0  0  0  0  0  0  0  0  0
  130.3417  133.6412  156.3588 N   0  0  0  0  0  0  0  0  0  0  0  0
  130.7091  134.2878  155.7360 H   0  0  0  0  0  0  0  0  0  0  0  0
  130.8222  130.2827  154.8385 C   0  0  0  0  0  0  0  0  0  0  0  0
  131.1060  129.6372  153.6534 C   0  0  0  0  0  0  0  0  0  0  0  0
  131.2850  130.1581  150.4113 H   0  0  0  0  0  0  0  0  0  0  0  0
  131.5816  128.7381  151.2591 H   0  0  0  0  0  0  0  0  0  0  0  0
  130.6300  132.2093  151.5022 H   0  0  0  0  0  0  0  0  0  0  0  0
  130.1141  133.3647  153.6105 H   0  0  0  0  0  0  0  0  0  0  0  0
  129.3494  130.7166  157.3383 H   0  0  0  0  0  0  0  0  0  0  0  0
  130.6836  135.7825  157.9465 H   0  0  0  0  0  0  0  0  0  0  0  0
  130.5393  135.7805  160.7067 H   0  0  0  0  0  0  0  0  0  0  0  0
  128.8900  136.3568  162.4395 H   0  0  0  0  0  0  0  0  0  0  0  0
  125.3219  136.4538  161.9065 H   0  0  0  0  0  0  0  0  0  0  0  0
  127.8851  138.4321  162.7777 H   0  0  0  0  0  0  0  0  0  0  0  0
  128.6274  139.0009  165.0536 H   0  0  0  0  0  0  0  0  0  0  0  0
  128.5517  138.4817  167.4135 H   0  0  0  0  0  0  0  0  0  0  0  0
  127.6563  137.1990  168.0265 H   0  0  0  0  0  0  0  0  0  0  0  0
  125.6066  135.1660  164.3355 H   0  0  0  0  0  0  0  0  0  0  0  0
  125.7280  135.7990  159.6150 H   0  0  0  0  0  0  0  0  0  0  0  0
  127.3780  135.2325  157.8797 H   0  0  0  0  0  0  0  0  0  0  0  0
  130.8786  129.7452  155.7735 H   0  0  0  0  0  0  0  0  0  0  0  0
  131.3842  128.5938  153.6605 H   0  0  0  0  0  0  0  0  0  0  0  0
  1  2  1  0
  1 31  1  0
  1 32  1  0
  2 30  2  0
  2  3  1  0
  3  4  2  0
  3 33  1  0
  4  5  1  0
  4 34  1  0
  5  6  1  0
  5 29  2  0
  6 27  1  0
  6  7  2  0
  7  8  1  0
  7 35  1  0
  8  9  1  0
  8 10  1  0
 10 11  1  0
 10 27  2  0
 11 12  1  0
 11 36  1  0
 12 26  1  0
 12 13  2  0
 13 14  1  0
 13 37  1  0
 14 15  2  0
 14 38  1  0
 15 16  1  0
 15 25  1  0
 16 17  1  0
 16 39  1  0
 17 24  1  0
 17 18  2  0
 18 19  1  0
 18 40  1  0
 19 20  2  0
 19 41  1  0
 20 21  1  0
 20 22  1  0
 21 42  1  0
 21 43  1  0
 22 23  1  0
 22 24  2  0
 24 44  1  0
 25 26  2  0
 25 45  1  0
 26 46  1  0
 27 28  1  0
 29 30  1  0
 29 47  1  0
 30 48  1  0
M  CHG  1  27   1
M  END
>  <DOCK_score>  (1) 
-59.148754

>  <SMILES>  (1) 
Nc1ccc(-c2c[nH]c(Nc3ccc(Nc4ccc(N)c(Cl)c4)cc3)[nH+]2)cc1

$$$$
