O=C1NCC([NH+]=C(NC2CC=CC2)NC2CC=C([C@H](c3ccccc3)c3ccc(F)cc3)CC2)CN1
     RDKit          3D

 71 75  0  0  1  0  0  0  0  0999 V2000
  125.2186  135.9759  164.6893 O   0  0  0  0  0  0  0  0  0  0  0  0
  125.8746  135.6304  163.7255 C   0  0  0  0  0  0  0  0  0  0  0  0
  126.0639  136.5067  162.7278 N   0  0  0  0  0  0  0  0  0  0  0  0
  126.8327  136.1478  161.5350 C   0  0  0  0  0  0  0  0  0  0  0  0
  127.8812  135.0951  161.9106 C   0  0  0  0  0  0  0  0  0  0  0  0
  128.5798  134.6444  160.7043 N   0  0  0  0  0  0  0  0  0  0  0  0
  128.2394  133.8887  160.2003 H   0  0  0  0  0  0  0  0  0  0  0  0
  129.6587  135.2591  160.3081 C   0  0  0  0  0  0  0  0  0  0  0  0
  130.3144  134.8363  159.1761 N   0  0  0  0  0  0  0  0  0  0  0  0
  129.8003  133.6948  158.4151 C   0  0  0  0  0  0  0  0  0  0  0  0
  129.9421  132.3820  159.2199 C   0  0  0  0  0  0  0  0  0  0  0  0
  130.3032  131.3371  158.1898 C   0  0  0  0  0  0  0  0  0  0  0  0
  130.7125  131.8917  157.0814 C   0  0  0  0  0  0  0  0  0  0  0  0
  130.6926  133.3989  157.1874 C   0  0  0  0  0  0  0  0  0  0  0  0
  130.1411  136.3304  161.0221 N   0  0  0  0  0  0  0  0  0  0  0  0
  131.5786  136.6122  161.0389 C   0  0  2  0  0  0  0  0  0  0  0  0
  132.3289  135.4235  161.6436 C   0  0  0  0  0  0  0  0  0  0  0  0
  133.7591  135.7944  161.9063 C   0  0  0  0  0  0  0  0  0  0  0  0
  134.1947  137.0122  161.9576 C   0  0  0  0  0  0  0  0  0  0  0  0
  135.6588  137.2275  162.2426 C   0  0  2  0  0  0  0  0  0  0  0  0
  136.2546  136.7456  161.4673 H   0  0  0  0  0  0  0  0  0  0  0  0
  136.0026  136.6317  163.5833 C   0  0  0  0  0  0  0  0  0  0  0  0
  137.2716  136.1339  163.8137 C   0  0  0  0  0  0  0  0  0  0  0  0
  137.5847  135.5808  165.0412 C   0  0  0  0  0  0  0  0  0  0  0  0
  136.6296  135.5272  166.0392 C   0  0  0  0  0  0  0  0  0  0  0  0
  135.3610  136.0259  165.8091 C   0  0  0  0  0  0  0  0  0  0  0  0
  135.0474  136.5778  164.5812 C   0  0  0  0  0  0  0  0  0  0  0  0
  135.9555  138.7050  162.2585 C   0  0  0  0  0  0  0  0  0  0  0  0
  136.3304  139.3468  161.0929 C   0  0  0  0  0  0  0  0  0  0  0  0
  136.5972  140.7027  161.1051 C   0  0  0  0  0  0  0  0  0  0  0  0
  136.4993  141.4163  162.2875 C   0  0  0  0  0  0  0  0  0  0  0  0
  136.7652  142.7409  162.3017 F   0  0  0  0  0  0  0  0  0  0  0  0
  136.1292  140.7715  163.4555 C   0  0  0  0  0  0  0  0  0  0  0  0
  135.8579  139.4165  163.4398 C   0  0  0  0  0  0  0  0  0  0  0  0
  133.3315  138.2232  161.7572 C   0  0  0  0  0  0  0  0  0  0  0  0
  131.8560  137.8503  161.9008 C   0  0  0  0  0  0  0  0  0  0  0  0
  127.1711  133.9068  162.5681 C   0  0  0  0  0  0  0  0  0  0  0  0
  126.3803  134.3882  163.7023 N   0  0  0  0  0  0  0  0  0  0  0  0
  125.6835  137.3961  162.7979 H   0  0  0  0  0  0  0  0  0  0  0  0
  127.3310  137.0343  161.1424 H   0  0  0  0  0  0  0  0  0  0  0  0
  126.1629  135.7408  160.7775 H   0  0  0  0  0  0  0  0  0  0  0  0
  128.5981  135.5257  162.6095 H   0  0  0  0  0  0  0  0  0  0  0  0
  131.1174  135.2935  158.8812 H   0  0  0  0  0  0  0  0  0  0  0  0
  128.7654  133.8610  158.1157 H   0  0  0  0  0  0  0  0  0  0  0  0
  130.7359  132.4748  159.9610 H   0  0  0  0  0  0  0  0  0  0  0  0
  128.9982  132.1287  159.7028 H   0  0  0  0  0  0  0  0  0  0  0  0
  130.2317  130.2714  158.3496 H   0  0  0  0  0  0  0  0  0  0  0  0
  131.0241  131.3451  156.2036 H   0  0  0  0  0  0  0  0  0  0  0  0
  130.2591  133.8371  156.2884 H   0  0  0  0  0  0  0  0  0  0  0  0
  131.6997  133.7833  157.3485 H   0  0  0  0  0  0  0  0  0  0  0  0
  129.5296  136.8996  161.5150 H   0  0  0  0  0  0  0  0  0  0  0  0
  131.9294  136.7878  160.0218 H   0  0  0  0  0  0  0  0  0  0  0  0
  132.2952  134.5838  160.9492 H   0  0  0  0  0  0  0  0  0  0  0  0
  131.8526  135.1344  162.5803 H   0  0  0  0  0  0  0  0  0  0  0  0
  134.4689  134.9956  162.0627 H   0  0  0  0  0  0  0  0  0  0  0  0
  138.0178  136.1761  163.0340 H   0  0  0  0  0  0  0  0  0  0  0  0
  138.5760  135.1915  165.2209 H   0  0  0  0  0  0  0  0  0  0  0  0
  136.8746  135.0962  166.9986 H   0  0  0  0  0  0  0  0  0  0  0  0
  134.6148  135.9841  166.5888 H   0  0  0  0  0  0  0  0  0  0  0  0
  134.0561  136.9670  164.4014 H   0  0  0  0  0  0  0  0  0  0  0  0
  136.4110  138.7891  160.1716 H   0  0  0  0  0  0  0  0  0  0  0  0
  136.8862  141.2046  160.1935 H   0  0  0  0  0  0  0  0  0  0  0  0
  136.0522  141.3271  164.3784 H   0  0  0  0  0  0  0  0  0  0  0  0
  135.5690  138.9131  164.3507 H   0  0  0  0  0  0  0  0  0  0  0  0
  133.5893  138.9779  162.5002 H   0  0  0  0  0  0  0  0  0  0  0  0
  133.5029  138.6280  160.7596 H   0  0  0  0  0  0  0  0  0  0  0  0
  131.2330  138.6786  161.5634 H   0  0  0  0  0  0  0  0  0  0  0  0
  131.6385  137.6259  162.9451 H   0  0  0  0  0  0  0  0  0  0  0  0
  126.5112  133.4303  161.8434 H   0  0  0  0  0  0  0  0  0  0  0  0
  127.9120  133.1870  162.9162 H   0  0  0  0  0  0  0  0  0  0  0  0
  126.2207  133.7962  164.4540 H   0  0  0  0  0  0  0  0  0  0  0  0
  1  2  2  0
  2 38  1  0
  2  3  1  0
  3  4  1  0
  3 39  1  0
  4  5  1  0
  4 40  1  0
  4 41  1  0
  5  6  1  0
  5 37  1  0
  5 42  1  0
  6  7  1  0
  8  6  2  0
  8  9  1  0
  8 15  1  0
  9 10  1  0
  9 43  1  0
 10 14  1  0
 10 11  1  0
 10 44  1  0
 11 12  1  0
 11 45  1  0
 11 46  1  0
 12 13  2  0
 12 47  1  0
 13 14  1  0
 13 48  1  0
 14 49  1  0
 14 50  1  0
 15 16  1  0
 15 51  1  0
 16 36  1  0
 16 17  1  0
 16 52  1  6
 17 18  1  0
 17 53  1  0
 17 54  1  0
 18 19  2  0
 18 55  1  0
 19 20  1  0
 19 35  1  0
 20 21  1  6
 20 22  1  0
 20 28  1  0
 22 27  1  0
 22 23  2  0
 23 24  1  0
 23 56  1  0
 24 25  2  0
 24 57  1  0
 25 26  1  0
 25 58  1  0
 26 27  2  0
 26 59  1  0
 27 60  1  0
 28 34  1  0
 28 29  2  0
 29 30  1  0
 29 61  1  0
 30 31  2  0
 30 62  1  0
 31 32  1  0
 31 33  1  0
 33 34  2  0
 33 63  1  0
 34 64  1  0
 35 36  1  0
 35 65  1  0
 35 66  1  0
 36 67  1  0
 36 68  1  0
 37 38  1  0
 37 69  1  0
 37 70  1  0
 38 71  1  0
M  CHG  1   6   1
M  END
>  <DOCK_score>  (1) 
-47.490902

>  <SMILES>  (1) 
O=C1NCC([NH+]=C(NC2CC=CC2)NC2CC=C([C@H](c3ccccc3)c3ccc(F)cc3)CC2)CN1

$$$$
