Cc1c[nH]c(Nc2ccc(Nc3ccccc3)cc2)[nH+]1
     RDKit          3D

 37 39  0  0  1  0  0  0  0  0999 V2000
  130.5305  131.6659  154.6513 C   0  0  0  0  0  0  0  0  0  0  0  0
  130.1931  132.3182  155.9673 C   0  0  0  0  0  0  0  0  0  0  0  0
  129.6176  131.7135  157.0206 C   0  0  0  0  0  0  0  0  0  0  0  0
  129.4903  132.6633  158.0084 N   0  0  0  0  0  0  0  0  0  0  0  0
  129.1095  132.5307  158.8907 H   0  0  0  0  0  0  0  0  0  0  0  0
  129.9992  133.8237  157.5127 C   0  0  0  0  0  0  0  0  0  0  0  0
  130.0650  135.0328  158.1862 N   0  0  0  0  0  0  0  0  0  0  0  0
  129.1023  135.3492  159.1525 C   0  0  0  0  0  0  0  0  0  0  0  0
  129.4388  136.1603  160.2285 C   0  0  0  0  0  0  0  0  0  0  0  0
  128.4882  136.4767  161.1784 C   0  0  0  0  0  0  0  0  0  0  0  0
  127.1982  135.9743  161.0641 C   0  0  0  0  0  0  0  0  0  0  0  0
  126.2360  136.2905  162.0301 N   0  0  0  0  0  0  0  0  0  0  0  0
  126.6248  136.5355  163.3493 C   0  0  0  0  0  0  0  0  0  0  0  0
  126.3609  137.7670  163.9357 C   0  0  0  0  0  0  0  0  0  0  0  0
  126.7419  138.0038  165.2418 C   0  0  0  0  0  0  0  0  0  0  0  0
  127.3952  137.0207  165.9622 C   0  0  0  0  0  0  0  0  0  0  0  0
  127.6642  135.7955  165.3800 C   0  0  0  0  0  0  0  0  0  0  0  0
  127.2814  135.5500  164.0761 C   0  0  0  0  0  0  0  0  0  0  0  0
  126.8633  135.1586  159.9912 C   0  0  0  0  0  0  0  0  0  0  0  0
  127.8123  134.8471  159.0380 C   0  0  0  0  0  0  0  0  0  0  0  0
  130.4218  133.6021  156.2903 N   0  0  0  0  0  0  0  0  0  0  0  0
  130.8324  134.2622  155.7102 H   0  0  0  0  0  0  0  0  0  0  0  0
  129.6839  131.7608  153.9713 H   0  0  0  0  0  0  0  0  0  0  0  0
  131.4023  132.1547  154.2165 H   0  0  0  0  0  0  0  0  0  0  0  0
  130.7491  130.6106  154.8143 H   0  0  0  0  0  0  0  0  0  0  0  0
  129.3133  130.6790  157.0806 H   0  0  0  0  0  0  0  0  0  0  0  0
  130.7780  135.6600  157.9883 H   0  0  0  0  0  0  0  0  0  0  0  0
  130.4432  136.5467  160.3200 H   0  0  0  0  0  0  0  0  0  0  0  0
  128.7488  137.1111  162.0127 H   0  0  0  0  0  0  0  0  0  0  0  0
  125.2991  136.3396  161.7836 H   0  0  0  0  0  0  0  0  0  0  0  0
  125.8547  138.5368  163.3721 H   0  0  0  0  0  0  0  0  0  0  0  0
  126.5334  138.9595  165.6996 H   0  0  0  0  0  0  0  0  0  0  0  0
  127.6964  137.2103  166.9819 H   0  0  0  0  0  0  0  0  0  0  0  0
  128.1746  135.0300  165.9455 H   0  0  0  0  0  0  0  0  0  0  0  0
  127.4923  134.5932  163.6217 H   0  0  0  0  0  0  0  0  0  0  0  0
  125.8604  134.7676  159.9025 H   0  0  0  0  0  0  0  0  0  0  0  0
  127.5519  134.2128  158.2036 H   0  0  0  0  0  0  0  0  0  0  0  0
  1  2  1  0
  1 23  1  0
  1 24  1  0
  1 25  1  0
  2 21  1  0
  2  3  2  0
  3  4  1  0
  3 26  1  0
  4  5  1  0
  4  6  1  0
  6  7  1  0
  6 21  2  0
  7  8  1  0
  7 27  1  0
  8 20  1  0
  8  9  2  0
  9 10  1  0
  9 28  1  0
 10 11  2  0
 10 29  1  0
 11 12  1  0
 11 19  1  0
 12 13  1  0
 12 30  1  0
 13 18  1  0
 13 14  2  0
 14 15  1  0
 14 31  1  0
 15 16  2  0
 15 32  1  0
 16 17  1  0
 16 33  1  0
 17 18  2  0
 17 34  1  0
 18 35  1  0
 19 20  2  0
 19 36  1  0
 20 37  1  0
 21 22  1  0
M  CHG  1  21   1
M  END
>  <DOCK_score>  (1) 
-46.484978

>  <SMILES>  (1) 
Cc1c[nH]c(Nc2ccc(Nc3ccccc3)cc2)[nH+]1

$$$$
