CCC=C[C@H](Nc1[nH]cc(-c2ccc(N)cc2)[nH+]1)c1ccnn1C1CCC1
     RDKit          3D

 54 57  0  0  1  0  0  0  0  0999 V2000
  129.5665  138.8973  162.0652 C   0  0  0  0  0  0  0  0  0  0  0  0
  130.8004  138.1473  161.5593 C   0  0  0  0  0  0  0  0  0  0  0  0
  130.3940  136.7781  161.0788 C   0  0  0  0  0  0  0  0  0  0  0  0
  130.0439  136.5996  159.8292 C   0  0  0  0  0  0  0  0  0  0  0  0
  129.6375  135.2303  159.3486 C   0  0  2  0  0  0  0  0  0  0  0  0
  129.6965  134.5227  160.1756 H   0  0  0  0  0  0  0  0  0  0  0  0
  130.5374  134.8026  158.2747 N   0  0  0  0  0  0  0  0  0  0  0  0
  130.3592  133.5687  157.6725 C   0  0  0  0  0  0  0  0  0  0  0  0
  129.8371  132.4632  158.2699 N   0  0  0  0  0  0  0  0  0  0  0  0
  129.5259  132.3982  159.1863 H   0  0  0  0  0  0  0  0  0  0  0  0
  129.8329  131.4555  157.3348 C   0  0  0  0  0  0  0  0  0  0  0  0
  130.3519  131.9747  156.1948 C   0  0  0  0  0  0  0  0  0  0  0  0
  130.5437  131.2508  154.9141 C   0  0  0  0  0  0  0  0  0  0  0  0
  129.9007  131.6934  153.7591 C   0  0  0  0  0  0  0  0  0  0  0  0
  130.0845  131.0221  152.5688 C   0  0  0  0  0  0  0  0  0  0  0  0
  130.9009  129.8987  152.5222 C   0  0  0  0  0  0  0  0  0  0  0  0
  131.0809  129.2171  151.3161 N   0  0  0  0  0  0  0  0  0  0  0  0
  131.5388  129.4521  153.6738 C   0  0  0  0  0  0  0  0  0  0  0  0
  131.3625  130.1237  154.8652 C   0  0  0  0  0  0  0  0  0  0  0  0
  130.6603  133.2744  156.4311 N   0  0  0  0  0  0  0  0  0  0  0  0
  131.0445  133.8876  155.7851 H   0  0  0  0  0  0  0  0  0  0  0  0
  128.2236  135.2794  158.8295 C   0  0  0  0  0  0  0  0  0  0  0  0
  127.8499  135.5445  157.5562 C   0  0  0  0  0  0  0  0  0  0  0  0
  126.4535  135.4916  157.4975 C   0  0  0  0  0  0  0  0  0  0  0  0
  126.0051  135.1997  158.6915 N   0  0  0  0  0  0  0  0  0  0  0  0
  127.1032  135.0664  159.5510 N   0  0  0  0  0  0  0  0  0  0  0  0
  127.0459  134.7461  160.9794 C   0  0  0  0  0  0  0  0  0  0  0  0
  125.6191  134.7429  161.5531 C   0  0  0  0  0  0  0  0  0  0  0  0
  125.5525  133.2547  161.1645 C   0  0  0  0  0  0  0  0  0  0  0  0
  127.0862  133.2374  161.2745 C   0  0  0  0  0  0  0  0  0  0  0  0
  129.8605  139.8877  162.4128 H   0  0  0  0  0  0  0  0  0  0  0  0
  128.8440  138.9963  161.2551 H   0  0  0  0  0  0  0  0  0  0  0  0
  129.1160  138.3424  162.8882 H   0  0  0  0  0  0  0  0  0  0  0  0
  131.5229  138.0485  162.3694 H   0  0  0  0  0  0  0  0  0  0  0  0
  131.2508  138.7023  160.7364 H   0  0  0  0  0  0  0  0  0  0  0  0
  130.3912  135.9438  161.7647 H   0  0  0  0  0  0  0  0  0  0  0  0
  130.0466  137.4339  159.1433 H   0  0  0  0  0  0  0  0  0  0  0  0
  131.2581  135.3838  157.9856 H   0  0  0  0  0  0  0  0  0  0  0  0
  129.4831  130.4441  157.4803 H   0  0  0  0  0  0  0  0  0  0  0  0
  129.2623  132.5637  153.7958 H   0  0  0  0  0  0  0  0  0  0  0  0
  129.5901  131.3671  151.6727 H   0  0  0  0  0  0  0  0  0  0  0  0
  131.6511  128.4321  151.2833 H   0  0  0  0  0  0  0  0  0  0  0  0
  130.6364  129.5271  150.5125 H   0  0  0  0  0  0  0  0  0  0  0  0
  132.1728  128.5787  153.6355 H   0  0  0  0  0  0  0  0  0  0  0  0
  131.8585  129.7768  155.7596 H   0  0  0  0  0  0  0  0  0  0  0  0
  128.5129  135.7589  156.7310 H   0  0  0  0  0  0  0  0  0  0  0  0
  125.8498  135.6586  156.6177 H   0  0  0  0  0  0  0  0  0  0  0  0
  127.7535  135.3260  161.5719 H   0  0  0  0  0  0  0  0  0  0  0  0
  125.5807  134.9153  162.6287 H   0  0  0  0  0  0  0  0  0  0  0  0
  124.9236  135.3718  160.9974 H   0  0  0  0  0  0  0  0  0  0  0  0
  125.1854  133.0851  160.1522 H   0  0  0  0  0  0  0  0  0  0  0  0
  125.0545  132.6293  161.9055 H   0  0  0  0  0  0  0  0  0  0  0  0
  127.5734  132.6528  160.4942 H   0  0  0  0  0  0  0  0  0  0  0  0
  127.4497  132.9976  162.2738 H   0  0  0  0  0  0  0  0  0  0  0  0
  1  2  1  0
  1 31  1  0
  1 32  1  0
  1 33  1  0
  2  3  1  0
  2 34  1  0
  2 35  1  0
  3  4  2  0
  3 36  1  0
  4  5  1  0
  4 37  1  0
  5  6  1  1
  5  7  1  0
  5 22  1  0
  7 38  1  0
  8  7  1  0
  8 20  2  0
  8  9  1  0
  9 10  1  0
  9 11  1  0
 11 12  2  0
 11 39  1  0
 12 13  1  0
 12 20  1  0
 13 19  1  0
 13 14  2  0
 14 15  1  0
 14 40  1  0
 15 16  2  0
 15 41  1  0
 16 17  1  0
 16 18  1  0
 17 42  1  0
 17 43  1  0
 18 19  2  0
 18 44  1  0
 19 45  1  0
 20 21  1  0
 22 26  1  0
 22 23  2  0
 23 24  1  0
 23 46  1  0
 24 25  2  0
 24 47  1  0
 25 26  1  0
 26 27  1  0
 27 30  1  0
 27 28  1  0
 27 48  1  0
 28 29  1  0
 28 49  1  0
 28 50  1  0
 29 30  1  0
 29 51  1  0
 29 52  1  0
 30 53  1  0
 30 54  1  0
M  CHG  1  20   1
M  END
>  <DOCK_score>  (1) 
-58.819458

>  <SMILES>  (1) 
CCC=C[C@H](Nc1[nH]cc(-c2ccc(N)cc2)[nH+]1)c1ccnn1C1CCC1

$$$$
