O=C1CC[C@H]([NH+]=C(NC2CC=CC2)N[C@@H]2CCc3ccccc3OC2)CN1
     RDKit          3D

 56 59  0  0  1  0  0  0  0  0999 V2000
  124.2041  134.0373  161.0481 O   0  0  0  0  0  0  0  0  0  0  0  0
  125.3748  134.2386  160.8036 C   0  0  0  0  0  0  0  0  0  0  0  0
  126.1967  133.0985  160.2746 C   0  0  0  0  0  0  0  0  0  0  0  0
  127.6863  133.4081  160.4428 C   0  0  0  0  0  0  0  0  0  0  0  0
  127.9523  134.8182  159.9021 C   0  0  2  0  0  0  0  0  0  0  0  0
  127.5571  134.9022  158.8898 H   0  0  0  0  0  0  0  0  0  0  0  0
  129.3944  135.0758  159.8896 N   0  0  0  0  0  0  0  0  0  0  0  0
  129.7601  135.8118  160.4051 H   0  0  0  0  0  0  0  0  0  0  0  0
  130.1862  134.3163  159.1860 C   0  0  0  0  0  0  0  0  0  0  0  0
  129.7245  133.7211  158.0358 N   0  0  0  0  0  0  0  0  0  0  0  0
  130.6142  132.8674  157.2448 C   0  0  0  0  0  0  0  0  0  0  0  0
  130.1222  132.7560  155.7832 C   0  0  0  0  0  0  0  0  0  0  0  0
  130.4121  131.3266  155.3881 C   0  0  0  0  0  0  0  0  0  0  0  0
  130.6337  130.5844  156.4386 C   0  0  0  0  0  0  0  0  0  0  0  0
  130.5285  131.3950  157.7095 C   0  0  0  0  0  0  0  0  0  0  0  0
  131.4828  134.1102  159.5938 N   0  0  0  0  0  0  0  0  0  0  0  0
  131.9748  134.7445  160.8194 C   0  0  2  0  0  0  0  0  0  0  0  0
  131.1385  134.8617  161.5087 H   0  0  0  0  0  0  0  0  0  0  0  0
  132.5165  136.1229  160.4713 C   0  0  0  0  0  0  0  0  0  0  0  0
  132.8486  136.9113  161.7383 C   0  0  0  0  0  0  0  0  0  0  0  0
  134.2300  136.5062  162.2150 C   0  0  0  0  0  0  0  0  0  0  0  0
  135.2697  137.4128  162.1675 C   0  0  0  0  0  0  0  0  0  0  0  0
  136.5164  137.0502  162.6468 C   0  0  0  0  0  0  0  0  0  0  0  0
  136.7170  135.7856  163.1693 C   0  0  0  0  0  0  0  0  0  0  0  0
  135.6779  134.8756  163.2070 C   0  0  0  0  0  0  0  0  0  0  0  0
  134.4291  135.2373  162.7182 C   0  0  0  0  0  0  0  0  0  0  0  0
  133.4086  134.3361  162.7348 O   0  0  0  0  0  0  0  0  0  0  0  0
  133.0047  133.8352  161.4563 C   0  0  0  0  0  0  0  0  0  0  0  0
  127.2580  135.8312  160.8133 C   0  0  0  0  0  0  0  0  0  0  0  0
  125.8634  135.4608  161.0186 N   0  0  0  0  0  0  0  0  0  0  0  0
  125.9745  132.9519  159.2176 H   0  0  0  0  0  0  0  0  0  0  0  0
  125.9511  132.1906  160.8255 H   0  0  0  0  0  0  0  0  0  0  0  0
  128.2773  132.6830  159.8835 H   0  0  0  0  0  0  0  0  0  0  0  0
  127.9539  133.3634  161.4985 H   0  0  0  0  0  0  0  0  0  0  0  0
  128.8097  133.8665  157.7480 H   0  0  0  0  0  0  0  0  0  0  0  0
  131.6409  133.2315  157.2860 H   0  0  0  0  0  0  0  0  0  0  0  0
  129.0520  132.9560  155.7265 H   0  0  0  0  0  0  0  0  0  0  0  0
  130.6726  133.4458  155.1435 H   0  0  0  0  0  0  0  0  0  0  0  0
  130.4328  130.9663  154.3702 H   0  0  0  0  0  0  0  0  0  0  0  0
  130.8619  129.5293  156.4042 H   0  0  0  0  0  0  0  0  0  0  0  0
  131.3552  131.1595  158.3797 H   0  0  0  0  0  0  0  0  0  0  0  0
  129.5751  131.2076  158.2036 H   0  0  0  0  0  0  0  0  0  0  0  0
  132.0719  133.5449  159.0700 H   0  0  0  0  0  0  0  0  0  0  0  0
  131.7680  136.6675  159.8957 H   0  0  0  0  0  0  0  0  0  0  0  0
  133.4193  136.0124  159.8707 H   0  0  0  0  0  0  0  0  0  0  0  0
  132.1143  136.6866  162.5119 H   0  0  0  0  0  0  0  0  0  0  0  0
  132.8354  137.9794  161.5211 H   0  0  0  0  0  0  0  0  0  0  0  0
  135.1113  138.3996  161.7584 H   0  0  0  0  0  0  0  0  0  0  0  0
  137.3333  137.7558  162.6131 H   0  0  0  0  0  0  0  0  0  0  0  0
  137.6892  135.5085  163.5494 H   0  0  0  0  0  0  0  0  0  0  0  0
  135.8359  133.8881  163.6148 H   0  0  0  0  0  0  0  0  0  0  0  0
  133.8766  133.7703  160.8053 H   0  0  0  0  0  0  0  0  0  0  0  0
  132.5765  132.8406  161.5803 H   0  0  0  0  0  0  0  0  0  0  0  0
  127.7688  135.8593  161.7758 H   0  0  0  0  0  0  0  0  0  0  0  0
  127.3047  136.8191  160.3552 H   0  0  0  0  0  0  0  0  0  0  0  0
  125.2523  136.1461  161.3312 H   0  0  0  0  0  0  0  0  0  0  0  0
  1  2  2  0
  2 30  1  0
  2  3  1  0
  3  4  1  0
  3 31  1  0
  3 32  1  0
  4  5  1  0
  4 33  1  0
  4 34  1  0
  5  6  1  6
  5  7  1  0
  5 29  1  0
  7  8  1  0
  9  7  2  0
  9 10  1  0
  9 16  1  0
 10 11  1  0
 10 35  1  0
 11 15  1  0
 11 12  1  0
 11 36  1  0
 12 13  1  0
 12 37  1  0
 12 38  1  0
 13 14  2  0
 13 39  1  0
 14 15  1  0
 14 40  1  0
 15 41  1  0
 15 42  1  0
 16 17  1  0
 16 43  1  0
 17 18  1  1
 17 28  1  0
 17 19  1  0
 19 20  1  0
 19 44  1  0
 19 45  1  0
 20 21  1  0
 20 46  1  0
 20 47  1  0
 21 26  2  0
 21 22  1  0
 22 23  2  0
 22 48  1  0
 23 24  1  0
 23 49  1  0
 24 25  2  0
 24 50  1  0
 25 26  1  0
 25 51  1  0
 26 27  1  0
 27 28  1  0
 28 52  1  0
 28 53  1  0
 29 30  1  0
 29 54  1  0
 29 55  1  0
 30 56  1  0
M  CHG  1   7   1
M  END
>  <DOCK_score>  (1) 
-46.302158

>  <SMILES>  (1) 
O=C1CC[C@H]([NH+]=C(NC2CC=CC2)N[C@@H]2CCc3ccccc3OC2)CN1

$$$$
