Cn1nccc1C[C@H](CCc1cccc2ccccc12)Nc1[nH]cc(-c2ccc(N)cc2)[nH+]1
     RDKit          3D

 62 66  0  0  1  0  0  0  0  0999 V2000
  127.4541  134.4247  163.0129 C   0  0  0  0  0  0  0  0  0  0  0  0
  127.1917  134.2386  161.5837 N   0  0  0  0  0  0  0  0  0  0  0  0
  126.3729  133.2531  161.0176 N   0  0  0  0  0  0  0  0  0  0  0  0
  126.3901  133.4040  159.7182 C   0  0  0  0  0  0  0  0  0  0  0  0
  127.2118  134.4950  159.4159 C   0  0  0  0  0  0  0  0  0  0  0  0
  127.6919  134.9896  160.5802 C   0  0  0  0  0  0  0  0  0  0  0  0
  128.6185  136.1687  160.7297 C   0  0  0  0  0  0  0  0  0  0  0  0
  130.0695  135.6856  160.6871 C   0  0  2  0  0  0  0  0  0  0  0  0
  130.1581  134.7519  161.2423 H   0  0  0  0  0  0  0  0  0  0  0  0
  130.9777  136.7426  161.3188 C   0  0  0  0  0  0  0  0  0  0  0  0
  130.8536  138.0534  160.5394 C   0  0  0  0  0  0  0  0  0  0  0  0
  131.7480  139.0944  161.1616 C   0  0  0  0  0  0  0  0  0  0  0  0
  131.2752  139.8988  162.1528 C   0  0  0  0  0  0  0  0  0  0  0  0
  132.0875  140.8662  162.7406 C   0  0  0  0  0  0  0  0  0  0  0  0
  133.3777  141.0353  162.3406 C   0  0  0  0  0  0  0  0  0  0  0  0
  133.9010  140.2240  161.3197 C   0  0  0  0  0  0  0  0  0  0  0  0
  135.2279  140.3693  160.8797 C   0  0  0  0  0  0  0  0  0  0  0  0
  135.7003  139.5656  159.8883 C   0  0  0  0  0  0  0  0  0  0  0  0
  134.8875  138.5981  159.3001 C   0  0  0  0  0  0  0  0  0  0  0  0
  133.5977  138.4290  159.7000 C   0  0  0  0  0  0  0  0  0  0  0  0
  133.0763  139.2359  160.7258 C   0  0  0  0  0  0  0  0  0  0  0  0
  130.4705  135.4661  159.2952 N   0  0  0  0  0  0  0  0  0  0  0  0
  130.2837  134.2262  158.7084 C   0  0  0  0  0  0  0  0  0  0  0  0
  129.7357  133.1375  159.3134 N   0  0  0  0  0  0  0  0  0  0  0  0
  129.4090  133.0905  160.2255 H   0  0  0  0  0  0  0  0  0  0  0  0
  129.7310  132.1161  158.3931 C   0  0  0  0  0  0  0  0  0  0  0  0
  130.2758  132.6107  157.2542 C   0  0  0  0  0  0  0  0  0  0  0  0
  130.4757  131.8657  155.9869 C   0  0  0  0  0  0  0  0  0  0  0  0
  129.8579  132.3018  154.8159 C   0  0  0  0  0  0  0  0  0  0  0  0
  130.0497  131.6110  153.6380 C   0  0  0  0  0  0  0  0  0  0  0  0
  130.8489  130.4741  153.6202 C   0  0  0  0  0  0  0  0  0  0  0  0
  131.0374  129.7723  152.4271 N   0  0  0  0  0  0  0  0  0  0  0  0
  131.4612  130.0341  154.7876 C   0  0  0  0  0  0  0  0  0  0  0  0
  131.2769  130.7251  155.9667 C   0  0  0  0  0  0  0  0  0  0  0  0
  130.6004  133.9089  157.4766 N   0  0  0  0  0  0  0  0  0  0  0  0
  131.0043  134.5066  156.8282 H   0  0  0  0  0  0  0  0  0  0  0  0
  126.7092  135.0996  163.4342 H   0  0  0  0  0  0  0  0  0  0  0  0
  127.4005  133.4617  163.5205 H   0  0  0  0  0  0  0  0  0  0  0  0
  128.4482  134.8513  163.1473 H   0  0  0  0  0  0  0  0  0  0  0  0
  125.8580  132.7946  159.0026 H   0  0  0  0  0  0  0  0  0  0  0  0
  127.4256  134.8749  158.4278 H   0  0  0  0  0  0  0  0  0  0  0  0
  128.4456  136.8722  159.9151 H   0  0  0  0  0  0  0  0  0  0  0  0
  128.4276  136.6622  161.6827 H   0  0  0  0  0  0  0  0  0  0  0  0
  130.6794  136.9059  162.3544 H   0  0  0  0  0  0  0  0  0  0  0  0
  132.0115  136.3984  161.2884 H   0  0  0  0  0  0  0  0  0  0  0  0
  131.1518  137.8901  159.5039 H   0  0  0  0  0  0  0  0  0  0  0  0
  129.8197  138.3976  160.5698 H   0  0  0  0  0  0  0  0  0  0  0  0
  130.2551  139.7852  162.4888 H   0  0  0  0  0  0  0  0  0  0  0  0
  131.6877  141.4914  163.5253 H   0  0  0  0  0  0  0  0  0  0  0  0
  133.9957  141.7895  162.8050 H   0  0  0  0  0  0  0  0  0  0  0  0
  135.8690  141.1152  161.3257 H   0  0  0  0  0  0  0  0  0  0  0  0
  136.7203  139.6794  159.5520 H   0  0  0  0  0  0  0  0  0  0  0  0
  135.2872  137.9735  158.5149 H   0  0  0  0  0  0  0  0  0  0  0  0
  132.9797  137.6752  159.2350 H   0  0  0  0  0  0  0  0  0  0  0  0
  130.8669  136.1895  158.7848 H   0  0  0  0  0  0  0  0  0  0  0  0
  129.3638  131.1123  158.5477 H   0  0  0  0  0  0  0  0  0  0  0  0
  129.2328  133.1824  154.8304 H   0  0  0  0  0  0  0  0  0  0  0  0
  129.5745  131.9509  152.7297 H   0  0  0  0  0  0  0  0  0  0  0  0
  131.5954  128.9794  152.4135 H   0  0  0  0  0  0  0  0  0  0  0  0
  130.6105  130.0791  151.6115 H   0  0  0  0  0  0  0  0  0  0  0  0
  132.0815  129.1502  154.7716 H   0  0  0  0  0  0  0  0  0  0  0  0
  131.7531  130.3830  156.8736 H   0  0  0  0  0  0  0  0  0  0  0  0
  1  2  1  0
  1 37  1  0
  1 38  1  0
  1 39  1  0
  2  6  1  0
  2  3  1  0
  3  4  2  0
  4  5  1  0
  4 40  1  0
  5  6  2  0
  5 41  1  0
  6  7  1  0
  7  8  1  0
  7 42  1  0
  7 43  1  0
  8  9  1  1
  8 10  1  0
  8 22  1  0
 10 11  1  0
 10 44  1  0
 10 45  1  0
 11 12  1  0
 11 46  1  0
 11 47  1  0
 12 21  1  0
 12 13  2  0
 13 14  1  0
 13 48  1  0
 14 15  2  0
 14 49  1  0
 15 16  1  0
 15 50  1  0
 16 21  2  0
 16 17  1  0
 17 18  2  0
 17 51  1  0
 18 19  1  0
 18 52  1  0
 19 20  2  0
 19 53  1  0
 20 21  1  0
 20 54  1  0
 22 55  1  0
 23 22  1  0
 23 35  2  0
 23 24  1  0
 24 25  1  0
 24 26  1  0
 26 27  2  0
 26 56  1  0
 27 28  1  0
 27 35  1  0
 28 34  1  0
 28 29  2  0
 29 30  1  0
 29 57  1  0
 30 31  2  0
 30 58  1  0
 31 32  1  0
 31 33  1  0
 32 59  1  0
 32 60  1  0
 33 34  2  0
 33 61  1  0
 34 62  1  0
 35 36  1  0
M  CHG  1  35   1
M  END
>  <DOCK_score>  (1) 
-63.357864

>  <SMILES>  (1) 
Cn1nccc1C[C@H](CCc1cccc2ccccc12)Nc1[nH]cc(-c2ccc(N)cc2)[nH+]1

$$$$
