CCc1ccc(-c2c[nH]c(NCCCc3cccc4ccccc34)[nH+]2)cc1
     RDKit          3D

 53 56  0  0  1  0  0  0  0  0999 V2000
  130.2688  128.2679  151.8268 C   0  0  0  0  0  0  0  0  0  0  0  0
  131.2642  129.4224  151.9552 C   0  0  0  0  0  0  0  0  0  0  0  0
  131.0009  130.1730  153.2352 C   0  0  0  0  0  0  0  0  0  0  0  0
  131.6438  129.7942  154.4001 C   0  0  0  0  0  0  0  0  0  0  0  0
  131.4110  130.4810  155.5742 C   0  0  0  0  0  0  0  0  0  0  0  0
  130.5177  131.5509  155.5874 C   0  0  0  0  0  0  0  0  0  0  0  0
  130.2592  132.2894  156.8475 C   0  0  0  0  0  0  0  0  0  0  0  0
  129.7548  131.7639  157.9913 C   0  0  0  0  0  0  0  0  0  0  0  0
  129.6816  132.7893  158.9026 N   0  0  0  0  0  0  0  0  0  0  0  0
  129.3618  132.7242  159.8161 H   0  0  0  0  0  0  0  0  0  0  0  0
  130.1359  133.9141  158.2858 C   0  0  0  0  0  0  0  0  0  0  0  0
  130.2211  135.1706  158.8607 N   0  0  0  0  0  0  0  0  0  0  0  0
  129.8010  135.3705  160.2499 C   0  0  0  0  0  0  0  0  0  0  0  0
  130.6199  136.5031  160.8723 C   0  0  0  0  0  0  0  0  0  0  0  0
  130.3922  137.7920  160.0801 C   0  0  0  0  0  0  0  0  0  0  0  0
  131.1987  138.9077  160.6931 C   0  0  0  0  0  0  0  0  0  0  0  0
  132.4731  139.1403  160.2750 C   0  0  0  0  0  0  0  0  0  0  0  0
  133.2324  140.1701  160.8267 C   0  0  0  0  0  0  0  0  0  0  0  0
  132.7255  140.9672  161.8067 C   0  0  0  0  0  0  0  0  0  0  0  0
  131.4155  140.7541  162.2678 C   0  0  0  0  0  0  0  0  0  0  0  0
  130.8576  141.5568  163.2776 C   0  0  0  0  0  0  0  0  0  0  0  0
  129.5853  141.3214  163.6989 C   0  0  0  0  0  0  0  0  0  0  0  0
  128.8241  140.2941  163.1443 C   0  0  0  0  0  0  0  0  0  0  0  0
  129.3307  139.4968  162.1646 C   0  0  0  0  0  0  0  0  0  0  0  0
  130.6413  139.7095  161.7034 C   0  0  0  0  0  0  0  0  0  0  0  0
  130.4802  133.6115  157.0579 N   0  0  0  0  0  0  0  0  0  0  0  0
  130.8363  134.2332  156.4041 H   0  0  0  0  0  0  0  0  0  0  0  0
  129.8687  131.9244  154.4119 C   0  0  0  0  0  0  0  0  0  0  0  0
  130.1134  131.2339  153.2423 C   0  0  0  0  0  0  0  0  0  0  0  0
  129.2531  128.6630  151.8143 H   0  0  0  0  0  0  0  0  0  0  0  0
  130.4592  127.7253  150.9007 H   0  0  0  0  0  0  0  0  0  0  0  0
  130.3854  127.5922  152.6741 H   0  0  0  0  0  0  0  0  0  0  0  0
  132.2798  129.0277  151.9673 H   0  0  0  0  0  0  0  0  0  0  0  0
  131.1474  130.0985  151.1075 H   0  0  0  0  0  0  0  0  0  0  0  0
  132.3324  128.9622  154.3896 H   0  0  0  0  0  0  0  0  0  0  0  0
  131.9166  130.1873  156.4823 H   0  0  0  0  0  0  0  0  0  0  0  0
  129.4678  130.7357  158.1552 H   0  0  0  0  0  0  0  0  0  0  0  0
  130.5589  135.9187  158.3438 H   0  0  0  0  0  0  0  0  0  0  0  0
  128.7428  135.6306  160.2757 H   0  0  0  0  0  0  0  0  0  0  0  0
  129.9632  134.4521  160.8143 H   0  0  0  0  0  0  0  0  0  0  0  0
  130.3073  136.6519  161.9060 H   0  0  0  0  0  0  0  0  0  0  0  0
  131.6780  136.2430  160.8466 H   0  0  0  0  0  0  0  0  0  0  0  0
  130.7047  137.6433  159.0465 H   0  0  0  0  0  0  0  0  0  0  0  0
  129.3339  138.0522  160.1058 H   0  0  0  0  0  0  0  0  0  0  0  0
  132.9007  138.5196  159.5014 H   0  0  0  0  0  0  0  0  0  0  0  0
  134.2398  140.3358  160.4741 H   0  0  0  0  0  0  0  0  0  0  0  0
  133.3271  141.7590  162.2277 H   0  0  0  0  0  0  0  0  0  0  0  0
  131.4358  142.3562  163.7171 H   0  0  0  0  0  0  0  0  0  0  0  0
  129.1589  141.9399  164.4750 H   0  0  0  0  0  0  0  0  0  0  0  0
  127.8170  140.1282  163.4971 H   0  0  0  0  0  0  0  0  0  0  0  0
  128.7289  138.7050  161.7436 H   0  0  0  0  0  0  0  0  0  0  0  0
  129.1753  132.7524  154.4164 H   0  0  0  0  0  0  0  0  0  0  0  0
  129.6114  131.5228  152.3307 H   0  0  0  0  0  0  0  0  0  0  0  0
  1  2  1  0
  1 30  1  0
  1 31  1  0
  1 32  1  0
  2  3  1  0
  2 33  1  0
  2 34  1  0
  3 29  2  0
  3  4  1  0
  4  5  2  0
  4 35  1  0
  5  6  1  0
  5 36  1  0
  6  7  1  0
  6 28  2  0
  7 26  1  0
  7  8  2  0
  8  9  1  0
  8 37  1  0
  9 10  1  0
  9 11  1  0
 11 12  1  0
 11 26  2  0
 12 13  1  0
 12 38  1  0
 13 14  1  0
 13 39  1  0
 13 40  1  0
 14 15  1  0
 14 41  1  0
 14 42  1  0
 15 16  1  0
 15 43  1  0
 15 44  1  0
 16 25  1  0
 16 17  2  0
 17 18  1  0
 17 45  1  0
 18 19  2  0
 18 46  1  0
 19 20  1  0
 19 47  1  0
 20 25  2  0
 20 21  1  0
 21 22  2  0
 21 48  1  0
 22 23  1  0
 22 49  1  0
 23 24  2  0
 23 50  1  0
 24 25  1  0
 24 51  1  0
 26 27  1  0
 28 29  1  0
 28 52  1  0
 29 53  1  0
M  CHG  1  26   1
M  END
>  <DOCK_score>  (1) 
-59.200623

>  <SMILES>  (1) 
CCc1ccc(-c2c[nH]c(NCCCc3cccc4ccccc34)[nH+]2)cc1

$$$$
