CCC[C@H](Nc1[nH]cc(-c2ccc(CC)cc2)[nH+]1)c1ccccc1
     RDKit          3D

 50 52  0  0  1  0  0  0  0  0999 V2000
  130.8011  137.9328  162.2200 C   0  0  0  0  0  0  0  0  0  0  0  0
  130.4213  136.5760  161.6233 C   0  0  0  0  0  0  0  0  0  0  0  0
  129.4376  136.7835  160.4700 C   0  0  0  0  0  0  0  0  0  0  0  0
  129.0578  135.4267  159.8734 C   0  0  2  0  0  0  0  0  0  0  0  0
  128.9300  134.7000  160.6758 H   0  0  0  0  0  0  0  0  0  0  0  0
  130.1197  134.9758  158.9706 N   0  0  0  0  0  0  0  0  0  0  0  0
  129.9986  133.7656  158.3094 C   0  0  0  0  0  0  0  0  0  0  0  0
  129.3331  132.6724  158.7724 N   0  0  0  0  0  0  0  0  0  0  0  0
  128.8626  132.6016  159.6177 H   0  0  0  0  0  0  0  0  0  0  0  0
  129.4503  131.6880  157.8215 C   0  0  0  0  0  0  0  0  0  0  0  0
  130.1833  132.2073  156.8056 C   0  0  0  0  0  0  0  0  0  0  0  0
  130.5658  131.5042  155.5568 C   0  0  0  0  0  0  0  0  0  0  0  0
  130.1615  132.0048  154.3204 C   0  0  0  0  0  0  0  0  0  0  0  0
  130.5207  131.3466  153.1617 C   0  0  0  0  0  0  0  0  0  0  0  0
  131.2801  130.1917  153.2262 C   0  0  0  0  0  0  0  0  0  0  0  0
  131.6687  129.4773  151.9574 C   0  0  0  0  0  0  0  0  0  0  0  0
  130.5913  128.4521  151.5989 C   0  0  0  0  0  0  0  0  0  0  0  0
  131.6793  129.6878  154.4505 C   0  0  0  0  0  0  0  0  0  0  0  0
  131.3312  130.3409  155.6153 C   0  0  0  0  0  0  0  0  0  0  0  0
  130.5098  133.4820  157.1363 N   0  0  0  0  0  0  0  0  0  0  0  0
  131.0354  134.0876  156.5905 H   0  0  0  0  0  0  0  0  0  0  0  0
  127.7680  135.5590  159.1053 C   0  0  0  0  0  0  0  0  0  0  0  0
  126.5594  135.3509  159.7433 C   0  0  0  0  0  0  0  0  0  0  0  0
  125.3760  135.4765  159.0398 C   0  0  0  0  0  0  0  0  0  0  0  0
  125.4017  135.8012  157.6963 C   0  0  0  0  0  0  0  0  0  0  0  0
  126.6106  136.0042  157.0573 C   0  0  0  0  0  0  0  0  0  0  0  0
  127.7937  135.8828  157.7617 C   0  0  0  0  0  0  0  0  0  0  0  0
  129.9051  138.4299  162.5917 H   0  0  0  0  0  0  0  0  0  0  0  0
  131.5018  137.7850  163.0417 H   0  0  0  0  0  0  0  0  0  0  0  0
  131.2669  138.5500  161.4518 H   0  0  0  0  0  0  0  0  0  0  0  0
  129.9555  135.9588  162.3916 H   0  0  0  0  0  0  0  0  0  0  0  0
  131.3173  136.0789  161.2517 H   0  0  0  0  0  0  0  0  0  0  0  0
  129.9034  137.4007  159.7018 H   0  0  0  0  0  0  0  0  0  0  0  0
  128.5416  137.2805  160.8417 H   0  0  0  0  0  0  0  0  0  0  0  0
  130.9078  135.5251  158.8362 H   0  0  0  0  0  0  0  0  0  0  0  0
  129.0376  130.6913  157.8730 H   0  0  0  0  0  0  0  0  0  0  0  0
  129.5681  132.9056  154.2691 H   0  0  0  0  0  0  0  0  0  0  0  0
  130.2079  131.7335  152.2031 H   0  0  0  0  0  0  0  0  0  0  0  0
  132.6209  128.9684  152.1040 H   0  0  0  0  0  0  0  0  0  0  0  0
  131.7647  130.2014  151.1476 H   0  0  0  0  0  0  0  0  0  0  0  0
  130.8724  127.9354  150.6813 H   0  0  0  0  0  0  0  0  0  0  0  0
  130.4951  127.7285  152.4084 H   0  0  0  0  0  0  0  0  0  0  0  0
  129.6391  128.9615  151.4520 H   0  0  0  0  0  0  0  0  0  0  0  0
  132.2681  128.7835  154.4949 H   0  0  0  0  0  0  0  0  0  0  0  0
  131.6474  129.9489  156.5707 H   0  0  0  0  0  0  0  0  0  0  0  0
  126.5395  135.0935  160.7919 H   0  0  0  0  0  0  0  0  0  0  0  0
  124.4316  135.3182  159.5390 H   0  0  0  0  0  0  0  0  0  0  0  0
  124.4772  135.8967  157.1460 H   0  0  0  0  0  0  0  0  0  0  0  0
  126.6306  136.2579  156.0077 H   0  0  0  0  0  0  0  0  0  0  0  0
  128.7381  136.0415  157.2624 H   0  0  0  0  0  0  0  0  0  0  0  0
  1  2  1  0
  1 28  1  0
  1 29  1  0
  1 30  1  0
  2  3  1  0
  2 31  1  0
  2 32  1  0
  3  4  1  0
  3 33  1  0
  3 34  1  0
  4  5  1  1
  4  6  1  0
  4 22  1  0
  6 35  1  0
  7  6  1  0
  7 20  2  0
  7  8  1  0
  8  9  1  0
  8 10  1  0
 10 11  2  0
 10 36  1  0
 11 12  1  0
 11 20  1  0
 12 19  1  0
 12 13  2  0
 13 14  1  0
 13 37  1  0
 14 15  2  0
 14 38  1  0
 15 16  1  0
 15 18  1  0
 16 17  1  0
 16 39  1  0
 16 40  1  0
 17 41  1  0
 17 42  1  0
 17 43  1  0
 18 19  2  0
 18 44  1  0
 19 45  1  0
 20 21  1  0
 22 27  1  0
 22 23  2  0
 23 24  1  0
 23 46  1  0
 24 25  2  0
 24 47  1  0
 25 26  1  0
 25 48  1  0
 26 27  2  0
 26 49  1  0
 27 50  1  0
M  CHG  1  20   1
M  END
>  <DOCK_score>  (1) 
-58.53513

>  <SMILES>  (1) 
CCC[C@H](Nc1[nH]cc(-c2ccc(CC)cc2)[nH+]1)c1ccccc1

$$$$
