CCc1ccc(-c2c[nH]c(N[C@@H](Cc3ccnn3C)c3ccc(C)cc3)[nH+]2)cc1
     RDKit          3D

 57 60  0  0  1  0  0  0  0  0999 V2000
  129.9664  128.7588  151.1964 C   0  0  0  0  0  0  0  0  0  0  0  0
  131.1427  129.6654  151.5640 C   0  0  0  0  0  0  0  0  0  0  0  0
  130.8344  130.3931  152.8472 C   0  0  0  0  0  0  0  0  0  0  0  0
  131.1884  129.8308  154.0599 C   0  0  0  0  0  0  0  0  0  0  0  0
  130.9137  130.4952  155.2381 C   0  0  0  0  0  0  0  0  0  0  0  0
  130.2681  131.7298  155.2045 C   0  0  0  0  0  0  0  0  0  0  0  0
  129.9651  132.4461  156.4676 C   0  0  0  0  0  0  0  0  0  0  0  0
  129.1948  131.9827  157.4829 C   0  0  0  0  0  0  0  0  0  0  0  0
  129.1800  132.9586  158.4495 N   0  0  0  0  0  0  0  0  0  0  0  0
  128.7122  132.9194  159.2984 H   0  0  0  0  0  0  0  0  0  0  0  0
  129.9425  133.9908  157.9963 C   0  0  0  0  0  0  0  0  0  0  0  0
  130.1843  135.1731  158.6746 N   0  0  0  0  0  0  0  0  0  0  0  0
  130.2044  135.1864  160.1395 C   0  0  1  0  0  0  0  0  0  0  0  0
  129.4088  134.5456  160.5195 H   0  0  0  0  0  0  0  0  0  0  0  0
  131.5564  134.6700  160.6357 C   0  0  0  0  0  0  0  0  0  0  0  0
  131.5684  133.1639  160.5840 C   0  0  0  0  0  0  0  0  0  0  0  0
  131.9695  132.4048  159.5382 C   0  0  0  0  0  0  0  0  0  0  0  0
  131.8232  131.0616  159.9002 C   0  0  0  0  0  0  0  0  0  0  0  0
  131.3511  131.0161  161.1196 N   0  0  0  0  0  0  0  0  0  0  0  0
  131.1867  132.3308  161.5746 N   0  0  0  0  0  0  0  0  0  0  0  0
  130.6857  132.7306  162.8920 C   0  0  0  0  0  0  0  0  0  0  0  0
  129.9932  136.5950  160.6319 C   0  0  0  0  0  0  0  0  0  0  0  0
  130.8823  137.5920  160.2766 C   0  0  0  0  0  0  0  0  0  0  0  0
  130.6863  138.8849  160.7247 C   0  0  0  0  0  0  0  0  0  0  0  0
  129.6059  139.1790  161.5356 C   0  0  0  0  0  0  0  0  0  0  0  0
  129.3942  140.5876  162.0273 C   0  0  0  0  0  0  0  0  0  0  0  0
  128.7198  138.1808  161.8952 C   0  0  0  0  0  0  0  0  0  0  0  0
  128.9135  136.8888  161.4435 C   0  0  0  0  0  0  0  0  0  0  0  0
  130.4147  133.6784  156.8142 N   0  0  0  0  0  0  0  0  0  0  0  0
  130.9914  134.2396  156.2726 H   0  0  0  0  0  0  0  0  0  0  0  0
  129.9085  132.2893  153.9796 C   0  0  0  0  0  0  0  0  0  0  0  0
  130.1933  131.6187  152.8075 C   0  0  0  0  0  0  0  0  0  0  0  0
  130.1894  128.2327  150.2683 H   0  0  0  0  0  0  0  0  0  0  0  0
  129.8034  128.0346  151.9945 H   0  0  0  0  0  0  0  0  0  0  0  0
  129.0688  129.3630  151.0651 H   0  0  0  0  0  0  0  0  0  0  0  0
  132.0402  129.0619  151.6949 H   0  0  0  0  0  0  0  0  0  0  0  0
  131.3056  130.3903  150.7655 H   0  0  0  0  0  0  0  0  0  0  0  0
  131.6844  128.8718  154.0850 H   0  0  0  0  0  0  0  0  0  0  0  0
  131.1948  130.0572  156.1844 H   0  0  0  0  0  0  0  0  0  0  0  0
  128.6894  131.0291  157.5235 H   0  0  0  0  0  0  0  0  0  0  0  0
  130.3406  135.9928  158.1799 H   0  0  0  0  0  0  0  0  0  0  0  0
  132.3504  135.0617  160.0000 H   0  0  0  0  0  0  0  0  0  0  0  0
  131.7166  134.9997  161.6622 H   0  0  0  0  0  0  0  0  0  0  0  0
  132.3381  132.7711  158.5914 H   0  0  0  0  0  0  0  0  0  0  0  0
  132.0596  130.2093  159.2804 H   0  0  0  0  0  0  0  0  0  0  0  0
  129.6014  132.8341  162.8523 H   0  0  0  0  0  0  0  0  0  0  0  0
  130.9516  131.9714  163.6275 H   0  0  0  0  0  0  0  0  0  0  0  0
  131.1315  133.6838  163.1762 H   0  0  0  0  0  0  0  0  0  0  0  0
  131.7284  137.3616  159.6460 H   0  0  0  0  0  0  0  0  0  0  0  0
  131.3784  139.6648  160.4435 H   0  0  0  0  0  0  0  0  0  0  0  0
  129.9112  140.7225  162.9774 H   0  0  0  0  0  0  0  0  0  0  0  0
  129.7902  141.2914  161.2951 H   0  0  0  0  0  0  0  0  0  0  0  0
  128.3281  140.7680  162.1651 H   0  0  0  0  0  0  0  0  0  0  0  0
  127.8758  138.4106  162.5287 H   0  0  0  0  0  0  0  0  0  0  0  0
  128.2210  136.1091  161.7244 H   0  0  0  0  0  0  0  0  0  0  0  0
  129.4078  133.2457  153.9478 H   0  0  0  0  0  0  0  0  0  0  0  0
  129.9149  132.0511  151.8578 H   0  0  0  0  0  0  0  0  0  0  0  0
  1  2  1  0
  1 33  1  0
  1 34  1  0
  1 35  1  0
  2  3  1  0
  2 36  1  0
  2 37  1  0
  3 32  2  0
  3  4  1  0
  4  5  2  0
  4 38  1  0
  5  6  1  0
  5 39  1  0
  6  7  1  0
  6 31  2  0
  7 29  1  0
  7  8  2  0
  8  9  1  0
  8 40  1  0
  9 10  1  0
  9 11  1  0
 11 12  1  0
 11 29  2  0
 12 13  1  0
 12 41  1  0
 13 14  1  1
 13 15  1  0
 13 22  1  0
 15 16  1  0
 15 42  1  0
 15 43  1  0
 16 20  1  0
 16 17  2  0
 17 18  1  0
 17 44  1  0
 18 19  2  0
 18 45  1  0
 19 20  1  0
 20 21  1  0
 21 46  1  0
 21 47  1  0
 21 48  1  0
 22 28  1  0
 22 23  2  0
 23 24  1  0
 23 49  1  0
 24 25  2  0
 24 50  1  0
 25 26  1  0
 25 27  1  0
 26 51  1  0
 26 52  1  0
 26 53  1  0
 27 28  2  0
 27 54  1  0
 28 55  1  0
 29 30  1  0
 31 32  1  0
 31 56  1  0
 32 57  1  0
M  CHG  1  29   1
M  END
>  <DOCK_score>  (1) 
-62.297085

>  <SMILES>  (1) 
CCc1ccc(-c2c[nH]c(N[C@@H](Cc3ccnn3C)c3ccc(C)cc3)[nH+]2)cc1

$$$$
