C[C@H](Nc1[nH]cc(-c2ccc(C(F)(F)F)cc2)[nH+]1)c1ccc(Nc2ccc(N)cc2)o1
     RDKit          3D

 52 55  0  0  1  0  0  0  0  0999 V2000
  130.4503  132.1536  155.5715 C   0  0  0  0  0  0  0  0  0  0  0  0
  129.5425  132.8677  156.5750 C   0  0  2  0  0  0  0  0  0  0  0  0
  128.6024  133.1316  156.0907 H   0  0  0  0  0  0  0  0  0  0  0  0
  130.2042  134.0845  157.0525 N   0  0  0  0  0  0  0  0  0  0  0  0
  129.5708  134.9006  157.9739 C   0  0  0  0  0  0  0  0  0  0  0  0
  128.3414  134.6806  158.5148 N   0  0  0  0  0  0  0  0  0  0  0  0
  127.7563  133.9306  158.3255 H   0  0  0  0  0  0  0  0  0  0  0  0
  128.0818  135.7173  159.3779 C   0  0  0  0  0  0  0  0  0  0  0  0
  129.1590  136.5402  159.3398 C   0  0  0  0  0  0  0  0  0  0  0  0
  129.3269  137.7948  160.1133 C   0  0  0  0  0  0  0  0  0  0  0  0
  130.0967  138.8363  159.5983 C   0  0  0  0  0  0  0  0  0  0  0  0
  130.2445  140.0036  160.3196 C   0  0  0  0  0  0  0  0  0  0  0  0
  129.6398  140.1365  161.5567 C   0  0  0  0  0  0  0  0  0  0  0  0
  129.8103  141.4110  162.3424 C   0  0  0  0  0  0  0  0  0  0  0  0
  130.6137  142.3001  161.6203 F   0  0  0  0  0  0  0  0  0  0  0  0
  128.5574  141.9917  162.5669 F   0  0  0  0  0  0  0  0  0  0  0  0
  130.4182  141.1246  163.5696 F   0  0  0  0  0  0  0  0  0  0  0  0
  128.8797  139.1037  162.0754 C   0  0  0  0  0  0  0  0  0  0  0  0
  128.7200  137.9343  161.3602 C   0  0  0  0  0  0  0  0  0  0  0  0
  130.0585  136.0098  158.4735 N   0  0  0  0  0  0  0  0  0  0  0  0
  130.9236  136.3915  158.2572 H   0  0  0  0  0  0  0  0  0  0  0  0
  129.2674  131.9546  157.7419 C   0  0  0  0  0  0  0  0  0  0  0  0
  130.0974  131.0051  158.2084 C   0  0  0  0  0  0  0  0  0  0  0  0
  129.4494  130.3952  159.3071 C   0  0  0  0  0  0  0  0  0  0  0  0
  128.2496  131.0077  159.4423 C   0  0  0  0  0  0  0  0  0  0  0  0
  127.2870  130.7131  160.4043 N   0  0  0  0  0  0  0  0  0  0  0  0
  126.4293  131.7180  160.8669 C   0  0  0  0  0  0  0  0  0  0  0  0
  125.0557  131.5857  160.7090 C   0  0  0  0  0  0  0  0  0  0  0  0
  124.2098  132.5768  161.1658 C   0  0  0  0  0  0  0  0  0  0  0  0
  124.7325  133.7061  161.7827 C   0  0  0  0  0  0  0  0  0  0  0  0
  123.8749  134.7109  162.2453 N   0  0  0  0  0  0  0  0  0  0  0  0
  126.1057  133.8381  161.9410 C   0  0  0  0  0  0  0  0  0  0  0  0
  126.9517  132.8472  161.4843 C   0  0  0  0  0  0  0  0  0  0  0  0
  128.1496  131.9528  158.4920 O   0  0  0  0  0  0  0  0  0  0  0  0
  129.9580  131.2484  155.2164 H   0  0  0  0  0  0  0  0  0  0  0  0
  130.6492  132.8141  154.7276 H   0  0  0  0  0  0  0  0  0  0  0  0
  131.3904  131.8898  156.0560 H   0  0  0  0  0  0  0  0  0  0  0  0
  131.0860  134.3181  156.7230 H   0  0  0  0  0  0  0  0  0  0  0  0
  127.1906  135.8512  159.9729 H   0  0  0  0  0  0  0  0  0  0  0  0
  130.5732  138.7317  158.6348 H   0  0  0  0  0  0  0  0  0  0  0  0
  130.8368  140.8132  159.9194 H   0  0  0  0  0  0  0  0  0  0  0  0
  128.4098  139.2129  163.0416 H   0  0  0  0  0  0  0  0  0  0  0  0
  128.1263  137.1286  161.7661 H   0  0  0  0  0  0  0  0  0  0  0  0
  131.0743  130.7577  157.8199 H   0  0  0  0  0  0  0  0  0  0  0  0
  129.8363  129.5942  159.9196 H   0  0  0  0  0  0  0  0  0  0  0  0
  127.2108  129.8115  160.7539 H   0  0  0  0  0  0  0  0  0  0  0  0
  124.6496  130.7100  160.2250 H   0  0  0  0  0  0  0  0  0  0  0  0
  123.1417  132.4742  161.0428 H   0  0  0  0  0  0  0  0  0  0  0  0
  124.2396  135.4993  162.6765 H   0  0  0  0  0  0  0  0  0  0  0  0
  122.9154  134.6186  162.1347 H   0  0  0  0  0  0  0  0  0  0  0  0
  126.5119  134.7160  162.4211 H   0  0  0  0  0  0  0  0  0  0  0  0
  128.0198  132.9501  161.6069 H   0  0  0  0  0  0  0  0  0  0  0  0
  1  2  1  0
  1 35  1  0
  1 36  1  0
  1 37  1  0
  2  3  1  6
  2  4  1  0
  2 22  1  0
  4 38  1  0
  5  4  1  0
  5 20  2  0
  5  6  1  0
  6  7  1  0
  6  8  1  0
  8  9  2  0
  8 39  1  0
  9 10  1  0
  9 20  1  0
 10 19  1  0
 10 11  2  0
 11 12  1  0
 11 40  1  0
 12 13  2  0
 12 41  1  0
 13 14  1  0
 13 18  1  0
 14 15  1  0
 14 16  1  0
 14 17  1  0
 18 19  2  0
 18 42  1  0
 19 43  1  0
 20 21  1  0
 22 34  1  0
 22 23  2  0
 23 24  1  0
 23 44  1  0
 24 25  2  0
 24 45  1  0
 25 26  1  0
 25 34  1  0
 26 27  1  0
 26 46  1  0
 27 33  1  0
 27 28  2  0
 28 29  1  0
 28 47  1  0
 29 30  2  0
 29 48  1  0
 30 31  1  0
 30 32  1  0
 31 49  1  0
 31 50  1  0
 32 33  2  0
 32 51  1  0
 33 52  1  0
M  CHG  1  20   1
M  END
>  <DOCK_score>  (1) 
-48.939533

>  <SMILES>  (1) 
C[C@H](Nc1[nH]cc(-c2ccc(C(F)(F)F)cc2)[nH+]1)c1ccc(Nc2ccc(N)cc2)o1

$$$$
