O=C1CC[C@H](NC(NC2CC2)=[NH+][C@H]2COc3ccc(-c4ccccc4)cc3C2)CN1
     RDKit          3D

 59 63  0  0  1  0  0  0  0  0999 V2000
  123.8676  133.6350  161.8342 O   0  0  0  0  0  0  0  0  0  0  0  0
  125.0159  133.8724  161.5240 C   0  0  0  0  0  0  0  0  0  0  0  0
  125.8725  132.7352  161.0460 C   0  0  0  0  0  0  0  0  0  0  0  0
  127.3500  133.1273  161.1249 C   0  0  0  0  0  0  0  0  0  0  0  0
  127.5221  134.5027  160.4690 C   0  0  2  0  0  0  0  0  0  0  0  0
  127.0827  134.4898  159.4716 H   0  0  0  0  0  0  0  0  0  0  0  0
  128.9477  134.8269  160.3737 N   0  0  0  0  0  0  0  0  0  0  0  0
  129.6625  134.4622  159.2575 C   0  0  0  0  0  0  0  0  0  0  0  0
  129.0396  133.7934  158.2305 N   0  0  0  0  0  0  0  0  0  0  0  0
  129.8014  133.4048  157.0410 C   0  0  0  0  0  0  0  0  0  0  0  0
  129.2406  132.2689  156.1828 C   0  0  0  0  0  0  0  0  0  0  0  0
  130.4774  132.0322  157.0522 C   0  0  0  0  0  0  0  0  0  0  0  0
  130.9308  134.7507  159.1727 N   0  0  0  0  0  0  0  0  0  0  0  0
  131.3354  134.9090  158.3054 H   0  0  0  0  0  0  0  0  0  0  0  0
  131.7454  134.8357  160.3874 C   0  0  1  0  0  0  0  0  0  0  0  0
  131.1260  134.6292  161.2603 H   0  0  0  0  0  0  0  0  0  0  0  0
  132.8913  133.8183  160.3139 C   0  0  0  0  0  0  0  0  0  0  0  0
  133.6036  133.8514  161.5513 O   0  0  0  0  0  0  0  0  0  0  0  0
  133.9825  135.0638  162.0338 C   0  0  0  0  0  0  0  0  0  0  0  0
  134.9650  135.1055  163.0202 C   0  0  0  0  0  0  0  0  0  0  0  0
  135.3743  136.3110  163.5450 C   0  0  0  0  0  0  0  0  0  0  0  0
  134.8026  137.4969  163.0866 C   0  0  0  0  0  0  0  0  0  0  0  0
  135.2377  138.7994  163.6481 C   0  0  0  0  0  0  0  0  0  0  0  0
  135.2010  139.9480  162.8598 C   0  0  0  0  0  0  0  0  0  0  0  0
  135.6024  141.1578  163.3888 C   0  0  0  0  0  0  0  0  0  0  0  0
  136.0509  141.2297  164.6953 C   0  0  0  0  0  0  0  0  0  0  0  0
  136.0940  140.0918  165.4807 C   0  0  0  0  0  0  0  0  0  0  0  0
  135.6901  138.8776  164.9638 C   0  0  0  0  0  0  0  0  0  0  0  0
  133.8220  137.4539  162.0993 C   0  0  0  0  0  0  0  0  0  0  0  0
  133.4150  136.2410  161.5747 C   0  0  0  0  0  0  0  0  0  0  0  0
  132.3529  136.2357  160.5043 C   0  0  0  0  0  0  0  0  0  0  0  0
  126.8139  135.5509  161.3282 C   0  0  0  0  0  0  0  0  0  0  0  0
  125.4500  135.1292  161.6253 N   0  0  0  0  0  0  0  0  0  0  0  0
  125.6156  132.4975  160.0137 H   0  0  0  0  0  0  0  0  0  0  0  0
  125.6960  131.8608  161.6724 H   0  0  0  0  0  0  0  0  0  0  0  0
  127.9541  132.3903  160.5958 H   0  0  0  0  0  0  0  0  0  0  0  0
  127.6614  133.1769  162.1683 H   0  0  0  0  0  0  0  0  0  0  0  0
  129.3871  135.2988  161.0982 H   0  0  0  0  0  0  0  0  0  0  0  0
  128.0957  133.5785  158.2934 H   0  0  0  0  0  0  0  0  0  0  0  0
  130.3178  134.2159  156.5278 H   0  0  0  0  0  0  0  0  0  0  0  0
  128.3051  131.8107  156.5034 H   0  0  0  0  0  0  0  0  0  0  0  0
  129.3881  132.3326  155.1048 H   0  0  0  0  0  0  0  0  0  0  0  0
  131.4383  131.9402  156.5459 H   0  0  0  0  0  0  0  0  0  0  0  0
  130.3555  131.4184  157.9446 H   0  0  0  0  0  0  0  0  0  0  0  0
  132.4859  132.8198  160.1503 H   0  0  0  0  0  0  0  0  0  0  0  0
  133.5629  134.0803  159.4965 H   0  0  0  0  0  0  0  0  0  0  0  0
  135.4084  134.1870  163.3754 H   0  0  0  0  0  0  0  0  0  0  0  0
  136.1362  136.3377  164.3101 H   0  0  0  0  0  0  0  0  0  0  0  0
  134.8554  139.8922  161.8382 H   0  0  0  0  0  0  0  0  0  0  0  0
  135.5704  142.0495  162.7802 H   0  0  0  0  0  0  0  0  0  0  0  0
  136.3683  142.1777  165.1039 H   0  0  0  0  0  0  0  0  0  0  0  0
  136.4448  140.1537  166.5004 H   0  0  0  0  0  0  0  0  0  0  0  0
  135.7248  137.9897  165.5777 H   0  0  0  0  0  0  0  0  0  0  0  0
  133.3778  138.3711  161.7418 H   0  0  0  0  0  0  0  0  0  0  0  0
  132.7980  136.5188  159.5504 H   0  0  0  0  0  0  0  0  0  0  0  0
  131.5716  136.9493  160.7660 H   0  0  0  0  0  0  0  0  0  0  0  0
  127.3604  135.6798  162.2625 H   0  0  0  0  0  0  0  0  0  0  0  0
  126.7921  136.5002  160.7932 H   0  0  0  0  0  0  0  0  0  0  0  0
  124.8180  135.8067  161.9122 H   0  0  0  0  0  0  0  0  0  0  0  0
  1  2  2  0
  2 33  1  0
  2  3  1  0
  3  4  1  0
  3 34  1  0
  3 35  1  0
  4  5  1  0
  4 36  1  0
  4 37  1  0
  5  6  1  6
  5  7  1  0
  5 32  1  0
  7 38  1  0
  8  7  1  0
  8  9  1  0
  8 13  2  0
  9 10  1  0
  9 39  1  0
 10 12  1  0
 10 11  1  0
 10 40  1  0
 11 12  1  0
 11 41  1  0
 11 42  1  0
 12 43  1  0
 12 44  1  0
 13 14  1  0
 13 15  1  0
 15 16  1  1
 15 31  1  0
 15 17  1  0
 17 18  1  0
 17 45  1  0
 17 46  1  0
 18 19  1  0
 19 30  2  0
 19 20  1  0
 20 21  2  0
 20 47  1  0
 21 22  1  0
 21 48  1  0
 22 23  1  0
 22 29  2  0
 23 28  1  0
 23 24  2  0
 24 25  1  0
 24 49  1  0
 25 26  2  0
 25 50  1  0
 26 27  1  0
 26 51  1  0
 27 28  2  0
 27 52  1  0
 28 53  1  0
 29 30  1  0
 29 54  1  0
 30 31  1  0
 31 55  1  0
 31 56  1  0
 32 33  1  0
 32 57  1  0
 32 58  1  0
 33 59  1  0
M  CHG  1  13   1
M  END
>  <DOCK_score>  (1) 
-51.068695

>  <SMILES>  (1) 
O=C1CC[C@H](NC(NC2CC2)=[NH+][C@H]2COc3ccc(-c4ccccc4)cc3C2)CN1

$$$$
