Oc1cccc(N[C@H]2C=C([NH+]3CCC3C3CC3)CC2)c1
     RDKit          3D

 43 46  0  0  1  0  0  0  0  0999 V2000
  123.6670  134.6226  161.6553 O   0  0  0  0  0  0  0  0  0  0  0  0
  124.5502  133.8039  161.0257 C   0  0  0  0  0  0  0  0  0  0  0  0
  124.1778  132.5104  160.6862 C   0  0  0  0  0  0  0  0  0  0  0  0
  125.0743  131.6770  160.0453 C   0  0  0  0  0  0  0  0  0  0  0  0
  126.3444  132.1274  159.7410 C   0  0  0  0  0  0  0  0  0  0  0  0
  126.7230  133.4208  160.0788 C   0  0  0  0  0  0  0  0  0  0  0  0
  128.0071  133.8763  159.7718 N   0  0  0  0  0  0  0  0  0  0  0  0
  128.6503  134.8818  160.6211 C   0  0  1  0  0  0  0  0  0  0  0  0
  128.4418  134.6799  161.6717 H   0  0  0  0  0  0  0  0  0  0  0  0
  130.1411  134.9031  160.3750 C   0  0  0  0  0  0  0  0  0  0  0  0
  130.5829  136.1269  160.2720 C   0  0  0  0  0  0  0  0  0  0  0  0
  131.9192  136.4685  160.0439 N   0  0  2  0  0  0  0  0  0  0  0  0
  132.1452  136.5421  159.0632 H   0  0  0  0  0  0  0  0  0  0  0  0
  132.8741  135.6420  160.8052 C   0  0  0  0  0  0  0  0  0  0  0  0
  133.7184  136.9073  161.0128 C   0  0  0  0  0  0  0  0  0  0  0  0
  132.3727  137.6252  160.8385 C   0  0  1  0  0  0  0  0  0  0  0  0
  132.4728  138.9195  160.0287 C   0  0  0  0  0  0  0  0  0  0  0  0
  133.7855  139.7017  160.1065 C   0  0  0  0  0  0  0  0  0  0  0  0
  133.4268  138.9325  158.8327 C   0  0  0  0  0  0  0  0  0  0  0  0
  129.4616  137.1261  160.4381 C   0  0  0  0  0  0  0  0  0  0  0  0
  128.1682  136.2999  160.2366 C   0  0  0  0  0  0  0  0  0  0  0  0
  125.8250  134.2579  160.7271 C   0  0  0  0  0  0  0  0  0  0  0  0
  124.0180  135.5013  161.8542 H   0  0  0  0  0  0  0  0  0  0  0  0
  123.1857  132.1552  160.9229 H   0  0  0  0  0  0  0  0  0  0  0  0
  124.7816  130.6712  159.7820 H   0  0  0  0  0  0  0  0  0  0  0  0
  127.0432  131.4740  159.2400 H   0  0  0  0  0  0  0  0  0  0  0  0
  128.4730  133.5268  158.9961 H   0  0  0  0  0  0  0  0  0  0  0  0
  130.7595  134.0214  160.2944 H   0  0  0  0  0  0  0  0  0  0  0  0
  132.4596  135.2400  161.7298 H   0  0  0  0  0  0  0  0  0  0  0  0
  133.3698  134.8826  160.2005 H   0  0  0  0  0  0  0  0  0  0  0  0
  134.4346  137.1017  160.2146 H   0  0  0  0  0  0  0  0  0  0  0  0
  134.1471  136.9989  162.0107 H   0  0  0  0  0  0  0  0  0  0  0  0
  131.8237  137.7532  161.7715 H   0  0  0  0  0  0  0  0  0  0  0  0
  131.5497  139.4927  159.9424 H   0  0  0  0  0  0  0  0  0  0  0  0
  133.7260  140.7895  160.0715 H   0  0  0  0  0  0  0  0  0  0  0  0
  134.5777  139.2940  160.7343 H   0  0  0  0  0  0  0  0  0  0  0  0
  133.9834  138.0190  158.6229 H   0  0  0  0  0  0  0  0  0  0  0  0
  133.1315  139.5142  157.9595 H   0  0  0  0  0  0  0  0  0  0  0  0
  129.4855  137.5609  161.4374 H   0  0  0  0  0  0  0  0  0  0  0  0
  129.5338  137.9071  159.6813 H   0  0  0  0  0  0  0  0  0  0  0  0
  127.8364  136.3322  159.1988 H   0  0  0  0  0  0  0  0  0  0  0  0
  127.3804  136.6407  160.9083 H   0  0  0  0  0  0  0  0  0  0  0  0
  126.1179  135.2624  160.9945 H   0  0  0  0  0  0  0  0  0  0  0  0
  1  2  1  0
  1 23  1  0
  2 22  2  0
  2  3  1  0
  3  4  2  0
  3 24  1  0
  4  5  1  0
  4 25  1  0
  5  6  2  0
  5 26  1  0
  6  7  1  0
  6 22  1  0
  7  8  1  0
  7 27  1  0
  8  9  1  1
  8 21  1  0
  8 10  1  0
 10 11  2  0
 10 28  1  0
 11 12  1  0
 11 20  1  0
 12 13  1  6
 12 16  1  0
 12 14  1  0
 14 15  1  0
 14 29  1  0
 14 30  1  0
 15 16  1  0
 15 31  1  0
 15 32  1  0
 16 17  1  0
 16 33  1  1
 17 19  1  0
 17 18  1  0
 17 34  1  0
 18 19  1  0
 18 35  1  0
 18 36  1  0
 19 37  1  0
 19 38  1  0
 20 21  1  0
 20 39  1  0
 20 40  1  0
 21 41  1  0
 21 42  1  0
 22 43  1  0
M  CHG  1  12   1
M  END
>  <DOCK_score>  (1) 
-43.273232

>  <SMILES>  (1) 
Oc1cccc(N[C@H]2C=C([NH+]3CCC3C3CC3)CC2)c1

$$$$
