C(#CC[NH2+]CC1=CCCCC1)CNCc1c[nH]nc1-c1ccccc1
     RDKit          3D

 52 54  0  0  0  0  0  0  0  0999 V2000
  128.3595  136.8306  161.1503 C   0  0  0  0  0  0  0  0  0  0  0  0
  128.8180  136.7583  160.0720 C   0  0  0  0  0  0  0  0  0  0  0  0
  129.3931  136.6676  158.7201 C   0  0  0  0  0  0  0  0  0  0  0  0
  130.0848  135.3807  158.5674 N   0  0  0  0  0  0  0  0  0  0  0  0
  130.8228  135.3121  159.2520 H   0  0  0  0  0  0  0  0  0  0  0  0
  130.4790  135.3185  157.6406 H   0  0  0  0  0  0  0  0  0  0  0  0
  129.1281  134.2840  158.7672 C   0  0  0  0  0  0  0  0  0  0  0  0
  129.8377  132.9636  158.6105 C   0  0  0  0  0  0  0  0  0  0  0  0
  130.4069  132.7113  157.4757 C   0  0  0  0  0  0  0  0  0  0  0  0
  131.1351  131.4364  157.1654 C   0  0  0  0  0  0  0  0  0  0  0  0
  131.4728  130.6938  158.4600 C   0  0  0  0  0  0  0  0  0  0  0  0
  130.2028  130.6090  159.3161 C   0  0  0  0  0  0  0  0  0  0  0  0
  129.8354  132.0207  159.7780 C   0  0  0  0  0  0  0  0  0  0  0  0
  127.7845  136.9212  162.5024 C   0  0  0  0  0  0  0  0  0  0  0  0
  127.0928  138.2082  162.6550 N   0  0  0  0  0  0  0  0  0  0  0  0
  126.9227  138.5494  164.0737 C   0  0  0  0  0  0  0  0  0  0  0  0
  126.2110  139.8727  164.1903 C   0  0  0  0  0  0  0  0  0  0  0  0
  124.8740  140.0537  164.2551 C   0  0  0  0  0  0  0  0  0  0  0  0
  124.6373  141.3794  164.3560 N   0  0  0  0  0  0  0  0  0  0  0  0
  123.7650  141.7985  164.4212 H   0  0  0  0  0  0  0  0  0  0  0  0
  125.8701  142.0445  164.3445 N   0  0  0  0  0  0  0  0  0  0  0  0
  126.8216  141.1407  164.2447 C   0  0  0  0  0  0  0  0  0  0  0  0
  128.2804  141.4102  164.1973 C   0  0  0  0  0  0  0  0  0  0  0  0
  129.0198  141.4655  165.3767 C   0  0  0  0  0  0  0  0  0  0  0  0
  130.3771  141.7114  165.3264 C   0  0  0  0  0  0  0  0  0  0  0  0
  131.0012  141.9134  164.1085 C   0  0  0  0  0  0  0  0  0  0  0  0
  130.2708  141.8653  162.9350 C   0  0  0  0  0  0  0  0  0  0  0  0
  128.9141  141.6145  162.9733 C   0  0  0  0  0  0  0  0  0  0  0  0
  130.1029  137.4813  158.5718 H   0  0  0  0  0  0  0  0  0  0  0  0
  128.5958  136.7417  157.9804 H   0  0  0  0  0  0  0  0  0  0  0  0
  128.3309  134.3579  158.0276 H   0  0  0  0  0  0  0  0  0  0  0  0
  128.7023  134.3510  159.7684 H   0  0  0  0  0  0  0  0  0  0  0  0
  130.3539  133.4650  156.7040 H   0  0  0  0  0  0  0  0  0  0  0  0
  132.0564  131.6677  156.6306 H   0  0  0  0  0  0  0  0  0  0  0  0
  130.5056  130.8038  156.5396 H   0  0  0  0  0  0  0  0  0  0  0  0
  132.2454  131.2378  159.0036 H   0  0  0  0  0  0  0  0  0  0  0  0
  131.8242  129.6891  158.2251 H   0  0  0  0  0  0  0  0  0  0  0  0
  130.3875  129.9760  160.1839 H   0  0  0  0  0  0  0  0  0  0  0  0
  129.3881  130.1939  158.7227 H   0  0  0  0  0  0  0  0  0  0  0  0
  130.5611  132.3593  160.5173 H   0  0  0  0  0  0  0  0  0  0  0  0
  128.8424  132.0047  160.2274 H   0  0  0  0  0  0  0  0  0  0  0  0
  127.0746  136.1073  162.6507 H   0  0  0  0  0  0  0  0  0  0  0  0
  128.5816  136.8472  163.2420 H   0  0  0  0  0  0  0  0  0  0  0  0
  126.2049  138.2004  162.1759 H   0  0  0  0  0  0  0  0  0  0  0  0
  126.3334  137.7754  164.5654 H   0  0  0  0  0  0  0  0  0  0  0  0
  127.9005  138.6194  164.5503 H   0  0  0  0  0  0  0  0  0  0  0  0
  124.1259  139.2751  164.2323 H   0  0  0  0  0  0  0  0  0  0  0  0
  128.5328  141.3121  166.3283 H   0  0  0  0  0  0  0  0  0  0  0  0
  130.9522  141.7497  166.2397 H   0  0  0  0  0  0  0  0  0  0  0  0
  132.0628  142.1092  164.0740 H   0  0  0  0  0  0  0  0  0  0  0  0
  130.7631  142.0238  161.9868 H   0  0  0  0  0  0  0  0  0  0  0  0
  128.3449  141.5764  162.0564 H   0  0  0  0  0  0  0  0  0  0  0  0
  1  2  3  0
  1 14  1  0
  2  3  1  0
  3  4  1  0
  3 29  1  0
  3 30  1  0
  4  5  1  0
  4  6  1  0
  4  7  1  0
  7  8  1  0
  7 31  1  0
  7 32  1  0
  8 13  1  0
  8  9  2  0
  9 10  1  0
  9 33  1  0
 10 11  1  0
 10 34  1  0
 10 35  1  0
 11 12  1  0
 11 36  1  0
 11 37  1  0
 12 13  1  0
 12 38  1  0
 12 39  1  0
 13 40  1  0
 13 41  1  0
 14 15  1  0
 14 42  1  0
 14 43  1  0
 15 16  1  0
 15 44  1  0
 16 17  1  0
 16 45  1  0
 16 46  1  0
 17 22  1  0
 17 18  2  0
 18 19  1  0
 18 47  1  0
 19 20  1  0
 19 21  1  0
 21 22  2  0
 22 23  1  0
 23 28  1  0
 23 24  2  0
 24 25  1  0
 24 48  1  0
 25 26  2  0
 25 49  1  0
 26 27  1  0
 26 50  1  0
 27 28  2  0
 27 51  1  0
 28 52  1  0
M  CHG  1   4   1
M  END
>  <DOCK_score>  (1) 
-41.173992

>  <SMILES>  (1) 
C(#CC[NH2+]CC1=CCCCC1)CNCc1c[nH]nc1-c1ccccc1

$$$$
