Cc1ccc(C(CS(=O)(=O)F)N2CC[NH+](C(C)C[C@H]3C=CCC3)CC2)cc1
     RDKit          3D

 59 61  0  0  1  0  0  0  0  0999 V2000
  131.1148  132.0419  154.6795 C   0  0  0  0  0  0  0  0  0  0  0  0
  130.5310  132.5200  155.9839 C   0  0  0  0  0  0  0  0  0  0  0  0
  129.4198  133.3424  155.9836 C   0  0  0  0  0  0  0  0  0  0  0  0
  128.8836  133.7803  157.1801 C   0  0  0  0  0  0  0  0  0  0  0  0
  129.4590  133.3963  158.3770 C   0  0  0  0  0  0  0  0  0  0  0  0
  128.8749  133.8741  159.6814 C   0  0  2  0  0  0  0  0  0  0  0  0
  127.3684  134.0856  159.5183 C   0  0  0  0  0  0  0  0  0  0  0  0
  126.6651  134.6607  161.0886 S   0  0  0  0  0  0  0  0  0  0  0  0
  126.8947  136.0527  161.2575 O   0  0  0  0  0  0  0  0  0  0  0  0
  125.3750  134.1009  161.2918 O   0  0  0  0  0  0  0  0  0  0  0  0
  127.5809  133.9673  162.2167 F   0  0  0  0  0  0  0  0  0  0  0  0
  129.5085  135.1422  160.0664 N   0  0  0  0  0  0  0  0  0  0  0  0
  130.9450  134.9583  160.3176 C   0  0  0  0  0  0  0  0  0  0  0  0
  131.5544  136.2863  160.7725 C   0  0  0  0  0  0  0  0  0  0  0  0
  131.3478  137.3019  159.7316 N   0  0  0  0  0  0  0  0  0  0  0  0
  131.7829  136.9972  158.8738 H   0  0  0  0  0  0  0  0  0  0  0  0
  131.9488  138.5718  160.1611 C   0  0  2  0  0  0  0  0  0  0  0  0
  133.4583  138.5305  159.9150 C   0  0  0  0  0  0  0  0  0  0  0  0
  131.6809  138.7843  161.6524 C   0  0  0  0  0  0  0  0  0  0  0  0
  131.8439  140.2667  161.9937 C   0  0  1  0  0  0  0  0  0  0  0  0
  132.6957  140.6871  161.4591 H   0  0  0  0  0  0  0  0  0  0  0  0
  130.5826  141.0268  161.6551 C   0  0  0  0  0  0  0  0  0  0  0  0
  130.2571  141.8487  162.6154 C   0  0  0  0  0  0  0  0  0  0  0  0
  131.2470  141.7739  163.7546 C   0  0  0  0  0  0  0  0  0  0  0  0
  132.0193  140.4546  163.5216 C   0  0  0  0  0  0  0  0  0  0  0  0
  129.9084  137.4920  159.5097 C   0  0  0  0  0  0  0  0  0  0  0  0
  129.2854  136.1742  159.0440 C   0  0  0  0  0  0  0  0  0  0  0  0
  130.5737  132.5786  158.3772 C   0  0  0  0  0  0  0  0  0  0  0  0
  131.1063  132.1361  157.1808 C   0  0  0  0  0  0  0  0  0  0  0  0
  131.8667  132.7523  154.3358 H   0  0  0  0  0  0  0  0  0  0  0  0
  131.5770  131.0655  154.8246 H   0  0  0  0  0  0  0  0  0  0  0  0
  130.3230  131.9620  153.9346 H   0  0  0  0  0  0  0  0  0  0  0  0
  128.9703  133.6425  155.0485 H   0  0  0  0  0  0  0  0  0  0  0  0
  128.0156  134.4228  157.1799 H   0  0  0  0  0  0  0  0  0  0  0  0
  129.0554  133.1280  160.4553 H   0  0  0  0  0  0  0  0  0  0  0  0
  127.1878  134.8317  158.7445 H   0  0  0  0  0  0  0  0  0  0  0  0
  126.8981  133.1447  159.2327 H   0  0  0  0  0  0  0  0  0  0  0  0
  131.4350  134.6280  159.4016 H   0  0  0  0  0  0  0  0  0  0  0  0
  131.0852  134.2081  161.0958 H   0  0  0  0  0  0  0  0  0  0  0  0
  132.6225  136.1554  160.9457 H   0  0  0  0  0  0  0  0  0  0  0  0
  131.0734  136.6092  161.6958 H   0  0  0  0  0  0  0  0  0  0  0  0
  131.5101  139.3919  159.5926 H   0  0  0  0  0  0  0  0  0  0  0  0
  133.6491  138.3792  158.8526 H   0  0  0  0  0  0  0  0  0  0  0  0
  133.9042  139.4728  160.2336 H   0  0  0  0  0  0  0  0  0  0  0  0
  133.8969  137.7104  160.4834 H   0  0  0  0  0  0  0  0  0  0  0  0
  132.3895  138.1968  162.2363 H   0  0  0  0  0  0  0  0  0  0  0  0
  130.6650  138.4668  161.8878 H   0  0  0  0  0  0  0  0  0  0  0  0
  130.0241  140.9060  160.7387 H   0  0  0  0  0  0  0  0  0  0  0  0
  129.3934  142.4968  162.5982 H   0  0  0  0  0  0  0  0  0  0  0  0
  131.9287  142.6237  163.7216 H   0  0  0  0  0  0  0  0  0  0  0  0
  130.7242  141.7441  164.7105 H   0  0  0  0  0  0  0  0  0  0  0  0
  133.0711  140.5651  163.7857 H   0  0  0  0  0  0  0  0  0  0  0  0
  131.5636  139.6318  164.0725 H   0  0  0  0  0  0  0  0  0  0  0  0
  129.4361  137.8088  160.4396 H   0  0  0  0  0  0  0  0  0  0  0  0
  129.7561  138.2553  158.7466 H   0  0  0  0  0  0  0  0  0  0  0  0
  129.7482  135.8640  158.1071 H   0  0  0  0  0  0  0  0  0  0  0  0
  128.2147  136.3114  158.8932 H   0  0  0  0  0  0  0  0  0  0  0  0
  131.0258  132.2821  159.3120 H   0  0  0  0  0  0  0  0  0  0  0  0
  131.9742  131.4934  157.1809 H   0  0  0  0  0  0  0  0  0  0  0  0
  1  2  1  0
  1 30  1  0
  1 31  1  0
  1 32  1  0
  2 29  2  0
  2  3  1  0
  3  4  2  0
  3 33  1  0
  4  5  1  0
  4 34  1  0
  5  6  1  0
  5 28  2  0
  6  7  1  0
  6 12  1  0
  6 35  1  1
  7  8  1  0
  7 36  1  0
  7 37  1  0
  8  9  2  0
  8 10  2  0
  8 11  1  0
 12 27  1  0
 12 13  1  0
 13 14  1  0
 13 38  1  0
 13 39  1  0
 14 15  1  0
 14 40  1  0
 14 41  1  0
 15 16  1  0
 15 17  1  0
 15 26  1  0
 17 18  1  0
 17 19  1  0
 17 42  1  6
 18 43  1  0
 18 44  1  0
 18 45  1  0
 19 20  1  0
 19 46  1  0
 19 47  1  0
 20 21  1  6
 20 25  1  0
 20 22  1  0
 22 23  2  0
 22 48  1  0
 23 24  1  0
 23 49  1  0
 24 25  1  0
 24 50  1  0
 24 51  1  0
 25 52  1  0
 25 53  1  0
 26 27  1  0
 26 54  1  0
 26 55  1  0
 27 56  1  0
 27 57  1  0
 28 29  1  0
 28 58  1  0
 29 59  1  0
M  CHG  1  15   1
M  END
>  <DOCK_score>  (1) 
-44.652573

>  <SMILES>  (1) 
Cc1ccc(C(CS(=O)(=O)F)N2CC[NH+](C(C)C[C@H]3C=CCC3)CC2)cc1

$$$$
