[NH3+][C@@H](C(=O)Nc1cccc(O)c1)c1cccc(OC2(O)CC(=O)NC(=O)C2)c1
     RDKit          3D

 48 50  0  0  1  0  0  0  0  0999 V2000
  130.6656  133.9511  157.4616 N   0  0  0  0  0  0  0  0  0  0  0  0
  131.5629  134.3635  157.2544 H   0  0  0  0  0  0  0  0  0  0  0  0
  130.7820  132.9651  157.6412 H   0  0  0  0  0  0  0  0  0  0  0  0
  130.0470  134.0790  156.6748 H   0  0  0  0  0  0  0  0  0  0  0  0
  130.0904  134.6003  158.6472 C   0  0  1  0  0  0  0  0  0  0  0  0
  129.9648  135.6655  158.4532 H   0  0  0  0  0  0  0  0  0  0  0  0
  128.7503  133.9845  158.9567 C   0  0  0  0  0  0  0  0  0  0  0  0
  128.3169  133.0926  158.2583 O   0  0  0  0  0  0  0  0  0  0  0  0
  128.0333  134.4249  160.0096 N   0  0  0  0  0  0  0  0  0  0  0  0
  126.7889  133.8532  160.2968 C   0  0  0  0  0  0  0  0  0  0  0  0
  126.5416  132.5255  159.9710 C   0  0  0  0  0  0  0  0  0  0  0  0
  125.3153  131.9594  160.2601 C   0  0  0  0  0  0  0  0  0  0  0  0
  124.3273  132.7151  160.8627 C   0  0  0  0  0  0  0  0  0  0  0  0
  124.5667  134.0434  161.1851 C   0  0  0  0  0  0  0  0  0  0  0  0
  123.5944  134.7852  161.7775 O   0  0  0  0  0  0  0  0  0  0  0  0
  125.7984  134.6133  160.9021 C   0  0  0  0  0  0  0  0  0  0  0  0
  131.0144  134.4094  159.8225 C   0  0  0  0  0  0  0  0  0  0  0  0
  130.8701  133.3052  160.6424 C   0  0  0  0  0  0  0  0  0  0  0  0
  131.7192  133.1248  161.7182 C   0  0  0  0  0  0  0  0  0  0  0  0
  132.7077  134.0531  161.9832 C   0  0  0  0  0  0  0  0  0  0  0  0
  132.8511  135.1642  161.1652 C   0  0  0  0  0  0  0  0  0  0  0  0
  133.8228  136.0785  161.4233 O   0  0  0  0  0  0  0  0  0  0  0  0
  133.4002  137.4185  161.6840 C   0  0  0  0  0  0  0  0  0  0  0  0
  133.3503  138.1527  160.4591 O   0  0  0  0  0  0  0  0  0  0  0  0
  134.3848  138.0904  162.6470 C   0  0  0  0  0  0  0  0  0  0  0  0
  133.8672  139.4579  163.0084 C   0  0  0  0  0  0  0  0  0  0  0  0
  134.6554  140.3342  163.2920 O   0  0  0  0  0  0  0  0  0  0  0  0
  132.5530  139.7268  163.0194 N   0  0  0  0  0  0  0  0  0  0  0  0
  131.6253  138.8097  162.7064 C   0  0  0  0  0  0  0  0  0  0  0  0
  130.4534  139.1191  162.7260 O   0  0  0  0  0  0  0  0  0  0  0  0
  132.0116  137.4032  162.3319 C   0  0  0  0  0  0  0  0  0  0  0  0
  132.0010  135.3403  160.0828 C   0  0  0  0  0  0  0  0  0  0  0  0
  128.3799  135.1382  160.5681 H   0  0  0  0  0  0  0  0  0  0  0  0
  127.3103  131.9342  159.4958 H   0  0  0  0  0  0  0  0  0  0  0  0
  125.1265  130.9258  160.0106 H   0  0  0  0  0  0  0  0  0  0  0  0
  123.3678  132.2711  161.0832 H   0  0  0  0  0  0  0  0  0  0  0  0
  123.8542  135.6979  161.9635 H   0  0  0  0  0  0  0  0  0  0  0  0
  125.9867  135.6469  161.1526 H   0  0  0  0  0  0  0  0  0  0  0  0
  130.0955  132.5807  160.4394 H   0  0  0  0  0  0  0  0  0  0  0  0
  131.6072  132.2595  162.3548 H   0  0  0  0  0  0  0  0  0  0  0  0
  133.3683  133.9135  162.8260 H   0  0  0  0  0  0  0  0  0  0  0  0
  132.6283  137.8898  159.8719 H   0  0  0  0  0  0  0  0  0  0  0  0
  134.4781  137.4888  163.5512 H   0  0  0  0  0  0  0  0  0  0  0  0
  135.3592  138.1815  162.1670 H   0  0  0  0  0  0  0  0  0  0  0  0
  132.2620  140.6195  163.2628 H   0  0  0  0  0  0  0  0  0  0  0  0
  131.2846  137.0016  161.6258 H   0  0  0  0  0  0  0  0  0  0  0  0
  132.0338  136.7810  163.2265 H   0  0  0  0  0  0  0  0  0  0  0  0
  132.1108  136.2044  159.4444 H   0  0  0  0  0  0  0  0  0  0  0  0
  1  2  1  0
  1  3  1  0
  1  4  1  0
  1  5  1  0
  5  6  1  6
  5  7  1  0
  5 17  1  0
  7  8  2  0
  7  9  1  0
  9 10  1  0
  9 33  1  0
 10 16  1  0
 10 11  2  0
 11 12  1  0
 11 34  1  0
 12 13  2  0
 12 35  1  0
 13 14  1  0
 13 36  1  0
 14 15  1  0
 14 16  2  0
 15 37  1  0
 16 38  1  0
 17 32  1  0
 17 18  2  0
 18 19  1  0
 18 39  1  0
 19 20  2  0
 19 40  1  0
 20 21  1  0
 20 41  1  0
 21 22  1  0
 21 32  2  0
 22 23  1  0
 23 31  1  0
 23 24  1  0
 23 25  1  0
 24 42  1  0
 25 26  1  0
 25 43  1  0
 25 44  1  0
 26 27  2  0
 26 28  1  0
 28 29  1  0
 28 45  1  0
 29 30  2  0
 29 31  1  0
 31 46  1  0
 31 47  1  0
 32 48  1  0
M  CHG  1   1   1
M  END
>  <DOCK_score>  (1) 
-44.058876

>  <SMILES>  (1) 
[NH3+][C@@H](C(=O)Nc1cccc(O)c1)c1cccc(OC2(O)CC(=O)NC(=O)C2)c1

$$$$
