FC(F)[C@@H](Nc1[nH]cc(-c2ccc(-c3ccccc3)cc2)[nH+]1)C(Br)Br
     RDKit          3D

 41 43  0  0  1  0  0  0  0  0999 V2000
  129.6884  137.9771  161.9523 F   0  0  0  0  0  0  0  0  0  0  0  0
  130.3395  137.5065  160.8069 C   0  0  0  0  0  0  0  0  0  0  0  0
  131.3430  138.4086  160.4373 F   0  0  0  0  0  0  0  0  0  0  0  0
  130.9641  136.1409  161.1001 C   0  0  1  0  0  0  0  0  0  0  0  0
  130.1822  135.4381  161.3881 H   0  0  0  0  0  0  0  0  0  0  0  0
  131.6459  135.6482  159.9007 N   0  0  0  0  0  0  0  0  0  0  0  0
  131.2533  134.4530  159.3230 C   0  0  0  0  0  0  0  0  0  0  0  0
  130.7240  133.3886  159.9857 N   0  0  0  0  0  0  0  0  0  0  0  0
  130.5556  133.3314  160.9392 H   0  0  0  0  0  0  0  0  0  0  0  0
  130.4724  132.4101  159.0553 C   0  0  0  0  0  0  0  0  0  0  0  0
  130.8549  132.9044  157.8511 C   0  0  0  0  0  0  0  0  0  0  0  0
  130.7689  132.1979  156.5507 C   0  0  0  0  0  0  0  0  0  0  0  0
  130.0038  132.7339  155.5148 C   0  0  0  0  0  0  0  0  0  0  0  0
  129.9244  132.0775  154.3066 C   0  0  0  0  0  0  0  0  0  0  0  0
  130.6088  130.8770  154.1188 C   0  0  0  0  0  0  0  0  0  0  0  0
  130.5228  130.1702  152.8178 C   0  0  0  0  0  0  0  0  0  0  0  0
  130.6339  128.7816  152.7675 C   0  0  0  0  0  0  0  0  0  0  0  0
  130.5487  128.1288  151.5546 C   0  0  0  0  0  0  0  0  0  0  0  0
  130.3633  128.8508  150.3891 C   0  0  0  0  0  0  0  0  0  0  0  0
  130.2578  130.2292  150.4325 C   0  0  0  0  0  0  0  0  0  0  0  0
  130.3365  130.8922  151.6403 C   0  0  0  0  0  0  0  0  0  0  0  0
  131.3694  130.3382  155.1561 C   0  0  0  0  0  0  0  0  0  0  0  0
  131.4533  130.9970  156.3627 C   0  0  0  0  0  0  0  0  0  0  0  0
  131.3354  134.1579  158.0487 N   0  0  0  0  0  0  0  0  0  0  0  0
  131.6820  134.7430  157.3570 H   0  0  0  0  0  0  0  0  0  0  0  0
  131.9738  136.2765  162.2415 C   0  0  0  0  0  0  0  0  0  0  0  0
  132.2949  134.5113  163.0455 Br  0  0  0  0  0  0  0  0  0  0  0  0
  133.6642  136.9940  161.5392 Br  0  0  0  0  0  0  0  0  0  0  0  0
  129.6202  137.4101  159.9938 H   0  0  0  0  0  0  0  0  0  0  0  0
  132.3726  136.1594  159.5114 H   0  0  0  0  0  0  0  0  0  0  0  0
  130.0508  131.4342  159.2457 H   0  0  0  0  0  0  0  0  0  0  0  0
  129.4733  133.6635  155.6602 H   0  0  0  0  0  0  0  0  0  0  0  0
  129.3323  132.4927  153.5043 H   0  0  0  0  0  0  0  0  0  0  0  0
  130.7823  128.2174  153.6763 H   0  0  0  0  0  0  0  0  0  0  0  0
  130.6309  127.0526  151.5147 H   0  0  0  0  0  0  0  0  0  0  0  0
  130.3010  128.3362  149.4416 H   0  0  0  0  0  0  0  0  0  0  0  0
  130.1138  130.7877  149.5194 H   0  0  0  0  0  0  0  0  0  0  0  0
  130.2543  131.9686  151.6730 H   0  0  0  0  0  0  0  0  0  0  0  0
  131.8958  129.4062  155.0120 H   0  0  0  0  0  0  0  0  0  0  0  0
  132.0458  130.5819  157.1646 H   0  0  0  0  0  0  0  0  0  0  0  0
  131.5781  136.9539  162.9982 H   0  0  0  0  0  0  0  0  0  0  0  0
  1  2  1  0
  2  3  1  0
  2  4  1  0
  2 29  1  0
  4  5  1  1
  4  6  1  0
  4 26  1  0
  6 30  1  0
  7  6  1  0
  7 24  2  0
  7  8  1  0
  8  9  1  0
  8 10  1  0
 10 11  2  0
 10 31  1  0
 11 12  1  0
 11 24  1  0
 12 23  1  0
 12 13  2  0
 13 14  1  0
 13 32  1  0
 14 15  2  0
 14 33  1  0
 15 16  1  0
 15 22  1  0
 16 21  1  0
 16 17  2  0
 17 18  1  0
 17 34  1  0
 18 19  2  0
 18 35  1  0
 19 20  1  0
 19 36  1  0
 20 21  2  0
 20 37  1  0
 21 38  1  0
 22 23  2  0
 22 39  1  0
 23 40  1  0
 24 25  1  0
 26 27  1  0
 26 28  1  0
 26 41  1  0
M  CHG  1  24   1
M  END
>  <DOCK_score>  (1) 
-55.998211

>  <SMILES>  (1) 
FC(F)[C@@H](Nc1[nH]cc(-c2ccc(-c3ccccc3)cc2)[nH+]1)C(Br)Br

$$$$
