Cc1cccnc1CNC(N[C@H]1CCC(=O)NC1)=[NH+][C@H]1COc2cc(Cl)ccc2C1
     RDKit          3D

 57 60  0  0  1  0  0  0  0  0999 V2000
  131.2088  131.9083  155.0338 C   0  0  0  0  0  0  0  0  0  0  0  0
  130.9125  131.4245  156.4300 C   0  0  0  0  0  0  0  0  0  0  0  0
  131.3912  130.1976  156.8642 C   0  0  0  0  0  0  0  0  0  0  0  0
  131.0942  129.7934  158.1566 C   0  0  0  0  0  0  0  0  0  0  0  0
  130.3361  130.6208  158.9637 C   0  0  0  0  0  0  0  0  0  0  0  0
  129.9020  131.7837  158.5188 N   0  0  0  0  0  0  0  0  0  0  0  0
  130.1606  132.1978  157.2937 C   0  0  0  0  0  0  0  0  0  0  0  0
  129.6352  133.5328  156.8323 C   0  0  0  0  0  0  0  0  0  0  0  0
  128.8742  134.1593  157.9161 N   0  0  0  0  0  0  0  0  0  0  0  0
  129.4877  134.4399  159.1141 C   0  0  0  0  0  0  0  0  0  0  0  0
  128.7735  135.0277  160.1310 N   0  0  0  0  0  0  0  0  0  0  0  0
  127.3348  134.7799  160.2542 C   0  0  1  0  0  0  0  0  0  0  0  0
  126.8273  135.1154  159.3498 H   0  0  0  0  0  0  0  0  0  0  0  0
  127.0866  133.2804  160.4572 C   0  0  0  0  0  0  0  0  0  0  0  0
  125.5780  133.0276  160.3994 C   0  0  0  0  0  0  0  0  0  0  0  0
  124.8621  134.0021  161.2898 C   0  0  0  0  0  0  0  0  0  0  0  0
  123.7219  133.7500  161.6170 O   0  0  0  0  0  0  0  0  0  0  0  0
  125.4131  135.1301  161.7399 N   0  0  0  0  0  0  0  0  0  0  0  0
  126.7859  135.5354  161.4650 C   0  0  0  0  0  0  0  0  0  0  0  0
  130.7466  134.1487  159.2855 N   0  0  0  0  0  0  0  0  0  0  0  0
  131.2507  133.7339  158.5678 H   0  0  0  0  0  0  0  0  0  0  0  0
  131.4004  134.4478  160.5620 C   0  0  1  0  0  0  0  0  0  0  0  0
  130.6709  134.3930  161.3700 H   0  0  0  0  0  0  0  0  0  0  0  0
  132.5290  133.4397  160.8138 C   0  0  0  0  0  0  0  0  0  0  0  0
  133.0769  133.6915  162.1085 O   0  0  0  0  0  0  0  0  0  0  0  0
  133.4102  134.9714  162.4187 C   0  0  0  0  0  0  0  0  0  0  0  0
  134.2583  135.1930  163.4991 C   0  0  0  0  0  0  0  0  0  0  0  0
  134.6162  136.4800  163.8486 C   0  0  0  0  0  0  0  0  0  0  0  0
  135.6744  136.7514  165.1980 Cl  0  0  0  0  0  0  0  0  0  0  0  0
  134.1303  137.5533  163.1223 C   0  0  0  0  0  0  0  0  0  0  0  0
  133.2935  137.3356  162.0459 C   0  0  0  0  0  0  0  0  0  0  0  0
  132.9283  136.0468  161.6932 C   0  0  0  0  0  0  0  0  0  0  0  0
  132.0113  135.8504  160.5127 C   0  0  0  0  0  0  0  0  0  0  0  0
  132.1375  132.4792  155.0367 H   0  0  0  0  0  0  0  0  0  0  0  0
  131.3104  131.0524  154.3666 H   0  0  0  0  0  0  0  0  0  0  0  0
  130.3930  132.5433  154.6886 H   0  0  0  0  0  0  0  0  0  0  0  0
  131.9811  129.5716  156.2111 H   0  0  0  0  0  0  0  0  0  0  0  0
  131.4509  128.8442  158.5284 H   0  0  0  0  0  0  0  0  0  0  0  0
  130.1007  130.3135  159.9719 H   0  0  0  0  0  0  0  0  0  0  0  0
  128.9862  133.3891  155.9686 H   0  0  0  0  0  0  0  0  0  0  0  0
  130.4706  134.1763  156.5560 H   0  0  0  0  0  0  0  0  0  0  0  0
  127.9373  134.3761  157.7885 H   0  0  0  0  0  0  0  0  0  0  0  0
  129.2220  135.6068  160.7671 H   0  0  0  0  0  0  0  0  0  0  0  0
  127.5837  132.7160  159.6682 H   0  0  0  0  0  0  0  0  0  0  0  0
  127.4733  132.9726  161.4286 H   0  0  0  0  0  0  0  0  0  0  0  0
  125.2293  133.1503  159.3741 H   0  0  0  0  0  0  0  0  0  0  0  0
  125.3682  132.0111  160.7325 H   0  0  0  0  0  0  0  0  0  0  0  0
  124.8659  135.7177  162.2841 H   0  0  0  0  0  0  0  0  0  0  0  0
  127.4061  135.3205  162.3352 H   0  0  0  0  0  0  0  0  0  0  0  0
  126.8120  136.6063  161.2636 H   0  0  0  0  0  0  0  0  0  0  0  0
  132.1310  132.4257  160.7742 H   0  0  0  0  0  0  0  0  0  0  0  0
  133.3043  133.5599  160.0571 H   0  0  0  0  0  0  0  0  0  0  0  0
  134.6374  134.3558  164.0663 H   0  0  0  0  0  0  0  0  0  0  0  0
  134.4087  138.5606  163.3952 H   0  0  0  0  0  0  0  0  0  0  0  0
  132.9190  138.1745  161.4782 H   0  0  0  0  0  0  0  0  0  0  0  0
  131.2150  136.5942  160.5443 H   0  0  0  0  0  0  0  0  0  0  0  0
  132.5787  135.9667  159.5892 H   0  0  0  0  0  0  0  0  0  0  0  0
  1  2  1  0
  1 34  1  0
  1 35  1  0
  1 36  1  0
  2  7  2  0
  2  3  1  0
  3  4  2  0
  3 37  1  0
  4  5  1  0
  4 38  1  0
  5  6  2  0
  5 39  1  0
  6  7  1  0
  7  8  1  0
  8  9  1  0
  8 40  1  0
  8 41  1  0
  9 42  1  0
 10  9  1  0
 10 11  1  0
 10 20  2  0
 11 12  1  0
 11 43  1  0
 12 13  1  6
 12 19  1  0
 12 14  1  0
 14 15  1  0
 14 44  1  0
 14 45  1  0
 15 16  1  0
 15 46  1  0
 15 47  1  0
 16 17  2  0
 16 18  1  0
 18 19  1  0
 18 48  1  0
 19 49  1  0
 19 50  1  0
 20 21  1  0
 20 22  1  0
 22 23  1  1
 22 33  1  0
 22 24  1  0
 24 25  1  0
 24 51  1  0
 24 52  1  0
 25 26  1  0
 26 32  2  0
 26 27  1  0
 27 28  2  0
 27 53  1  0
 28 29  1  0
 28 30  1  0
 30 31  2  0
 30 54  1  0
 31 32  1  0
 31 55  1  0
 32 33  1  0
 33 56  1  0
 33 57  1  0
M  CHG  1  20   1
M  END
>  <DOCK_score>  (1) 
-45.870213

>  <SMILES>  (1) 
Cc1cccnc1CNC(N[C@H]1CCC(=O)NC1)=[NH+][C@H]1COc2cc(Cl)ccc2C1

$$$$
