Oc1cc(F)c(Nc2[nH]cc(-c3ccc(F)cc3)[nH+]2)cc1SC1CC1
     RDKit          3D

 41 44  0  0  1  0  0  0  0  0999 V2000
  126.2574  136.8751  162.1810 O   0  0  0  0  0  0  0  0  0  0  0  0
  127.2118  136.4626  161.3031 C   0  0  0  0  0  0  0  0  0  0  0  0
  126.8691  136.1742  159.9922 C   0  0  0  0  0  0  0  0  0  0  0  0
  127.8383  135.7547  159.0984 C   0  0  0  0  0  0  0  0  0  0  0  0
  127.5013  135.4732  157.8207 F   0  0  0  0  0  0  0  0  0  0  0  0
  129.1587  135.6221  159.5137 C   0  0  0  0  0  0  0  0  0  0  0  0
  130.1389  135.1970  158.6070 N   0  0  0  0  0  0  0  0  0  0  0  0
  130.0253  133.9605  157.9935 C   0  0  0  0  0  0  0  0  0  0  0  0
  129.4232  132.8627  158.5277 N   0  0  0  0  0  0  0  0  0  0  0  0
  129.0011  132.8057  159.3992 H   0  0  0  0  0  0  0  0  0  0  0  0
  129.5245  131.8501  157.6047 C   0  0  0  0  0  0  0  0  0  0  0  0
  130.1797  132.3594  156.5321 C   0  0  0  0  0  0  0  0  0  0  0  0
  130.5136  131.6282  155.2852 C   0  0  0  0  0  0  0  0  0  0  0  0
  130.0165  132.0711  154.0608 C   0  0  0  0  0  0  0  0  0  0  0  0
  130.3343  131.3914  152.9029 C   0  0  0  0  0  0  0  0  0  0  0  0
  131.1369  130.2633  152.9576 C   0  0  0  0  0  0  0  0  0  0  0  0
  131.4414  129.5975  151.8222 F   0  0  0  0  0  0  0  0  0  0  0  0
  131.6285  129.8161  154.1732 C   0  0  0  0  0  0  0  0  0  0  0  0
  131.3205  130.4930  155.3354 C   0  0  0  0  0  0  0  0  0  0  0  0
  130.4790  133.6544  156.8023 N   0  0  0  0  0  0  0  0  0  0  0  0
  130.9500  134.2588  156.2075 H   0  0  0  0  0  0  0  0  0  0  0  0
  129.5046  135.9050  160.8273 C   0  0  0  0  0  0  0  0  0  0  0  0
  128.5337  136.3309  161.7224 C   0  0  0  0  0  0  0  0  0  0  0  0
  128.9709  136.6974  163.3895 S   0  0  0  0  0  0  0  0  0  0  0  0
  127.9612  135.5299  164.3423 C   0  0  0  0  0  0  0  0  0  0  0  0
  126.8260  136.1063  165.1908 C   0  0  0  0  0  0  0  0  0  0  0  0
  128.0880  135.5665  165.8666 C   0  0  0  0  0  0  0  0  0  0  0  0
  125.3713  136.9362  161.7987 H   0  0  0  0  0  0  0  0  0  0  0  0
  125.8442  136.2767  159.6676 H   0  0  0  0  0  0  0  0  0  0  0  0
  130.8971  135.7686  158.4091 H   0  0  0  0  0  0  0  0  0  0  0  0
  129.1501  130.8428  157.7112 H   0  0  0  0  0  0  0  0  0  0  0  0
  129.3873  132.9480  154.0178 H   0  0  0  0  0  0  0  0  0  0  0  0
  129.9530  131.7362  151.9531 H   0  0  0  0  0  0  0  0  0  0  0  0
  132.2534  128.9361  154.2111 H   0  0  0  0  0  0  0  0  0  0  0  0
  131.7044  130.1439  156.2825 H   0  0  0  0  0  0  0  0  0  0  0  0
  130.5291  135.7980  161.1517 H   0  0  0  0  0  0  0  0  0  0  0  0
  127.7971  134.5592  163.8742 H   0  0  0  0  0  0  0  0  0  0  0  0
  126.6858  137.1871  165.1763 H   0  0  0  0  0  0  0  0  0  0  0  0
  125.9147  135.5150  165.2807 H   0  0  0  0  0  0  0  0  0  0  0  0
  128.0071  134.6201  166.4013 H   0  0  0  0  0  0  0  0  0  0  0  0
  128.7780  136.2923  166.2970 H   0  0  0  0  0  0  0  0  0  0  0  0
  1  2  1  0
  1 28  1  0
  2 23  2  0
  2  3  1  0
  3  4  2  0
  3 29  1  0
  4  5  1  0
  4  6  1  0
  6  7  1  0
  6 22  2  0
  7 30  1  0
  8  7  1  0
  8 20  2  0
  8  9  1  0
  9 10  1  0
  9 11  1  0
 11 12  2  0
 11 31  1  0
 12 13  1  0
 12 20  1  0
 13 19  1  0
 13 14  2  0
 14 15  1  0
 14 32  1  0
 15 16  2  0
 15 33  1  0
 16 17  1  0
 16 18  1  0
 18 19  2  0
 18 34  1  0
 19 35  1  0
 20 21  1  0
 22 23  1  0
 22 36  1  0
 23 24  1  0
 24 25  1  0
 25 27  1  0
 25 26  1  0
 25 37  1  0
 26 27  1  0
 26 38  1  0
 26 39  1  0
 27 40  1  0
 27 41  1  0
M  CHG  1  20   1
M  END
>  <DOCK_score>  (1) 
-52.031467

>  <SMILES>  (1) 
Oc1cc(F)c(Nc2[nH]cc(-c3ccc(F)cc3)[nH+]2)cc1SC1CC1

$$$$
