CCC(C#Cc1cccc([C@@H]2CCC[NH2+]2)c1)Cn1cnc2c(N[C@H]3C[C@H](C)C3)ncnc21
     RDKit          3D

 65 69  0  0  1  0  0  0  0  0999 V2000
  127.0592  131.8303  162.5485 C   0  0  0  0  0  0  0  0  0  0  0  0
  126.4738  133.1216  161.9732 C   0  0  0  0  0  0  0  0  0  0  0  0
  125.8723  132.8391  160.5950 C   0  0  2  0  0  0  0  0  0  0  0  0
  126.9221  132.3329  159.6959 C   0  0  0  0  0  0  0  0  0  0  0  0
  127.7595  131.9293  158.9788 C   0  0  0  0  0  0  0  0  0  0  0  0
  128.7808  131.4369  158.1041 C   0  0  0  0  0  0  0  0  0  0  0  0
  129.4660  130.2624  158.4181 C   0  0  0  0  0  0  0  0  0  0  0  0
  130.4486  129.7931  157.5711 C   0  0  0  0  0  0  0  0  0  0  0  0
  130.7554  130.4845  156.4124 C   0  0  0  0  0  0  0  0  0  0  0  0
  130.0796  131.6490  156.0953 C   0  0  0  0  0  0  0  0  0  0  0  0
  130.4200  132.3953  154.8310 C   0  0  2  0  0  0  0  0  0  0  0  0
  129.7968  133.2844  154.7359 H   0  0  0  0  0  0  0  0  0  0  0  0
  130.2429  131.4795  153.6009 C   0  0  0  0  0  0  0  0  0  0  0  0
  131.3936  131.8621  152.6473 C   0  0  0  0  0  0  0  0  0  0  0  0
  132.1691  132.9769  153.3815 C   0  0  0  0  0  0  0  0  0  0  0  0
  131.8589  132.7645  154.8188 N   0  0  0  0  0  0  0  0  0  0  0  0
  132.0097  133.6142  155.3417 H   0  0  0  0  0  0  0  0  0  0  0  0
  132.4191  132.0135  155.1935 H   0  0  0  0  0  0  0  0  0  0  0  0
  129.0910  132.1261  156.9314 C   0  0  0  0  0  0  0  0  0  0  0  0
  125.2868  134.1302  160.0197 C   0  0  0  0  0  0  0  0  0  0  0  0
  126.3471  135.1333  159.8935 N   0  0  0  0  0  0  0  0  0  0  0  0
  127.1355  135.3406  158.8008 C   0  0  0  0  0  0  0  0  0  0  0  0
  127.9709  136.3110  159.0332 N   0  0  0  0  0  0  0  0  0  0  0  0
  127.7636  136.7953  160.2813 C   0  0  0  0  0  0  0  0  0  0  0  0
  128.3461  137.8129  161.0560 C   0  0  0  0  0  0  0  0  0  0  0  0
  129.3837  138.5789  160.5541 N   0  0  0  0  0  0  0  0  0  0  0  0
  129.9745  139.6395  161.3741 C   0  0  1  0  0  0  0  0  0  0  0  0
  129.2324  140.1982  161.9442 H   0  0  0  0  0  0  0  0  0  0  0  0
  131.1735  139.1715  162.2159 C   0  0  0  0  0  0  0  0  0  0  0  0
  131.8400  140.5134  161.8696 C   0  0  2  0  0  0  0  0  0  0  0  0
  132.9063  140.4314  161.6594 H   0  0  0  0  0  0  0  0  0  0  0  0
  131.5140  141.6331  162.8600 C   0  0  0  0  0  0  0  0  0  0  0  0
  130.9628  140.5333  160.6067 C   0  0  0  0  0  0  0  0  0  0  0  0
  127.8740  138.0259  162.2797 N   0  0  0  0  0  0  0  0  0  0  0  0
  126.8843  137.2999  162.7671 C   0  0  0  0  0  0  0  0  0  0  0  0
  126.3126  136.3334  162.0804 N   0  0  0  0  0  0  0  0  0  0  0  0
  126.7178  136.0472  160.8473 C   0  0  0  0  0  0  0  0  0  0  0  0
  126.2557  131.1166  162.7304 H   0  0  0  0  0  0  0  0  0  0  0  0
  127.7688  131.4053  161.8387 H   0  0  0  0  0  0  0  0  0  0  0  0
  127.5699  132.0492  163.4861 H   0  0  0  0  0  0  0  0  0  0  0  0
  127.2626  133.8678  161.8793 H   0  0  0  0  0  0  0  0  0  0  0  0
  125.6964  133.4963  162.6390 H   0  0  0  0  0  0  0  0  0  0  0  0
  125.0835  132.0926  160.6890 H   0  0  0  0  0  0  0  0  0  0  0  0
  129.2274  129.7219  159.3222 H   0  0  0  0  0  0  0  0  0  0  0  0
  130.9796  128.8844  157.8129 H   0  0  0  0  0  0  0  0  0  0  0  0
  131.5257  130.1131  155.7528 H   0  0  0  0  0  0  0  0  0  0  0  0
  130.3257  130.4326  153.8931 H   0  0  0  0  0  0  0  0  0  0  0  0
  129.2797  131.6657  153.1259 H   0  0  0  0  0  0  0  0  0  0  0  0
  132.0411  131.0032  152.4716 H   0  0  0  0  0  0  0  0  0  0  0  0
  130.9951  132.2345  151.7035 H   0  0  0  0  0  0  0  0  0  0  0  0
  133.2397  132.8751  153.2046 H   0  0  0  0  0  0  0  0  0  0  0  0
  131.8225  133.9582  153.0570 H   0  0  0  0  0  0  0  0  0  0  0  0
  128.5614  133.0334  156.6808 H   0  0  0  0  0  0  0  0  0  0  0  0
  124.5095  134.5050  160.6855 H   0  0  0  0  0  0  0  0  0  0  0  0
  124.8583  133.9290  159.0379 H   0  0  0  0  0  0  0  0  0  0  0  0
  127.0817  134.7760  157.8816 H   0  0  0  0  0  0  0  0  0  0  0  0
  129.7197  138.4137  159.6593 H   0  0  0  0  0  0  0  0  0  0  0  0
  131.6895  138.3069  161.7981 H   0  0  0  0  0  0  0  0  0  0  0  0
  130.9464  139.0573  163.2759 H   0  0  0  0  0  0  0  0  0  0  0  0
  130.4769  141.5422  163.1828 H   0  0  0  0  0  0  0  0  0  0  0  0
  132.1719  141.5557  163.7255 H   0  0  0  0  0  0  0  0  0  0  0  0
  131.6608  142.5993  162.3773 H   0  0  0  0  0  0  0  0  0  0  0  0
  130.5645  141.5192  160.3674 H   0  0  0  0  0  0  0  0  0  0  0  0
  131.4212  140.0412  159.7489 H   0  0  0  0  0  0  0  0  0  0  0  0
  126.5310  137.5066  163.7664 H   0  0  0  0  0  0  0  0  0  0  0  0
  1  2  1  0
  1 38  1  0
  1 39  1  0
  1 40  1  0
  2  3  1  0
  2 41  1  0
  2 42  1  0
  3  4  1  0
  3 20  1  0
  3 43  1  1
  4  5  3  0
  5  6  1  0
  6 19  1  0
  6  7  2  0
  7  8  1  0
  7 44  1  0
  8  9  2  0
  8 45  1  0
  9 10  1  0
  9 46  1  0
 10 11  1  0
 10 19  2  0
 11 12  1  6
 11 16  1  0
 11 13  1  0
 13 14  1  0
 13 47  1  0
 13 48  1  0
 14 15  1  0
 14 49  1  0
 14 50  1  0
 15 16  1  0
 15 51  1  0
 15 52  1  0
 16 17  1  0
 16 18  1  0
 19 53  1  0
 20 21  1  0
 20 54  1  0
 20 55  1  0
 21 37  1  0
 21 22  1  0
 22 23  2  0
 22 56  1  0
 23 24  1  0
 24 37  2  0
 24 25  1  0
 25 26  1  0
 25 34  2  0
 26 27  1  0
 26 57  1  0
 27 28  1  1
 27 33  1  0
 27 29  1  0
 29 30  1  0
 29 58  1  0
 29 59  1  0
 30 31  1  6
 30 32  1  0
 30 33  1  0
 32 60  1  0
 32 61  1  0
 32 62  1  0
 33 63  1  0
 33 64  1  0
 34 35  1  0
 35 36  2  0
 35 65  1  0
 36 37  1  0
M  CHG  1  16   1
M  END
>  <DOCK_score>  (1) 
-42.028542

>  <SMILES>  (1) 
CCC(C#Cc1cccc([C@@H]2CCC[NH2+]2)c1)Cn1cnc2c(N[C@H]3C[C@H](C)C3)ncnc21

$$$$
