O=C1CC[C@H](NC(NC2CC=CC2)=[NH+][C@H]2COc3cc(NCc4ccns4)ccc3C2)CN1
     RDKit          3D

 64 68  0  0  1  0  0  0  0  0999 V2000
  124.2130  133.8734  160.6114 O   0  0  0  0  0  0  0  0  0  0  0  0
  125.3920  134.0484  160.3875 C   0  0  0  0  0  0  0  0  0  0  0  0
  126.1555  132.9524  159.7010 C   0  0  0  0  0  0  0  0  0  0  0  0
  127.6587  133.1623  159.8983 C   0  0  0  0  0  0  0  0  0  0  0  0
  127.9944  134.6183  159.5536 C   0  0  2  0  0  0  0  0  0  0  0  0
  127.6025  134.8627  158.5663 H   0  0  0  0  0  0  0  0  0  0  0  0
  129.4475  134.8038  159.5656 N   0  0  0  0  0  0  0  0  0  0  0  0
  130.2410  134.0716  158.7143 C   0  0  0  0  0  0  0  0  0  0  0  0
  129.7494  133.6632  157.4971 N   0  0  0  0  0  0  0  0  0  0  0  0
  130.5949  132.8831  156.5900 C   0  0  0  0  0  0  0  0  0  0  0  0
  130.0974  132.9984  155.1304 C   0  0  0  0  0  0  0  0  0  0  0  0
  130.3146  131.6234  154.5414 C   0  0  0  0  0  0  0  0  0  0  0  0
  130.4996  130.7341  155.4788 C   0  0  0  0  0  0  0  0  0  0  0  0
  130.4359  131.3670  156.8495 C   0  0  0  0  0  0  0  0  0  0  0  0
  131.4593  133.7648  159.0612 N   0  0  0  0  0  0  0  0  0  0  0  0
  132.0192  133.2483  158.4607 H   0  0  0  0  0  0  0  0  0  0  0  0
  131.9833  134.2000  160.3584 C   0  0  1  0  0  0  0  0  0  0  0  0
  131.1685  134.2692  161.0791 H   0  0  0  0  0  0  0  0  0  0  0  0
  133.0304  133.1956  160.8564 C   0  0  0  0  0  0  0  0  0  0  0  0
  133.4444  133.5889  162.1655 O   0  0  0  0  0  0  0  0  0  0  0  0
  133.7998  134.8863  162.3561 C   0  0  0  0  0  0  0  0  0  0  0  0
  134.5327  135.2116  163.4917 C   0  0  0  0  0  0  0  0  0  0  0  0
  134.9096  136.5252  163.7248 C   0  0  0  0  0  0  0  0  0  0  0  0
  135.6468  136.8504  164.8656 N   0  0  0  0  0  0  0  0  0  0  0  0
  136.0441  138.2392  165.1097 C   0  0  0  0  0  0  0  0  0  0  0  0
  136.8237  138.3200  166.3969 C   0  0  0  0  0  0  0  0  0  0  0  0
  138.1599  138.1920  166.5532 C   0  0  0  0  0  0  0  0  0  0  0  0
  138.6033  138.3144  167.8522 C   0  0  0  0  0  0  0  0  0  0  0  0
  137.7005  138.5265  168.7644 N   0  0  0  0  0  0  0  0  0  0  0  0
  136.1992  138.5870  167.9776 S   0  0  0  0  0  0  0  0  0  0  0  0
  134.5470  137.5181  162.8226 C   0  0  0  0  0  0  0  0  0  0  0  0
  133.8250  137.1912  161.6934 C   0  0  0  0  0  0  0  0  0  0  0  0
  133.4483  135.8787  161.4570 C   0  0  0  0  0  0  0  0  0  0  0  0
  132.6590  135.5655  160.2109 C   0  0  0  0  0  0  0  0  0  0  0  0
  127.3524  135.5297  160.6004 C   0  0  0  0  0  0  0  0  0  0  0  0
  125.9411  135.2039  160.7638 N   0  0  0  0  0  0  0  0  0  0  0  0
  125.8659  131.9900  160.1231 H   0  0  0  0  0  0  0  0  0  0  0  0
  125.9263  132.9641  158.6355 H   0  0  0  0  0  0  0  0  0  0  0  0
  128.2123  132.4924  159.2403 H   0  0  0  0  0  0  0  0  0  0  0  0
  127.9240  132.9602  160.9359 H   0  0  0  0  0  0  0  0  0  0  0  0
  129.8499  135.4431  160.1741 H   0  0  0  0  0  0  0  0  0  0  0  0
  128.8427  133.8917  157.2389 H   0  0  0  0  0  0  0  0  0  0  0  0
  131.6384  133.1871  156.6729 H   0  0  0  0  0  0  0  0  0  0  0  0
  129.0388  133.2575  155.1095 H   0  0  0  0  0  0  0  0  0  0  0  0
  130.6817  133.7414  154.5877 H   0  0  0  0  0  0  0  0  0  0  0  0
  130.3168  131.4055  153.4836 H   0  0  0  0  0  0  0  0  0  0  0  0
  130.6748  129.6838  155.2986 H   0  0  0  0  0  0  0  0  0  0  0  0
  131.2504  131.0014  157.4747 H   0  0  0  0  0  0  0  0  0  0  0  0
  129.4747  131.1610  157.3203 H   0  0  0  0  0  0  0  0  0  0  0  0
  133.8885  133.1962  160.1843 H   0  0  0  0  0  0  0  0  0  0  0  0
  132.5940  132.1975  160.8937 H   0  0  0  0  0  0  0  0  0  0  0  0
  134.8089  134.4391  164.1942 H   0  0  0  0  0  0  0  0  0  0  0  0
  135.8923  136.1575  165.4984 H   0  0  0  0  0  0  0  0  0  0  0  0
  136.6658  138.5896  164.2857 H   0  0  0  0  0  0  0  0  0  0  0  0
  135.1540  138.8640  165.1843 H   0  0  0  0  0  0  0  0  0  0  0  0
  138.8283  138.0107  165.7245 H   0  0  0  0  0  0  0  0  0  0  0  0
  139.6511  138.2343  168.1018 H   0  0  0  0  0  0  0  0  0  0  0  0
  134.8339  138.5437  163.0031 H   0  0  0  0  0  0  0  0  0  0  0  0
  133.5475  137.9638  160.9917 H   0  0  0  0  0  0  0  0  0  0  0  0
  133.3296  135.5473  159.3518 H   0  0  0  0  0  0  0  0  0  0  0  0
  131.8987  136.3321  160.0615 H   0  0  0  0  0  0  0  0  0  0  0  0
  127.8647  135.4003  161.5537 H   0  0  0  0  0  0  0  0  0  0  0  0
  127.4479  136.5677  160.2816 H   0  0  0  0  0  0  0  0  0  0  0  0
  125.3653  135.8692  161.1719 H   0  0  0  0  0  0  0  0  0  0  0  0
  1  2  2  0
  2 36  1  0
  2  3  1  0
  3  4  1  0
  3 37  1  0
  3 38  1  0
  4  5  1  0
  4 39  1  0
  4 40  1  0
  5  6  1  6
  5  7  1  0
  5 35  1  0
  7 41  1  0
  8  7  1  0
  8  9  1  0
  8 15  2  0
  9 10  1  0
  9 42  1  0
 10 14  1  0
 10 11  1  0
 10 43  1  0
 11 12  1  0
 11 44  1  0
 11 45  1  0
 12 13  2  0
 12 46  1  0
 13 14  1  0
 13 47  1  0
 14 48  1  0
 14 49  1  0
 15 16  1  0
 15 17  1  0
 17 18  1  1
 17 34  1  0
 17 19  1  0
 19 20  1  0
 19 50  1  0
 19 51  1  0
 20 21  1  0
 21 33  2  0
 21 22  1  0
 22 23  2  0
 22 52  1  0
 23 24  1  0
 23 31  1  0
 24 25  1  0
 24 53  1  0
 25 26  1  0
 25 54  1  0
 25 55  1  0
 26 30  1  0
 26 27  2  0
 27 28  1  0
 27 56  1  0
 28 29  2  0
 28 57  1  0
 29 30  1  0
 31 32  2  0
 31 58  1  0
 32 33  1  0
 32 59  1  0
 33 34  1  0
 34 60  1  0
 34 61  1  0
 35 36  1  0
 35 62  1  0
 35 63  1  0
 36 64  1  0
M  CHG  1  15   1
M  END
>  <DOCK_score>  (1) 
-41.270786

>  <SMILES>  (1) 
O=C1CC[C@H](NC(NC2CC=CC2)=[NH+][C@H]2COc3cc(NCc4ccns4)ccc3C2)CN1

$$$$
