Cc1c[nH]c(Nc2cc(C3(O)C=CC(=O)C=C3)ccc2Sc2ccccc2)[nH+]1
     RDKit          3D

 48 51  0  0  1  0  0  0  0  0999 V2000
  131.0150  131.5202  156.7909 C   0  0  0  0  0  0  0  0  0  0  0  0
  130.7820  132.4401  157.9617 C   0  0  0  0  0  0  0  0  0  0  0  0
  130.4235  132.0617  159.2006 C   0  0  0  0  0  0  0  0  0  0  0  0
  130.3242  133.2071  159.9570 N   0  0  0  0  0  0  0  0  0  0  0  0
  130.0860  133.2597  160.8958 H   0  0  0  0  0  0  0  0  0  0  0  0
  130.6207  134.2521  159.1376 C   0  0  0  0  0  0  0  0  0  0  0  0
  130.6346  135.5889  159.5017 N   0  0  0  0  0  0  0  0  0  0  0  0
  130.3248  135.9597  160.8158 C   0  0  0  0  0  0  0  0  0  0  0  0
  129.0129  136.2380  161.1691 C   0  0  0  0  0  0  0  0  0  0  0  0
  128.7094  136.6043  162.4671 C   0  0  0  0  0  0  0  0  0  0  0  0
  127.2830  136.9062  162.8484 C   0  0  0  0  0  0  0  0  0  0  0  0
  126.4604  136.7786  161.6868 O   0  0  0  0  0  0  0  0  0  0  0  0
  126.8351  135.9069  163.8679 C   0  0  0  0  0  0  0  0  0  0  0  0
  126.7246  136.1877  165.1577 C   0  0  0  0  0  0  0  0  0  0  0  0
  127.0356  137.5498  165.6306 C   0  0  0  0  0  0  0  0  0  0  0  0
  127.2352  137.7761  166.8094 O   0  0  0  0  0  0  0  0  0  0  0  0
  127.0961  138.6282  164.6263 C   0  0  0  0  0  0  0  0  0  0  0  0
  127.2043  138.3165  163.3416 C   0  0  0  0  0  0  0  0  0  0  0  0
  129.7114  136.7003  163.4155 C   0  0  0  0  0  0  0  0  0  0  0  0
  131.0211  136.4193  163.0742 C   0  0  0  0  0  0  0  0  0  0  0  0
  131.3352  136.0508  161.7739 C   0  0  0  0  0  0  0  0  0  0  0  0
  133.0046  135.6984  161.3341 S   0  0  0  0  0  0  0  0  0  0  0  0
  133.6203  137.2689  160.8249 C   0  0  0  0  0  0  0  0  0  0  0  0
  133.6271  138.3362  161.7151 C   0  0  0  0  0  0  0  0  0  0  0  0
  134.1153  139.5641  161.3142 C   0  0  0  0  0  0  0  0  0  0  0  0
  134.5874  139.7353  160.0255 C   0  0  0  0  0  0  0  0  0  0  0  0
  134.5769  138.6768  159.1353 C   0  0  0  0  0  0  0  0  0  0  0  0
  134.0950  137.4447  159.5306 C   0  0  0  0  0  0  0  0  0  0  0  0
  130.8966  133.7785  157.9453 N   0  0  0  0  0  0  0  0  0  0  0  0
  131.1447  134.3112  157.1735 H   0  0  0  0  0  0  0  0  0  0  0  0
  132.0617  131.2169  156.7699 H   0  0  0  0  0  0  0  0  0  0  0  0
  130.3829  130.6378  156.8908 H   0  0  0  0  0  0  0  0  0  0  0  0
  130.7689  132.0406  155.8654 H   0  0  0  0  0  0  0  0  0  0  0  0
  130.2502  131.0509  159.5390 H   0  0  0  0  0  0  0  0  0  0  0  0
  130.8589  136.2678  158.8464 H   0  0  0  0  0  0  0  0  0  0  0  0
  128.2284  136.1687  160.4301 H   0  0  0  0  0  0  0  0  0  0  0  0
  125.5236  136.9571  161.8468 H   0  0  0  0  0  0  0  0  0  0  0  0
  126.5920  134.9078  163.5375 H   0  0  0  0  0  0  0  0  0  0  0  0
  126.4079  135.4275  165.8563 H   0  0  0  0  0  0  0  0  0  0  0  0
  127.0522  139.6625  164.9342 H   0  0  0  0  0  0  0  0  0  0  0  0
  127.2371  139.1178  162.6181 H   0  0  0  0  0  0  0  0  0  0  0  0
  129.4692  136.9911  164.4270 H   0  0  0  0  0  0  0  0  0  0  0  0
  131.8004  136.4912  163.8184 H   0  0  0  0  0  0  0  0  0  0  0  0
  133.2545  138.2046  162.7202 H   0  0  0  0  0  0  0  0  0  0  0  0
  134.1249  140.3929  162.0067 H   0  0  0  0  0  0  0  0  0  0  0  0
  134.9647  140.6979  159.7135 H   0  0  0  0  0  0  0  0  0  0  0  0
  134.9463  138.8141  158.1297 H   0  0  0  0  0  0  0  0  0  0  0  0
  134.0869  136.6187  158.8349 H   0  0  0  0  0  0  0  0  0  0  0  0
  1  2  1  0
  1 31  1  0
  1 32  1  0
  1 33  1  0
  2 29  1  0
  2  3  2  0
  3  4  1  0
  3 34  1  0
  4  5  1  0
  4  6  1  0
  6  7  1  0
  6 29  2  0
  7  8  1  0
  7 35  1  0
  8 21  1  0
  8  9  2  0
  9 10  1  0
  9 36  1  0
 10 11  1  0
 10 19  2  0
 11 18  1  0
 11 12  1  0
 11 13  1  0
 12 37  1  0
 13 14  2  0
 13 38  1  0
 14 15  1  0
 14 39  1  0
 15 16  2  0
 15 17  1  0
 17 18  2  0
 17 40  1  0
 18 41  1  0
 19 20  1  0
 19 42  1  0
 20 21  2  0
 20 43  1  0
 21 22  1  0
 22 23  1  0
 23 28  1  0
 23 24  2  0
 24 25  1  0
 24 44  1  0
 25 26  2  0
 25 45  1  0
 26 27  1  0
 26 46  1  0
 27 28  2  0
 27 47  1  0
 28 48  1  0
 29 30  1  0
M  CHG  1  29   1
M  END
>  <DOCK_score>  (1) 
-49.005199

>  <SMILES>  (1) 
Cc1c[nH]c(Nc2cc(C3(O)C=CC(=O)C=C3)ccc2Sc2ccccc2)[nH+]1

$$$$
