Cc1cccc(-c2cc(C3(O)C=CC(=O)C=C3)ccc2Nc2[nH]c(CO)c[nH+]2)c1
     RDKit          3D

 51 54  0  0  1  0  0  0  0  0999 V2000
  132.7173  139.3516  159.7622 C   0  0  0  0  0  0  0  0  0  0  0  0
  132.2367  137.9529  160.0517 C   0  0  0  0  0  0  0  0  0  0  0  0
  133.1512  136.9247  160.1951 C   0  0  0  0  0  0  0  0  0  0  0  0
  132.7173  135.6384  160.4603 C   0  0  0  0  0  0  0  0  0  0  0  0
  131.3684  135.3739  160.5840 C   0  0  0  0  0  0  0  0  0  0  0  0
  130.4427  136.4059  160.4409 C   0  0  0  0  0  0  0  0  0  0  0  0
  128.9920  136.1280  160.5721 C   0  0  0  0  0  0  0  0  0  0  0  0
  128.3705  136.2243  161.8147 C   0  0  0  0  0  0  0  0  0  0  0  0
  127.0211  135.9597  161.9326 C   0  0  0  0  0  0  0  0  0  0  0  0
  126.3520  136.0588  163.2793 C   0  0  0  0  0  0  0  0  0  0  0  0
  124.9599  135.7782  163.1197 O   0  0  0  0  0  0  0  0  0  0  0  0
  126.9487  135.0329  164.1902 C   0  0  0  0  0  0  0  0  0  0  0  0
  127.8150  135.3334  165.1487 C   0  0  0  0  0  0  0  0  0  0  0  0
  128.2113  136.7392  165.3520 C   0  0  0  0  0  0  0  0  0  0  0  0
  129.2015  137.0264  165.9981 O   0  0  0  0  0  0  0  0  0  0  0  0
  127.3665  137.7854  164.7459 C   0  0  0  0  0  0  0  0  0  0  0  0
  126.5058  137.4558  163.7919 C   0  0  0  0  0  0  0  0  0  0  0  0
  126.2786  135.6095  160.8182 C   0  0  0  0  0  0  0  0  0  0  0  0
  126.8819  135.5158  159.5793 C   0  0  0  0  0  0  0  0  0  0  0  0
  128.2392  135.7735  159.4463 C   0  0  0  0  0  0  0  0  0  0  0  0
  128.8511  135.6791  158.1955 N   0  0  0  0  0  0  0  0  0  0  0  0
  129.3943  134.4741  157.7790 C   0  0  0  0  0  0  0  0  0  0  0  0
  129.3922  133.3129  158.4879 N   0  0  0  0  0  0  0  0  0  0  0  0
  129.0131  133.1763  159.3703 H   0  0  0  0  0  0  0  0  0  0  0  0
  130.0290  132.3686  157.7158 C   0  0  0  0  0  0  0  0  0  0  0  0
  130.2700  130.9262  158.0800 C   0  0  0  0  0  0  0  0  0  0  0  0
  130.7436  130.8476  159.4259 O   0  0  0  0  0  0  0  0  0  0  0  0
  130.3946  132.9774  156.5745 C   0  0  0  0  0  0  0  0  0  0  0  0
  129.9931  134.2581  156.6316 N   0  0  0  0  0  0  0  0  0  0  0  0
  130.1269  134.9198  155.9351 H   0  0  0  0  0  0  0  0  0  0  0  0
  130.8854  137.6994  160.1683 C   0  0  0  0  0  0  0  0  0  0  0  0
  132.7780  139.4992  158.6840 H   0  0  0  0  0  0  0  0  0  0  0  0
  132.0185  140.0714  160.1886 H   0  0  0  0  0  0  0  0  0  0  0  0
  133.7028  139.4961  160.2048 H   0  0  0  0  0  0  0  0  0  0  0  0
  134.2077  137.1270  160.0993 H   0  0  0  0  0  0  0  0  0  0  0  0
  133.4356  134.8394  160.5708 H   0  0  0  0  0  0  0  0  0  0  0  0
  131.0307  134.3691  160.7907 H   0  0  0  0  0  0  0  0  0  0  0  0
  128.9449  136.5020  162.6861 H   0  0  0  0  0  0  0  0  0  0  0  0
  124.4971  136.3997  162.5413 H   0  0  0  0  0  0  0  0  0  0  0  0
  126.6574  134.0005  164.0644 H   0  0  0  0  0  0  0  0  0  0  0  0
  128.2259  134.5555  165.7752 H   0  0  0  0  0  0  0  0  0  0  0  0
  127.4477  138.8104  165.0762 H   0  0  0  0  0  0  0  0  0  0  0  0
  125.8873  138.2320  163.3657 H   0  0  0  0  0  0  0  0  0  0  0  0
  125.2220  135.4085  160.9178 H   0  0  0  0  0  0  0  0  0  0  0  0
  126.2972  135.2424  158.7135 H   0  0  0  0  0  0  0  0  0  0  0  0
  128.8960  136.4569  157.6176 H   0  0  0  0  0  0  0  0  0  0  0  0
  129.3380  130.3681  157.9896 H   0  0  0  0  0  0  0  0  0  0  0  0
  131.0149  130.5012  157.4073 H   0  0  0  0  0  0  0  0  0  0  0  0
  130.1301  131.2086  160.0805 H   0  0  0  0  0  0  0  0  0  0  0  0
  130.9178  132.5149  155.7506 H   0  0  0  0  0  0  0  0  0  0  0  0
  130.1723  138.5020  160.0521 H   0  0  0  0  0  0  0  0  0  0  0  0
  1  2  1  0
  1 32  1  0
  1 33  1  0
  1 34  1  0
  2 31  2  0
  2  3  1  0
  3  4  2  0
  3 35  1  0
  4  5  1  0
  4 36  1  0
  5  6  2  0
  5 37  1  0
  6  7  1  0
  6 31  1  0
  7 20  1  0
  7  8  2  0
  8  9  1  0
  8 38  1  0
  9 10  1  0
  9 18  2  0
 10 17  1  0
 10 11  1  0
 10 12  1  0
 11 39  1  0
 12 13  2  0
 12 40  1  0
 13 14  1  0
 13 41  1  0
 14 15  2  0
 14 16  1  0
 16 17  2  0
 16 42  1  0
 17 43  1  0
 18 19  1  0
 18 44  1  0
 19 20  2  0
 19 45  1  0
 20 21  1  0
 21 46  1  0
 22 21  1  0
 22 29  2  0
 22 23  1  0
 23 24  1  0
 23 25  1  0
 25 26  1  0
 25 28  2  0
 26 27  1  0
 26 47  1  0
 26 48  1  0
 27 49  1  0
 28 29  1  0
 28 50  1  0
 29 30  1  0
 31 51  1  0
M  CHG  1  29   1
M  END
>  <DOCK_score>  (1) 
-47.650887

>  <SMILES>  (1) 
Cc1cccc(-c2cc(C3(O)C=CC(=O)C=C3)ccc2Nc2[nH]c(CO)c[nH+]2)c1

$$$$
