Cc1ccc(C[C@@H](CCl)N2CC[NH+](Cc3ccc(N4CCC=CCC4)cc3)CC2)cc1
     RDKit          3D

 68 71  0  0  1  0  0  0  0  0999 V2000
  130.2953  129.1037  151.2409 C   0  0  0  0  0  0  0  0  0  0  0  0
  130.4918  129.8972  152.5069 C   0  0  0  0  0  0  0  0  0  0  0  0
  131.3539  129.4367  153.4845 C   0  0  0  0  0  0  0  0  0  0  0  0
  131.5342  130.1646  154.6458 C   0  0  0  0  0  0  0  0  0  0  0  0
  130.8525  131.3530  154.8294 C   0  0  0  0  0  0  0  0  0  0  0  0
  131.0489  132.1463  156.0956 C   0  0  0  0  0  0  0  0  0  0  0  0
  130.0330  131.6913  157.1454 C   0  0  1  0  0  0  0  0  0  0  0  0
  129.0700  131.5143  156.6663 H   0  0  0  0  0  0  0  0  0  0  0  0
  130.5217  130.3981  157.8010 C   0  0  0  0  0  0  0  0  0  0  0  0
  129.6874  130.1742  159.3835 Cl  0  0  0  0  0  0  0  0  0  0  0  0
  129.8863  132.7344  158.1693 N   0  0  0  0  0  0  0  0  0  0  0  0
  131.1956  133.2739  158.5628 C   0  0  0  0  0  0  0  0  0  0  0  0
  131.0040  134.3122  159.6704 C   0  0  0  0  0  0  0  0  0  0  0  0
  130.1360  135.3928  159.1840 N   0  0  0  0  0  0  0  0  0  0  0  0
  130.5572  135.8237  158.3747 H   0  0  0  0  0  0  0  0  0  0  0  0
  129.9671  136.3983  160.2416 C   0  0  0  0  0  0  0  0  0  0  0  0
  131.1762  137.2970  160.2778 C   0  0  0  0  0  0  0  0  0  0  0  0
  132.2547  136.9706  161.0795 C   0  0  0  0  0  0  0  0  0  0  0  0
  133.3644  137.7917  161.1148 C   0  0  0  0  0  0  0  0  0  0  0  0
  133.3966  138.9469  160.3438 C   0  0  0  0  0  0  0  0  0  0  0  0
  134.5172  139.7801  160.3775 N   0  0  0  0  0  0  0  0  0  0  0  0
  135.6555  139.1503  159.7227 C   0  0  0  0  0  0  0  0  0  0  0  0
  136.7430  140.1831  159.4154 C   0  0  0  0  0  0  0  0  0  0  0  0
  137.6098  140.3493  160.6461 C   0  0  0  0  0  0  0  0  0  0  0  0
  137.1367  140.9431  161.6986 C   0  0  0  0  0  0  0  0  0  0  0  0
  135.7174  141.4708  161.6978 C   0  0  0  0  0  0  0  0  0  0  0  0
  134.7560  140.2795  161.7244 C   0  0  0  0  0  0  0  0  0  0  0  0
  132.3092  139.2746  159.5438 C   0  0  0  0  0  0  0  0  0  0  0  0
  131.2048  138.4463  159.5092 C   0  0  0  0  0  0  0  0  0  0  0  0
  128.8243  134.8421  158.8184 C   0  0  0  0  0  0  0  0  0  0  0  0
  128.9977  133.8084  157.7034 C   0  0  0  0  0  0  0  0  0  0  0  0
  129.9865  131.8110  153.8541 C   0  0  0  0  0  0  0  0  0  0  0  0
  129.8105  131.0860  152.6904 C   0  0  0  0  0  0  0  0  0  0  0  0
  129.4738  128.4003  151.3770 H   0  0  0  0  0  0  0  0  0  0  0  0
  130.0610  129.7815  150.4200 H   0  0  0  0  0  0  0  0  0  0  0  0
  131.2086  128.5556  151.0101 H   0  0  0  0  0  0  0  0  0  0  0  0
  131.8862  128.5079  153.3412 H   0  0  0  0  0  0  0  0  0  0  0  0
  132.2073  129.8045  155.4097 H   0  0  0  0  0  0  0  0  0  0  0  0
  130.9049  133.2063  155.8863 H   0  0  0  0  0  0  0  0  0  0  0  0
  132.0586  131.9844  156.4730 H   0  0  0  0  0  0  0  0  0  0  0  0
  130.2981  129.5534  157.1495 H   0  0  0  0  0  0  0  0  0  0  0  0
  131.5980  130.4571  157.9628 H   0  0  0  0  0  0  0  0  0  0  0  0
  131.6689  133.7445  157.7010 H   0  0  0  0  0  0  0  0  0  0  0  0
  131.8275  132.4645  158.9283 H   0  0  0  0  0  0  0  0  0  0  0  0
  131.9726  134.7240  159.9539 H   0  0  0  0  0  0  0  0  0  0  0  0
  130.5432  133.8382  160.5370 H   0  0  0  0  0  0  0  0  0  0  0  0
  129.8569  135.8985  161.2039 H   0  0  0  0  0  0  0  0  0  0  0  0
  129.0775  136.9942  160.0376 H   0  0  0  0  0  0  0  0  0  0  0  0
  132.2293  136.0721  161.6782 H   0  0  0  0  0  0  0  0  0  0  0  0
  134.2063  137.5365  161.7412 H   0  0  0  0  0  0  0  0  0  0  0  0
  135.3246  138.6896  158.7920 H   0  0  0  0  0  0  0  0  0  0  0  0
  136.0653  138.3814  160.3778 H   0  0  0  0  0  0  0  0  0  0  0  0
  137.3534  139.8352  158.5818 H   0  0  0  0  0  0  0  0  0  0  0  0
  136.2810  141.1371  159.1614 H   0  0  0  0  0  0  0  0  0  0  0  0
  138.6223  139.9734  160.6477 H   0  0  0  0  0  0  0  0  0  0  0  0
  137.7558  141.0608  162.5758 H   0  0  0  0  0  0  0  0  0  0  0  0
  135.5460  142.0596  160.7968 H   0  0  0  0  0  0  0  0  0  0  0  0
  135.5567  142.0907  162.5800 H   0  0  0  0  0  0  0  0  0  0  0  0
  133.8090  140.5921  162.1644 H   0  0  0  0  0  0  0  0  0  0  0  0
  135.1874  139.4834  162.3313 H   0  0  0  0  0  0  0  0  0  0  0  0
  132.3292  140.1743  158.9465 H   0  0  0  0  0  0  0  0  0  0  0  0
  130.3608  138.6983  158.8843 H   0  0  0  0  0  0  0  0  0  0  0  0
  128.3748  134.3652  159.6895 H   0  0  0  0  0  0  0  0  0  0  0  0
  128.1768  135.6467  158.4701 H   0  0  0  0  0  0  0  0  0  0  0  0
  129.4349  134.2878  156.8275 H   0  0  0  0  0  0  0  0  0  0  0  0
  128.0264  133.3889  157.4417 H   0  0  0  0  0  0  0  0  0  0  0  0
  129.4507  132.7373  153.9995 H   0  0  0  0  0  0  0  0  0  0  0  0
  129.1374  131.4460  151.9265 H   0  0  0  0  0  0  0  0  0  0  0  0
  1  2  1  0
  1 34  1  0
  1 35  1  0
  1 36  1  0
  2 33  2  0
  2  3  1  0
  3  4  2  0
  3 37  1  0
  4  5  1  0
  4 38  1  0
  5  6  1  0
  5 32  2  0
  6  7  1  0
  6 39  1  0
  6 40  1  0
  7  8  1  6
  7  9  1  0
  7 11  1  0
  9 10  1  0
  9 41  1  0
  9 42  1  0
 11 31  1  0
 11 12  1  0
 12 13  1  0
 12 43  1  0
 12 44  1  0
 13 14  1  0
 13 45  1  0
 13 46  1  0
 14 15  1  0
 14 16  1  0
 14 30  1  0
 16 17  1  0
 16 47  1  0
 16 48  1  0
 17 29  1  0
 17 18  2  0
 18 19  1  0
 18 49  1  0
 19 20  2  0
 19 50  1  0
 20 21  1  0
 20 28  1  0
 21 27  1  0
 21 22  1  0
 22 23  1  0
 22 51  1  0
 22 52  1  0
 23 24  1  0
 23 53  1  0
 23 54  1  0
 24 25  2  0
 24 55  1  0
 25 26  1  0
 25 56  1  0
 26 27  1  0
 26 57  1  0
 26 58  1  0
 27 59  1  0
 27 60  1  0
 28 29  2  0
 28 61  1  0
 29 62  1  0
 30 31  1  0
 30 63  1  0
 30 64  1  0
 31 65  1  0
 31 66  1  0
 32 33  1  0
 32 67  1  0
 33 68  1  0
M  CHG  1  14   1
M  END
>  <DOCK_score>  (1) 
-61.390778

>  <SMILES>  (1) 
Cc1ccc(C[C@@H](CCl)N2CC[NH+](Cc3ccc(N4CCC=CCC4)cc3)CC2)cc1

$$$$
