CCc1ccc(C(=O)C[NH+]=C(NC2CC=CC2)N[C@H]2CCC(=O)NC2)cc1
     RDKit          3D

 56 58  0  0  1  0  0  0  0  0999 V2000
  136.1847  141.1112  161.7315 C   0  0  0  0  0  0  0  0  0  0  0  0
  136.3721  140.0598  160.6360 C   0  0  0  0  0  0  0  0  0  0  0  0
  135.1823  139.1351  160.6183 C   0  0  0  0  0  0  0  0  0  0  0  0
  134.0895  139.4347  159.8234 C   0  0  0  0  0  0  0  0  0  0  0  0
  132.9970  138.5937  159.8017 C   0  0  0  0  0  0  0  0  0  0  0  0
  132.9950  137.4356  160.5856 C   0  0  0  0  0  0  0  0  0  0  0  0
  131.8329  136.5330  160.5686 C   0  0  0  0  0  0  0  0  0  0  0  0
  130.7235  136.9767  160.3625 O   0  0  0  0  0  0  0  0  0  0  0  0
  132.0217  135.0569  160.8075 C   0  0  0  0  0  0  0  0  0  0  0  0
  131.5530  134.3093  159.6380 N   0  0  0  0  0  0  0  0  0  0  0  0
  132.1667  133.7393  159.1490 H   0  0  0  0  0  0  0  0  0  0  0  0
  130.3111  134.4100  159.2549 C   0  0  0  0  0  0  0  0  0  0  0  0
  129.8713  133.7084  158.1575 N   0  0  0  0  0  0  0  0  0  0  0  0
  130.7983  132.8475  157.4188 C   0  0  0  0  0  0  0  0  0  0  0  0
  130.2993  132.6041  155.9755 C   0  0  0  0  0  0  0  0  0  0  0  0
  130.6618  131.1662  155.6819 C   0  0  0  0  0  0  0  0  0  0  0  0
  130.9332  130.5159  156.7804 C   0  0  0  0  0  0  0  0  0  0  0  0
  130.7967  131.4106  157.9903 C   0  0  0  0  0  0  0  0  0  0  0  0
  129.4400  135.2136  159.9516 N   0  0  0  0  0  0  0  0  0  0  0  0
  128.0145  134.8790  160.0005 C   0  0  1  0  0  0  0  0  0  0  0  0
  127.6071  134.8659  158.9896 H   0  0  0  0  0  0  0  0  0  0  0  0
  127.8315  133.5005  160.6468 C   0  0  0  0  0  0  0  0  0  0  0  0
  126.3600  133.0981  160.5197 C   0  0  0  0  0  0  0  0  0  0  0  0
  125.4805  134.2277  160.9734 C   0  0  0  0  0  0  0  0  0  0  0  0
  124.3250  133.9812  161.2469 O   0  0  0  0  0  0  0  0  0  0  0  0
  125.9022  135.4873  161.0918 N   0  0  0  0  0  0  0  0  0  0  0  0
  127.2725  135.9172  160.8429 C   0  0  0  0  0  0  0  0  0  0  0  0
  134.1009  137.1427  161.3901 C   0  0  0  0  0  0  0  0  0  0  0  0
  135.1881  137.9908  161.3965 C   0  0  0  0  0  0  0  0  0  0  0  0
  135.2805  141.6864  161.5323 H   0  0  0  0  0  0  0  0  0  0  0  0
  136.0946  140.6163  162.6985 H   0  0  0  0  0  0  0  0  0  0  0  0
  137.0453  141.7801  161.7444 H   0  0  0  0  0  0  0  0  0  0  0  0
  137.2763  139.4846  160.8353 H   0  0  0  0  0  0  0  0  0  0  0  0
  136.4621  140.5547  159.6691 H   0  0  0  0  0  0  0  0  0  0  0  0
  134.0927  140.3292  159.2183 H   0  0  0  0  0  0  0  0  0  0  0  0
  132.1453  138.8286  159.1806 H   0  0  0  0  0  0  0  0  0  0  0  0
  131.4499  134.7548  161.6850 H   0  0  0  0  0  0  0  0  0  0  0  0
  133.0785  134.8479  160.9728 H   0  0  0  0  0  0  0  0  0  0  0  0
  128.9472  133.7832  157.8723 H   0  0  0  0  0  0  0  0  0  0  0  0
  131.8039  133.2677  157.4194 H   0  0  0  0  0  0  0  0  0  0  0  0
  129.2197  132.7426  155.9185 H   0  0  0  0  0  0  0  0  0  0  0  0
  130.8061  133.2737  155.2807 H   0  0  0  0  0  0  0  0  0  0  0  0
  130.6922  130.7340  154.6926 H   0  0  0  0  0  0  0  0  0  0  0  0
  131.2179  129.4747  156.8196 H   0  0  0  0  0  0  0  0  0  0  0  0
  131.6414  131.2692  158.6644 H   0  0  0  0  0  0  0  0  0  0  0  0
  129.8596  131.2096  158.5095 H   0  0  0  0  0  0  0  0  0  0  0  0
  129.7691  136.0021  160.4107 H   0  0  0  0  0  0  0  0  0  0  0  0
  128.4573  132.7693  160.1352 H   0  0  0  0  0  0  0  0  0  0  0  0
  128.1090  133.5491  161.6997 H   0  0  0  0  0  0  0  0  0  0  0  0
  126.1379  132.8616  159.4792 H   0  0  0  0  0  0  0  0  0  0  0  0
  126.1700  132.2207  161.1378 H   0  0  0  0  0  0  0  0  0  0  0  0
  125.2565  136.1595  161.3605 H   0  0  0  0  0  0  0  0  0  0  0  0
  127.7885  136.0446  161.7945 H   0  0  0  0  0  0  0  0  0  0  0  0
  127.2606  136.8696  160.3128 H   0  0  0  0  0  0  0  0  0  0  0  0
  134.1050  136.2525  162.0017 H   0  0  0  0  0  0  0  0  0  0  0  0
  136.0444  137.7638  162.0142 H   0  0  0  0  0  0  0  0  0  0  0  0
  1  2  1  0
  1 30  1  0
  1 31  1  0
  1 32  1  0
  2  3  1  0
  2 33  1  0
  2 34  1  0
  3 29  2  0
  3  4  1  0
  4  5  2  0
  4 35  1  0
  5  6  1  0
  5 36  1  0
  6  7  1  0
  6 28  2  0
  7  8  2  0
  7  9  1  0
  9 10  1  0
  9 37  1  0
  9 38  1  0
 10 11  1  0
 12 10  2  0
 12 13  1  0
 12 19  1  0
 13 14  1  0
 13 39  1  0
 14 18  1  0
 14 15  1  0
 14 40  1  0
 15 16  1  0
 15 41  1  0
 15 42  1  0
 16 17  2  0
 16 43  1  0
 17 18  1  0
 17 44  1  0
 18 45  1  0
 18 46  1  0
 19 20  1  0
 19 47  1  0
 20 21  1  6
 20 27  1  0
 20 22  1  0
 22 23  1  0
 22 48  1  0
 22 49  1  0
 23 24  1  0
 23 50  1  0
 23 51  1  0
 24 25  2  0
 24 26  1  0
 26 27  1  0
 26 52  1  0
 27 53  1  0
 27 54  1  0
 28 29  1  0
 28 55  1  0
 29 56  1  0
M  CHG  1  10   1
M  END
>  <DOCK_score>  (1) 
-46.633564

>  <SMILES>  (1) 
CCc1ccc(C(=O)C[NH+]=C(NC2CC=CC2)N[C@H]2CCC(=O)NC2)cc1

$$$$
