Nc1ccc(-c2c[nH]c(N[C@H](c3ccc(F)cc3)C(O)Cl)[nH+]2)cc1
     RDKit          3D

 41 43  0  0  1  0  0  0  0  0999 V2000
  131.7360  129.5335  151.9395 N   0  0  0  0  0  0  0  0  0  0  0  0
  131.3702  130.2001  153.1112 C   0  0  0  0  0  0  0  0  0  0  0  0
  130.6042  131.3577  153.0406 C   0  0  0  0  0  0  0  0  0  0  0  0
  130.2419  132.0174  154.1960 C   0  0  0  0  0  0  0  0  0  0  0  0
  130.6444  131.5225  155.4355 C   0  0  0  0  0  0  0  0  0  0  0  0
  130.2558  132.2304  156.6799 C   0  0  0  0  0  0  0  0  0  0  0  0
  129.5231  131.7129  157.6967 C   0  0  0  0  0  0  0  0  0  0  0  0
  129.3943  132.7045  158.6403 N   0  0  0  0  0  0  0  0  0  0  0  0
  128.9191  132.6374  159.4832 H   0  0  0  0  0  0  0  0  0  0  0  0
  130.0571  133.7973  158.1733 C   0  0  0  0  0  0  0  0  0  0  0  0
  130.1686  135.0128  158.8265 N   0  0  0  0  0  0  0  0  0  0  0  0
  129.1017  135.4626  159.7242 C   0  0  2  0  0  0  0  0  0  0  0  0
  128.9774  134.7405  160.5312 H   0  0  0  0  0  0  0  0  0  0  0  0
  127.8126  135.5809  158.9528 C   0  0  0  0  0  0  0  0  0  0  0  0
  126.6044  135.3686  159.5900 C   0  0  0  0  0  0  0  0  0  0  0  0
  125.4213  135.4823  158.8849 C   0  0  0  0  0  0  0  0  0  0  0  0
  125.4470  135.7983  157.5370 C   0  0  0  0  0  0  0  0  0  0  0  0
  124.2913  135.9043  156.8454 F   0  0  0  0  0  0  0  0  0  0  0  0
  126.6580  136.0050  156.8984 C   0  0  0  0  0  0  0  0  0  0  0  0
  127.8395  135.8958  157.6070 C   0  0  0  0  0  0  0  0  0  0  0  0
  129.4711  136.8259  160.3124 C   0  0  1  0  0  0  0  0  0  0  0  0
  128.7094  137.0547  161.4995 O   0  0  0  0  0  0  0  0  0  0  0  0
  131.2292  136.8517  160.7118 Cl  0  0  0  0  0  0  0  0  0  0  0  0
  130.5731  133.5091  157.0032 N   0  0  0  0  0  0  0  0  0  0  0  0
  131.0948  134.1151  156.4541 H   0  0  0  0  0  0  0  0  0  0  0  0
  131.4176  130.3646  155.5036 C   0  0  0  0  0  0  0  0  0  0  0  0
  131.7725  129.7047  154.3460 C   0  0  0  0  0  0  0  0  0  0  0  0
  131.4558  129.8784  151.0774 H   0  0  0  0  0  0  0  0  0  0  0  0
  132.2709  128.7255  151.9879 H   0  0  0  0  0  0  0  0  0  0  0  0
  130.2929  131.7408  152.0802 H   0  0  0  0  0  0  0  0  0  0  0  0
  129.6463  132.9166  154.1407 H   0  0  0  0  0  0  0  0  0  0  0  0
  129.1150  130.7145  157.7525 H   0  0  0  0  0  0  0  0  0  0  0  0
  130.9529  135.5668  158.6898 H   0  0  0  0  0  0  0  0  0  0  0  0
  126.5848  135.1180  160.6403 H   0  0  0  0  0  0  0  0  0  0  0  0
  124.4772  135.3212  159.3840 H   0  0  0  0  0  0  0  0  0  0  0  0
  126.6793  136.2511  155.8471 H   0  0  0  0  0  0  0  0  0  0  0  0
  128.7843  136.0570  157.1091 H   0  0  0  0  0  0  0  0  0  0  0  0
  129.2524  137.6070  159.5843 H   0  0  0  0  0  0  0  0  0  0  0  0
  128.8542  136.3963  162.1927 H   0  0  0  0  0  0  0  0  0  0  0  0
  131.7346  129.9819  156.4626 H   0  0  0  0  0  0  0  0  0  0  0  0
  132.3673  128.8048  154.3986 H   0  0  0  0  0  0  0  0  0  0  0  0
  1  2  1  0
  1 28  1  0
  1 29  1  0
  2 27  2  0
  2  3  1  0
  3  4  2  0
  3 30  1  0
  4  5  1  0
  4 31  1  0
  5  6  1  0
  5 26  2  0
  6 24  1  0
  6  7  2  0
  7  8  1  0
  7 32  1  0
  8  9  1  0
  8 10  1  0
 10 11  1  0
 10 24  2  0
 11 12  1  0
 11 33  1  0
 12 13  1  1
 12 14  1  0
 12 21  1  0
 14 20  1  0
 14 15  2  0
 15 16  1  0
 15 34  1  0
 16 17  2  0
 16 35  1  0
 17 18  1  0
 17 19  1  0
 19 20  2  0
 19 36  1  0
 20 37  1  0
 21 22  1  0
 21 23  1  0
 21 38  1  6
 22 39  1  0
 24 25  1  0
 26 27  1  0
 26 40  1  0
 27 41  1  0
M  CHG  1  24   1
M  END
>  <DOCK_score>  (1) 
-58.181721

>  <SMILES>  (1) 
Nc1ccc(-c2c[nH]c(N[C@H](c3ccc(F)cc3)C(O)Cl)[nH+]2)cc1

$$$$
