CCCC=Cc1c[nH]c(NC(c2ccccc2)c2ccccc2)[nH+]1
     RDKit          3D

 48 50  0  0  1  0  0  0  0  0999 V2000
  130.6926  129.9417  151.7506 C   0  0  0  0  0  0  0  0  0  0  0  0
  130.2421  130.8676  152.8822 C   0  0  0  0  0  0  0  0  0  0  0  0
  131.3102  130.8916  153.9774 C   0  0  0  0  0  0  0  0  0  0  0  0
  130.8664  131.8037  155.0920 C   0  0  0  0  0  0  0  0  0  0  0  0
  130.7112  131.3244  156.3191 C   0  0  0  0  0  0  0  0  0  0  0  0
  130.2762  132.2186  157.4117 C   0  0  0  0  0  0  0  0  0  0  0  0
  129.5500  131.8559  158.5009 C   0  0  0  0  0  0  0  0  0  0  0  0
  129.3757  132.9881  159.2580 N   0  0  0  0  0  0  0  0  0  0  0  0
  128.8991  133.0476  160.1007 H   0  0  0  0  0  0  0  0  0  0  0  0
  129.9917  134.0123  158.6066 C   0  0  0  0  0  0  0  0  0  0  0  0
  130.0443  135.3263  159.0385 N   0  0  0  0  0  0  0  0  0  0  0  0
  128.9528  135.8759  159.8465 C   0  0  0  0  0  0  0  0  0  0  0  0
  129.2519  137.3140  160.1831 C   0  0  0  0  0  0  0  0  0  0  0  0
  128.7732  137.8628  161.3582 C   0  0  0  0  0  0  0  0  0  0  0  0
  129.0515  139.1806  161.6693 C   0  0  0  0  0  0  0  0  0  0  0  0
  129.8000  139.9524  160.8014 C   0  0  0  0  0  0  0  0  0  0  0  0
  130.2742  139.4054  159.6231 C   0  0  0  0  0  0  0  0  0  0  0  0
  130.0003  138.0861  159.3145 C   0  0  0  0  0  0  0  0  0  0  0  0
  127.6644  135.7997  159.0685 C   0  0  0  0  0  0  0  0  0  0  0  0
  126.4628  135.6465  159.7348 C   0  0  0  0  0  0  0  0  0  0  0  0
  125.2805  135.5814  159.0215 C   0  0  0  0  0  0  0  0  0  0  0  0
  125.3006  135.6590  157.6414 C   0  0  0  0  0  0  0  0  0  0  0  0
  126.5027  135.8068  156.9750 C   0  0  0  0  0  0  0  0  0  0  0  0
  127.6844  135.8772  157.6885 C   0  0  0  0  0  0  0  0  0  0  0  0
  130.5315  133.5490  157.5060 N   0  0  0  0  0  0  0  0  0  0  0  0
  131.0337  134.0725  156.8621 H   0  0  0  0  0  0  0  0  0  0  0  0
  131.6316  130.3068  151.3345 H   0  0  0  0  0  0  0  0  0  0  0  0
  130.8356  128.9340  152.1408 H   0  0  0  0  0  0  0  0  0  0  0  0
  129.9317  129.9246  150.9702 H   0  0  0  0  0  0  0  0  0  0  0  0
  129.3031  130.5025  153.2983 H   0  0  0  0  0  0  0  0  0  0  0  0
  130.0992  131.8753  152.4920 H   0  0  0  0  0  0  0  0  0  0  0  0
  132.2490  131.2567  153.5612 H   0  0  0  0  0  0  0  0  0  0  0  0
  131.4530  129.8839  154.3676 H   0  0  0  0  0  0  0  0  0  0  0  0
  130.6746  132.8475  154.8916 H   0  0  0  0  0  0  0  0  0  0  0  0
  130.9031  130.2807  156.5194 H   0  0  0  0  0  0  0  0  0  0  0  0
  129.1839  130.8660  158.7299 H   0  0  0  0  0  0  0  0  0  0  0  0
  130.8019  135.8844  158.8029 H   0  0  0  0  0  0  0  0  0  0  0  0
  128.8561  135.2998  160.7667 H   0  0  0  0  0  0  0  0  0  0  0  0
  128.1848  137.2609  162.0349 H   0  0  0  0  0  0  0  0  0  0  0  0
  128.6807  139.6082  162.5891 H   0  0  0  0  0  0  0  0  0  0  0  0
  130.0137  140.9834  161.0415 H   0  0  0  0  0  0  0  0  0  0  0  0
  130.8585  140.0086  158.9441 H   0  0  0  0  0  0  0  0  0  0  0  0
  130.3706  137.6587  158.3943 H   0  0  0  0  0  0  0  0  0  0  0  0
  126.4475  135.5815  160.8127 H   0  0  0  0  0  0  0  0  0  0  0  0
  124.3414  135.4655  159.5422 H   0  0  0  0  0  0  0  0  0  0  0  0
  124.3773  135.6037  157.0839 H   0  0  0  0  0  0  0  0  0  0  0  0
  126.5183  135.8671  155.8968 H   0  0  0  0  0  0  0  0  0  0  0  0
  128.6236  135.9924  157.1678 H   0  0  0  0  0  0  0  0  0  0  0  0
  1  2  1  0
  1 27  1  0
  1 28  1  0
  1 29  1  0
  2  3  1  0
  2 30  1  0
  2 31  1  0
  3  4  1  0
  3 32  1  0
  3 33  1  0
  4  5  2  0
  4 34  1  0
  5  6  1  0
  5 35  1  0
  6 25  1  0
  6  7  2  0
  7  8  1  0
  7 36  1  0
  8  9  1  0
  8 10  1  0
 10 11  1  0
 10 25  2  0
 11 12  1  0
 11 37  1  0
 12 13  1  0
 12 19  1  0
 12 38  1  0
 13 18  1  0
 13 14  2  0
 14 15  1  0
 14 39  1  0
 15 16  2  0
 15 40  1  0
 16 17  1  0
 16 41  1  0
 17 18  2  0
 17 42  1  0
 18 43  1  0
 19 24  1  0
 19 20  2  0
 20 21  1  0
 20 44  1  0
 21 22  2  0
 21 45  1  0
 22 23  1  0
 22 46  1  0
 23 24  2  0
 23 47  1  0
 24 48  1  0
 25 26  1  0
M  CHG  1  25   1
M  END
>  <DOCK_score>  (1) 
-59.743092

>  <SMILES>  (1) 
CCCC=Cc1c[nH]c(NC(c2ccccc2)c2ccccc2)[nH+]1

$$$$
