C1=CCC(c2ccccc2[C@H](c2ccccc2)[NH+]2CCN(c3cccc4cc[nH]c34)CC2)=CC1
     RDKit          3D

 66 71  0  0  1  0  0  0  0  0999 V2000
  129.1723  132.3967  164.2097 C   0  0  0  0  0  0  0  0  0  0  0  0
  128.3480  131.9995  163.2898 C   0  0  0  0  0  0  0  0  0  0  0  0
  128.5695  132.2532  161.8292 C   0  0  0  0  0  0  0  0  0  0  0  0
  130.0079  132.5664  161.5453 C   0  0  0  0  0  0  0  0  0  0  0  0
  130.5070  132.4168  160.1620 C   0  0  0  0  0  0  0  0  0  0  0  0
  131.0332  131.1968  159.7350 C   0  0  0  0  0  0  0  0  0  0  0  0
  131.5034  131.0658  158.4447 C   0  0  0  0  0  0  0  0  0  0  0  0
  131.4477  132.1385  157.5726 C   0  0  0  0  0  0  0  0  0  0  0  0
  130.9213  133.3484  157.9876 C   0  0  0  0  0  0  0  0  0  0  0  0
  130.4482  133.4928  159.2759 C   0  0  0  0  0  0  0  0  0  0  0  0
  129.8748  134.8116  159.7263 C   0  0  2  0  0  0  0  0  0  0  0  0
  129.5601  134.7345  160.7671 H   0  0  0  0  0  0  0  0  0  0  0  0
  128.6874  135.1629  158.8673 C   0  0  0  0  0  0  0  0  0  0  0  0
  127.4217  134.7448  159.2334 C   0  0  0  0  0  0  0  0  0  0  0  0
  126.3320  135.0708  158.4478 C   0  0  0  0  0  0  0  0  0  0  0  0
  126.5093  135.8069  157.2911 C   0  0  0  0  0  0  0  0  0  0  0  0
  127.7756  136.2210  156.9226 C   0  0  0  0  0  0  0  0  0  0  0  0
  128.8648  135.8987  157.7105 C   0  0  0  0  0  0  0  0  0  0  0  0
  130.8972  135.8588  159.6003 N   0  0  0  0  0  0  0  0  0  0  0  0
  131.1884  135.9300  158.6368 H   0  0  0  0  0  0  0  0  0  0  0  0
  132.0547  135.5158  160.4372 C   0  0  0  0  0  0  0  0  0  0  0  0
  133.1280  136.5967  160.2914 C   0  0  0  0  0  0  0  0  0  0  0  0
  132.5718  137.8936  160.7024 N   0  0  0  0  0  0  0  0  0  0  0  0
  133.5413  138.8989  160.6342 C   0  0  0  0  0  0  0  0  0  0  0  0
  134.1544  139.1935  159.4288 C   0  0  0  0  0  0  0  0  0  0  0  0
  135.1122  140.1943  159.3501 C   0  0  0  0  0  0  0  0  0  0  0  0
  135.4765  140.8972  160.4636 C   0  0  0  0  0  0  0  0  0  0  0  0
  134.8762  140.6138  161.6938 C   0  0  0  0  0  0  0  0  0  0  0  0
  135.0233  141.1566  163.0462 C   0  0  0  0  0  0  0  0  0  0  0  0
  134.1717  140.4820  163.8352 C   0  0  0  0  0  0  0  0  0  0  0  0
  133.4916  139.5521  163.0986 N   0  0  0  0  0  0  0  0  0  0  0  0
  132.8217  138.9445  163.4492 H   0  0  0  0  0  0  0  0  0  0  0  0
  133.9001  139.6074  161.7832 C   0  0  0  0  0  0  0  0  0  0  0  0
  131.3968  138.2388  159.8899 C   0  0  0  0  0  0  0  0  0  0  0  0
  130.3379  137.1442  160.0388 C   0  0  0  0  0  0  0  0  0  0  0  0
  130.8445  132.9638  162.4784 C   0  0  0  0  0  0  0  0  0  0  0  0
  130.4323  133.1502  163.9078 C   0  0  0  0  0  0  0  0  0  0  0  0
  128.9401  132.1737  165.2406 H   0  0  0  0  0  0  0  0  0  0  0  0
  127.4611  131.4614  163.5904 H   0  0  0  0  0  0  0  0  0  0  0  0
  127.9518  133.0945  161.5153 H   0  0  0  0  0  0  0  0  0  0  0  0
  128.2786  131.3674  161.2646 H   0  0  0  0  0  0  0  0  0  0  0  0
  131.0771  130.3587  160.4148 H   0  0  0  0  0  0  0  0  0  0  0  0
  131.9153  130.1236  158.1144 H   0  0  0  0  0  0  0  0  0  0  0  0
  131.8168  132.0306  156.5633 H   0  0  0  0  0  0  0  0  0  0  0  0
  130.8800  134.1818  157.3019 H   0  0  0  0  0  0  0  0  0  0  0  0
  127.2838  134.1664  160.1348 H   0  0  0  0  0  0  0  0  0  0  0  0
  125.3426  134.7476  158.7359 H   0  0  0  0  0  0  0  0  0  0  0  0
  125.6583  136.0587  156.6756 H   0  0  0  0  0  0  0  0  0  0  0  0
  127.9141  136.7960  156.0190 H   0  0  0  0  0  0  0  0  0  0  0  0
  129.8542  136.2218  157.4224 H   0  0  0  0  0  0  0  0  0  0  0  0
  131.7429  135.4514  161.4797 H   0  0  0  0  0  0  0  0  0  0  0  0
  132.4609  134.5555  160.1195 H   0  0  0  0  0  0  0  0  0  0  0  0
  133.4496  136.6523  159.2513 H   0  0  0  0  0  0  0  0  0  0  0  0
  133.9811  136.3502  160.9233 H   0  0  0  0  0  0  0  0  0  0  0  0
  133.8812  138.6431  158.5406 H   0  0  0  0  0  0  0  0  0  0  0  0
  135.5780  140.4158  158.4011 H   0  0  0  0  0  0  0  0  0  0  0  0
  136.2267  141.6709  160.3934 H   0  0  0  0  0  0  0  0  0  0  0  0
  135.6908  141.9489  163.3513 H   0  0  0  0  0  0  0  0  0  0  0  0
  134.0433  140.6488  164.8945 H   0  0  0  0  0  0  0  0  0  0  0  0
  131.6899  138.3214  158.8433 H   0  0  0  0  0  0  0  0  0  0  0  0
  130.9866  139.1902  160.2287 H   0  0  0  0  0  0  0  0  0  0  0  0
  129.4712  137.3913  159.4257 H   0  0  0  0  0  0  0  0  0  0  0  0
  130.0350  137.0713  161.0834 H   0  0  0  0  0  0  0  0  0  0  0  0
  131.8689  133.1676  162.2037 H   0  0  0  0  0  0  0  0  0  0  0  0
  130.2693  134.2105  164.1006 H   0  0  0  0  0  0  0  0  0  0  0  0
  131.2296  132.7876  164.5565 H   0  0  0  0  0  0  0  0  0  0  0  0
  1 37  1  0
  1  2  2  0
  1 38  1  0
  2  3  1  0
  2 39  1  0
  3  4  1  0
  3 40  1  0
  3 41  1  0
  4  5  1  0
  4 36  2  0
  5 10  1  0
  5  6  2  0
  6  7  1  0
  6 42  1  0
  7  8  2  0
  7 43  1  0
  8  9  1  0
  8 44  1  0
  9 10  2  0
  9 45  1  0
 10 11  1  0
 11 12  1  1
 11 13  1  0
 11 19  1  0
 13 18  1  0
 13 14  2  0
 14 15  1  0
 14 46  1  0
 15 16  2  0
 15 47  1  0
 16 17  1  0
 16 48  1  0
 17 18  2  0
 17 49  1  0
 18 50  1  0
 19 20  1  0
 19 35  1  0
 19 21  1  0
 21 22  1  0
 21 51  1  0
 21 52  1  0
 22 23  1  0
 22 53  1  0
 22 54  1  0
 23 24  1  0
 23 34  1  0
 24 33  1  0
 24 25  2  0
 25 26  1  0
 25 55  1  0
 26 27  2  0
 26 56  1  0
 27 28  1  0
 27 57  1  0
 28 33  2  0
 28 29  1  0
 29 30  2  0
 29 58  1  0
 30 31  1  0
 30 59  1  0
 31 32  1  0
 31 33  1  0
 34 35  1  0
 34 60  1  0
 34 61  1  0
 35 62  1  0
 35 63  1  0
 36 37  1  0
 36 64  1  0
 37 65  1  0
 37 66  1  0
M  CHG  1  19   1
M  END
>  <DOCK_score>  (1) 
-59.029701

>  <SMILES>  (1) 
C1=CCC(c2ccccc2[C@H](c2ccccc2)[NH+]2CCN(c3cccc4cc[nH]c34)CC2)=CC1

$$$$
