O=C1CC[C@H](NC(NC2CC(F)(F)C2)=[NH+]C2COc3cc(-c4ccccc4)ccc3C2)CN1
     RDKit          3D

 62 66  0  0  1  0  0  0  0  0999 V2000
  123.8620  133.8504  161.7922 O   0  0  0  0  0  0  0  0  0  0  0  0
  125.0208  134.0623  161.5036 C   0  0  0  0  0  0  0  0  0  0  0  0
  125.8705  132.9003  161.0758 C   0  0  0  0  0  0  0  0  0  0  0  0
  127.3513  133.2739  161.1799 C   0  0  0  0  0  0  0  0  0  0  0  0
  127.5585  134.6295  160.4936 C   0  0  2  0  0  0  0  0  0  0  0  0
  127.1398  134.5980  159.4877 H   0  0  0  0  0  0  0  0  0  0  0  0
  128.9905  134.9296  160.4207 N   0  0  0  0  0  0  0  0  0  0  0  0
  129.7228  134.5260  159.3292 C   0  0  0  0  0  0  0  0  0  0  0  0
  129.1112  133.8408  158.3063 N   0  0  0  0  0  0  0  0  0  0  0  0
  129.8914  133.4108  157.1434 C   0  0  0  0  0  0  0  0  0  0  0  0
  129.2610  132.2347  156.3791 C   0  0  0  0  0  0  0  0  0  0  0  0
  130.6847  131.6748  156.2234 C   0  0  0  0  0  0  0  0  0  0  0  0
  131.3435  132.1302  155.0762 F   0  0  0  0  0  0  0  0  0  0  0  0
  130.7633  130.2870  156.3802 F   0  0  0  0  0  0  0  0  0  0  0  0
  131.0478  132.4599  157.4948 C   0  0  0  0  0  0  0  0  0  0  0  0
  130.9969  134.7930  159.2645 N   0  0  0  0  0  0  0  0  0  0  0  0
  131.4220  134.9233  158.4025 H   0  0  0  0  0  0  0  0  0  0  0  0
  131.7870  134.8965  160.4939 C   0  0  1  0  0  0  0  0  0  0  0  0
  132.9270  133.8704  160.4638 C   0  0  0  0  0  0  0  0  0  0  0  0
  133.6133  133.9234  161.7153 O   0  0  0  0  0  0  0  0  0  0  0  0
  133.9899  135.1425  162.1820 C   0  0  0  0  0  0  0  0  0  0  0  0
  134.9528  135.1983  163.1822 C   0  0  0  0  0  0  0  0  0  0  0  0
  135.3622  136.4268  163.6892 C   0  0  0  0  0  0  0  0  0  0  0  0
  136.3912  136.4872  164.7568 C   0  0  0  0  0  0  0  0  0  0  0  0
  136.3817  137.5320  165.6788 C   0  0  0  0  0  0  0  0  0  0  0  0
  137.3381  137.5804  166.6728 C   0  0  0  0  0  0  0  0  0  0  0  0
  138.3115  136.6006  166.7477 C   0  0  0  0  0  0  0  0  0  0  0  0
  138.3288  135.5642  165.8319 C   0  0  0  0  0  0  0  0  0  0  0  0
  137.3739  135.5027  164.8374 C   0  0  0  0  0  0  0  0  0  0  0  0
  134.8019  137.6013  163.1898 C   0  0  0  0  0  0  0  0  0  0  0  0
  133.8479  137.5383  162.1965 C   0  0  0  0  0  0  0  0  0  0  0  0
  133.4407  136.3143  161.6889 C   0  0  0  0  0  0  0  0  0  0  0  0
  132.4014  136.2946  160.5962 C   0  0  0  0  0  0  0  0  0  0  0  0
  126.8459  135.7068  161.3123 C   0  0  0  0  0  0  0  0  0  0  0  0
  125.4690  135.3138  161.5839 N   0  0  0  0  0  0  0  0  0  0  0  0
  125.6345  132.6396  160.0440 H   0  0  0  0  0  0  0  0  0  0  0  0
  125.6665  132.0456  161.7208 H   0  0  0  0  0  0  0  0  0  0  0  0
  127.6387  133.3459  162.2288 H   0  0  0  0  0  0  0  0  0  0  0  0
  127.9570  132.5149  160.6847 H   0  0  0  0  0  0  0  0  0  0  0  0
  129.4220  135.4133  161.1423 H   0  0  0  0  0  0  0  0  0  0  0  0
  128.1630  133.6420  158.3545 H   0  0  0  0  0  0  0  0  0  0  0  0
  130.1882  134.2409  156.5023 H   0  0  0  0  0  0  0  0  0  0  0  0
  128.6119  131.6118  156.9946 H   0  0  0  0  0  0  0  0  0  0  0  0
  128.8000  132.5244  155.4349 H   0  0  0  0  0  0  0  0  0  0  0  0
  132.0295  132.9317  157.4512 H   0  0  0  0  0  0  0  0  0  0  0  0
  130.8880  131.8997  158.4161 H   0  0  0  0  0  0  0  0  0  0  0  0
  131.1484  134.7110  161.3576 H   0  0  0  0  0  0  0  0  0  0  0  0
  132.5181  132.8717  160.3112 H   0  0  0  0  0  0  0  0  0  0  0  0
  133.6175  134.1124  159.6558 H   0  0  0  0  0  0  0  0  0  0  0  0
  135.3845  134.2859  163.5664 H   0  0  0  0  0  0  0  0  0  0  0  0
  135.6247  138.2999  165.6184 H   0  0  0  0  0  0  0  0  0  0  0  0
  137.3289  138.3872  167.3906 H   0  0  0  0  0  0  0  0  0  0  0  0
  139.0607  136.6448  167.5245 H   0  0  0  0  0  0  0  0  0  0  0  0
  139.0911  134.8017  165.8951 H   0  0  0  0  0  0  0  0  0  0  0  0
  137.3881  134.6928  164.1230 H   0  0  0  0  0  0  0  0  0  0  0  0
  135.1147  138.5586  163.5798 H   0  0  0  0  0  0  0  0  0  0  0  0
  133.4147  138.4493  161.8109 H   0  0  0  0  0  0  0  0  0  0  0  0
  132.8685  136.5557  159.6467 H   0  0  0  0  0  0  0  0  0  0  0  0
  131.6195  137.0185  160.8263 H   0  0  0  0  0  0  0  0  0  0  0  0
  127.3727  135.8494  162.2559 H   0  0  0  0  0  0  0  0  0  0  0  0
  126.8469  136.6430  160.7541 H   0  0  0  0  0  0  0  0  0  0  0  0
  124.8402  136.0071  161.8386 H   0  0  0  0  0  0  0  0  0  0  0  0
  1  2  2  0
  2 35  1  0
  2  3  1  0
  3  4  1  0
  3 36  1  0
  3 37  1  0
  4  5  1  0
  4 38  1  0
  4 39  1  0
  5  6  1  6
  5  7  1  0
  5 34  1  0
  7 40  1  0
  8  7  1  0
  8  9  1  0
  8 16  2  0
  9 10  1  0
  9 41  1  0
 10 15  1  0
 10 11  1  0
 10 42  1  0
 11 12  1  0
 11 43  1  0
 11 44  1  0
 12 13  1  0
 12 14  1  0
 12 15  1  0
 15 45  1  0
 15 46  1  0
 16 17  1  0
 16 18  1  0
 18 33  1  0
 18 19  1  0
 18 47  1  1
 19 20  1  0
 19 48  1  0
 19 49  1  0
 20 21  1  0
 21 32  2  0
 21 22  1  0
 22 23  2  0
 22 50  1  0
 23 24  1  0
 23 30  1  0
 24 29  1  0
 24 25  2  0
 25 26  1  0
 25 51  1  0
 26 27  2  0
 26 52  1  0
 27 28  1  0
 27 53  1  0
 28 29  2  0
 28 54  1  0
 29 55  1  0
 30 31  2  0
 30 56  1  0
 31 32  1  0
 31 57  1  0
 32 33  1  0
 33 58  1  0
 33 59  1  0
 34 35  1  0
 34 60  1  0
 34 61  1  0
 35 62  1  0
M  CHG  1  16   1
M  END
>  <DOCK_score>  (1) 
-51.980957

>  <SMILES>  (1) 
O=C1CC[C@H](NC(NC2CC(F)(F)C2)=[NH+]C2COc3cc(-c4ccccc4)ccc3C2)CN1

$$$$
