CCc1ccc(-c2c[nH]c(N[C@@H](Cc3ccc(N4CC=CC4)cc3)c3ccccc3)[nH+]2)cc1
     RDKit          3D

 64 68  0  0  1  0  0  0  0  0999 V2000
  130.5927  128.4358  151.6271 C   0  0  0  0  0  0  0  0  0  0  0  0
  131.6820  129.4458  151.9928 C   0  0  0  0  0  0  0  0  0  0  0  0
  131.2953  130.1661  153.2587 C   0  0  0  0  0  0  0  0  0  0  0  0
  131.6795  129.6560  154.4859 C   0  0  0  0  0  0  0  0  0  0  0  0
  131.3331  130.3139  155.6486 C   0  0  0  0  0  0  0  0  0  0  0  0
  130.5847  131.4882  155.5851 C   0  0  0  0  0  0  0  0  0  0  0  0
  130.2046  132.1967  156.8315 C   0  0  0  0  0  0  0  0  0  0  0  0
  129.4628  131.6859  157.8454 C   0  0  0  0  0  0  0  0  0  0  0  0
  129.3514  132.6728  158.7944 N   0  0  0  0  0  0  0  0  0  0  0  0
  128.8771  132.6078  159.6380 H   0  0  0  0  0  0  0  0  0  0  0  0
  130.0289  133.7588  158.3324 C   0  0  0  0  0  0  0  0  0  0  0  0
  130.1596  134.9686  158.9925 N   0  0  0  0  0  0  0  0  0  0  0  0
  129.1015  135.4284  159.8956 C   0  0  1  0  0  0  0  0  0  0  0  0
  128.9687  134.7032  160.6984 H   0  0  0  0  0  0  0  0  0  0  0  0
  129.4920  136.7827  160.4910 C   0  0  0  0  0  0  0  0  0  0  0  0
  130.7812  136.6411  161.2585 C   0  0  0  0  0  0  0  0  0  0  0  0
  131.0945  135.4384  161.8647 C   0  0  0  0  0  0  0  0  0  0  0  0
  132.2777  135.3035  162.5642 C   0  0  0  0  0  0  0  0  0  0  0  0
  133.1482  136.3811  162.6676 C   0  0  0  0  0  0  0  0  0  0  0  0
  134.3428  136.2502  163.3794 N   0  0  0  0  0  0  0  0  0  0  0  0
  135.5029  136.6512  162.5485 C   0  0  0  0  0  0  0  0  0  0  0  0
  136.4737  137.3041  163.5050 C   0  0  0  0  0  0  0  0  0  0  0  0
  135.8492  137.6211  164.6116 C   0  0  0  0  0  0  0  0  0  0  0  0
  134.3984  137.2120  164.5058 C   0  0  0  0  0  0  0  0  0  0  0  0
  132.8277  137.5896  162.0621 C   0  0  0  0  0  0  0  0  0  0  0  0
  131.6455  137.7159  161.3595 C   0  0  0  0  0  0  0  0  0  0  0  0
  127.8124  135.5699  159.1280 C   0  0  0  0  0  0  0  0  0  0  0  0
  126.6026  135.3716  159.7664 C   0  0  0  0  0  0  0  0  0  0  0  0
  125.4199  135.5057  159.0633 C   0  0  0  0  0  0  0  0  0  0  0  0
  125.4475  135.8290  157.7196 C   0  0  0  0  0  0  0  0  0  0  0  0
  126.6576  136.0222  157.0800 C   0  0  0  0  0  0  0  0  0  0  0  0
  127.8401  135.8925  157.7841 C   0  0  0  0  0  0  0  0  0  0  0  0
  130.5424  133.4686  157.1618 N   0  0  0  0  0  0  0  0  0  0  0  0
  131.0764  134.0681  156.6175 H   0  0  0  0  0  0  0  0  0  0  0  0
  130.1954  131.9943  154.3463 C   0  0  0  0  0  0  0  0  0  0  0  0
  130.5525  131.3311  153.1898 C   0  0  0  0  0  0  0  0  0  0  0  0
  130.8724  127.9153  150.7113 H   0  0  0  0  0  0  0  0  0  0  0  0
  130.4811  127.7137  152.4360 H   0  0  0  0  0  0  0  0  0  0  0  0
  129.6487  128.9588  151.4741 H   0  0  0  0  0  0  0  0  0  0  0  0
  132.6261  128.9236  152.1455 H   0  0  0  0  0  0  0  0  0  0  0  0
  131.7935  130.1684  151.1837 H   0  0  0  0  0  0  0  0  0  0  0  0
  132.2552  128.7436  154.5340 H   0  0  0  0  0  0  0  0  0  0  0  0
  131.6377  129.9175  156.6058 H   0  0  0  0  0  0  0  0  0  0  0  0
  129.0403  130.6933  157.8966 H   0  0  0  0  0  0  0  0  0  0  0  0
  130.9517  135.5120  158.8571 H   0  0  0  0  0  0  0  0  0  0  0  0
  129.6248  137.5078  159.6880 H   0  0  0  0  0  0  0  0  0  0  0  0
  128.7048  137.1246  161.1628 H   0  0  0  0  0  0  0  0  0  0  0  0
  130.4150  134.6025  161.7879 H   0  0  0  0  0  0  0  0  0  0  0  0
  132.5239  134.3628  163.0338 H   0  0  0  0  0  0  0  0  0  0  0  0
  135.9586  135.7746  162.0879 H   0  0  0  0  0  0  0  0  0  0  0  0
  135.1914  137.3619  161.7830 H   0  0  0  0  0  0  0  0  0  0  0  0
  137.5205  137.4814  163.3069 H   0  0  0  0  0  0  0  0  0  0  0  0
  136.3011  138.1009  165.4673 H   0  0  0  0  0  0  0  0  0  0  0  0
  133.7758  138.0808  164.2915 H   0  0  0  0  0  0  0  0  0  0  0  0
  134.0716  136.7323  165.4284 H   0  0  0  0  0  0  0  0  0  0  0  0
  133.5024  138.4292  162.1404 H   0  0  0  0  0  0  0  0  0  0  0  0
  131.3958  138.6549  160.8881 H   0  0  0  0  0  0  0  0  0  0  0  0
  126.5811  135.1152  160.8153 H   0  0  0  0  0  0  0  0  0  0  0  0
  124.4745  135.3551  159.5632 H   0  0  0  0  0  0  0  0  0  0  0  0
  124.5236  135.9313  157.1697 H   0  0  0  0  0  0  0  0  0  0  0  0
  126.6791  136.2750  156.0302 H   0  0  0  0  0  0  0  0  0  0  0  0
  128.7856  136.0434  157.2842 H   0  0  0  0  0  0  0  0  0  0  0  0
  129.6153  132.9036  154.2912 H   0  0  0  0  0  0  0  0  0  0  0  0
  130.2512  131.7220  152.2293 H   0  0  0  0  0  0  0  0  0  0  0  0
  1  2  1  0
  1 37  1  0
  1 38  1  0
  1 39  1  0
  2  3  1  0
  2 40  1  0
  2 41  1  0
  3 36  2  0
  3  4  1  0
  4  5  2  0
  4 42  1  0
  5  6  1  0
  5 43  1  0
  6  7  1  0
  6 35  2  0
  7 33  1  0
  7  8  2  0
  8  9  1  0
  8 44  1  0
  9 10  1  0
  9 11  1  0
 11 12  1  0
 11 33  2  0
 12 13  1  0
 12 45  1  0
 13 14  1  1
 13 15  1  0
 13 27  1  0
 15 16  1  0
 15 46  1  0
 15 47  1  0
 16 26  1  0
 16 17  2  0
 17 18  1  0
 17 48  1  0
 18 19  2  0
 18 49  1  0
 19 20  1  0
 19 25  1  0
 20 24  1  0
 20 21  1  0
 21 22  1  0
 21 50  1  0
 21 51  1  0
 22 23  2  0
 22 52  1  0
 23 24  1  0
 23 53  1  0
 24 54  1  0
 24 55  1  0
 25 26  2  0
 25 56  1  0
 26 57  1  0
 27 32  1  0
 27 28  2  0
 28 29  1  0
 28 58  1  0
 29 30  2  0
 29 59  1  0
 30 31  1  0
 30 60  1  0
 31 32  2  0
 31 61  1  0
 32 62  1  0
 33 34  1  0
 35 36  1  0
 35 63  1  0
 36 64  1  0
M  CHG  1  33   1
M  END
>  <DOCK_score>  (1) 
-63.869942

>  <SMILES>  (1) 
CCc1ccc(-c2c[nH]c(N[C@@H](Cc3ccc(N4CC=CC4)cc3)c3ccccc3)[nH+]2)cc1

$$$$
