CCc1ccc(-c2c[nH]c(Nc3cccc4c3C[C@H](O)CC4)[nH+]2)cc1
     RDKit          3D

 49 52  0  0  1  0  0  0  0  0999 V2000
  129.7264  129.4641  151.3333 C   0  0  0  0  0  0  0  0  0  0  0  0
  131.1155  129.7595  151.9031 C   0  0  0  0  0  0  0  0  0  0  0  0
  130.9752  130.4410  153.2399 C   0  0  0  0  0  0  0  0  0  0  0  0
  130.9147  129.6844  154.3962 C   0  0  0  0  0  0  0  0  0  0  0  0
  130.7861  130.3034  155.6229 C   0  0  0  0  0  0  0  0  0  0  0  0
  130.7172  131.6935  155.6954 C   0  0  0  0  0  0  0  0  0  0  0  0
  130.5790  132.3645  157.0110 C   0  0  0  0  0  0  0  0  0  0  0  0
  129.9614  131.8551  158.1059 C   0  0  0  0  0  0  0  0  0  0  0  0
  130.0691  132.7975  159.0989 N   0  0  0  0  0  0  0  0  0  0  0  0
  129.7270  132.7207  160.0033 H   0  0  0  0  0  0  0  0  0  0  0  0
  130.7417  133.8605  158.5788 C   0  0  0  0  0  0  0  0  0  0  0  0
  131.0562  135.0267  159.2571 N   0  0  0  0  0  0  0  0  0  0  0  0
  131.2725  134.9954  160.6377 C   0  0  0  0  0  0  0  0  0  0  0  0
  132.5496  134.7743  161.1305 C   0  0  0  0  0  0  0  0  0  0  0  0
  132.7607  134.7452  162.4948 C   0  0  0  0  0  0  0  0  0  0  0  0
  131.7005  134.9339  163.3582 C   0  0  0  0  0  0  0  0  0  0  0  0
  130.4183  135.1533  162.8702 C   0  0  0  0  0  0  0  0  0  0  0  0
  130.2021  135.1876  161.5119 C   0  0  0  0  0  0  0  0  0  0  0  0
  128.8413  135.4283  160.9129 C   0  0  0  0  0  0  0  0  0  0  0  0
  127.7468  135.1837  161.9498 C   0  0  2  0  0  0  0  0  0  0  0  0
  127.6972  134.1214  162.1884 H   0  0  0  0  0  0  0  0  0  0  0  0
  126.4879  135.6202  161.4330 O   0  0  0  0  0  0  0  0  0  0  0  0
  128.0910  135.9815  163.2132 C   0  0  0  0  0  0  0  0  0  0  0  0
  129.3089  135.3374  163.8725 C   0  0  0  0  0  0  0  0  0  0  0  0
  131.0476  133.5962  157.3320 N   0  0  0  0  0  0  0  0  0  0  0  0
  131.5320  134.1870  156.7343 H   0  0  0  0  0  0  0  0  0  0  0  0
  130.7730  132.4506  154.5265 C   0  0  0  0  0  0  0  0  0  0  0  0
  130.9075  131.8212  153.3057 C   0  0  0  0  0  0  0  0  0  0  0  0
  129.1836  128.8127  152.0183 H   0  0  0  0  0  0  0  0  0  0  0  0
  129.1785  130.3981  151.2092 H   0  0  0  0  0  0  0  0  0  0  0  0
  129.8277  128.9709  150.3666 H   0  0  0  0  0  0  0  0  0  0  0  0
  131.6582  130.4108  151.2182 H   0  0  0  0  0  0  0  0  0  0  0  0
  131.6631  128.8254  152.0273 H   0  0  0  0  0  0  0  0  0  0  0  0
  130.9684  128.6073  154.3389 H   0  0  0  0  0  0  0  0  0  0  0  0
  130.7384  129.7116  156.5252 H   0  0  0  0  0  0  0  0  0  0  0  0
  129.4816  130.8906  158.1835 H   0  0  0  0  0  0  0  0  0  0  0  0
  131.1264  135.8649  158.7742 H   0  0  0  0  0  0  0  0  0  0  0  0
  133.3751  134.6251  160.4505 H   0  0  0  0  0  0  0  0  0  0  0  0
  133.7532  134.5756  162.8854 H   0  0  0  0  0  0  0  0  0  0  0  0
  131.8695  134.9109  164.4247 H   0  0  0  0  0  0  0  0  0  0  0  0
  128.6951  134.7530  160.0699 H   0  0  0  0  0  0  0  0  0  0  0  0
  128.7802  136.4585  160.5620 H   0  0  0  0  0  0  0  0  0  0  0  0
  126.4650  136.5564  161.1922 H   0  0  0  0  0  0  0  0  0  0  0  0
  128.3210  137.0126  162.9450 H   0  0  0  0  0  0  0  0  0  0  0  0
  127.2466  135.9603  163.9020 H   0  0  0  0  0  0  0  0  0  0  0  0
  129.6592  135.9769  164.6827 H   0  0  0  0  0  0  0  0  0  0  0  0
  129.0263  134.3661  164.2784 H   0  0  0  0  0  0  0  0  0  0  0  0
  130.7156  133.5279  154.5764 H   0  0  0  0  0  0  0  0  0  0  0  0
  130.9553  132.4070  152.3996 H   0  0  0  0  0  0  0  0  0  0  0  0
  1  2  1  0
  1 29  1  0
  1 30  1  0
  1 31  1  0
  2  3  1  0
  2 32  1  0
  2 33  1  0
  3 28  2  0
  3  4  1  0
  4  5  2  0
  4 34  1  0
  5  6  1  0
  5 35  1  0
  6  7  1  0
  6 27  2  0
  7 25  1  0
  7  8  2  0
  8  9  1  0
  8 36  1  0
  9 10  1  0
  9 11  1  0
 11 12  1  0
 11 25  2  0
 12 13  1  0
 12 37  1  0
 13 18  1  0
 13 14  2  0
 14 15  1  0
 14 38  1  0
 15 16  2  0
 15 39  1  0
 16 17  1  0
 16 40  1  0
 17 24  1  0
 17 18  2  0
 18 19  1  0
 19 20  1  0
 19 41  1  0
 19 42  1  0
 20 21  1  1
 20 22  1  0
 20 23  1  0
 22 43  1  0
 23 24  1  0
 23 44  1  0
 23 45  1  0
 24 46  1  0
 24 47  1  0
 25 26  1  0
 27 28  1  0
 27 48  1  0
 28 49  1  0
M  CHG  1  25   1
M  END
>  <DOCK_score>  (1) 
-50.153038

>  <SMILES>  (1) 
CCc1ccc(-c2c[nH]c(Nc3cccc4c3C[C@H](O)CC4)[nH+]2)cc1

$$$$
