CC(C)n1cc([C@H]2[NH2+][C@H](CO)Cc3c2[nH]c2ccc(O)cc32)c(Br)n1
     RDKit          3D

 47 50  0  0  1  0  0  0  0  0999 V2000
  130.2780  132.8549  153.3974 C   0  0  0  0  0  0  0  0  0  0  0  0
  129.9949  131.4865  154.0201 C   0  0  0  0  0  0  0  0  0  0  0  0
  130.9350  130.4444  153.4107 C   0  0  0  0  0  0  0  0  0  0  0  0
  130.2129  131.5539  155.4673 N   0  0  0  0  0  0  0  0  0  0  0  0
  130.0439  132.6434  156.2455 C   0  0  0  0  0  0  0  0  0  0  0  0
  130.3462  132.2933  157.5170 C   0  0  0  0  0  0  0  0  0  0  0  0
  130.2974  133.1979  158.7213 C   0  0  1  0  0  0  0  0  0  0  0  0
  131.0416  132.8771  159.4502 H   0  0  0  0  0  0  0  0  0  0  0  0
  130.5740  134.5829  158.3100 N   0  0  0  0  0  0  0  0  0  0  0  0
  131.5312  134.6547  157.9992 H   0  0  0  0  0  0  0  0  0  0  0  0
  129.9584  134.8358  157.5515 H   0  0  0  0  0  0  0  0  0  0  0  0
  130.3584  135.4988  159.4380 C   0  0  2  0  0  0  0  0  0  0  0  0
  130.7734  136.4772  159.1960 H   0  0  0  0  0  0  0  0  0  0  0  0
  131.0522  134.9449  160.6842 C   0  0  0  0  0  0  0  0  0  0  0  0
  132.3159  134.3877  160.3176 O   0  0  0  0  0  0  0  0  0  0  0  0
  128.8533  135.6345  159.7083 C   0  0  0  0  0  0  0  0  0  0  0  0
  128.2706  134.2454  159.7827 C   0  0  0  0  0  0  0  0  0  0  0  0
  128.9221  133.1411  159.3425 C   0  0  0  0  0  0  0  0  0  0  0  0
  128.1449  132.0368  159.5435 N   0  0  0  0  0  0  0  0  0  0  0  0
  128.3956  131.1291  159.3106 H   0  0  0  0  0  0  0  0  0  0  0  0
  126.9616  132.4019  160.1249 C   0  0  0  0  0  0  0  0  0  0  0  0
  125.8532  131.6584  160.5239 C   0  0  0  0  0  0  0  0  0  0  0  0
  124.7986  132.3515  161.0908 C   0  0  0  0  0  0  0  0  0  0  0  0
  124.8262  133.7302  161.2628 C   0  0  0  0  0  0  0  0  0  0  0  0
  123.7544  134.3475  161.8279 O   0  0  0  0  0  0  0  0  0  0  0  0
  125.9169  134.4939  160.8746 C   0  0  0  0  0  0  0  0  0  0  0  0
  126.9930  133.8100  160.2991 C   0  0  0  0  0  0  0  0  0  0  0  0
  130.7126  130.9425  157.5161 C   0  0  0  0  0  0  0  0  0  0  0  0
  131.2319  129.9332  159.0284 Br  0  0  0  0  0  0  0  0  0  0  0  0
  130.6274  130.4972  156.2881 N   0  0  0  0  0  0  0  0  0  0  0  0
  131.3118  133.1379  153.5962 H   0  0  0  0  0  0  0  0  0  0  0  0
  130.1158  132.8048  152.3206 H   0  0  0  0  0  0  0  0  0  0  0  0
  129.6082  133.5973  153.8314 H   0  0  0  0  0  0  0  0  0  0  0  0
  128.9612  131.2036  153.8212 H   0  0  0  0  0  0  0  0  0  0  0  0
  130.7332  129.4695  153.8545 H   0  0  0  0  0  0  0  0  0  0  0  0
  130.7727  130.3942  152.3340 H   0  0  0  0  0  0  0  0  0  0  0  0
  131.9687  130.7273  153.6096 H   0  0  0  0  0  0  0  0  0  0  0  0
  129.7251  133.6201  155.9128 H   0  0  0  0  0  0  0  0  0  0  0  0
  131.2048  135.7500  161.4031 H   0  0  0  0  0  0  0  0  0  0  0  0
  130.4299  134.1705  161.1325 H   0  0  0  0  0  0  0  0  0  0  0  0
  132.9225  135.0219  159.9115 H   0  0  0  0  0  0  0  0  0  0  0  0
  128.6933  136.1529  160.6536 H   0  0  0  0  0  0  0  0  0  0  0  0
  128.3816  136.1906  158.8982 H   0  0  0  0  0  0  0  0  0  0  0  0
  125.8186  130.5867  160.3959 H   0  0  0  0  0  0  0  0  0  0  0  0
  123.9248  131.8029  161.4098 H   0  0  0  0  0  0  0  0  0  0  0  0
  123.8518  135.3058  161.9122 H   0  0  0  0  0  0  0  0  0  0  0  0
  125.9345  135.5653  161.0099 H   0  0  0  0  0  0  0  0  0  0  0  0
  1  2  1  0
  1 31  1  0
  1 32  1  0
  1 33  1  0
  2  3  1  0
  2  4  1  0
  2 34  1  0
  3 35  1  0
  3 36  1  0
  3 37  1  0
  4 30  1  0
  4  5  1  0
  5  6  2  0
  5 38  1  0
  6  7  1  0
  6 28  1  0
  7  8  1  1
  7 18  1  0
  7  9  1  0
  9 10  1  0
  9 11  1  0
  9 12  1  0
 12 13  1  6
 12 14  1  0
 12 16  1  0
 14 15  1  0
 14 39  1  0
 14 40  1  0
 15 41  1  0
 16 17  1  0
 16 42  1  0
 16 43  1  0
 17 27  1  0
 17 18  2  0
 18 19  1  0
 19 20  1  0
 19 21  1  0
 21 27  2  0
 21 22  1  0
 22 23  2  0
 22 44  1  0
 23 24  1  0
 23 45  1  0
 24 25  1  0
 24 26  2  0
 25 46  1  0
 26 27  1  0
 26 47  1  0
 28 29  1  0
 28 30  2  0
M  CHG  1   9   1
M  END
>  <DOCK_score>  (1) 
-53.901978

>  <SMILES>  (1) 
CC(C)n1cc([C@H]2[NH2+][C@H](CO)Cc3c2[nH]c2ccc(O)cc32)c(Br)n1

$$$$
