O=C1CC[C@H](NC(NC2CCC2)=[NH+]C2CC(Cl)(Cl)C2)CN1
     RDKit          3D

 44 46  0  0  1  0  0  0  0  0999 V2000
  123.6657  133.5952  161.7313 O   0  0  0  0  0  0  0  0  0  0  0  0
  124.8068  133.9196  161.4792 C   0  0  0  0  0  0  0  0  0  0  0  0
  125.7931  132.8406  161.1354 C   0  0  0  0  0  0  0  0  0  0  0  0
  127.2205  133.3736  161.2821 C   0  0  0  0  0  0  0  0  0  0  0  0
  127.3146  134.7160  160.5468 C   0  0  2  0  0  0  0  0  0  0  0  0
  126.9490  134.6005  159.5265 H   0  0  0  0  0  0  0  0  0  0  0  0
  128.7085  135.1658  160.5215 N   0  0  0  0  0  0  0  0  0  0  0  0
  129.5296  134.8016  159.4807 C   0  0  0  0  0  0  0  0  0  0  0  0
  129.0426  134.0153  158.4635 N   0  0  0  0  0  0  0  0  0  0  0  0
  129.9178  133.6273  157.3545 C   0  0  0  0  0  0  0  0  0  0  0  0
  129.4507  132.3628  156.6144 C   0  0  0  0  0  0  0  0  0  0  0  0
  130.9330  131.9529  156.5454 C   0  0  0  0  0  0  0  0  0  0  0  0
  131.1508  132.8213  157.7958 C   0  0  0  0  0  0  0  0  0  0  0  0
  130.7699  135.2019  159.4582 N   0  0  0  0  0  0  0  0  0  0  0  0
  131.2185  135.3438  158.6100 H   0  0  0  0  0  0  0  0  0  0  0  0
  131.4863  135.4376  160.7142 C   0  0  0  0  0  0  0  0  0  0  0  0
  131.8256  136.9168  160.9616 C   0  0  0  0  0  0  0  0  0  0  0  0
  133.1852  136.4323  161.4974 C   0  0  0  0  0  0  0  0  0  0  0  0
  133.1767  136.0755  163.2648 Cl  0  0  0  0  0  0  0  0  0  0  0  0
  134.5733  137.4695  160.9992 Cl  0  0  0  0  0  0  0  0  0  0  0  0
  133.0002  135.1856  160.6164 C   0  0  0  0  0  0  0  0  0  0  0  0
  126.4577  135.7420  161.2893 C   0  0  0  0  0  0  0  0  0  0  0  0
  125.1188  135.2155  161.5226 N   0  0  0  0  0  0  0  0  0  0  0  0
  125.6315  132.5166  160.1072 H   0  0  0  0  0  0  0  0  0  0  0  0
  125.6515  131.9947  161.8080 H   0  0  0  0  0  0  0  0  0  0  0  0
  127.9235  132.6651  160.8440 H   0  0  0  0  0  0  0  0  0  0  0  0
  127.4522  133.5162  162.3376 H   0  0  0  0  0  0  0  0  0  0  0  0
  129.0522  135.7206  161.2392 H   0  0  0  0  0  0  0  0  0  0  0  0
  128.1196  133.7175  158.4801 H   0  0  0  0  0  0  0  0  0  0  0  0
  130.1545  134.4592  156.6911 H   0  0  0  0  0  0  0  0  0  0  0  0
  128.8419  131.6979  157.2273 H   0  0  0  0  0  0  0  0  0  0  0  0
  129.0071  132.5661  155.6398 H   0  0  0  0  0  0  0  0  0  0  0  0
  131.4471  132.3261  155.6597 H   0  0  0  0  0  0  0  0  0  0  0  0
  131.1029  130.8899  156.7171 H   0  0  0  0  0  0  0  0  0  0  0  0
  132.0780  133.3942  157.7734 H   0  0  0  0  0  0  0  0  0  0  0  0
  131.0078  132.2821  158.7323 H   0  0  0  0  0  0  0  0  0  0  0  0
  131.0166  134.9486  161.5676 H   0  0  0  0  0  0  0  0  0  0  0  0
  131.9014  137.5062  160.0478 H   0  0  0  0  0  0  0  0  0  0  0  0
  131.1993  137.3877  161.7193 H   0  0  0  0  0  0  0  0  0  0  0  0
  133.3208  134.2607  161.0957 H   0  0  0  0  0  0  0  0  0  0  0  0
  133.3975  135.2994  159.6078 H   0  0  0  0  0  0  0  0  0  0  0  0
  126.9244  135.9764  162.2462 H   0  0  0  0  0  0  0  0  0  0  0  0
  126.3882  136.6521  160.6935 H   0  0  0  0  0  0  0  0  0  0  0  0
  124.4102  135.8472  161.7220 H   0  0  0  0  0  0  0  0  0  0  0  0
  1  2  2  0
  2 23  1  0
  2  3  1  0
  3  4  1  0
  3 24  1  0
  3 25  1  0
  4  5  1  0
  4 26  1  0
  4 27  1  0
  5  6  1  6
  5  7  1  0
  5 22  1  0
  7 28  1  0
  8  7  1  0
  8  9  1  0
  8 14  2  0
  9 10  1  0
  9 29  1  0
 10 13  1  0
 10 11  1  0
 10 30  1  0
 11 12  1  0
 11 31  1  0
 11 32  1  0
 12 13  1  0
 12 33  1  0
 12 34  1  0
 13 35  1  0
 13 36  1  0
 14 15  1  0
 14 16  1  0
 16 21  1  0
 16 17  1  0
 16 37  1  0
 17 18  1  0
 17 38  1  0
 17 39  1  0
 18 19  1  0
 18 20  1  0
 18 21  1  0
 21 40  1  0
 21 41  1  0
 22 23  1  0
 22 42  1  0
 22 43  1  0
 23 44  1  0
M  CHG  1  14   1
M  END
>  <DOCK_score>  (1) 
-45.906246

>  <SMILES>  (1) 
O=C1CC[C@H](NC(NC2CCC2)=[NH+]C2CC(Cl)(Cl)C2)CN1

$$$$
