O[C@H](c1ccc(Cl)cc1Nc1ncc(Nc2[nH]cc(C3=CCC=CC3)[nH+]2)cn1)C1CC(F)C1
     RDKit          3D

 58 62  0  0  1  0  0  0  0  0999 V2000
  126.7090  137.6119  162.6558 O   0  0  0  0  0  0  0  0  0  0  0  0
  127.5060  138.1137  163.7305 C   0  0  2  0  0  0  0  0  0  0  0  0
  128.5398  138.2143  163.4000 H   0  0  0  0  0  0  0  0  0  0  0  0
  127.4412  137.1570  164.8932 C   0  0  0  0  0  0  0  0  0  0  0  0
  126.2265  136.8696  165.4848 C   0  0  0  0  0  0  0  0  0  0  0  0
  126.1665  135.9969  166.5553 C   0  0  0  0  0  0  0  0  0  0  0  0
  127.3220  135.4042  167.0344 C   0  0  0  0  0  0  0  0  0  0  0  0
  127.2417  134.3091  168.3791 Cl  0  0  0  0  0  0  0  0  0  0  0  0
  128.5393  135.6831  166.4428 C   0  0  0  0  0  0  0  0  0  0  0  0
  128.6020  136.5595  165.3670 C   0  0  0  0  0  0  0  0  0  0  0  0
  129.8316  136.8440  164.7661 N   0  0  0  0  0  0  0  0  0  0  0  0
  130.0289  136.5618  163.4216 C   0  0  0  0  0  0  0  0  0  0  0  0
  129.0386  136.0278  162.7229 N   0  0  0  0  0  0  0  0  0  0  0  0
  129.1881  135.7505  161.4385 C   0  0  0  0  0  0  0  0  0  0  0  0
  130.4097  136.0167  160.8260 C   0  0  0  0  0  0  0  0  0  0  0  0
  130.6086  135.7321  159.4686 N   0  0  0  0  0  0  0  0  0  0  0  0
  130.4771  134.4332  159.0070 C   0  0  0  0  0  0  0  0  0  0  0  0
  130.1656  133.3488  159.7692 N   0  0  0  0  0  0  0  0  0  0  0  0
  129.9968  133.3477  160.7244 H   0  0  0  0  0  0  0  0  0  0  0  0
  130.1311  132.2581  158.9365 C   0  0  0  0  0  0  0  0  0  0  0  0
  130.4306  132.7051  157.6889 C   0  0  0  0  0  0  0  0  0  0  0  0
  130.5159  131.8802  156.4664 C   0  0  0  0  0  0  0  0  0  0  0  0
  130.2276  132.4349  155.3089 C   0  0  0  0  0  0  0  0  0  0  0  0
  130.2858  131.6807  154.0143 C   0  0  0  0  0  0  0  0  0  0  0  0
  131.1284  130.4478  154.1426 C   0  0  0  0  0  0  0  0  0  0  0  0
  131.4120  129.9004  155.2843 C   0  0  0  0  0  0  0  0  0  0  0  0
  130.9333  130.4458  156.5935 C   0  0  0  0  0  0  0  0  0  0  0  0
  130.6377  134.0448  157.7656 N   0  0  0  0  0  0  0  0  0  0  0  0
  130.8681  134.6219  157.0208 H   0  0  0  0  0  0  0  0  0  0  0  0
  131.4285  136.5728  161.5944 C   0  0  0  0  0  0  0  0  0  0  0  0
  131.2041  136.8284  162.8726 N   0  0  0  0  0  0  0  0  0  0  0  0
  126.9742  139.4809  164.1647 C   0  0  2  0  0  0  0  0  0  0  0  0
  127.0516  140.5505  163.0623 C   0  0  0  0  0  0  0  0  0  0  0  0
  127.4797  141.5385  164.1626 C   0  0  2  0  0  0  0  0  0  0  0  0
  128.4899  142.4202  163.7635 F   0  0  0  0  0  0  0  0  0  0  0  0
  127.9985  140.3209  164.9457 C   0  0  0  0  0  0  0  0  0  0  0  0
  125.7751  137.4971  162.8790 H   0  0  0  0  0  0  0  0  0  0  0  0
  125.3232  137.3302  165.1131 H   0  0  0  0  0  0  0  0  0  0  0  0
  125.2161  135.7776  167.0191 H   0  0  0  0  0  0  0  0  0  0  0  0
  129.4408  135.2200  166.8162 H   0  0  0  0  0  0  0  0  0  0  0  0
  130.5484  137.2351  165.2897 H   0  0  0  0  0  0  0  0  0  0  0  0
  128.3752  135.3192  160.8734 H   0  0  0  0  0  0  0  0  0  0  0  0
  130.8383  136.4450  158.8523 H   0  0  0  0  0  0  0  0  0  0  0  0
  129.9118  131.2392  159.2196 H   0  0  0  0  0  0  0  0  0  0  0  0
  129.9376  133.4751  155.2903 H   0  0  0  0  0  0  0  0  0  0  0  0
  129.2757  131.3941  153.7219 H   0  0  0  0  0  0  0  0  0  0  0  0
  130.7113  132.3246  153.2446 H   0  0  0  0  0  0  0  0  0  0  0  0
  131.5171  129.9938  153.2431 H   0  0  0  0  0  0  0  0  0  0  0  0
  132.0258  129.0118  155.2910 H   0  0  0  0  0  0  0  0  0  0  0  0
  131.7350  130.3710  157.3284 H   0  0  0  0  0  0  0  0  0  0  0  0
  130.0827  129.8548  156.9329 H   0  0  0  0  0  0  0  0  0  0  0  0
  132.3892  136.7930  161.1526 H   0  0  0  0  0  0  0  0  0  0  0  0
  125.9989  139.4217  164.6479 H   0  0  0  0  0  0  0  0  0  0  0  0
  127.8277  140.3585  162.3216 H   0  0  0  0  0  0  0  0  0  0  0  0
  126.0864  140.7861  162.6140 H   0  0  0  0  0  0  0  0  0  0  0  0
  126.6422  142.0430  164.6446 H   0  0  0  0  0  0  0  0  0  0  0  0
  127.7968  140.3715  166.0156 H   0  0  0  0  0  0  0  0  0  0  0  0
  129.0342  140.0652  164.7218 H   0  0  0  0  0  0  0  0  0  0  0  0
  1  2  1  0
  1 37  1  0
  2  3  1  6
  2  4  1  0
  2 32  1  0
  4 10  1  0
  4  5  2  0
  5  6  1  0
  5 38  1  0
  6  7  2  0
  6 39  1  0
  7  8  1  0
  7  9  1  0
  9 10  2  0
  9 40  1  0
 10 11  1  0
 11 12  1  0
 11 41  1  0
 12 31  1  0
 12 13  2  0
 13 14  1  0
 14 15  2  0
 14 42  1  0
 15 16  1  0
 15 30  1  0
 16 43  1  0
 17 16  1  0
 17 28  2  0
 17 18  1  0
 18 19  1  0
 18 20  1  0
 20 21  2  0
 20 44  1  0
 21 22  1  0
 21 28  1  0
 22 27  1  0
 22 23  2  0
 23 24  1  0
 23 45  1  0
 24 25  1  0
 24 46  1  0
 24 47  1  0
 25 26  2  0
 25 48  1  0
 26 27  1  0
 26 49  1  0
 27 50  1  0
 27 51  1  0
 28 29  1  0
 30 31  2  0
 30 52  1  0
 32 36  1  0
 32 33  1  0
 32 53  1  1
 33 34  1  0
 33 54  1  0
 33 55  1  0
 34 35  1  0
 34 36  1  0
 34 56  1  1
 36 57  1  0
 36 58  1  0
M  CHG  1  28   1
M  END
>  <DOCK_score>  (1) 
-52.668674

>  <SMILES>  (1) 
O[C@H](c1ccc(Cl)cc1Nc1ncc(Nc2[nH]cc(C3=CCC=CC3)[nH+]2)cn1)C1CC(F)C1

$$$$
