CCc1ccc(-c2c[nH]c(N[C@@H](CCC3=CCCCC3)c3ccccc3)[nH+]2)cc1
     RDKit          3D

 61 64  0  0  1  0  0  0  0  0999 V2000
  130.1832  128.2078  151.7857 C   0  0  0  0  0  0  0  0  0  0  0  0
  131.2205  129.3269  151.8947 C   0  0  0  0  0  0  0  0  0  0  0  0
  130.9751  130.1185  153.1534 C   0  0  0  0  0  0  0  0  0  0  0  0
  131.5927  129.7459  154.3331 C   0  0  0  0  0  0  0  0  0  0  0  0
  131.3754  130.4700  155.4877 C   0  0  0  0  0  0  0  0  0  0  0  0
  130.5233  131.5727  155.4656 C   0  0  0  0  0  0  0  0  0  0  0  0
  130.2818  132.3519  156.7044 C   0  0  0  0  0  0  0  0  0  0  0  0
  129.7585  131.8719  157.8597 C   0  0  0  0  0  0  0  0  0  0  0  0
  129.7100  132.9234  158.7424 N   0  0  0  0  0  0  0  0  0  0  0  0
  129.3827  132.8927  159.6551 H   0  0  0  0  0  0  0  0  0  0  0  0
  130.2055  134.0162  158.1001 C   0  0  0  0  0  0  0  0  0  0  0  0
  130.3288  135.2837  158.6429 N   0  0  0  0  0  0  0  0  0  0  0  0
  129.9066  135.5335  160.0234 C   0  0  1  0  0  0  0  0  0  0  0  0
  130.4815  134.9005  160.6994 H   0  0  0  0  0  0  0  0  0  0  0  0
  130.1480  137.0036  160.3724 C   0  0  0  0  0  0  0  0  0  0  0  0
  131.6244  137.2102  160.7162 C   0  0  0  0  0  0  0  0  0  0  0  0
  131.9910  136.3470  161.8959 C   0  0  0  0  0  0  0  0  0  0  0  0
  132.9209  135.4611  161.7340 C   0  0  0  0  0  0  0  0  0  0  0  0
  133.3897  134.5278  162.8114 C   0  0  0  0  0  0  0  0  0  0  0  0
  132.9358  135.0331  164.1826 C   0  0  0  0  0  0  0  0  0  0  0  0
  131.4387  135.3593  164.1083 C   0  0  0  0  0  0  0  0  0  0  0  0
  131.2513  136.5639  163.1834 C   0  0  0  0  0  0  0  0  0  0  0  0
  128.4399  135.2178  160.1651 C   0  0  0  0  0  0  0  0  0  0  0  0
  127.9436  134.7667  161.3739 C   0  0  0  0  0  0  0  0  0  0  0  0
  126.5975  134.4812  161.5051 C   0  0  0  0  0  0  0  0  0  0  0  0
  125.7492  134.6382  160.4249 C   0  0  0  0  0  0  0  0  0  0  0  0
  126.2464  135.0842  159.2147 C   0  0  0  0  0  0  0  0  0  0  0  0
  127.5918  135.3738  159.0847 C   0  0  0  0  0  0  0  0  0  0  0  0
  130.5507  133.6695  156.8841 N   0  0  0  0  0  0  0  0  0  0  0  0
  130.9354  134.2610  156.2185 H   0  0  0  0  0  0  0  0  0  0  0  0
  129.8994  131.9408  154.2749 C   0  0  0  0  0  0  0  0  0  0  0  0
  130.1281  131.2125  153.1252 C   0  0  0  0  0  0  0  0  0  0  0  0
  130.2667  127.5499  152.6508 H   0  0  0  0  0  0  0  0  0  0  0  0
  129.1834  128.6406  151.7536 H   0  0  0  0  0  0  0  0  0  0  0  0
  130.3608  127.6352  150.8753 H   0  0  0  0  0  0  0  0  0  0  0  0
  132.2202  128.8946  151.9266 H   0  0  0  0  0  0  0  0  0  0  0  0
  131.1368  129.9853  151.0293 H   0  0  0  0  0  0  0  0  0  0  0  0
  132.2495  128.8886  154.3501 H   0  0  0  0  0  0  0  0  0  0  0  0
  131.8620  130.1806  156.4075 H   0  0  0  0  0  0  0  0  0  0  0  0
  129.4405  130.8575  158.0495 H   0  0  0  0  0  0  0  0  0  0  0  0
  130.6945  136.0063  158.1094 H   0  0  0  0  0  0  0  0  0  0  0  0
  129.8828  137.6278  159.5191 H   0  0  0  0  0  0  0  0  0  0  0  0
  129.5333  137.2791  161.2293 H   0  0  0  0  0  0  0  0  0  0  0  0
  132.2391  136.9345  159.8593 H   0  0  0  0  0  0  0  0  0  0  0  0
  131.7965  138.2574  160.9650 H   0  0  0  0  0  0  0  0  0  0  0  0
  133.3909  135.3918  160.7641 H   0  0  0  0  0  0  0  0  0  0  0  0
  134.4778  134.4662  162.7911 H   0  0  0  0  0  0  0  0  0  0  0  0
  132.9705  133.5372  162.6346 H   0  0  0  0  0  0  0  0  0  0  0  0
  133.4940  135.9318  164.4452 H   0  0  0  0  0  0  0  0  0  0  0  0
  133.1061  134.2632  164.9352 H   0  0  0  0  0  0  0  0  0  0  0  0
  131.0663  135.6004  165.1040 H   0  0  0  0  0  0  0  0  0  0  0  0
  130.8965  134.5025  163.7086 H   0  0  0  0  0  0  0  0  0  0  0  0
  131.6341  137.4589  163.6736 H   0  0  0  0  0  0  0  0  0  0  0  0
  130.1897  136.6933  162.9727 H   0  0  0  0  0  0  0  0  0  0  0  0
  128.6070  134.6405  162.2167 H   0  0  0  0  0  0  0  0  0  0  0  0
  126.2089  134.1330  162.4508 H   0  0  0  0  0  0  0  0  0  0  0  0
  124.6978  134.4127  160.5267 H   0  0  0  0  0  0  0  0  0  0  0  0
  125.5836  135.2069  158.3708 H   0  0  0  0  0  0  0  0  0  0  0  0
  127.9802  135.7223  158.1393 H   0  0  0  0  0  0  0  0  0  0  0  0
  129.2378  132.7941  154.2520 H   0  0  0  0  0  0  0  0  0  0  0  0
  129.6448  131.4965  152.2021 H   0  0  0  0  0  0  0  0  0  0  0  0
  1  2  1  0
  1 33  1  0
  1 34  1  0
  1 35  1  0
  2  3  1  0
  2 36  1  0
  2 37  1  0
  3 32  2  0
  3  4  1  0
  4  5  2  0
  4 38  1  0
  5  6  1  0
  5 39  1  0
  6  7  1  0
  6 31  2  0
  7 29  1  0
  7  8  2  0
  8  9  1  0
  8 40  1  0
  9 10  1  0
  9 11  1  0
 11 12  1  0
 11 29  2  0
 12 13  1  0
 12 41  1  0
 13 14  1  1
 13 15  1  0
 13 23  1  0
 15 16  1  0
 15 42  1  0
 15 43  1  0
 16 17  1  0
 16 44  1  0
 16 45  1  0
 17 22  1  0
 17 18  2  0
 18 19  1  0
 18 46  1  0
 19 20  1  0
 19 47  1  0
 19 48  1  0
 20 21  1  0
 20 49  1  0
 20 50  1  0
 21 22  1  0
 21 51  1  0
 21 52  1  0
 22 53  1  0
 22 54  1  0
 23 28  1  0
 23 24  2  0
 24 25  1  0
 24 55  1  0
 25 26  2  0
 25 56  1  0
 26 27  1  0
 26 57  1  0
 27 28  2  0
 27 58  1  0
 28 59  1  0
 29 30  1  0
 31 32  1  0
 31 60  1  0
 32 61  1  0
M  CHG  1  29   1
M  END
>  <DOCK_score>  (1) 
-58.069202

>  <SMILES>  (1) 
CCc1ccc(-c2c[nH]c(N[C@@H](CCC3=CCCCC3)c3ccccc3)[nH+]2)cc1

$$$$
