Cc1ccc(Nc2ccc(-c3c[nH]c(N[C@@H](c4ccc(C)cc4)c4ccccc4Cl)[nH+]3)cc2)cc1
     RDKit          3D

 63 67  0  0  1  0  0  0  0  0999 V2000
  135.7871  140.8570  169.1293 C   0  0  0  0  0  0  0  0  0  0  0  0
  135.7907  140.5836  167.6473 C   0  0  0  0  0  0  0  0  0  0  0  0
  136.0680  139.3113  167.1813 C   0  0  0  0  0  0  0  0  0  0  0  0
  136.0723  139.0573  165.8238 C   0  0  0  0  0  0  0  0  0  0  0  0
  135.7975  140.0815  164.9262 C   0  0  0  0  0  0  0  0  0  0  0  0
  135.8014  139.8283  163.5524 N   0  0  0  0  0  0  0  0  0  0  0  0
  134.9229  138.8849  163.0133 C   0  0  0  0  0  0  0  0  0  0  0  0
  135.2818  138.1736  161.8743 C   0  0  0  0  0  0  0  0  0  0  0  0
  134.4165  137.2420  161.3409 C   0  0  0  0  0  0  0  0  0  0  0  0
  133.1809  137.0138  161.9448 C   0  0  0  0  0  0  0  0  0  0  0  0
  132.2482  136.0119  161.3727 C   0  0  0  0  0  0  0  0  0  0  0  0
  131.3452  135.2753  162.0661 C   0  0  0  0  0  0  0  0  0  0  0  0
  130.6946  134.4798  161.1528 N   0  0  0  0  0  0  0  0  0  0  0  0
  129.9934  133.8381  161.3464 H   0  0  0  0  0  0  0  0  0  0  0  0
  131.2203  134.7546  159.9282 C   0  0  0  0  0  0  0  0  0  0  0  0
  130.8382  134.1641  158.7358 N   0  0  0  0  0  0  0  0  0  0  0  0
  130.3319  132.7895  158.7284 C   0  0  1  0  0  0  0  0  0  0  0  0
  130.9150  132.1838  159.4221 H   0  0  0  0  0  0  0  0  0  0  0  0
  128.8853  132.7845  159.1508 C   0  0  0  0  0  0  0  0  0  0  0  0
  128.2543  133.9724  159.4697 C   0  0  0  0  0  0  0  0  0  0  0  0
  126.9262  133.9684  159.8531 C   0  0  0  0  0  0  0  0  0  0  0  0
  126.2318  132.7754  159.9268 C   0  0  0  0  0  0  0  0  0  0  0  0
  124.7851  132.7704  160.3493 C   0  0  0  0  0  0  0  0  0  0  0  0
  126.8641  131.5869  159.6126 C   0  0  0  0  0  0  0  0  0  0  0  0
  128.1909  131.5915  159.2250 C   0  0  0  0  0  0  0  0  0  0  0  0
  130.4514  132.2176  157.3392 C   0  0  0  0  0  0  0  0  0  0  0  0
  129.7933  132.8215  156.2841 C   0  0  0  0  0  0  0  0  0  0  0  0
  129.9032  132.2974  155.0098 C   0  0  0  0  0  0  0  0  0  0  0  0
  130.6703  131.1685  154.7898 C   0  0  0  0  0  0  0  0  0  0  0  0
  131.3284  130.5636  155.8439 C   0  0  0  0  0  0  0  0  0  0  0  0
  131.2241  131.0917  157.1187 C   0  0  0  0  0  0  0  0  0  0  0  0
  132.0571  130.3373  158.4418 Cl  0  0  0  0  0  0  0  0  0  0  0  0
  132.1482  135.6706  160.0638 N   0  0  0  0  0  0  0  0  0  0  0  0
  132.6791  136.0441  159.3430 H   0  0  0  0  0  0  0  0  0  0  0  0
  132.8206  137.7324  163.0838 C   0  0  0  0  0  0  0  0  0  0  0  0
  133.6914  138.6590  163.6172 C   0  0  0  0  0  0  0  0  0  0  0  0
  135.5245  141.3596  165.3977 C   0  0  0  0  0  0  0  0  0  0  0  0
  135.5165  141.6053  166.7567 C   0  0  0  0  0  0  0  0  0  0  0  0
  136.7863  141.1556  169.4462 H   0  0  0  0  0  0  0  0  0  0  0  0
  135.0815  141.6582  169.3492 H   0  0  0  0  0  0  0  0  0  0  0  0
  135.4906  139.9548  169.6646 H   0  0  0  0  0  0  0  0  0  0  0  0
  136.2818  138.5158  167.8797 H   0  0  0  0  0  0  0  0  0  0  0  0
  136.2885  138.0635  165.4606 H   0  0  0  0  0  0  0  0  0  0  0  0
  136.4142  140.3071  162.9727 H   0  0  0  0  0  0  0  0  0  0  0  0
  136.2389  138.3511  161.4067 H   0  0  0  0  0  0  0  0  0  0  0  0
  134.6958  136.6893  160.4562 H   0  0  0  0  0  0  0  0  0  0  0  0
  131.1706  135.3072  163.1313 H   0  0  0  0  0  0  0  0  0  0  0  0
  130.9055  134.6607  157.9053 H   0  0  0  0  0  0  0  0  0  0  0  0
  128.7980  134.9041  159.4160 H   0  0  0  0  0  0  0  0  0  0  0  0
  126.4320  134.8969  160.0982 H   0  0  0  0  0  0  0  0  0  0  0  0
  124.7233  132.6626  161.4321 H   0  0  0  0  0  0  0  0  0  0  0  0
  124.3161  133.7079  160.0501 H   0  0  0  0  0  0  0  0  0  0  0  0
  124.2699  131.9375  159.8710 H   0  0  0  0  0  0  0  0  0  0  0  0
  126.3215  130.6549  159.6702 H   0  0  0  0  0  0  0  0  0  0  0  0
  128.6851  130.6630  158.9799 H   0  0  0  0  0  0  0  0  0  0  0  0
  129.1936  133.7032  156.4555 H   0  0  0  0  0  0  0  0  0  0  0  0
  129.3892  132.7698  154.1857 H   0  0  0  0  0  0  0  0  0  0  0  0
  130.7552  130.7591  153.7940 H   0  0  0  0  0  0  0  0  0  0  0  0
  131.9280  129.6821  155.6718 H   0  0  0  0  0  0  0  0  0  0  0  0
  131.8621  137.5604  163.5507 H   0  0  0  0  0  0  0  0  0  0  0  0
  133.4147  139.2125  164.5023 H   0  0  0  0  0  0  0  0  0  0  0  0
  135.3151  142.1590  164.7025 H   0  0  0  0  0  0  0  0  0  0  0  0
  135.3003  142.5976  167.1241 H   0  0  0  0  0  0  0  0  0  0  0  0
  1  2  1  0
  1 39  1  0
  1 40  1  0
  1 41  1  0
  2 38  2  0
  2  3  1  0
  3  4  2  0
  3 42  1  0
  4  5  1  0
  4 43  1  0
  5  6  1  0
  5 37  2  0
  6  7  1  0
  6 44  1  0
  7 36  1  0
  7  8  2  0
  8  9  1  0
  8 45  1  0
  9 10  2  0
  9 46  1  0
 10 11  1  0
 10 35  1  0
 11 33  1  0
 11 12  2  0
 12 13  1  0
 12 47  1  0
 13 14  1  0
 13 15  1  0
 15 16  1  0
 15 33  2  0
 16 17  1  0
 16 48  1  0
 17 18  1  1
 17 19  1  0
 17 26  1  0
 19 25  1  0
 19 20  2  0
 20 21  1  0
 20 49  1  0
 21 22  2  0
 21 50  1  0
 22 23  1  0
 22 24  1  0
 23 51  1  0
 23 52  1  0
 23 53  1  0
 24 25  2  0
 24 54  1  0
 25 55  1  0
 26 31  1  0
 26 27  2  0
 27 28  1  0
 27 56  1  0
 28 29  2  0
 28 57  1  0
 29 30  1  0
 29 58  1  0
 30 31  2  0
 30 59  1  0
 31 32  1  0
 33 34  1  0
 35 36  2  0
 35 60  1  0
 36 61  1  0
 37 38  1  0
 37 62  1  0
 38 63  1  0
M  CHG  1  33   1
M  END
>  <DOCK_score>  (1) 
-56.785149

>  <SMILES>  (1) 
Cc1ccc(Nc2ccc(-c3c[nH]c(N[C@@H](c4ccc(C)cc4)c4ccccc4Cl)[nH+]3)cc2)cc1

$$$$
