C1=C(C[NH2+]Cc2c[nH]nc2-c2ccc(NCCc3cccc4ccccc34)o2)CCOC1
     RDKit          3D

 61 65  0  0  0  0  0  0  0  0999 V2000
  132.7794  138.3184  162.3056 C   0  0  0  0  0  0  0  0  0  0  0  0
  132.6158  138.2904  161.0164 C   0  0  0  0  0  0  0  0  0  0  0  0
  131.2139  138.2638  160.4641 C   0  0  0  0  0  0  0  0  0  0  0  0
  131.0253  137.0458  159.6649 N   0  0  0  0  0  0  0  0  0  0  0  0
  131.6872  137.0376  158.9033 H   0  0  0  0  0  0  0  0  0  0  0  0
  130.0868  137.0280  159.2951 H   0  0  0  0  0  0  0  0  0  0  0  0
  131.2402  135.8655  160.5128 C   0  0  0  0  0  0  0  0  0  0  0  0
  131.0467  134.6160  159.6929 C   0  0  0  0  0  0  0  0  0  0  0  0
  132.0051  133.9613  159.0031 C   0  0  0  0  0  0  0  0  0  0  0  0
  131.4327  132.8977  158.3986 N   0  0  0  0  0  0  0  0  0  0  0  0
  131.8859  132.2525  157.8335 H   0  0  0  0  0  0  0  0  0  0  0  0
  130.0715  132.8874  158.7284 N   0  0  0  0  0  0  0  0  0  0  0  0
  129.8326  133.9205  159.5122 C   0  0  0  0  0  0  0  0  0  0  0  0
  128.5246  134.2879  160.0928 C   0  0  0  0  0  0  0  0  0  0  0  0
  127.3575  133.6143  159.9160 C   0  0  0  0  0  0  0  0  0  0  0  0
  126.3723  134.3058  160.6481 C   0  0  0  0  0  0  0  0  0  0  0  0
  126.9832  135.3691  161.2276 C   0  0  0  0  0  0  0  0  0  0  0  0
  126.3687  136.3158  162.0390 N   0  0  0  0  0  0  0  0  0  0  0  0
  127.1526  137.4181  162.6015 C   0  0  0  0  0  0  0  0  0  0  0  0
  127.0908  137.3604  164.1291 C   0  0  0  0  0  0  0  0  0  0  0  0
  127.8973  138.4944  164.7078 C   0  0  0  0  0  0  0  0  0  0  0  0
  129.2196  138.3232  164.9825 C   0  0  0  0  0  0  0  0  0  0  0  0
  129.9811  139.3600  165.5175 C   0  0  0  0  0  0  0  0  0  0  0  0
  129.4252  140.5742  165.7812 C   0  0  0  0  0  0  0  0  0  0  0  0
  128.0632  140.7887  165.5106 C   0  0  0  0  0  0  0  0  0  0  0  0
  127.4526  142.0268  165.7747 C   0  0  0  0  0  0  0  0  0  0  0  0
  126.1319  142.1994  165.4952 C   0  0  0  0  0  0  0  0  0  0  0  0
  125.3702  141.1623  164.9597 C   0  0  0  0  0  0  0  0  0  0  0  0
  125.9260  139.9485  164.6955 C   0  0  0  0  0  0  0  0  0  0  0  0
  127.2885  139.7341  164.9658 C   0  0  0  0  0  0  0  0  0  0  0  0
  128.2839  135.3500  160.8901 O   0  0  0  0  0  0  0  0  0  0  0  0
  133.7720  138.2898  160.0548 C   0  0  0  0  0  0  0  0  0  0  0  0
  135.0453  138.7304  160.7824 C   0  0  0  0  0  0  0  0  0  0  0  0
  135.1430  137.9945  162.0081 O   0  0  0  0  0  0  0  0  0  0  0  0
  134.1336  138.3496  162.9551 C   0  0  0  0  0  0  0  0  0  0  0  0
  131.9035  138.3151  162.9375 H   0  0  0  0  0  0  0  0  0  0  0  0
  131.0546  139.1395  159.8349 H   0  0  0  0  0  0  0  0  0  0  0  0
  130.4990  138.2728  161.2869 H   0  0  0  0  0  0  0  0  0  0  0  0
  130.5254  135.8745  161.3356 H   0  0  0  0  0  0  0  0  0  0  0  0
  132.2542  135.8848  160.9122 H   0  0  0  0  0  0  0  0  0  0  0  0
  133.0463  134.2414  158.9418 H   0  0  0  0  0  0  0  0  0  0  0  0
  127.2140  132.7183  159.3304 H   0  0  0  0  0  0  0  0  0  0  0  0
  125.3285  134.0407  160.7306 H   0  0  0  0  0  0  0  0  0  0  0  0
  125.4207  136.2466  162.2327 H   0  0  0  0  0  0  0  0  0  0  0  0
  126.7433  138.3679  162.2570 H   0  0  0  0  0  0  0  0  0  0  0  0
  128.1892  137.3299  162.2762 H   0  0  0  0  0  0  0  0  0  0  0  0
  127.5001  136.4106  164.4736 H   0  0  0  0  0  0  0  0  0  0  0  0
  126.0543  137.4487  164.4544 H   0  0  0  0  0  0  0  0  0  0  0  0
  129.6851  137.3693  164.7829 H   0  0  0  0  0  0  0  0  0  0  0  0
  131.0282  139.1976  165.7266 H   0  0  0  0  0  0  0  0  0  0  0  0
  130.0278  141.3686  166.1960 H   0  0  0  0  0  0  0  0  0  0  0  0
  128.0294  142.8380  166.1937 H   0  0  0  0  0  0  0  0  0  0  0  0
  125.6662  143.1530  165.6953 H   0  0  0  0  0  0  0  0  0  0  0  0
  124.3228  141.3243  164.7514 H   0  0  0  0  0  0  0  0  0  0  0  0
  125.3234  139.1544  164.2802 H   0  0  0  0  0  0  0  0  0  0  0  0
  133.9114  137.2852  159.6554 H   0  0  0  0  0  0  0  0  0  0  0  0
  133.5642  138.9796  159.2368 H   0  0  0  0  0  0  0  0  0  0  0  0
  135.9149  138.5224  160.1590 H   0  0  0  0  0  0  0  0  0  0  0  0
  134.9943  139.7976  160.9979 H   0  0  0  0  0  0  0  0  0  0  0  0
  134.1545  137.6456  163.7869 H   0  0  0  0  0  0  0  0  0  0  0  0
  134.3261  139.3555  163.3283 H   0  0  0  0  0  0  0  0  0  0  0  0
  1 35  1  0
  1  2  2  0
  1 36  1  0
  2  3  1  0
  2 32  1  0
  3  4  1  0
  3 37  1  0
  3 38  1  0
  4  5  1  0
  4  6  1  0
  4  7  1  0
  7  8  1  0
  7 39  1  0
  7 40  1  0
  8 13  1  0
  8  9  2  0
  9 10  1  0
  9 41  1  0
 10 11  1  0
 10 12  1  0
 12 13  2  0
 13 14  1  0
 14 31  1  0
 14 15  2  0
 15 16  1  0
 15 42  1  0
 16 17  2  0
 16 43  1  0
 17 18  1  0
 17 31  1  0
 18 19  1  0
 18 44  1  0
 19 20  1  0
 19 45  1  0
 19 46  1  0
 20 21  1  0
 20 47  1  0
 20 48  1  0
 21 30  1  0
 21 22  2  0
 22 23  1  0
 22 49  1  0
 23 24  2  0
 23 50  1  0
 24 25  1  0
 24 51  1  0
 25 30  2  0
 25 26  1  0
 26 27  2  0
 26 52  1  0
 27 28  1  0
 27 53  1  0
 28 29  2  0
 28 54  1  0
 29 30  1  0
 29 55  1  0
 32 33  1  0
 32 56  1  0
 32 57  1  0
 33 34  1  0
 33 58  1  0
 33 59  1  0
 34 35  1  0
 35 60  1  0
 35 61  1  0
M  CHG  1   4   1
M  END
>  <DOCK_score>  (1) 
-44.01683

>  <SMILES>  (1) 
C1=C(C[NH2+]Cc2c[nH]nc2-c2ccc(NCCc3cccc4ccccc34)o2)CCOC1

$$$$
