CCc1ccc(-c2c[nH]c(N[C@@H](CC=C/C=C/CO)c3ccccc3)[nH+]2)cc1
     RDKit          3D

 56 58  0  0  1  0  0  0  0  0999 V2000
  130.2530  128.5081  151.6708 C   0  0  0  0  0  0  0  0  0  0  0  0
  131.3564  129.5309  151.9482 C   0  0  0  0  0  0  0  0  0  0  0  0
  131.0305  130.2925  153.2071 C   0  0  0  0  0  0  0  0  0  0  0  0
  131.4758  129.8250  154.4299 C   0  0  0  0  0  0  0  0  0  0  0  0
  131.1845  130.5209  155.5855 C   0  0  0  0  0  0  0  0  0  0  0  0
  130.4309  131.6915  155.5197 C   0  0  0  0  0  0  0  0  0  0  0  0
  130.1102  132.4410  156.7589 C   0  0  0  0  0  0  0  0  0  0  0  0
  129.4203  131.9637  157.8243 C   0  0  0  0  0  0  0  0  0  0  0  0
  129.3535  132.9816  158.7444 N   0  0  0  0  0  0  0  0  0  0  0  0
  128.9214  132.9443  159.6121 H   0  0  0  0  0  0  0  0  0  0  0  0
  130.0052  134.0521  158.2139 C   0  0  0  0  0  0  0  0  0  0  0  0
  130.1651  135.2834  158.8261 N   0  0  0  0  0  0  0  0  0  0  0  0
  129.6071  135.5158  160.1607 C   0  0  1  0  0  0  0  0  0  0  0  0
  130.0478  134.8116  160.8664 H   0  0  0  0  0  0  0  0  0  0  0  0
  129.9224  136.9461  160.6033 C   0  0  0  0  0  0  0  0  0  0  0  0
  131.4161  137.1421  160.6421 C   0  0  0  0  0  0  0  0  0  0  0  0
  131.9350  138.3424  160.4068 C   0  0  0  0  0  0  0  0  0  0  0  0
  133.3931  138.5338  160.4448 C   0  0  0  0  0  0  0  0  0  0  0  0
  133.9119  139.7342  160.2095 C   0  0  0  0  0  0  0  0  0  0  0  0
  135.4057  139.9303  160.2484 C   0  0  0  0  0  0  0  0  0  0  0  0
  136.0414  138.6881  160.5560 O   0  0  0  0  0  0  0  0  0  0  0  0
  128.1134  135.3196  160.1218 C   0  0  0  0  0  0  0  0  0  0  0  0
  127.4463  134.8668  161.2447 C   0  0  0  0  0  0  0  0  0  0  0  0
  126.0756  134.6909  161.2103 C   0  0  0  0  0  0  0  0  0  0  0  0
  125.3733  134.9594  160.0503 C   0  0  0  0  0  0  0  0  0  0  0  0
  126.0411  135.4072  158.9259 C   0  0  0  0  0  0  0  0  0  0  0  0
  127.4112  135.5871  158.9615 C   0  0  0  0  0  0  0  0  0  0  0  0
  130.4603  133.7236  157.0294 N   0  0  0  0  0  0  0  0  0  0  0  0
  130.9652  134.3052  156.4397 H   0  0  0  0  0  0  0  0  0  0  0  0
  129.9802  132.1554  154.2852 C   0  0  0  0  0  0  0  0  0  0  0  0
  130.2820  131.4542  153.1355 C   0  0  0  0  0  0  0  0  0  0  0  0
  130.1834  127.8134  152.5079 H   0  0  0  0  0  0  0  0  0  0  0  0
  129.3012  129.0244  151.5470 H   0  0  0  0  0  0  0  0  0  0  0  0
  130.4888  127.9572  150.7602 H   0  0  0  0  0  0  0  0  0  0  0  0
  132.3082  129.0150  152.0717 H   0  0  0  0  0  0  0  0  0  0  0  0
  131.4259  130.2261  151.1107 H   0  0  0  0  0  0  0  0  0  0  0  0
  132.0561  128.9154  154.4802 H   0  0  0  0  0  0  0  0  0  0  0  0
  131.5367  130.1571  156.5396 H   0  0  0  0  0  0  0  0  0  0  0  0
  129.0029  130.9732  157.9293 H   0  0  0  0  0  0  0  0  0  0  0  0
  130.6463  135.9922  158.3716 H   0  0  0  0  0  0  0  0  0  0  0  0
  129.4817  137.6503  159.8976 H   0  0  0  0  0  0  0  0  0  0  0  0
  129.5073  137.1189  161.5962 H   0  0  0  0  0  0  0  0  0  0  0  0
  132.0648  136.3069  160.8613 H   0  0  0  0  0  0  0  0  0  0  0  0
  131.2863  139.1776  160.1877 H   0  0  0  0  0  0  0  0  0  0  0  0
  134.0418  137.6986  160.6640 H   0  0  0  0  0  0  0  0  0  0  0  0
  133.2632  140.5693  159.9903 H   0  0  0  0  0  0  0  0  0  0  0  0
  135.7509  140.2844  159.2769 H   0  0  0  0  0  0  0  0  0  0  0  0
  135.6558  140.6658  161.0130 H   0  0  0  0  0  0  0  0  0  0  0  0
  135.8623  137.9856  159.9161 H   0  0  0  0  0  0  0  0  0  0  0  0
  127.9956  134.6535  162.1497 H   0  0  0  0  0  0  0  0  0  0  0  0
  125.5538  134.3414  162.0889 H   0  0  0  0  0  0  0  0  0  0  0  0
  124.3027  134.8196  160.0226 H   0  0  0  0  0  0  0  0  0  0  0  0
  125.4923  135.6169  158.0196 H   0  0  0  0  0  0  0  0  0  0  0  0
  127.9329  135.9369  158.0831 H   0  0  0  0  0  0  0  0  0  0  0  0
  129.3956  133.0617  154.2283 H   0  0  0  0  0  0  0  0  0  0  0  0
  129.9329  131.8125  152.1783 H   0  0  0  0  0  0  0  0  0  0  0  0
  1  2  1  0
  1 32  1  0
  1 33  1  0
  1 34  1  0
  2  3  1  0
  2 35  1  0
  2 36  1  0
  3 31  2  0
  3  4  1  0
  4  5  2  0
  4 37  1  0
  5  6  1  0
  5 38  1  0
  6  7  1  0
  6 30  2  0
  7 28  1  0
  7  8  2  0
  8  9  1  0
  8 39  1  0
  9 10  1  0
  9 11  1  0
 11 12  1  0
 11 28  2  0
 12 13  1  0
 12 40  1  0
 13 14  1  1
 13 15  1  0
 13 22  1  0
 15 16  1  0
 15 41  1  0
 15 42  1  0
 16 17  2  0
 16 43  1  0
 17 18  1  0
 17 44  1  0
 18 19  2  0
 18 45  1  0
 19 20  1  0
 19 46  1  0
 20 21  1  0
 20 47  1  0
 20 48  1  0
 21 49  1  0
 22 27  1  0
 22 23  2  0
 23 24  1  0
 23 50  1  0
 24 25  2  0
 24 51  1  0
 25 26  1  0
 25 52  1  0
 26 27  2  0
 26 53  1  0
 27 54  1  0
 28 29  1  0
 30 31  1  0
 30 55  1  0
 31 56  1  0
M  CHG  1  28   1
M  END
>  <DOCK_score>  (1) 
-61.583733

>  <SMILES>  (1) 
CCc1ccc(-c2c[nH]c(N[C@@H](CC=C/C=C/CO)c3ccccc3)[nH+]2)cc1

$$$$
