CCc1ccc(-c2c[nH]c(N[C@@H](CC=Cc3ccccc3)c3ccnn3C)[nH+]2)cc1
     RDKit          3D

 58 61  0  0  1  0  0  0  0  0999 V2000
  130.2886  128.2218  151.8367 C   0  0  0  0  0  0  0  0  0  0  0  0
  131.2831  129.3802  151.9362 C   0  0  0  0  0  0  0  0  0  0  0  0
  131.0068  130.1735  153.1874 C   0  0  0  0  0  0  0  0  0  0  0  0
  131.6371  129.8349  154.3707 C   0  0  0  0  0  0  0  0  0  0  0  0
  131.3924  130.5612  155.5185 C   0  0  0  0  0  0  0  0  0  0  0  0
  130.4993  131.6307  155.4860 C   0  0  0  0  0  0  0  0  0  0  0  0
  130.2279  132.4117  156.7175 C   0  0  0  0  0  0  0  0  0  0  0  0
  129.7225  131.9232  157.8772 C   0  0  0  0  0  0  0  0  0  0  0  0
  129.6331  132.9804  158.7498 N   0  0  0  0  0  0  0  0  0  0  0  0
  129.3065  132.9459  159.6625 H   0  0  0  0  0  0  0  0  0  0  0  0
  130.0871  134.0850  158.0972 C   0  0  0  0  0  0  0  0  0  0  0  0
  130.1618  135.3613  158.6282 N   0  0  0  0  0  0  0  0  0  0  0  0
  129.2052  135.7855  159.6534 C   0  0  1  0  0  0  0  0  0  0  0  0
  129.2911  135.1333  160.5225 H   0  0  0  0  0  0  0  0  0  0  0  0
  129.5060  137.2277  160.0662 C   0  0  0  0  0  0  0  0  0  0  0  0
  130.9052  137.3103  160.6198 C   0  0  0  0  0  0  0  0  0  0  0  0
  131.8013  138.0975  160.0413 C   0  0  0  0  0  0  0  0  0  0  0  0
  133.1738  138.1786  160.5843 C   0  0  0  0  0  0  0  0  0  0  0  0
  133.4317  137.7869  161.8985 C   0  0  0  0  0  0  0  0  0  0  0  0
  134.7159  137.8604  162.3976 C   0  0  0  0  0  0  0  0  0  0  0  0
  135.7447  138.3306  161.6016 C   0  0  0  0  0  0  0  0  0  0  0  0
  135.4948  138.7257  160.2993 C   0  0  0  0  0  0  0  0  0  0  0  0
  134.2159  138.6526  159.7865 C   0  0  0  0  0  0  0  0  0  0  0  0
  127.8060  135.7029  159.0998 C   0  0  0  0  0  0  0  0  0  0  0  0
  127.4496  135.8658  157.8046 C   0  0  0  0  0  0  0  0  0  0  0  0
  126.0626  135.7081  157.7167 C   0  0  0  0  0  0  0  0  0  0  0  0
  125.6018  135.4671  158.9173 N   0  0  0  0  0  0  0  0  0  0  0  0
  126.6834  135.4588  159.8076 N   0  0  0  0  0  0  0  0  0  0  0  0
  126.6088  135.2266  161.2522 C   0  0  0  0  0  0  0  0  0  0  0  0
  130.4469  133.7401  156.8850 N   0  0  0  0  0  0  0  0  0  0  0  0
  130.8097  134.3394  156.2141 H   0  0  0  0  0  0  0  0  0  0  0  0
  129.8625  131.9641  154.2918 C   0  0  0  0  0  0  0  0  0  0  0  0
  130.1192  131.2343  153.1489 C   0  0  0  0  0  0  0  0  0  0  0  0
  129.2732  128.6163  151.8002 H   0  0  0  0  0  0  0  0  0  0  0  0
  130.4883  127.6482  150.9317 H   0  0  0  0  0  0  0  0  0  0  0  0
  130.3962  127.5754  152.7077 H   0  0  0  0  0  0  0  0  0  0  0  0
  132.2981  128.9862  151.9722 H   0  0  0  0  0  0  0  0  0  0  0  0
  131.1751  130.0271  151.0647 H   0  0  0  0  0  0  0  0  0  0  0  0
  132.3253  129.0030  154.3959 H   0  0  0  0  0  0  0  0  0  0  0  0
  131.8887  130.2988  156.4411 H   0  0  0  0  0  0  0  0  0  0  0  0
  129.4433  130.8991  158.0765 H   0  0  0  0  0  0  0  0  0  0  0  0
  130.8478  135.9747  158.3214 H   0  0  0  0  0  0  0  0  0  0  0  0
  129.4199  137.8799  159.1972 H   0  0  0  0  0  0  0  0  0  0  0  0
  128.7941  137.5432  160.8291 H   0  0  0  0  0  0  0  0  0  0  0  0
  131.1778  136.7282  161.4877 H   0  0  0  0  0  0  0  0  0  0  0  0
  131.5287  138.6795  159.1735 H   0  0  0  0  0  0  0  0  0  0  0  0
  132.6284  137.4237  162.5223 H   0  0  0  0  0  0  0  0  0  0  0  0
  134.9174  137.5539  163.4134 H   0  0  0  0  0  0  0  0  0  0  0  0
  136.7473  138.3900  161.9985 H   0  0  0  0  0  0  0  0  0  0  0  0
  136.3022  139.0923  159.6830 H   0  0  0  0  0  0  0  0  0  0  0  0
  134.0220  138.9619  158.7701 H   0  0  0  0  0  0  0  0  0  0  0  0
  128.1182  136.0780  156.9834 H   0  0  0  0  0  0  0  0  0  0  0  0
  125.4732  135.7772  156.8144 H   0  0  0  0  0  0  0  0  0  0  0  0
  126.4692  136.1776  161.7663 H   0  0  0  0  0  0  0  0  0  0  0  0
  125.7681  134.5684  161.4715 H   0  0  0  0  0  0  0  0  0  0  0  0
  127.5333  134.7613  161.5936 H   0  0  0  0  0  0  0  0  0  0  0  0
  129.1694  132.7918  154.2609 H   0  0  0  0  0  0  0  0  0  0  0  0
  129.6261  131.4915  152.2231 H   0  0  0  0  0  0  0  0  0  0  0  0
  1  2  1  0
  1 34  1  0
  1 35  1  0
  1 36  1  0
  2  3  1  0
  2 37  1  0
  2 38  1  0
  3 33  2  0
  3  4  1  0
  4  5  2  0
  4 39  1  0
  5  6  1  0
  5 40  1  0
  6  7  1  0
  6 32  2  0
  7 30  1  0
  7  8  2  0
  8  9  1  0
  8 41  1  0
  9 10  1  0
  9 11  1  0
 11 12  1  0
 11 30  2  0
 12 13  1  0
 12 42  1  0
 13 14  1  1
 13 15  1  0
 13 24  1  0
 15 16  1  0
 15 43  1  0
 15 44  1  0
 16 17  2  0
 16 45  1  0
 17 18  1  0
 17 46  1  0
 18 23  1  0
 18 19  2  0
 19 20  1  0
 19 47  1  0
 20 21  2  0
 20 48  1  0
 21 22  1  0
 21 49  1  0
 22 23  2  0
 22 50  1  0
 23 51  1  0
 24 28  1  0
 24 25  2  0
 25 26  1  0
 25 52  1  0
 26 27  2  0
 26 53  1  0
 27 28  1  0
 28 29  1  0
 29 54  1  0
 29 55  1  0
 29 56  1  0
 30 31  1  0
 32 33  1  0
 32 57  1  0
 33 58  1  0
M  CHG  1  30   1
M  END
>  <DOCK_score>  (1) 
-66.298691

>  <SMILES>  (1) 
CCc1ccc(-c2c[nH]c(N[C@@H](CC=Cc3ccccc3)c3ccnn3C)[nH+]2)cc1

$$$$
