CC1=CC[C@@H](C[NH2+]Cc2c[nH]nc2-c2ccc(Nc3c(F)c(F)c(F)c(F)c3F)o2)CC1
     RDKit          3D

 54 57  0  0  1  0  0  0  0  0999 V2000
  136.6780  140.5449  159.9044 C   0  0  0  0  0  0  0  0  0  0  0  0
  135.5966  139.5350  160.1899 C   0  0  0  0  0  0  0  0  0  0  0  0
  135.7110  138.8077  161.2546 C   0  0  0  0  0  0  0  0  0  0  0  0
  134.7146  137.7659  161.6748 C   0  0  0  0  0  0  0  0  0  0  0  0
  133.8057  137.4028  160.4985 C   0  0  1  0  0  0  0  0  0  0  0  0
  134.3730  136.8397  159.7574 H   0  0  0  0  0  0  0  0  0  0  0  0
  132.6313  136.5586  160.9974 C   0  0  0  0  0  0  0  0  0  0  0  0
  132.0434  135.8226  159.8701 N   0  0  0  0  0  0  0  0  0  0  0  0
  132.7416  135.2195  159.4615 H   0  0  0  0  0  0  0  0  0  0  0  0
  131.7160  136.4770  159.1753 H   0  0  0  0  0  0  0  0  0  0  0  0
  130.9157  135.0122  160.3491 C   0  0  0  0  0  0  0  0  0  0  0  0
  130.3127  134.2572  159.1925 C   0  0  0  0  0  0  0  0  0  0  0  0
  130.9938  133.5822  158.2420 C   0  0  0  0  0  0  0  0  0  0  0  0
  130.0972  133.0502  157.3831 N   0  0  0  0  0  0  0  0  0  0  0  0
  130.3065  132.5173  156.6001 H   0  0  0  0  0  0  0  0  0  0  0  0
  128.8130  133.4017  157.8183 N   0  0  0  0  0  0  0  0  0  0  0  0
  128.9361  134.1273  158.9123 C   0  0  0  0  0  0  0  0  0  0  0  0
  127.8293  134.7068  159.7010 C   0  0  0  0  0  0  0  0  0  0  0  0
  126.5041  134.5782  159.4274 C   0  0  0  0  0  0  0  0  0  0  0  0
  125.8097  135.2792  160.4326 C   0  0  0  0  0  0  0  0  0  0  0  0
  126.7430  135.8068  161.2641 C   0  0  0  0  0  0  0  0  0  0  0  0
  126.4836  136.5771  162.3914 N   0  0  0  0  0  0  0  0  0  0  0  0
  127.5443  137.0627  163.1673 C   0  0  0  0  0  0  0  0  0  0  0  0
  127.7094  138.4316  163.3415 C   0  0  0  0  0  0  0  0  0  0  0  0
  126.8475  139.2956  162.7619 F   0  0  0  0  0  0  0  0  0  0  0  0
  128.7613  138.9098  164.1048 C   0  0  0  0  0  0  0  0  0  0  0  0
  128.9254  140.2406  164.2699 F   0  0  0  0  0  0  0  0  0  0  0  0
  129.6430  138.0237  164.7037 C   0  0  0  0  0  0  0  0  0  0  0  0
  130.6653  138.4918  165.4526 F   0  0  0  0  0  0  0  0  0  0  0  0
  129.4802  136.6580  164.5312 C   0  0  0  0  0  0  0  0  0  0  0  0
  130.3443  135.7965  165.1114 F   0  0  0  0  0  0  0  0  0  0  0  0
  128.4326  136.1760  163.7643 C   0  0  0  0  0  0  0  0  0  0  0  0
  128.2746  134.8448  163.5961 F   0  0  0  0  0  0  0  0  0  0  0  0
  127.9607  135.4539  160.8171 O   0  0  0  0  0  0  0  0  0  0  0  0
  133.2786  138.6984  159.8689 C   0  0  0  0  0  0  0  0  0  0  0  0
  134.4536  139.4355  159.2225 C   0  0  0  0  0  0  0  0  0  0  0  0
  136.4216  141.4945  160.3740 H   0  0  0  0  0  0  0  0  0  0  0  0
  137.6257  140.1855  160.3055 H   0  0  0  0  0  0  0  0  0  0  0  0
  136.7692  140.6849  158.8273 H   0  0  0  0  0  0  0  0  0  0  0  0
  136.5795  138.9570  161.8789 H   0  0  0  0  0  0  0  0  0  0  0  0
  134.1088  138.1580  162.4919 H   0  0  0  0  0  0  0  0  0  0  0  0
  135.2407  136.8735  162.0139 H   0  0  0  0  0  0  0  0  0  0  0  0
  131.8771  137.2102  161.4388 H   0  0  0  0  0  0  0  0  0  0  0  0
  132.9849  135.8517  161.7479 H   0  0  0  0  0  0  0  0  0  0  0  0
  130.1617  135.6637  160.7904 H   0  0  0  0  0  0  0  0  0  0  0  0
  131.2694  134.3051  161.0995 H   0  0  0  0  0  0  0  0  0  0  0  0
  132.0677  133.4877  158.1773 H   0  0  0  0  0  0  0  0  0  0  0  0
  126.0672  134.0387  158.6000 H   0  0  0  0  0  0  0  0  0  0  0  0
  124.7382  135.3792  160.5232 H   0  0  0  0  0  0  0  0  0  0  0  0
  125.5681  136.7786  162.6409 H   0  0  0  0  0  0  0  0  0  0  0  0
  132.5334  138.4603  159.1100 H   0  0  0  0  0  0  0  0  0  0  0  0
  132.8293  139.3242  160.6401 H   0  0  0  0  0  0  0  0  0  0  0  0
  134.7776  138.8911  158.3354 H   0  0  0  0  0  0  0  0  0  0  0  0
  134.1367  140.4374  158.9334 H   0  0  0  0  0  0  0  0  0  0  0  0
  1  2  1  0
  1 37  1  0
  1 38  1  0
  1 39  1  0
  2 36  1  0
  2  3  2  0
  3  4  1  0
  3 40  1  0
  4  5  1  0
  4 41  1  0
  4 42  1  0
  5  6  1  6
  5  7  1  0
  5 35  1  0
  7  8  1  0
  7 43  1  0
  7 44  1  0
  8  9  1  0
  8 10  1  0
  8 11  1  0
 11 12  1  0
 11 45  1  0
 11 46  1  0
 12 17  1  0
 12 13  2  0
 13 14  1  0
 13 47  1  0
 14 15  1  0
 14 16  1  0
 16 17  2  0
 17 18  1  0
 18 34  1  0
 18 19  2  0
 19 20  1  0
 19 48  1  0
 20 21  2  0
 20 49  1  0
 21 22  1  0
 21 34  1  0
 22 23  1  0
 22 50  1  0
 23 32  1  0
 23 24  2  0
 24 25  1  0
 24 26  1  0
 26 27  1  0
 26 28  2  0
 28 29  1  0
 28 30  1  0
 30 31  1  0
 30 32  2  0
 32 33  1  0
 35 36  1  0
 35 51  1  0
 35 52  1  0
 36 53  1  0
 36 54  1  0
M  CHG  1   8   1
M  END
>  <DOCK_score>  (1) 
-48.31723

>  <SMILES>  (1) 
CC1=CC[C@@H](C[NH2+]Cc2c[nH]nc2-c2ccc(Nc3c(F)c(F)c(F)c(F)c3F)o2)CC1

$$$$
