Fc1ccc(C[NH2+]Cc2c[nH]nc2-c2ccc(NCC3=CCCC3)o2)c(F)c1
     RDKit          3D

 51 54  0  0  0  0  0  0  0  0999 V2000
  138.3607  139.6417  160.8510 F   0  0  0  0  0  0  0  0  0  0  0  0
  137.0695  139.2510  160.9258 C   0  0  0  0  0  0  0  0  0  0  0  0
  136.6536  138.4259  161.9570 C   0  0  0  0  0  0  0  0  0  0  0  0
  135.3343  138.0212  162.0296 C   0  0  0  0  0  0  0  0  0  0  0  0
  134.4259  138.4483  161.0793 C   0  0  0  0  0  0  0  0  0  0  0  0
  132.9862  138.0108  161.1632 C   0  0  0  0  0  0  0  0  0  0  0  0
  132.8101  136.7598  160.4135 N   0  0  0  0  0  0  0  0  0  0  0  0
  133.0607  136.9086  159.4474 H   0  0  0  0  0  0  0  0  0  0  0  0
  133.4025  136.0448  160.8082 H   0  0  0  0  0  0  0  0  0  0  0  0
  131.4068  136.3334  160.4952 C   0  0  0  0  0  0  0  0  0  0  0  0
  131.2261  135.0501  159.7262 C   0  0  0  0  0  0  0  0  0  0  0  0
  132.1890  134.3836  159.0540 C   0  0  0  0  0  0  0  0  0  0  0  0
  131.6300  133.2844  158.5029 N   0  0  0  0  0  0  0  0  0  0  0  0
  132.0901  132.6211  157.9651 H   0  0  0  0  0  0  0  0  0  0  0  0
  130.2697  133.2714  158.8367 N   0  0  0  0  0  0  0  0  0  0  0  0
  130.0195  134.3347  159.5751 C   0  0  0  0  0  0  0  0  0  0  0  0
  128.7085  134.7101  160.1439 C   0  0  0  0  0  0  0  0  0  0  0  0
  127.5498  134.0143  160.0005 C   0  0  0  0  0  0  0  0  0  0  0  0
  126.5566  134.7269  160.7008 C   0  0  0  0  0  0  0  0  0  0  0  0
  127.1563  135.8198  161.2356 C   0  0  0  0  0  0  0  0  0  0  0  0
  126.5315  136.7933  162.0063 N   0  0  0  0  0  0  0  0  0  0  0  0
  127.3038  137.9261  162.5224 C   0  0  0  0  0  0  0  0  0  0  0  0
  126.3988  138.8294  163.3200 C   0  0  0  0  0  0  0  0  0  0  0  0
  126.1747  140.0843  163.0396 C   0  0  0  0  0  0  0  0  0  0  0  0
  125.2184  140.7016  164.0334 C   0  0  0  0  0  0  0  0  0  0  0  0
  124.5628  139.4981  164.7497 C   0  0  0  0  0  0  0  0  0  0  0  0
  125.6367  138.4030  164.5531 C   0  0  0  0  0  0  0  0  0  0  0  0
  128.4574  135.7996  160.8998 O   0  0  0  0  0  0  0  0  0  0  0  0
  134.8384  139.2775  160.0500 C   0  0  0  0  0  0  0  0  0  0  0  0
  133.9502  139.6951  159.1216 F   0  0  0  0  0  0  0  0  0  0  0  0
  136.1609  139.6789  159.9730 C   0  0  0  0  0  0  0  0  0  0  0  0
  137.3613  138.0955  162.7027 H   0  0  0  0  0  0  0  0  0  0  0  0
  135.0117  137.3746  162.8322 H   0  0  0  0  0  0  0  0  0  0  0  0
  132.7157  137.8501  162.2067 H   0  0  0  0  0  0  0  0  0  0  0  0
  132.3463  138.7832  160.7367 H   0  0  0  0  0  0  0  0  0  0  0  0
  131.1362  136.1728  161.5388 H   0  0  0  0  0  0  0  0  0  0  0  0
  130.7669  137.1059  160.0687 H   0  0  0  0  0  0  0  0  0  0  0  0
  133.2252  134.6769  158.9728 H   0  0  0  0  0  0  0  0  0  0  0  0
  127.4163  133.0918  159.4549 H   0  0  0  0  0  0  0  0  0  0  0  0
  125.5157  134.4548  160.7942 H   0  0  0  0  0  0  0  0  0  0  0  0
  125.5842  136.7226  162.2024 H   0  0  0  0  0  0  0  0  0  0  0  0
  128.1054  137.5579  163.1625 H   0  0  0  0  0  0  0  0  0  0  0  0
  127.7313  138.4841  161.6892 H   0  0  0  0  0  0  0  0  0  0  0  0
  126.6134  140.6117  162.2055 H   0  0  0  0  0  0  0  0  0  0  0  0
  124.4627  141.2948  163.5188 H   0  0  0  0  0  0  0  0  0  0  0  0
  125.7626  141.3186  164.7484 H   0  0  0  0  0  0  0  0  0  0  0  0
  123.6261  139.2186  164.2675 H   0  0  0  0  0  0  0  0  0  0  0  0
  124.4084  139.7092  165.8079 H   0  0  0  0  0  0  0  0  0  0  0  0
  125.1653  137.4335  164.3918 H   0  0  0  0  0  0  0  0  0  0  0  0
  126.3021  138.3620  165.4155 H   0  0  0  0  0  0  0  0  0  0  0  0
  136.4837  140.3253  159.1702 H   0  0  0  0  0  0  0  0  0  0  0  0
  1  2  1  0
  2 31  2  0
  2  3  1  0
  3  4  2  0
  3 32  1  0
  4  5  1  0
  4 33  1  0
  5  6  1  0
  5 29  2  0
  6  7  1  0
  6 34  1  0
  6 35  1  0
  7  8  1  0
  7  9  1  0
  7 10  1  0
 10 11  1  0
 10 36  1  0
 10 37  1  0
 11 16  1  0
 11 12  2  0
 12 13  1  0
 12 38  1  0
 13 14  1  0
 13 15  1  0
 15 16  2  0
 16 17  1  0
 17 28  1  0
 17 18  2  0
 18 19  1  0
 18 39  1  0
 19 20  2  0
 19 40  1  0
 20 21  1  0
 20 28  1  0
 21 22  1  0
 21 41  1  0
 22 23  1  0
 22 42  1  0
 22 43  1  0
 23 27  1  0
 23 24  2  0
 24 25  1  0
 24 44  1  0
 25 26  1  0
 25 45  1  0
 25 46  1  0
 26 27  1  0
 26 47  1  0
 26 48  1  0
 27 49  1  0
 27 50  1  0
 29 30  1  0
 29 31  1  0
 31 51  1  0
M  CHG  1   7   1
M  END
>  <DOCK_score>  (1) 
-44.428791

>  <SMILES>  (1) 
Fc1ccc(C[NH2+]Cc2c[nH]nc2-c2ccc(NCC3=CCCC3)o2)c(F)c1

$$$$
