C=CCC[C@H](O)C[NH+]1CCC(C(=O)NCc2cccc3ccccc23)(c2ccc(Cl)cc2)CC1
     RDKit          3D

 68 71  0  0  1  0  0  0  0  0999 V2000
  132.3337  136.1341  165.3702 C   0  0  0  0  0  0  0  0  0  0  0  0
  133.0354  136.6748  164.4053 C   0  0  0  0  0  0  0  0  0  0  0  0
  132.8462  136.2098  162.9842 C   0  0  0  0  0  0  0  0  0  0  0  0
  132.3913  137.3868  162.1189 C   0  0  0  0  0  0  0  0  0  0  0  0
  132.1993  136.9148  160.6763 C   0  0  2  0  0  0  0  0  0  0  0  0
  132.9973  136.2212  160.4116 H   0  0  0  0  0  0  0  0  0  0  0  0
  132.2360  138.0412  159.7977 O   0  0  0  0  0  0  0  0  0  0  0  0
  130.8473  136.2103  160.5459 C   0  0  0  0  0  0  0  0  0  0  0  0
  130.8528  135.3577  159.3497 N   0  0  2  0  0  0  0  0  0  0  0  0
  131.3271  135.8365  158.5988 H   0  0  0  0  0  0  0  0  0  0  0  0
  129.4702  135.0706  158.9489 C   0  0  0  0  0  0  0  0  0  0  0  0
  129.4695  134.2503  157.6572 C   0  0  0  0  0  0  0  0  0  0  0  0
  130.2176  132.9351  157.8938 C   0  0  1  0  0  0  0  0  0  0  0  0
  129.4921  132.1230  158.9353 C   0  0  0  0  0  0  0  0  0  0  0  0
  130.1113  131.3709  159.6577 O   0  0  0  0  0  0  0  0  0  0  0  0
  128.1549  132.2325  159.0643 N   0  0  0  0  0  0  0  0  0  0  0  0
  127.4496  131.4431  160.0768 C   0  0  0  0  0  0  0  0  0  0  0  0
  126.7443  132.3688  161.0343 C   0  0  0  0  0  0  0  0  0  0  0  0
  125.4665  132.7668  160.7852 C   0  0  0  0  0  0  0  0  0  0  0  0
  124.7979  133.6210  161.6596 C   0  0  0  0  0  0  0  0  0  0  0  0
  125.4034  134.0835  162.7876 C   0  0  0  0  0  0  0  0  0  0  0  0
  126.7220  133.6949  163.0780 C   0  0  0  0  0  0  0  0  0  0  0  0
  127.3799  134.1508  164.2333 C   0  0  0  0  0  0  0  0  0  0  0  0
  128.6571  133.7525  164.4824 C   0  0  0  0  0  0  0  0  0  0  0  0
  129.3259  132.8977  163.6079 C   0  0  0  0  0  0  0  0  0  0  0  0
  128.7208  132.4360  162.4796 C   0  0  0  0  0  0  0  0  0  0  0  0
  127.4020  132.8251  162.1889 C   0  0  0  0  0  0  0  0  0  0  0  0
  130.2868  132.1562  156.6055 C   0  0  0  0  0  0  0  0  0  0  0  0
  129.7175  132.6705  155.4556 C   0  0  0  0  0  0  0  0  0  0  0  0
  129.7856  131.9591  154.2725 C   0  0  0  0  0  0  0  0  0  0  0  0
  130.4140  130.7267  154.2419 C   0  0  0  0  0  0  0  0  0  0  0  0
  130.4938  129.8288  152.7584 Cl  0  0  0  0  0  0  0  0  0  0  0  0
  130.9784  130.2100  155.3943 C   0  0  0  0  0  0  0  0  0  0  0  0
  130.9146  130.9249  156.5756 C   0  0  0  0  0  0  0  0  0  0  0  0
  131.6357  133.2447  158.3818 C   0  0  0  0  0  0  0  0  0  0  0  0
  131.5555  134.1039  159.6476 C   0  0  0  0  0  0  0  0  0  0  0  0
  131.6195  135.3550  165.1476 H   0  0  0  0  0  0  0  0  0  0  0  0
  132.4692  136.4672  166.3886 H   0  0  0  0  0  0  0  0  0  0  0  0
  133.7495  137.4538  164.6280 H   0  0  0  0  0  0  0  0  0  0  0  0
  132.0904  135.4250  162.9564 H   0  0  0  0  0  0  0  0  0  0  0  0
  133.7891  135.8201  162.6009 H   0  0  0  0  0  0  0  0  0  0  0  0
  133.1472  138.1717  162.1467 H   0  0  0  0  0  0  0  0  0  0  0  0
  131.4484  137.7766  162.5022 H   0  0  0  0  0  0  0  0  0  0  0  0
  132.1204  137.8160  158.8645 H   0  0  0  0  0  0  0  0  0  0  0  0
  130.0565  136.9552  160.4576 H   0  0  0  0  0  0  0  0  0  0  0  0
  130.6710  135.5962  161.4290 H   0  0  0  0  0  0  0  0  0  0  0  0
  128.9382  136.0076  158.7841 H   0  0  0  0  0  0  0  0  0  0  0  0
  128.9736  134.5057  159.7378 H   0  0  0  0  0  0  0  0  0  0  0  0
  129.9657  134.8143  156.8675 H   0  0  0  0  0  0  0  0  0  0  0  0
  128.4423  134.0367  157.3615 H   0  0  0  0  0  0  0  0  0  0  0  0
  127.6597  132.8341  158.4866 H   0  0  0  0  0  0  0  0  0  0  0  0
  128.1661  130.8310  160.6245 H   0  0  0  0  0  0  0  0  0  0  0  0
  126.7181  130.7979  159.5899 H   0  0  0  0  0  0  0  0  0  0  0  0
  124.9633  132.4146  159.8969 H   0  0  0  0  0  0  0  0  0  0  0  0
  123.7842  133.9213  161.4387 H   0  0  0  0  0  0  0  0  0  0  0  0
  124.8715  134.7423  163.4580 H   0  0  0  0  0  0  0  0  0  0  0  0
  126.8745  134.8142  164.9195 H   0  0  0  0  0  0  0  0  0  0  0  0
  129.1602  134.1043  165.3708 H   0  0  0  0  0  0  0  0  0  0  0  0
  130.3395  132.5973  163.8288 H   0  0  0  0  0  0  0  0  0  0  0  0
  129.2512  131.7738  161.8115 H   0  0  0  0  0  0  0  0  0  0  0  0
  129.2232  133.6305  155.4806 H   0  0  0  0  0  0  0  0  0  0  0  0
  129.3445  132.3630  153.3733 H   0  0  0  0  0  0  0  0  0  0  0  0
  131.4687  129.2479  155.3712 H   0  0  0  0  0  0  0  0  0  0  0  0
  131.3551  130.5214  157.4752 H   0  0  0  0  0  0  0  0  0  0  0  0
  132.1555  132.3129  158.6045 H   0  0  0  0  0  0  0  0  0  0  0  0
  132.1768  133.7879  157.6072 H   0  0  0  0  0  0  0  0  0  0  0  0
  132.5631  134.3272  159.9986 H   0  0  0  0  0  0  0  0  0  0  0  0
  131.0142  133.5594  160.4212 H   0  0  0  0  0  0  0  0  0  0  0  0
  1  2  2  0
  1 37  1  0
  1 38  1  0
  2  3  1  0
  2 39  1  0
  3  4  1  0
  3 40  1  0
  3 41  1  0
  4  5  1  0
  4 42  1  0
  4 43  1  0
  5  6  1  6
  5  7  1  0
  5  8  1  0
  7 44  1  0
  8  9  1  0
  8 45  1  0
  8 46  1  0
  9 10  1  6
  9 36  1  0
  9 11  1  0
 11 12  1  0
 11 47  1  0
 11 48  1  0
 12 13  1  0
 12 49  1  0
 12 50  1  0
 13 14  1  1
 13 28  1  0
 13 35  1  0
 14 15  2  0
 14 16  1  0
 16 17  1  0
 16 51  1  0
 17 18  1  0
 17 52  1  0
 17 53  1  0
 18 27  1  0
 18 19  2  0
 19 20  1  0
 19 54  1  0
 20 21  2  0
 20 55  1  0
 21 22  1  0
 21 56  1  0
 22 27  2  0
 22 23  1  0
 23 24  2  0
 23 57  1  0
 24 25  1  0
 24 58  1  0
 25 26  2  0
 25 59  1  0
 26 27  1  0
 26 60  1  0
 28 34  1  0
 28 29  2  0
 29 30  1  0
 29 61  1  0
 30 31  2  0
 30 62  1  0
 31 32  1  0
 31 33  1  0
 33 34  2  0
 33 63  1  0
 34 64  1  0
 35 36  1  0
 35 65  1  0
 35 66  1  0
 36 67  1  0
 36 68  1  0
M  CHG  1   9   1
M  END
>  <DOCK_score>  (1) 
-58.191345

>  <SMILES>  (1) 
C=CCC[C@H](O)C[NH+]1CCC(C(=O)NCc2cccc3ccccc23)(c2ccc(Cl)cc2)CC1

$$$$
