CCc1ccc(C2=CC[C@H](NC(NC3CC=CC3)=[NH+]C3CNC(=O)NC3)CC2)cc1
     RDKit          3D

 64 67  0  0  1  0  0  0  0  0999 V2000
  137.0948  138.0483  167.8851 C   0  0  0  0  0  0  0  0  0  0  0  0
  136.1330  139.0864  167.3037 C   0  0  0  0  0  0  0  0  0  0  0  0
  135.3951  138.4882  166.1339 C   0  0  0  0  0  0  0  0  0  0  0  0
  134.1955  137.8307  166.3398 C   0  0  0  0  0  0  0  0  0  0  0  0
  133.5150  137.2807  165.2728 C   0  0  0  0  0  0  0  0  0  0  0  0
  134.0392  137.3890  163.9843 C   0  0  0  0  0  0  0  0  0  0  0  0
  133.3154  136.8021  162.8368 C   0  0  0  0  0  0  0  0  0  0  0  0
  133.0875  135.5112  162.8461 C   0  0  0  0  0  0  0  0  0  0  0  0
  132.3741  134.7801  161.7463 C   0  0  0  0  0  0  0  0  0  0  0  0
  131.6031  135.7694  160.8699 C   0  0  2  0  0  0  0  0  0  0  0  0
  130.7578  136.1717  161.4282 H   0  0  0  0  0  0  0  0  0  0  0  0
  131.1230  135.0889  159.6646 N   0  0  0  0  0  0  0  0  0  0  0  0
  129.8890  134.4829  159.6629 C   0  0  0  0  0  0  0  0  0  0  0  0
  129.4383  133.8443  158.5319 N   0  0  0  0  0  0  0  0  0  0  0  0
  130.3942  133.2280  157.6085 C   0  0  0  0  0  0  0  0  0  0  0  0
  129.6645  132.4040  156.5223 C   0  0  0  0  0  0  0  0  0  0  0  0
  130.5455  131.1956  156.3013 C   0  0  0  0  0  0  0  0  0  0  0  0
  131.3962  131.0484  157.2804 C   0  0  0  0  0  0  0  0  0  0  0  0
  131.2245  132.1333  158.3179 C   0  0  0  0  0  0  0  0  0  0  0  0
  129.1463  134.5136  160.7336 N   0  0  0  0  0  0  0  0  0  0  0  0
  129.5602  134.5474  161.6102 H   0  0  0  0  0  0  0  0  0  0  0  0
  127.6864  134.4973  160.6131 C   0  0  0  0  0  0  0  0  0  0  0  0
  127.0637  135.2391  161.8007 C   0  0  0  0  0  0  0  0  0  0  0  0
  125.6063  135.1147  161.7329 N   0  0  0  0  0  0  0  0  0  0  0  0
  125.0208  134.0512  161.1626 C   0  0  0  0  0  0  0  0  0  0  0  0
  123.8063  133.9953  161.1404 O   0  0  0  0  0  0  0  0  0  0  0  0
  125.7218  133.0469  160.6154 N   0  0  0  0  0  0  0  0  0  0  0  0
  127.1856  133.0490  160.6206 C   0  0  0  0  0  0  0  0  0  0  0  0
  132.5496  136.9100  160.4753 C   0  0  0  0  0  0  0  0  0  0  0  0
  132.8794  137.7202  161.7324 C   0  0  0  0  0  0  0  0  0  0  0  0
  135.2525  138.0484  163.7842 C   0  0  0  0  0  0  0  0  0  0  0  0
  135.9200  138.5994  164.8587 C   0  0  0  0  0  0  0  0  0  0  0  0
  136.5308  137.1771  168.2184 H   0  0  0  0  0  0  0  0  0  0  0  0
  137.8102  137.7470  167.1198 H   0  0  0  0  0  0  0  0  0  0  0  0
  137.6285  138.4810  168.7313 H   0  0  0  0  0  0  0  0  0  0  0  0
  136.6970  139.9577  166.9705 H   0  0  0  0  0  0  0  0  0  0  0  0
  135.4177  139.3878  168.0690 H   0  0  0  0  0  0  0  0  0  0  0  0
  133.7910  137.7472  167.3376 H   0  0  0  0  0  0  0  0  0  0  0  0
  132.5787  136.7672  165.4349 H   0  0  0  0  0  0  0  0  0  0  0  0
  133.4336  134.9400  163.6949 H   0  0  0  0  0  0  0  0  0  0  0  0
  133.1026  134.2474  161.1349 H   0  0  0  0  0  0  0  0  0  0  0  0
  131.6757  134.0653  162.1813 H   0  0  0  0  0  0  0  0  0  0  0  0
  131.6758  135.0659  158.8678 H   0  0  0  0  0  0  0  0  0  0  0  0
  128.4873  133.8018  158.3452 H   0  0  0  0  0  0  0  0  0  0  0  0
  131.0420  133.9809  157.1594 H   0  0  0  0  0  0  0  0  0  0  0  0
  128.6804  132.0968  156.8760 H   0  0  0  0  0  0  0  0  0  0  0  0
  129.5750  132.9827  155.6030 H   0  0  0  0  0  0  0  0  0  0  0  0
  130.4797  130.5402  155.4455 H   0  0  0  0  0  0  0  0  0  0  0  0
  132.1270  130.2556  157.3404 H   0  0  0  0  0  0  0  0  0  0  0  0
  132.1950  132.5279  158.6188 H   0  0  0  0  0  0  0  0  0  0  0  0
  130.6852  131.7490  159.1836 H   0  0  0  0  0  0  0  0  0  0  0  0
  127.3904  134.9821  159.6828 H   0  0  0  0  0  0  0  0  0  0  0  0
  127.4218  134.8008  162.7322 H   0  0  0  0  0  0  0  0  0  0  0  0
  127.3444  136.2915  161.7606 H   0  0  0  0  0  0  0  0  0  0  0  0
  125.0530  135.8184  162.1065 H   0  0  0  0  0  0  0  0  0  0  0  0
  125.2491  132.3045  160.2077 H   0  0  0  0  0  0  0  0  0  0  0  0
  127.5537  132.5317  159.7346 H   0  0  0  0  0  0  0  0  0  0  0  0
  127.5474  132.5431  161.5156 H   0  0  0  0  0  0  0  0  0  0  0  0
  133.4649  136.4963  160.0517 H   0  0  0  0  0  0  0  0  0  0  0  0
  132.0635  137.5518  159.7405 H   0  0  0  0  0  0  0  0  0  0  0  0
  131.9966  138.2747  162.0508 H   0  0  0  0  0  0  0  0  0  0  0  0
  133.6827  138.4218  161.5075 H   0  0  0  0  0  0  0  0  0  0  0  0
  135.6657  138.1316  162.7899 H   0  0  0  0  0  0  0  0  0  0  0  0
  136.8569  139.1143  164.7046 H   0  0  0  0  0  0  0  0  0  0  0  0
  1  2  1  0
  1 33  1  0
  1 34  1  0
  1 35  1  0
  2  3  1  0
  2 36  1  0
  2 37  1  0
  3 32  2  0
  3  4  1  0
  4  5  2  0
  4 38  1  0
  5  6  1  0
  5 39  1  0
  6  7  1  0
  6 31  2  0
  7 30  1  0
  7  8  2  0
  8  9  1  0
  8 40  1  0
  9 10  1  0
  9 41  1  0
  9 42  1  0
 10 11  1  1
 10 12  1  0
 10 29  1  0
 12 43  1  0
 13 12  1  0
 13 14  1  0
 13 20  2  0
 14 15  1  0
 14 44  1  0
 15 19  1  0
 15 16  1  0
 15 45  1  0
 16 17  1  0
 16 46  1  0
 16 47  1  0
 17 18  2  0
 17 48  1  0
 18 19  1  0
 18 49  1  0
 19 50  1  0
 19 51  1  0
 20 21  1  0
 20 22  1  0
 22 28  1  0
 22 23  1  0
 22 52  1  0
 23 24  1  0
 23 53  1  0
 23 54  1  0
 24 25  1  0
 24 55  1  0
 25 26  2  0
 25 27  1  0
 27 28  1  0
 27 56  1  0
 28 57  1  0
 28 58  1  0
 29 30  1  0
 29 59  1  0
 29 60  1  0
 30 61  1  0
 30 62  1  0
 31 32  1  0
 31 63  1  0
 32 64  1  0
M  CHG  1  20   1
M  END
>  <DOCK_score>  (1) 
-45.120949

>  <SMILES>  (1) 
CCc1ccc(C2=CC[C@H](NC(NC3CC=CC3)=[NH+]C3CNC(=O)NC3)CC2)cc1

$$$$
