CCc1ccc(-c2c[nH]c(N[C@H](CCl)Cc3ccc(C4=CCCC4)cc3)[nH+]2)cc1
     RDKit          3D

 58 61  0  0  1  0  0  0  0  0999 V2000
  130.3750  128.6082  151.9401 C   0  0  0  0  0  0  0  0  0  0  0  0
  131.4592  129.6416  152.2531 C   0  0  0  0  0  0  0  0  0  0  0  0
  131.0667  130.4264  153.4781 C   0  0  0  0  0  0  0  0  0  0  0  0
  131.4492  129.9846  154.7318 C   0  0  0  0  0  0  0  0  0  0  0  0
  131.0919  130.6992  155.8571 C   0  0  0  0  0  0  0  0  0  0  0  0
  130.3440  131.8682  155.7285 C   0  0  0  0  0  0  0  0  0  0  0  0
  129.9569  132.6407  156.9342 C   0  0  0  0  0  0  0  0  0  0  0  0
  129.2005  132.1867  157.9640 C   0  0  0  0  0  0  0  0  0  0  0  0
  129.0876  133.2204  158.8617 N   0  0  0  0  0  0  0  0  0  0  0  0
  128.6047  133.2008  159.7027 H   0  0  0  0  0  0  0  0  0  0  0  0
  129.7789  134.2768  158.3537 C   0  0  0  0  0  0  0  0  0  0  0  0
  129.9122  135.5171  158.9541 N   0  0  0  0  0  0  0  0  0  0  0  0
  129.2774  135.7762  160.2487 C   0  0  2  0  0  0  0  0  0  0  0  0
  129.3809  134.8981  160.8864 H   0  0  0  0  0  0  0  0  0  0  0  0
  127.7931  136.0807  160.0371 C   0  0  0  0  0  0  0  0  0  0  0  0
  126.8886  134.5369  159.8145 Cl  0  0  0  0  0  0  0  0  0  0  0  0
  129.9536  136.9746  160.9175 C   0  0  0  0  0  0  0  0  0  0  0  0
  131.2402  136.5295  161.5638 C   0  0  0  0  0  0  0  0  0  0  0  0
  132.4200  136.5598  160.8419 C   0  0  0  0  0  0  0  0  0  0  0  0
  133.6013  136.1534  161.4276 C   0  0  0  0  0  0  0  0  0  0  0  0
  133.6043  135.7114  162.7510 C   0  0  0  0  0  0  0  0  0  0  0  0
  134.8663  135.2748  163.3848 C   0  0  0  0  0  0  0  0  0  0  0  0
  135.6179  134.2779  162.9512 C   0  0  0  0  0  0  0  0  0  0  0  0
  136.8344  134.1004  163.8299 C   0  0  0  0  0  0  0  0  0  0  0  0
  136.5022  134.8749  165.1259 C   0  0  0  0  0  0  0  0  0  0  0  0
  135.4715  135.9080  164.6162 C   0  0  0  0  0  0  0  0  0  0  0  0
  132.4100  135.6779  163.4718 C   0  0  0  0  0  0  0  0  0  0  0  0
  131.2365  136.0926  162.8764 C   0  0  0  0  0  0  0  0  0  0  0  0
  130.2929  133.9283  157.1995 N   0  0  0  0  0  0  0  0  0  0  0  0
  130.8293  134.4990  156.6272 H   0  0  0  0  0  0  0  0  0  0  0  0
  129.9563  132.3057  154.4632 C   0  0  0  0  0  0  0  0  0  0  0  0
  130.3242  131.5862  153.3444 C   0  0  0  0  0  0  0  0  0  0  0  0
  130.6592  128.0404  151.0541 H   0  0  0  0  0  0  0  0  0  0  0  0
  130.2642  127.9299  152.7862 H   0  0  0  0  0  0  0  0  0  0  0  0
  129.4292  129.1181  151.7569 H   0  0  0  0  0  0  0  0  0  0  0  0
  131.5700  130.3195  151.4072 H   0  0  0  0  0  0  0  0  0  0  0  0
  132.4049  129.1313  152.4363 H   0  0  0  0  0  0  0  0  0  0  0  0
  132.0289  129.0787  154.8302 H   0  0  0  0  0  0  0  0  0  0  0  0
  131.3916  130.3535  156.8353 H   0  0  0  0  0  0  0  0  0  0  0  0
  128.7690  131.2013  158.0599 H   0  0  0  0  0  0  0  0  0  0  0  0
  130.4260  136.2146  158.5176 H   0  0  0  0  0  0  0  0  0  0  0  0
  127.4026  136.6082  160.9075 H   0  0  0  0  0  0  0  0  0  0  0  0
  127.6727  136.7034  159.1507 H   0  0  0  0  0  0  0  0  0  0  0  0
  129.2902  137.3892  161.6767 H   0  0  0  0  0  0  0  0  0  0  0  0
  130.1681  137.7361  160.1676 H   0  0  0  0  0  0  0  0  0  0  0  0
  132.4162  136.9018  159.8174 H   0  0  0  0  0  0  0  0  0  0  0  0
  134.5217  136.1779  160.8630 H   0  0  0  0  0  0  0  0  0  0  0  0
  135.3931  133.6721  162.0858 H   0  0  0  0  0  0  0  0  0  0  0  0
  137.7151  134.5257  163.3489 H   0  0  0  0  0  0  0  0  0  0  0  0
  136.9933  133.0445  164.0490 H   0  0  0  0  0  0  0  0  0  0  0  0
  136.0582  134.2157  165.8719 H   0  0  0  0  0  0  0  0  0  0  0  0
  137.3885  135.3697  165.5232 H   0  0  0  0  0  0  0  0  0  0  0  0
  134.7035  136.0816  165.3699 H   0  0  0  0  0  0  0  0  0  0  0  0
  135.9677  136.8438  164.3587 H   0  0  0  0  0  0  0  0  0  0  0  0
  132.4051  135.3325  164.4952 H   0  0  0  0  0  0  0  0  0  0  0  0
  130.3123  136.0717  163.4347 H   0  0  0  0  0  0  0  0  0  0  0  0
  129.3726  133.2084  154.3580 H   0  0  0  0  0  0  0  0  0  0  0  0
  130.0282  131.9265  152.3632 H   0  0  0  0  0  0  0  0  0  0  0  0
  1  2  1  0
  1 33  1  0
  1 34  1  0
  1 35  1  0
  2  3  1  0
  2 36  1  0
  2 37  1  0
  3 32  2  0
  3  4  1  0
  4  5  2  0
  4 38  1  0
  5  6  1  0
  5 39  1  0
  6  7  1  0
  6 31  2  0
  7 29  1  0
  7  8  2  0
  8  9  1  0
  8 40  1  0
  9 10  1  0
  9 11  1  0
 11 12  1  0
 11 29  2  0
 12 13  1  0
 12 41  1  0
 13 14  1  1
 13 15  1  0
 13 17  1  0
 15 16  1  0
 15 42  1  0
 15 43  1  0
 17 18  1  0
 17 44  1  0
 17 45  1  0
 18 28  1  0
 18 19  2  0
 19 20  1  0
 19 46  1  0
 20 21  2  0
 20 47  1  0
 21 22  1  0
 21 27  1  0
 22 26  1  0
 22 23  2  0
 23 24  1  0
 23 48  1  0
 24 25  1  0
 24 49  1  0
 24 50  1  0
 25 26  1  0
 25 51  1  0
 25 52  1  0
 26 53  1  0
 26 54  1  0
 27 28  2  0
 27 55  1  0
 28 56  1  0
 29 30  1  0
 31 32  1  0
 31 57  1  0
 32 58  1  0
M  CHG  1  29   1
M  END
>  <DOCK_score>  (1) 
-60.272873

>  <SMILES>  (1) 
CCc1ccc(-c2c[nH]c(N[C@H](CCl)Cc3ccc(C4=CCCC4)cc3)[nH+]2)cc1

$$$$
