C1=CCC(c2ccc([C@H](Nc3[nH]cc(-c4ccccc4)[nH+]3)C3CC3)cc2)=CC1
     RDKit          3D

 54 58  0  0  1  0  0  0  0  0999 V2000
  134.5547  140.8918  164.1785 C   0  0  0  0  0  0  0  0  0  0  0  0
  133.4575  140.4680  164.7264 C   0  0  0  0  0  0  0  0  0  0  0  0
  132.7320  139.2439  164.2619 C   0  0  0  0  0  0  0  0  0  0  0  0
  133.1392  138.8646  162.8695 C   0  0  0  0  0  0  0  0  0  0  0  0
  132.2524  137.9774  162.0878 C   0  0  0  0  0  0  0  0  0  0  0  0
  131.7118  138.4160  160.8785 C   0  0  0  0  0  0  0  0  0  0  0  0
  130.8844  137.5829  160.1538 C   0  0  0  0  0  0  0  0  0  0  0  0
  130.5857  136.3176  160.6266 C   0  0  0  0  0  0  0  0  0  0  0  0
  129.6762  135.4155  159.8329 C   0  0  2  0  0  0  0  0  0  0  0  0
  129.5571  134.4672  160.3571 H   0  0  0  0  0  0  0  0  0  0  0  0
  130.2608  135.1729  158.5116 N   0  0  0  0  0  0  0  0  0  0  0  0
  130.0136  133.9801  157.8538 C   0  0  0  0  0  0  0  0  0  0  0  0
  129.2437  132.9608  158.3230 N   0  0  0  0  0  0  0  0  0  0  0  0
  128.7736  132.9393  159.1713 H   0  0  0  0  0  0  0  0  0  0  0  0
  129.2554  131.9677  157.3740 C   0  0  0  0  0  0  0  0  0  0  0  0
  130.0313  132.4084  156.3529 C   0  0  0  0  0  0  0  0  0  0  0  0
  130.3331  131.6680  155.1035 C   0  0  0  0  0  0  0  0  0  0  0  0
  129.9689  132.2020  153.8688 C   0  0  0  0  0  0  0  0  0  0  0  0
  130.2576  131.5116  152.7091 C   0  0  0  0  0  0  0  0  0  0  0  0
  130.8967  130.2863  152.7716 C   0  0  0  0  0  0  0  0  0  0  0  0
  131.2551  129.7488  153.9946 C   0  0  0  0  0  0  0  0  0  0  0  0
  130.9768  130.4331  155.1603 C   0  0  0  0  0  0  0  0  0  0  0  0
  130.4780  133.6486  156.6738 N   0  0  0  0  0  0  0  0  0  0  0  0
  131.0511  134.2010  156.1193 H   0  0  0  0  0  0  0  0  0  0  0  0
  128.3095  136.0840  159.6709 C   0  0  0  0  0  0  0  0  0  0  0  0
  127.2455  135.7817  160.7281 C   0  0  0  0  0  0  0  0  0  0  0  0
  127.1203  135.1857  159.3245 C   0  0  0  0  0  0  0  0  0  0  0  0
  131.1229  135.8747  161.8221 C   0  0  0  0  0  0  0  0  0  0  0  0
  131.9518  136.6978  162.5563 C   0  0  0  0  0  0  0  0  0  0  0  0
  134.2509  139.2941  162.3143 C   0  0  0  0  0  0  0  0  0  0  0  0
  135.2138  140.1964  163.0257 C   0  0  0  0  0  0  0  0  0  0  0  0
  135.0138  141.7872  164.5707 H   0  0  0  0  0  0  0  0  0  0  0  0
  133.0462  141.0265  165.5543 H   0  0  0  0  0  0  0  0  0  0  0  0
  131.6588  139.4337  164.2810 H   0  0  0  0  0  0  0  0  0  0  0  0
  132.9603  138.4197  164.9377 H   0  0  0  0  0  0  0  0  0  0  0  0
  131.9404  139.4053  160.5107 H   0  0  0  0  0  0  0  0  0  0  0  0
  130.4653  137.9212  159.2176 H   0  0  0  0  0  0  0  0  0  0  0  0
  130.8210  135.8480  158.0977 H   0  0  0  0  0  0  0  0  0  0  0  0
  128.7443  131.0179  157.4302 H   0  0  0  0  0  0  0  0  0  0  0  0
  129.4656  133.1562  153.8191 H   0  0  0  0  0  0  0  0  0  0  0  0
  129.9802  131.9268  151.7513 H   0  0  0  0  0  0  0  0  0  0  0  0
  131.1172  129.7472  151.8620 H   0  0  0  0  0  0  0  0  0  0  0  0
  131.7537  128.7917  154.0374 H   0  0  0  0  0  0  0  0  0  0  0  0
  131.2577  130.0127  156.1147 H   0  0  0  0  0  0  0  0  0  0  0  0
  128.3242  137.0865  159.2436 H   0  0  0  0  0  0  0  0  0  0  0  0
  127.5192  135.1066  161.5390 H   0  0  0  0  0  0  0  0  0  0  0  0
  126.5602  136.5855  160.9965 H   0  0  0  0  0  0  0  0  0  0  0  0
  126.3525  135.5975  158.6695 H   0  0  0  0  0  0  0  0  0  0  0  0
  127.3116  134.1186  159.2120 H   0  0  0  0  0  0  0  0  0  0  0  0
  130.8892  134.8843  162.1838 H   0  0  0  0  0  0  0  0  0  0  0  0
  132.3666  136.3528  163.4918 H   0  0  0  0  0  0  0  0  0  0  0  0
  134.4793  138.9847  161.3052 H   0  0  0  0  0  0  0  0  0  0  0  0
  136.0506  139.6046  163.3968 H   0  0  0  0  0  0  0  0  0  0  0  0
  135.5875  140.9435  162.3255 H   0  0  0  0  0  0  0  0  0  0  0  0
  1 31  1  0
  1  2  2  0
  1 32  1  0
  2  3  1  0
  2 33  1  0
  3  4  1  0
  3 34  1  0
  3 35  1  0
  4  5  1  0
  4 30  2  0
  5 29  1  0
  5  6  2  0
  6  7  1  0
  6 36  1  0
  7  8  2  0
  7 37  1  0
  8  9  1  0
  8 28  1  0
  9 10  1  1
  9 11  1  0
  9 25  1  0
 11 38  1  0
 12 11  1  0
 12 23  2  0
 12 13  1  0
 13 14  1  0
 13 15  1  0
 15 16  2  0
 15 39  1  0
 16 17  1  0
 16 23  1  0
 17 22  1  0
 17 18  2  0
 18 19  1  0
 18 40  1  0
 19 20  2  0
 19 41  1  0
 20 21  1  0
 20 42  1  0
 21 22  2  0
 21 43  1  0
 22 44  1  0
 23 24  1  0
 25 27  1  0
 25 26  1  0
 25 45  1  0
 26 27  1  0
 26 46  1  0
 26 47  1  0
 27 48  1  0
 27 49  1  0
 28 29  2  0
 28 50  1  0
 29 51  1  0
 30 31  1  0
 30 52  1  0
 31 53  1  0
 31 54  1  0
M  CHG  1  23   1
M  END
>  <DOCK_score>  (1) 
-56.412582

>  <SMILES>  (1) 
C1=CCC(c2ccc([C@H](Nc3[nH]cc(-c4ccccc4)[nH+]3)C3CC3)cc2)=CC1

$$$$
