CCc1ccc(-c2c[nH]c(N[C@@H](Cc3cccc4c3OCCO4)c3ccccc3)[nH+]2)cc1
     RDKit          3D

 60 64  0  0  1  0  0  0  0  0999 V2000
  130.6090  128.4617  151.6524 C   0  0  0  0  0  0  0  0  0  0  0  0
  131.6890  129.4818  152.0180 C   0  0  0  0  0  0  0  0  0  0  0  0
  131.2922  130.2031  153.2802 C   0  0  0  0  0  0  0  0  0  0  0  0
  131.6764  129.7011  154.5101 C   0  0  0  0  0  0  0  0  0  0  0  0
  131.3208  130.3604  155.6693 C   0  0  0  0  0  0  0  0  0  0  0  0
  130.5632  131.5282  155.5992 C   0  0  0  0  0  0  0  0  0  0  0  0
  130.1731  132.2383  156.8417 C   0  0  0  0  0  0  0  0  0  0  0  0
  129.4322  131.7253  157.8551 C   0  0  0  0  0  0  0  0  0  0  0  0
  129.3098  132.7148  158.7999 N   0  0  0  0  0  0  0  0  0  0  0  0
  128.8336  132.6490  159.6425 H   0  0  0  0  0  0  0  0  0  0  0  0
  129.9801  133.8046  158.3360 C   0  0  0  0  0  0  0  0  0  0  0  0
  130.0988  135.0178  158.9920 N   0  0  0  0  0  0  0  0  0  0  0  0
  129.0341  135.4725  159.8896 C   0  0  1  0  0  0  0  0  0  0  0  0
  128.9043  134.7494  160.6948 H   0  0  0  0  0  0  0  0  0  0  0  0
  129.4115  136.8322  160.4810 C   0  0  0  0  0  0  0  0  0  0  0  0
  130.6991  136.7041  161.2535 C   0  0  0  0  0  0  0  0  0  0  0  0
  130.7745  135.8430  162.3322 C   0  0  0  0  0  0  0  0  0  0  0  0
  131.9553  135.7197  163.0399 C   0  0  0  0  0  0  0  0  0  0  0  0
  133.0614  136.4657  162.6786 C   0  0  0  0  0  0  0  0  0  0  0  0
  132.9907  137.3361  161.6014 C   0  0  0  0  0  0  0  0  0  0  0  0
  131.8054  137.4543  160.8848 C   0  0  0  0  0  0  0  0  0  0  0  0
  131.7170  138.2962  159.8190 O   0  0  0  0  0  0  0  0  0  0  0  0
  132.7275  139.3046  159.7097 C   0  0  0  0  0  0  0  0  0  0  0  0
  134.0924  138.6457  159.9508 C   0  0  0  0  0  0  0  0  0  0  0  0
  134.0863  138.0686  161.2612 O   0  0  0  0  0  0  0  0  0  0  0  0
  127.7464  135.6007  159.1171 C   0  0  0  0  0  0  0  0  0  0  0  0
  126.5359  135.3952  159.7523 C   0  0  0  0  0  0  0  0  0  0  0  0
  125.3546  135.5172  159.0447 C   0  0  0  0  0  0  0  0  0  0  0  0
  125.3843  135.8357  157.6998 C   0  0  0  0  0  0  0  0  0  0  0  0
  126.5950  136.0360  157.0635 C   0  0  0  0  0  0  0  0  0  0  0  0
  127.7761  135.9183  157.7721 C   0  0  0  0  0  0  0  0  0  0  0  0
  130.4996  133.5140  157.1682 N   0  0  0  0  0  0  0  0  0  0  0  0
  131.0305  134.1158  156.6234 H   0  0  0  0  0  0  0  0  0  0  0  0
  130.1739  132.0266  154.3571 C   0  0  0  0  0  0  0  0  0  0  0  0
  130.5401  131.3621  153.2043 C   0  0  0  0  0  0  0  0  0  0  0  0
  130.5007  127.7416  152.4635 H   0  0  0  0  0  0  0  0  0  0  0  0
  129.6612  128.9762  151.4944 H   0  0  0  0  0  0  0  0  0  0  0  0
  130.8959  127.9401  150.7394 H   0  0  0  0  0  0  0  0  0  0  0  0
  132.6365  128.9678  152.1755 H   0  0  0  0  0  0  0  0  0  0  0  0
  131.7970  130.2025  151.2064 H   0  0  0  0  0  0  0  0  0  0  0  0
  132.2593  128.7936  154.5635 H   0  0  0  0  0  0  0  0  0  0  0  0
  131.6253  129.9700  156.6291 H   0  0  0  0  0  0  0  0  0  0  0  0
  129.0175  130.7295  157.9087 H   0  0  0  0  0  0  0  0  0  0  0  0
  130.8871  135.5668  158.8574 H   0  0  0  0  0  0  0  0  0  0  0  0
  129.5411  137.5553  159.6759 H   0  0  0  0  0  0  0  0  0  0  0  0
  128.6192  137.1704  161.1489 H   0  0  0  0  0  0  0  0  0  0  0  0
  129.9103  135.2628  162.6203 H   0  0  0  0  0  0  0  0  0  0  0  0
  132.0125  135.0424  163.8793 H   0  0  0  0  0  0  0  0  0  0  0  0
  133.9816  136.3711  163.2360 H   0  0  0  0  0  0  0  0  0  0  0  0
  132.5562  140.0791  160.4573 H   0  0  0  0  0  0  0  0  0  0  0  0
  132.7026  139.7441  158.7127 H   0  0  0  0  0  0  0  0  0  0  0  0
  134.8799  139.3963  159.8835 H   0  0  0  0  0  0  0  0  0  0  0  0
  134.2620  137.8671  159.2071 H   0  0  0  0  0  0  0  0  0  0  0  0
  126.5129  135.1428  160.8021 H   0  0  0  0  0  0  0  0  0  0  0  0
  124.4087  135.3610  159.5420 H   0  0  0  0  0  0  0  0  0  0  0  0
  124.4615  135.9283  157.1465 H   0  0  0  0  0  0  0  0  0  0  0  0
  126.6182  136.2848  156.0128 H   0  0  0  0  0  0  0  0  0  0  0  0
  128.7219  136.0748  157.2750 H   0  0  0  0  0  0  0  0  0  0  0  0
  129.5867  132.9311  154.2970 H   0  0  0  0  0  0  0  0  0  0  0  0
  130.2388  131.7473  152.2413 H   0  0  0  0  0  0  0  0  0  0  0  0
  1  2  1  0
  1 36  1  0
  1 37  1  0
  1 38  1  0
  2  3  1  0
  2 39  1  0
  2 40  1  0
  3 35  2  0
  3  4  1  0
  4  5  2  0
  4 41  1  0
  5  6  1  0
  5 42  1  0
  6  7  1  0
  6 34  2  0
  7 32  1  0
  7  8  2  0
  8  9  1  0
  8 43  1  0
  9 10  1  0
  9 11  1  0
 11 12  1  0
 11 32  2  0
 12 13  1  0
 12 44  1  0
 13 14  1  1
 13 15  1  0
 13 26  1  0
 15 16  1  0
 15 45  1  0
 15 46  1  0
 16 21  1  0
 16 17  2  0
 17 18  1  0
 17 47  1  0
 18 19  2  0
 18 48  1  0
 19 20  1  0
 19 49  1  0
 20 25  1  0
 20 21  2  0
 21 22  1  0
 22 23  1  0
 23 24  1  0
 23 50  1  0
 23 51  1  0
 24 25  1  0
 24 52  1  0
 24 53  1  0
 26 31  1  0
 26 27  2  0
 27 28  1  0
 27 54  1  0
 28 29  2  0
 28 55  1  0
 29 30  1  0
 29 56  1  0
 30 31  2  0
 30 57  1  0
 31 58  1  0
 32 33  1  0
 34 35  1  0
 34 59  1  0
 35 60  1  0
M  CHG  1  32   1
M  END
>  <DOCK_score>  (1) 
-64.27552

>  <SMILES>  (1) 
CCc1ccc(-c2c[nH]c(N[C@@H](Cc3cccc4c3OCCO4)c3ccccc3)[nH+]2)cc1

$$$$
