CCc1ccc(-c2c[nH]c(N[C@@H](CO)c3ccccc3Cl)[nH+]2)cc1
     RDKit          3D

 45 47  0  0  1  0  0  0  0  0999 V2000
  130.0162  128.6807  151.4247 C   0  0  0  0  0  0  0  0  0  0  0  0
  131.2016  129.5947  151.7410 C   0  0  0  0  0  0  0  0  0  0  0  0
  130.9395  130.3291  153.0306 C   0  0  0  0  0  0  0  0  0  0  0  0
  131.3425  129.7762  154.2323 C   0  0  0  0  0  0  0  0  0  0  0  0
  131.1103  130.4467  155.4160 C   0  0  0  0  0  0  0  0  0  0  0  0
  130.4580  131.6783  155.3998 C   0  0  0  0  0  0  0  0  0  0  0  0
  130.2006  132.4012  156.6692 C   0  0  0  0  0  0  0  0  0  0  0  0
  129.4721  131.9408  157.7162 C   0  0  0  0  0  0  0  0  0  0  0  0
  129.4899  132.9228  158.6767 N   0  0  0  0  0  0  0  0  0  0  0  0
  129.0553  132.8869  159.5431 H   0  0  0  0  0  0  0  0  0  0  0  0
  130.2295  133.9554  158.1880 C   0  0  0  0  0  0  0  0  0  0  0  0
  130.4918  135.1431  158.8492 N   0  0  0  0  0  0  0  0  0  0  0  0
  129.9547  135.3672  160.1937 C   0  0  1  0  0  0  0  0  0  0  0  0
  130.3343  134.6004  160.8690 H   0  0  0  0  0  0  0  0  0  0  0  0
  130.3886  136.7467  160.6929 C   0  0  0  0  0  0  0  0  0  0  0  0
  131.7325  136.6783  161.1739 O   0  0  0  0  0  0  0  0  0  0  0  0
  128.4498  135.2987  160.1512 C   0  0  0  0  0  0  0  0  0  0  0  0
  127.7730  135.6709  159.0049 C   0  0  0  0  0  0  0  0  0  0  0  0
  126.3928  135.6080  158.9656 C   0  0  0  0  0  0  0  0  0  0  0  0
  125.6883  135.1734  160.0731 C   0  0  0  0  0  0  0  0  0  0  0  0
  126.3638  134.8013  161.2199 C   0  0  0  0  0  0  0  0  0  0  0  0
  127.7458  134.8580  161.2574 C   0  0  0  0  0  0  0  0  0  0  0  0
  128.5957  134.3830  162.6948 Cl  0  0  0  0  0  0  0  0  0  0  0  0
  130.6574  133.6376  156.9905 N   0  0  0  0  0  0  0  0  0  0  0  0
  131.2101  134.1980  156.4237 H   0  0  0  0  0  0  0  0  0  0  0  0
  130.0490  132.2284  154.1862 C   0  0  0  0  0  0  0  0  0  0  0  0
  130.2916  131.5516  153.0082 C   0  0  0  0  0  0  0  0  0  0  0  0
  129.8875  127.9607  152.2329 H   0  0  0  0  0  0  0  0  0  0  0  0
  129.1112  129.2800  151.3243 H   0  0  0  0  0  0  0  0  0  0  0  0
  130.2057  128.1496  150.4918 H   0  0  0  0  0  0  0  0  0  0  0  0
  132.1061  128.9960  151.8409 H   0  0  0  0  0  0  0  0  0  0  0  0
  131.3300  130.3153  150.9323 H   0  0  0  0  0  0  0  0  0  0  0  0
  131.8436  128.8195  154.2442 H   0  0  0  0  0  0  0  0  0  0  0  0
  131.4298  130.0160  156.3535 H   0  0  0  0  0  0  0  0  0  0  0  0
  128.9731  130.9853  157.7822 H   0  0  0  0  0  0  0  0  0  0  0  0
  131.0313  135.8269  158.4221 H   0  0  0  0  0  0  0  0  0  0  0  0
  130.3317  137.4638  159.8740 H   0  0  0  0  0  0  0  0  0  0  0  0
  129.7293  137.0646  161.5006 H   0  0  0  0  0  0  0  0  0  0  0  0
  131.8574  136.0580  161.9051 H   0  0  0  0  0  0  0  0  0  0  0  0
  128.3226  136.0109  158.1395 H   0  0  0  0  0  0  0  0  0  0  0  0
  125.8643  135.8986  158.0696 H   0  0  0  0  0  0  0  0  0  0  0  0
  124.6097  135.1250  160.0421 H   0  0  0  0  0  0  0  0  0  0  0  0
  125.8134  134.4616  162.0848 H   0  0  0  0  0  0  0  0  0  0  0  0
  129.5429  133.1823  154.1677 H   0  0  0  0  0  0  0  0  0  0  0  0
  129.9748  131.9767  152.0673 H   0  0  0  0  0  0  0  0  0  0  0  0
  1  2  1  0
  1 28  1  0
  1 29  1  0
  1 30  1  0
  2  3  1  0
  2 31  1  0
  2 32  1  0
  3 27  2  0
  3  4  1  0
  4  5  2  0
  4 33  1  0
  5  6  1  0
  5 34  1  0
  6  7  1  0
  6 26  2  0
  7 24  1  0
  7  8  2  0
  8  9  1  0
  8 35  1  0
  9 10  1  0
  9 11  1  0
 11 12  1  0
 11 24  2  0
 12 13  1  0
 12 36  1  0
 13 14  1  1
 13 15  1  0
 13 17  1  0
 15 16  1  0
 15 37  1  0
 15 38  1  0
 16 39  1  0
 17 22  1  0
 17 18  2  0
 18 19  1  0
 18 40  1  0
 19 20  2  0
 19 41  1  0
 20 21  1  0
 20 42  1  0
 21 22  2  0
 21 43  1  0
 22 23  1  0
 24 25  1  0
 26 27  1  0
 26 44  1  0
 27 45  1  0
M  CHG  1  24   1
M  END
>  <DOCK_score>  (1) 
-57.889328

>  <SMILES>  (1) 
CCc1ccc(-c2c[nH]c(N[C@@H](CO)c3ccccc3Cl)[nH+]2)cc1

$$$$
