N#Cc1ccc(-c2nn(-c3ccccc3N)cc2CNc2[nH]cc(-c3ccc(N)cc3)[nH+]2)cc1
     RDKit          3D

 57 61  0  0  1  0  0  0  0  0999 V2000
  127.1977  134.6147  167.6821 N   0  0  0  0  0  0  0  0  0  0  0  0
  127.8172  135.0351  166.8277 C   0  0  0  0  0  0  0  0  0  0  0  0
  128.5984  135.5650  165.7508 C   0  0  0  0  0  0  0  0  0  0  0  0
  129.4357  134.7227  165.0136 C   0  0  0  0  0  0  0  0  0  0  0  0
  130.1856  135.2332  163.9785 C   0  0  0  0  0  0  0  0  0  0  0  0
  130.1100  136.5905  163.6645 C   0  0  0  0  0  0  0  0  0  0  0  0
  130.9182  137.1389  162.5494 C   0  0  0  0  0  0  0  0  0  0  0  0
  131.8306  138.0845  162.6470 N   0  0  0  0  0  0  0  0  0  0  0  0
  132.3604  138.3125  161.3705 N   0  0  0  0  0  0  0  0  0  0  0  0
  133.3575  139.2433  161.0466 C   0  0  0  0  0  0  0  0  0  0  0  0
  133.7930  139.3684  159.7356 C   0  0  0  0  0  0  0  0  0  0  0  0
  134.7757  140.2867  159.4185 C   0  0  0  0  0  0  0  0  0  0  0  0
  135.3283  141.0831  160.4051 C   0  0  0  0  0  0  0  0  0  0  0  0
  134.8969  140.9698  161.7128 C   0  0  0  0  0  0  0  0  0  0  0  0
  133.9143  140.0466  162.0415 C   0  0  0  0  0  0  0  0  0  0  0  0
  133.4800  139.9263  163.3644 N   0  0  0  0  0  0  0  0  0  0  0  0
  131.7345  137.4778  160.5003 C   0  0  0  0  0  0  0  0  0  0  0  0
  130.8451  136.7402  161.1999 C   0  0  0  0  0  0  0  0  0  0  0  0
  129.9323  135.6819  160.6361 C   0  0  0  0  0  0  0  0  0  0  0  0
  130.1568  135.5615  159.1933 N   0  0  0  0  0  0  0  0  0  0  0  0
  129.9597  134.3457  158.5612 C   0  0  0  0  0  0  0  0  0  0  0  0
  129.2209  133.3110  159.0459 N   0  0  0  0  0  0  0  0  0  0  0  0
  128.7417  133.2925  159.8891 H   0  0  0  0  0  0  0  0  0  0  0  0
  129.2762  132.2979  158.1181 C   0  0  0  0  0  0  0  0  0  0  0  0
  130.0540  132.7399  157.0993 C   0  0  0  0  0  0  0  0  0  0  0  0
  130.4008  131.9807  155.8728 C   0  0  0  0  0  0  0  0  0  0  0  0
  130.0392  132.4746  154.6205 C   0  0  0  0  0  0  0  0  0  0  0  0
  130.3676  131.7700  153.4815 C   0  0  0  0  0  0  0  0  0  0  0  0
  131.0480  130.5626  153.5821 C   0  0  0  0  0  0  0  0  0  0  0  0
  131.3743  129.8475  152.4272 N   0  0  0  0  0  0  0  0  0  0  0  0
  131.4050  130.0655  154.8302 C   0  0  0  0  0  0  0  0  0  0  0  0
  131.0837  130.7695  155.9715 C   0  0  0  0  0  0  0  0  0  0  0  0
  130.4587  133.9995  157.3995 N   0  0  0  0  0  0  0  0  0  0  0  0
  131.0271  134.5551  156.8435 H   0  0  0  0  0  0  0  0  0  0  0  0
  129.2785  137.4334  164.4031 C   0  0  0  0  0  0  0  0  0  0  0  0
  128.5239  136.9247  165.4355 C   0  0  0  0  0  0  0  0  0  0  0  0
  129.4945  133.6721  165.2564 H   0  0  0  0  0  0  0  0  0  0  0  0
  130.8326  134.5826  163.4088 H   0  0  0  0  0  0  0  0  0  0  0  0
  133.3643  138.7477  158.9626 H   0  0  0  0  0  0  0  0  0  0  0  0
  135.1134  140.3828  158.3971 H   0  0  0  0  0  0  0  0  0  0  0  0
  136.0962  141.7990  160.1517 H   0  0  0  0  0  0  0  0  0  0  0  0
  135.3272  141.5967  162.4798 H   0  0  0  0  0  0  0  0  0  0  0  0
  134.0408  140.2430  164.0897 H   0  0  0  0  0  0  0  0  0  0  0  0
  132.6160  139.5295  163.5570 H   0  0  0  0  0  0  0  0  0  0  0  0
  131.9172  137.4138  159.4379 H   0  0  0  0  0  0  0  0  0  0  0  0
  130.1425  134.7268  161.1173 H   0  0  0  0  0  0  0  0  0  0  0  0
  128.8949  135.9612  160.8202 H   0  0  0  0  0  0  0  0  0  0  0  0
  130.4436  136.3337  158.6810 H   0  0  0  0  0  0  0  0  0  0  0  0
  128.7963  131.3330  158.1895 H   0  0  0  0  0  0  0  0  0  0  0  0
  129.5058  133.4104  154.5420 H   0  0  0  0  0  0  0  0  0  0  0  0
  130.0914  132.1545  152.5108 H   0  0  0  0  0  0  0  0  0  0  0  0
  131.8496  129.0045  152.4968 H   0  0  0  0  0  0  0  0  0  0  0  0
  131.1256  130.1935  151.5561 H   0  0  0  0  0  0  0  0  0  0  0  0
  131.9342  129.1270  154.9061 H   0  0  0  0  0  0  0  0  0  0  0  0
  131.3614  130.3829  156.9409 H   0  0  0  0  0  0  0  0  0  0  0  0
  129.2239  138.4847  164.1617 H   0  0  0  0  0  0  0  0  0  0  0  0
  127.8776  137.5765  166.0045 H   0  0  0  0  0  0  0  0  0  0  0  0
  1  2  3  0
  2  3  1  0
  3 36  2  0
  3  4  1  0
  4  5  2  0
  4 37  1  0
  5  6  1  0
  5 38  1  0
  6  7  1  0
  6 35  2  0
  7 18  1  0
  7  8  2  0
  8  9  1  0
  9 10  1  0
  9 17  1  0
 10 15  1  0
 10 11  2  0
 11 12  1  0
 11 39  1  0
 12 13  2  0
 12 40  1  0
 13 14  1  0
 13 41  1  0
 14 15  2  0
 14 42  1  0
 15 16  1  0
 16 43  1  0
 16 44  1  0
 17 18  2  0
 17 45  1  0
 18 19  1  0
 19 20  1  0
 19 46  1  0
 19 47  1  0
 20 48  1  0
 21 20  1  0
 21 33  2  0
 21 22  1  0
 22 23  1  0
 22 24  1  0
 24 25  2  0
 24 49  1  0
 25 26  1  0
 25 33  1  0
 26 32  1  0
 26 27  2  0
 27 28  1  0
 27 50  1  0
 28 29  2  0
 28 51  1  0
 29 30  1  0
 29 31  1  0
 30 52  1  0
 30 53  1  0
 31 32  2  0
 31 54  1  0
 32 55  1  0
 33 34  1  0
 35 36  1  0
 35 56  1  0
 36 57  1  0
M  CHG  1  33   1
M  END
>  <DOCK_score>  (1) 
-60.836746

>  <SMILES>  (1) 
N#Cc1ccc(-c2nn(-c3ccccc3N)cc2CNc2[nH]cc(-c3ccc(N)cc3)[nH+]2)cc1

$$$$
