Cn1nccc1C[C@@H](Nc1[nH]cc(-c2ccc(N)cc2)[nH+]1)c1ccnn1C
     RDKit          3D

 50 53  0  0  1  0  0  0  0  0999 V2000
  127.2619  134.8808  161.6651 C   0  0  0  0  0  0  0  0  0  0  0  0
  127.4514  135.4123  160.3132 N   0  0  0  0  0  0  0  0  0  0  0  0
  126.5082  135.3867  159.2778 N   0  0  0  0  0  0  0  0  0  0  0  0
  127.0424  135.9490  158.2242 C   0  0  0  0  0  0  0  0  0  0  0  0
  128.3393  136.3548  158.5558 C   0  0  0  0  0  0  0  0  0  0  0  0
  128.5644  136.0159  159.8463 C   0  0  0  0  0  0  0  0  0  0  0  0
  129.8332  136.2624  160.6213 C   0  0  0  0  0  0  0  0  0  0  0  0
  130.7744  135.0680  160.4521 C   0  0  1  0  0  0  0  0  0  0  0  0
  130.2888  134.1669  160.8268 H   0  0  0  0  0  0  0  0  0  0  0  0
  131.0947  134.8960  159.0330 N   0  0  0  0  0  0  0  0  0  0  0  0
  130.7723  133.7136  158.3891 C   0  0  0  0  0  0  0  0  0  0  0  0
  130.1606  132.6410  158.9608 N   0  0  0  0  0  0  0  0  0  0  0  0
  129.8742  132.5678  159.8847 H   0  0  0  0  0  0  0  0  0  0  0  0
  130.0239  131.6800  157.9871 C   0  0  0  0  0  0  0  0  0  0  0  0
  130.5505  132.1958  156.8490 C   0  0  0  0  0  0  0  0  0  0  0  0
  130.6190  131.5155  155.5325 C   0  0  0  0  0  0  0  0  0  0  0  0
  129.9822  132.0731  154.4248 C   0  0  0  0  0  0  0  0  0  0  0  0
  130.0521  131.4421  153.2006 C   0  0  0  0  0  0  0  0  0  0  0  0
  130.7466  130.2451  153.0733 C   0  0  0  0  0  0  0  0  0  0  0  0
  130.8106  129.6045  151.8335 N   0  0  0  0  0  0  0  0  0  0  0  0
  131.3777  129.6845  154.1775 C   0  0  0  0  0  0  0  0  0  0  0  0
  131.3153  130.3150  155.4023 C   0  0  0  0  0  0  0  0  0  0  0  0
  131.0068  133.4424  157.1281 N   0  0  0  0  0  0  0  0  0  0  0  0
  131.4346  134.0396  156.4947 H   0  0  0  0  0  0  0  0  0  0  0  0
  132.0430  135.3144  161.2272 C   0  0  0  0  0  0  0  0  0  0  0  0
  133.1592  135.9197  160.7591 C   0  0  0  0  0  0  0  0  0  0  0  0
  134.0997  135.9478  161.7940 C   0  0  0  0  0  0  0  0  0  0  0  0
  133.5672  135.3799  162.8456 N   0  0  0  0  0  0  0  0  0  0  0  0
  132.2674  134.9762  162.5143 N   0  0  0  0  0  0  0  0  0  0  0  0
  131.3201  134.3033  163.4062 C   0  0  0  0  0  0  0  0  0  0  0  0
  126.8498  135.6593  162.3073 H   0  0  0  0  0  0  0  0  0  0  0  0
  126.5732  134.0365  161.6304 H   0  0  0  0  0  0  0  0  0  0  0  0
  128.2213  134.5510  162.0637 H   0  0  0  0  0  0  0  0  0  0  0  0
  126.5649  136.0772  157.2639 H   0  0  0  0  0  0  0  0  0  0  0  0
  129.0377  136.8507  157.8979 H   0  0  0  0  0  0  0  0  0  0  0  0
  129.5948  136.3905  161.6772 H   0  0  0  0  0  0  0  0  0  0  0  0
  130.3186  137.1635  160.2466 H   0  0  0  0  0  0  0  0  0  0  0  0
  131.5327  135.6104  158.5445 H   0  0  0  0  0  0  0  0  0  0  0  0
  129.5780  130.7034  158.1050 H   0  0  0  0  0  0  0  0  0  0  0  0
  129.4380  133.0007  154.5243 H   0  0  0  0  0  0  0  0  0  0  0  0
  129.5627  131.8760  152.3412 H   0  0  0  0  0  0  0  0  0  0  0  0
  131.2954  128.7689  151.7440 H   0  0  0  0  0  0  0  0  0  0  0  0
  130.3704  129.9948  151.0626 H   0  0  0  0  0  0  0  0  0  0  0  0
  131.9170  128.7544  154.0764 H   0  0  0  0  0  0  0  0  0  0  0  0
  131.8059  129.8791  156.2601 H   0  0  0  0  0  0  0  0  0  0  0  0
  133.2991  136.3113  159.7625 H   0  0  0  0  0  0  0  0  0  0  0  0
  135.0938  136.3655  161.7351 H   0  0  0  0  0  0  0  0  0  0  0  0
  131.4481  133.2238  163.3244 H   0  0  0  0  0  0  0  0  0  0  0  0
  131.5054  134.6142  164.4343 H   0  0  0  0  0  0  0  0  0  0  0  0
  130.3019  134.5709  163.1236 H   0  0  0  0  0  0  0  0  0  0  0  0
  1  2  1  0
  1 31  1  0
  1 32  1  0
  1 33  1  0
  2  6  1  0
  2  3  1  0
  3  4  2  0
  4  5  1  0
  4 34  1  0
  5  6  2  0
  5 35  1  0
  6  7  1  0
  7  8  1  0
  7 36  1  0
  7 37  1  0
  8  9  1  1
  8 10  1  0
  8 25  1  0
 10 38  1  0
 11 10  1  0
 11 23  2  0
 11 12  1  0
 12 13  1  0
 12 14  1  0
 14 15  2  0
 14 39  1  0
 15 16  1  0
 15 23  1  0
 16 22  1  0
 16 17  2  0
 17 18  1  0
 17 40  1  0
 18 19  2  0
 18 41  1  0
 19 20  1  0
 19 21  1  0
 20 42  1  0
 20 43  1  0
 21 22  2  0
 21 44  1  0
 22 45  1  0
 23 24  1  0
 25 29  1  0
 25 26  2  0
 26 27  1  0
 26 46  1  0
 27 28  2  0
 27 47  1  0
 28 29  1  0
 29 30  1  0
 30 48  1  0
 30 49  1  0
 30 50  1  0
M  CHG  1  23   1
M  END
>  <DOCK_score>  (1) 
-58.34182

>  <SMILES>  (1) 
Cn1nccc1C[C@@H](Nc1[nH]cc(-c2ccc(N)cc2)[nH+]1)c1ccnn1C

$$$$
