Nc1ccc(-c2c[nH]c(Nc3ccc(Nc4ccc(N)nc4)cc3)[nH+]2)cc1
     RDKit          3D

 47 50  0  0  1  0  0  0  0  0999 V2000
  131.3287  129.1776  151.2566 N   0  0  0  0  0  0  0  0  0  0  0  0
  131.0593  129.8664  152.4417 C   0  0  0  0  0  0  0  0  0  0  0  0
  130.1281  130.8983  152.4483 C   0  0  0  0  0  0  0  0  0  0  0  0
  129.8609  131.5797  153.6172 C   0  0  0  0  0  0  0  0  0  0  0  0
  130.5253  131.2326  154.7925 C   0  0  0  0  0  0  0  0  0  0  0  0
  130.2396  131.9640  156.0511 C   0  0  0  0  0  0  0  0  0  0  0  0
  129.7605  131.4218  157.1980 C   0  0  0  0  0  0  0  0  0  0  0  0
  129.6495  132.4462  158.1075 N   0  0  0  0  0  0  0  0  0  0  0  0
  129.3371  132.3709  159.0227 H   0  0  0  0  0  0  0  0  0  0  0  0
  130.0558  133.5867  157.4855 C   0  0  0  0  0  0  0  0  0  0  0  0
  130.0936  134.8477  158.0568 N   0  0  0  0  0  0  0  0  0  0  0  0
  129.1793  135.1891  159.0611 C   0  0  0  0  0  0  0  0  0  0  0  0
  129.5349  136.1066  160.0412 C   0  0  0  0  0  0  0  0  0  0  0  0
  128.6334  136.4438  161.0310 C   0  0  0  0  0  0  0  0  0  0  0  0
  127.3708  135.8651  161.0467 C   0  0  0  0  0  0  0  0  0  0  0  0
  126.4568  136.2066  162.0500 N   0  0  0  0  0  0  0  0  0  0  0  0
  126.7731  135.9732  163.3941 C   0  0  0  0  0  0  0  0  0  0  0  0
  127.6075  134.9141  163.7491 C   0  0  0  0  0  0  0  0  0  0  0  0
  127.8925  134.7207  165.0882 C   0  0  0  0  0  0  0  0  0  0  0  0
  127.3412  135.5830  166.0304 C   0  0  0  0  0  0  0  0  0  0  0  0
  127.6218  135.3965  167.3819 N   0  0  0  0  0  0  0  0  0  0  0  0
  126.5530  136.5783  165.6570 N   0  0  0  0  0  0  0  0  0  0  0  0
  126.2598  136.7924  164.3882 C   0  0  0  0  0  0  0  0  0  0  0  0
  127.0172  134.9431  160.0697 C   0  0  0  0  0  0  0  0  0  0  0  0
  127.9168  134.6105  159.0766 C   0  0  0  0  0  0  0  0  0  0  0  0
  130.4108  133.2934  156.2579 N   0  0  0  0  0  0  0  0  0  0  0  0
  130.7433  133.9262  155.6024 H   0  0  0  0  0  0  0  0  0  0  0  0
  131.4626  130.2007  154.7821 C   0  0  0  0  0  0  0  0  0  0  0  0
  131.7224  129.5184  153.6124 C   0  0  0  0  0  0  0  0  0  0  0  0
  130.8660  129.4202  150.4389 H   0  0  0  0  0  0  0  0  0  0  0  0
  131.9783  128.4577  151.2508 H   0  0  0  0  0  0  0  0  0  0  0  0
  129.6136  131.1670  151.5376 H   0  0  0  0  0  0  0  0  0  0  0  0
  129.1375  132.3814  153.6219 H   0  0  0  0  0  0  0  0  0  0  0  0
  129.5174  130.3829  157.3661 H   0  0  0  0  0  0  0  0  0  0  0  0
  130.7534  135.4945  157.7613 H   0  0  0  0  0  0  0  0  0  0  0  0
  130.5168  136.5563  160.0292 H   0  0  0  0  0  0  0  0  0  0  0  0
  128.9101  137.1569  161.7934 H   0  0  0  0  0  0  0  0  0  0  0  0
  125.6044  136.6050  161.8144 H   0  0  0  0  0  0  0  0  0  0  0  0
  128.0218  134.2603  162.9960 H   0  0  0  0  0  0  0  0  0  0  0  0
  128.5348  133.9100  165.3990 H   0  0  0  0  0  0  0  0  0  0  0  0
  128.1986  134.6686  167.6616 H   0  0  0  0  0  0  0  0  0  0  0  0
  127.2402  135.9946  168.0434 H   0  0  0  0  0  0  0  0  0  0  0  0
  125.6163  137.6174  164.1208 H   0  0  0  0  0  0  0  0  0  0  0  0
  126.0372  134.4896  160.0845 H   0  0  0  0  0  0  0  0  0  0  0  0
  127.6403  133.8971  158.3145 H   0  0  0  0  0  0  0  0  0  0  0  0
  131.9820  129.9334  155.6905 H   0  0  0  0  0  0  0  0  0  0  0  0
  132.4453  128.7161  153.6048 H   0  0  0  0  0  0  0  0  0  0  0  0
  1  2  1  0
  1 30  1  0
  1 31  1  0
  2 29  2  0
  2  3  1  0
  3  4  2  0
  3 32  1  0
  4  5  1  0
  4 33  1  0
  5  6  1  0
  5 28  2  0
  6 26  1  0
  6  7  2  0
  7  8  1  0
  7 34  1  0
  8  9  1  0
  8 10  1  0
 10 11  1  0
 10 26  2  0
 11 12  1  0
 11 35  1  0
 12 25  1  0
 12 13  2  0
 13 14  1  0
 13 36  1  0
 14 15  2  0
 14 37  1  0
 15 16  1  0
 15 24  1  0
 16 17  1  0
 16 38  1  0
 17 23  1  0
 17 18  2  0
 18 19  1  0
 18 39  1  0
 19 20  2  0
 19 40  1  0
 20 21  1  0
 20 22  1  0
 21 41  1  0
 21 42  1  0
 22 23  2  0
 23 43  1  0
 24 25  2  0
 24 44  1  0
 25 45  1  0
 26 27  1  0
 28 29  1  0
 28 46  1  0
 29 47  1  0
M  CHG  1  26   1
M  END
>  <DOCK_score>  (1) 
-56.458969

>  <SMILES>  (1) 
Nc1ccc(-c2c[nH]c(Nc3ccc(Nc4ccc(N)nc4)cc3)[nH+]2)cc1

$$$$
