Cn1c(Cc2ccccc2)cnc1C[NH2+]C(Cc1ccccc1)Cc1ccccc1
     RDKit          3D

 60 63  0  0  0  0  0  0  0  0999 V2000
  132.5529  132.9768  160.0572 C   0  0  0  0  0  0  0  0  0  0  0  0
  131.2667  133.6564  159.8840 N   0  0  0  0  0  0  0  0  0  0  0  0
  130.1006  133.0886  159.4461 C   0  0  0  0  0  0  0  0  0  0  0  0
  129.8953  131.6489  159.0512 C   0  0  0  0  0  0  0  0  0  0  0  0
  130.1753  131.4869  157.5793 C   0  0  0  0  0  0  0  0  0  0  0  0
  130.9387  130.4241  157.1339 C   0  0  0  0  0  0  0  0  0  0  0  0
  131.1953  130.2754  155.7837 C   0  0  0  0  0  0  0  0  0  0  0  0
  130.6891  131.1899  154.8790 C   0  0  0  0  0  0  0  0  0  0  0  0
  129.9299  132.2555  155.3251 C   0  0  0  0  0  0  0  0  0  0  0  0
  129.6691  132.4015  156.6748 C   0  0  0  0  0  0  0  0  0  0  0  0
  129.1707  134.0627  159.4417 C   0  0  0  0  0  0  0  0  0  0  0  0
  129.7543  135.1954  159.8606 N   0  0  0  0  0  0  0  0  0  0  0  0
  131.0105  134.9603  160.1244 C   0  0  0  0  0  0  0  0  0  0  0  0
  132.0088  135.9747  160.6198 C   0  0  0  0  0  0  0  0  0  0  0  0
  131.8774  137.2125  159.8396 N   0  0  0  0  0  0  0  0  0  0  0  0
  132.0524  137.0162  158.8655 H   0  0  0  0  0  0  0  0  0  0  0  0
  130.9435  137.5796  159.9460 H   0  0  0  0  0  0  0  0  0  0  0  0
  132.8504  138.2014  160.3225 C   0  0  0  0  0  0  0  0  0  0  0  0
  134.2267  137.8948  159.7286 C   0  0  0  0  0  0  0  0  0  0  0  0
  135.2249  138.9093  160.2241 C   0  0  0  0  0  0  0  0  0  0  0  0
  135.4388  140.0739  159.5109 C   0  0  0  0  0  0  0  0  0  0  0  0
  136.3510  141.0066  159.9680 C   0  0  0  0  0  0  0  0  0  0  0  0
  137.0568  140.7699  161.1326 C   0  0  0  0  0  0  0  0  0  0  0  0
  136.8467  139.6027  161.8431 C   0  0  0  0  0  0  0  0  0  0  0  0
  135.9308  138.6724  161.3888 C   0  0  0  0  0  0  0  0  0  0  0  0
  132.4100  139.6022  159.8925 C   0  0  0  0  0  0  0  0  0  0  0  0
  131.3396  140.1015  160.8284 C   0  0  0  0  0  0  0  0  0  0  0  0
  130.0081  139.8550  160.5500 C   0  0  0  0  0  0  0  0  0  0  0  0
  129.0264  140.3089  161.4109 C   0  0  0  0  0  0  0  0  0  0  0  0
  129.3756  141.0184  162.5448 C   0  0  0  0  0  0  0  0  0  0  0  0
  130.7068  141.2694  162.8204 C   0  0  0  0  0  0  0  0  0  0  0  0
  131.6887  140.8109  161.9622 C   0  0  0  0  0  0  0  0  0  0  0  0
  133.1240  133.0382  159.1307 H   0  0  0  0  0  0  0  0  0  0  0  0
  133.1118  133.4561  160.8610 H   0  0  0  0  0  0  0  0  0  0  0  0
  132.3800  131.9303  160.3087 H   0  0  0  0  0  0  0  0  0  0  0  0
  128.8656  131.3583  159.2593 H   0  0  0  0  0  0  0  0  0  0  0  0
  130.5740  131.0153  159.6219 H   0  0  0  0  0  0  0  0  0  0  0  0
  131.3345  129.7099  157.8406 H   0  0  0  0  0  0  0  0  0  0  0  0
  131.7917  129.4450  155.4356 H   0  0  0  0  0  0  0  0  0  0  0  0
  130.8897  131.0738  153.8242 H   0  0  0  0  0  0  0  0  0  0  0  0
  129.5378  132.9724  154.6187 H   0  0  0  0  0  0  0  0  0  0  0  0
  129.0729  133.2319  157.0228 H   0  0  0  0  0  0  0  0  0  0  0  0
  128.1363  133.9514  159.1517 H   0  0  0  0  0  0  0  0  0  0  0  0
  131.8197  136.1867  161.6720 H   0  0  0  0  0  0  0  0  0  0  0  0
  133.0175  135.5782  160.5046 H   0  0  0  0  0  0  0  0  0  0  0  0
  132.9056  138.1556  161.4100 H   0  0  0  0  0  0  0  0  0  0  0  0
  134.5403  136.8968  160.0349 H   0  0  0  0  0  0  0  0  0  0  0  0
  134.1715  137.9405  158.6409 H   0  0  0  0  0  0  0  0  0  0  0  0
  134.8906  140.2568  158.5986 H   0  0  0  0  0  0  0  0  0  0  0  0
  136.5154  141.9182  159.4127 H   0  0  0  0  0  0  0  0  0  0  0  0
  137.7727  141.4964  161.4873 H   0  0  0  0  0  0  0  0  0  0  0  0
  137.3985  139.4176  162.7528 H   0  0  0  0  0  0  0  0  0  0  0  0
  135.7669  137.7604  161.9437 H   0  0  0  0  0  0  0  0  0  0  0  0
  133.2649  140.2777  159.9249 H   0  0  0  0  0  0  0  0  0  0  0  0
  132.0157  139.5635  158.8771 H   0  0  0  0  0  0  0  0  0  0  0  0
  129.7352  139.3046  159.6618 H   0  0  0  0  0  0  0  0  0  0  0  0
  127.9865  140.1131  161.1953 H   0  0  0  0  0  0  0  0  0  0  0  0
  128.6084  141.3768  163.2152 H   0  0  0  0  0  0  0  0  0  0  0  0
  130.9795  141.8240  163.7061 H   0  0  0  0  0  0  0  0  0  0  0  0
  132.7286  141.0074  162.1775 H   0  0  0  0  0  0  0  0  0  0  0  0
  1  2  1  0
  1 33  1  0
  1 34  1  0
  1 35  1  0
  2 13  1  0
  2  3  1  0
  3  4  1  0
  3 11  2  0
  4  5  1  0
  4 36  1  0
  4 37  1  0
  5 10  1  0
  5  6  2  0
  6  7  1  0
  6 38  1  0
  7  8  2  0
  7 39  1  0
  8  9  1  0
  8 40  1  0
  9 10  2  0
  9 41  1  0
 10 42  1  0
 11 12  1  0
 11 43  1  0
 12 13  2  0
 13 14  1  0
 14 15  1  0
 14 44  1  0
 14 45  1  0
 15 16  1  0
 15 17  1  0
 15 18  1  0
 18 19  1  0
 18 26  1  0
 18 46  1  0
 19 20  1  0
 19 47  1  0
 19 48  1  0
 20 25  1  0
 20 21  2  0
 21 22  1  0
 21 49  1  0
 22 23  2  0
 22 50  1  0
 23 24  1  0
 23 51  1  0
 24 25  2  0
 24 52  1  0
 25 53  1  0
 26 27  1  0
 26 54  1  0
 26 55  1  0
 27 32  1  0
 27 28  2  0
 28 29  1  0
 28 56  1  0
 29 30  2  0
 29 57  1  0
 30 31  1  0
 30 58  1  0
 31 32  2  0
 31 59  1  0
 32 60  1  0
M  CHG  1  15   1
M  END
>  <DOCK_score>  (1) 
-55.978428

>  <SMILES>  (1) 
Cn1c(Cc2ccccc2)cnc1C[NH2+]C(Cc1ccccc1)Cc1ccccc1

$$$$
