O=C1CC[C@H]([NH+]=C(NC2CC=CC2)N[C@@H]2Cc3ccc(Cl)cc3C2)CN1
     RDKit          3D

 52 55  0  0  1  0  0  0  0  0999 V2000
  123.6676  133.7735  161.2504 O   0  0  0  0  0  0  0  0  0  0  0  0
  124.8630  133.9427  161.1345 C   0  0  0  0  0  0  0  0  0  0  0  0
  125.6830  132.8348  160.5382 C   0  0  0  0  0  0  0  0  0  0  0  0
  127.1622  133.0444  160.8716 C   0  0  0  0  0  0  0  0  0  0  0  0
  127.5335  134.4944  160.5381 C   0  0  2  0  0  0  0  0  0  0  0  0
  127.2360  134.7246  159.5151 H   0  0  0  0  0  0  0  0  0  0  0  0
  128.9799  134.6770  160.6821 N   0  0  0  0  0  0  0  0  0  0  0  0
  129.3517  134.9501  161.5354 H   0  0  0  0  0  0  0  0  0  0  0  0
  129.7672  134.4724  159.6637 C   0  0  0  0  0  0  0  0  0  0  0  0
  129.4229  133.5517  158.7026 N   0  0  0  0  0  0  0  0  0  0  0  0
  130.4676  132.8342  157.9678 C   0  0  0  0  0  0  0  0  0  0  0  0
  129.8601  131.7167  157.0883 C   0  0  0  0  0  0  0  0  0  0  0  0
  130.8523  130.5802  157.1717 C   0  0  0  0  0  0  0  0  0  0  0  0
  131.6703  130.7430  158.1758 C   0  0  0  0  0  0  0  0  0  0  0  0
  131.3599  132.0155  158.9293 C   0  0  0  0  0  0  0  0  0  0  0  0
  130.9420  135.1775  159.5506 N   0  0  0  0  0  0  0  0  0  0  0  0
  131.3091  136.1587  160.5747 C   0  0  2  0  0  0  0  0  0  0  0  0
  130.9057  135.8720  161.5459 H   0  0  0  0  0  0  0  0  0  0  0  0
  130.8357  137.5723  160.1748 C   0  0  0  0  0  0  0  0  0  0  0  0
  131.9094  138.5090  160.6858 C   0  0  0  0  0  0  0  0  0  0  0  0
  131.8797  139.8774  160.8974 C   0  0  0  0  0  0  0  0  0  0  0  0
  132.9970  140.5310  161.3784 C   0  0  0  0  0  0  0  0  0  0  0  0
  134.1508  139.8171  161.6495 C   0  0  0  0  0  0  0  0  0  0  0  0
  135.5573  140.6355  162.2546 Cl  0  0  0  0  0  0  0  0  0  0  0  0
  134.1820  138.4515  161.4383 C   0  0  0  0  0  0  0  0  0  0  0  0
  133.0618  137.7953  160.9566 C   0  0  0  0  0  0  0  0  0  0  0  0
  132.8413  136.3303  160.6458 C   0  0  0  0  0  0  0  0  0  0  0  0
  126.8002  135.4229  161.5070 C   0  0  0  0  0  0  0  0  0  0  0  0
  125.3788  135.1025  161.5433 N   0  0  0  0  0  0  0  0  0  0  0  0
  125.5529  132.8302  159.4560 H   0  0  0  0  0  0  0  0  0  0  0  0
  125.3515  131.8803  160.9469 H   0  0  0  0  0  0  0  0  0  0  0  0
  127.7722  132.3637  160.2779 H   0  0  0  0  0  0  0  0  0  0  0  0
  127.3294  132.8576  161.9323 H   0  0  0  0  0  0  0  0  0  0  0  0
  128.4881  133.3771  158.5110 H   0  0  0  0  0  0  0  0  0  0  0  0
  131.0651  133.5222  157.3697 H   0  0  0  0  0  0  0  0  0  0  0  0
  128.8928  131.4062  157.4836 H   0  0  0  0  0  0  0  0  0  0  0  0
  129.7586  132.0573  156.0580 H   0  0  0  0  0  0  0  0  0  0  0  0
  130.8810  129.7430  156.4901 H   0  0  0  0  0  0  0  0  0  0  0  0
  132.4647  130.0585  158.4338 H   0  0  0  0  0  0  0  0  0  0  0  0
  132.2784  132.5593  159.1506 H   0  0  0  0  0  0  0  0  0  0  0  0
  130.8202  131.7901  159.8491 H   0  0  0  0  0  0  0  0  0  0  0  0
  131.5280  135.0252  158.7926 H   0  0  0  0  0  0  0  0  0  0  0  0
  130.7504  137.6500  159.0910 H   0  0  0  0  0  0  0  0  0  0  0  0
  129.8799  137.7988  160.6473 H   0  0  0  0  0  0  0  0  0  0  0  0
  130.9795  140.4353  160.6858 H   0  0  0  0  0  0  0  0  0  0  0  0
  132.9703  141.5981  161.5423 H   0  0  0  0  0  0  0  0  0  0  0  0
  135.0828  137.8945  161.6499 H   0  0  0  0  0  0  0  0  0  0  0  0
  133.2550  135.7088  161.4400 H   0  0  0  0  0  0  0  0  0  0  0  0
  133.2955  136.0741  159.6887 H   0  0  0  0  0  0  0  0  0  0  0  0
  126.9286  136.4557  161.1831 H   0  0  0  0  0  0  0  0  0  0  0  0
  127.2221  135.3032  162.5048 H   0  0  0  0  0  0  0  0  0  0  0  0
  124.7702  135.7735  161.8902 H   0  0  0  0  0  0  0  0  0  0  0  0
  1  2  2  0
  2 29  1  0
  2  3  1  0
  3  4  1  0
  3 30  1  0
  3 31  1  0
  4  5  1  0
  4 32  1  0
  4 33  1  0
  5  6  1  6
  5  7  1  0
  5 28  1  0
  7  8  1  0
  9  7  2  0
  9 10  1  0
  9 16  1  0
 10 11  1  0
 10 34  1  0
 11 15  1  0
 11 12  1  0
 11 35  1  0
 12 13  1  0
 12 36  1  0
 12 37  1  0
 13 14  2  0
 13 38  1  0
 14 15  1  0
 14 39  1  0
 15 40  1  0
 15 41  1  0
 16 17  1  0
 16 42  1  0
 17 18  1  1
 17 27  1  0
 17 19  1  0
 19 20  1  0
 19 43  1  0
 19 44  1  0
 20 26  2  0
 20 21  1  0
 21 22  2  0
 21 45  1  0
 22 23  1  0
 22 46  1  0
 23 24  1  0
 23 25  2  0
 25 26  1  0
 25 47  1  0
 26 27  1  0
 27 48  1  0
 27 49  1  0
 28 29  1  0
 28 50  1  0
 28 51  1  0
 29 52  1  0
M  CHG  1   7   1
M  END
>  <DOCK_score>  (1) 
-47.910168

>  <SMILES>  (1) 
O=C1CC[C@H]([NH+]=C(NC2CC=CC2)N[C@@H]2Cc3ccc(Cl)cc3C2)CN1

$$$$
