Cc1n[nH]cc1C[NH2+]Cc1c[nH]nc1-c1ccc(NCCc2cccc3cnccc23)o1
     RDKit          3D

 58 62  0  0  0  0  0  0  0  0999 V2000
  131.8153  139.0833  163.1892 C   0  0  0  0  0  0  0  0  0  0  0  0
  132.6829  138.7763  161.9961 C   0  0  0  0  0  0  0  0  0  0  0  0
  133.9912  138.7529  161.9845 N   0  0  0  0  0  0  0  0  0  0  0  0
  134.4116  138.4281  160.6883 N   0  0  0  0  0  0  0  0  0  0  0  0
  135.3309  138.3409  160.3916 H   0  0  0  0  0  0  0  0  0  0  0  0
  133.3115  138.2528  159.9264 C   0  0  0  0  0  0  0  0  0  0  0  0
  132.2290  138.4676  160.7096 C   0  0  0  0  0  0  0  0  0  0  0  0
  130.7887  138.3828  160.2741 C   0  0  0  0  0  0  0  0  0  0  0  0
  130.5942  137.1770  159.4579 N   0  0  0  0  0  0  0  0  0  0  0  0
  131.1895  137.2218  158.6444 H   0  0  0  0  0  0  0  0  0  0  0  0
  129.6299  137.1203  159.1664 H   0  0  0  0  0  0  0  0  0  0  0  0
  130.9368  135.9888  160.2506 C   0  0  0  0  0  0  0  0  0  0  0  0
  130.7372  134.7517  159.4133 C   0  0  0  0  0  0  0  0  0  0  0  0
  131.6630  134.1695  158.6213 C   0  0  0  0  0  0  0  0  0  0  0  0
  131.0986  133.0867  158.0442 N   0  0  0  0  0  0  0  0  0  0  0  0
  131.5349  132.4787  157.4270 H   0  0  0  0  0  0  0  0  0  0  0  0
  129.7724  132.9971  158.4860 N   0  0  0  0  0  0  0  0  0  0  0  0
  129.5479  133.9994  159.3128 C   0  0  0  0  0  0  0  0  0  0  0  0
  128.2769  134.2838  160.0104 C   0  0  0  0  0  0  0  0  0  0  0  0
  127.1353  133.5525  159.9147 C   0  0  0  0  0  0  0  0  0  0  0  0
  126.1799  134.1777  160.7402 C   0  0  0  0  0  0  0  0  0  0  0  0
  126.7839  135.2567  161.2975 C   0  0  0  0  0  0  0  0  0  0  0  0
  126.1923  136.1523  162.1809 N   0  0  0  0  0  0  0  0  0  0  0  0
  127.0285  136.9952  163.0389 C   0  0  0  0  0  0  0  0  0  0  0  0
  126.2844  137.2933  164.3421 C   0  0  0  0  0  0  0  0  0  0  0  0
  127.1446  138.1604  165.2248 C   0  0  0  0  0  0  0  0  0  0  0  0
  128.0017  137.5929  166.1192 C   0  0  0  0  0  0  0  0  0  0  0  0
  128.8077  138.3794  166.9396 C   0  0  0  0  0  0  0  0  0  0  0  0
  128.7566  139.7392  166.8806 C   0  0  0  0  0  0  0  0  0  0  0  0
  127.8819  140.3596  165.9753 C   0  0  0  0  0  0  0  0  0  0  0  0
  127.7852  141.7567  165.8696 C   0  0  0  0  0  0  0  0  0  0  0  0
  126.9519  142.2911  165.0081 N   0  0  0  0  0  0  0  0  0  0  0  0
  126.1776  141.5652  164.2129 C   0  0  0  0  0  0  0  0  0  0  0  0
  126.1963  140.2038  164.2380 C   0  0  0  0  0  0  0  0  0  0  0  0
  127.0650  139.5572  165.1363 C   0  0  0  0  0  0  0  0  0  0  0  0
  128.0522  135.3111  160.8565 O   0  0  0  0  0  0  0  0  0  0  0  0
  131.5900  138.1594  163.7220 H   0  0  0  0  0  0  0  0  0  0  0  0
  132.3416  139.7675  163.8549 H   0  0  0  0  0  0  0  0  0  0  0  0
  130.8865  139.5449  162.8540 H   0  0  0  0  0  0  0  0  0  0  0  0
  133.2976  137.9906  158.8790 H   0  0  0  0  0  0  0  0  0  0  0  0
  130.5344  139.2646  159.6860 H   0  0  0  0  0  0  0  0  0  0  0  0
  130.1458  138.3344  161.1529 H   0  0  0  0  0  0  0  0  0  0  0  0
  130.2937  135.9402  161.1293 H   0  0  0  0  0  0  0  0  0  0  0  0
  131.9785  136.0501  160.5657 H   0  0  0  0  0  0  0  0  0  0  0  0
  132.6779  134.5092  158.4764 H   0  0  0  0  0  0  0  0  0  0  0  0
  126.9888  132.6628  159.3204 H   0  0  0  0  0  0  0  0  0  0  0  0
  125.1606  133.8582  160.8993 H   0  0  0  0  0  0  0  0  0  0  0  0
  125.2258  136.2191  162.2291 H   0  0  0  0  0  0  0  0  0  0  0  0
  127.9596  136.4747  163.2631 H   0  0  0  0  0  0  0  0  0  0  0  0
  127.2499  137.9306  162.5248 H   0  0  0  0  0  0  0  0  0  0  0  0
  125.3532  137.8138  164.1180 H   0  0  0  0  0  0  0  0  0  0  0  0
  126.0632  136.3580  164.8562 H   0  0  0  0  0  0  0  0  0  0  0  0
  128.0601  136.5169  166.1905 H   0  0  0  0  0  0  0  0  0  0  0  0
  129.4809  137.9030  167.6369 H   0  0  0  0  0  0  0  0  0  0  0  0
  129.3843  140.3358  167.5259 H   0  0  0  0  0  0  0  0  0  0  0  0
  128.3958  142.3901  166.4961 H   0  0  0  0  0  0  0  0  0  0  0  0
  125.5135  142.0681  163.5256 H   0  0  0  0  0  0  0  0  0  0  0  0
  125.5575  139.6320  163.5813 H   0  0  0  0  0  0  0  0  0  0  0  0
  1  2  1  0
  1 37  1  0
  1 38  1  0
  1 39  1  0
  2  7  1  0
  2  3  2  0
  3  4  1  0
  4  5  1  0
  4  6  1  0
  6  7  2  0
  6 40  1  0
  7  8  1  0
  8  9  1  0
  8 41  1  0
  8 42  1  0
  9 10  1  0
  9 11  1  0
  9 12  1  0
 12 13  1  0
 12 43  1  0
 12 44  1  0
 13 18  1  0
 13 14  2  0
 14 15  1  0
 14 45  1  0
 15 16  1  0
 15 17  1  0
 17 18  2  0
 18 19  1  0
 19 36  1  0
 19 20  2  0
 20 21  1  0
 20 46  1  0
 21 22  2  0
 21 47  1  0
 22 23  1  0
 22 36  1  0
 23 24  1  0
 23 48  1  0
 24 25  1  0
 24 49  1  0
 24 50  1  0
 25 26  1  0
 25 51  1  0
 25 52  1  0
 26 35  1  0
 26 27  2  0
 27 28  1  0
 27 53  1  0
 28 29  2  0
 28 54  1  0
 29 30  1  0
 29 55  1  0
 30 35  2  0
 30 31  1  0
 31 32  2  0
 31 56  1  0
 32 33  1  0
 33 34  2  0
 33 57  1  0
 34 35  1  0
 34 58  1  0
M  CHG  1   9   1
M  END
>  <DOCK_score>  (1) 
-46.608513

>  <SMILES>  (1) 
Cc1n[nH]cc1C[NH2+]Cc1c[nH]nc1-c1ccc(NCCc2cccc3cnccc23)o1

$$$$
