[NH3+][C@@H](C(=O)N(Cc1ccccn1)Cc1ccccn1)c1ccc(C(=O)c2ccccc2)c(Cl)c1
     RDKit          3D

 58 61  0  0  1  0  0  0  0  0999 V2000
  133.2453  135.5018  159.8134 N   0  0  0  0  0  0  0  0  0  0  0  0
  133.1185  134.5102  159.6760 H   0  0  0  0  0  0  0  0  0  0  0  0
  132.7177  136.0079  159.1181 H   0  0  0  0  0  0  0  0  0  0  0  0
  134.2240  135.7311  159.7259 H   0  0  0  0  0  0  0  0  0  0  0  0
  132.7731  135.8748  161.1536 C   0  0  1  0  0  0  0  0  0  0  0  0
  133.3429  135.3280  161.9048 H   0  0  0  0  0  0  0  0  0  0  0  0
  132.9623  137.3556  161.3588 C   0  0  0  0  0  0  0  0  0  0  0  0
  132.9091  138.1108  160.4114 O   0  0  0  0  0  0  0  0  0  0  0  0
  133.1910  137.8407  162.5953 N   0  0  0  0  0  0  0  0  0  0  0  0
  133.3751  139.2804  162.7948 C   0  0  0  0  0  0  0  0  0  0  0  0
  134.5618  139.7507  161.9940 C   0  0  0  0  0  0  0  0  0  0  0  0
  134.4676  140.9124  161.2508 C   0  0  0  0  0  0  0  0  0  0  0  0
  135.5651  141.3364  160.5178 C   0  0  0  0  0  0  0  0  0  0  0  0
  136.7217  140.5726  160.5596 C   0  0  0  0  0  0  0  0  0  0  0  0
  136.7399  139.4193  161.3207 C   0  0  0  0  0  0  0  0  0  0  0  0
  135.6782  139.0491  162.0099 N   0  0  0  0  0  0  0  0  0  0  0  0
  133.2552  136.9285  163.7398 C   0  0  0  0  0  0  0  0  0  0  0  0
  134.6759  136.4643  163.9330 C   0  0  0  0  0  0  0  0  0  0  0  0
  135.2193  136.4384  165.2037 C   0  0  0  0  0  0  0  0  0  0  0  0
  136.5270  136.0097  165.3705 C   0  0  0  0  0  0  0  0  0  0  0  0
  137.2424  135.6211  164.2479 C   0  0  0  0  0  0  0  0  0  0  0  0
  136.6326  135.6741  163.0091 C   0  0  0  0  0  0  0  0  0  0  0  0
  135.3843  136.0823  162.8886 N   0  0  0  0  0  0  0  0  0  0  0  0
  131.3113  135.5323  161.2844 C   0  0  0  0  0  0  0  0  0  0  0  0
  130.3890  136.1113  160.4292 C   0  0  0  0  0  0  0  0  0  0  0  0
  129.0507  135.7991  160.5385 C   0  0  0  0  0  0  0  0  0  0  0  0
  128.6234  134.9041  161.5231 C   0  0  0  0  0  0  0  0  0  0  0  0
  127.1910  134.5691  161.6498 C   0  0  0  0  0  0  0  0  0  0  0  0
  126.4737  135.2311  162.3743 O   0  0  0  0  0  0  0  0  0  0  0  0
  126.6293  133.4290  160.8962 C   0  0  0  0  0  0  0  0  0  0  0  0
  127.4492  132.6698  160.0582 C   0  0  0  0  0  0  0  0  0  0  0  0
  126.9194  131.6040  159.3613 C   0  0  0  0  0  0  0  0  0  0  0  0
  125.5765  131.2927  159.4827 C   0  0  0  0  0  0  0  0  0  0  0  0
  124.7571  132.0439  160.3069 C   0  0  0  0  0  0  0  0  0  0  0  0
  125.2748  133.1092  161.0138 C   0  0  0  0  0  0  0  0  0  0  0  0
  129.5590  134.3273  162.3871 C   0  0  0  0  0  0  0  0  0  0  0  0
  129.0405  133.2137  163.6137 Cl  0  0  0  0  0  0  0  0  0  0  0  0
  130.8972  134.6456  162.2615 C   0  0  0  0  0  0  0  0  0  0  0  0
  133.5475  139.4816  163.8522 H   0  0  0  0  0  0  0  0  0  0  0  0
  132.4813  139.8102  162.4651 H   0  0  0  0  0  0  0  0  0  0  0  0
  133.5502  141.4824  161.2413 H   0  0  0  0  0  0  0  0  0  0  0  0
  135.5205  142.2402  159.9283 H   0  0  0  0  0  0  0  0  0  0  0  0
  137.5958  140.8728  160.0009 H   0  0  0  0  0  0  0  0  0  0  0  0
  137.6353  138.8165  161.3549 H   0  0  0  0  0  0  0  0  0  0  0  0
  132.9171  137.4469  164.6369 H   0  0  0  0  0  0  0  0  0  0  0  0
  132.6135  136.0671  163.5542 H   0  0  0  0  0  0  0  0  0  0  0  0
  134.6325  136.7486  166.0557 H   0  0  0  0  0  0  0  0  0  0  0  0
  136.9779  135.9792  166.3514 H   0  0  0  0  0  0  0  0  0  0  0  0
  138.2634  135.2813  164.3408 H   0  0  0  0  0  0  0  0  0  0  0  0
  137.1830  135.3728  162.1300 H   0  0  0  0  0  0  0  0  0  0  0  0
  130.7196  136.8064  159.6717 H   0  0  0  0  0  0  0  0  0  0  0  0
  128.3335  136.2486  159.8677 H   0  0  0  0  0  0  0  0  0  0  0  0
  128.4965  132.9144  159.9592 H   0  0  0  0  0  0  0  0  0  0  0  0
  127.5531  131.0134  158.7162 H   0  0  0  0  0  0  0  0  0  0  0  0
  125.1658  130.4598  158.9312 H   0  0  0  0  0  0  0  0  0  0  0  0
  123.7101  131.7953  160.3973 H   0  0  0  0  0  0  0  0  0  0  0  0
  124.6342  133.6948  161.6565 H   0  0  0  0  0  0  0  0  0  0  0  0
  131.6216  134.2010  162.9276 H   0  0  0  0  0  0  0  0  0  0  0  0
  1  2  1  0
  1  3  1  0
  1  4  1  0
  1  5  1  0
  5  6  1  1
  5  7  1  0
  5 24  1  0
  7  8  2  0
  7  9  1  0
  9 10  1  0
  9 17  1  0
 10 11  1  0
 10 39  1  0
 10 40  1  0
 11 16  1  0
 11 12  2  0
 12 13  1  0
 12 41  1  0
 13 14  2  0
 13 42  1  0
 14 15  1  0
 14 43  1  0
 15 16  2  0
 15 44  1  0
 17 18  1  0
 17 45  1  0
 17 46  1  0
 18 23  1  0
 18 19  2  0
 19 20  1  0
 19 47  1  0
 20 21  2  0
 20 48  1  0
 21 22  1  0
 21 49  1  0
 22 23  2  0
 22 50  1  0
 24 38  1  0
 24 25  2  0
 25 26  1  0
 25 51  1  0
 26 27  2  0
 26 52  1  0
 27 28  1  0
 27 36  1  0
 28 29  2  0
 28 30  1  0
 30 35  1  0
 30 31  2  0
 31 32  1  0
 31 53  1  0
 32 33  2  0
 32 54  1  0
 33 34  1  0
 33 55  1  0
 34 35  2  0
 34 56  1  0
 35 57  1  0
 36 37  1  0
 36 38  2  0
 38 58  1  0
M  CHG  1   1   1
M  END
>  <DOCK_score>  (1) 
-41.190788

>  <SMILES>  (1) 
[NH3+][C@@H](C(=O)N(Cc1ccccn1)Cc1ccccn1)c1ccc(C(=O)c2ccccc2)c(Cl)c1

$$$$
