Nc1ccc(-c2c[nH]c(N[C@H](c3ccccc3)C(O)(c3ccccc3)c3ccccc3)[nH+]2)cc1
     RDKit          3D

 61 65  0  0  1  0  0  0  0  0999 V2000
  131.3375  129.2931  152.3680 N   0  0  0  0  0  0  0  0  0  0  0  0
  131.0113  130.0232  153.5134 C   0  0  0  0  0  0  0  0  0  0  0  0
  130.0144  130.9901  153.4596 C   0  0  0  0  0  0  0  0  0  0  0  0
  129.6904  131.7116  154.5891 C   0  0  0  0  0  0  0  0  0  0  0  0
  130.3637  131.4706  155.7857 C   0  0  0  0  0  0  0  0  0  0  0  0
  130.0174  132.2458  157.0022 C   0  0  0  0  0  0  0  0  0  0  0  0
  129.5638  131.7332  158.1727 C   0  0  0  0  0  0  0  0  0  0  0  0
  129.3713  132.7948  159.0248 N   0  0  0  0  0  0  0  0  0  0  0  0
  129.0506  132.7469  159.9391 H   0  0  0  0  0  0  0  0  0  0  0  0
  129.7133  133.9250  158.3486 C   0  0  0  0  0  0  0  0  0  0  0  0
  129.6631  135.2130  158.8536 N   0  0  0  0  0  0  0  0  0  0  0  0
  129.2115  135.4440  160.2279 C   0  0  2  0  0  0  0  0  0  0  0  0
  129.6142  134.6673  160.8780 H   0  0  0  0  0  0  0  0  0  0  0  0
  127.7057  135.4076  160.2747 C   0  0  0  0  0  0  0  0  0  0  0  0
  127.0598  134.9788  161.4191 C   0  0  0  0  0  0  0  0  0  0  0  0
  125.6785  134.9498  161.4636 C   0  0  0  0  0  0  0  0  0  0  0  0
  124.9432  135.3408  160.3603 C   0  0  0  0  0  0  0  0  0  0  0  0
  125.5891  135.7646  159.2140 C   0  0  0  0  0  0  0  0  0  0  0  0
  126.9703  135.7978  159.1711 C   0  0  0  0  0  0  0  0  0  0  0  0
  129.7036  136.8125  160.7032 C   0  0  0  0  0  0  0  0  0  0  0  0
  129.1757  137.8308  159.8509 O   0  0  0  0  0  0  0  0  0  0  0  0
  129.2391  137.0501  162.1170 C   0  0  0  0  0  0  0  0  0  0  0  0
  129.6257  136.1874  163.1257 C   0  0  0  0  0  0  0  0  0  0  0  0
  129.2035  136.4081  164.4234 C   0  0  0  0  0  0  0  0  0  0  0  0
  128.3868  137.4858  164.7108 C   0  0  0  0  0  0  0  0  0  0  0  0
  127.9956  138.3451  163.7011 C   0  0  0  0  0  0  0  0  0  0  0  0
  128.4219  138.1275  162.4043 C   0  0  0  0  0  0  0  0  0  0  0  0
  131.2094  136.8490  160.6563 C   0  0  0  0  0  0  0  0  0  0  0  0
  131.9351  135.6875  160.8443 C   0  0  0  0  0  0  0  0  0  0  0  0
  133.3162  135.7202  160.7965 C   0  0  0  0  0  0  0  0  0  0  0  0
  133.9720  136.9159  160.5707 C   0  0  0  0  0  0  0  0  0  0  0  0
  133.2464  138.0784  160.3884 C   0  0  0  0  0  0  0  0  0  0  0  0
  131.8652  138.0449  160.4310 C   0  0  0  0  0  0  0  0  0  0  0  0
  130.0988  133.5929  157.1405 N   0  0  0  0  0  0  0  0  0  0  0  0
  130.3948  134.2117  156.4548 H   0  0  0  0  0  0  0  0  0  0  0  0
  131.3670  130.5040  155.8361 C   0  0  0  0  0  0  0  0  0  0  0  0
  131.6840  129.7812  154.7054 C   0  0  0  0  0  0  0  0  0  0  0  0
  130.8682  129.4613  151.5358 H   0  0  0  0  0  0  0  0  0  0  0  0
  132.0332  128.6181  152.4048 H   0  0  0  0  0  0  0  0  0  0  0  0
  129.4933  131.1767  152.5322 H   0  0  0  0  0  0  0  0  0  0  0  0
  128.9155  132.4625  154.5469 H   0  0  0  0  0  0  0  0  0  0  0  0
  129.3914  130.6904  158.3947 H   0  0  0  0  0  0  0  0  0  0  0  0
  129.9270  135.9626  158.2972 H   0  0  0  0  0  0  0  0  0  0  0  0
  127.6345  134.6698  162.2798 H   0  0  0  0  0  0  0  0  0  0  0  0
  125.1739  134.6188  162.3593 H   0  0  0  0  0  0  0  0  0  0  0  0
  123.8640  135.3155  160.3940 H   0  0  0  0  0  0  0  0  0  0  0  0
  125.0145  136.0701  158.3520 H   0  0  0  0  0  0  0  0  0  0  0  0
  127.4750  136.1290  158.2755 H   0  0  0  0  0  0  0  0  0  0  0  0
  129.4346  137.7405  158.9235 H   0  0  0  0  0  0  0  0  0  0  0  0
  130.2605  135.3434  162.9005 H   0  0  0  0  0  0  0  0  0  0  0  0
  129.5089  135.7366  165.2122 H   0  0  0  0  0  0  0  0  0  0  0  0
  128.0539  137.6560  165.7240 H   0  0  0  0  0  0  0  0  0  0  0  0
  127.3572  139.1868  163.9256 H   0  0  0  0  0  0  0  0  0  0  0  0
  128.1164  138.7988  161.6155 H   0  0  0  0  0  0  0  0  0  0  0  0
  131.4229  134.7540  161.0247 H   0  0  0  0  0  0  0  0  0  0  0  0
  133.8832  134.8121  160.9392 H   0  0  0  0  0  0  0  0  0  0  0  0
  135.0512  136.9421  160.5370 H   0  0  0  0  0  0  0  0  0  0  0  0
  133.7587  139.0128  160.2124 H   0  0  0  0  0  0  0  0  0  0  0  0
  131.2983  138.9531  160.2886 H   0  0  0  0  0  0  0  0  0  0  0  0
  131.8930  130.3187  156.7610 H   0  0  0  0  0  0  0  0  0  0  0  0
  132.4586  129.0296  154.7450 H   0  0  0  0  0  0  0  0  0  0  0  0
  1  2  1  0
  1 38  1  0
  1 39  1  0
  2 37  2  0
  2  3  1  0
  3  4  2  0
  3 40  1  0
  4  5  1  0
  4 41  1  0
  5  6  1  0
  5 36  2  0
  6 34  1  0
  6  7  2  0
  7  8  1  0
  7 42  1  0
  8  9  1  0
  8 10  1  0
 10 11  1  0
 10 34  2  0
 11 12  1  0
 11 43  1  0
 12 13  1  1
 12 14  1  0
 12 20  1  0
 14 19  1  0
 14 15  2  0
 15 16  1  0
 15 44  1  0
 16 17  2  0
 16 45  1  0
 17 18  1  0
 17 46  1  0
 18 19  2  0
 18 47  1  0
 19 48  1  0
 20 21  1  0
 20 22  1  0
 20 28  1  0
 21 49  1  0
 22 27  1  0
 22 23  2  0
 23 24  1  0
 23 50  1  0
 24 25  2  0
 24 51  1  0
 25 26  1  0
 25 52  1  0
 26 27  2  0
 26 53  1  0
 27 54  1  0
 28 33  1  0
 28 29  2  0
 29 30  1  0
 29 55  1  0
 30 31  2  0
 30 56  1  0
 31 32  1  0
 31 57  1  0
 32 33  2  0
 32 58  1  0
 33 59  1  0
 34 35  1  0
 36 37  1  0
 36 60  1  0
 37 61  1  0
M  CHG  1  34   1
M  END
>  <DOCK_score>  (1) 
-57.089252

>  <SMILES>  (1) 
Nc1ccc(-c2c[nH]c(N[C@H](c3ccccc3)C(O)(c3ccccc3)c3ccccc3)[nH+]2)cc1

$$$$
