ClC(Cc1ccccc1)[C@@H](Nc1[nH]cc(-c2cccnc2)[nH+]1)C1=CCCC1
     RDKit          3D

 51 54  0  0  1  0  0  0  0  0999 V2000
  128.1630  135.9980  158.2683 Cl  0  0  0  0  0  0  0  0  0  0  0  0
  129.2228  136.0474  159.7262 C   0  0  1  0  0  0  0  0  0  0  0  0
  128.3595  135.9719  160.9871 C   0  0  0  0  0  0  0  0  0  0  0  0
  127.5728  134.6866  160.9811 C   0  0  0  0  0  0  0  0  0  0  0  0
  126.3170  134.6475  160.4048 C   0  0  0  0  0  0  0  0  0  0  0  0
  125.5974  133.4672  160.3951 C   0  0  0  0  0  0  0  0  0  0  0  0
  126.1294  132.3287  160.9708 C   0  0  0  0  0  0  0  0  0  0  0  0
  127.3831  132.3691  161.5518 C   0  0  0  0  0  0  0  0  0  0  0  0
  128.1048  133.5481  161.5569 C   0  0  0  0  0  0  0  0  0  0  0  0
  130.1868  134.8595  159.6963 C   0  0  1  0  0  0  0  0  0  0  0  0
  129.6709  133.9642  160.0433 H   0  0  0  0  0  0  0  0  0  0  0  0
  130.6611  134.6498  158.3262 N   0  0  0  0  0  0  0  0  0  0  0  0
  130.4206  133.4455  157.6872 C   0  0  0  0  0  0  0  0  0  0  0  0
  129.7635  132.3811  158.2233 N   0  0  0  0  0  0  0  0  0  0  0  0
  129.3827  132.3301  159.1140 H   0  0  0  0  0  0  0  0  0  0  0  0
  129.7366  131.3931  157.2691 C   0  0  0  0  0  0  0  0  0  0  0  0
  130.3848  131.8787  156.1814 C   0  0  0  0  0  0  0  0  0  0  0  0
  130.6083  131.1578  154.9045 C   0  0  0  0  0  0  0  0  0  0  0  0
  130.1002  131.6640  153.7045 C   0  0  0  0  0  0  0  0  0  0  0  0
  130.3413  130.9569  152.5394 C   0  0  0  0  0  0  0  0  0  0  0  0
  131.0606  129.7769  152.6006 C   0  0  0  0  0  0  0  0  0  0  0  0
  131.5230  129.3212  153.7486 N   0  0  0  0  0  0  0  0  0  0  0  0
  131.3234  129.9621  154.8822 C   0  0  0  0  0  0  0  0  0  0  0  0
  130.7931  133.1403  156.4682 N   0  0  0  0  0  0  0  0  0  0  0  0
  131.2821  133.7236  155.8669 H   0  0  0  0  0  0  0  0  0  0  0  0
  131.3615  135.1431  160.5967 C   0  0  0  0  0  0  0  0  0  0  0  0
  132.1807  136.1483  160.4470 C   0  0  0  0  0  0  0  0  0  0  0  0
  133.2475  136.1447  161.5172 C   0  0  0  0  0  0  0  0  0  0  0  0
  133.1981  134.7202  162.1166 C   0  0  0  0  0  0  0  0  0  0  0  0
  131.7418  134.3051  161.7950 C   0  0  0  0  0  0  0  0  0  0  0  0
  129.7918  136.9770  159.7304 H   0  0  0  0  0  0  0  0  0  0  0  0
  129.0001  136.0018  161.8684 H   0  0  0  0  0  0  0  0  0  0  0  0
  127.6727  136.8180  161.0082 H   0  0  0  0  0  0  0  0  0  0  0  0
  125.8994  135.5381  159.9588 H   0  0  0  0  0  0  0  0  0  0  0  0
  124.6177  133.4357  159.9415 H   0  0  0  0  0  0  0  0  0  0  0  0
  125.5654  131.4076  160.9671 H   0  0  0  0  0  0  0  0  0  0  0  0
  127.7985  131.4796  162.0019 H   0  0  0  0  0  0  0  0  0  0  0  0
  129.0842  133.5797  162.0111 H   0  0  0  0  0  0  0  0  0  0  0  0
  131.1436  135.3547  157.8668 H   0  0  0  0  0  0  0  0  0  0  0  0
  129.2886  130.4154  157.3678 H   0  0  0  0  0  0  0  0  0  0  0  0
  129.5373  132.5856  153.6865 H   0  0  0  0  0  0  0  0  0  0  0  0
  129.9679  131.3202  151.5934 H   0  0  0  0  0  0  0  0  0  0  0  0
  131.2467  129.2204  151.6940 H   0  0  0  0  0  0  0  0  0  0  0  0
  131.7179  129.5571  155.8025 H   0  0  0  0  0  0  0  0  0  0  0  0
  132.1061  136.8855  159.6614 H   0  0  0  0  0  0  0  0  0  0  0  0
  134.2262  136.3382  161.0782 H   0  0  0  0  0  0  0  0  0  0  0  0
  133.0201  136.8868  162.2824 H   0  0  0  0  0  0  0  0  0  0  0  0
  133.9142  134.0630  161.6232 H   0  0  0  0  0  0  0  0  0  0  0  0
  133.3672  134.7425  163.1932 H   0  0  0  0  0  0  0  0  0  0  0  0
  131.0862  134.5271  162.6371 H   0  0  0  0  0  0  0  0  0  0  0  0
  131.6964  133.2447  161.5467 H   0  0  0  0  0  0  0  0  0  0  0  0
  1  2  1  0
  2  3  1  0
  2 10  1  0
  2 31  1  1
  3  4  1  0
  3 32  1  0
  3 33  1  0
  4  9  1  0
  4  5  2  0
  5  6  1  0
  5 34  1  0
  6  7  2  0
  6 35  1  0
  7  8  1  0
  7 36  1  0
  8  9  2  0
  8 37  1  0
  9 38  1  0
 10 11  1  1
 10 12  1  0
 10 26  1  0
 12 39  1  0
 13 12  1  0
 13 24  2  0
 13 14  1  0
 14 15  1  0
 14 16  1  0
 16 17  2  0
 16 40  1  0
 17 18  1  0
 17 24  1  0
 18 23  1  0
 18 19  2  0
 19 20  1  0
 19 41  1  0
 20 21  2  0
 20 42  1  0
 21 22  1  0
 21 43  1  0
 22 23  2  0
 23 44  1  0
 24 25  1  0
 26 30  1  0
 26 27  2  0
 27 28  1  0
 27 45  1  0
 28 29  1  0
 28 46  1  0
 28 47  1  0
 29 30  1  0
 29 48  1  0
 29 49  1  0
 30 50  1  0
 30 51  1  0
M  CHG  1  24   1
M  END
>  <DOCK_score>  (1) 
-56.495697

>  <SMILES>  (1) 
ClC(Cc1ccccc1)[C@@H](Nc1[nH]cc(-c2cccnc2)[nH+]1)C1=CCCC1

$$$$
