NC(=O)C(=C[C@@H](O)Cc1cccc2ccccc12)C1CC[NH2+]C2(CC2)C1
     RDKit          3D

 53 56  0  0  1  0  0  0  0  0999 V2000
  127.4069  136.1559  162.6622 N   0  0  0  0  0  0  0  0  0  0  0  0
  127.3608  136.1231  161.3156 C   0  0  0  0  0  0  0  0  0  0  0  0
  126.2935  135.9972  160.7465 O   0  0  0  0  0  0  0  0  0  0  0  0
  128.6017  136.2397  160.5342 C   0  0  0  0  0  0  0  0  0  0  0  0
  129.3597  137.3264  160.6483 C   0  0  0  0  0  0  0  0  0  0  0  0
  129.0143  138.3827  161.6661 C   0  0  1  0  0  0  0  0  0  0  0  0
  127.9357  138.3978  161.8223 H   0  0  0  0  0  0  0  0  0  0  0  0
  129.6703  138.0869  162.9008 O   0  0  0  0  0  0  0  0  0  0  0  0
  129.4754  139.7503  161.1585 C   0  0  0  0  0  0  0  0  0  0  0  0
  130.9666  139.7294  160.9427 C   0  0  0  0  0  0  0  0  0  0  0  0
  131.4783  139.3633  159.7355 C   0  0  0  0  0  0  0  0  0  0  0  0
  132.8542  139.3376  159.5175 C   0  0  0  0  0  0  0  0  0  0  0  0
  133.7269  139.6774  160.5054 C   0  0  0  0  0  0  0  0  0  0  0  0
  133.2362  140.0607  161.7649 C   0  0  0  0  0  0  0  0  0  0  0  0
  134.1060  140.4188  162.8092 C   0  0  0  0  0  0  0  0  0  0  0  0
  133.5943  140.7850  164.0159 C   0  0  0  0  0  0  0  0  0  0  0  0
  132.2178  140.8110  164.2338 C   0  0  0  0  0  0  0  0  0  0  0  0
  131.3454  140.4707  163.2464 C   0  0  0  0  0  0  0  0  0  0  0  0
  131.8364  140.0869  161.9866 C   0  0  0  0  0  0  0  0  0  0  0  0
  129.0139  135.1276  159.6045 C   0  0  1  0  0  0  0  0  0  0  0  0
  129.1174  135.6667  158.1753 C   0  0  0  0  0  0  0  0  0  0  0  0
  129.5432  134.5408  157.2320 C   0  0  0  0  0  0  0  0  0  0  0  0
  130.8814  134.0620  157.6039 N   0  0  0  0  0  0  0  0  0  0  0  0
  131.1560  133.3147  156.9841 H   0  0  0  0  0  0  0  0  0  0  0  0
  131.5427  134.8204  157.5308 H   0  0  0  0  0  0  0  0  0  0  0  0
  130.8535  133.5665  158.9871 C   0  0  0  0  0  0  0  0  0  0  0  0
  131.9301  132.5656  159.4062 C   0  0  0  0  0  0  0  0  0  0  0  0
  130.4862  132.0988  159.2082 C   0  0  0  0  0  0  0  0  0  0  0  0
  130.3806  134.5811  160.0328 C   0  0  0  0  0  0  0  0  0  0  0  0
  128.2473  136.3284  163.1147 H   0  0  0  0  0  0  0  0  0  0  0  0
  126.5996  136.0067  163.1788 H   0  0  0  0  0  0  0  0  0  0  0  0
  130.2229  137.4520  160.0114 H   0  0  0  0  0  0  0  0  0  0  0  0
  130.6251  137.9585  162.8180 H   0  0  0  0  0  0  0  0  0  0  0  0
  129.2256  140.5143  161.8949 H   0  0  0  0  0  0  0  0  0  0  0  0
  128.9751  139.9760  160.2168 H   0  0  0  0  0  0  0  0  0  0  0  0
  130.8076  139.0894  158.9345 H   0  0  0  0  0  0  0  0  0  0  0  0
  133.2340  139.0437  158.5502 H   0  0  0  0  0  0  0  0  0  0  0  0
  134.7909  139.6568  160.3205 H   0  0  0  0  0  0  0  0  0  0  0  0
  135.1747  140.4034  162.6550 H   0  0  0  0  0  0  0  0  0  0  0  0
  134.2648  141.0594  164.8168 H   0  0  0  0  0  0  0  0  0  0  0  0
  131.8379  141.1059  165.2009 H   0  0  0  0  0  0  0  0  0  0  0  0
  130.2815  140.4951  163.4299 H   0  0  0  0  0  0  0  0  0  0  0  0
  128.2728  134.3290  159.6402 H   0  0  0  0  0  0  0  0  0  0  0  0
  128.1481  136.0550  157.8629 H   0  0  0  0  0  0  0  0  0  0  0  0
  129.8566  136.4672  158.1420 H   0  0  0  0  0  0  0  0  0  0  0  0
  128.8310  133.7188  157.3037 H   0  0  0  0  0  0  0  0  0  0  0  0
  129.5641  134.9141  156.2081 H   0  0  0  0  0  0  0  0  0  0  0  0
  132.6622  132.2697  158.6547 H   0  0  0  0  0  0  0  0  0  0  0  0
  132.3036  132.6267  160.4284 H   0  0  0  0  0  0  0  0  0  0  0  0
  129.9099  131.8532  160.1002 H   0  0  0  0  0  0  0  0  0  0  0  0
  130.2680  131.4962  158.3266 H   0  0  0  0  0  0  0  0  0  0  0  0
  131.0974  135.3995  160.0985 H   0  0  0  0  0  0  0  0  0  0  0  0
  130.2911  134.0917  161.0026 H   0  0  0  0  0  0  0  0  0  0  0  0
  1  2  1  0
  1 30  1  0
  1 31  1  0
  2  3  2  0
  2  4  1  0
  4  5  2  0
  4 20  1  0
  5  6  1  0
  5 32  1  0
  6  7  1  1
  6  8  1  0
  6  9  1  0
  8 33  1  0
  9 10  1  0
  9 34  1  0
  9 35  1  0
 10 19  1  0
 10 11  2  0
 11 12  1  0
 11 36  1  0
 12 13  2  0
 12 37  1  0
 13 14  1  0
 13 38  1  0
 14 19  2  0
 14 15  1  0
 15 16  2  0
 15 39  1  0
 16 17  1  0
 16 40  1  0
 17 18  2  0
 17 41  1  0
 18 19  1  0
 18 42  1  0
 20 29  1  0
 20 21  1  0
 20 43  1  6
 21 22  1  0
 21 44  1  0
 21 45  1  0
 22 23  1  0
 22 46  1  0
 22 47  1  0
 23 24  1  0
 23 25  1  0
 23 26  1  0
 26 28  1  0
 26 27  1  0
 26 29  1  0
 27 28  1  0
 27 48  1  0
 27 49  1  0
 28 50  1  0
 28 51  1  0
 29 52  1  0
 29 53  1  0
M  CHG  1  23   1
M  END
>  <DOCK_score>  (1) 
-43.292473

>  <SMILES>  (1) 
NC(=O)C(=C[C@@H](O)Cc1cccc2ccccc12)C1CC[NH2+]C2(CC2)C1

$$$$
