O[C@H](c1ccccc1)C(Nc1[nH]cc(-c2ccc(Br)cc2)[nH+]1)c1ccccc1
     RDKit          3D

 49 52  0  0  1  0  0  0  0  0999 V2000
  129.4893  138.2375  160.0262 O   0  0  0  0  0  0  0  0  0  0  0  0
  130.2210  137.4026  160.9260 C   0  0  2  0  0  0  0  0  0  0  0  0
  129.9175  137.6185  161.9503 H   0  0  0  0  0  0  0  0  0  0  0  0
  131.6962  137.6698  160.7722 C   0  0  0  0  0  0  0  0  0  0  0  0
  132.6102  136.6618  161.0162 C   0  0  0  0  0  0  0  0  0  0  0  0
  133.9630  136.9057  160.8709 C   0  0  0  0  0  0  0  0  0  0  0  0
  134.4024  138.1599  160.4904 C   0  0  0  0  0  0  0  0  0  0  0  0
  133.4886  139.1693  160.2516 C   0  0  0  0  0  0  0  0  0  0  0  0
  132.1355  138.9243  160.3926 C   0  0  0  0  0  0  0  0  0  0  0  0
  129.9328  135.9340  160.6077 C   0  0  2  0  0  0  0  0  0  0  0  0
  130.3408  135.6437  159.2309 N   0  0  0  0  0  0  0  0  0  0  0  0
  130.1761  134.3700  158.7140 C   0  0  0  0  0  0  0  0  0  0  0  0
  129.6554  133.3047  159.3822 N   0  0  0  0  0  0  0  0  0  0  0  0
  129.3355  133.3014  160.2979 H   0  0  0  0  0  0  0  0  0  0  0  0
  129.6634  132.2359  158.5190 C   0  0  0  0  0  0  0  0  0  0  0  0
  130.1961  132.6763  157.3523 C   0  0  0  0  0  0  0  0  0  0  0  0
  130.4080  131.8653  156.1285 C   0  0  0  0  0  0  0  0  0  0  0  0
  129.7803  132.2217  154.9361 C   0  0  0  0  0  0  0  0  0  0  0  0
  129.9850  131.4670  153.7991 C   0  0  0  0  0  0  0  0  0  0  0  0
  130.8035  130.3519  153.8437 C   0  0  0  0  0  0  0  0  0  0  0  0
  131.0738  129.3181  152.2835 Br  0  0  0  0  0  0  0  0  0  0  0  0
  131.4249  129.9903  155.0267 C   0  0  0  0  0  0  0  0  0  0  0  0
  131.2310  130.7412  156.1682 C   0  0  0  0  0  0  0  0  0  0  0  0
  130.5010  133.9897  157.5025 N   0  0  0  0  0  0  0  0  0  0  0  0
  130.8964  134.5567  156.8221 H   0  0  0  0  0  0  0  0  0  0  0  0
  128.4577  135.6669  160.7614 C   0  0  0  0  0  0  0  0  0  0  0  0
  127.9532  135.2559  161.9810 C   0  0  0  0  0  0  0  0  0  0  0  0
  126.5994  135.0153  162.1232 C   0  0  0  0  0  0  0  0  0  0  0  0
  125.7516  135.1757  161.0433 C   0  0  0  0  0  0  0  0  0  0  0  0
  126.2569  135.5818  159.8223 C   0  0  0  0  0  0  0  0  0  0  0  0
  127.6100  135.8273  159.6814 C   0  0  0  0  0  0  0  0  0  0  0  0
  129.7087  138.0991  159.0947 H   0  0  0  0  0  0  0  0  0  0  0  0
  132.2671  135.6830  161.3168 H   0  0  0  0  0  0  0  0  0  0  0  0
  134.6770  136.1170  161.0571 H   0  0  0  0  0  0  0  0  0  0  0  0
  135.4596  138.3512  160.3796 H   0  0  0  0  0  0  0  0  0  0  0  0
  133.8318  140.1492  159.9545 H   0  0  0  0  0  0  0  0  0  0  0  0
  131.4216  139.7129  160.2061 H   0  0  0  0  0  0  0  0  0  0  0  0
  130.4909  135.2972  161.2939 H   0  0  0  0  0  0  0  0  0  0  0  0
  130.7264  136.3439  158.6813 H   0  0  0  0  0  0  0  0  0  0  0  0
  129.3160  131.2355  158.7306 H   0  0  0  0  0  0  0  0  0  0  0  0
  129.1380  133.0892  154.9012 H   0  0  0  0  0  0  0  0  0  0  0  0
  129.5022  131.7445  152.8737 H   0  0  0  0  0  0  0  0  0  0  0  0
  132.0624  129.1190  155.0566 H   0  0  0  0  0  0  0  0  0  0  0  0
  131.7165  130.4585  157.0905 H   0  0  0  0  0  0  0  0  0  0  0  0
  128.6162  135.1262  162.8236 H   0  0  0  0  0  0  0  0  0  0  0  0
  126.2046  134.6979  163.0771 H   0  0  0  0  0  0  0  0  0  0  0  0
  124.6946  134.9837  161.1533 H   0  0  0  0  0  0  0  0  0  0  0  0
  125.5947  135.7067  158.9784 H   0  0  0  0  0  0  0  0  0  0  0  0
  128.0048  136.1441  158.7274 H   0  0  0  0  0  0  0  0  0  0  0  0
  1  2  1  0
  1 32  1  0
  2  3  1  1
  2  4  1  0
  2 10  1  0
  4  9  1  0
  4  5  2  0
  5  6  1  0
  5 33  1  0
  6  7  2  0
  6 34  1  0
  7  8  1  0
  7 35  1  0
  8  9  2  0
  8 36  1  0
  9 37  1  0
 10 11  1  0
 10 26  1  0
 10 38  1  1
 11 39  1  0
 12 11  1  0
 12 24  2  0
 12 13  1  0
 13 14  1  0
 13 15  1  0
 15 16  2  0
 15 40  1  0
 16 17  1  0
 16 24  1  0
 17 23  1  0
 17 18  2  0
 18 19  1  0
 18 41  1  0
 19 20  2  0
 19 42  1  0
 20 21  1  0
 20 22  1  0
 22 23  2  0
 22 43  1  0
 23 44  1  0
 24 25  1  0
 26 31  1  0
 26 27  2  0
 27 28  1  0
 27 45  1  0
 28 29  2  0
 28 46  1  0
 29 30  1  0
 29 47  1  0
 30 31  2  0
 30 48  1  0
 31 49  1  0
M  CHG  1  24   1
M  END
>  <DOCK_score>  (1) 
-58.53754

>  <SMILES>  (1) 
O[C@H](c1ccccc1)C(Nc1[nH]cc(-c2ccc(Br)cc2)[nH+]1)c1ccccc1

$$$$
