Nc1nnc(Nc2ccc(-c3n[nH]cc3C[NH2+]CC3CC4C[C@@H]4C3)o2)nn1
     RDKit          3D

 49 53  0  0  1  0  0  0  0  0999 V2000
  129.2029  140.4406  164.0185 N   0  0  0  0  0  0  0  0  0  0  0  0
  128.4632  139.3821  163.5099 C   0  0  0  0  0  0  0  0  0  0  0  0
  127.1634  139.2954  163.7688 N   0  0  0  0  0  0  0  0  0  0  0  0
  126.4760  138.3113  163.2965 N   0  0  0  0  0  0  0  0  0  0  0  0
  127.0680  137.3849  162.5511 C   0  0  0  0  0  0  0  0  0  0  0  0
  126.3279  136.3252  162.0429 N   0  0  0  0  0  0  0  0  0  0  0  0
  126.9480  135.3550  161.2623 C   0  0  0  0  0  0  0  0  0  0  0  0
  126.3416  134.2731  160.7135 C   0  0  0  0  0  0  0  0  0  0  0  0
  127.3311  133.5614  160.0073 C   0  0  0  0  0  0  0  0  0  0  0  0
  128.4947  134.2468  160.1614 C   0  0  0  0  0  0  0  0  0  0  0  0
  129.8042  133.8685  159.5912 C   0  0  0  0  0  0  0  0  0  0  0  0
  130.0495  132.8087  158.8461 N   0  0  0  0  0  0  0  0  0  0  0  0
  131.4101  132.8166  158.5136 N   0  0  0  0  0  0  0  0  0  0  0  0
  131.8674  132.1542  157.9724 H   0  0  0  0  0  0  0  0  0  0  0  0
  131.9744  133.9092  159.0726 C   0  0  0  0  0  0  0  0  0  0  0  0
  131.0145  134.5764  159.7482 C   0  0  0  0  0  0  0  0  0  0  0  0
  131.2011  135.8535  160.5261 C   0  0  0  0  0  0  0  0  0  0  0  0
  130.9796  137.0037  159.6397 N   0  0  0  0  0  0  0  0  0  0  0  0
  131.6410  136.9739  158.8783 H   0  0  0  0  0  0  0  0  0  0  0  0
  130.0409  136.9683  159.2712 H   0  0  0  0  0  0  0  0  0  0  0  0
  131.1614  138.2486  160.3980 C   0  0  0  0  0  0  0  0  0  0  0  0
  132.5847  138.3022  160.9567 C   0  0  2  0  0  0  0  0  0  0  0  0
  132.8630  139.6744  161.6192 C   0  0  0  0  0  0  0  0  0  0  0  0
  134.3983  139.8151  161.5672 C   0  0  2  0  0  0  0  0  0  0  0  0
  135.0255  140.4348  160.3169 C   0  0  0  0  0  0  0  0  0  0  0  0
  134.8836  138.9147  160.4176 C   0  0  2  0  0  0  0  0  0  0  0  0
  135.7795  138.2997  160.5022 H   0  0  0  0  0  0  0  0  0  0  0  0
  133.6262  138.2582  159.8112 C   0  0  0  0  0  0  0  0  0  0  0  0
  128.2499  135.3293  160.9292 O   0  0  0  0  0  0  0  0  0  0  0  0
  128.3689  137.4691  162.2965 N   0  0  0  0  0  0  0  0  0  0  0  0
  129.0553  138.4558  162.7645 N   0  0  0  0  0  0  0  0  0  0  0  0
  128.7879  141.0766  164.6220 H   0  0  0  0  0  0  0  0  0  0  0  0
  130.1349  140.5444  163.7704 H   0  0  0  0  0  0  0  0  0  0  0  0
  125.3787  136.2616  162.2323 H   0  0  0  0  0  0  0  0  0  0  0  0
  125.2984  134.0075  160.8014 H   0  0  0  0  0  0  0  0  0  0  0  0
  127.1918  132.6467  159.4502 H   0  0  0  0  0  0  0  0  0  0  0  0
  133.0124  134.1972  158.9950 H   0  0  0  0  0  0  0  0  0  0  0  0
  132.2152  135.8915  160.9241 H   0  0  0  0  0  0  0  0  0  0  0  0
  130.4867  135.8856  161.3486 H   0  0  0  0  0  0  0  0  0  0  0  0
  130.9970  139.1020  159.7402 H   0  0  0  0  0  0  0  0  0  0  0  0
  130.4468  138.2807  161.2204 H   0  0  0  0  0  0  0  0  0  0  0  0
  132.7520  137.4883  161.6624 H   0  0  0  0  0  0  0  0  0  0  0  0
  132.3871  140.4749  161.0530 H   0  0  0  0  0  0  0  0  0  0  0  0
  132.5145  139.6770  162.6521 H   0  0  0  0  0  0  0  0  0  0  0  0
  134.9360  139.8645  162.5141 H   0  0  0  0  0  0  0  0  0  0  0  0
  136.0275  140.8535  160.4119 H   0  0  0  0  0  0  0  0  0  0  0  0
  134.3616  140.9570  159.6280 H   0  0  0  0  0  0  0  0  0  0  0  0
  133.8346  137.2275  159.5245 H   0  0  0  0  0  0  0  0  0  0  0  0
  133.2726  138.8282  158.9520 H   0  0  0  0  0  0  0  0  0  0  0  0
  1  2  1  0
  1 32  1  0
  1 33  1  0
  2 31  2  0
  2  3  1  0
  3  4  2  0
  4  5  1  0
  5  6  1  0
  5 30  2  0
  6  7  1  0
  6 34  1  0
  7 29  1  0
  7  8  2  0
  8  9  1  0
  8 35  1  0
  9 10  2  0
  9 36  1  0
 10 11  1  0
 10 29  1  0
 11 16  1  0
 11 12  2  0
 12 13  1  0
 13 14  1  0
 13 15  1  0
 15 16  2  0
 15 37  1  0
 16 17  1  0
 17 18  1  0
 17 38  1  0
 17 39  1  0
 18 19  1  0
 18 20  1  0
 18 21  1  0
 21 22  1  0
 21 40  1  0
 21 41  1  0
 22 28  1  0
 22 23  1  0
 22 42  1  1
 23 24  1  0
 23 43  1  0
 23 44  1  0
 24 26  1  0
 24 25  1  0
 24 45  1  1
 25 26  1  0
 25 46  1  0
 25 47  1  0
 26 27  1  1
 26 28  1  0
 28 48  1  0
 28 49  1  0
 30 31  1  0
M  CHG  1  18   1
M  END
>  <DOCK_score>  (1) 
-45.005058

>  <SMILES>  (1) 
Nc1nnc(Nc2ccc(-c3n[nH]cc3C[NH2+]CC3CC4C[C@@H]4C3)o2)nn1

$$$$
