O=C1CC[C@H](NC(N[C@H]2C[C@@H](Br)C2)=[NH+][C@@H]2COC3(CCC3)C2)CN1
     RDKit          3D

 52 55  0  0  1  0  0  0  0  0999 V2000
  123.8448  133.6376  161.8210 O   0  0  0  0  0  0  0  0  0  0  0  0
  124.9951  133.9574  161.6074 C   0  0  0  0  0  0  0  0  0  0  0  0
  125.9917  132.8727  161.3151 C   0  0  0  0  0  0  0  0  0  0  0  0
  127.4136  133.4064  161.5067 C   0  0  0  0  0  0  0  0  0  0  0  0
  127.5363  134.7381  160.7564 C   0  0  2  0  0  0  0  0  0  0  0  0
  127.2071  134.6112  159.7251 H   0  0  0  0  0  0  0  0  0  0  0  0
  128.9309  135.1863  160.7756 N   0  0  0  0  0  0  0  0  0  0  0  0
  129.7890  134.8065  159.7707 C   0  0  0  0  0  0  0  0  0  0  0  0
  129.3382  134.0060  158.7478 N   0  0  0  0  0  0  0  0  0  0  0  0
  130.2524  133.6014  157.6770 C   0  0  1  0  0  0  0  0  0  0  0  0
  130.6667  134.4490  157.1313 H   0  0  0  0  0  0  0  0  0  0  0  0
  131.3097  132.5778  158.1238 C   0  0  0  0  0  0  0  0  0  0  0  0
  131.0925  131.8806  156.7705 C   0  0  1  0  0  0  0  0  0  0  0  0
  131.7373  132.2561  155.9759 H   0  0  0  0  0  0  0  0  0  0  0  0
  131.0889  129.9181  156.8873 Br  0  0  0  0  0  0  0  0  0  0  0  0
  129.6850  132.5000  156.7661 C   0  0  0  0  0  0  0  0  0  0  0  0
  131.0298  135.2053  159.7878 N   0  0  0  0  0  0  0  0  0  0  0  0
  131.6351  134.9373  159.0788 H   0  0  0  0  0  0  0  0  0  0  0  0
  131.5100  136.0582  160.8777 C   0  0  2  0  0  0  0  0  0  0  0  0
  131.3970  135.5567  161.8388 H   0  0  0  0  0  0  0  0  0  0  0  0
  130.7745  137.4164  160.8771 C   0  0  0  0  0  0  0  0  0  0  0  0
  131.7431  138.4340  161.1694 O   0  0  0  0  0  0  0  0  0  0  0  0
  133.0222  137.8356  161.3712 C   0  0  0  0  0  0  0  0  0  0  0  0
  133.5148  137.7775  162.8173 C   0  0  0  0  0  0  0  0  0  0  0  0
  134.9224  138.0540  162.2583 C   0  0  0  0  0  0  0  0  0  0  0  0
  134.2319  138.7131  161.0504 C   0  0  0  0  0  0  0  0  0  0  0  0
  132.9890  136.4753  160.6425 C   0  0  0  0  0  0  0  0  0  0  0  0
  126.6544  135.7754  161.4525 C   0  0  0  0  0  0  0  0  0  0  0  0
  125.3071  135.2534  161.6442 N   0  0  0  0  0  0  0  0  0  0  0  0
  125.8247  132.0355  161.9927 H   0  0  0  0  0  0  0  0  0  0  0  0
  125.8675  132.5345  160.2863 H   0  0  0  0  0  0  0  0  0  0  0  0
  128.1312  132.6912  161.1048 H   0  0  0  0  0  0  0  0  0  0  0  0
  127.6068  133.5639  162.5679 H   0  0  0  0  0  0  0  0  0  0  0  0
  129.2490  135.7511  161.4972 H   0  0  0  0  0  0  0  0  0  0  0  0
  128.4157  133.7060  158.7372 H   0  0  0  0  0  0  0  0  0  0  0  0
  132.3065  133.0027  158.2411 H   0  0  0  0  0  0  0  0  0  0  0  0
  131.0012  131.9767  158.9792 H   0  0  0  0  0  0  0  0  0  0  0  0
  128.9326  131.8776  157.2501 H   0  0  0  0  0  0  0  0  0  0  0  0
  129.3703  132.8621  155.7872 H   0  0  0  0  0  0  0  0  0  0  0  0
  130.3324  137.5973  159.8973 H   0  0  0  0  0  0  0  0  0  0  0  0
  129.9967  137.4160  161.6407 H   0  0  0  0  0  0  0  0  0  0  0  0
  133.1275  138.5809  163.4439 H   0  0  0  0  0  0  0  0  0  0  0  0
  133.4116  136.7938  163.2754 H   0  0  0  0  0  0  0  0  0  0  0  0
  135.4761  137.1501  162.0045 H   0  0  0  0  0  0  0  0  0  0  0  0
  135.5037  138.7507  162.8621 H   0  0  0  0  0  0  0  0  0  0  0  0
  134.7023  138.4777  160.0957 H   0  0  0  0  0  0  0  0  0  0  0  0
  134.0455  139.7792  161.1795 H   0  0  0  0  0  0  0  0  0  0  0  0
  133.6760  135.7636  161.1002 H   0  0  0  0  0  0  0  0  0  0  0  0
  133.1998  136.5947  159.5797 H   0  0  0  0  0  0  0  0  0  0  0  0
  127.0862  136.0229  162.4223 H   0  0  0  0  0  0  0  0  0  0  0  0
  126.6049  136.6757  160.8399 H   0  0  0  0  0  0  0  0  0  0  0  0
  124.5925  135.8885  161.8085 H   0  0  0  0  0  0  0  0  0  0  0  0
  1  2  2  0
  2 29  1  0
  2  3  1  0
  3  4  1  0
  3 30  1  0
  3 31  1  0
  4  5  1  0
  4 32  1  0
  4 33  1  0
  5  6  1  6
  5  7  1  0
  5 28  1  0
  7 34  1  0
  8  7  1  0
  8  9  1  0
  8 17  2  0
  9 10  1  0
  9 35  1  0
 10 11  1  6
 10 16  1  0
 10 12  1  0
 12 13  1  0
 12 36  1  0
 12 37  1  0
 13 14  1  6
 13 15  1  0
 13 16  1  0
 16 38  1  0
 16 39  1  0
 17 18  1  0
 17 19  1  0
 19 20  1  1
 19 27  1  0
 19 21  1  0
 21 22  1  0
 21 40  1  0
 21 41  1  0
 22 23  1  0
 23 26  1  0
 23 24  1  0
 23 27  1  0
 24 25  1  0
 24 42  1  0
 24 43  1  0
 25 26  1  0
 25 44  1  0
 25 45  1  0
 26 46  1  0
 26 47  1  0
 27 48  1  0
 27 49  1  0
 28 29  1  0
 28 50  1  0
 28 51  1  0
 29 52  1  0
M  CHG  1  17   1
M  END
>  <DOCK_score>  (1) 
-45.854626

>  <SMILES>  (1) 
O=C1CC[C@H](NC(N[C@H]2C[C@@H](Br)C2)=[NH+][C@@H]2COC3(CCC3)C2)CN1

$$$$
