Cc1ccccc1C1=CC[N@H+](Cc2c[nH]c3cc(-c4ccc(O)cc4)ccc23)CC1
     RDKit          3D

 57 61  0  0  1  0  0  0  0  0999 V2000
  134.8907  137.3204  162.6704 C   0  0  0  0  0  0  0  0  0  0  0  0
  135.1404  138.3613  161.6095 C   0  0  0  0  0  0  0  0  0  0  0  0
  136.1926  139.2443  161.7414 C   0  0  0  0  0  0  0  0  0  0  0  0
  136.4196  140.2040  160.7709 C   0  0  0  0  0  0  0  0  0  0  0  0
  135.5977  140.2817  159.6610 C   0  0  0  0  0  0  0  0  0  0  0  0
  134.5457  139.4015  159.5146 C   0  0  0  0  0  0  0  0  0  0  0  0
  134.3112  138.4310  160.4898 C   0  0  0  0  0  0  0  0  0  0  0  0
  133.1855  137.4849  160.3396 C   0  0  0  0  0  0  0  0  0  0  0  0
  131.9624  137.9624  160.2567 C   0  0  0  0  0  0  0  0  0  0  0  0
  130.7515  137.0870  160.1059 C   0  0  0  0  0  0  0  0  0  0  0  0
  131.1416  135.7497  159.6443 N   0  0  2  0  0  0  0  0  0  0  0  0
  131.4946  135.8078  158.7009 H   0  0  0  0  0  0  0  0  0  0  0  0
  129.9745  134.8581  159.6785 C   0  0  0  0  0  0  0  0  0  0  0  0
  130.3770  133.4854  159.2042 C   0  0  0  0  0  0  0  0  0  0  0  0
  130.8332  132.4790  159.9671 C   0  0  0  0  0  0  0  0  0  0  0  0
  131.0959  131.3851  159.1884 N   0  0  0  0  0  0  0  0  0  0  0  0
  131.4347  130.5369  159.5148 H   0  0  0  0  0  0  0  0  0  0  0  0
  130.8075  131.6681  157.8714 C   0  0  0  0  0  0  0  0  0  0  0  0
  130.8847  130.9295  156.6977 C   0  0  0  0  0  0  0  0  0  0  0  0
  130.5159  131.5130  155.4921 C   0  0  0  0  0  0  0  0  0  0  0  0
  130.6029  130.7286  154.2366 C   0  0  0  0  0  0  0  0  0  0  0  0
  129.7191  130.9860  153.1896 C   0  0  0  0  0  0  0  0  0  0  0  0
  129.8060  130.2584  152.0212 C   0  0  0  0  0  0  0  0  0  0  0  0
  130.7654  129.2634  151.8910 C   0  0  0  0  0  0  0  0  0  0  0  0
  130.8450  128.5448  150.7407 O   0  0  0  0  0  0  0  0  0  0  0  0
  131.6432  129.0007  152.9342 C   0  0  0  0  0  0  0  0  0  0  0  0
  131.5648  129.7285  154.1028 C   0  0  0  0  0  0  0  0  0  0  0  0
  130.0576  132.8345  155.4562 C   0  0  0  0  0  0  0  0  0  0  0  0
  129.9722  133.5668  156.6034 C   0  0  0  0  0  0  0  0  0  0  0  0
  130.3447  132.9967  157.8241 C   0  0  0  0  0  0  0  0  0  0  0  0
  132.1905  135.2219  160.5311 C   0  0  0  0  0  0  0  0  0  0  0  0
  133.4794  136.0109  160.2863 C   0  0  0  0  0  0  0  0  0  0  0  0
  135.4470  136.4146  162.4289 H   0  0  0  0  0  0  0  0  0  0  0  0
  135.2187  137.7012  163.6376 H   0  0  0  0  0  0  0  0  0  0  0  0
  133.8256  137.0923  162.7121 H   0  0  0  0  0  0  0  0  0  0  0  0
  136.8376  139.1888  162.6057 H   0  0  0  0  0  0  0  0  0  0  0  0
  137.2416  140.8958  160.8807 H   0  0  0  0  0  0  0  0  0  0  0  0
  135.7805  141.0331  158.9070 H   0  0  0  0  0  0  0  0  0  0  0  0
  133.9051  139.4631  158.6473 H   0  0  0  0  0  0  0  0  0  0  0  0
  131.8228  139.0325  160.2971 H   0  0  0  0  0  0  0  0  0  0  0  0
  130.0698  137.5337  159.3820 H   0  0  0  0  0  0  0  0  0  0  0  0
  130.2466  137.0033  161.0683 H   0  0  0  0  0  0  0  0  0  0  0  0
  129.1957  135.2540  159.0267 H   0  0  0  0  0  0  0  0  0  0  0  0
  129.5963  134.7937  160.6987 H   0  0  0  0  0  0  0  0  0  0  0  0
  130.9724  132.5261  161.0372 H   0  0  0  0  0  0  0  0  0  0  0  0
  131.2338  129.9078  156.7216 H   0  0  0  0  0  0  0  0  0  0  0  0
  128.9699  131.7571  153.2917 H   0  0  0  0  0  0  0  0  0  0  0  0
  129.1241  130.4599  151.2083 H   0  0  0  0  0  0  0  0  0  0  0  0
  130.1935  128.7982  150.0725 H   0  0  0  0  0  0  0  0  0  0  0  0
  132.3879  128.2256  152.8301 H   0  0  0  0  0  0  0  0  0  0  0  0
  132.2478  129.5234  154.9140 H   0  0  0  0  0  0  0  0  0  0  0  0
  129.7692  133.2772  154.5143 H   0  0  0  0  0  0  0  0  0  0  0  0
  129.6168  134.5860  156.5689 H   0  0  0  0  0  0  0  0  0  0  0  0
  131.8829  135.3368  161.5704 H   0  0  0  0  0  0  0  0  0  0  0  0
  132.3593  134.1678  160.3111 H   0  0  0  0  0  0  0  0  0  0  0  0
  134.2108  135.7585  161.0541 H   0  0  0  0  0  0  0  0  0  0  0  0
  133.8805  135.7558  159.3055 H   0  0  0  0  0  0  0  0  0  0  0  0
  1  2  1  0
  1 33  1  0
  1 34  1  0
  1 35  1  0
  2  7  2  0
  2  3  1  0
  3  4  2  0
  3 36  1  0
  4  5  1  0
  4 37  1  0
  5  6  2  0
  5 38  1  0
  6  7  1  0
  6 39  1  0
  7  8  1  0
  8 32  1  0
  8  9  2  0
  9 10  1  0
  9 40  1  0
 10 11  1  0
 10 41  1  0
 10 42  1  0
 11 12  1  6
 11 13  1  0
 11 31  1  0
 13 14  1  0
 13 43  1  0
 13 44  1  0
 14 30  1  0
 14 15  2  0
 15 16  1  0
 15 45  1  0
 16 17  1  0
 16 18  1  0
 18 30  2  0
 18 19  1  0
 19 20  2  0
 19 46  1  0
 20 21  1  0
 20 28  1  0
 21 27  1  0
 21 22  2  0
 22 23  1  0
 22 47  1  0
 23 24  2  0
 23 48  1  0
 24 25  1  0
 24 26  1  0
 25 49  1  0
 26 27  2  0
 26 50  1  0
 27 51  1  0
 28 29  2  0
 28 52  1  0
 29 30  1  0
 29 53  1  0
 31 32  1  0
 31 54  1  0
 31 55  1  0
 32 56  1  0
 32 57  1  0
M  CHG  1  11   1
M  END
>  <DOCK_score>  (1) 
-56.552368

>  <SMILES>  (1) 
Cc1ccccc1C1=CC[N@H+](Cc2c[nH]c3cc(-c4ccc(O)cc4)ccc23)CC1

$$$$
