Cc1cccc([C@H](Nc2[nH]cc(-c3ccc(N)cc3)[nH+]2)C2=CCCCC2)c1CCl
     RDKit          3D

 57 60  0  0  1  0  0  0  0  0999 V2000
  130.6184  138.2916  164.1285 C   0  0  0  0  0  0  0  0  0  0  0  0
  130.4643  138.0716  162.6457 C   0  0  0  0  0  0  0  0  0  0  0  0
  130.6161  139.1307  161.7700 C   0  0  0  0  0  0  0  0  0  0  0  0
  130.4696  138.9300  160.4105 C   0  0  0  0  0  0  0  0  0  0  0  0
  130.1814  137.6678  159.9253 C   0  0  0  0  0  0  0  0  0  0  0  0
  130.0302  136.6088  160.8006 C   0  0  0  0  0  0  0  0  0  0  0  0
  129.7115  135.2339  160.2720 C   0  0  2  0  0  0  0  0  0  0  0  0
  130.1331  134.4817  160.9385 H   0  0  0  0  0  0  0  0  0  0  0  0
  130.2881  135.0793  158.9341 N   0  0  0  0  0  0  0  0  0  0  0  0
  130.1247  133.8908  158.2431 C   0  0  0  0  0  0  0  0  0  0  0  0
  129.4482  132.7992  158.6927 N   0  0  0  0  0  0  0  0  0  0  0  0
  128.9978  132.7142  159.5476 H   0  0  0  0  0  0  0  0  0  0  0  0
  129.5215  131.8389  157.7116 C   0  0  0  0  0  0  0  0  0  0  0  0
  130.2399  132.3718  156.6927 C   0  0  0  0  0  0  0  0  0  0  0  0
  130.5774  131.6963  155.4157 C   0  0  0  0  0  0  0  0  0  0  0  0
  130.1470  132.2370  154.2050 C   0  0  0  0  0  0  0  0  0  0  0  0
  130.4664  131.6101  153.0190 C   0  0  0  0  0  0  0  0  0  0  0  0
  131.2066  130.4345  153.0304 C   0  0  0  0  0  0  0  0  0  0  0  0
  131.5238  129.7984  151.8278 N   0  0  0  0  0  0  0  0  0  0  0  0
  131.6324  129.8904  154.2369 C   0  0  0  0  0  0  0  0  0  0  0  0
  131.3203  130.5167  155.4250 C   0  0  0  0  0  0  0  0  0  0  0  0
  130.5915  133.6337  157.0455 N   0  0  0  0  0  0  0  0  0  0  0  0
  131.1079  134.2470  156.4996 H   0  0  0  0  0  0  0  0  0  0  0  0
  128.2166  135.0584  160.1980 C   0  0  0  0  0  0  0  0  0  0  0  0
  127.6826  134.1037  160.8900 C   0  0  0  0  0  0  0  0  0  0  0  0
  126.2130  133.8002  160.9102 C   0  0  0  0  0  0  0  0  0  0  0  0
  125.4211  134.9930  160.3700 C   0  0  0  0  0  0  0  0  0  0  0  0
  126.0492  135.4303  159.0406 C   0  0  0  0  0  0  0  0  0  0  0  0
  127.4389  136.0052  159.3314 C   0  0  0  0  0  0  0  0  0  0  0  0
  130.1720  136.8106  162.1609 C   0  0  0  0  0  0  0  0  0  0  0  0
  130.0071  135.6560  163.1152 C   0  0  0  0  0  0  0  0  0  0  0  0
  131.6029  134.8574  163.3735 Cl  0  0  0  0  0  0  0  0  0  0  0  0
  129.6512  138.5497  164.5599 H   0  0  0  0  0  0  0  0  0  0  0  0
  130.9924  137.3800  164.5943 H   0  0  0  0  0  0  0  0  0  0  0  0
  131.3228  139.1048  164.3039 H   0  0  0  0  0  0  0  0  0  0  0  0
  130.8445  140.1160  162.1489 H   0  0  0  0  0  0  0  0  0  0  0  0
  130.5835  139.7582  159.7268 H   0  0  0  0  0  0  0  0  0  0  0  0
  130.0710  137.5098  158.8626 H   0  0  0  0  0  0  0  0  0  0  0  0
  130.7844  135.8096  158.5324 H   0  0  0  0  0  0  0  0  0  0  0  0
  129.0897  130.8496  157.7460 H   0  0  0  0  0  0  0  0  0  0  0  0
  129.5675  133.1482  154.1957 H   0  0  0  0  0  0  0  0  0  0  0  0
  130.1370  132.0310  152.0805 H   0  0  0  0  0  0  0  0  0  0  0  0
  132.0411  128.9769  151.8358 H   0  0  0  0  0  0  0  0  0  0  0  0
  131.2274  130.1765  150.9861 H   0  0  0  0  0  0  0  0  0  0  0  0
  132.2076  128.9763  154.2438 H   0  0  0  0  0  0  0  0  0  0  0  0
  131.6515  130.0942  156.3621 H   0  0  0  0  0  0  0  0  0  0  0  0
  128.3354  133.4869  161.4899 H   0  0  0  0  0  0  0  0  0  0  0  0
  126.0163  132.9254  160.2905 H   0  0  0  0  0  0  0  0  0  0  0  0
  125.9010  133.5929  161.9338 H   0  0  0  0  0  0  0  0  0  0  0  0
  124.3839  134.7003  160.2066 H   0  0  0  0  0  0  0  0  0  0  0  0
  125.4648  135.8154  161.0840 H   0  0  0  0  0  0  0  0  0  0  0  0
  126.1359  134.5708  158.3761 H   0  0  0  0  0  0  0  0  0  0  0  0
  125.4253  136.1927  158.5741 H   0  0  0  0  0  0  0  0  0  0  0  0
  127.3379  136.9626  159.8424 H   0  0  0  0  0  0  0  0  0  0  0  0
  127.9703  136.1539  158.3914 H   0  0  0  0  0  0  0  0  0  0  0  0
  129.6265  136.0237  164.0681 H   0  0  0  0  0  0  0  0  0  0  0  0
  129.3041  134.9361  162.6964 H   0  0  0  0  0  0  0  0  0  0  0  0
  1  2  1  0
  1 33  1  0
  1 34  1  0
  1 35  1  0
  2 30  2  0
  2  3  1  0
  3  4  2  0
  3 36  1  0
  4  5  1  0
  4 37  1  0
  5  6  2  0
  5 38  1  0
  6  7  1  0
  6 30  1  0
  7  8  1  1
  7  9  1  0
  7 24  1  0
  9 39  1  0
 10  9  1  0
 10 22  2  0
 10 11  1  0
 11 12  1  0
 11 13  1  0
 13 14  2  0
 13 40  1  0
 14 15  1  0
 14 22  1  0
 15 21  1  0
 15 16  2  0
 16 17  1  0
 16 41  1  0
 17 18  2  0
 17 42  1  0
 18 19  1  0
 18 20  1  0
 19 43  1  0
 19 44  1  0
 20 21  2  0
 20 45  1  0
 21 46  1  0
 22 23  1  0
 24 29  1  0
 24 25  2  0
 25 26  1  0
 25 47  1  0
 26 27  1  0
 26 48  1  0
 26 49  1  0
 27 28  1  0
 27 50  1  0
 27 51  1  0
 28 29  1  0
 28 52  1  0
 28 53  1  0
 29 54  1  0
 29 55  1  0
 30 31  1  0
 31 32  1  0
 31 56  1  0
 31 57  1  0
M  CHG  1  22   1
M  END
>  <DOCK_score>  (1) 
-59.332764

>  <SMILES>  (1) 
Cc1cccc([C@H](Nc2[nH]cc(-c3ccc(N)cc3)[nH+]2)C2=CCCCC2)c1CCl

$$$$
