C[C@@H](Nc1ccc(CC2CC(NC3=[NH+]CCN3)C2)cc1)c1cccc2cccnc12
     RDKit          3D

 60 64  0  0  1  0  0  0  0  0999 V2000
  125.4134  136.1064  165.1840 C   0  0  0  0  0  0  0  0  0  0  0  0
  126.4997  137.0768  164.7156 C   0  0  1  0  0  0  0  0  0  0  0  0
  127.4321  136.8569  165.2355 H   0  0  0  0  0  0  0  0  0  0  0  0
  126.6987  136.9272  163.2718 N   0  0  0  0  0  0  0  0  0  0  0  0
  127.6355  136.0116  162.7872 C   0  0  0  0  0  0  0  0  0  0  0  0
  127.2550  134.7032  162.5171 C   0  0  0  0  0  0  0  0  0  0  0  0
  128.1827  133.8017  162.0336 C   0  0  0  0  0  0  0  0  0  0  0  0
  129.4918  134.1975  161.8281 C   0  0  0  0  0  0  0  0  0  0  0  0
  130.5026  133.2096  161.3052 C   0  0  0  0  0  0  0  0  0  0  0  0
  130.5167  133.2557  159.7760 C   0  0  2  0  0  0  0  0  0  0  0  0
  129.2603  132.6485  159.1297 C   0  0  0  0  0  0  0  0  0  0  0  0
  130.1952  132.0367  158.0731 C   0  0  1  0  0  0  0  0  0  0  0  0
  130.4283  132.9096  156.9199 N   0  0  0  0  0  0  0  0  0  0  0  0
  130.6795  132.3658  155.6902 C   0  0  0  0  0  0  0  0  0  0  0  0
  130.8918  133.1031  154.6125 N   0  0  0  0  0  0  0  0  0  0  0  0
  130.8904  134.0727  154.5862 H   0  0  0  0  0  0  0  0  0  0  0  0
  131.1335  132.2200  153.4608 C   0  0  0  0  0  0  0  0  0  0  0  0
  131.0135  130.8050  154.0622 C   0  0  0  0  0  0  0  0  0  0  0  0
  130.7241  131.0600  155.4820 N   0  0  0  0  0  0  0  0  0  0  0  0
  131.3081  132.1048  159.1323 C   0  0  0  0  0  0  0  0  0  0  0  0
  129.8751  135.4979  162.1009 C   0  0  0  0  0  0  0  0  0  0  0  0
  128.9513  136.4059  162.5797 C   0  0  0  0  0  0  0  0  0  0  0  0
  126.0760  138.4905  165.0203 C   0  0  0  0  0  0  0  0  0  0  0  0
  124.9327  138.9928  164.4787 C   0  0  0  0  0  0  0  0  0  0  0  0
  124.5257  140.2988  164.7423 C   0  0  0  0  0  0  0  0  0  0  0  0
  125.2558  141.1065  165.5602 C   0  0  0  0  0  0  0  0  0  0  0  0
  126.4373  140.6196  166.1414 C   0  0  0  0  0  0  0  0  0  0  0  0
  127.2201  141.4220  166.9929 C   0  0  0  0  0  0  0  0  0  0  0  0
  128.3568  140.8813  167.5228 C   0  0  0  0  0  0  0  0  0  0  0  0
  128.7118  139.5695  167.2150 C   0  0  0  0  0  0  0  0  0  0  0  0
  127.9807  138.8251  166.4214 N   0  0  0  0  0  0  0  0  0  0  0  0
  126.8563  139.2932  165.8702 C   0  0  0  0  0  0  0  0  0  0  0  0
  124.4810  136.3263  164.6639 H   0  0  0  0  0  0  0  0  0  0  0  0
  125.7200  135.0839  164.9635 H   0  0  0  0  0  0  0  0  0  0  0  0
  125.2654  136.2178  166.2580 H   0  0  0  0  0  0  0  0  0  0  0  0
  126.1797  137.4639  162.6525 H   0  0  0  0  0  0  0  0  0  0  0  0
  126.2338  134.3922  162.6816 H   0  0  0  0  0  0  0  0  0  0  0  0
  127.8867  132.7854  161.8195 H   0  0  0  0  0  0  0  0  0  0  0  0
  131.4915  133.4657  161.6856 H   0  0  0  0  0  0  0  0  0  0  0  0
  130.2346  132.2063  161.6360 H   0  0  0  0  0  0  0  0  0  0  0  0
  130.7791  134.2386  159.3845 H   0  0  0  0  0  0  0  0  0  0  0  0
  128.7629  131.9068  159.7547 H   0  0  0  0  0  0  0  0  0  0  0  0
  128.5736  133.3929  158.7266 H   0  0  0  0  0  0  0  0  0  0  0  0
  129.9256  131.0199  157.7878 H   0  0  0  0  0  0  0  0  0  0  0  0
  130.4046  133.8732  157.0284 H   0  0  0  0  0  0  0  0  0  0  0  0
  132.1313  132.3803  153.0524 H   0  0  0  0  0  0  0  0  0  0  0  0
  130.3741  132.3773  152.6948 H   0  0  0  0  0  0  0  0  0  0  0  0
  131.9516  130.2607  153.9532 H   0  0  0  0  0  0  0  0  0  0  0  0
  130.1943  130.2577  153.5956 H   0  0  0  0  0  0  0  0  0  0  0  0
  130.5874  130.3784  156.1585 H   0  0  0  0  0  0  0  0  0  0  0  0
  132.2744  132.4102  158.7312 H   0  0  0  0  0  0  0  0  0  0  0  0
  131.3705  131.2145  159.7578 H   0  0  0  0  0  0  0  0  0  0  0  0
  130.8984  135.8036  161.9397 H   0  0  0  0  0  0  0  0  0  0  0  0
  129.2514  137.4211  162.7928 H   0  0  0  0  0  0  0  0  0  0  0  0
  124.3340  138.3705  163.8302 H   0  0  0  0  0  0  0  0  0  0  0  0
  123.6170  140.6743  164.2954 H   0  0  0  0  0  0  0  0  0  0  0  0
  124.9277  142.1157  165.7609 H   0  0  0  0  0  0  0  0  0  0  0  0
  126.9301  142.4372  167.2205 H   0  0  0  0  0  0  0  0  0  0  0  0
  128.9802  141.4701  168.1794 H   0  0  0  0  0  0  0  0  0  0  0  0
  129.6134  139.1552  167.6413 H   0  0  0  0  0  0  0  0  0  0  0  0
  1  2  1  0
  1 33  1  0
  1 34  1  0
  1 35  1  0
  2  3  1  1
  2  4  1  0
  2 23  1  0
  4  5  1  0
  4 36  1  0
  5 22  1  0
  5  6  2  0
  6  7  1  0
  6 37  1  0
  7  8  2  0
  7 38  1  0
  8  9  1  0
  8 21  1  0
  9 10  1  0
  9 39  1  0
  9 40  1  0
 10 20  1  0
 10 11  1  0
 10 41  1  1
 11 12  1  0
 11 42  1  0
 11 43  1  0
 12 13  1  0
 12 20  1  0
 12 44  1  6
 13 14  1  0
 13 45  1  0
 14 19  2  0
 14 15  1  0
 15 16  1  0
 15 17  1  0
 17 18  1  0
 17 46  1  0
 17 47  1  0
 18 19  1  0
 18 48  1  0
 18 49  1  0
 19 50  1  0
 20 51  1  0
 20 52  1  0
 21 22  2  0
 21 53  1  0
 22 54  1  0
 23 32  1  0
 23 24  2  0
 24 25  1  0
 24 55  1  0
 25 26  2  0
 25 56  1  0
 26 27  1  0
 26 57  1  0
 27 32  2  0
 27 28  1  0
 28 29  2  0
 28 58  1  0
 29 30  1  0
 29 59  1  0
 30 31  2  0
 30 60  1  0
 31 32  1  0
M  CHG  1  19   1
M  END
>  <DOCK_score>  (1) 
-43.707764

>  <SMILES>  (1) 
C[C@@H](Nc1ccc(CC2CC(NC3=[NH+]CCN3)C2)cc1)c1cccc2cccnc12

$$$$
