Cc1ccc(Cl)cc1N1CC[NH+]([C@@H](c2ccccc2)c2cccc(C3CC=CCC3)c2)CC1
     RDKit          3D

 67 71  0  0  1  0  0  0  0  0999 V2000
  133.4348  137.4127  163.7072 C   0  0  0  0  0  0  0  0  0  0  0  0
  134.0781  137.8993  162.4342 C   0  0  0  0  0  0  0  0  0  0  0  0
  135.1328  138.7895  162.4893 C   0  0  0  0  0  0  0  0  0  0  0  0
  135.7243  139.2363  161.3224 C   0  0  0  0  0  0  0  0  0  0  0  0
  135.2620  138.7933  160.0951 C   0  0  0  0  0  0  0  0  0  0  0  0
  136.0078  139.3570  158.6323 Cl  0  0  0  0  0  0  0  0  0  0  0  0
  134.2108  137.8981  160.0336 C   0  0  0  0  0  0  0  0  0  0  0  0
  133.6113  137.4523  161.2047 C   0  0  0  0  0  0  0  0  0  0  0  0
  132.5450  136.5521  161.1461 N   0  0  0  0  0  0  0  0  0  0  0  0
  131.3838  137.1540  160.4758 C   0  0  0  0  0  0  0  0  0  0  0  0
  130.2210  136.1593  160.4852 C   0  0  0  0  0  0  0  0  0  0  0  0
  130.6238  134.9281  159.7930 N   0  0  0  0  0  0  0  0  0  0  0  0
  130.8847  135.1465  158.8432 H   0  0  0  0  0  0  0  0  0  0  0  0
  129.5012  133.9806  159.7867 C   0  0  1  0  0  0  0  0  0  0  0  0
  129.2188  133.7449  160.8127 H   0  0  0  0  0  0  0  0  0  0  0  0
  128.3270  134.5976  159.0715 C   0  0  0  0  0  0  0  0  0  0  0  0
  127.0385  134.2450  159.4265 C   0  0  0  0  0  0  0  0  0  0  0  0
  125.9612  134.8143  158.7734 C   0  0  0  0  0  0  0  0  0  0  0  0
  126.1729  135.7291  157.7588 C   0  0  0  0  0  0  0  0  0  0  0  0
  127.4616  136.0781  157.4007 C   0  0  0  0  0  0  0  0  0  0  0  0
  128.5386  135.5120  158.0566 C   0  0  0  0  0  0  0  0  0  0  0  0
  129.9144  132.7171  159.0766 C   0  0  0  0  0  0  0  0  0  0  0  0
  129.8909  131.5081  159.7469 C   0  0  0  0  0  0  0  0  0  0  0  0
  130.2657  130.3489  159.0944 C   0  0  0  0  0  0  0  0  0  0  0  0
  130.6735  130.3996  157.7743 C   0  0  0  0  0  0  0  0  0  0  0  0
  130.6965  131.6081  157.1041 C   0  0  0  0  0  0  0  0  0  0  0  0
  131.1355  131.6625  155.6634 C   0  0  1  0  0  0  0  0  0  0  0  0
  131.4800  130.2533  155.1769 C   0  0  0  0  0  0  0  0  0  0  0  0
  131.6612  130.2504  153.6873 C   0  0  0  0  0  0  0  0  0  0  0  0
  131.2411  131.1914  152.9039 C   0  0  0  0  0  0  0  0  0  0  0  0
  130.5234  132.4215  153.3768 C   0  0  0  0  0  0  0  0  0  0  0  0
  129.9958  132.2144  154.7977 C   0  0  0  0  0  0  0  0  0  0  0  0
  130.3175  132.7672  157.7555 C   0  0  0  0  0  0  0  0  0  0  0  0
  131.7687  134.3257  160.4888 C   0  0  0  0  0  0  0  0  0  0  0  0
  132.9445  135.3051  160.4789 C   0  0  0  0  0  0  0  0  0  0  0  0
  133.9413  136.5100  164.0484 H   0  0  0  0  0  0  0  0  0  0  0  0
  133.5137  138.1850  164.4723 H   0  0  0  0  0  0  0  0  0  0  0  0
  132.3837  137.1915  163.5215 H   0  0  0  0  0  0  0  0  0  0  0  0
  135.4960  139.1368  163.4452 H   0  0  0  0  0  0  0  0  0  0  0  0
  136.5490  139.9322  161.3683 H   0  0  0  0  0  0  0  0  0  0  0  0
  133.8531  137.5490  159.0762 H   0  0  0  0  0  0  0  0  0  0  0  0
  131.6447  137.3987  159.4461 H   0  0  0  0  0  0  0  0  0  0  0  0
  131.0900  138.0621  161.0023 H   0  0  0  0  0  0  0  0  0  0  0  0
  129.3630  136.5984  159.9759 H   0  0  0  0  0  0  0  0  0  0  0  0
  129.9514  135.9255  161.5152 H   0  0  0  0  0  0  0  0  0  0  0  0
  126.8731  133.5273  160.2163 H   0  0  0  0  0  0  0  0  0  0  0  0
  124.9545  134.5419  159.0536 H   0  0  0  0  0  0  0  0  0  0  0  0
  125.3314  136.1713  157.2464 H   0  0  0  0  0  0  0  0  0  0  0  0
  127.6270  136.7927  156.6079 H   0  0  0  0  0  0  0  0  0  0  0  0
  129.5455  135.7845  157.7764 H   0  0  0  0  0  0  0  0  0  0  0  0
  129.5764  131.4691  160.7793 H   0  0  0  0  0  0  0  0  0  0  0  0
  130.2435  129.4038  159.6167 H   0  0  0  0  0  0  0  0  0  0  0  0
  130.9697  129.4942  157.2653 H   0  0  0  0  0  0  0  0  0  0  0  0
  132.0103  132.3062  155.5711 H   0  0  0  0  0  0  0  0  0  0  0  0
  132.4025  129.9220  155.6538 H   0  0  0  0  0  0  0  0  0  0  0  0
  130.6726  129.5713  155.4440 H   0  0  0  0  0  0  0  0  0  0  0  0
  132.1744  129.4114  153.2411 H   0  0  0  0  0  0  0  0  0  0  0  0
  131.4185  131.0845  151.8438 H   0  0  0  0  0  0  0  0  0  0  0  0
  131.2119  133.2665  153.3701 H   0  0  0  0  0  0  0  0  0  0  0  0
  129.6875  132.6311  152.7094 H   0  0  0  0  0  0  0  0  0  0  0  0
  129.1716  131.5012  154.7789 H   0  0  0  0  0  0  0  0  0  0  0  0
  129.6526  133.1649  155.2061 H   0  0  0  0  0  0  0  0  0  0  0  0
  130.3358  133.7116  157.2318 H   0  0  0  0  0  0  0  0  0  0  0  0
  131.4910  134.1015  161.5186 H   0  0  0  0  0  0  0  0  0  0  0  0
  132.0584  133.4053  159.9819 H   0  0  0  0  0  0  0  0  0  0  0  0
  133.2311  135.5192  159.4493 H   0  0  0  0  0  0  0  0  0  0  0  0
  133.7895  134.8641  161.0078 H   0  0  0  0  0  0  0  0  0  0  0  0
  1  2  1  0
  1 36  1  0
  1 37  1  0
  1 38  1  0
  2  8  2  0
  2  3  1  0
  3  4  2  0
  3 39  1  0
  4  5  1  0
  4 40  1  0
  5  6  1  0
  5  7  2  0
  7  8  1  0
  7 41  1  0
  8  9  1  0
  9 35  1  0
  9 10  1  0
 10 11  1  0
 10 42  1  0
 10 43  1  0
 11 12  1  0
 11 44  1  0
 11 45  1  0
 12 13  1  0
 12 14  1  0
 12 34  1  0
 14 15  1  1
 14 16  1  0
 14 22  1  0
 16 21  1  0
 16 17  2  0
 17 18  1  0
 17 46  1  0
 18 19  2  0
 18 47  1  0
 19 20  1  0
 19 48  1  0
 20 21  2  0
 20 49  1  0
 21 50  1  0
 22 33  1  0
 22 23  2  0
 23 24  1  0
 23 51  1  0
 24 25  2  0
 24 52  1  0
 25 26  1  0
 25 53  1  0
 26 27  1  0
 26 33  2  0
 27 32  1  0
 27 28  1  0
 27 54  1  1
 28 29  1  0
 28 55  1  0
 28 56  1  0
 29 30  2  0
 29 57  1  0
 30 31  1  0
 30 58  1  0
 31 32  1  0
 31 59  1  0
 31 60  1  0
 32 61  1  0
 32 62  1  0
 33 63  1  0
 34 35  1  0
 34 64  1  0
 34 65  1  0
 35 66  1  0
 35 67  1  0
M  CHG  1  12   1
M  END
>  <DOCK_score>  (1) 
-60.322575

>  <SMILES>  (1) 
Cc1ccc(Cl)cc1N1CC[NH+]([C@@H](c2ccccc2)c2cccc(C3CC=CCC3)c2)CC1

$$$$
