Oc1ccccc1[C@H](Nc1[nH]cc(-c2cccnc2)[nH+]1)c1ccccc1
     RDKit          3D

 45 48  0  0  1  0  0  0  0  0999 V2000
  128.0889  136.8415  162.2852 O   0  0  0  0  0  0  0  0  0  0  0  0
  128.8141  137.6431  161.4616 C   0  0  0  0  0  0  0  0  0  0  0  0
  129.0946  138.9500  161.8339 C   0  0  0  0  0  0  0  0  0  0  0  0
  129.8315  139.7629  160.9949 C   0  0  0  0  0  0  0  0  0  0  0  0
  130.2890  139.2754  159.7843 C   0  0  0  0  0  0  0  0  0  0  0  0
  130.0157  137.9719  159.4136 C   0  0  0  0  0  0  0  0  0  0  0  0
  129.2746  137.1564  160.2470 C   0  0  0  0  0  0  0  0  0  0  0  0
  128.9722  135.7374  159.8397 C   0  0  2  0  0  0  0  0  0  0  0  0
  128.8879  135.1140  160.7299 H   0  0  0  0  0  0  0  0  0  0  0  0
  130.0536  135.2320  158.9904 N   0  0  0  0  0  0  0  0  0  0  0  0
  129.9965  133.9421  158.4912 C   0  0  0  0  0  0  0  0  0  0  0  0
  129.3900  132.8844  159.0957 N   0  0  0  0  0  0  0  0  0  0  0  0
  128.9242  132.8984  159.9463 H   0  0  0  0  0  0  0  0  0  0  0  0
  129.5594  131.7930  158.2787 C   0  0  0  0  0  0  0  0  0  0  0  0
  130.2641  132.2148  157.1997 C   0  0  0  0  0  0  0  0  0  0  0  0
  130.6833  131.3775  156.0491 C   0  0  0  0  0  0  0  0  0  0  0  0
  130.2520  131.6817  154.7547 C   0  0  0  0  0  0  0  0  0  0  0  0
  130.6761  130.8732  153.7144 C   0  0  0  0  0  0  0  0  0  0  0  0
  131.4957  129.7931  153.9880 C   0  0  0  0  0  0  0  0  0  0  0  0
  131.8821  129.5275  155.2207 N   0  0  0  0  0  0  0  0  0  0  0  0
  131.5088  130.2715  156.2419 C   0  0  0  0  0  0  0  0  0  0  0  0
  130.5177  133.5381  157.3585 N   0  0  0  0  0  0  0  0  0  0  0  0
  131.0036  134.0968  156.7319 H   0  0  0  0  0  0  0  0  0  0  0  0
  127.6740  135.7000  159.0753 C   0  0  0  0  0  0  0  0  0  0  0  0
  126.4811  135.5109  159.7477 C   0  0  0  0  0  0  0  0  0  0  0  0
  125.2899  135.4811  159.0470 C   0  0  0  0  0  0  0  0  0  0  0  0
  125.2924  135.6308  157.6727 C   0  0  0  0  0  0  0  0  0  0  0  0
  126.4858  135.8151  156.9998 C   0  0  0  0  0  0  0  0  0  0  0  0
  127.6766  135.8492  157.7010 C   0  0  0  0  0  0  0  0  0  0  0  0
  127.8130  137.2691  163.1074 H   0  0  0  0  0  0  0  0  0  0  0  0
  128.7369  139.3314  162.7789 H   0  0  0  0  0  0  0  0  0  0  0  0
  130.0500  140.7801  161.2842 H   0  0  0  0  0  0  0  0  0  0  0  0
  130.8643  139.9129  159.1293 H   0  0  0  0  0  0  0  0  0  0  0  0
  130.3780  137.5922  158.4698 H   0  0  0  0  0  0  0  0  0  0  0  0
  130.8098  135.8014  158.7779 H   0  0  0  0  0  0  0  0  0  0  0  0
  129.2004  130.7908  158.4610 H   0  0  0  0  0  0  0  0  0  0  0  0
  129.6082  132.5291  154.5703 H   0  0  0  0  0  0  0  0  0  0  0  0
  130.3666  131.0807  152.7008 H   0  0  0  0  0  0  0  0  0  0  0  0
  131.8247  129.1574  153.1793 H   0  0  0  0  0  0  0  0  0  0  0  0
  131.8458  130.0222  157.2372 H   0  0  0  0  0  0  0  0  0  0  0  0
  126.4795  135.3898  160.8210 H   0  0  0  0  0  0  0  0  0  0  0  0
  124.3576  135.3374  159.5728 H   0  0  0  0  0  0  0  0  0  0  0  0
  124.3621  135.6041  157.1250 H   0  0  0  0  0  0  0  0  0  0  0  0
  126.4878  135.9321  155.9262 H   0  0  0  0  0  0  0  0  0  0  0  0
  128.6090  135.9930  157.1753 H   0  0  0  0  0  0  0  0  0  0  0  0
  1  2  1  0
  1 30  1  0
  2  7  2  0
  2  3  1  0
  3  4  2  0
  3 31  1  0
  4  5  1  0
  4 32  1  0
  5  6  2  0
  5 33  1  0
  6  7  1  0
  6 34  1  0
  7  8  1  0
  8  9  1  1
  8 10  1  0
  8 24  1  0
 10 35  1  0
 11 10  1  0
 11 22  2  0
 11 12  1  0
 12 13  1  0
 12 14  1  0
 14 15  2  0
 14 36  1  0
 15 16  1  0
 15 22  1  0
 16 21  1  0
 16 17  2  0
 17 18  1  0
 17 37  1  0
 18 19  2  0
 18 38  1  0
 19 20  1  0
 19 39  1  0
 20 21  2  0
 21 40  1  0
 22 23  1  0
 24 29  1  0
 24 25  2  0
 25 26  1  0
 25 41  1  0
 26 27  2  0
 26 42  1  0
 27 28  1  0
 27 43  1  0
 28 29  2  0
 28 44  1  0
 29 45  1  0
M  CHG  1  22   1
M  END
>  <DOCK_score>  (1) 
-58.840061

>  <SMILES>  (1) 
Oc1ccccc1[C@H](Nc1[nH]cc(-c2cccnc2)[nH+]1)c1ccccc1

$$$$
