O=C1CC[C@H](NC(NC2CC=CC2)=[NH+]CCc2cc3cccnc3[nH]2)CN1
     RDKit          3D

 54 57  0  0  1  0  0  0  0  0999 V2000
  124.0918  133.7860  161.3487 O   0  0  0  0  0  0  0  0  0  0  0  0
  125.2889  133.9546  161.2525 C   0  0  0  0  0  0  0  0  0  0  0  0
  126.1018  132.8995  160.5589 C   0  0  0  0  0  0  0  0  0  0  0  0
  127.5815  133.0646  160.9142 C   0  0  0  0  0  0  0  0  0  0  0  0
  127.9663  134.5358  160.7173 C   0  0  2  0  0  0  0  0  0  0  0  0
  127.6746  134.8622  159.7189 H   0  0  0  0  0  0  0  0  0  0  0  0
  129.4136  134.6916  160.8819 N   0  0  0  0  0  0  0  0  0  0  0  0
  130.2464  134.5687  159.7949 C   0  0  0  0  0  0  0  0  0  0  0  0
  129.7209  134.2996  158.5533 N   0  0  0  0  0  0  0  0  0  0  0  0
  130.5060  133.5449  157.5735 C   0  0  0  0  0  0  0  0  0  0  0  0
  130.6910  132.0768  158.0224 C   0  0  0  0  0  0  0  0  0  0  0  0
  130.6077  131.2693  156.7480 C   0  0  0  0  0  0  0  0  0  0  0  0
  130.0783  131.9693  155.7820 C   0  0  0  0  0  0  0  0  0  0  0  0
  129.7203  133.3603  156.2509 C   0  0  0  0  0  0  0  0  0  0  0  0
  131.5341  134.7075  159.9414 N   0  0  0  0  0  0  0  0  0  0  0  0
  132.1216  134.6208  159.1744 H   0  0  0  0  0  0  0  0  0  0  0  0
  132.0941  134.9946  161.2643 C   0  0  0  0  0  0  0  0  0  0  0  0
  133.6162  135.1087  161.1600 C   0  0  0  0  0  0  0  0  0  0  0  0
  134.1923  135.4041  162.5208 C   0  0  0  0  0  0  0  0  0  0  0  0
  134.3874  136.6326  163.0252 C   0  0  0  0  0  0  0  0  0  0  0  0
  134.9603  136.4573  164.3608 C   0  0  0  0  0  0  0  0  0  0  0  0
  135.3763  137.3326  165.3671 C   0  0  0  0  0  0  0  0  0  0  0  0
  135.8819  136.7892  166.5327 C   0  0  0  0  0  0  0  0  0  0  0  0
  135.9603  135.4110  166.6636 C   0  0  0  0  0  0  0  0  0  0  0  0
  135.5636  134.6039  165.7030 N   0  0  0  0  0  0  0  0  0  0  0  0
  135.0694  135.0682  164.5628 C   0  0  0  0  0  0  0  0  0  0  0  0
  134.5887  134.4589  163.4286 N   0  0  0  0  0  0  0  0  0  0  0  0
  134.5402  133.5000  163.2905 H   0  0  0  0  0  0  0  0  0  0  0  0
  127.2372  135.3772  161.7655 C   0  0  0  0  0  0  0  0  0  0  0  0
  125.8130  135.0673  161.7678 N   0  0  0  0  0  0  0  0  0  0  0  0
  125.7614  131.9137  160.8756 H   0  0  0  0  0  0  0  0  0  0  0  0
  125.9755  132.9957  159.4806 H   0  0  0  0  0  0  0  0  0  0  0  0
  128.1879  132.4362  160.2620 H   0  0  0  0  0  0  0  0  0  0  0  0
  127.7430  132.7790  161.9536 H   0  0  0  0  0  0  0  0  0  0  0  0
  129.7845  134.8813  161.7579 H   0  0  0  0  0  0  0  0  0  0  0  0
  128.8302  134.6095  158.3260 H   0  0  0  0  0  0  0  0  0  0  0  0
  131.4689  134.0234  157.3938 H   0  0  0  0  0  0  0  0  0  0  0  0
  129.8956  131.7864  158.7087 H   0  0  0  0  0  0  0  0  0  0  0  0
  131.6651  131.9436  158.4933 H   0  0  0  0  0  0  0  0  0  0  0  0
  130.9418  130.2469  156.6496 H   0  0  0  0  0  0  0  0  0  0  0  0
  129.9169  131.6022  154.7791 H   0  0  0  0  0  0  0  0  0  0  0  0
  130.0351  134.1014  155.5160 H   0  0  0  0  0  0  0  0  0  0  0  0
  128.6480  133.4364  156.4304 H   0  0  0  0  0  0  0  0  0  0  0  0
  131.6839  135.9334  161.6366 H   0  0  0  0  0  0  0  0  0  0  0  0
  131.8364  134.1880  161.9507 H   0  0  0  0  0  0  0  0  0  0  0  0
  134.0264  134.1698  160.7879 H   0  0  0  0  0  0  0  0  0  0  0  0
  133.8740  135.9152  160.4734 H   0  0  0  0  0  0  0  0  0  0  0  0
  134.1644  137.5706  162.5388 H   0  0  0  0  0  0  0  0  0  0  0  0
  135.3036  138.4025  165.2381 H   0  0  0  0  0  0  0  0  0  0  0  0
  136.2139  137.4322  167.3344 H   0  0  0  0  0  0  0  0  0  0  0  0
  136.3561  134.9898  167.5759 H   0  0  0  0  0  0  0  0  0  0  0  0
  127.6535  135.1657  162.7504 H   0  0  0  0  0  0  0  0  0  0  0  0
  127.3756  136.4343  161.5388 H   0  0  0  0  0  0  0  0  0  0  0  0
  125.2085  135.7108  162.1697 H   0  0  0  0  0  0  0  0  0  0  0  0
  1  2  2  0
  2 30  1  0
  2  3  1  0
  3  4  1  0
  3 31  1  0
  3 32  1  0
  4  5  1  0
  4 33  1  0
  4 34  1  0
  5  6  1  6
  5  7  1  0
  5 29  1  0
  7 35  1  0
  8  7  1  0
  8  9  1  0
  8 15  2  0
  9 10  1  0
  9 36  1  0
 10 14  1  0
 10 11  1  0
 10 37  1  0
 11 12  1  0
 11 38  1  0
 11 39  1  0
 12 13  2  0
 12 40  1  0
 13 14  1  0
 13 41  1  0
 14 42  1  0
 14 43  1  0
 15 16  1  0
 15 17  1  0
 17 18  1  0
 17 44  1  0
 17 45  1  0
 18 19  1  0
 18 46  1  0
 18 47  1  0
 19 27  1  0
 19 20  2  0
 20 21  1  0
 20 48  1  0
 21 26  2  0
 21 22  1  0
 22 23  2  0
 22 49  1  0
 23 24  1  0
 23 50  1  0
 24 25  2  0
 24 51  1  0
 25 26  1  0
 26 27  1  0
 27 28  1  0
 29 30  1  0
 29 52  1  0
 29 53  1  0
 30 54  1  0
M  CHG  1  15   1
M  END
>  <DOCK_score>  (1) 
-41.566498

>  <SMILES>  (1) 
O=C1CC[C@H](NC(NC2CC=CC2)=[NH+]CCc2cc3cccnc3[nH]2)CN1

$$$$
