Cc1ccc(C(O)c2cccc([C@H](c3ccccc3)[NH+]3CC=CC(Cl)C3)c2)cn1
     RDKit          3D

 55 58  0  0  1  0  0  0  0  0999 V2000
  129.7646  128.2016  150.8676 C   0  0  0  0  0  0  0  0  0  0  0  0
  130.1432  129.3064  151.8200 C   0  0  0  0  0  0  0  0  0  0  0  0
  131.4597  129.7206  151.8970 C   0  0  0  0  0  0  0  0  0  0  0  0
  131.7975  130.7379  152.7760 C   0  0  0  0  0  0  0  0  0  0  0  0
  130.7939  131.3031  153.5482 C   0  0  0  0  0  0  0  0  0  0  0  0
  131.1107  132.4119  154.5185 C   0  0  1  0  0  0  0  0  0  0  0  0
  130.3631  133.5786  154.1692 O   0  0  0  0  0  0  0  0  0  0  0  0
  130.7426  131.9787  155.9141 C   0  0  0  0  0  0  0  0  0  0  0  0
  130.8031  130.6419  156.2616 C   0  0  0  0  0  0  0  0  0  0  0  0
  130.4650  130.2444  157.5414 C   0  0  0  0  0  0  0  0  0  0  0  0
  130.0662  131.1837  158.4742 C   0  0  0  0  0  0  0  0  0  0  0  0
  130.0066  132.5202  158.1272 C   0  0  0  0  0  0  0  0  0  0  0  0
  129.5720  133.5441  159.1440 C   0  0  2  0  0  0  0  0  0  0  0  0
  129.3473  133.0465  160.0875 H   0  0  0  0  0  0  0  0  0  0  0  0
  128.3405  134.2557  158.6457 C   0  0  0  0  0  0  0  0  0  0  0  0
  127.0860  133.7577  158.9445 C   0  0  0  0  0  0  0  0  0  0  0  0
  125.9564  134.4130  158.4911 C   0  0  0  0  0  0  0  0  0  0  0  0
  126.0815  135.5611  157.7314 C   0  0  0  0  0  0  0  0  0  0  0  0
  127.3360  136.0561  157.4283 C   0  0  0  0  0  0  0  0  0  0  0  0
  128.4656  135.4032  157.8853 C   0  0  0  0  0  0  0  0  0  0  0  0
  130.6514  134.5190  159.3496 N   0  0  2  0  0  0  0  0  0  0  0  0
  130.8605  134.9805  158.4770 H   0  0  0  0  0  0  0  0  0  0  0  0
  131.8503  133.8287  159.8398 C   0  0  0  0  0  0  0  0  0  0  0  0
  132.9022  134.8233  160.2369 C   0  0  0  0  0  0  0  0  0  0  0  0
  132.6444  136.0742  160.4742 C   0  0  0  0  0  0  0  0  0  0  0  0
  131.2596  136.6500  160.3655 C   0  0  2  0  0  0  0  0  0  0  0  0
  130.9434  137.7244  161.7785 Cl  0  0  0  0  0  0  0  0  0  0  0  0
  130.2321  135.5152  160.3483 C   0  0  0  0  0  0  0  0  0  0  0  0
  130.3402  132.9172  156.8456 C   0  0  0  0  0  0  0  0  0  0  0  0
  129.5007  130.8331  153.4210 C   0  0  0  0  0  0  0  0  0  0  0  0
  129.2149  129.8670  152.5699 N   0  0  0  0  0  0  0  0  0  0  0  0
  129.8489  127.2403  151.3743 H   0  0  0  0  0  0  0  0  0  0  0  0
  128.7375  128.3469  150.5325 H   0  0  0  0  0  0  0  0  0  0  0  0
  130.4332  128.2186  150.0070 H   0  0  0  0  0  0  0  0  0  0  0  0
  132.2156  129.2577  151.2798 H   0  0  0  0  0  0  0  0  0  0  0  0
  132.8180  131.0818  152.8578 H   0  0  0  0  0  0  0  0  0  0  0  0
  132.1764  132.6374  154.4772 H   0  0  0  0  0  0  0  0  0  0  0  0
  130.5176  134.3341  154.7526 H   0  0  0  0  0  0  0  0  0  0  0  0
  131.1143  129.9080  155.5327 H   0  0  0  0  0  0  0  0  0  0  0  0
  130.5119  129.2001  157.8127 H   0  0  0  0  0  0  0  0  0  0  0  0
  129.8016  130.8731  159.4742 H   0  0  0  0  0  0  0  0  0  0  0  0
  126.9885  132.8588  159.5349 H   0  0  0  0  0  0  0  0  0  0  0  0
  124.9762  134.0265  158.7282 H   0  0  0  0  0  0  0  0  0  0  0  0
  125.1989  136.0715  157.3750 H   0  0  0  0  0  0  0  0  0  0  0  0
  127.4338  136.9530  156.8348 H   0  0  0  0  0  0  0  0  0  0  0  0
  129.4458  135.7900  157.6485 H   0  0  0  0  0  0  0  0  0  0  0  0
  131.5868  133.2184  160.7035 H   0  0  0  0  0  0  0  0  0  0  0  0
  132.2442  133.1870  159.0516 H   0  0  0  0  0  0  0  0  0  0  0  0
  133.9227  134.4823  160.3302 H   0  0  0  0  0  0  0  0  0  0  0  0
  133.4565  136.7262  160.7603 H   0  0  0  0  0  0  0  0  0  0  0  0
  131.1778  137.2276  159.4447 H   0  0  0  0  0  0  0  0  0  0  0  0
  129.2528  135.9121  160.0807 H   0  0  0  0  0  0  0  0  0  0  0  0
  130.1846  135.0493  161.3325 H   0  0  0  0  0  0  0  0  0  0  0  0
  130.2893  133.9610  156.5732 H   0  0  0  0  0  0  0  0  0  0  0  0
  128.7143  131.2647  154.0224 H   0  0  0  0  0  0  0  0  0  0  0  0
  1  2  1  0
  1 32  1  0
  1 33  1  0
  1 34  1  0
  2 31  2  0
  2  3  1  0
  3  4  2  0
  3 35  1  0
  4  5  1  0
  4 36  1  0
  5  6  1  0
  5 30  2  0
  6  7  1  0
  6  8  1  0
  6 37  1  1
  7 38  1  0
  8 29  1  0
  8  9  2  0
  9 10  1  0
  9 39  1  0
 10 11  2  0
 10 40  1  0
 11 12  1  0
 11 41  1  0
 12 13  1  0
 12 29  2  0
 13 14  1  1
 13 15  1  0
 13 21  1  0
 15 20  1  0
 15 16  2  0
 16 17  1  0
 16 42  1  0
 17 18  2  0
 17 43  1  0
 18 19  1  0
 18 44  1  0
 19 20  2  0
 19 45  1  0
 20 46  1  0
 21 22  1  6
 21 28  1  0
 21 23  1  0
 23 24  1  0
 23 47  1  0
 23 48  1  0
 24 25  2  0
 24 49  1  0
 25 26  1  0
 25 50  1  0
 26 27  1  0
 26 28  1  0
 26 51  1  6
 28 52  1  0
 28 53  1  0
 29 54  1  0
 30 31  1  0
 30 55  1  0
M  CHG  1  21   1
M  END
>  <DOCK_score>  (1) 
-57.014927

>  <SMILES>  (1) 
Cc1ccc(C(O)c2cccc([C@H](c3ccccc3)[NH+]3CC=CC(Cl)C3)c2)cn1

$$$$
