c1ccc(C[NH2+][C@H](Cc2ccccc2)Cc2cccnc2)cc1
     RDKit          3D

 46 48  0  0  1  0  0  0  0  0999 V2000
  134.5708  139.9173  160.7807 C   0  0  0  0  0  0  0  0  0  0  0  0
  134.8109  139.0914  159.6985 C   0  0  0  0  0  0  0  0  0  0  0  0
  134.2641  137.8223  159.6629 C   0  0  0  0  0  0  0  0  0  0  0  0
  133.4772  137.3791  160.7095 C   0  0  0  0  0  0  0  0  0  0  0  0
  132.8810  135.9957  160.6705 C   0  0  0  0  0  0  0  0  0  0  0  0
  131.5652  136.0477  160.0194 N   0  0  0  0  0  0  0  0  0  0  0  0
  131.6693  136.3956  159.0780 H   0  0  0  0  0  0  0  0  0  0  0  0
  130.9565  136.6617  160.5396 H   0  0  0  0  0  0  0  0  0  0  0  0
  130.9839  134.6992  159.9815 C   0  0  2  0  0  0  0  0  0  0  0  0
  131.1921  134.1872  160.9210 H   0  0  0  0  0  0  0  0  0  0  0  0
  131.5994  133.9107  158.8238 C   0  0  0  0  0  0  0  0  0  0  0  0
  131.0031  132.5273  158.7849 C   0  0  0  0  0  0  0  0  0  0  0  0
  131.5977  131.4981  159.4906 C   0  0  0  0  0  0  0  0  0  0  0  0
  131.0479  130.2302  159.4587 C   0  0  0  0  0  0  0  0  0  0  0  0
  129.9092  129.9893  158.7130 C   0  0  0  0  0  0  0  0  0  0  0  0
  129.3174  131.0173  158.0032 C   0  0  0  0  0  0  0  0  0  0  0  0
  129.8643  132.2863  158.0392 C   0  0  0  0  0  0  0  0  0  0  0  0
  129.4705  134.8016  159.7810 C   0  0  0  0  0  0  0  0  0  0  0  0
  128.8641  135.5780  160.9213 C   0  0  0  0  0  0  0  0  0  0  0  0
  129.4457  135.5468  162.1797 C   0  0  0  0  0  0  0  0  0  0  0  0
  128.8529  136.2762  163.1989 C   0  0  0  0  0  0  0  0  0  0  0  0
  127.7071  137.0008  162.9299 C   0  0  0  0  0  0  0  0  0  0  0  0
  127.1847  137.0119  161.7194 N   0  0  0  0  0  0  0  0  0  0  0  0
  127.7211  136.3297  160.7263 C   0  0  0  0  0  0  0  0  0  0  0  0
  133.2329  138.2069  161.7893 C   0  0  0  0  0  0  0  0  0  0  0  0
  133.7839  139.4741  161.8273 C   0  0  0  0  0  0  0  0  0  0  0  0
  134.9977  140.9090  160.8083 H   0  0  0  0  0  0  0  0  0  0  0  0
  135.4253  139.4379  158.8807 H   0  0  0  0  0  0  0  0  0  0  0  0
  134.4514  137.1771  158.8172 H   0  0  0  0  0  0  0  0  0  0  0  0
  132.7685  135.6198  161.6875 H   0  0  0  0  0  0  0  0  0  0  0  0
  133.5384  135.3324  160.1085 H   0  0  0  0  0  0  0  0  0  0  0  0
  131.3914  134.4226  157.8843 H   0  0  0  0  0  0  0  0  0  0  0  0
  132.6776  133.8376  158.9668 H   0  0  0  0  0  0  0  0  0  0  0  0
  132.4900  131.6854  160.0696 H   0  0  0  0  0  0  0  0  0  0  0  0
  131.5104  129.4269  160.0130 H   0  0  0  0  0  0  0  0  0  0  0  0
  129.4820  128.9977  158.6847 H   0  0  0  0  0  0  0  0  0  0  0  0
  128.4280  130.8289  157.4203 H   0  0  0  0  0  0  0  0  0  0  0  0
  129.4022  133.0895  157.4843 H   0  0  0  0  0  0  0  0  0  0  0  0
  129.0392  133.8009  159.7528 H   0  0  0  0  0  0  0  0  0  0  0  0
  129.2623  135.3135  158.8416 H   0  0  0  0  0  0  0  0  0  0  0  0
  130.3394  134.9683  162.3616 H   0  0  0  0  0  0  0  0  0  0  0  0
  129.2787  136.2745  164.1915 H   0  0  0  0  0  0  0  0  0  0  0  0
  127.2369  137.5684  163.7193 H   0  0  0  0  0  0  0  0  0  0  0  0
  127.2621  136.3593  159.7491 H   0  0  0  0  0  0  0  0  0  0  0  0
  132.6145  137.8622  162.6049 H   0  0  0  0  0  0  0  0  0  0  0  0
  133.5961  140.1195  162.6726 H   0  0  0  0  0  0  0  0  0  0  0  0
  1 26  2  0
  1  2  1  0
  1 27  1  0
  2  3  2  0
  2 28  1  0
  3  4  1  0
  3 29  1  0
  4  5  1  0
  4 25  2  0
  5  6  1  0
  5 30  1  0
  5 31  1  0
  6  7  1  0
  6  8  1  0
  6  9  1  0
  9 10  1  1
  9 11  1  0
  9 18  1  0
 11 12  1  0
 11 32  1  0
 11 33  1  0
 12 17  1  0
 12 13  2  0
 13 14  1  0
 13 34  1  0
 14 15  2  0
 14 35  1  0
 15 16  1  0
 15 36  1  0
 16 17  2  0
 16 37  1  0
 17 38  1  0
 18 19  1  0
 18 39  1  0
 18 40  1  0
 19 24  1  0
 19 20  2  0
 20 21  1  0
 20 41  1  0
 21 22  2  0
 21 42  1  0
 22 23  1  0
 22 43  1  0
 23 24  2  0
 24 44  1  0
 25 26  1  0
 25 45  1  0
 26 46  1  0
M  CHG  1   6   1
M  END
>  <DOCK_score>  (1) 
-41.665394

>  <SMILES>  (1) 
c1ccc(C[NH2+][C@H](Cc2ccccc2)Cc2cccnc2)cc1

$$$$
