Cc1ccccc1C[NH+]=C(NCc1ccccc1)N[C@H]1C[C@@H](O)C1
     RDKit          3D

 50 52  0  0  1  0  0  0  0  0999 V2000
  129.7654  139.3524  160.3171 C   0  0  0  0  0  0  0  0  0  0  0  0
  131.1262  138.9335  160.8107 C   0  0  0  0  0  0  0  0  0  0  0  0
  132.1664  139.8443  160.8266 C   0  0  0  0  0  0  0  0  0  0  0  0
  133.4144  139.4602  161.2798 C   0  0  0  0  0  0  0  0  0  0  0  0
  133.6227  138.1652  161.7167 C   0  0  0  0  0  0  0  0  0  0  0  0
  132.5815  137.2563  161.7061 C   0  0  0  0  0  0  0  0  0  0  0  0
  131.3345  137.6391  161.2479 C   0  0  0  0  0  0  0  0  0  0  0  0
  130.2006  136.6464  161.2310 C   0  0  0  0  0  0  0  0  0  0  0  0
  130.1824  135.9479  159.9434 N   0  0  0  0  0  0  0  0  0  0  0  0
  130.8429  136.1618  159.2661 H   0  0  0  0  0  0  0  0  0  0  0  0
  129.2784  135.0388  159.7079 C   0  0  0  0  0  0  0  0  0  0  0  0
  129.2613  134.3832  158.4995 N   0  0  0  0  0  0  0  0  0  0  0  0
  130.5099  134.1714  157.7633 C   0  0  0  0  0  0  0  0  0  0  0  0
  130.7383  132.6937  157.5760 C   0  0  0  0  0  0  0  0  0  0  0  0
  131.4509  131.9792  158.5210 C   0  0  0  0  0  0  0  0  0  0  0  0
  131.6571  130.6230  158.3513 C   0  0  0  0  0  0  0  0  0  0  0  0
  131.1576  129.9826  157.2325 C   0  0  0  0  0  0  0  0  0  0  0  0
  130.4496  130.6980  156.2851 C   0  0  0  0  0  0  0  0  0  0  0  0
  130.2402  132.0536  156.4567 C   0  0  0  0  0  0  0  0  0  0  0  0
  128.3423  134.7354  160.6678 N   0  0  0  0  0  0  0  0  0  0  0  0
  127.3263  133.7137  160.4032 C   0  0  1  0  0  0  0  0  0  0  0  0
  127.6740  132.9376  159.7213 H   0  0  0  0  0  0  0  0  0  0  0  0
  126.6606  133.1629  161.6753 C   0  0  0  0  0  0  0  0  0  0  0  0
  125.6312  134.2998  161.5310 C   0  0  1  0  0  0  0  0  0  0  0  0
  124.6099  133.9960  161.7605 H   0  0  0  0  0  0  0  0  0  0  0  0
  126.0129  135.5074  162.1930 O   0  0  0  0  0  0  0  0  0  0  0  0
  125.9526  134.2937  160.0272 C   0  0  0  0  0  0  0  0  0  0  0  0
  129.1776  139.7338  161.1521 H   0  0  0  0  0  0  0  0  0  0  0  0
  129.8764  140.1330  159.5643 H   0  0  0  0  0  0  0  0  0  0  0  0
  129.2580  138.4936  159.8778 H   0  0  0  0  0  0  0  0  0  0  0  0
  132.0036  140.8559  160.4853 H   0  0  0  0  0  0  0  0  0  0  0  0
  134.2268  140.1716  161.2922 H   0  0  0  0  0  0  0  0  0  0  0  0
  134.5980  137.8650  162.0704 H   0  0  0  0  0  0  0  0  0  0  0  0
  132.7431  136.2460  162.0519 H   0  0  0  0  0  0  0  0  0  0  0  0
  130.3386  135.9234  162.0347 H   0  0  0  0  0  0  0  0  0  0  0  0
  129.2560  137.1715  161.3728 H   0  0  0  0  0  0  0  0  0  0  0  0
  128.4224  134.0607  158.1346 H   0  0  0  0  0  0  0  0  0  0  0  0
  130.4436  134.6551  156.7887 H   0  0  0  0  0  0  0  0  0  0  0  0
  131.3402  134.5990  158.3254 H   0  0  0  0  0  0  0  0  0  0  0  0
  131.8439  132.4801  159.3933 H   0  0  0  0  0  0  0  0  0  0  0  0
  132.2105  130.0640  159.0912 H   0  0  0  0  0  0  0  0  0  0  0  0
  131.3209  128.9235  157.0985 H   0  0  0  0  0  0  0  0  0  0  0  0
  130.0598  130.1978  155.4109 H   0  0  0  0  0  0  0  0  0  0  0  0
  129.6870  132.6125  155.7165 H   0  0  0  0  0  0  0  0  0  0  0  0
  128.3544  135.1979  161.5204 H   0  0  0  0  0  0  0  0  0  0  0  0
  126.2331  132.1682  161.5488 H   0  0  0  0  0  0  0  0  0  0  0  0
  127.2839  133.2467  162.5656 H   0  0  0  0  0  0  0  0  0  0  0  0
  125.5818  136.2999  161.8448 H   0  0  0  0  0  0  0  0  0  0  0  0
  126.0047  135.2898  159.5878 H   0  0  0  0  0  0  0  0  0  0  0  0
  125.3324  133.6082  159.4496 H   0  0  0  0  0  0  0  0  0  0  0  0
  1  2  1  0
  1 28  1  0
  1 29  1  0
  1 30  1  0
  2  7  2  0
  2  3  1  0
  3  4  2  0
  3 31  1  0
  4  5  1  0
  4 32  1  0
  5  6  2  0
  5 33  1  0
  6  7  1  0
  6 34  1  0
  7  8  1  0
  8  9  1  0
  8 35  1  0
  8 36  1  0
  9 10  1  0
 11  9  2  0
 11 12  1  0
 11 20  1  0
 12 13  1  0
 12 37  1  0
 13 14  1  0
 13 38  1  0
 13 39  1  0
 14 19  1  0
 14 15  2  0
 15 16  1  0
 15 40  1  0
 16 17  2  0
 16 41  1  0
 17 18  1  0
 17 42  1  0
 18 19  2  0
 18 43  1  0
 19 44  1  0
 20 21  1  0
 20 45  1  0
 21 22  1  6
 21 27  1  0
 21 23  1  0
 23 24  1  0
 23 46  1  0
 23 47  1  0
 24 25  1  6
 24 26  1  0
 24 27  1  0
 26 48  1  0
 27 49  1  0
 27 50  1  0
M  CHG  1   9   1
M  END
>  <DOCK_score>  (1) 
-43.114986

>  <SMILES>  (1) 
Cc1ccccc1C[NH+]=C(NCc1ccccc1)N[C@H]1C[C@@H](O)C1

$$$$
