CNc1ccc(SC2=CCC2)c(Nc2[nH]cc(-c3ccncc3)[nH+]2)c1
     RDKit          3D

 45 48  0  0  1  0  0  0  0  0999 V2000
  125.3063  134.5052  159.7503 C   0  0  0  0  0  0  0  0  0  0  0  0
  125.7225  135.5274  160.7139 N   0  0  0  0  0  0  0  0  0  0  0  0
  127.0267  136.0334  160.6778 C   0  0  0  0  0  0  0  0  0  0  0  0
  127.4204  137.0025  161.5916 C   0  0  0  0  0  0  0  0  0  0  0  0
  128.7091  137.5008  161.5622 C   0  0  0  0  0  0  0  0  0  0  0  0
  129.6098  137.0426  160.6120 C   0  0  0  0  0  0  0  0  0  0  0  0
  131.2505  137.6840  160.5707 S   0  0  0  0  0  0  0  0  0  0  0  0
  132.2428  136.2509  160.8279 C   0  0  0  0  0  0  0  0  0  0  0  0
  133.4539  135.8703  160.4577 C   0  0  0  0  0  0  0  0  0  0  0  0
  133.4689  134.5165  161.1256 C   0  0  0  0  0  0  0  0  0  0  0  0
  132.0658  134.9458  161.5615 C   0  0  0  0  0  0  0  0  0  0  0  0
  129.2173  136.0693  159.6927 C   0  0  0  0  0  0  0  0  0  0  0  0
  130.1258  135.6013  158.7360 N   0  0  0  0  0  0  0  0  0  0  0  0
  130.0249  134.3041  158.2618 C   0  0  0  0  0  0  0  0  0  0  0  0
  129.5390  133.2402  158.9590 N   0  0  0  0  0  0  0  0  0  0  0  0
  129.2045  133.2545  159.8694 H   0  0  0  0  0  0  0  0  0  0  0  0
  129.6101  132.1443  158.1371 C   0  0  0  0  0  0  0  0  0  0  0  0
  130.1373  132.5676  156.9603 C   0  0  0  0  0  0  0  0  0  0  0  0
  130.3999  131.7258  155.7690 C   0  0  0  0  0  0  0  0  0  0  0  0
  129.7783  131.9979  154.5460 C   0  0  0  0  0  0  0  0  0  0  0  0
  130.0554  131.1927  153.4613 C   0  0  0  0  0  0  0  0  0  0  0  0
  130.8847  130.1717  153.5696 N   0  0  0  0  0  0  0  0  0  0  0  0
  131.4874  129.8774  154.7061 C   0  0  0  0  0  0  0  0  0  0  0  0
  131.2714  130.6342  155.8385 C   0  0  0  0  0  0  0  0  0  0  0  0
  130.3762  133.8991  157.0658 N   0  0  0  0  0  0  0  0  0  0  0  0
  130.7493  134.4608  156.3685 H   0  0  0  0  0  0  0  0  0  0  0  0
  127.9255  135.5670  159.7282 C   0  0  0  0  0  0  0  0  0  0  0  0
  125.4089  134.8968  158.7383 H   0  0  0  0  0  0  0  0  0  0  0  0
  125.9348  133.6219  159.8636 H   0  0  0  0  0  0  0  0  0  0  0  0
  124.2657  134.2366  159.9324 H   0  0  0  0  0  0  0  0  0  0  0  0
  125.0940  135.8534  161.3769 H   0  0  0  0  0  0  0  0  0  0  0  0
  126.7196  137.3636  162.3298 H   0  0  0  0  0  0  0  0  0  0  0  0
  129.0138  138.2509  162.2769 H   0  0  0  0  0  0  0  0  0  0  0  0
  134.2011  136.3726  159.8613 H   0  0  0  0  0  0  0  0  0  0  0  0
  134.1854  134.4246  161.9417 H   0  0  0  0  0  0  0  0  0  0  0  0
  133.4877  133.6736  160.4348 H   0  0  0  0  0  0  0  0  0  0  0  0
  131.9708  135.0694  162.6402 H   0  0  0  0  0  0  0  0  0  0  0  0
  131.2768  134.3215  161.1419 H   0  0  0  0  0  0  0  0  0  0  0  0
  130.8259  136.1855  158.4053 H   0  0  0  0  0  0  0  0  0  0  0  0
  129.3054  131.1371  158.3801 H   0  0  0  0  0  0  0  0  0  0  0  0
  129.0951  132.8289  154.4513 H   0  0  0  0  0  0  0  0  0  0  0  0
  129.5837  131.3974  152.5115 H   0  0  0  0  0  0  0  0  0  0  0  0
  132.1589  129.0327  154.7498 H   0  0  0  0  0  0  0  0  0  0  0  0
  131.7683  130.3877  156.7653 H   0  0  0  0  0  0  0  0  0  0  0  0
  127.6188  134.8139  159.0175 H   0  0  0  0  0  0  0  0  0  0  0  0
  1  2  1  0
  1 28  1  0
  1 29  1  0
  1 30  1  0
  2  3  1  0
  2 31  1  0
  3 27  2  0
  3  4  1  0
  4  5  2  0
  4 32  1  0
  5  6  1  0
  5 33  1  0
  6  7  1  0
  6 12  2  0
  7  8  1  0
  8 11  1  0
  8  9  2  0
  9 10  1  0
  9 34  1  0
 10 11  1  0
 10 35  1  0
 10 36  1  0
 11 37  1  0
 11 38  1  0
 12 13  1  0
 12 27  1  0
 13 39  1  0
 14 13  1  0
 14 25  2  0
 14 15  1  0
 15 16  1  0
 15 17  1  0
 17 18  2  0
 17 40  1  0
 18 19  1  0
 18 25  1  0
 19 24  1  0
 19 20  2  0
 20 21  1  0
 20 41  1  0
 21 22  2  0
 21 42  1  0
 22 23  1  0
 23 24  2  0
 23 43  1  0
 24 44  1  0
 25 26  1  0
 27 45  1  0
M  CHG  1  25   1
M  END
>  <DOCK_score>  (1) 
-51.560966

>  <SMILES>  (1) 
CNc1ccc(SC2=CCC2)c(Nc2[nH]cc(-c3ccncc3)[nH+]2)c1

$$$$
