CCc1ccc(-c2c[nH]c(N[C@@H](CCc3ccc(C)cc3)Cc3cccc4ccccc34)[nH+]2)cc1
     RDKit          3D

 69 73  0  0  1  0  0  0  0  0999 V2000
  130.2636  129.1830  151.2403 C   0  0  0  0  0  0  0  0  0  0  0  0
  131.5428  129.5434  151.9986 C   0  0  0  0  0  0  0  0  0  0  0  0
  131.1891  130.3255  153.2372 C   0  0  0  0  0  0  0  0  0  0  0  0
  130.9464  129.6609  154.4258 C   0  0  0  0  0  0  0  0  0  0  0  0
  130.6276  130.3725  155.5646 C   0  0  0  0  0  0  0  0  0  0  0  0
  130.5393  131.7624  155.5126 C   0  0  0  0  0  0  0  0  0  0  0  0
  130.1917  132.5325  156.7319 C   0  0  0  0  0  0  0  0  0  0  0  0
  129.4182  132.0971  157.7572 C   0  0  0  0  0  0  0  0  0  0  0  0
  129.3557  133.1204  158.6716 N   0  0  0  0  0  0  0  0  0  0  0  0
  128.8743  133.1097  159.5136 H   0  0  0  0  0  0  0  0  0  0  0  0
  130.0935  134.1519  158.1780 C   0  0  0  0  0  0  0  0  0  0  0  0
  130.2861  135.3746  158.7979 N   0  0  0  0  0  0  0  0  0  0  0  0
  129.6683  135.6415  160.0992 C   0  0  1  0  0  0  0  0  0  0  0  0
  129.7332  134.7494  160.7219 H   0  0  0  0  0  0  0  0  0  0  0  0
  130.4015  136.7965  160.7844 C   0  0  0  0  0  0  0  0  0  0  0  0
  131.8709  136.4203  160.9850 C   0  0  0  0  0  0  0  0  0  0  0  0
  132.5930  137.5578  161.6600 C   0  0  0  0  0  0  0  0  0  0  0  0
  132.6588  137.6131  163.0396 C   0  0  0  0  0  0  0  0  0  0  0  0
  133.3249  138.6543  163.6587 C   0  0  0  0  0  0  0  0  0  0  0  0
  133.9170  139.6453  162.8982 C   0  0  0  0  0  0  0  0  0  0  0  0
  134.6391  140.7828  163.5731 C   0  0  0  0  0  0  0  0  0  0  0  0
  133.8472  139.5924  161.5186 C   0  0  0  0  0  0  0  0  0  0  0  0
  133.1848  138.5490  160.8995 C   0  0  0  0  0  0  0  0  0  0  0  0
  128.1989  136.0178  159.8985 C   0  0  0  0  0  0  0  0  0  0  0  0
  127.4477  135.8151  161.1890 C   0  0  0  0  0  0  0  0  0  0  0  0
  126.8610  134.6165  161.4581 C   0  0  0  0  0  0  0  0  0  0  0  0
  126.1683  134.4082  162.6491 C   0  0  0  0  0  0  0  0  0  0  0  0
  126.0470  135.4014  163.5721 C   0  0  0  0  0  0  0  0  0  0  0  0
  126.6338  136.6541  163.3266 C   0  0  0  0  0  0  0  0  0  0  0  0
  126.5300  137.7034  164.2561 C   0  0  0  0  0  0  0  0  0  0  0  0
  127.1108  138.9036  163.9840 C   0  0  0  0  0  0  0  0  0  0  0  0
  127.8089  139.1100  162.7954 C   0  0  0  0  0  0  0  0  0  0  0  0
  127.9306  138.1173  161.8726 C   0  0  0  0  0  0  0  0  0  0  0  0
  127.3443  136.8639  162.1183 C   0  0  0  0  0  0  0  0  0  0  0  0
  130.5962  133.7947  157.0214 N   0  0  0  0  0  0  0  0  0  0  0  0
  131.1646  134.3457  156.4609 H   0  0  0  0  0  0  0  0  0  0  0  0
  130.7793  132.4263  154.3108 C   0  0  0  0  0  0  0  0  0  0  0  0
  131.1028  131.7049  153.1797 C   0  0  0  0  0  0  0  0  0  0  0  0
  129.7401  130.0957  150.9564 H   0  0  0  0  0  0  0  0  0  0  0  0
  130.5195  128.6171  150.3446 H   0  0  0  0  0  0  0  0  0  0  0  0
  129.6200  128.5790  151.8801 H   0  0  0  0  0  0  0  0  0  0  0  0
  132.0663  128.6304  152.2825 H   0  0  0  0  0  0  0  0  0  0  0  0
  132.1864  130.1472  151.3589 H   0  0  0  0  0  0  0  0  0  0  0  0
  131.0105  128.5835  154.4638 H   0  0  0  0  0  0  0  0  0  0  0  0
  130.4429  129.8530  156.4933 H   0  0  0  0  0  0  0  0  0  0  0  0
  128.9422  131.1312  157.8390 H   0  0  0  0  0  0  0  0  0  0  0  0
  130.8303  136.0546  158.3707 H   0  0  0  0  0  0  0  0  0  0  0  0
  130.3365  137.6886  160.1617 H   0  0  0  0  0  0  0  0  0  0  0  0
  129.9419  136.9950  161.7528 H   0  0  0  0  0  0  0  0  0  0  0  0
  131.9359  135.5281  161.6078 H   0  0  0  0  0  0  0  0  0  0  0  0
  132.3305  136.2217  160.0167 H   0  0  0  0  0  0  0  0  0  0  0  0
  132.1925  136.8411  163.6339 H   0  0  0  0  0  0  0  0  0  0  0  0
  133.3797  138.6953  164.7365 H   0  0  0  0  0  0  0  0  0  0  0  0
  133.9396  141.5977  163.7595 H   0  0  0  0  0  0  0  0  0  0  0  0
  135.0558  140.4382  164.5196 H   0  0  0  0  0  0  0  0  0  0  0  0
  135.4443  141.1354  162.9286 H   0  0  0  0  0  0  0  0  0  0  0  0
  134.3097  140.3667  160.9245 H   0  0  0  0  0  0  0  0  0  0  0  0
  133.1299  138.5079  159.8217 H   0  0  0  0  0  0  0  0  0  0  0  0
  128.1294  137.0632  159.5979 H   0  0  0  0  0  0  0  0  0  0  0  0
  127.7651  135.3870  159.1225 H   0  0  0  0  0  0  0  0  0  0  0  0
  126.9383  133.8133  160.7403 H   0  0  0  0  0  0  0  0  0  0  0  0
  125.7162  133.4462  162.8401 H   0  0  0  0  0  0  0  0  0  0  0  0
  125.5023  135.2272  164.4884 H   0  0  0  0  0  0  0  0  0  0  0  0
  125.9923  137.5577  165.1813 H   0  0  0  0  0  0  0  0  0  0  0  0
  127.0291  139.7084  164.6995 H   0  0  0  0  0  0  0  0  0  0  0  0
  128.2606  140.0723  162.6041 H   0  0  0  0  0  0  0  0  0  0  0  0
  128.4753  138.2916  160.9564 H   0  0  0  0  0  0  0  0  0  0  0  0
  130.7120  133.5034  154.2648 H   0  0  0  0  0  0  0  0  0  0  0  0
  131.2887  132.2183  152.2479 H   0  0  0  0  0  0  0  0  0  0  0  0
  1  2  1  0
  1 39  1  0
  1 40  1  0
  1 41  1  0
  2  3  1  0
  2 42  1  0
  2 43  1  0
  3 38  2  0
  3  4  1  0
  4  5  2  0
  4 44  1  0
  5  6  1  0
  5 45  1  0
  6  7  1  0
  6 37  2  0
  7 35  1  0
  7  8  2  0
  8  9  1  0
  8 46  1  0
  9 10  1  0
  9 11  1  0
 11 12  1  0
 11 35  2  0
 12 13  1  0
 12 47  1  0
 13 14  1  1
 13 15  1  0
 13 24  1  0
 15 16  1  0
 15 48  1  0
 15 49  1  0
 16 17  1  0
 16 50  1  0
 16 51  1  0
 17 23  1  0
 17 18  2  0
 18 19  1  0
 18 52  1  0
 19 20  2  0
 19 53  1  0
 20 21  1  0
 20 22  1  0
 21 54  1  0
 21 55  1  0
 21 56  1  0
 22 23  2  0
 22 57  1  0
 23 58  1  0
 24 25  1  0
 24 59  1  0
 24 60  1  0
 25 34  1  0
 25 26  2  0
 26 27  1  0
 26 61  1  0
 27 28  2  0
 27 62  1  0
 28 29  1  0
 28 63  1  0
 29 34  2  0
 29 30  1  0
 30 31  2  0
 30 64  1  0
 31 32  1  0
 31 65  1  0
 32 33  2  0
 32 66  1  0
 33 34  1  0
 33 67  1  0
 35 36  1  0
 37 38  1  0
 37 68  1  0
 38 69  1  0
M  CHG  1  35   1
M  END
>  <DOCK_score>  (1) 
-59.693573

>  <SMILES>  (1) 
CCc1ccc(-c2c[nH]c(N[C@@H](CCc3ccc(C)cc3)Cc3cccc4ccccc34)[nH+]2)cc1

$$$$
