CCc1ccc(-c2c[nH]c(N[C@@H](C=CC3=CCCCCC3)C3=CCCCC3)[nH+]2)cc1
     RDKit          3D

 66 69  0  0  1  0  0  0  0  0999 V2000
  130.2768  128.3280  151.7885 C   0  0  0  0  0  0  0  0  0  0  0  0
  131.2910  129.4594  151.9707 C   0  0  0  0  0  0  0  0  0  0  0  0
  131.0059  130.1866  153.2595 C   0  0  0  0  0  0  0  0  0  0  0  0
  131.6080  129.7689  154.4331 C   0  0  0  0  0  0  0  0  0  0  0  0
  131.3509  130.4301  155.6169 C   0  0  0  0  0  0  0  0  0  0  0  0
  130.4830  131.5206  155.6285 C   0  0  0  0  0  0  0  0  0  0  0  0
  130.2027  132.2355  156.8977 C   0  0  0  0  0  0  0  0  0  0  0  0
  129.6515  131.6954  158.0128 C   0  0  0  0  0  0  0  0  0  0  0  0
  129.5713  132.7012  158.9449 N   0  0  0  0  0  0  0  0  0  0  0  0
  129.2199  132.6230  159.8458 H   0  0  0  0  0  0  0  0  0  0  0  0
  130.0761  133.8275  158.3717 C   0  0  0  0  0  0  0  0  0  0  0  0
  130.1751  135.0672  158.9799 N   0  0  0  0  0  0  0  0  0  0  0  0
  129.7134  135.2455  160.3588 C   0  0  1  0  0  0  0  0  0  0  0  0
  130.2743  134.5830  161.0183 H   0  0  0  0  0  0  0  0  0  0  0  0
  129.9309  136.6758  160.7805 C   0  0  0  0  0  0  0  0  0  0  0  0
  130.1673  136.9639  162.0557 C   0  0  0  0  0  0  0  0  0  0  0  0
  130.2717  138.3669  162.4859 C   0  0  0  0  0  0  0  0  0  0  0  0
  129.4510  139.2675  161.9851 C   0  0  0  0  0  0  0  0  0  0  0  0
  129.5542  140.7139  162.4205 C   0  0  0  0  0  0  0  0  0  0  0  0
  130.8272  141.3176  161.8227 C   0  0  0  0  0  0  0  0  0  0  0  0
  132.0244  141.0421  162.7141 C   0  0  0  0  0  0  0  0  0  0  0  0
  132.4064  139.5752  162.7920 C   0  0  0  0  0  0  0  0  0  0  0  0
  131.3188  138.7673  163.5036 C   0  0  0  0  0  0  0  0  0  0  0  0
  128.2457  134.9141  160.4439 C   0  0  0  0  0  0  0  0  0  0  0  0
  127.8849  133.9549  161.2347 C   0  0  0  0  0  0  0  0  0  0  0  0
  126.4649  133.5052  161.4175 C   0  0  0  0  0  0  0  0  0  0  0  0
  125.5022  134.5751  160.8980 C   0  0  0  0  0  0  0  0  0  0  0  0
  125.9517  134.9905  159.4915 C   0  0  0  0  0  0  0  0  0  0  0  0
  127.2928  135.7209  159.6114 C   0  0  0  0  0  0  0  0  0  0  0  0
  130.4478  133.5465  157.1466 N   0  0  0  0  0  0  0  0  0  0  0  0
  130.8377  134.1748  156.5189 H   0  0  0  0  0  0  0  0  0  0  0  0
  129.8750  131.9334  154.4442 C   0  0  0  0  0  0  0  0  0  0  0  0
  130.1439  131.2681  153.2655 C   0  0  0  0  0  0  0  0  0  0  0  0
  130.3563  127.6315  152.6231 H   0  0  0  0  0  0  0  0  0  0  0  0
  129.2698  128.7437  151.7567 H   0  0  0  0  0  0  0  0  0  0  0  0
  130.4826  127.8026  150.8560 H   0  0  0  0  0  0  0  0  0  0  0  0
  131.2108  130.1562  151.1358 H   0  0  0  0  0  0  0  0  0  0  0  0
  132.2974  129.0440  152.0022 H   0  0  0  0  0  0  0  0  0  0  0  0
  132.2805  128.9237  154.4230 H   0  0  0  0  0  0  0  0  0  0  0  0
  131.8216  130.1035  156.5323 H   0  0  0  0  0  0  0  0  0  0  0  0
  129.3356  130.6709  158.1430 H   0  0  0  0  0  0  0  0  0  0  0  0
  130.5501  135.8176  158.4932 H   0  0  0  0  0  0  0  0  0  0  0  0
  129.8945  137.4668  160.0459 H   0  0  0  0  0  0  0  0  0  0  0  0
  130.2829  136.1681  162.7768 H   0  0  0  0  0  0  0  0  0  0  0  0
  128.7060  138.9763  161.2595 H   0  0  0  0  0  0  0  0  0  0  0  0
  129.6000  140.7664  163.5082 H   0  0  0  0  0  0  0  0  0  0  0  0
  128.6848  141.2664  162.0638 H   0  0  0  0  0  0  0  0  0  0  0  0
  131.0039  140.8808  160.8398 H   0  0  0  0  0  0  0  0  0  0  0  0
  130.6984  142.3948  161.7179 H   0  0  0  0  0  0  0  0  0  0  0  0
  132.8776  141.6041  162.3344 H   0  0  0  0  0  0  0  0  0  0  0  0
  131.7972  141.3941  163.7205 H   0  0  0  0  0  0  0  0  0  0  0  0
  132.5404  139.1854  161.7830 H   0  0  0  0  0  0  0  0  0  0  0  0
  133.3431  139.4772  163.3410 H   0  0  0  0  0  0  0  0  0  0  0  0
  131.7580  137.8739  163.9476 H   0  0  0  0  0  0  0  0  0  0  0  0
  130.8592  139.3774  164.2810 H   0  0  0  0  0  0  0  0  0  0  0  0
  128.6537  133.4464  161.7976 H   0  0  0  0  0  0  0  0  0  0  0  0
  126.3060  132.5779  160.8670 H   0  0  0  0  0  0  0  0  0  0  0  0
  126.2745  133.3313  162.4766 H   0  0  0  0  0  0  0  0  0  0  0  0
  124.4917  134.1687  160.8545 H   0  0  0  0  0  0  0  0  0  0  0  0
  125.5241  135.4405  161.5603 H   0  0  0  0  0  0  0  0  0  0  0  0
  126.0676  134.1046  158.8672 H   0  0  0  0  0  0  0  0  0  0  0  0
  125.2104  135.6579  159.0520 H   0  0  0  0  0  0  0  0  0  0  0  0
  127.1381  136.6931  160.0795 H   0  0  0  0  0  0  0  0  0  0  0  0
  127.7144  135.8643  158.6165 H   0  0  0  0  0  0  0  0  0  0  0  0
  129.1977  132.7746  154.4484 H   0  0  0  0  0  0  0  0  0  0  0  0
  129.6767  131.5898  152.3463 H   0  0  0  0  0  0  0  0  0  0  0  0
  1  2  1  0
  1 34  1  0
  1 35  1  0
  1 36  1  0
  2  3  1  0
  2 37  1  0
  2 38  1  0
  3 33  2  0
  3  4  1  0
  4  5  2  0
  4 39  1  0
  5  6  1  0
  5 40  1  0
  6  7  1  0
  6 32  2  0
  7 30  1  0
  7  8  2  0
  8  9  1  0
  8 41  1  0
  9 10  1  0
  9 11  1  0
 11 12  1  0
 11 30  2  0
 12 13  1  0
 12 42  1  0
 13 14  1  1
 13 15  1  0
 13 24  1  0
 15 16  2  0
 15 43  1  0
 16 17  1  0
 16 44  1  0
 17 23  1  0
 17 18  2  0
 18 19  1  0
 18 45  1  0
 19 20  1  0
 19 46  1  0
 19 47  1  0
 20 21  1  0
 20 48  1  0
 20 49  1  0
 21 22  1  0
 21 50  1  0
 21 51  1  0
 22 23  1  0
 22 52  1  0
 22 53  1  0
 23 54  1  0
 23 55  1  0
 24 29  1  0
 24 25  2  0
 25 26  1  0
 25 56  1  0
 26 27  1  0
 26 57  1  0
 26 58  1  0
 27 28  1  0
 27 59  1  0
 27 60  1  0
 28 29  1  0
 28 61  1  0
 28 62  1  0
 29 63  1  0
 29 64  1  0
 30 31  1  0
 32 33  1  0
 32 65  1  0
 33 66  1  0
M  CHG  1  30   1
M  END
>  <DOCK_score>  (1) 
-59.87352

>  <SMILES>  (1) 
CCc1ccc(-c2c[nH]c(N[C@@H](C=CC3=CCCCCC3)C3=CCCCC3)[nH+]2)cc1

$$$$
