O=C1CC[C@H]([NH+]=C(NC2CCC=CCC2)NC2CC=C(C3CC(Br)C3)C2)CN1
     RDKit          3D

 62 65  0  0  1  0  0  0  0  0999 V2000
  123.4656  133.6672  161.2420 O   0  0  0  0  0  0  0  0  0  0  0  0
  124.6411  133.9300  161.1000 C   0  0  0  0  0  0  0  0  0  0  0  0
  125.5447  132.8677  160.5428 C   0  0  0  0  0  0  0  0  0  0  0  0
  127.0046  133.2152  160.8440 C   0  0  0  0  0  0  0  0  0  0  0  0
  127.2491  134.6738  160.4389 C   0  0  2  0  0  0  0  0  0  0  0  0
  126.9199  134.8282  159.4114 H   0  0  0  0  0  0  0  0  0  0  0  0
  128.6772  134.9817  160.5490 N   0  0  0  0  0  0  0  0  0  0  0  0
  128.9771  135.6844  161.1466 H   0  0  0  0  0  0  0  0  0  0  0  0
  129.5446  134.3115  159.8438 C   0  0  0  0  0  0  0  0  0  0  0  0
  129.1861  133.7985  158.6197 N   0  0  0  0  0  0  0  0  0  0  0  0
  130.1610  133.0452  157.8272 C   0  0  0  0  0  0  0  0  0  0  0  0
  129.9059  133.3190  156.3556 C   0  0  0  0  0  0  0  0  0  0  0  0
  131.0111  132.7075  155.4908 C   0  0  0  0  0  0  0  0  0  0  0  0
  130.6596  131.2624  155.2089 C   0  0  0  0  0  0  0  0  0  0  0  0
  130.7374  130.3744  156.1488 C   0  0  0  0  0  0  0  0  0  0  0  0
  131.1805  130.7707  157.5409 C   0  0  0  0  0  0  0  0  0  0  0  0
  130.0588  131.5766  158.1997 C   0  0  0  0  0  0  0  0  0  0  0  0
  130.8180  134.1173  160.3243 N   0  0  0  0  0  0  0  0  0  0  0  0
  131.4274  135.1142  161.2082 C   0  0  1  0  0  0  0  0  0  0  0  0
  131.2903  134.6984  162.6914 C   0  0  0  0  0  0  0  0  0  0  0  0
  132.5873  135.1329  163.3334 C   0  0  0  0  0  0  0  0  0  0  0  0
  133.5001  135.3743  162.4321 C   0  0  0  0  0  0  0  0  0  0  0  0
  134.9044  135.8258  162.7408 C   0  0  2  0  0  0  0  0  0  0  0  0
  135.0468  136.4983  164.1165 C   0  0  0  0  0  0  0  0  0  0  0  0
  135.9959  137.5026  163.4377 C   0  0  1  0  0  0  0  0  0  0  0  0
  137.8778  136.9338  163.4468 Br  0  0  0  0  0  0  0  0  0  0  0  0
  135.2635  137.1875  162.1228 C   0  0  0  0  0  0  0  0  0  0  0  0
  132.9640  135.1416  161.0380 C   0  0  0  0  0  0  0  0  0  0  0  0
  126.4504  135.5842  161.3697 C   0  0  0  0  0  0  0  0  0  0  0  0
  125.0622  135.1467  161.4474 N   0  0  0  0  0  0  0  0  0  0  0  0
  125.2994  131.9083  160.9984 H   0  0  0  0  0  0  0  0  0  0  0  0
  125.4044  132.8025  159.4638 H   0  0  0  0  0  0  0  0  0  0  0  0
  127.1987  133.0928  161.9096 H   0  0  0  0  0  0  0  0  0  0  0  0
  127.6630  132.5600  160.2735 H   0  0  0  0  0  0  0  0  0  0  0  0
  128.2876  133.9355  158.2809 H   0  0  0  0  0  0  0  0  0  0  0  0
  131.1608  133.3995  158.0776 H   0  0  0  0  0  0  0  0  0  0  0  0
  128.9467  132.8865  156.0710 H   0  0  0  0  0  0  0  0  0  0  0  0
  129.8761  134.3962  156.1909 H   0  0  0  0  0  0  0  0  0  0  0  0
  131.9613  132.7559  156.0227 H   0  0  0  0  0  0  0  0  0  0  0  0
  131.0865  133.2555  154.5515 H   0  0  0  0  0  0  0  0  0  0  0  0
  130.3425  130.9700  154.2189 H   0  0  0  0  0  0  0  0  0  0  0  0
  130.4846  129.3459  155.9382 H   0  0  0  0  0  0  0  0  0  0  0  0
  132.0815  131.3812  157.4783 H   0  0  0  0  0  0  0  0  0  0  0  0
  131.3823  129.8756  158.1293 H   0  0  0  0  0  0  0  0  0  0  0  0
  130.1323  131.4751  159.2826 H   0  0  0  0  0  0  0  0  0  0  0  0
  129.0957  131.1884  157.8683 H   0  0  0  0  0  0  0  0  0  0  0  0
  131.3132  133.3204  160.0780 H   0  0  0  0  0  0  0  0  0  0  0  0
  130.9969  136.1008  161.0370 H   0  0  0  0  0  0  0  0  0  0  0  0
  130.4471  135.2122  163.1534 H   0  0  0  0  0  0  0  0  0  0  0  0
  131.1692  133.6183  162.7733 H   0  0  0  0  0  0  0  0  0  0  0  0
  132.7393  135.2307  164.3982 H   0  0  0  0  0  0  0  0  0  0  0  0
  135.6487  135.0518  162.5541 H   0  0  0  0  0  0  0  0  0  0  0  0
  134.1230  136.9480  164.4803 H   0  0  0  0  0  0  0  0  0  0  0  0
  135.5348  135.8698  164.8613 H   0  0  0  0  0  0  0  0  0  0  0  0
  135.8627  138.5301  163.7763 H   0  0  0  0  0  0  0  0  0  0  0  0
  135.9262  137.1144  161.2604 H   0  0  0  0  0  0  0  0  0  0  0  0
  134.3989  137.8253  161.9393 H   0  0  0  0  0  0  0  0  0  0  0  0
  133.3201  134.1878  160.6486 H   0  0  0  0  0  0  0  0  0  0  0  0
  133.2581  135.9565  160.3765 H   0  0  0  0  0  0  0  0  0  0  0  0
  126.4852  136.6067  160.9936 H   0  0  0  0  0  0  0  0  0  0  0  0
  126.8938  135.5544  162.3649 H   0  0  0  0  0  0  0  0  0  0  0  0
  124.4029  135.7815  161.7685 H   0  0  0  0  0  0  0  0  0  0  0  0
  1  2  2  0
  2 30  1  0
  2  3  1  0
  3  4  1  0
  3 31  1  0
  3 32  1  0
  4  5  1  0
  4 33  1  0
  4 34  1  0
  5  6  1  6
  5  7  1  0
  5 29  1  0
  7  8  1  0
  9  7  2  0
  9 10  1  0
  9 18  1  0
 10 11  1  0
 10 35  1  0
 11 17  1  0
 11 12  1  0
 11 36  1  0
 12 13  1  0
 12 37  1  0
 12 38  1  0
 13 14  1  0
 13 39  1  0
 13 40  1  0
 14 15  2  0
 14 41  1  0
 15 16  1  0
 15 42  1  0
 16 17  1  0
 16 43  1  0
 16 44  1  0
 17 45  1  0
 17 46  1  0
 18 19  1  0
 18 47  1  0
 19 28  1  0
 19 20  1  0
 19 48  1  1
 20 21  1  0
 20 49  1  0
 20 50  1  0
 21 22  2  0
 21 51  1  0
 22 23  1  0
 22 28  1  0
 23 27  1  0
 23 24  1  0
 23 52  1  1
 24 25  1  0
 24 53  1  0
 24 54  1  0
 25 26  1  0
 25 27  1  0
 25 55  1  1
 27 56  1  0
 27 57  1  0
 28 58  1  0
 28 59  1  0
 29 30  1  0
 29 60  1  0
 29 61  1  0
 30 62  1  0
M  CHG  1   7   1
M  END
>  <DOCK_score>  (1) 
-44.299477

>  <SMILES>  (1) 
O=C1CC[C@H]([NH+]=C(NC2CCC=CCC2)NC2CC=C(C3CC(Br)C3)C2)CN1

$$$$
