c1ccc(Sc2ccc(-n3cccn3)c(Nc3[nH]cc(-c4ccccc4)[nH+]3)c2)cc1
     RDKit          3D

 50 54  0  0  1  0  0  0  0  0999 V2000
  135.3640  137.7051  163.1362 C   0  0  0  0  0  0  0  0  0  0  0  0
  134.0648  138.0358  163.4764 C   0  0  0  0  0  0  0  0  0  0  0  0
  133.1376  137.0412  163.7160 C   0  0  0  0  0  0  0  0  0  0  0  0
  133.5112  135.7064  163.6155 C   0  0  0  0  0  0  0  0  0  0  0  0
  132.3314  134.4336  163.9204 S   0  0  0  0  0  0  0  0  0  0  0  0
  131.0911  134.7442  162.7081 C   0  0  0  0  0  0  0  0  0  0  0  0
  129.7868  135.0192  163.1032 C   0  0  0  0  0  0  0  0  0  0  0  0
  128.8124  135.2630  162.1556 C   0  0  0  0  0  0  0  0  0  0  0  0
  129.1322  135.2340  160.8061 C   0  0  0  0  0  0  0  0  0  0  0  0
  128.1405  135.4821  159.8440 N   0  0  0  0  0  0  0  0  0  0  0  0
  126.8405  135.7549  160.0938 C   0  0  0  0  0  0  0  0  0  0  0  0
  126.2207  135.9328  158.9032 C   0  0  0  0  0  0  0  0  0  0  0  0
  127.1706  135.7549  157.8924 C   0  0  0  0  0  0  0  0  0  0  0  0
  128.3218  135.4846  158.4549 N   0  0  0  0  0  0  0  0  0  0  0  0
  130.4396  134.9583  160.4056 C   0  0  0  0  0  0  0  0  0  0  0  0
  130.7642  134.9284  159.0457 N   0  0  0  0  0  0  0  0  0  0  0  0
  130.6671  133.7426  158.3365 C   0  0  0  0  0  0  0  0  0  0  0  0
  130.2710  132.5440  158.8459 N   0  0  0  0  0  0  0  0  0  0  0  0
  130.0075  132.3684  159.7627 H   0  0  0  0  0  0  0  0  0  0  0  0
  130.3129  131.6297  157.8221 C   0  0  0  0  0  0  0  0  0  0  0  0
  130.7273  132.2961  156.7158 C   0  0  0  0  0  0  0  0  0  0  0  0
  130.9153  131.7130  155.3649 C   0  0  0  0  0  0  0  0  0  0  0  0
  130.7239  132.5000  154.2306 C   0  0  0  0  0  0  0  0  0  0  0  0
  130.9058  131.9537  152.9763 C   0  0  0  0  0  0  0  0  0  0  0  0
  131.2661  130.6248  152.8435 C   0  0  0  0  0  0  0  0  0  0  0  0
  131.4517  129.8375  153.9657 C   0  0  0  0  0  0  0  0  0  0  0  0
  131.2782  130.3747  155.2249 C   0  0  0  0  0  0  0  0  0  0  0  0
  130.9423  133.5892  157.0640 N   0  0  0  0  0  0  0  0  0  0  0  0
  131.2468  134.2896  156.4660 H   0  0  0  0  0  0  0  0  0  0  0  0
  131.4156  134.7085  161.3584 C   0  0  0  0  0  0  0  0  0  0  0  0
  134.8190  135.3777  163.2795 C   0  0  0  0  0  0  0  0  0  0  0  0
  135.7395  136.3779  163.0356 C   0  0  0  0  0  0  0  0  0  0  0  0
  136.0870  138.4852  162.9490 H   0  0  0  0  0  0  0  0  0  0  0  0
  133.7751  139.0733  163.5543 H   0  0  0  0  0  0  0  0  0  0  0  0
  132.1233  137.3001  163.9817 H   0  0  0  0  0  0  0  0  0  0  0  0
  129.5351  135.0419  164.1532 H   0  0  0  0  0  0  0  0  0  0  0  0
  127.8002  135.4766  162.4656 H   0  0  0  0  0  0  0  0  0  0  0  0
  126.3792  135.8210  161.0681 H   0  0  0  0  0  0  0  0  0  0  0  0
  125.1762  136.1666  158.7596 H   0  0  0  0  0  0  0  0  0  0  0  0
  126.9865  135.8272  156.8307 H   0  0  0  0  0  0  0  0  0  0  0  0
  131.0574  135.7381  158.5991 H   0  0  0  0  0  0  0  0  0  0  0  0
  130.0597  130.5817  157.8848 H   0  0  0  0  0  0  0  0  0  0  0  0
  130.4383  133.5365  154.3330 H   0  0  0  0  0  0  0  0  0  0  0  0
  130.7623  132.5638  152.0967 H   0  0  0  0  0  0  0  0  0  0  0  0
  131.4032  130.2004  151.8598 H   0  0  0  0  0  0  0  0  0  0  0  0
  131.7333  128.8007  153.8560 H   0  0  0  0  0  0  0  0  0  0  0  0
  131.4238  129.7592  156.1004 H   0  0  0  0  0  0  0  0  0  0  0  0
  132.4278  134.4905  161.0512 H   0  0  0  0  0  0  0  0  0  0  0  0
  135.1140  134.3415  163.2051 H   0  0  0  0  0  0  0  0  0  0  0  0
  136.7549  136.1232  162.7700 H   0  0  0  0  0  0  0  0  0  0  0  0
  1 32  2  0
  1  2  1  0
  1 33  1  0
  2  3  2  0
  2 34  1  0
  3  4  1  0
  3 35  1  0
  4  5  1  0
  4 31  2  0
  5  6  1  0
  6 30  1  0
  6  7  2  0
  7  8  1  0
  7 36  1  0
  8  9  2  0
  8 37  1  0
  9 10  1  0
  9 15  1  0
 10 14  1  0
 10 11  1  0
 11 12  2  0
 11 38  1  0
 12 13  1  0
 12 39  1  0
 13 14  2  0
 13 40  1  0
 15 16  1  0
 15 30  2  0
 16 41  1  0
 17 16  1  0
 17 28  2  0
 17 18  1  0
 18 19  1  0
 18 20  1  0
 20 21  2  0
 20 42  1  0
 21 22  1  0
 21 28  1  0
 22 27  1  0
 22 23  2  0
 23 24  1  0
 23 43  1  0
 24 25  2  0
 24 44  1  0
 25 26  1  0
 25 45  1  0
 26 27  2  0
 26 46  1  0
 27 47  1  0
 28 29  1  0
 30 48  1  0
 31 32  1  0
 31 49  1  0
 32 50  1  0
M  CHG  1  28   1
M  END
>  <DOCK_score>  (1) 
-59.570705

>  <SMILES>  (1) 
c1ccc(Sc2ccc(-n3cccn3)c(Nc3[nH]cc(-c4ccccc4)[nH+]3)c2)cc1

$$$$
