Cc1ncccc1-c1c[nH]c(NC(c2ccccc2)c2ccccc2)[nH+]1
     RDKit          3D

 47 50  0  0  1  0  0  0  0  0999 V2000
  131.9152  129.7121  157.3615 C   0  0  0  0  0  0  0  0  0  0  0  0
  131.3919  130.1347  156.0129 C   0  0  0  0  0  0  0  0  0  0  0  0
  131.6562  129.4012  154.9510 N   0  0  0  0  0  0  0  0  0  0  0  0
  131.2245  129.7343  153.7500 C   0  0  0  0  0  0  0  0  0  0  0  0
  130.4657  130.8743  153.5556 C   0  0  0  0  0  0  0  0  0  0  0  0
  130.1564  131.6750  154.6413 C   0  0  0  0  0  0  0  0  0  0  0  0
  130.6284  131.2949  155.9012 C   0  0  0  0  0  0  0  0  0  0  0  0
  130.3263  132.1167  157.0987 C   0  0  0  0  0  0  0  0  0  0  0  0
  129.6567  131.7023  158.2026 C   0  0  0  0  0  0  0  0  0  0  0  0
  129.6012  132.7736  159.0607 N   0  0  0  0  0  0  0  0  0  0  0  0
  129.1845  132.7872  159.9366 H   0  0  0  0  0  0  0  0  0  0  0  0
  130.2391  133.8123  158.4554 C   0  0  0  0  0  0  0  0  0  0  0  0
  130.4001  135.0802  158.9875 N   0  0  0  0  0  0  0  0  0  0  0  0
  129.3964  135.6215  159.9071 C   0  0  0  0  0  0  0  0  0  0  0  0
  129.8050  137.0065  160.3380 C   0  0  0  0  0  0  0  0  0  0  0  0
  128.8403  137.9454  160.6525 C   0  0  0  0  0  0  0  0  0  0  0  0
  129.2153  139.2144  161.0524 C   0  0  0  0  0  0  0  0  0  0  0  0
  130.5540  139.5477  161.1283 C   0  0  0  0  0  0  0  0  0  0  0  0
  131.5193  138.6105  160.8084 C   0  0  0  0  0  0  0  0  0  0  0  0
  131.1444  137.3398  160.4137 C   0  0  0  0  0  0  0  0  0  0  0  0
  128.0608  135.6852  159.2121 C   0  0  0  0  0  0  0  0  0  0  0  0
  126.8948  135.5458  159.9415 C   0  0  0  0  0  0  0  0  0  0  0  0
  125.6694  135.6091  159.3045 C   0  0  0  0  0  0  0  0  0  0  0  0
  125.6105  135.8013  157.9370 C   0  0  0  0  0  0  0  0  0  0  0  0
  126.7766  135.9356  157.2069 C   0  0  0  0  0  0  0  0  0  0  0  0
  128.0017  135.8775  157.8445 C   0  0  0  0  0  0  0  0  0  0  0  0
  130.6711  133.4159  157.2832 N   0  0  0  0  0  0  0  0  0  0  0  0
  131.1586  133.9639  156.6485 H   0  0  0  0  0  0  0  0  0  0  0  0
  131.1864  129.0630  157.8469 H   0  0  0  0  0  0  0  0  0  0  0  0
  132.8540  129.1729  157.2342 H   0  0  0  0  0  0  0  0  0  0  0  0
  132.0837  130.5946  157.9787 H   0  0  0  0  0  0  0  0  0  0  0  0
  131.4676  129.1070  152.9050 H   0  0  0  0  0  0  0  0  0  0  0  0
  130.1179  131.1365  152.5674 H   0  0  0  0  0  0  0  0  0  0  0  0
  129.5661  132.5710  154.5183 H   0  0  0  0  0  0  0  0  0  0  0  0
  129.2460  130.7184  158.3746 H   0  0  0  0  0  0  0  0  0  0  0  0
  131.1775  135.6100  158.7513 H   0  0  0  0  0  0  0  0  0  0  0  0
  129.3201  134.9763  160.7824 H   0  0  0  0  0  0  0  0  0  0  0  0
  127.7938  137.6863  160.5891 H   0  0  0  0  0  0  0  0  0  0  0  0
  128.4616  139.9467  161.3015 H   0  0  0  0  0  0  0  0  0  0  0  0
  130.8475  140.5405  161.4361 H   0  0  0  0  0  0  0  0  0  0  0  0
  132.5657  138.8710  160.8672 H   0  0  0  0  0  0  0  0  0  0  0  0
  131.8980  136.6078  160.1637 H   0  0  0  0  0  0  0  0  0  0  0  0
  126.9410  135.3911  161.0092 H   0  0  0  0  0  0  0  0  0  0  0  0
  124.7584  135.5038  159.8749 H   0  0  0  0  0  0  0  0  0  0  0  0
  124.6533  135.8463  157.4387 H   0  0  0  0  0  0  0  0  0  0  0  0
  126.7306  136.0855  156.1383 H   0  0  0  0  0  0  0  0  0  0  0  0
  128.9129  135.9819  157.2740 H   0  0  0  0  0  0  0  0  0  0  0  0
  1  2  1  0
  1 29  1  0
  1 30  1  0
  1 31  1  0
  2  7  2  0
  2  3  1  0
  3  4  2  0
  4  5  1  0
  4 32  1  0
  5  6  2  0
  5 33  1  0
  6  7  1  0
  6 34  1  0
  7  8  1  0
  8 27  1  0
  8  9  2  0
  9 10  1  0
  9 35  1  0
 10 11  1  0
 10 12  1  0
 12 13  1  0
 12 27  2  0
 13 14  1  0
 13 36  1  0
 14 15  1  0
 14 21  1  0
 14 37  1  0
 15 20  1  0
 15 16  2  0
 16 17  1  0
 16 38  1  0
 17 18  2  0
 17 39  1  0
 18 19  1  0
 18 40  1  0
 19 20  2  0
 19 41  1  0
 20 42  1  0
 21 26  1  0
 21 22  2  0
 22 23  1  0
 22 43  1  0
 23 24  2  0
 23 44  1  0
 24 25  1  0
 24 45  1  0
 25 26  2  0
 25 46  1  0
 26 47  1  0
 27 28  1  0
M  CHG  1  27   1
M  END
>  <DOCK_score>  (1) 
-58.277798

>  <SMILES>  (1) 
Cc1ncccc1-c1c[nH]c(NC(c2ccccc2)c2ccccc2)[nH+]1

$$$$
