CC1=CCC=C([C@H](Cc2ccccc2)Nc2[nH]cc(-c3ccc(N)cc3)[nH+]2)C1
     RDKit          3D

 55 58  0  0  1  0  0  0  0  0999 V2000
  125.2108  134.8989  162.6667 C   0  0  0  0  0  0  0  0  0  0  0  0
  125.9524  134.9156  161.3550 C   0  0  0  0  0  0  0  0  0  0  0  0
  125.2795  135.1203  160.2638 C   0  0  0  0  0  0  0  0  0  0  0  0
  125.9198  135.1563  158.9086 C   0  0  0  0  0  0  0  0  0  0  0  0
  127.3939  135.4069  159.0139 C   0  0  0  0  0  0  0  0  0  0  0  0
  128.0676  135.1972  160.1036 C   0  0  0  0  0  0  0  0  0  0  0  0
  129.5485  135.4767  160.1008 C   0  0  2  0  0  0  0  0  0  0  0  0
  130.0460  134.8073  160.8025 H   0  0  0  0  0  0  0  0  0  0  0  0
  129.7943  136.9279  160.5186 C   0  0  0  0  0  0  0  0  0  0  0  0
  131.2752  137.2075  160.5157 C   0  0  0  0  0  0  0  0  0  0  0  0
  131.7376  138.4812  160.2422 C   0  0  0  0  0  0  0  0  0  0  0  0
  133.0960  138.7374  160.2390 C   0  0  0  0  0  0  0  0  0  0  0  0
  133.9919  137.7199  160.5103 C   0  0  0  0  0  0  0  0  0  0  0  0
  133.5298  136.4455  160.7790 C   0  0  0  0  0  0  0  0  0  0  0  0
  132.1712  136.1900  160.7860 C   0  0  0  0  0  0  0  0  0  0  0  0
  130.0839  135.2587  158.7547 N   0  0  0  0  0  0  0  0  0  0  0  0
  129.9776  134.0126  158.1608 C   0  0  0  0  0  0  0  0  0  0  0  0
  129.3957  132.9161  158.7182 N   0  0  0  0  0  0  0  0  0  0  0  0
  128.9845  132.8671  159.5954 H   0  0  0  0  0  0  0  0  0  0  0  0
  129.4986  131.8905  157.8084 C   0  0  0  0  0  0  0  0  0  0  0  0
  130.1397  132.3903  156.7233 C   0  0  0  0  0  0  0  0  0  0  0  0
  130.4751  131.6430  155.4864 C   0  0  0  0  0  0  0  0  0  0  0  0
  129.9637  132.0599  154.2585 C   0  0  0  0  0  0  0  0  0  0  0  0
  130.2810  131.3669  153.1095 C   0  0  0  0  0  0  0  0  0  0  0  0
  131.1009  130.2466  153.1765 C   0  0  0  0  0  0  0  0  0  0  0  0
  131.4161  129.5431  152.0114 N   0  0  0  0  0  0  0  0  0  0  0  0
  131.6077  129.8260  154.4003 C   0  0  0  0  0  0  0  0  0  0  0  0
  131.2977  130.5194  155.5512 C   0  0  0  0  0  0  0  0  0  0  0  0
  130.4159  133.6960  156.9667 N   0  0  0  0  0  0  0  0  0  0  0  0
  130.8678  134.2986  156.3555 H   0  0  0  0  0  0  0  0  0  0  0  0
  127.4351  134.6947  161.3664 C   0  0  0  0  0  0  0  0  0  0  0  0
  125.1821  135.9068  163.0808 H   0  0  0  0  0  0  0  0  0  0  0  0
  124.1932  134.5437  162.5043 H   0  0  0  0  0  0  0  0  0  0  0  0
  125.7207  134.2341  163.3640 H   0  0  0  0  0  0  0  0  0  0  0  0
  124.2126  135.2716  160.3353 H   0  0  0  0  0  0  0  0  0  0  0  0
  125.7509  134.2027  158.4083 H   0  0  0  0  0  0  0  0  0  0  0  0
  125.4660  135.9536  158.3202 H   0  0  0  0  0  0  0  0  0  0  0  0
  127.9189  135.7741  158.1445 H   0  0  0  0  0  0  0  0  0  0  0  0
  129.3960  137.0901  161.5202 H   0  0  0  0  0  0  0  0  0  0  0  0
  129.2968  137.5973  159.8169 H   0  0  0  0  0  0  0  0  0  0  0  0
  131.0376  139.2759  160.0305 H   0  0  0  0  0  0  0  0  0  0  0  0
  133.4573  139.7324  160.0251 H   0  0  0  0  0  0  0  0  0  0  0  0
  135.0532  137.9205  160.5083 H   0  0  0  0  0  0  0  0  0  0  0  0
  134.2298  135.6498  160.9866 H   0  0  0  0  0  0  0  0  0  0  0  0
  131.8100  135.1949  160.9993 H   0  0  0  0  0  0  0  0  0  0  0  0
  130.5129  135.9874  158.2794 H   0  0  0  0  0  0  0  0  0  0  0  0
  129.1378  130.8803  157.9340 H   0  0  0  0  0  0  0  0  0  0  0  0
  129.3226  132.9275  154.2067 H   0  0  0  0  0  0  0  0  0  0  0  0
  129.8887  131.6922  152.1573 H   0  0  0  0  0  0  0  0  0  0  0  0
  131.9888  128.7608  152.0577 H   0  0  0  0  0  0  0  0  0  0  0  0
  131.0631  129.8355  151.1573 H   0  0  0  0  0  0  0  0  0  0  0  0
  132.2447  128.9552  154.4500 H   0  0  0  0  0  0  0  0  0  0  0  0
  131.6921  130.1924  156.5019 H   0  0  0  0  0  0  0  0  0  0  0  0
  127.6366  133.6282  161.4673 H   0  0  0  0  0  0  0  0  0  0  0  0
  127.8682  135.2211  162.2170 H   0  0  0  0  0  0  0  0  0  0  0  0
  1  2  1  0
  1 32  1  0
  1 33  1  0
  1 34  1  0
  2 31  1  0
  2  3  2  0
  3  4  1  0
  3 35  1  0
  4  5  1  0
  4 36  1  0
  4 37  1  0
  5  6  2  0
  5 38  1  0
  6  7  1  0
  6 31  1  0
  7  8  1  1
  7  9  1  0
  7 16  1  0
  9 10  1  0
  9 39  1  0
  9 40  1  0
 10 15  1  0
 10 11  2  0
 11 12  1  0
 11 41  1  0
 12 13  2  0
 12 42  1  0
 13 14  1  0
 13 43  1  0
 14 15  2  0
 14 44  1  0
 15 45  1  0
 16 46  1  0
 17 16  1  0
 17 29  2  0
 17 18  1  0
 18 19  1  0
 18 20  1  0
 20 21  2  0
 20 47  1  0
 21 22  1  0
 21 29  1  0
 22 28  1  0
 22 23  2  0
 23 24  1  0
 23 48  1  0
 24 25  2  0
 24 49  1  0
 25 26  1  0
 25 27  1  0
 26 50  1  0
 26 51  1  0
 27 28  2  0
 27 52  1  0
 28 53  1  0
 29 30  1  0
 31 54  1  0
 31 55  1  0
M  CHG  1  29   1
M  END
>  <DOCK_score>  (1) 
-60.253963

>  <SMILES>  (1) 
CC1=CCC=C([C@H](Cc2ccccc2)Nc2[nH]cc(-c3ccc(N)cc3)[nH+]2)C1

$$$$
