OC1(c2cccc(C(Nc3[nH]c4ccccc4[nH+]3)C3CCCC3)c2)CC2CC=CC[C@@H]2C1
     RDKit          3D

 66 71  0  0  1  0  0  0  0  0999 V2000
  131.7438  138.0128  159.5251 O   0  0  0  0  0  0  0  0  0  0  0  0
  132.2467  137.5293  160.7721 C   0  0  0  0  0  0  0  0  0  0  0  0
  131.6971  136.1547  161.0542 C   0  0  0  0  0  0  0  0  0  0  0  0
  132.0534  135.4929  162.2140 C   0  0  0  0  0  0  0  0  0  0  0  0
  131.5495  134.2317  162.4729 C   0  0  0  0  0  0  0  0  0  0  0  0
  130.6885  133.6332  161.5716 C   0  0  0  0  0  0  0  0  0  0  0  0
  130.3315  134.2958  160.4125 C   0  0  0  0  0  0  0  0  0  0  0  0
  129.3934  133.6432  159.4300 C   0  0  2  0  0  0  0  0  0  0  0  0
  129.7014  134.1108  158.0762 N   0  0  0  0  0  0  0  0  0  0  0  0
  130.0737  133.2105  157.1061 C   0  0  0  0  0  0  0  0  0  0  0  0
  130.1914  131.8973  157.2895 N   0  0  0  0  0  0  0  0  0  0  0  0
  130.0305  131.4241  158.1208 H   0  0  0  0  0  0  0  0  0  0  0  0
  130.5752  131.3268  156.1043 C   0  0  0  0  0  0  0  0  0  0  0  0
  130.8428  130.0201  155.7068 C   0  0  0  0  0  0  0  0  0  0  0  0
  131.2249  129.7640  154.4077 C   0  0  0  0  0  0  0  0  0  0  0  0
  131.3447  130.7997  153.4927 C   0  0  0  0  0  0  0  0  0  0  0  0
  131.0839  132.0992  153.8699 C   0  0  0  0  0  0  0  0  0  0  0  0
  130.6966  132.3754  155.1779 C   0  0  0  0  0  0  0  0  0  0  0  0
  130.3744  133.5261  155.8484 N   0  0  0  0  0  0  0  0  0  0  0  0
  130.3666  134.4194  155.4703 H   0  0  0  0  0  0  0  0  0  0  0  0
  127.9504  134.0117  159.7809 C   0  0  0  0  0  0  0  0  0  0  0  0
  127.5899  133.4641  161.1774 C   0  0  0  0  0  0  0  0  0  0  0  0
  126.1118  133.0192  161.0401 C   0  0  0  0  0  0  0  0  0  0  0  0
  126.0644  132.4250  159.6104 C   0  0  0  0  0  0  0  0  0  0  0  0
  126.9809  133.3517  158.7850 C   0  0  0  0  0  0  0  0  0  0  0  0
  130.8323  135.5587  160.1559 C   0  0  0  0  0  0  0  0  0  0  0  0
  131.8588  138.5026  161.9158 C   0  0  0  0  0  0  0  0  0  0  0  0
  133.0978  139.3995  162.0483 C   0  0  1  0  0  0  0  0  0  0  0  0
  133.2565  140.0543  163.4126 C   0  0  0  0  0  0  0  0  0  0  0  0
  134.6782  140.5674  163.5107 C   0  0  0  0  0  0  0  0  0  0  0  0
  135.6511  140.1949  162.7375 C   0  0  0  0  0  0  0  0  0  0  0  0
  135.5195  139.1660  161.6398 C   0  0  0  0  0  0  0  0  0  0  0  0
  134.2530  138.3665  161.9019 C   0  0  2  0  0  0  0  0  0  0  0  0
  134.3498  137.7733  162.8112 H   0  0  0  0  0  0  0  0  0  0  0  0
  133.7928  137.4865  160.7404 C   0  0  0  0  0  0  0  0  0  0  0  0
  131.9541  137.4466  158.7700 H   0  0  0  0  0  0  0  0  0  0  0  0
  132.7259  135.9606  162.9179 H   0  0  0  0  0  0  0  0  0  0  0  0
  131.8284  133.7139  163.3787 H   0  0  0  0  0  0  0  0  0  0  0  0
  130.2952  132.6477  161.7735 H   0  0  0  0  0  0  0  0  0  0  0  0
  129.5136  132.5608  159.4767 H   0  0  0  0  0  0  0  0  0  0  0  0
  129.6427  135.0555  157.8643 H   0  0  0  0  0  0  0  0  0  0  0  0
  130.7511  129.2092  156.4141 H   0  0  0  0  0  0  0  0  0  0  0  0
  131.4321  128.7498  154.0998 H   0  0  0  0  0  0  0  0  0  0  0  0
  131.6450  130.5861  152.4774 H   0  0  0  0  0  0  0  0  0  0  0  0
  131.1787  132.9008  153.1523 H   0  0  0  0  0  0  0  0  0  0  0  0
  127.8264  135.0945  159.7610 H   0  0  0  0  0  0  0  0  0  0  0  0
  128.2227  132.6128  161.4283 H   0  0  0  0  0  0  0  0  0  0  0  0
  127.6852  134.2466  161.9302 H   0  0  0  0  0  0  0  0  0  0  0  0
  125.4420  133.8748  161.1252 H   0  0  0  0  0  0  0  0  0  0  0  0
  125.8632  132.2605  161.7821 H   0  0  0  0  0  0  0  0  0  0  0  0
  125.0467  132.4493  159.2207 H   0  0  0  0  0  0  0  0  0  0  0  0
  126.4507  131.4057  159.6078 H   0  0  0  0  0  0  0  0  0  0  0  0
  126.3857  134.1140  158.2823 H   0  0  0  0  0  0  0  0  0  0  0  0
  127.5382  132.7696  158.0512 H   0  0  0  0  0  0  0  0  0  0  0  0
  130.5505  136.0779  159.2518 H   0  0  0  0  0  0  0  0  0  0  0  0
  130.9846  139.0923  161.6393 H   0  0  0  0  0  0  0  0  0  0  0  0
  131.6756  137.9559  162.8409 H   0  0  0  0  0  0  0  0  0  0  0  0
  133.1301  140.1431  161.2520 H   0  0  0  0  0  0  0  0  0  0  0  0
  132.5480  140.8767  163.5119 H   0  0  0  0  0  0  0  0  0  0  0  0
  133.0818  139.3187  164.1977 H   0  0  0  0  0  0  0  0  0  0  0  0
  134.8923  141.3036  164.2712 H   0  0  0  0  0  0  0  0  0  0  0  0
  136.6183  140.6508  162.8885 H   0  0  0  0  0  0  0  0  0  0  0  0
  136.3840  138.5022  161.6505 H   0  0  0  0  0  0  0  0  0  0  0  0
  135.4481  139.6646  160.6731 H   0  0  0  0  0  0  0  0  0  0  0  0
  134.1443  136.4642  160.8800 H   0  0  0  0  0  0  0  0  0  0  0  0
  134.1613  137.8866  159.7957 H   0  0  0  0  0  0  0  0  0  0  0  0
  1 36  1  0
  2  1  1  0
  2 35  1  0
  2  3  1  0
  2 27  1  0
  3 26  1  0
  3  4  2  0
  4  5  1  0
  4 37  1  0
  5  6  2  0
  5 38  1  0
  6  7  1  0
  6 39  1  0
  7  8  1  0
  7 26  2  0
  8  9  1  0
  8 21  1  0
  8 40  1  6
  9 10  1  0
  9 41  1  0
 10 19  1  0
 10 11  2  0
 11 12  1  0
 11 13  1  0
 13 18  2  0
 13 14  1  0
 14 15  2  0
 14 42  1  0
 15 16  1  0
 15 43  1  0
 16 17  2  0
 16 44  1  0
 17 18  1  0
 17 45  1  0
 18 19  1  0
 19 20  1  0
 21 25  1  0
 21 22  1  0
 21 46  1  0
 22 23  1  0
 22 47  1  0
 22 48  1  0
 23 24  1  0
 23 49  1  0
 23 50  1  0
 24 25  1  0
 24 51  1  0
 24 52  1  0
 25 53  1  0
 25 54  1  0
 26 55  1  0
 27 28  1  0
 27 56  1  0
 27 57  1  0
 28 33  1  0
 28 29  1  0
 28 58  1  6
 29 30  1  0
 29 59  1  0
 29 60  1  0
 30 31  2  0
 30 61  1  0
 31 32  1  0
 31 62  1  0
 32 33  1  0
 32 63  1  0
 32 64  1  0
 33 34  1  1
 33 35  1  0
 35 65  1  0
 35 66  1  0
M  CHG  1  11   1
M  END
>  <DOCK_score>  (1) 
-60.720791

>  <SMILES>  (1) 
OC1(c2cccc(C(Nc3[nH]c4ccccc4[nH+]3)C3CCCC3)c2)CC2CC=CC[C@@H]2C1

$$$$
