CC1=C(c2c[nH]c(N[C@H](c3ccccc3)c3ccc(F)cc3)[nH+]2)CCC1
     RDKit          3D

 49 52  0  0  1  0  0  0  0  0999 V2000
  131.6357  129.8669  157.4099 C   0  0  0  0  0  0  0  0  0  0  0  0
  131.1631  130.4342  156.0961 C   0  0  0  0  0  0  0  0  0  0  0  0
  130.5051  131.5738  155.9636 C   0  0  0  0  0  0  0  0  0  0  0  0
  130.1338  132.4630  157.0835 C   0  0  0  0  0  0  0  0  0  0  0  0
  129.3407  132.1350  158.1364 C   0  0  0  0  0  0  0  0  0  0  0  0
  129.2606  133.2481  158.9362 N   0  0  0  0  0  0  0  0  0  0  0  0
  128.7654  133.3239  159.7668 H   0  0  0  0  0  0  0  0  0  0  0  0
  129.9997  134.2273  158.3466 C   0  0  0  0  0  0  0  0  0  0  0  0
  130.1732  135.5107  158.8353 N   0  0  0  0  0  0  0  0  0  0  0  0
  129.5315  135.9094  160.0904 C   0  0  2  0  0  0  0  0  0  0  0  0
  129.8856  135.2699  160.8987 H   0  0  0  0  0  0  0  0  0  0  0  0
  128.0369  135.7696  159.9569 C   0  0  0  0  0  0  0  0  0  0  0  0
  127.2690  135.4692  161.0665 C   0  0  0  0  0  0  0  0  0  0  0  0
  125.8977  135.3452  160.9450 C   0  0  0  0  0  0  0  0  0  0  0  0
  125.2952  135.5128  159.7121 C   0  0  0  0  0  0  0  0  0  0  0  0
  126.0637  135.8080  158.6016 C   0  0  0  0  0  0  0  0  0  0  0  0
  127.4345  135.9362  158.7240 C   0  0  0  0  0  0  0  0  0  0  0  0
  129.8763  137.3441  160.3971 C   0  0  0  0  0  0  0  0  0  0  0  0
  129.9457  137.7725  161.7097 C   0  0  0  0  0  0  0  0  0  0  0  0
  130.2675  139.0863  161.9922 C   0  0  0  0  0  0  0  0  0  0  0  0
  130.5094  139.9766  160.9598 C   0  0  0  0  0  0  0  0  0  0  0  0
  130.8185  141.2628  161.2348 F   0  0  0  0  0  0  0  0  0  0  0  0
  130.4340  139.5480  159.6454 C   0  0  0  0  0  0  0  0  0  0  0  0
  130.1173  138.2322  159.3654 C   0  0  0  0  0  0  0  0  0  0  0  0
  130.5201  133.7555  157.2403 N   0  0  0  0  0  0  0  0  0  0  0  0
  131.0897  134.2504  156.6307 H   0  0  0  0  0  0  0  0  0  0  0  0
  130.1840  131.8429  154.5118 C   0  0  0  0  0  0  0  0  0  0  0  0
  131.1159  130.8981  153.7190 C   0  0  0  0  0  0  0  0  0  0  0  0
  131.3763  129.7778  154.7518 C   0  0  0  0  0  0  0  0  0  0  0  0
  132.1485  128.9214  157.2339 H   0  0  0  0  0  0  0  0  0  0  0  0
  132.3214  130.5696  157.8833 H   0  0  0  0  0  0  0  0  0  0  0  0
  130.7790  129.6997  158.0626 H   0  0  0  0  0  0  0  0  0  0  0  0
  128.8655  131.1811  158.3115 H   0  0  0  0  0  0  0  0  0  0  0  0
  130.7198  136.1459  158.3467 H   0  0  0  0  0  0  0  0  0  0  0  0
  127.7402  135.3346  162.0289 H   0  0  0  0  0  0  0  0  0  0  0  0
  125.2972  135.1149  161.8125 H   0  0  0  0  0  0  0  0  0  0  0  0
  124.2240  135.4132  159.6166 H   0  0  0  0  0  0  0  0  0  0  0  0
  125.5928  135.9389  157.6384 H   0  0  0  0  0  0  0  0  0  0  0  0
  128.0350  136.1669  157.8564 H   0  0  0  0  0  0  0  0  0  0  0  0
  129.7527  137.0788  162.5147 H   0  0  0  0  0  0  0  0  0  0  0  0
  130.3256  139.4198  163.0178 H   0  0  0  0  0  0  0  0  0  0  0  0
  130.6224  140.2416  158.8393 H   0  0  0  0  0  0  0  0  0  0  0  0
  130.0585  137.8976  158.3403 H   0  0  0  0  0  0  0  0  0  0  0  0
  130.3965  132.8825  154.2626 H   0  0  0  0  0  0  0  0  0  0  0  0
  129.1400  131.6092  154.3027 H   0  0  0  0  0  0  0  0  0  0  0  0
  132.0435  131.4021  153.4474 H   0  0  0  0  0  0  0  0  0  0  0  0
  130.6142  130.5051  152.8348 H   0  0  0  0  0  0  0  0  0  0  0  0
  130.6684  128.9608  154.6121 H   0  0  0  0  0  0  0  0  0  0  0  0
  132.3999  129.4129  154.6660 H   0  0  0  0  0  0  0  0  0  0  0  0
  1  2  1  0
  1 30  1  0
  1 31  1  0
  1 32  1  0
  2 29  1  0
  2  3  2  0
  3  4  1  0
  3 27  1  0
  4 25  1  0
  4  5  2  0
  5  6  1  0
  5 33  1  0
  6  7  1  0
  6  8  1  0
  8  9  1  0
  8 25  2  0
  9 10  1  0
  9 34  1  0
 10 11  1  1
 10 12  1  0
 10 18  1  0
 12 17  1  0
 12 13  2  0
 13 14  1  0
 13 35  1  0
 14 15  2  0
 14 36  1  0
 15 16  1  0
 15 37  1  0
 16 17  2  0
 16 38  1  0
 17 39  1  0
 18 24  1  0
 18 19  2  0
 19 20  1  0
 19 40  1  0
 20 21  2  0
 20 41  1  0
 21 22  1  0
 21 23  1  0
 23 24  2  0
 23 42  1  0
 24 43  1  0
 25 26  1  0
 27 28  1  0
 27 44  1  0
 27 45  1  0
 28 29  1  0
 28 46  1  0
 28 47  1  0
 29 48  1  0
 29 49  1  0
M  CHG  1  25   1
M  END
>  <DOCK_score>  (1) 
-57.754009

>  <SMILES>  (1) 
CC1=C(c2c[nH]c(N[C@H](c3ccccc3)c3ccc(F)cc3)[nH+]2)CCC1

$$$$
