Clc1ccccc1[C@H](c1ccccc1)[NH+]1CCN(C(c2ccccc2)c2ccccc2)CC1
     RDKit          3D

 63 67  0  0  1  0  0  0  0  0999 V2000
  129.9908  130.8649  160.3623 Cl  0  0  0  0  0  0  0  0  0  0  0  0
  130.3789  131.3263  158.7344 C   0  0  0  0  0  0  0  0  0  0  0  0
  130.8384  130.3783  157.8371 C   0  0  0  0  0  0  0  0  0  0  0  0
  131.1427  130.7453  156.5400 C   0  0  0  0  0  0  0  0  0  0  0  0
  130.9980  132.0614  156.1416 C   0  0  0  0  0  0  0  0  0  0  0  0
  130.5441  133.0097  157.0388 C   0  0  0  0  0  0  0  0  0  0  0  0
  130.2344  132.6428  158.3351 C   0  0  0  0  0  0  0  0  0  0  0  0
  129.7399  133.6771  159.3133 C   0  0  2  0  0  0  0  0  0  0  0  0
  129.5500  133.2042  160.2769 H   0  0  0  0  0  0  0  0  0  0  0  0
  128.4646  134.2900  158.7945 C   0  0  0  0  0  0  0  0  0  0  0  0
  127.2449  133.7267  159.1198 C   0  0  0  0  0  0  0  0  0  0  0  0
  126.0749  134.2915  158.6476 C   0  0  0  0  0  0  0  0  0  0  0  0
  126.1251  135.4138  157.8420 C   0  0  0  0  0  0  0  0  0  0  0  0
  127.3451  135.9743  157.5128 C   0  0  0  0  0  0  0  0  0  0  0  0
  128.5149  135.4120  157.9886 C   0  0  0  0  0  0  0  0  0  0  0  0
  130.7568  134.7249  159.4739 N   0  0  0  0  0  0  0  0  0  0  0  0
  130.9324  135.1624  158.5818 H   0  0  0  0  0  0  0  0  0  0  0  0
  131.9999  134.1271  159.9789 C   0  0  0  0  0  0  0  0  0  0  0  0
  133.0654  135.2152  160.1283 C   0  0  0  0  0  0  0  0  0  0  0  0
  132.5830  136.2445  161.0599 N   0  0  0  0  0  0  0  0  0  0  0  0
  133.6025  137.2801  161.2742 C   0  0  0  0  0  0  0  0  0  0  0  0
  132.9467  138.5283  161.8059 C   0  0  0  0  0  0  0  0  0  0  0  0
  132.4886  139.4950  160.9304 C   0  0  0  0  0  0  0  0  0  0  0  0
  131.8830  140.6380  161.4180 C   0  0  0  0  0  0  0  0  0  0  0  0
  131.7436  140.8185  162.7814 C   0  0  0  0  0  0  0  0  0  0  0  0
  132.2064  139.8542  163.6570 C   0  0  0  0  0  0  0  0  0  0  0  0
  132.8081  138.7093  163.1694 C   0  0  0  0  0  0  0  0  0  0  0  0
  134.6203  136.7847  162.2691 C   0  0  0  0  0  0  0  0  0  0  0  0
  135.9300  137.2204  162.1934 C   0  0  0  0  0  0  0  0  0  0  0  0
  136.8625  136.7692  163.1086 C   0  0  0  0  0  0  0  0  0  0  0  0
  136.4875  135.8754  164.0941 C   0  0  0  0  0  0  0  0  0  0  0  0
  135.1789  135.4357  164.1666 C   0  0  0  0  0  0  0  0  0  0  0  0
  134.2454  135.8901  163.2540 C   0  0  0  0  0  0  0  0  0  0  0  0
  131.3253  136.8346  160.5801 C   0  0  0  0  0  0  0  0  0  0  0  0
  130.2742  135.7331  160.4268 C   0  0  0  0  0  0  0  0  0  0  0  0
  130.9555  129.3511  158.1494 H   0  0  0  0  0  0  0  0  0  0  0  0
  131.4972  130.0046  155.8384 H   0  0  0  0  0  0  0  0  0  0  0  0
  131.2394  132.3484  155.1288 H   0  0  0  0  0  0  0  0  0  0  0  0
  130.4309  134.0375  156.7269 H   0  0  0  0  0  0  0  0  0  0  0  0
  127.2058  132.8476  159.7458 H   0  0  0  0  0  0  0  0  0  0  0  0
  125.1216  133.8538  158.9050 H   0  0  0  0  0  0  0  0  0  0  0  0
  125.2111  135.8530  157.4703 H   0  0  0  0  0  0  0  0  0  0  0  0
  127.3844  136.8510  156.8835 H   0  0  0  0  0  0  0  0  0  0  0  0
  129.4681  135.8496  157.7311 H   0  0  0  0  0  0  0  0  0  0  0  0
  131.8132  133.6656  160.9486 H   0  0  0  0  0  0  0  0  0  0  0  0
  132.3500  133.3698  159.2775 H   0  0  0  0  0  0  0  0  0  0  0  0
  133.2620  135.6678  159.1563 H   0  0  0  0  0  0  0  0  0  0  0  0
  133.9834  134.7744  160.5168 H   0  0  0  0  0  0  0  0  0  0  0  0
  134.0973  137.5039  160.3291 H   0  0  0  0  0  0  0  0  0  0  0  0
  132.6007  139.3558  159.8654 H   0  0  0  0  0  0  0  0  0  0  0  0
  131.5211  141.3912  160.7339 H   0  0  0  0  0  0  0  0  0  0  0  0
  131.2729  141.7127  163.1624 H   0  0  0  0  0  0  0  0  0  0  0  0
  132.0976  139.9952  164.7223 H   0  0  0  0  0  0  0  0  0  0  0  0
  133.1697  137.9560  163.8536 H   0  0  0  0  0  0  0  0  0  0  0  0
  136.2238  137.9159  161.4210 H   0  0  0  0  0  0  0  0  0  0  0  0
  137.8847  137.1131  163.0521 H   0  0  0  0  0  0  0  0  0  0  0  0
  137.2166  135.5208  164.8075 H   0  0  0  0  0  0  0  0  0  0  0  0
  134.8859  134.7371  164.9366 H   0  0  0  0  0  0  0  0  0  0  0  0
  133.2231  135.5465  163.3107 H   0  0  0  0  0  0  0  0  0  0  0  0
  131.4933  137.3140  159.6156 H   0  0  0  0  0  0  0  0  0  0  0  0
  130.9739  137.5753  161.2984 H   0  0  0  0  0  0  0  0  0  0  0  0
  129.3449  136.1667  160.0574 H   0  0  0  0  0  0  0  0  0  0  0  0
  130.0967  135.2632  161.3942 H   0  0  0  0  0  0  0  0  0  0  0  0
  1  2  1  0
  2  7  2  0
  2  3  1  0
  3  4  2  0
  3 36  1  0
  4  5  1  0
  4 37  1  0
  5  6  2  0
  5 38  1  0
  6  7  1  0
  6 39  1  0
  7  8  1  0
  8  9  1  1
  8 10  1  0
  8 16  1  0
 10 15  1  0
 10 11  2  0
 11 12  1  0
 11 40  1  0
 12 13  2  0
 12 41  1  0
 13 14  1  0
 13 42  1  0
 14 15  2  0
 14 43  1  0
 15 44  1  0
 16 17  1  0
 16 35  1  0
 16 18  1  0
 18 19  1  0
 18 45  1  0
 18 46  1  0
 19 20  1  0
 19 47  1  0
 19 48  1  0
 20 21  1  0
 20 34  1  0
 21 22  1  0
 21 28  1  0
 21 49  1  0
 22 27  1  0
 22 23  2  0
 23 24  1  0
 23 50  1  0
 24 25  2  0
 24 51  1  0
 25 26  1  0
 25 52  1  0
 26 27  2  0
 26 53  1  0
 27 54  1  0
 28 33  1  0
 28 29  2  0
 29 30  1  0
 29 55  1  0
 30 31  2  0
 30 56  1  0
 31 32  1  0
 31 57  1  0
 32 33  2  0
 32 58  1  0
 33 59  1  0
 34 35  1  0
 34 60  1  0
 34 61  1  0
 35 62  1  0
 35 63  1  0
M  CHG  1  16   1
M  END
>  <DOCK_score>  (1) 
-56.180901

>  <SMILES>  (1) 
Clc1ccccc1[C@H](c1ccccc1)[NH+]1CCN(C(c2ccccc2)c2ccccc2)CC1

$$$$
