O[C@@]1(C2CCc3ccccc3C2)C=C([NH2+]C(Cc2ccccc2)Cc2cccnc2)CCC1
     RDKit          3D

 68 72  0  0  1  0  0  0  0  0999 V2000
  133.9196  135.6279  162.1713 O   0  0  0  0  0  0  0  0  0  0  0  0
  132.5318  135.9033  161.9707 C   0  0  1  0  0  0  0  0  0  0  0  0
  132.2440  137.3582  162.3466 C   0  0  2  0  0  0  0  0  0  0  0  0
  133.4977  138.2094  162.1133 C   0  0  0  0  0  0  0  0  0  0  0  0
  133.1161  139.6805  162.2648 C   0  0  0  0  0  0  0  0  0  0  0  0
  132.3819  139.9062  163.5607 C   0  0  0  0  0  0  0  0  0  0  0  0
  132.2953  141.2084  164.0367 C   0  0  0  0  0  0  0  0  0  0  0  0
  131.6307  141.4815  165.2142 C   0  0  0  0  0  0  0  0  0  0  0  0
  131.0446  140.4516  165.9265 C   0  0  0  0  0  0  0  0  0  0  0  0
  131.1315  139.1575  165.4566 C   0  0  0  0  0  0  0  0  0  0  0  0
  131.8030  138.8801  164.2727 C   0  0  0  0  0  0  0  0  0  0  0  0
  131.8717  137.4433  163.8253 C   0  0  0  0  0  0  0  0  0  0  0  0
  132.1848  135.6845  160.5272 C   0  0  0  0  0  0  0  0  0  0  0  0
  131.5650  134.6427  160.0784 C   0  0  0  0  0  0  0  0  0  0  0  0
  131.3184  134.5665  158.7045 N   0  0  0  0  0  0  0  0  0  0  0  0
  131.6864  135.3892  158.2507 H   0  0  0  0  0  0  0  0  0  0  0  0
  131.7669  133.7452  158.3272 H   0  0  0  0  0  0  0  0  0  0  0  0
  129.8704  134.4849  158.4707 C   0  0  1  0  0  0  0  0  0  0  0  0
  129.2581  135.8835  158.5704 C   0  0  0  0  0  0  0  0  0  0  0  0
  127.7770  135.7665  158.8228 C   0  0  0  0  0  0  0  0  0  0  0  0
  126.8965  135.7149  157.7584 C   0  0  0  0  0  0  0  0  0  0  0  0
  125.5382  135.6032  157.9900 C   0  0  0  0  0  0  0  0  0  0  0  0
  125.0597  135.5528  159.2858 C   0  0  0  0  0  0  0  0  0  0  0  0
  125.9399  135.6091  160.3503 C   0  0  0  0  0  0  0  0  0  0  0  0
  127.2985  135.7166  160.1188 C   0  0  0  0  0  0  0  0  0  0  0  0
  129.6105  133.9127  157.0757 C   0  0  0  0  0  0  0  0  0  0  0  0
  130.2135  132.5352  156.9775 C   0  0  0  0  0  0  0  0  0  0  0  0
  130.6745  132.0556  155.7607 C   0  0  0  0  0  0  0  0  0  0  0  0
  131.2216  130.7825  155.7177 C   0  0  0  0  0  0  0  0  0  0  0  0
  131.2890  130.0388  156.8809 C   0  0  0  0  0  0  0  0  0  0  0  0
  130.8408  130.5272  158.0206 N   0  0  0  0  0  0  0  0  0  0  0  0
  130.3194  131.7361  158.0999 C   0  0  0  0  0  0  0  0  0  0  0  0
  131.0908  133.5110  160.9423 C   0  0  0  0  0  0  0  0  0  0  0  0
  131.7985  133.5508  162.2984 C   0  0  0  0  0  0  0  0  0  0  0  0
  131.6974  134.9758  162.8569 C   0  0  0  0  0  0  0  0  0  0  0  0
  134.2006  135.6761  163.0953 H   0  0  0  0  0  0  0  0  0  0  0  0
  131.4232  137.7394  161.7391 H   0  0  0  0  0  0  0  0  0  0  0  0
  133.8807  138.0311  161.1084 H   0  0  0  0  0  0  0  0  0  0  0  0
  134.2601  137.9503  162.8480 H   0  0  0  0  0  0  0  0  0  0  0  0
  132.4754  139.9733  161.4331 H   0  0  0  0  0  0  0  0  0  0  0  0
  134.0201  140.2894  162.2531 H   0  0  0  0  0  0  0  0  0  0  0  0
  132.7523  142.0134  163.4805 H   0  0  0  0  0  0  0  0  0  0  0  0
  131.5679  142.4963  165.5780 H   0  0  0  0  0  0  0  0  0  0  0  0
  130.5212  140.6593  166.8480 H   0  0  0  0  0  0  0  0  0  0  0  0
  130.6698  138.3542  166.0113 H   0  0  0  0  0  0  0  0  0  0  0  0
  132.6228  136.9186  164.4159 H   0  0  0  0  0  0  0  0  0  0  0  0
  130.9009  136.9723  163.9793 H   0  0  0  0  0  0  0  0  0  0  0  0
  132.4727  136.4448  159.8163 H   0  0  0  0  0  0  0  0  0  0  0  0
  129.4174  133.8357  159.2198 H   0  0  0  0  0  0  0  0  0  0  0  0
  129.7249  136.4267  159.3921 H   0  0  0  0  0  0  0  0  0  0  0  0
  129.4263  136.4211  157.6373 H   0  0  0  0  0  0  0  0  0  0  0  0
  127.2699  135.7585  156.7460 H   0  0  0  0  0  0  0  0  0  0  0  0
  124.8505  135.5587  157.1582 H   0  0  0  0  0  0  0  0  0  0  0  0
  123.9983  135.4688  159.4666 H   0  0  0  0  0  0  0  0  0  0  0  0
  125.5662  135.5698  161.3627 H   0  0  0  0  0  0  0  0  0  0  0  0
  127.9861  135.7610  160.9503 H   0  0  0  0  0  0  0  0  0  0  0  0
  128.5361  133.8522  156.9022 H   0  0  0  0  0  0  0  0  0  0  0  0
  130.0636  134.5619  156.3264 H   0  0  0  0  0  0  0  0  0  0  0  0
  130.6091  132.6596  154.8678 H   0  0  0  0  0  0  0  0  0  0  0  0
  131.5909  130.3771  154.7872 H   0  0  0  0  0  0  0  0  0  0  0  0
  131.7136  129.0461  156.8558 H   0  0  0  0  0  0  0  0  0  0  0  0
  129.9671  132.1040  159.0521 H   0  0  0  0  0  0  0  0  0  0  0  0
  131.3086  132.5639  160.4488 H   0  0  0  0  0  0  0  0  0  0  0  0
  130.0149  133.5982  161.0936 H   0  0  0  0  0  0  0  0  0  0  0  0
  132.8469  133.2800  162.1727 H   0  0  0  0  0  0  0  0  0  0  0  0
  131.3199  132.8531  162.9856 H   0  0  0  0  0  0  0  0  0  0  0  0
  132.0831  134.9982  163.8762 H   0  0  0  0  0  0  0  0  0  0  0  0
  130.6567  135.2996  162.8485 H   0  0  0  0  0  0  0  0  0  0  0  0
  1 36  1  0
  2  1  1  6
  2 35  1  0
  2  3  1  0
  2 13  1  0
  3 12  1  0
  3  4  1  0
  3 37  1  6
  4  5  1  0
  4 38  1  0
  4 39  1  0
  5  6  1  0
  5 40  1  0
  5 41  1  0
  6 11  2  0
  6  7  1  0
  7  8  2  0
  7 42  1  0
  8  9  1  0
  8 43  1  0
  9 10  2  0
  9 44  1  0
 10 11  1  0
 10 45  1  0
 11 12  1  0
 12 46  1  0
 12 47  1  0
 13 14  2  0
 13 48  1  0
 14 15  1  0
 14 33  1  0
 15 16  1  0
 15 17  1  0
 15 18  1  0
 18 19  1  0
 18 26  1  0
 18 49  1  1
 19 20  1  0
 19 50  1  0
 19 51  1  0
 20 25  1  0
 20 21  2  0
 21 22  1  0
 21 52  1  0
 22 23  2  0
 22 53  1  0
 23 24  1  0
 23 54  1  0
 24 25  2  0
 24 55  1  0
 25 56  1  0
 26 27  1  0
 26 57  1  0
 26 58  1  0
 27 32  1  0
 27 28  2  0
 28 29  1  0
 28 59  1  0
 29 30  2  0
 29 60  1  0
 30 31  1  0
 30 61  1  0
 31 32  2  0
 32 62  1  0
 33 34  1  0
 33 63  1  0
 33 64  1  0
 34 35  1  0
 34 65  1  0
 34 66  1  0
 35 67  1  0
 35 68  1  0
M  CHG  1  15   1
M  END
>  <DOCK_score>  (1) 
-57.090961

>  <SMILES>  (1) 
O[C@@]1(C2CCc3ccccc3C2)C=C([NH2+]C(Cc2ccccc2)Cc2cccnc2)CCC1

$$$$
