COc1cccc2c1OC[C@H](NC(N[C@H]1CCC(=O)NC1)=[NH+]CCCl)C2
     RDKit          3D

 52 54  0  0  1  0  0  0  0  0999 V2000
  133.1725  135.8333  165.7884 C   0  0  0  0  0  0  0  0  0  0  0  0
  134.1275  135.2725  164.8853 O   0  0  0  0  0  0  0  0  0  0  0  0
  134.3121  135.9181  163.7027 C   0  0  0  0  0  0  0  0  0  0  0  0
  135.2687  136.9133  163.6009 C   0  0  0  0  0  0  0  0  0  0  0  0
  135.4552  137.5693  162.3984 C   0  0  0  0  0  0  0  0  0  0  0  0
  134.6888  137.2308  161.3004 C   0  0  0  0  0  0  0  0  0  0  0  0
  133.7306  136.2339  161.3940 C   0  0  0  0  0  0  0  0  0  0  0  0
  133.5364  135.5763  162.5941 C   0  0  0  0  0  0  0  0  0  0  0  0
  132.6036  134.5971  162.7325 O   0  0  0  0  0  0  0  0  0  0  0  0
  132.0852  133.9967  161.5446 C   0  0  0  0  0  0  0  0  0  0  0  0
  131.6671  135.1146  160.5809 C   0  0  2  0  0  0  0  0  0  0  0  0
  130.9674  135.7861  161.0785 H   0  0  0  0  0  0  0  0  0  0  0  0
  131.0343  134.5329  159.3945 N   0  0  0  0  0  0  0  0  0  0  0  0
  129.6756  134.3240  159.3729 C   0  0  0  0  0  0  0  0  0  0  0  0
  128.9108  134.6610  160.4645 N   0  0  0  0  0  0  0  0  0  0  0  0
  127.4630  134.4384  160.4415 C   0  0  1  0  0  0  0  0  0  0  0  0
  127.0962  134.5235  159.4186 H   0  0  0  0  0  0  0  0  0  0  0  0
  127.1488  133.0397  160.9860 C   0  0  0  0  0  0  0  0  0  0  0  0
  125.6570  132.7642  160.7821 C   0  0  0  0  0  0  0  0  0  0  0  0
  124.8496  133.9289  161.2795 C   0  0  0  0  0  0  0  0  0  0  0  0
  123.6684  133.7580  161.4946 O   0  0  0  0  0  0  0  0  0  0  0  0
  125.3621  135.1404  161.4981 N   0  0  0  0  0  0  0  0  0  0  0  0
  126.7702  135.4754  161.3264 C   0  0  0  0  0  0  0  0  0  0  0  0
  129.1124  133.8067  158.3174 N   0  0  0  0  0  0  0  0  0  0  0  0
  128.3109  133.2684  158.4099 H   0  0  0  0  0  0  0  0  0  0  0  0
  129.6904  134.0381  156.9912 C   0  0  0  0  0  0  0  0  0  0  0  0
  130.7031  132.9350  156.6766 C   0  0  0  0  0  0  0  0  0  0  0  0
  129.8746  131.3338  156.7002 Cl  0  0  0  0  0  0  0  0  0  0  0  0
  132.9220  135.8885  160.1691 C   0  0  0  0  0  0  0  0  0  0  0  0
  132.1925  135.8574  165.3119 H   0  0  0  0  0  0  0  0  0  0  0  0
  133.1232  135.2229  166.6901 H   0  0  0  0  0  0  0  0  0  0  0  0
  133.4734  136.8473  166.0519 H   0  0  0  0  0  0  0  0  0  0  0  0
  135.8686  137.1767  164.4594 H   0  0  0  0  0  0  0  0  0  0  0  0
  136.2003  138.3470  162.3175 H   0  0  0  0  0  0  0  0  0  0  0  0
  134.8370  137.7463  160.3631 H   0  0  0  0  0  0  0  0  0  0  0  0
  131.2197  133.3820  161.7916 H   0  0  0  0  0  0  0  0  0  0  0  0
  132.8535  133.3792  161.0793 H   0  0  0  0  0  0  0  0  0  0  0  0
  131.5740  134.2950  158.6244 H   0  0  0  0  0  0  0  0  0  0  0  0
  129.3298  135.0462  161.2500 H   0  0  0  0  0  0  0  0  0  0  0  0
  127.7363  132.2959  160.4478 H   0  0  0  0  0  0  0  0  0  0  0  0
  127.3879  132.9973  162.0486 H   0  0  0  0  0  0  0  0  0  0  0  0
  125.4583  132.6138  159.7210 H   0  0  0  0  0  0  0  0  0  0  0  0
  125.3760  131.8663  161.3326 H   0  0  0  0  0  0  0  0  0  0  0  0
  124.7600  135.8430  161.7894 H   0  0  0  0  0  0  0  0  0  0  0  0
  127.2564  135.4991  162.3017 H   0  0  0  0  0  0  0  0  0  0  0  0
  126.8496  136.4575  160.8602 H   0  0  0  0  0  0  0  0  0  0  0  0
  128.8981  134.0278  156.2428 H   0  0  0  0  0  0  0  0  0  0  0  0
  130.1914  135.0060  156.9769 H   0  0  0  0  0  0  0  0  0  0  0  0
  131.1332  133.1072  155.6900 H   0  0  0  0  0  0  0  0  0  0  0  0
  131.4955  132.9451  157.4252 H   0  0  0  0  0  0  0  0  0  0  0  0
  133.5233  135.2742  159.4990 H   0  0  0  0  0  0  0  0  0  0  0  0
  132.6307  136.8052  159.6564 H   0  0  0  0  0  0  0  0  0  0  0  0
  1  2  1  0
  1 30  1  0
  1 31  1  0
  1 32  1  0
  2  3  1  0
  3  8  2  0
  3  4  1  0
  4  5  2  0
  4 33  1  0
  5  6  1  0
  5 34  1  0
  6  7  2  0
  6 35  1  0
  7 29  1  0
  7  8  1  0
  8  9  1  0
  9 10  1  0
 10 11  1  0
 10 36  1  0
 10 37  1  0
 11 12  1  1
 11 13  1  0
 11 29  1  0
 13 38  1  0
 14 13  1  0
 14 15  1  0
 14 24  2  0
 15 16  1  0
 15 39  1  0
 16 17  1  6
 16 23  1  0
 16 18  1  0
 18 19  1  0
 18 40  1  0
 18 41  1  0
 19 20  1  0
 19 42  1  0
 19 43  1  0
 20 21  2  0
 20 22  1  0
 22 23  1  0
 22 44  1  0
 23 45  1  0
 23 46  1  0
 24 25  1  0
 24 26  1  0
 26 27  1  0
 26 47  1  0
 26 48  1  0
 27 28  1  0
 27 49  1  0
 27 50  1  0
 29 51  1  0
 29 52  1  0
M  CHG  1  24   1
M  END
>  <DOCK_score>  (1) 
-44.603523

>  <SMILES>  (1) 
COc1cccc2c1OC[C@H](NC(N[C@H]1CCC(=O)NC1)=[NH+]CCCl)C2

$$$$
