O=C1CC[C@H](Nc2c(Cl)cccc2N2CC[NH+](C(c3ccccc3)c3ccccc3)CC2)CN1
     RDKit          3D

 66 70  0  0  1  0  0  0  0  0999 V2000
  129.3200  141.4150  165.3228 O   0  0  0  0  0  0  0  0  0  0  0  0
  130.2830  140.8612  164.8359 C   0  0  0  0  0  0  0  0  0  0  0  0
  130.0433  139.7772  163.8245 C   0  0  0  0  0  0  0  0  0  0  0  0
  131.3060  138.9270  163.6632 C   0  0  0  0  0  0  0  0  0  0  0  0
  132.5009  139.8671  163.4632 C   0  0  2  0  0  0  0  0  0  0  0  0
  132.2862  140.5642  162.6531 H   0  0  0  0  0  0  0  0  0  0  0  0
  133.6967  139.0806  163.1324 N   0  0  0  0  0  0  0  0  0  0  0  0
  134.2068  139.4453  161.8796 C   0  0  0  0  0  0  0  0  0  0  0  0
  135.1512  140.4571  161.7804 C   0  0  0  0  0  0  0  0  0  0  0  0
  135.7028  141.2731  163.2099 Cl  0  0  0  0  0  0  0  0  0  0  0  0
  135.6496  140.8187  160.5414 C   0  0  0  0  0  0  0  0  0  0  0  0
  135.2128  140.1711  159.4005 C   0  0  0  0  0  0  0  0  0  0  0  0
  134.2763  139.1580  159.4913 C   0  0  0  0  0  0  0  0  0  0  0  0
  133.7716  138.7887  160.7293 C   0  0  0  0  0  0  0  0  0  0  0  0
  132.8231  137.7628  160.8230 N   0  0  0  0  0  0  0  0  0  0  0  0
  131.5815  138.1281  160.1265 C   0  0  0  0  0  0  0  0  0  0  0  0
  130.5529  137.0089  160.3027 C   0  0  0  0  0  0  0  0  0  0  0  0
  131.0922  135.7574  159.7545 N   0  0  0  0  0  0  0  0  0  0  0  0
  131.3029  135.8826  158.7756 H   0  0  0  0  0  0  0  0  0  0  0  0
  130.0975  134.6874  159.9080 C   0  0  0  0  0  0  0  0  0  0  0  0
  128.8398  135.0603  159.1662 C   0  0  0  0  0  0  0  0  0  0  0  0
  127.6136  134.6019  159.6102 C   0  0  0  0  0  0  0  0  0  0  0  0
  126.4598  134.9472  158.9319 C   0  0  0  0  0  0  0  0  0  0  0  0
  126.5328  135.7441  157.8048 C   0  0  0  0  0  0  0  0  0  0  0  0
  127.7594  136.1983  157.3577 C   0  0  0  0  0  0  0  0  0  0  0  0
  128.9130  135.8562  158.0382 C   0  0  0  0  0  0  0  0  0  0  0  0
  130.6504  133.4032  159.3454 C   0  0  0  0  0  0  0  0  0  0  0  0
  130.4407  133.0838  158.0169 C   0  0  0  0  0  0  0  0  0  0  0  0
  130.9513  131.9078  157.5000 C   0  0  0  0  0  0  0  0  0  0  0  0
  131.6644  131.0473  158.3136 C   0  0  0  0  0  0  0  0  0  0  0  0
  131.8695  131.3642  159.6434 C   0  0  0  0  0  0  0  0  0  0  0  0
  131.3623  132.5421  160.1594 C   0  0  0  0  0  0  0  0  0  0  0  0
  132.3183  135.3927  160.4764 C   0  0  0  0  0  0  0  0  0  0  0  0
  133.3614  136.4985  160.3015 C   0  0  0  0  0  0  0  0  0  0  0  0
  132.7381  140.6405  164.7607 C   0  0  0  0  0  0  0  0  0  0  0  0
  131.4979  141.2479  165.2267 N   0  0  0  0  0  0  0  0  0  0  0  0
  129.7849  140.2271  162.8660 H   0  0  0  0  0  0  0  0  0  0  0  0
  129.2217  139.1450  164.1611 H   0  0  0  0  0  0  0  0  0  0  0  0
  131.2018  138.2761  162.7952 H   0  0  0  0  0  0  0  0  0  0  0  0
  131.4596  138.3238  164.5580 H   0  0  0  0  0  0  0  0  0  0  0  0
  134.4001  139.1729  163.8499 H   0  0  0  0  0  0  0  0  0  0  0  0
  136.3815  141.6091  160.4651 H   0  0  0  0  0  0  0  0  0  0  0  0
  135.6045  140.4572  158.4356 H   0  0  0  0  0  0  0  0  0  0  0  0
  133.9373  138.6544  158.5980 H   0  0  0  0  0  0  0  0  0  0  0  0
  131.7877  138.2689  159.0655 H   0  0  0  0  0  0  0  0  0  0  0  0
  131.1875  139.0537  160.5464 H   0  0  0  0  0  0  0  0  0  0  0  0
  129.6361  137.2716  159.7750 H   0  0  0  0  0  0  0  0  0  0  0  0
  130.3369  136.8778  161.3631 H   0  0  0  0  0  0  0  0  0  0  0  0
  129.8692  134.5524  160.9652 H   0  0  0  0  0  0  0  0  0  0  0  0
  127.5569  133.9765  160.4888 H   0  0  0  0  0  0  0  0  0  0  0  0
  125.5014  134.5921  159.2811 H   0  0  0  0  0  0  0  0  0  0  0  0
  125.6314  136.0118  157.2733 H   0  0  0  0  0  0  0  0  0  0  0  0
  127.8166  136.8207  156.4768 H   0  0  0  0  0  0  0  0  0  0  0  0
  129.8714  136.2109  157.6889 H   0  0  0  0  0  0  0  0  0  0  0  0
  129.8806  133.7544  157.3822 H   0  0  0  0  0  0  0  0  0  0  0  0
  130.7907  131.6599  156.4612 H   0  0  0  0  0  0  0  0  0  0  0  0
  132.0609  130.1272  157.9104 H   0  0  0  0  0  0  0  0  0  0  0  0
  132.4263  130.6917  160.2791 H   0  0  0  0  0  0  0  0  0  0  0  0
  131.5226  132.7897  161.1982 H   0  0  0  0  0  0  0  0  0  0  0  0
  132.0932  135.2698  161.5357 H   0  0  0  0  0  0  0  0  0  0  0  0
  132.7101  134.4571  160.0773 H   0  0  0  0  0  0  0  0  0  0  0  0
  133.5968  136.6125  159.2433 H   0  0  0  0  0  0  0  0  0  0  0  0
  134.2663  136.2352  160.8491 H   0  0  0  0  0  0  0  0  0  0  0  0
  133.1140  139.9583  165.5233 H   0  0  0  0  0  0  0  0  0  0  0  0
  133.4778  141.4216  164.5846 H   0  0  0  0  0  0  0  0  0  0  0  0
  131.5600  141.9792  165.8609 H   0  0  0  0  0  0  0  0  0  0  0  0
  1  2  2  0
  2 36  1  0
  2  3  1  0
  3  4  1  0
  3 37  1  0
  3 38  1  0
  4  5  1  0
  4 39  1  0
  4 40  1  0
  5  6  1  6
  5  7  1  0
  5 35  1  0
  7  8  1  0
  7 41  1  0
  8 14  1  0
  8  9  2  0
  9 10  1  0
  9 11  1  0
 11 12  2  0
 11 42  1  0
 12 13  1  0
 12 43  1  0
 13 14  2  0
 13 44  1  0
 14 15  1  0
 15 34  1  0
 15 16  1  0
 16 17  1  0
 16 45  1  0
 16 46  1  0
 17 18  1  0
 17 47  1  0
 17 48  1  0
 18 19  1  0
 18 20  1  0
 18 33  1  0
 20 21  1  0
 20 27  1  0
 20 49  1  0
 21 26  1  0
 21 22  2  0
 22 23  1  0
 22 50  1  0
 23 24  2  0
 23 51  1  0
 24 25  1  0
 24 52  1  0
 25 26  2  0
 25 53  1  0
 26 54  1  0
 27 32  1  0
 27 28  2  0
 28 29  1  0
 28 55  1  0
 29 30  2  0
 29 56  1  0
 30 31  1  0
 30 57  1  0
 31 32  2  0
 31 58  1  0
 32 59  1  0
 33 34  1  0
 33 60  1  0
 33 61  1  0
 34 62  1  0
 34 63  1  0
 35 36  1  0
 35 64  1  0
 35 65  1  0
 36 66  1  0
M  CHG  1  18   1
M  END
>  <DOCK_score>  (1) 
-57.468071

>  <SMILES>  (1) 
O=C1CC[C@H](Nc2c(Cl)cccc2N2CC[NH+](C(c3ccccc3)c3ccccc3)CC2)CN1

$$$$
