O=C1CC[C@H](NC(NC2CCC2)=[NH+][C@@H]2CCc3ccccc3OC2)CN1
     RDKit          3D

 55 58  0  0  1  0  0  0  0  0999 V2000
  124.2138  134.1400  161.0067 O   0  0  0  0  0  0  0  0  0  0  0  0
  125.3900  134.3389  160.7878 C   0  0  0  0  0  0  0  0  0  0  0  0
  126.2108  133.2097  160.2342 C   0  0  0  0  0  0  0  0  0  0  0  0
  127.7001  133.5005  160.4365 C   0  0  0  0  0  0  0  0  0  0  0  0
  127.9863  134.9251  159.9467 C   0  0  2  0  0  0  0  0  0  0  0  0
  127.6075  135.0487  158.9323 H   0  0  0  0  0  0  0  0  0  0  0  0
  129.4305  135.1704  159.9655 N   0  0  0  0  0  0  0  0  0  0  0  0
  130.2706  134.3866  159.2105 C   0  0  0  0  0  0  0  0  0  0  0  0
  129.8226  133.8335  158.0343 N   0  0  0  0  0  0  0  0  0  0  0  0
  130.7178  132.9982  157.2299 C   0  0  0  0  0  0  0  0  0  0  0  0
  130.1324  132.6068  155.8628 C   0  0  0  0  0  0  0  0  0  0  0  0
  130.7467  131.2149  156.0863 C   0  0  0  0  0  0  0  0  0  0  0  0
  130.6601  131.5052  157.5940 C   0  0  0  0  0  0  0  0  0  0  0  0
  131.4919  134.1679  159.6098 N   0  0  0  0  0  0  0  0  0  0  0  0
  132.0847  133.6148  159.0772 H   0  0  0  0  0  0  0  0  0  0  0  0
  131.9693  134.7573  160.8633 C   0  0  2  0  0  0  0  0  0  0  0  0
  131.1244  134.8601  161.5441 H   0  0  0  0  0  0  0  0  0  0  0  0
  132.5295  136.1408  160.5690 C   0  0  0  0  0  0  0  0  0  0  0  0
  132.8466  136.8856  161.8658 C   0  0  0  0  0  0  0  0  0  0  0  0
  134.2166  136.4537  162.3524 C   0  0  0  0  0  0  0  0  0  0  0  0
  135.2660  137.3500  162.3460 C   0  0  0  0  0  0  0  0  0  0  0  0
  136.5082  136.9528  162.8089 C   0  0  0  0  0  0  0  0  0  0  0  0
  136.6897  135.6694  163.2912 C   0  0  0  0  0  0  0  0  0  0  0  0
  135.6389  134.7726  163.2955 C   0  0  0  0  0  0  0  0  0  0  0  0
  134.3965  135.1663  162.8144 C   0  0  0  0  0  0  0  0  0  0  0  0
  133.3683  134.2747  162.7870 O   0  0  0  0  0  0  0  0  0  0  0  0
  132.9802  133.8179  161.4871 C   0  0  0  0  0  0  0  0  0  0  0  0
  127.2858  135.9136  160.8800 C   0  0  0  0  0  0  0  0  0  0  0  0
  125.8851  135.5488  161.0510 N   0  0  0  0  0  0  0  0  0  0  0  0
  125.9491  132.2854  160.7493 H   0  0  0  0  0  0  0  0  0  0  0  0
  126.0057  133.1012  159.1692 H   0  0  0  0  0  0  0  0  0  0  0  0
  128.2940  132.7889  159.8627 H   0  0  0  0  0  0  0  0  0  0  0  0
  127.9498  133.4188  161.4943 H   0  0  0  0  0  0  0  0  0  0  0  0
  129.7940  135.8857  160.5105 H   0  0  0  0  0  0  0  0  0  0  0  0
  128.9137  133.9963  157.7371 H   0  0  0  0  0  0  0  0  0  0  0  0
  131.7314  133.3953  157.1748 H   0  0  0  0  0  0  0  0  0  0  0  0
  129.0426  132.6045  155.8389 H   0  0  0  0  0  0  0  0  0  0  0  0
  130.5739  133.1499  155.0271 H   0  0  0  0  0  0  0  0  0  0  0  0
  131.7683  131.1242  155.7171 H   0  0  0  0  0  0  0  0  0  0  0  0
  130.1040  130.3967  155.7615 H   0  0  0  0  0  0  0  0  0  0  0  0
  131.5274  131.1588  158.1559 H   0  0  0  0  0  0  0  0  0  0  0  0
  129.7151  131.2020  158.0447 H   0  0  0  0  0  0  0  0  0  0  0  0
  131.7963  136.7106  159.9983 H   0  0  0  0  0  0  0  0  0  0  0  0
  133.4418  136.0401  159.9811 H   0  0  0  0  0  0  0  0  0  0  0  0
  132.0975  136.6425  162.6196 H   0  0  0  0  0  0  0  0  0  0  0  0
  132.8464  137.9597  161.6801 H   0  0  0  0  0  0  0  0  0  0  0  0
  135.1197  138.3546  161.9775 H   0  0  0  0  0  0  0  0  0  0  0  0
  137.3357  137.6468  162.7970 H   0  0  0  0  0  0  0  0  0  0  0  0
  137.6577  135.3658  163.6617 H   0  0  0  0  0  0  0  0  0  0  0  0
  135.7824  133.7703  163.6713 H   0  0  0  0  0  0  0  0  0  0  0  0
  132.5403  132.8243  161.5731 H   0  0  0  0  0  0  0  0  0  0  0  0
  133.8619  133.7652  160.8485 H   0  0  0  0  0  0  0  0  0  0  0  0
  127.7814  135.9055  161.8508 H   0  0  0  0  0  0  0  0  0  0  0  0
  127.3448  136.9151  160.4538 H   0  0  0  0  0  0  0  0  0  0  0  0
  125.2748  136.2288  161.3765 H   0  0  0  0  0  0  0  0  0  0  0  0
  1  2  2  0
  2 29  1  0
  2  3  1  0
  3  4  1  0
  3 30  1  0
  3 31  1  0
  4  5  1  0
  4 32  1  0
  4 33  1  0
  5  6  1  6
  5  7  1  0
  5 28  1  0
  7 34  1  0
  8  7  1  0
  8  9  1  0
  8 14  2  0
  9 10  1  0
  9 35  1  0
 10 13  1  0
 10 11  1  0
 10 36  1  0
 11 12  1  0
 11 37  1  0
 11 38  1  0
 12 13  1  0
 12 39  1  0
 12 40  1  0
 13 41  1  0
 13 42  1  0
 14 15  1  0
 14 16  1  0
 16 17  1  1
 16 27  1  0
 16 18  1  0
 18 19  1  0
 18 43  1  0
 18 44  1  0
 19 20  1  0
 19 45  1  0
 19 46  1  0
 20 25  2  0
 20 21  1  0
 21 22  2  0
 21 47  1  0
 22 23  1  0
 22 48  1  0
 23 24  2  0
 23 49  1  0
 24 25  1  0
 24 50  1  0
 25 26  1  0
 26 27  1  0
 27 51  1  0
 27 52  1  0
 28 29  1  0
 28 53  1  0
 28 54  1  0
 29 55  1  0
M  CHG  1  14   1
M  END
>  <DOCK_score>  (1) 
-43.209549

>  <SMILES>  (1) 
O=C1CC[C@H](NC(NC2CCC2)=[NH+][C@@H]2CCc3ccccc3OC2)CN1

$$$$
