O[C@@H]1C[C@H]1NC(NC1CC1)=[NH+][C@H]1COc2cc(Cl)ccc2C1
     RDKit          3D

 43 46  0  0  1  0  0  0  0  0999 V2000
  125.7742  134.6910  162.1414 O   0  0  0  0  0  0  0  0  0  0  0  0
  127.0564  135.2764  162.3773 C   0  0  2  0  0  0  0  0  0  0  0  0
  127.6057  134.8772  163.2299 H   0  0  0  0  0  0  0  0  0  0  0  0
  127.2220  136.7646  162.0636 C   0  0  0  0  0  0  0  0  0  0  0  0
  127.8679  135.7152  161.1568 C   0  0  1  0  0  0  0  0  0  0  0  0
  127.4241  135.5571  160.1740 H   0  0  0  0  0  0  0  0  0  0  0  0
  129.3239  135.5672  161.2238 N   0  0  0  0  0  0  0  0  0  0  0  0
  129.9768  134.7718  160.3121 C   0  0  0  0  0  0  0  0  0  0  0  0
  131.2681  135.0664  159.9431 N   0  0  0  0  0  0  0  0  0  0  0  0
  132.1671  135.7304  160.8903 C   0  0  0  0  0  0  0  0  0  0  0  0
  133.5190  136.2135  160.3612 C   0  0  0  0  0  0  0  0  0  0  0  0
  133.4491  134.9934  161.2828 C   0  0  0  0  0  0  0  0  0  0  0  0
  129.3716  133.7386  159.7974 N   0  0  0  0  0  0  0  0  0  0  0  0
  128.4606  133.5309  160.0575 H   0  0  0  0  0  0  0  0  0  0  0  0
  130.0673  132.8910  158.8259 C   0  0  1  0  0  0  0  0  0  0  0  0
  131.1381  132.9016  159.0295 H   0  0  0  0  0  0  0  0  0  0  0  0
  129.5366  131.4547  158.9193 C   0  0  0  0  0  0  0  0  0  0  0  0
  130.3031  130.6334  158.0373 O   0  0  0  0  0  0  0  0  0  0  0  0
  130.4819  131.0662  156.7621 C   0  0  0  0  0  0  0  0  0  0  0  0
  130.8982  130.1490  155.8025 C   0  0  0  0  0  0  0  0  0  0  0  0
  131.0959  130.5515  154.4965 C   0  0  0  0  0  0  0  0  0  0  0  0
  131.6164  129.4034  153.3028 Cl  0  0  0  0  0  0  0  0  0  0  0  0
  130.8793  131.8712  154.1403 C   0  0  0  0  0  0  0  0  0  0  0  0
  130.4641  132.7830  155.0904 C   0  0  0  0  0  0  0  0  0  0  0  0
  130.2633  132.3843  156.4017 C   0  0  0  0  0  0  0  0  0  0  0  0
  129.8064  133.4088  157.4093 C   0  0  0  0  0  0  0  0  0  0  0  0
  125.1565  135.2714  161.6759 H   0  0  0  0  0  0  0  0  0  0  0  0
  127.8803  137.3450  162.7101 H   0  0  0  0  0  0  0  0  0  0  0  0
  126.3531  137.2973  161.6773 H   0  0  0  0  0  0  0  0  0  0  0  0
  129.8269  136.0274  161.9138 H   0  0  0  0  0  0  0  0  0  0  0  0
  131.5838  134.8346  159.0557 H   0  0  0  0  0  0  0  0  0  0  0  0
  131.6805  136.3357  161.6549 H   0  0  0  0  0  0  0  0  0  0  0  0
  133.7394  136.0373  159.3083 H   0  0  0  0  0  0  0  0  0  0  0  0
  133.9219  137.1366  160.7779 H   0  0  0  0  0  0  0  0  0  0  0  0
  133.8060  135.1142  162.3055 H   0  0  0  0  0  0  0  0  0  0  0  0
  133.6237  134.0144  160.8363 H   0  0  0  0  0  0  0  0  0  0  0  0
  129.6392  131.0911  159.9417 H   0  0  0  0  0  0  0  0  0  0  0  0
  128.4876  131.4309  158.6242 H   0  0  0  0  0  0  0  0  0  0  0  0
  131.0675  129.1191  156.0798 H   0  0  0  0  0  0  0  0  0  0  0  0
  131.0349  132.1878  153.1195 H   0  0  0  0  0  0  0  0  0  0  0  0
  130.2954  133.8122  154.8100 H   0  0  0  0  0  0  0  0  0  0  0  0
  128.7397  133.5929  157.2811 H   0  0  0  0  0  0  0  0  0  0  0  0
  130.3557  134.3376  157.2557 H   0  0  0  0  0  0  0  0  0  0  0  0
  1  2  1  0
  1 27  1  0
  2  3  1  1
  2  5  1  0
  2  4  1  0
  4  5  1  0
  4 28  1  0
  4 29  1  0
  5  6  1  6
  5  7  1  0
  7 30  1  0
  8  7  1  0
  8  9  1  0
  8 13  2  0
  9 10  1  0
  9 31  1  0
 10 12  1  0
 10 11  1  0
 10 32  1  0
 11 12  1  0
 11 33  1  0
 11 34  1  0
 12 35  1  0
 12 36  1  0
 13 14  1  0
 13 15  1  0
 15 16  1  1
 15 26  1  0
 15 17  1  0
 17 18  1  0
 17 37  1  0
 17 38  1  0
 18 19  1  0
 19 25  2  0
 19 20  1  0
 20 21  2  0
 20 39  1  0
 21 22  1  0
 21 23  1  0
 23 24  2  0
 23 40  1  0
 24 25  1  0
 24 41  1  0
 25 26  1  0
 26 42  1  0
 26 43  1  0
M  CHG  1  13   1
M  END
>  <DOCK_score>  (1) 
-42.525379

>  <SMILES>  (1) 
O[C@@H]1C[C@H]1NC(NC1CC1)=[NH+][C@H]1COc2cc(Cl)ccc2C1

$$$$
