Cn1nncc1[C@@H](Nc1[nH]cc(-c2ccc(N)cc2)[nH+]1)c1ccc(N)cc1
     RDKit          3D

 48 51  0  0  1  0  0  0  0  0999 V2000
  126.5849  133.7669  160.5559 C   0  0  0  0  0  0  0  0  0  0  0  0
  126.6907  134.7636  159.4874 N   0  0  0  0  0  0  0  0  0  0  0  0
  125.7520  135.0989  158.6730 N   0  0  0  0  0  0  0  0  0  0  0  0
  126.1743  135.9971  157.8547 N   0  0  0  0  0  0  0  0  0  0  0  0
  127.4510  136.2769  158.1400 C   0  0  0  0  0  0  0  0  0  0  0  0
  127.7913  135.4923  159.1892 C   0  0  0  0  0  0  0  0  0  0  0  0
  129.1285  135.4368  159.8817 C   0  0  1  0  0  0  0  0  0  0  0  0
  129.0908  134.7027  160.6866 H   0  0  0  0  0  0  0  0  0  0  0  0
  130.1621  135.0516  158.9175 N   0  0  0  0  0  0  0  0  0  0  0  0
  130.0759  133.8371  158.2587 C   0  0  0  0  0  0  0  0  0  0  0  0
  129.5000  132.7071  158.7516 N   0  0  0  0  0  0  0  0  0  0  0  0
  129.0802  132.6080  159.6205 H   0  0  0  0  0  0  0  0  0  0  0  0
  129.6233  131.7315  157.7908 C   0  0  0  0  0  0  0  0  0  0  0  0
  130.2705  132.2939  156.7403 C   0  0  0  0  0  0  0  0  0  0  0  0
  130.6264  131.6158  155.4697 C   0  0  0  0  0  0  0  0  0  0  0  0
  130.1233  132.0914  154.2598 C   0  0  0  0  0  0  0  0  0  0  0  0
  130.4603  131.4631  153.0796 C   0  0  0  0  0  0  0  0  0  0  0  0
  131.2916  130.3492  153.0967 C   0  0  0  0  0  0  0  0  0  0  0  0
  131.6273  129.7108  151.9004 N   0  0  0  0  0  0  0  0  0  0  0  0
  131.7896  129.8699  154.3024 C   0  0  0  0  0  0  0  0  0  0  0  0
  131.4600  130.4984  155.4845 C   0  0  0  0  0  0  0  0  0  0  0  0
  130.5350  133.5862  157.0568 N   0  0  0  0  0  0  0  0  0  0  0  0
  130.9916  134.2230  156.4850 H   0  0  0  0  0  0  0  0  0  0  0  0
  129.4550  136.7925  160.4532 C   0  0  0  0  0  0  0  0  0  0  0  0
  129.0612  137.1118  161.7397 C   0  0  0  0  0  0  0  0  0  0  0  0
  129.3636  138.3512  162.2685 C   0  0  0  0  0  0  0  0  0  0  0  0
  130.0542  139.2816  161.5026 C   0  0  0  0  0  0  0  0  0  0  0  0
  130.3564  140.5382  162.0323 N   0  0  0  0  0  0  0  0  0  0  0  0
  130.4433  138.9597  160.2083 C   0  0  0  0  0  0  0  0  0  0  0  0
  130.1426  137.7163  159.6877 C   0  0  0  0  0  0  0  0  0  0  0  0
  126.2506  134.2516  161.4732 H   0  0  0  0  0  0  0  0  0  0  0  0
  125.8659  133.0000  160.2674 H   0  0  0  0  0  0  0  0  0  0  0  0
  127.5591  133.3073  160.7219 H   0  0  0  0  0  0  0  0  0  0  0  0
  128.0852  136.9890  157.6332 H   0  0  0  0  0  0  0  0  0  0  0  0
  130.9067  135.6475  158.7407 H   0  0  0  0  0  0  0  0  0  0  0  0
  129.2757  130.7113  157.8611 H   0  0  0  0  0  0  0  0  0  0  0  0
  129.4736  132.9541  154.2466 H   0  0  0  0  0  0  0  0  0  0  0  0
  130.0741  131.8338  152.1416 H   0  0  0  0  0  0  0  0  0  0  0  0
  132.2075  128.9340  151.9113 H   0  0  0  0  0  0  0  0  0  0  0  0
  131.2799  130.0452  151.0583 H   0  0  0  0  0  0  0  0  0  0  0  0
  132.4351  129.0041  154.3134 H   0  0  0  0  0  0  0  0  0  0  0  0
  131.8476  130.1257  156.4212 H   0  0  0  0  0  0  0  0  0  0  0  0
  128.5201  136.3897  162.3331 H   0  0  0  0  0  0  0  0  0  0  0  0
  129.0596  138.5985  163.2749 H   0  0  0  0  0  0  0  0  0  0  0  0
  130.8397  141.1868  161.4963 H   0  0  0  0  0  0  0  0  0  0  0  0
  130.0849  140.7617  162.9359 H   0  0  0  0  0  0  0  0  0  0  0  0
  130.9801  139.6809  159.6099 H   0  0  0  0  0  0  0  0  0  0  0  0
  130.4452  137.4652  158.6818 H   0  0  0  0  0  0  0  0  0  0  0  0
  1  2  1  0
  1 31  1  0
  1 32  1  0
  1 33  1  0
  2  6  1  0
  2  3  1  0
  3  4  2  0
  4  5  1  0
  5  6  2  0
  5 34  1  0
  6  7  1  0
  7  8  1  1
  7  9  1  0
  7 24  1  0
  9 35  1  0
 10  9  1  0
 10 22  2  0
 10 11  1  0
 11 12  1  0
 11 13  1  0
 13 14  2  0
 13 36  1  0
 14 15  1  0
 14 22  1  0
 15 21  1  0
 15 16  2  0
 16 17  1  0
 16 37  1  0
 17 18  2  0
 17 38  1  0
 18 19  1  0
 18 20  1  0
 19 39  1  0
 19 40  1  0
 20 21  2  0
 20 41  1  0
 21 42  1  0
 22 23  1  0
 24 30  1  0
 24 25  2  0
 25 26  1  0
 25 43  1  0
 26 27  2  0
 26 44  1  0
 27 28  1  0
 27 29  1  0
 28 45  1  0
 28 46  1  0
 29 30  2  0
 29 47  1  0
 30 48  1  0
M  CHG  1  22   1
M  END
>  <DOCK_score>  (1) 
-56.171753

>  <SMILES>  (1) 
Cn1nncc1[C@@H](Nc1[nH]cc(-c2ccc(N)cc2)[nH+]1)c1ccc(N)cc1

$$$$
