CCc1ccc(-c2c[nH]c(N[C@@H](CCO)c3ccccc3)[nH+]2)cc1
     RDKit          3D

 48 50  0  0  1  0  0  0  0  0999 V2000
  130.5986  128.4488  151.6239 C   0  0  0  0  0  0  0  0  0  0  0  0
  131.6815  129.4662  151.9880 C   0  0  0  0  0  0  0  0  0  0  0  0
  131.2901  130.1855  153.2532 C   0  0  0  0  0  0  0  0  0  0  0  0
  131.6774  129.6803  154.4808 C   0  0  0  0  0  0  0  0  0  0  0  0
  131.3259  130.3374  155.6424 C   0  0  0  0  0  0  0  0  0  0  0  0
  130.5702  131.5067  155.5772 C   0  0  0  0  0  0  0  0  0  0  0  0
  130.1851  132.2146  156.8224 C   0  0  0  0  0  0  0  0  0  0  0  0
  129.4462  131.7005  157.8367 C   0  0  0  0  0  0  0  0  0  0  0  0
  129.3289  132.6878  158.7847 N   0  0  0  0  0  0  0  0  0  0  0  0
  128.8549  132.6208  159.6283 H   0  0  0  0  0  0  0  0  0  0  0  0
  130.0002  133.7774  158.3215 C   0  0  0  0  0  0  0  0  0  0  0  0
  130.1232  134.9888  158.9801 N   0  0  0  0  0  0  0  0  0  0  0  0
  129.0618  135.4433  159.8818 C   0  0  1  0  0  0  0  0  0  0  0  0
  128.9328  134.7185  160.6857 H   0  0  0  0  0  0  0  0  0  0  0  0
  129.4436  136.8008  160.4756 C   0  0  0  0  0  0  0  0  0  0  0  0
  128.3350  137.2753  161.4174 C   0  0  0  0  0  0  0  0  0  0  0  0
  128.6914  138.5432  161.9719 O   0  0  0  0  0  0  0  0  0  0  0  0
  127.7723  135.5760  159.1133 C   0  0  0  0  0  0  0  0  0  0  0  0
  126.5632  135.3712  159.7512 C   0  0  0  0  0  0  0  0  0  0  0  0
  125.3802  135.4972  159.0471 C   0  0  0  0  0  0  0  0  0  0  0  0
  125.4068  135.8192  157.7032 C   0  0  0  0  0  0  0  0  0  0  0  0
  126.6161  136.0188  157.0640 C   0  0  0  0  0  0  0  0  0  0  0  0
  127.7989  135.8969  157.7690 C   0  0  0  0  0  0  0  0  0  0  0  0
  130.5146  133.4890  157.1510 N   0  0  0  0  0  0  0  0  0  0  0  0
  131.0448  134.0913  156.6059 H   0  0  0  0  0  0  0  0  0  0  0  0
  130.1783  132.0086  154.3375 C   0  0  0  0  0  0  0  0  0  0  0  0
  130.5399  131.3461  153.1821 C   0  0  0  0  0  0  0  0  0  0  0  0
  129.6513  128.9653  151.4701 H   0  0  0  0  0  0  0  0  0  0  0  0
  130.8818  127.9286  150.7089 H   0  0  0  0  0  0  0  0  0  0  0  0
  130.4916  127.7271  152.4338 H   0  0  0  0  0  0  0  0  0  0  0  0
  132.6288  128.9502  152.1416 H   0  0  0  0  0  0  0  0  0  0  0  0
  131.7884  130.1884  151.1778 H   0  0  0  0  0  0  0  0  0  0  0  0
  132.2593  128.7718  154.5304 H   0  0  0  0  0  0  0  0  0  0  0  0
  131.6328  129.9443  156.6004 H   0  0  0  0  0  0  0  0  0  0  0  0
  129.0295  130.7056  157.8891 H   0  0  0  0  0  0  0  0  0  0  0  0
  130.9121  135.5367  158.8446 H   0  0  0  0  0  0  0  0  0  0  0  0
  130.3761  136.7049  161.0316 H   0  0  0  0  0  0  0  0  0  0  0  0
  129.5725  137.5256  159.6718 H   0  0  0  0  0  0  0  0  0  0  0  0
  127.4023  137.3712  160.8614 H   0  0  0  0  0  0  0  0  0  0  0  0
  128.2060  136.5505  162.2211 H   0  0  0  0  0  0  0  0  0  0  0  0
  129.5132  138.5328  162.4812 H   0  0  0  0  0  0  0  0  0  0  0  0
  126.5427  135.1162  160.8004 H   0  0  0  0  0  0  0  0  0  0  0  0
  124.4354  135.3416  159.5467 H   0  0  0  0  0  0  0  0  0  0  0  0
  124.4827  135.9150  157.1525 H   0  0  0  0  0  0  0  0  0  0  0  0
  126.6368  136.2703  156.0138 H   0  0  0  0  0  0  0  0  0  0  0  0
  128.7438  136.0530  157.2696 H   0  0  0  0  0  0  0  0  0  0  0  0
  129.5923  132.9141  154.2810 H   0  0  0  0  0  0  0  0  0  0  0  0
  130.2364  131.7338  152.2209 H   0  0  0  0  0  0  0  0  0  0  0  0
  1  2  1  0
  1 28  1  0
  1 29  1  0
  1 30  1  0
  2  3  1  0
  2 31  1  0
  2 32  1  0
  3 27  2  0
  3  4  1  0
  4  5  2  0
  4 33  1  0
  5  6  1  0
  5 34  1  0
  6  7  1  0
  6 26  2  0
  7 24  1  0
  7  8  2  0
  8  9  1  0
  8 35  1  0
  9 10  1  0
  9 11  1  0
 11 12  1  0
 11 24  2  0
 12 13  1  0
 12 36  1  0
 13 14  1  1
 13 15  1  0
 13 18  1  0
 15 16  1  0
 15 37  1  0
 15 38  1  0
 16 17  1  0
 16 39  1  0
 16 40  1  0
 17 41  1  0
 18 23  1  0
 18 19  2  0
 19 20  1  0
 19 42  1  0
 20 21  2  0
 20 43  1  0
 21 22  1  0
 21 44  1  0
 22 23  2  0
 22 45  1  0
 23 46  1  0
 24 25  1  0
 26 27  1  0
 26 47  1  0
 27 48  1  0
M  CHG  1  24   1
M  END
>  <DOCK_score>  (1) 
-59.046215

>  <SMILES>  (1) 
CCc1ccc(-c2c[nH]c(N[C@@H](CCO)c3ccccc3)[nH+]2)cc1

$$$$
