C[C@@H](Cc1cccnc1)[NH2+]Cc1c[nH]nc1-c1ccc(Nc2c[nH]c3ccccc23)o1
     RDKit          3D

 56 60  0  0  1  0  0  0  0  0999 V2000
  131.4510  139.6101  159.6195 C   0  0  0  0  0  0  0  0  0  0  0  0
  131.1201  138.3819  160.4697 C   0  0  1  0  0  0  0  0  0  0  0  0
  131.9604  138.1575  161.1266 H   0  0  0  0  0  0  0  0  0  0  0  0
  129.8752  138.6656  161.3127 C   0  0  0  0  0  0  0  0  0  0  0  0
  130.1369  139.8445  162.2141 C   0  0  0  0  0  0  0  0  0  0  0  0
  130.6649  139.6553  163.4823 C   0  0  0  0  0  0  0  0  0  0  0  0
  130.8890  140.7692  164.2765 C   0  0  0  0  0  0  0  0  0  0  0  0
  130.5809  142.0225  163.7817 C   0  0  0  0  0  0  0  0  0  0  0  0
  130.0798  142.1648  162.5704 N   0  0  0  0  0  0  0  0  0  0  0  0
  129.8590  141.1284  161.7851 C   0  0  0  0  0  0  0  0  0  0  0  0
  130.8650  137.2326  159.5910 N   0  0  0  0  0  0  0  0  0  0  0  0
  129.9252  137.2889  159.2280 H   0  0  0  0  0  0  0  0  0  0  0  0
  131.5224  137.2420  158.8256 H   0  0  0  0  0  0  0  0  0  0  0  0
  131.0208  135.9878  160.3552 C   0  0  0  0  0  0  0  0  0  0  0  0
  130.7592  134.8088  159.4540 C   0  0  0  0  0  0  0  0  0  0  0  0
  131.6777  134.1592  158.7076 C   0  0  0  0  0  0  0  0  0  0  0  0
  131.0501  133.1633  158.0450 N   0  0  0  0  0  0  0  0  0  0  0  0
  131.4672  132.5339  157.4362 H   0  0  0  0  0  0  0  0  0  0  0  0
  129.6918  133.2000  158.3850 N   0  0  0  0  0  0  0  0  0  0  0  0
  129.5095  134.1912  159.2353 C   0  0  0  0  0  0  0  0  0  0  0  0
  128.2251  134.5848  159.8503 C   0  0  0  0  0  0  0  0  0  0  0  0
  127.0245  133.9827  159.6409 C   0  0  0  0  0  0  0  0  0  0  0  0
  126.0786  134.6758  160.4209 C   0  0  0  0  0  0  0  0  0  0  0  0
  126.7464  135.6649  161.0668 C   0  0  0  0  0  0  0  0  0  0  0  0
  126.1850  136.5859  161.9420 N   0  0  0  0  0  0  0  0  0  0  0  0
  126.9549  137.1188  162.9909 C   0  0  0  0  0  0  0  0  0  0  0  0
  127.9637  136.5041  163.6373 C   0  0  0  0  0  0  0  0  0  0  0  0
  128.4780  137.3415  164.5993 N   0  0  0  0  0  0  0  0  0  0  0  0
  129.2131  137.1231  165.1932 H   0  0  0  0  0  0  0  0  0  0  0  0
  127.7894  138.5336  164.5981 C   0  0  0  0  0  0  0  0  0  0  0  0
  127.8933  139.6981  165.3532 C   0  0  0  0  0  0  0  0  0  0  0  0
  127.0371  140.7494  165.1105 C   0  0  0  0  0  0  0  0  0  0  0  0
  126.0695  140.6600  164.1188 C   0  0  0  0  0  0  0  0  0  0  0  0
  125.9505  139.5264  163.3655 C   0  0  0  0  0  0  0  0  0  0  0  0
  126.8078  138.4487  163.5944 C   0  0  0  0  0  0  0  0  0  0  0  0
  128.0437  135.6002  160.7207 O   0  0  0  0  0  0  0  0  0  0  0  0
  132.2994  139.3865  158.9727 H   0  0  0  0  0  0  0  0  0  0  0  0
  130.5874  139.8726  159.0085 H   0  0  0  0  0  0  0  0  0  0  0  0
  131.7021  140.4465  160.2719 H   0  0  0  0  0  0  0  0  0  0  0  0
  129.0350  138.8900  160.6557 H   0  0  0  0  0  0  0  0  0  0  0  0
  129.6393  137.7905  161.9183 H   0  0  0  0  0  0  0  0  0  0  0  0
  130.8958  138.6637  163.8427 H   0  0  0  0  0  0  0  0  0  0  0  0
  131.2995  140.6592  165.2694 H   0  0  0  0  0  0  0  0  0  0  0  0
  130.7522  142.8952  164.3943 H   0  0  0  0  0  0  0  0  0  0  0  0
  129.4521  141.2847  160.7970 H   0  0  0  0  0  0  0  0  0  0  0  0
  132.0360  135.9270  160.7474 H   0  0  0  0  0  0  0  0  0  0  0  0
  130.3107  135.9778  161.1821 H   0  0  0  0  0  0  0  0  0  0  0  0
  132.7305  134.3935  158.6514 H   0  0  0  0  0  0  0  0  0  0  0  0
  126.8327  133.1354  158.9992 H   0  0  0  0  0  0  0  0  0  0  0  0
  125.0225  134.4608  160.4917 H   0  0  0  0  0  0  0  0  0  0  0  0
  125.2617  136.8614  161.8297 H   0  0  0  0  0  0  0  0  0  0  0  0
  128.3176  135.5051  163.4294 H   0  0  0  0  0  0  0  0  0  0  0  0
  128.6427  139.7772  166.1269 H   0  0  0  0  0  0  0  0  0  0  0  0
  127.1193  141.6523  165.6974 H   0  0  0  0  0  0  0  0  0  0  0  0
  125.4058  141.4933  163.9411 H   0  0  0  0  0  0  0  0  0  0  0  0
  125.1955  139.4642  162.5957 H   0  0  0  0  0  0  0  0  0  0  0  0
  1  2  1  0
  1 37  1  0
  1 38  1  0
  1 39  1  0
  2  3  1  1
  2  4  1  0
  2 11  1  0
  4  5  1  0
  4 40  1  0
  4 41  1  0
  5 10  1  0
  5  6  2  0
  6  7  1  0
  6 42  1  0
  7  8  2  0
  7 43  1  0
  8  9  1  0
  8 44  1  0
  9 10  2  0
 10 45  1  0
 11 12  1  0
 11 13  1  0
 11 14  1  0
 14 15  1  0
 14 46  1  0
 14 47  1  0
 15 20  1  0
 15 16  2  0
 16 17  1  0
 16 48  1  0
 17 18  1  0
 17 19  1  0
 19 20  2  0
 20 21  1  0
 21 36  1  0
 21 22  2  0
 22 23  1  0
 22 49  1  0
 23 24  2  0
 23 50  1  0
 24 25  1  0
 24 36  1  0
 25 26  1  0
 25 51  1  0
 26 35  1  0
 26 27  2  0
 27 28  1  0
 27 52  1  0
 28 29  1  0
 28 30  1  0
 30 35  2  0
 30 31  1  0
 31 32  2  0
 31 53  1  0
 32 33  1  0
 32 54  1  0
 33 34  2  0
 33 55  1  0
 34 35  1  0
 34 56  1  0
M  CHG  1  11   1
M  END
>  <DOCK_score>  (1) 
-51.013573

>  <SMILES>  (1) 
C[C@@H](Cc1cccnc1)[NH2+]Cc1c[nH]nc1-c1ccc(Nc2c[nH]c3ccccc23)o1

$$$$
