CC1c2ccccc2C[C@@H]1Nc1[nH]cc(-c2ccc(-c3ccccc3)cc2)[nH+]1
     RDKit          3D

 52 56  0  0  1  0  0  0  0  0999 V2000
  130.6624  137.2364  162.8801 C   0  0  0  0  0  0  0  0  0  0  0  0
  131.5261  137.0764  161.6272 C   0  0  1  0  0  0  0  0  0  0  0  0
  132.9256  137.5927  161.8846 C   0  0  0  0  0  0  0  0  0  0  0  0
  133.4116  138.8891  161.9196 C   0  0  0  0  0  0  0  0  0  0  0  0
  134.7478  139.1236  162.1774 C   0  0  0  0  0  0  0  0  0  0  0  0
  135.6040  138.0614  162.4020 C   0  0  0  0  0  0  0  0  0  0  0  0
  135.1210  136.7681  162.3680 C   0  0  0  0  0  0  0  0  0  0  0  0
  133.7814  136.5309  162.1092 C   0  0  0  0  0  0  0  0  0  0  0  0
  133.0156  135.2283  162.0181 C   0  0  0  0  0  0  0  0  0  0  0  0
  131.7012  135.5816  161.2847 C   0  0  2  0  0  0  0  0  0  0  0  0
  130.8691  134.9950  161.6738 H   0  0  0  0  0  0  0  0  0  0  0  0
  131.8432  135.3918  159.8391 N   0  0  0  0  0  0  0  0  0  0  0  0
  131.4037  134.2196  159.2484 C   0  0  0  0  0  0  0  0  0  0  0  0
  130.8306  133.1705  159.8993 N   0  0  0  0  0  0  0  0  0  0  0  0
  130.6581  133.1105  160.8519 H   0  0  0  0  0  0  0  0  0  0  0  0
  130.5392  132.2137  158.9580 C   0  0  0  0  0  0  0  0  0  0  0  0
  130.9496  132.7018  157.7605 C   0  0  0  0  0  0  0  0  0  0  0  0
  130.8415  132.0110  156.4533 C   0  0  0  0  0  0  0  0  0  0  0  0
  130.1012  132.5853  155.4199 C   0  0  0  0  0  0  0  0  0  0  0  0
  130.0053  131.9459  154.2038 C   0  0  0  0  0  0  0  0  0  0  0  0
  130.6394  130.7192  154.0089 C   0  0  0  0  0  0  0  0  0  0  0  0
  130.5313  130.0280  152.7012 C   0  0  0  0  0  0  0  0  0  0  0  0
  130.5837  128.6366  152.6389 C   0  0  0  0  0  0  0  0  0  0  0  0
  130.4774  127.9987  151.4198 C   0  0  0  0  0  0  0  0  0  0  0  0
  130.3298  128.7381  150.2599 C   0  0  0  0  0  0  0  0  0  0  0  0
  130.2830  130.1193  150.3151 C   0  0  0  0  0  0  0  0  0  0  0  0
  130.3826  130.7678  151.5292 C   0  0  0  0  0  0  0  0  0  0  0  0
  131.3750  130.1422  155.0439 C   0  0  0  0  0  0  0  0  0  0  0  0
  131.4754  130.7837  156.2584 C   0  0  0  0  0  0  0  0  0  0  0  0
  131.4758  133.9346  157.9712 N   0  0  0  0  0  0  0  0  0  0  0  0
  131.8466  134.5126  157.2861 H   0  0  0  0  0  0  0  0  0  0  0  0
  130.5678  138.2947  163.1234 H   0  0  0  0  0  0  0  0  0  0  0  0
  129.6738  136.8161  162.6958 H   0  0  0  0  0  0  0  0  0  0  0  0
  131.1305  136.7124  163.7133 H   0  0  0  0  0  0  0  0  0  0  0  0
  131.0758  137.6065  160.7880 H   0  0  0  0  0  0  0  0  0  0  0  0
  132.7435  139.7194  161.7441 H   0  0  0  0  0  0  0  0  0  0  0  0
  135.1239  140.1357  162.2034 H   0  0  0  0  0  0  0  0  0  0  0  0
  136.6492  138.2430  162.6042 H   0  0  0  0  0  0  0  0  0  0  0  0
  135.7903  135.9388  162.5440 H   0  0  0  0  0  0  0  0  0  0  0  0
  133.5829  134.4954  161.4444 H   0  0  0  0  0  0  0  0  0  0  0  0
  132.8025  134.8443  163.0157 H   0  0  0  0  0  0  0  0  0  0  0  0
  132.2453  136.0875  159.2958 H   0  0  0  0  0  0  0  0  0  0  0  0
  130.0755  131.2550  159.1373 H   0  0  0  0  0  0  0  0  0  0  0  0
  129.6066  133.5334  155.5721 H   0  0  0  0  0  0  0  0  0  0  0  0
  129.4357  132.3926  153.4023 H   0  0  0  0  0  0  0  0  0  0  0  0
  130.7033  128.0587  153.5433 H   0  0  0  0  0  0  0  0  0  0  0  0
  130.5134  126.9204  151.3707 H   0  0  0  0  0  0  0  0  0  0  0  0
  130.2508  128.2347  149.3075 H   0  0  0  0  0  0  0  0  0  0  0  0
  130.1678  130.6914  149.4064 H   0  0  0  0  0  0  0  0  0  0  0  0
  130.3452  131.8464  151.5713 H   0  0  0  0  0  0  0  0  0  0  0  0
  131.8654  129.1918  154.8930 H   0  0  0  0  0  0  0  0  0  0  0  0
  132.0447  130.3366  157.0599 H   0  0  0  0  0  0  0  0  0  0  0  0
  1  2  1  0
  1 32  1  0
  1 33  1  0
  1 34  1  0
  2 10  1  0
  2  3  1  0
  2 35  1  6
  3  8  2  0
  3  4  1  0
  4  5  2  0
  4 36  1  0
  5  6  1  0
  5 37  1  0
  6  7  2  0
  6 38  1  0
  7  8  1  0
  7 39  1  0
  8  9  1  0
  9 10  1  0
  9 40  1  0
  9 41  1  0
 10 11  1  1
 10 12  1  0
 12 42  1  0
 13 12  1  0
 13 30  2  0
 13 14  1  0
 14 15  1  0
 14 16  1  0
 16 17  2  0
 16 43  1  0
 17 18  1  0
 17 30  1  0
 18 29  1  0
 18 19  2  0
 19 20  1  0
 19 44  1  0
 20 21  2  0
 20 45  1  0
 21 22  1  0
 21 28  1  0
 22 27  1  0
 22 23  2  0
 23 24  1  0
 23 46  1  0
 24 25  2  0
 24 47  1  0
 25 26  1  0
 25 48  1  0
 26 27  2  0
 26 49  1  0
 27 50  1  0
 28 29  2  0
 28 51  1  0
 29 52  1  0
 30 31  1  0
M  CHG  1  30   1
M  END
>  <DOCK_score>  (1) 
-58.68338

>  <SMILES>  (1) 
CC1c2ccccc2C[C@@H]1Nc1[nH]cc(-c2ccc(-c3ccccc3)cc2)[nH+]1

$$$$
