CCNC(N[C@H]1CCC(=O)NC1)=[NH+][C@@H]1CCc2ccccc2OC1
     RDKit          3D

 51 53  0  0  1  0  0  0  0  0999 V2000
  129.8579  132.4233  156.8703 C   0  0  0  0  0  0  0  0  0  0  0  0
  130.4165  133.6091  157.6594 C   0  0  0  0  0  0  0  0  0  0  0  0
  129.5544  133.8777  158.8130 N   0  0  0  0  0  0  0  0  0  0  0  0
  129.8586  134.9054  159.6741 C   0  0  0  0  0  0  0  0  0  0  0  0
  129.0495  135.1575  160.7567 N   0  0  0  0  0  0  0  0  0  0  0  0
  127.6172  134.8575  160.6862 C   0  0  1  0  0  0  0  0  0  0  0  0
  127.2718  134.9623  159.6578 H   0  0  0  0  0  0  0  0  0  0  0  0
  127.3675  133.4237  161.1693 C   0  0  0  0  0  0  0  0  0  0  0  0
  125.8988  133.0762  160.9144 C   0  0  0  0  0  0  0  0  0  0  0  0
  125.0161  134.1743  161.4345 C   0  0  0  0  0  0  0  0  0  0  0  0
  123.8413  133.9312  161.6116 O   0  0  0  0  0  0  0  0  0  0  0  0
  125.4552  135.4027  161.7117 N   0  0  0  0  0  0  0  0  0  0  0  0
  126.8464  135.8201  161.5906 C   0  0  0  0  0  0  0  0  0  0  0  0
  130.9143  135.6405  159.4643 N   0  0  0  0  0  0  0  0  0  0  0  0
  131.2317  135.7864  158.5593 H   0  0  0  0  0  0  0  0  0  0  0  0
  131.6215  136.2463  160.5952 C   0  0  2  0  0  0  0  0  0  0  0  0
  131.5019  135.6024  161.4665 H   0  0  0  0  0  0  0  0  0  0  0  0
  130.9887  137.5960  160.8994 C   0  0  0  0  0  0  0  0  0  0  0  0
  131.5471  138.1770  162.1986 C   0  0  0  0  0  0  0  0  0  0  0  0
  132.8573  138.8774  161.8942 C   0  0  0  0  0  0  0  0  0  0  0  0
  132.9493  140.2497  162.0109 C   0  0  0  0  0  0  0  0  0  0  0  0
  134.1604  140.8769  161.7761 C   0  0  0  0  0  0  0  0  0  0  0  0
  135.2709  140.1307  161.4260 C   0  0  0  0  0  0  0  0  0  0  0  0
  135.1750  138.7582  161.2998 C   0  0  0  0  0  0  0  0  0  0  0  0
  133.9573  138.1301  161.5274 C   0  0  0  0  0  0  0  0  0  0  0  0
  133.8543  136.7802  161.3837 O   0  0  0  0  0  0  0  0  0  0  0  0
  133.0947  136.3342  160.2555 C   0  0  0  0  0  0  0  0  0  0  0  0
  129.8248  131.5430  157.5120 H   0  0  0  0  0  0  0  0  0  0  0  0
  128.8513  132.6588  156.5245 H   0  0  0  0  0  0  0  0  0  0  0  0
  130.4993  132.2235  156.0120 H   0  0  0  0  0  0  0  0  0  0  0  0
  130.4496  134.4896  157.0177 H   0  0  0  0  0  0  0  0  0  0  0  0
  131.4231  133.3736  158.0051 H   0  0  0  0  0  0  0  0  0  0  0  0
  128.7687  133.3306  158.9692 H   0  0  0  0  0  0  0  0  0  0  0  0
  129.4269  135.5337  161.5671 H   0  0  0  0  0  0  0  0  0  0  0  0
  127.5815  133.3533  162.2358 H   0  0  0  0  0  0  0  0  0  0  0  0
  128.0084  132.7340  160.6201 H   0  0  0  0  0  0  0  0  0  0  0  0
  125.6538  132.1436  161.4227 H   0  0  0  0  0  0  0  0  0  0  0  0
  125.7366  132.9581  159.8430 H   0  0  0  0  0  0  0  0  0  0  0  0
  124.8073  136.0607  162.0088 H   0  0  0  0  0  0  0  0  0  0  0  0
  126.8860  136.8232  161.1658 H   0  0  0  0  0  0  0  0  0  0  0  0
  127.3062  135.8323  162.5788 H   0  0  0  0  0  0  0  0  0  0  0  0
  131.1984  138.2834  160.0798 H   0  0  0  0  0  0  0  0  0  0  0  0
  129.9100  137.4727  160.9960 H   0  0  0  0  0  0  0  0  0  0  0  0
  131.7199  137.3730  162.9142 H   0  0  0  0  0  0  0  0  0  0  0  0
  130.8386  138.8923  162.6164 H   0  0  0  0  0  0  0  0  0  0  0  0
  132.0809  140.8308  162.2843 H   0  0  0  0  0  0  0  0  0  0  0  0
  134.2384  141.9503  161.8667 H   0  0  0  0  0  0  0  0  0  0  0  0
  136.2163  140.6226  161.2510 H   0  0  0  0  0  0  0  0  0  0  0  0
  136.0427  138.1765  161.0260 H   0  0  0  0  0  0  0  0  0  0  0  0
  133.4509  135.3504  159.9500 H   0  0  0  0  0  0  0  0  0  0  0  0
  133.2310  137.0353  159.4322 H   0  0  0  0  0  0  0  0  0  0  0  0
  1  2  1  0
  1 28  1  0
  1 29  1  0
  1 30  1  0
  2  3  1  0
  2 31  1  0
  2 32  1  0
  3 33  1  0
  4  3  1  0
  4  5  1  0
  4 14  2  0
  5  6  1  0
  5 34  1  0
  6  7  1  6
  6 13  1  0
  6  8  1  0
  8  9  1  0
  8 35  1  0
  8 36  1  0
  9 10  1  0
  9 37  1  0
  9 38  1  0
 10 11  2  0
 10 12  1  0
 12 13  1  0
 12 39  1  0
 13 40  1  0
 13 41  1  0
 14 15  1  0
 14 16  1  0
 16 17  1  1
 16 27  1  0
 16 18  1  0
 18 19  1  0
 18 42  1  0
 18 43  1  0
 19 20  1  0
 19 44  1  0
 19 45  1  0
 20 25  2  0
 20 21  1  0
 21 22  2  0
 21 46  1  0
 22 23  1  0
 22 47  1  0
 23 24  2  0
 23 48  1  0
 24 25  1  0
 24 49  1  0
 25 26  1  0
 26 27  1  0
 27 50  1  0
 27 51  1  0
M  CHG  1  14   1
M  END
>  <DOCK_score>  (1) 
-45.133488

>  <SMILES>  (1) 
CCNC(N[C@H]1CCC(=O)NC1)=[NH+][C@@H]1CCc2ccccc2OC1

$$$$
