Cc1cc(CCNC2=C[C@@H]([NH2+]C(Cc3ccccc3)Cc3ccccc3)CCC2)on1
     RDKit          3D

 65 68  0  0  1  0  0  0  0  0999 V2000
  138.7572  136.1183  167.7424 C   0  0  0  0  0  0  0  0  0  0  0  0
  138.3783  135.9088  166.2988 C   0  0  0  0  0  0  0  0  0  0  0  0
  137.3859  136.6076  165.5737 C   0  0  0  0  0  0  0  0  0  0  0  0
  137.4342  136.0557  164.3377 C   0  0  0  0  0  0  0  0  0  0  0  0
  136.5822  136.4250  163.1508 C   0  0  0  0  0  0  0  0  0  0  0  0
  135.3132  135.5703  163.1483 C   0  0  0  0  0  0  0  0  0  0  0  0
  134.4849  135.9292  161.9945 N   0  0  0  0  0  0  0  0  0  0  0  0
  133.2743  135.2824  161.7804 C   0  0  0  0  0  0  0  0  0  0  0  0
  132.5674  135.6322  160.7410 C   0  0  0  0  0  0  0  0  0  0  0  0
  131.2391  135.0286  160.3893 C   0  0  1  0  0  0  0  0  0  0  0  0
  130.4446  135.7202  160.6698 H   0  0  0  0  0  0  0  0  0  0  0  0
  131.1833  134.7839  158.9420 N   0  0  0  0  0  0  0  0  0  0  0  0
  131.6779  133.9316  158.7256 H   0  0  0  0  0  0  0  0  0  0  0  0
  131.6127  135.5554  158.4536 H   0  0  0  0  0  0  0  0  0  0  0  0
  129.7817  134.6570  158.5204 C   0  0  0  0  0  0  0  0  0  0  0  0
  129.7174  133.9286  157.1764 C   0  0  0  0  0  0  0  0  0  0  0  0
  130.3254  132.5571  157.3187 C   0  0  0  0  0  0  0  0  0  0  0  0
  130.9413  131.9583  156.2357 C   0  0  0  0  0  0  0  0  0  0  0  0
  131.5025  130.7018  156.3672 C   0  0  0  0  0  0  0  0  0  0  0  0
  131.4407  130.0408  157.5796 C   0  0  0  0  0  0  0  0  0  0  0  0
  130.8202  130.6374  158.6613 C   0  0  0  0  0  0  0  0  0  0  0  0
  130.2624  131.8953  158.5308 C   0  0  0  0  0  0  0  0  0  0  0  0
  129.1644  136.0494  158.3759 C   0  0  0  0  0  0  0  0  0  0  0  0
  127.6623  135.9410  158.4324 C   0  0  0  0  0  0  0  0  0  0  0  0
  126.9384  135.7586  157.2689 C   0  0  0  0  0  0  0  0  0  0  0  0
  125.5608  135.6553  157.3210 C   0  0  0  0  0  0  0  0  0  0  0  0
  124.9066  135.7430  158.5357 C   0  0  0  0  0  0  0  0  0  0  0  0
  125.6300  135.9308  159.6984 C   0  0  0  0  0  0  0  0  0  0  0  0
  127.0079  136.0301  159.6468 C   0  0  0  0  0  0  0  0  0  0  0  0
  131.0472  133.7064  161.1351 C   0  0  0  0  0  0  0  0  0  0  0  0
  131.3618  133.9352  162.6187 C   0  0  0  0  0  0  0  0  0  0  0  0
  132.8582  134.2227  162.7583 C   0  0  0  0  0  0  0  0  0  0  0  0
  138.3853  135.1121  164.3802 O   0  0  0  0  0  0  0  0  0  0  0  0
  138.9003  135.0491  165.4725 N   0  0  0  0  0  0  0  0  0  0  0  0
  138.1494  135.4717  168.3751 H   0  0  0  0  0  0  0  0  0  0  0  0
  139.8108  135.8757  167.8803 H   0  0  0  0  0  0  0  0  0  0  0  0
  138.5854  137.1595  168.0157 H   0  0  0  0  0  0  0  0  0  0  0  0
  136.7392  137.3984  165.9242 H   0  0  0  0  0  0  0  0  0  0  0  0
  137.1418  136.2472  162.2325 H   0  0  0  0  0  0  0  0  0  0  0  0
  136.3103  137.4788  163.2124 H   0  0  0  0  0  0  0  0  0  0  0  0
  134.7536  135.7481  164.0667 H   0  0  0  0  0  0  0  0  0  0  0  0
  135.5850  134.5164  163.0866 H   0  0  0  0  0  0  0  0  0  0  0  0
  134.7818  136.6187  161.3800 H   0  0  0  0  0  0  0  0  0  0  0  0
  132.9621  136.4024  160.0946 H   0  0  0  0  0  0  0  0  0  0  0  0
  129.2274  134.0896  159.2681 H   0  0  0  0  0  0  0  0  0  0  0  0
  128.6774  133.8343  156.8638 H   0  0  0  0  0  0  0  0  0  0  0  0
  130.2716  134.4960  156.4289 H   0  0  0  0  0  0  0  0  0  0  0  0
  130.9866  132.4734  155.2875 H   0  0  0  0  0  0  0  0  0  0  0  0
  131.9869  130.2357  155.5220 H   0  0  0  0  0  0  0  0  0  0  0  0
  131.8768  129.0580  157.6817 H   0  0  0  0  0  0  0  0  0  0  0  0
  130.7717  130.1208  159.6085 H   0  0  0  0  0  0  0  0  0  0  0  0
  129.7776  132.3615  159.3759 H   0  0  0  0  0  0  0  0  0  0  0  0
  129.5133  136.6875  159.1879 H   0  0  0  0  0  0  0  0  0  0  0  0
  129.4619  136.4814  157.4206 H   0  0  0  0  0  0  0  0  0  0  0  0
  127.4493  135.6935  156.3196 H   0  0  0  0  0  0  0  0  0  0  0  0
  124.9955  135.5090  156.4125 H   0  0  0  0  0  0  0  0  0  0  0  0
  123.8302  135.6651  158.5760 H   0  0  0  0  0  0  0  0  0  0  0  0
  125.1190  135.9996  160.6473 H   0  0  0  0  0  0  0  0  0  0  0  0
  127.5732  136.1768  160.5553 H   0  0  0  0  0  0  0  0  0  0  0  0
  130.0158  133.3711  161.0269 H   0  0  0  0  0  0  0  0  0  0  0  0
  131.7243  132.9551  160.7287 H   0  0  0  0  0  0  0  0  0  0  0  0
  130.7893  134.7862  162.9876 H   0  0  0  0  0  0  0  0  0  0  0  0
  131.1022  133.0438  163.1900 H   0  0  0  0  0  0  0  0  0  0  0  0
  133.0675  134.5643  163.7721 H   0  0  0  0  0  0  0  0  0  0  0  0
  133.4213  133.3100  162.5634 H   0  0  0  0  0  0  0  0  0  0  0  0
  1  2  1  0
  1 35  1  0
  1 36  1  0
  1 37  1  0
  2 34  2  0
  2  3  1  0
  3  4  2  0
  3 38  1  0
  4  5  1  0
  4 33  1  0
  5  6  1  0
  5 39  1  0
  5 40  1  0
  6  7  1  0
  6 41  1  0
  6 42  1  0
  7  8  1  0
  7 43  1  0
  8 32  1  0
  8  9  2  0
  9 10  1  0
  9 44  1  0
 10 11  1  1
 10 12  1  0
 10 30  1  0
 12 13  1  0
 12 14  1  0
 12 15  1  0
 15 16  1  0
 15 23  1  0
 15 45  1  0
 16 17  1  0
 16 46  1  0
 16 47  1  0
 17 22  1  0
 17 18  2  0
 18 19  1  0
 18 48  1  0
 19 20  2  0
 19 49  1  0
 20 21  1  0
 20 50  1  0
 21 22  2  0
 21 51  1  0
 22 52  1  0
 23 24  1  0
 23 53  1  0
 23 54  1  0
 24 29  1  0
 24 25  2  0
 25 26  1  0
 25 55  1  0
 26 27  2  0
 26 56  1  0
 27 28  1  0
 27 57  1  0
 28 29  2  0
 28 58  1  0
 29 59  1  0
 30 31  1  0
 30 60  1  0
 30 61  1  0
 31 32  1  0
 31 62  1  0
 31 63  1  0
 32 64  1  0
 32 65  1  0
 33 34  1  0
M  CHG  1  12   1
M  END
>  <DOCK_score>  (1) 
-57.373959

>  <SMILES>  (1) 
Cc1cc(CCNC2=C[C@@H]([NH2+]C(Cc3ccccc3)Cc3ccccc3)CCC2)on1

$$$$
