C1=CCC(N[C@H](Nc2[nH]cc(-c3ccc(C4CC=CC4)cc3)[nH+]2)c2ccccc2)C1
     RDKit          3D

 59 63  0  0  1  0  0  0  0  0999 V2000
  134.7196  139.3404  161.4144 C   0  0  0  0  0  0  0  0  0  0  0  0
  134.8418  138.6114  160.3387 C   0  0  0  0  0  0  0  0  0  0  0  0
  133.6929  137.6390  160.2069 C   0  0  0  0  0  0  0  0  0  0  0  0
  133.0474  137.6007  161.6116 C   0  0  0  0  0  0  0  0  0  0  0  0
  131.5852  137.4944  161.5174 N   0  0  0  0  0  0  0  0  0  0  0  0
  131.1739  136.1091  161.2539 C   0  0  2  0  0  0  0  0  0  0  0  0
  131.7932  135.4289  161.8386 H   0  0  0  0  0  0  0  0  0  0  0  0
  131.3364  135.8142  159.8282 N   0  0  0  0  0  0  0  0  0  0  0  0
  131.0101  134.5610  159.3390 C   0  0  0  0  0  0  0  0  0  0  0  0
  130.5358  133.5207  160.0772 N   0  0  0  0  0  0  0  0  0  0  0  0
  130.3668  133.5239  161.0322 H   0  0  0  0  0  0  0  0  0  0  0  0
  130.3401  132.4653  159.2198 C   0  0  0  0  0  0  0  0  0  0  0  0
  130.7001  132.8905  157.9836 C   0  0  0  0  0  0  0  0  0  0  0  0
  130.6575  132.0872  156.7373 C   0  0  0  0  0  0  0  0  0  0  0  0
  130.4381  132.7109  155.5103 C   0  0  0  0  0  0  0  0  0  0  0  0
  130.3999  131.9587  154.3540 C   0  0  0  0  0  0  0  0  0  0  0  0
  130.5791  130.5883  154.4109 C   0  0  0  0  0  0  0  0  0  0  0  0
  130.5363  129.7722  153.1447 C   0  0  0  0  0  0  0  0  0  0  0  0
  129.2532  130.0709  152.3349 C   0  0  0  0  0  0  0  0  0  0  0  0
  129.6907  130.0315  150.8891 C   0  0  0  0  0  0  0  0  0  0  0  0
  130.9894  130.1161  150.7886 C   0  0  0  0  0  0  0  0  0  0  0  0
  131.6345  130.2259  152.1504 C   0  0  0  0  0  0  0  0  0  0  0  0
  130.7916  129.9632  155.6266 C   0  0  0  0  0  0  0  0  0  0  0  0
  130.8374  130.7061  156.7887 C   0  0  0  0  0  0  0  0  0  0  0  0
  131.1117  134.1790  158.0892 N   0  0  0  0  0  0  0  0  0  0  0  0
  131.4286  134.7301  157.3566 H   0  0  0  0  0  0  0  0  0  0  0  0
  129.7286  135.9317  161.6421 C   0  0  0  0  0  0  0  0  0  0  0  0
  129.4012  135.5351  162.9252 C   0  0  0  0  0  0  0  0  0  0  0  0
  128.0753  135.3767  163.2826 C   0  0  0  0  0  0  0  0  0  0  0  0
  127.0771  135.6062  162.3542 C   0  0  0  0  0  0  0  0  0  0  0  0
  127.4047  135.9979  161.0696 C   0  0  0  0  0  0  0  0  0  0  0  0
  128.7304  136.1604  160.7134 C   0  0  0  0  0  0  0  0  0  0  0  0
  133.4686  138.9754  162.1805 C   0  0  0  0  0  0  0  0  0  0  0  0
  135.4206  140.1039  161.7180 H   0  0  0  0  0  0  0  0  0  0  0  0
  135.6575  138.6922  159.6353 H   0  0  0  0  0  0  0  0  0  0  0  0
  134.0612  136.6508  159.9312 H   0  0  0  0  0  0  0  0  0  0  0  0
  132.9745  137.9952  159.4686 H   0  0  0  0  0  0  0  0  0  0  0  0
  133.4588  136.7872  162.2092 H   0  0  0  0  0  0  0  0  0  0  0  0
  131.2220  138.1197  160.8136 H   0  0  0  0  0  0  0  0  0  0  0  0
  131.6728  136.4971  159.2269 H   0  0  0  0  0  0  0  0  0  0  0  0
  129.9701  131.4847  159.4805 H   0  0  0  0  0  0  0  0  0  0  0  0
  130.2984  133.7809  155.4645 H   0  0  0  0  0  0  0  0  0  0  0  0
  130.2302  132.4409  153.4025 H   0  0  0  0  0  0  0  0  0  0  0  0
  130.6217  128.7079  153.3641 H   0  0  0  0  0  0  0  0  0  0  0  0
  128.8658  131.0578  152.5877 H   0  0  0  0  0  0  0  0  0  0  0  0
  128.4985  129.3076  152.5241 H   0  0  0  0  0  0  0  0  0  0  0  0
  129.0172  129.9445  150.0493 H   0  0  0  0  0  0  0  0  0  0  0  0
  131.5316  130.1082  149.8545 H   0  0  0  0  0  0  0  0  0  0  0  0
  132.5003  129.5668  152.2148 H   0  0  0  0  0  0  0  0  0  0  0  0
  131.9275  131.2568  152.3500 H   0  0  0  0  0  0  0  0  0  0  0  0
  130.9261  128.8923  155.6658 H   0  0  0  0  0  0  0  0  0  0  0  0
  131.0081  130.2177  157.7368 H   0  0  0  0  0  0  0  0  0  0  0  0
  130.1813  135.3522  163.6495 H   0  0  0  0  0  0  0  0  0  0  0  0
  127.8193  135.0711  164.2862 H   0  0  0  0  0  0  0  0  0  0  0  0
  126.0413  135.4799  162.6326 H   0  0  0  0  0  0  0  0  0  0  0  0
  126.6248  136.1771  160.3443 H   0  0  0  0  0  0  0  0  0  0  0  0
  128.9864  136.4664  159.7098 H   0  0  0  0  0  0  0  0  0  0  0  0
  132.6870  139.7146  162.0051 H   0  0  0  0  0  0  0  0  0  0  0  0
  133.6848  138.8954  163.2458 H   0  0  0  0  0  0  0  0  0  0  0  0
  1 33  1  0
  1  2  2  0
  1 34  1  0
  2  3  1  0
  2 35  1  0
  3  4  1  0
  3 36  1  0
  3 37  1  0
  4  5  1  0
  4 33  1  0
  4 38  1  0
  5  6  1  0
  5 39  1  0
  6  7  1  1
  6  8  1  0
  6 27  1  0
  8 40  1  0
  9  8  1  0
  9 25  2  0
  9 10  1  0
 10 11  1  0
 10 12  1  0
 12 13  2  0
 12 41  1  0
 13 14  1  0
 13 25  1  0
 14 24  1  0
 14 15  2  0
 15 16  1  0
 15 42  1  0
 16 17  2  0
 16 43  1  0
 17 18  1  0
 17 23  1  0
 18 22  1  0
 18 19  1  0
 18 44  1  0
 19 20  1  0
 19 45  1  0
 19 46  1  0
 20 21  2  0
 20 47  1  0
 21 22  1  0
 21 48  1  0
 22 49  1  0
 22 50  1  0
 23 24  2  0
 23 51  1  0
 24 52  1  0
 25 26  1  0
 27 32  1  0
 27 28  2  0
 28 29  1  0
 28 53  1  0
 29 30  2  0
 29 54  1  0
 30 31  1  0
 30 55  1  0
 31 32  2  0
 31 56  1  0
 32 57  1  0
 33 58  1  0
 33 59  1  0
M  CHG  1  25   1
M  END
>  <DOCK_score>  (1) 
-57.158657

>  <SMILES>  (1) 
C1=CCC(N[C@H](Nc2[nH]cc(-c3ccc(C4CC=CC4)cc3)[nH+]2)c2ccccc2)C1

$$$$
