N#CN[C@H](c1ccccc1)C(Nc1[nH]cc(-c2ccc(N)cc2)[nH+]1)c1ccccc1
     RDKit          3D

 53 56  0  0  1  0  0  0  0  0999 V2000
  130.9534  140.2137  160.3505 N   0  0  0  0  0  0  0  0  0  0  0  0
  130.6959  139.1189  160.1902 C   0  0  0  0  0  0  0  0  0  0  0  0
  130.3888  137.8130  159.9993 N   0  0  0  0  0  0  0  0  0  0  0  0
  130.5285  136.8589  161.1021 C   0  0  2  0  0  0  0  0  0  0  0  0
  129.8859  137.1623  161.9286 H   0  0  0  0  0  0  0  0  0  0  0  0
  131.9626  136.8319  161.5644 C   0  0  0  0  0  0  0  0  0  0  0  0
  132.2577  136.5517  162.8855 C   0  0  0  0  0  0  0  0  0  0  0  0
  133.5734  136.5227  163.3087 C   0  0  0  0  0  0  0  0  0  0  0  0
  134.5934  136.7829  162.4127 C   0  0  0  0  0  0  0  0  0  0  0  0
  134.2980  137.0683  161.0928 C   0  0  0  0  0  0  0  0  0  0  0  0
  132.9825  137.0929  160.6687 C   0  0  0  0  0  0  0  0  0  0  0  0
  130.1203  135.4638  160.6244 C   0  0  2  0  0  0  0  0  0  0  0  0
  130.6212  135.2473  159.2647 N   0  0  0  0  0  0  0  0  0  0  0  0
  130.3738  134.0481  158.6188 C   0  0  0  0  0  0  0  0  0  0  0  0
  129.6863  132.9950  159.1383 N   0  0  0  0  0  0  0  0  0  0  0  0
  129.2849  132.9497  160.0202 H   0  0  0  0  0  0  0  0  0  0  0  0
  129.6627  132.0086  158.1809 C   0  0  0  0  0  0  0  0  0  0  0  0
  130.3437  132.4843  157.1093 C   0  0  0  0  0  0  0  0  0  0  0  0
  130.5823  131.7620  155.8357 C   0  0  0  0  0  0  0  0  0  0  0  0
  130.1071  132.2878  154.6353 C   0  0  0  0  0  0  0  0  0  0  0  0
  130.3352  131.6175  153.4521 C   0  0  0  0  0  0  0  0  0  0  0  0
  131.0278  130.4130  153.4568 C   0  0  0  0  0  0  0  0  0  0  0  0
  131.2520  129.7321  152.2578 N   0  0  0  0  0  0  0  0  0  0  0  0
  131.4977  129.8837  154.6532 C   0  0  0  0  0  0  0  0  0  0  0  0
  131.2771  130.5534  155.8383 C   0  0  0  0  0  0  0  0  0  0  0  0
  130.7679  133.7378  157.4076 N   0  0  0  0  0  0  0  0  0  0  0  0
  131.2813  134.3128  156.8188 H   0  0  0  0  0  0  0  0  0  0  0  0
  128.6177  135.3504  160.6301 C   0  0  0  0  0  0  0  0  0  0  0  0
  127.9628  134.9014  161.7617 C   0  0  0  0  0  0  0  0  0  0  0  0
  126.5844  134.7970  161.7668 C   0  0  0  0  0  0  0  0  0  0  0  0
  125.8608  135.1416  160.6404 C   0  0  0  0  0  0  0  0  0  0  0  0
  126.5162  135.5855  159.5071 C   0  0  0  0  0  0  0  0  0  0  0  0
  127.8942  135.6950  159.5037 C   0  0  0  0  0  0  0  0  0  0  0  0
  130.0766  137.5101  159.1323 H   0  0  0  0  0  0  0  0  0  0  0  0
  131.4606  136.3521  163.5863 H   0  0  0  0  0  0  0  0  0  0  0  0
  133.8042  136.2994  164.3399 H   0  0  0  0  0  0  0  0  0  0  0  0
  135.6213  136.7628  162.7439 H   0  0  0  0  0  0  0  0  0  0  0  0
  135.0950  137.2714  160.3928 H   0  0  0  0  0  0  0  0  0  0  0  0
  132.7517  137.3158  159.6375 H   0  0  0  0  0  0  0  0  0  0  0  0
  130.5440  134.7131  161.2915 H   0  0  0  0  0  0  0  0  0  0  0  0
  131.1263  135.9441  158.8173 H   0  0  0  0  0  0  0  0  0  0  0  0
  129.1956  131.0387  158.2677 H   0  0  0  0  0  0  0  0  0  0  0  0
  129.5646  133.2216  154.6316 H   0  0  0  0  0  0  0  0  0  0  0  0
  129.9712  132.0269  152.5213 H   0  0  0  0  0  0  0  0  0  0  0  0
  131.7355  128.8912  152.2604 H   0  0  0  0  0  0  0  0  0  0  0  0
  130.9242  130.1005  151.4225 H   0  0  0  0  0  0  0  0  0  0  0  0
  132.0358  128.9474  154.6548 H   0  0  0  0  0  0  0  0  0  0  0  0
  131.6424  130.1421  156.7676 H   0  0  0  0  0  0  0  0  0  0  0  0
  128.5279  134.6319  162.6416 H   0  0  0  0  0  0  0  0  0  0  0  0
  126.0727  134.4459  162.6508 H   0  0  0  0  0  0  0  0  0  0  0  0
  124.7840  135.0596  160.6443 H   0  0  0  0  0  0  0  0  0  0  0  0
  125.9512  135.8505  158.6256 H   0  0  0  0  0  0  0  0  0  0  0  0
  128.4060  136.0454  158.6196 H   0  0  0  0  0  0  0  0  0  0  0  0
  1  2  3  0
  2  3  1  0
  3  4  1  0
  3 34  1  0
  4  5  1  1
  4  6  1  0
  4 12  1  0
  6 11  1  0
  6  7  2  0
  7  8  1  0
  7 35  1  0
  8  9  2  0
  8 36  1  0
  9 10  1  0
  9 37  1  0
 10 11  2  0
 10 38  1  0
 11 39  1  0
 12 13  1  0
 12 28  1  0
 12 40  1  1
 13 41  1  0
 14 13  1  0
 14 26  2  0
 14 15  1  0
 15 16  1  0
 15 17  1  0
 17 18  2  0
 17 42  1  0
 18 19  1  0
 18 26  1  0
 19 25  1  0
 19 20  2  0
 20 21  1  0
 20 43  1  0
 21 22  2  0
 21 44  1  0
 22 23  1  0
 22 24  1  0
 23 45  1  0
 23 46  1  0
 24 25  2  0
 24 47  1  0
 25 48  1  0
 26 27  1  0
 28 33  1  0
 28 29  2  0
 29 30  1  0
 29 49  1  0
 30 31  2  0
 30 50  1  0
 31 32  1  0
 31 51  1  0
 32 33  2  0
 32 52  1  0
 33 53  1  0
M  CHG  1  26   1
M  END
>  <DOCK_score>  (1) 
-64.53894

>  <SMILES>  (1) 
N#CN[C@H](c1ccccc1)C(Nc1[nH]cc(-c2ccc(N)cc2)[nH+]1)c1ccccc1

$$$$
