CCN1CC[NH+]=C1NCc1ccc(Nc2cccc(Oc3ccccc3)c2)cc1
     RDKit          3D

 56 59  0  0  1  0  0  0  0  0999 V2000
  131.7075  130.5398  158.9143 C   0  0  0  0  0  0  0  0  0  0  0  0
  130.4687  130.3242  158.0427 C   0  0  0  0  0  0  0  0  0  0  0  0
  130.6038  131.0934  156.8033 N   0  0  0  0  0  0  0  0  0  0  0  0
  131.2129  130.6118  155.5523 C   0  0  0  0  0  0  0  0  0  0  0  0
  131.0820  131.8219  154.6061 C   0  0  0  0  0  0  0  0  0  0  0  0
  130.4127  132.8425  155.4245 N   0  0  0  0  0  0  0  0  0  0  0  0
  130.1772  133.7327  155.1196 H   0  0  0  0  0  0  0  0  0  0  0  0
  130.1855  132.3816  156.6111 C   0  0  0  0  0  0  0  0  0  0  0  0
  129.5708  133.1210  157.5937 N   0  0  0  0  0  0  0  0  0  0  0  0
  129.1480  134.4964  157.3190 C   0  0  0  0  0  0  0  0  0  0  0  0
  128.5062  135.0802  158.5513 C   0  0  0  0  0  0  0  0  0  0  0  0
  128.8403  136.3572  158.9640 C   0  0  0  0  0  0  0  0  0  0  0  0
  128.2499  136.8973  160.0896 C   0  0  0  0  0  0  0  0  0  0  0  0
  127.3279  136.1522  160.8139 C   0  0  0  0  0  0  0  0  0  0  0  0
  126.7330  136.6930  161.9565 N   0  0  0  0  0  0  0  0  0  0  0  0
  126.8959  136.0653  163.1933 C   0  0  0  0  0  0  0  0  0  0  0  0
  125.8982  136.1557  164.1568 C   0  0  0  0  0  0  0  0  0  0  0  0
  126.0597  135.5343  165.3797 C   0  0  0  0  0  0  0  0  0  0  0  0
  127.2127  134.8214  165.6489 C   0  0  0  0  0  0  0  0  0  0  0  0
  128.2129  134.7283  164.6911 C   0  0  0  0  0  0  0  0  0  0  0  0
  129.3463  134.0278  164.9576 O   0  0  0  0  0  0  0  0  0  0  0  0
  130.5372  134.5885  164.6196 C   0  0  0  0  0  0  0  0  0  0  0  0
  131.5093  133.8269  163.9871 C   0  0  0  0  0  0  0  0  0  0  0  0
  132.7170  134.4007  163.6400 C   0  0  0  0  0  0  0  0  0  0  0  0
  132.9616  135.7299  163.9318 C   0  0  0  0  0  0  0  0  0  0  0  0
  131.9965  136.4896  164.5672 C   0  0  0  0  0  0  0  0  0  0  0  0
  130.7852  135.9221  164.9114 C   0  0  0  0  0  0  0  0  0  0  0  0
  128.0523  135.3454  163.4599 C   0  0  0  0  0  0  0  0  0  0  0  0
  126.9988  134.8674  160.3997 C   0  0  0  0  0  0  0  0  0  0  0  0
  127.5889  134.3356  159.2701 C   0  0  0  0  0  0  0  0  0  0  0  0
  131.8043  131.5989  159.1527 H   0  0  0  0  0  0  0  0  0  0  0  0
  131.6070  129.9674  159.8365 H   0  0  0  0  0  0  0  0  0  0  0  0
  132.5940  130.2063  158.3746 H   0  0  0  0  0  0  0  0  0  0  0  0
  129.5822  130.6576  158.5824 H   0  0  0  0  0  0  0  0  0  0  0  0
  130.3719  129.2650  157.8043 H   0  0  0  0  0  0  0  0  0  0  0  0
  132.2612  130.3572  155.7082 H   0  0  0  0  0  0  0  0  0  0  0  0
  130.6641  129.7545  155.1625 H   0  0  0  0  0  0  0  0  0  0  0  0
  132.0660  132.1670  154.2887 H   0  0  0  0  0  0  0  0  0  0  0  0
  130.4705  131.5659  153.7408 H   0  0  0  0  0  0  0  0  0  0  0  0
  129.4171  132.7320  158.4689 H   0  0  0  0  0  0  0  0  0  0  0  0
  130.0160  135.0952  157.0431 H   0  0  0  0  0  0  0  0  0  0  0  0
  128.4294  134.4988  156.4994 H   0  0  0  0  0  0  0  0  0  0  0  0
  129.5606  136.9341  158.4032 H   0  0  0  0  0  0  0  0  0  0  0  0
  128.5081  137.8961  160.4091 H   0  0  0  0  0  0  0  0  0  0  0  0
  126.2058  137.5052  161.8901 H   0  0  0  0  0  0  0  0  0  0  0  0
  124.9961  136.7119  163.9489 H   0  0  0  0  0  0  0  0  0  0  0  0
  125.2832  135.6054  166.1269 H   0  0  0  0  0  0  0  0  0  0  0  0
  127.3358  134.3364  166.6059 H   0  0  0  0  0  0  0  0  0  0  0  0
  131.3204  132.7875  163.7625 H   0  0  0  0  0  0  0  0  0  0  0  0
  133.4725  133.8092  163.1440 H   0  0  0  0  0  0  0  0  0  0  0  0
  133.9081  136.1754  163.6635 H   0  0  0  0  0  0  0  0  0  0  0  0
  132.1901  137.5276  164.7941 H   0  0  0  0  0  0  0  0  0  0  0  0
  130.0318  136.5159  165.4076 H   0  0  0  0  0  0  0  0  0  0  0  0
  128.8273  135.2697  162.7116 H   0  0  0  0  0  0  0  0  0  0  0  0
  126.2823  134.2855  160.9602 H   0  0  0  0  0  0  0  0  0  0  0  0
  127.3338  133.3369  158.9476 H   0  0  0  0  0  0  0  0  0  0  0  0
  1  2  1  0
  1 31  1  0
  1 32  1  0
  1 33  1  0
  2  3  1  0
  2 34  1  0
  2 35  1  0
  3  8  1  0
  3  4  1  0
  4  5  1  0
  4 36  1  0
  4 37  1  0
  5  6  1  0
  5 38  1  0
  5 39  1  0
  6  7  1  0
  6  8  2  0
  8  9  1  0
  9 10  1  0
  9 40  1  0
 10 11  1  0
 10 41  1  0
 10 42  1  0
 11 30  1  0
 11 12  2  0
 12 13  1  0
 12 43  1  0
 13 14  2  0
 13 44  1  0
 14 15  1  0
 14 29  1  0
 15 16  1  0
 15 45  1  0
 16 28  1  0
 16 17  2  0
 17 18  1  0
 17 46  1  0
 18 19  2  0
 18 47  1  0
 19 20  1  0
 19 48  1  0
 20 21  1  0
 20 28  2  0
 21 22  1  0
 22 27  1  0
 22 23  2  0
 23 24  1  0
 23 49  1  0
 24 25  2  0
 24 50  1  0
 25 26  1  0
 25 51  1  0
 26 27  2  0
 26 52  1  0
 27 53  1  0
 28 54  1  0
 29 30  2  0
 29 55  1  0
 30 56  1  0
M  CHG  1   6   1
M  END
>  <DOCK_score>  (1) 
-43.348347

>  <SMILES>  (1) 
CCN1CC[NH+]=C1NCc1ccc(Nc2cccc(Oc3ccccc3)c2)cc1

$$$$
