Cn1nccc1C([C@H](Nc1[nH]cc(-c2ccc(N)cc2)[nH+]1)c1ccccc1)C(F)(F)F
     RDKit          3D

 53 56  0  0  1  0  0  0  0  0999 V2000
  132.4574  138.5268  159.9845 C   0  0  0  0  0  0  0  0  0  0  0  0
  132.5541  137.1429  160.4552 N   0  0  0  0  0  0  0  0  0  0  0  0
  133.6654  136.5597  161.0772 N   0  0  0  0  0  0  0  0  0  0  0  0
  133.3755  135.3125  161.3464 C   0  0  0  0  0  0  0  0  0  0  0  0
  132.0704  135.0632  160.9096 C   0  0  0  0  0  0  0  0  0  0  0  0
  131.5871  136.2055  160.3685 C   0  0  0  0  0  0  0  0  0  0  0  0
  130.2169  136.3950  159.7703 C   0  0  1  0  0  0  0  0  0  0  0  0
  129.7275  135.0683  159.1862 C   0  0  2  0  0  0  0  0  0  0  0  0
  129.6785  134.3194  159.9766 H   0  0  0  0  0  0  0  0  0  0  0  0
  130.6567  134.6204  158.1460 N   0  0  0  0  0  0  0  0  0  0  0  0
  130.4201  133.4357  157.4700 C   0  0  0  0  0  0  0  0  0  0  0  0
  129.7820  132.3467  157.9786 N   0  0  0  0  0  0  0  0  0  0  0  0
  129.4141  132.2616  158.8720 H   0  0  0  0  0  0  0  0  0  0  0  0
  129.7556  131.3894  156.9922 C   0  0  0  0  0  0  0  0  0  0  0  0
  130.3727  131.9234  155.9093 C   0  0  0  0  0  0  0  0  0  0  0  0
  130.5759  131.2533  154.6015 C   0  0  0  0  0  0  0  0  0  0  0  0
  130.0309  131.8043  153.4427 C   0  0  0  0  0  0  0  0  0  0  0  0
  130.2260  131.1828  152.2273 C   0  0  0  0  0  0  0  0  0  0  0  0
  130.9552  130.0019  152.1586 C   0  0  0  0  0  0  0  0  0  0  0  0
  131.1460  129.3701  150.9273 N   0  0  0  0  0  0  0  0  0  0  0  0
  131.4946  129.4474  153.3136 C   0  0  0  0  0  0  0  0  0  0  0  0
  131.3070  130.0686  154.5303 C   0  0  0  0  0  0  0  0  0  0  0  0
  130.7746  133.1777  156.2345 N   0  0  0  0  0  0  0  0  0  0  0  0
  131.2455  133.7877  155.6456 H   0  0  0  0  0  0  0  0  0  0  0  0
  128.3574  135.2579  158.5881 C   0  0  0  0  0  0  0  0  0  0  0  0
  127.2308  135.0598  159.3645 C   0  0  0  0  0  0  0  0  0  0  0  0
  125.9741  135.2376  158.8168 C   0  0  0  0  0  0  0  0  0  0  0  0
  125.8437  135.6054  157.4907 C   0  0  0  0  0  0  0  0  0  0  0  0
  126.9701  135.7984  156.7129 C   0  0  0  0  0  0  0  0  0  0  0  0
  128.2270  135.6244  157.2616 C   0  0  0  0  0  0  0  0  0  0  0  0
  129.2464  136.8628  160.8568 C   0  0  0  0  0  0  0  0  0  0  0  0
  129.6939  138.0759  161.3910 F   0  0  0  0  0  0  0  0  0  0  0  0
  127.9745  137.0389  160.3015 F   0  0  0  0  0  0  0  0  0  0  0  0
  129.1835  135.9016  161.8712 F   0  0  0  0  0  0  0  0  0  0  0  0
  132.0728  139.1573  160.7863 H   0  0  0  0  0  0  0  0  0  0  0  0
  133.4450  138.8793  159.6871 H   0  0  0  0  0  0  0  0  0  0  0  0
  131.7824  138.5737  159.1298 H   0  0  0  0  0  0  0  0  0  0  0  0
  134.0310  134.5987  161.8230 H   0  0  0  0  0  0  0  0  0  0  0  0
  131.5418  134.1248  160.9897 H   0  0  0  0  0  0  0  0  0  0  0  0
  130.2659  137.1441  158.9800 H   0  0  0  0  0  0  0  0  0  0  0  0
  131.4378  135.1540  157.9308 H   0  0  0  0  0  0  0  0  0  0  0  0
  129.3221  130.4029  157.0644 H   0  0  0  0  0  0  0  0  0  0  0  0
  129.4601  132.7195  153.4963 H   0  0  0  0  0  0  0  0  0  0  0  0
  129.8078  131.6117  151.3286 H   0  0  0  0  0  0  0  0  0  0  0  0
  131.6548  128.5459  150.8787 H   0  0  0  0  0  0  0  0  0  0  0  0
  130.7696  129.7561  150.1209 H   0  0  0  0  0  0  0  0  0  0  0  0
  132.0611  128.5296  153.2580 H   0  0  0  0  0  0  0  0  0  0  0  0
  131.7265  129.6377  155.4274 H   0  0  0  0  0  0  0  0  0  0  0  0
  127.3327  134.7691  160.3996 H   0  0  0  0  0  0  0  0  0  0  0  0
  125.0940  135.0864  159.4243 H   0  0  0  0  0  0  0  0  0  0  0  0
  124.8617  135.7418  157.0621 H   0  0  0  0  0  0  0  0  0  0  0  0
  126.8682  136.0854  155.6768 H   0  0  0  0  0  0  0  0  0  0  0  0
  129.1070  135.7752  156.6540 H   0  0  0  0  0  0  0  0  0  0  0  0
  1  2  1  0
  1 35  1  0
  1 36  1  0
  1 37  1  0
  2  6  1  0
  2  3  1  0
  3  4  2  0
  4  5  1  0
  4 38  1  0
  5  6  2  0
  5 39  1  0
  6  7  1  0
  7  8  1  0
  7 31  1  0
  7 40  1  6
  8  9  1  1
  8 10  1  0
  8 25  1  0
 10 41  1  0
 11 10  1  0
 11 23  2  0
 11 12  1  0
 12 13  1  0
 12 14  1  0
 14 15  2  0
 14 42  1  0
 15 16  1  0
 15 23  1  0
 16 22  1  0
 16 17  2  0
 17 18  1  0
 17 43  1  0
 18 19  2  0
 18 44  1  0
 19 20  1  0
 19 21  1  0
 20 45  1  0
 20 46  1  0
 21 22  2  0
 21 47  1  0
 22 48  1  0
 23 24  1  0
 25 30  1  0
 25 26  2  0
 26 27  1  0
 26 49  1  0
 27 28  2  0
 27 50  1  0
 28 29  1  0
 28 51  1  0
 29 30  2  0
 29 52  1  0
 30 53  1  0
 31 32  1  0
 31 33  1  0
 31 34  1  0
M  CHG  1  23   1
M  END
>  <DOCK_score>  (1) 
-66.23056

>  <SMILES>  (1) 
Cn1nccc1C([C@H](Nc1[nH]cc(-c2ccc(N)cc2)[nH+]1)c1ccccc1)C(F)(F)F

$$$$
