Cc1c(N2CC[NH+](C(c3ccccc3)c3ccc(N[C@H]4CNC(=O)C4)cc3)CC2)ccc2c1CCC2
     RDKit          3D

 73 78  0  0  1  0  0  0  0  0999 V2000
  133.7842  135.1144  163.4641 C   0  0  0  0  0  0  0  0  0  0  0  0
  134.2467  136.1238  162.4452 C   0  0  0  0  0  0  0  0  0  0  0  0
  133.6389  136.1774  161.1983 C   0  0  0  0  0  0  0  0  0  0  0  0
  132.5995  135.2977  160.8870 N   0  0  0  0  0  0  0  0  0  0  0  0
  132.9789  134.4033  159.7842 C   0  0  0  0  0  0  0  0  0  0  0  0
  131.8389  133.4188  159.5140 C   0  0  0  0  0  0  0  0  0  0  0  0
  130.6211  134.1630  159.1668 N   0  0  0  0  0  0  0  0  0  0  0  0
  130.7934  134.7261  158.3475 H   0  0  0  0  0  0  0  0  0  0  0  0
  129.5319  133.2171  158.8898 C   0  0  1  0  0  0  0  0  0  0  0  0
  128.2823  133.9803  158.5336 C   0  0  0  0  0  0  0  0  0  0  0  0
  127.0402  133.4463  158.8220 C   0  0  0  0  0  0  0  0  0  0  0  0
  125.8941  134.1486  158.4995 C   0  0  0  0  0  0  0  0  0  0  0  0
  125.9896  135.3803  157.8794 C   0  0  0  0  0  0  0  0  0  0  0  0
  127.2315  135.9120  157.5862 C   0  0  0  0  0  0  0  0  0  0  0  0
  128.3778  135.2121  157.9134 C   0  0  0  0  0  0  0  0  0  0  0  0
  129.9212  132.3255  157.7390 C   0  0  0  0  0  0  0  0  0  0  0  0
  130.2069  132.8783  156.5040 C   0  0  0  0  0  0  0  0  0  0  0  0
  130.5695  132.0645  155.4488 C   0  0  0  0  0  0  0  0  0  0  0  0
  130.6362  130.6884  155.6259 C   0  0  0  0  0  0  0  0  0  0  0  0
  130.9975  129.8620  154.5594 N   0  0  0  0  0  0  0  0  0  0  0  0
  131.3068  130.4464  153.2520 C   0  0  1  0  0  0  0  0  0  0  0  0
  131.8802  131.3667  153.3643 H   0  0  0  0  0  0  0  0  0  0  0  0
  132.0545  129.4338  152.3566 C   0  0  0  0  0  0  0  0  0  0  0  0
  131.0118  128.7539  151.5793 N   0  0  0  0  0  0  0  0  0  0  0  0
  129.8578  129.4429  151.6028 C   0  0  0  0  0  0  0  0  0  0  0  0
  128.8382  129.1097  151.0367 O   0  0  0  0  0  0  0  0  0  0  0  0
  130.0161  130.6946  152.4375 C   0  0  0  0  0  0  0  0  0  0  0  0
  130.3431  130.1360  156.8663 C   0  0  0  0  0  0  0  0  0  0  0  0
  129.9865  130.9559  157.9188 C   0  0  0  0  0  0  0  0  0  0  0  0
  130.2406  135.0331  160.2874 C   0  0  0  0  0  0  0  0  0  0  0  0
  131.3674  136.0308  160.5641 C   0  0  0  0  0  0  0  0  0  0  0  0
  134.0716  137.1047  160.2593 C   0  0  0  0  0  0  0  0  0  0  0  0
  135.0951  137.9752  160.5743 C   0  0  0  0  0  0  0  0  0  0  0  0
  135.7009  137.9209  161.8190 C   0  0  0  0  0  0  0  0  0  0  0  0
  135.2761  136.9946  162.7544 C   0  0  0  0  0  0  0  0  0  0  0  0
  136.0906  137.1377  164.0223 C   0  0  0  0  0  0  0  0  0  0  0  0
  137.3395  137.9460  163.6111 C   0  0  0  0  0  0  0  0  0  0  0  0
  136.8294  138.7489  162.3959 C   0  0  0  0  0  0  0  0  0  0  0  0
  134.4051  134.2211  163.3982 H   0  0  0  0  0  0  0  0  0  0  0  0
  133.8679  135.5421  164.4631 H   0  0  0  0  0  0  0  0  0  0  0  0
  132.7451  134.8499  163.2679 H   0  0  0  0  0  0  0  0  0  0  0  0
  133.8789  133.8518  160.0564 H   0  0  0  0  0  0  0  0  0  0  0  0
  133.1709  134.9925  158.8876 H   0  0  0  0  0  0  0  0  0  0  0  0
  132.1128  132.7640  158.6868 H   0  0  0  0  0  0  0  0  0  0  0  0
  131.6568  132.8200  160.4064 H   0  0  0  0  0  0  0  0  0  0  0  0
  129.3458  132.6081  159.7744 H   0  0  0  0  0  0  0  0  0  0  0  0
  126.9655  132.4818  159.3025 H   0  0  0  0  0  0  0  0  0  0  0  0
  124.9238  133.7329  158.7282 H   0  0  0  0  0  0  0  0  0  0  0  0
  125.0941  135.9269  157.6234 H   0  0  0  0  0  0  0  0  0  0  0  0
  127.3061  136.8742  157.1014 H   0  0  0  0  0  0  0  0  0  0  0  0
  129.3481  135.6275  157.6841 H   0  0  0  0  0  0  0  0  0  0  0  0
  130.1502  133.9479  156.3657 H   0  0  0  0  0  0  0  0  0  0  0  0
  130.7967  132.4973  154.4857 H   0  0  0  0  0  0  0  0  0  0  0  0
  131.0437  128.9013  154.6844 H   0  0  0  0  0  0  0  0  0  0  0  0
  132.7422  129.9550  151.6907 H   0  0  0  0  0  0  0  0  0  0  0  0
  132.5960  128.7148  152.9714 H   0  0  0  0  0  0  0  0  0  0  0  0
  131.1390  127.9151  151.1091 H   0  0  0  0  0  0  0  0  0  0  0  0
  129.1626  130.8192  153.1038 H   0  0  0  0  0  0  0  0  0  0  0  0
  130.1315  131.5685  151.7965 H   0  0  0  0  0  0  0  0  0  0  0  0
  130.3936  129.0664  157.0073 H   0  0  0  0  0  0  0  0  0  0  0  0
  129.7583  130.5270  158.8833 H   0  0  0  0  0  0  0  0  0  0  0  0
  129.3295  135.5749  160.0335 H   0  0  0  0  0  0  0  0  0  0  0  0
  130.0666  134.4259  161.1759 H   0  0  0  0  0  0  0  0  0  0  0  0
  131.5323  136.6474  159.6803 H   0  0  0  0  0  0  0  0  0  0  0  0
  131.0912  136.6672  161.4049 H   0  0  0  0  0  0  0  0  0  0  0  0
  133.6051  137.1474  159.2862 H   0  0  0  0  0  0  0  0  0  0  0  0
  135.4286  138.6989  159.8455 H   0  0  0  0  0  0  0  0  0  0  0  0
  135.5218  137.6792  164.7783 H   0  0  0  0  0  0  0  0  0  0  0  0
  136.3817  136.1567  164.3977 H   0  0  0  0  0  0  0  0  0  0  0  0
  138.1535  137.2811  163.3222 H   0  0  0  0  0  0  0  0  0  0  0  0
  137.6535  138.6142  164.4130 H   0  0  0  0  0  0  0  0  0  0  0  0
  137.6250  138.8683  161.6605 H   0  0  0  0  0  0  0  0  0  0  0  0
  136.4590  139.7232  162.7148 H   0  0  0  0  0  0  0  0  0  0  0  0
  1  2  1  0
  1 39  1  0
  1 40  1  0
  1 41  1  0
  2 35  2  0
  2  3  1  0
  3  4  1  0
  3 32  2  0
  4 31  1  0
  4  5  1  0
  5  6  1  0
  5 42  1  0
  5 43  1  0
  6  7  1  0
  6 44  1  0
  6 45  1  0
  7  8  1  0
  7  9  1  0
  7 30  1  0
  9 10  1  0
  9 16  1  0
  9 46  1  1
 10 15  1  0
 10 11  2  0
 11 12  1  0
 11 47  1  0
 12 13  2  0
 12 48  1  0
 13 14  1  0
 13 49  1  0
 14 15  2  0
 14 50  1  0
 15 51  1  0
 16 29  1  0
 16 17  2  0
 17 18  1  0
 17 52  1  0
 18 19  2  0
 18 53  1  0
 19 20  1  0
 19 28  1  0
 20 21  1  0
 20 54  1  0
 21 22  1  1
 21 27  1  0
 21 23  1  0
 23 24  1  0
 23 55  1  0
 23 56  1  0
 24 25  1  0
 24 57  1  0
 25 26  2  0
 25 27  1  0
 27 58  1  0
 27 59  1  0
 28 29  2  0
 28 60  1  0
 29 61  1  0
 30 31  1  0
 30 62  1  0
 30 63  1  0
 31 64  1  0
 31 65  1  0
 32 33  1  0
 32 66  1  0
 33 34  2  0
 33 67  1  0
 34 38  1  0
 34 35  1  0
 35 36  1  0
 36 37  1  0
 36 68  1  0
 36 69  1  0
 37 38  1  0
 37 70  1  0
 37 71  1  0
 38 72  1  0
 38 73  1  0
M  CHG  1   7   1
M  END
>  <DOCK_score>  (1) 
-57.506287

>  <SMILES>  (1) 
Cc1c(N2CC[NH+](C(c3ccccc3)c3ccc(N[C@H]4CNC(=O)C4)cc3)CC2)ccc2c1CCC2

$$$$
