Nc1ccc(-c2c[nH]c(N[C@@H](Cc3ccccc3)c3ccc(F)cc3)[nH+]2)cc1
     RDKit          3D

 50 53  0  0  1  0  0  0  0  0999 V2000
  130.9914  129.8097  152.1792 N   0  0  0  0  0  0  0  0  0  0  0  0
  130.8298  130.4626  153.4036 C   0  0  0  0  0  0  0  0  0  0  0  0
  130.0566  131.6151  153.4785 C   0  0  0  0  0  0  0  0  0  0  0  0
  129.8956  132.2612  154.6860 C   0  0  0  0  0  0  0  0  0  0  0  0
  130.5090  131.7577  155.8320 C   0  0  0  0  0  0  0  0  0  0  0  0
  130.3373  132.4512  157.1322 C   0  0  0  0  0  0  0  0  0  0  0  0
  129.7870  131.9213  158.2524 C   0  0  0  0  0  0  0  0  0  0  0  0
  129.8262  132.9001  159.2171 N   0  0  0  0  0  0  0  0  0  0  0  0
  129.5047  132.8215  160.1289 H   0  0  0  0  0  0  0  0  0  0  0  0
  130.3997  133.9994  158.6566 C   0  0  0  0  0  0  0  0  0  0  0  0
  130.6249  135.2063  159.2964 N   0  0  0  0  0  0  0  0  0  0  0  0
  130.2342  135.3764  160.6979 C   0  0  1  0  0  0  0  0  0  0  0  0
  130.7635  134.6493  161.3136 H   0  0  0  0  0  0  0  0  0  0  0  0
  130.5911  136.7910  161.1588 C   0  0  0  0  0  0  0  0  0  0  0  0
  132.0594  136.8551  161.4924 C   0  0  0  0  0  0  0  0  0  0  0  0
  132.4892  136.5767  162.7764 C   0  0  0  0  0  0  0  0  0  0  0  0
  133.8360  136.6355  163.0823 C   0  0  0  0  0  0  0  0  0  0  0  0
  134.7530  136.9715  162.1040 C   0  0  0  0  0  0  0  0  0  0  0  0
  134.3227  137.2545  160.8212 C   0  0  0  0  0  0  0  0  0  0  0  0
  132.9764  137.1915  160.5142 C   0  0  0  0  0  0  0  0  0  0  0  0
  128.7485  135.1635  160.8347 C   0  0  0  0  0  0  0  0  0  0  0  0
  128.2287  134.6567  162.0111 C   0  0  0  0  0  0  0  0  0  0  0  0
  126.8659  134.4663  162.1397 C   0  0  0  0  0  0  0  0  0  0  0  0
  126.0221  134.7733  161.0857 C   0  0  0  0  0  0  0  0  0  0  0  0
  124.6904  134.5826  161.2083 F   0  0  0  0  0  0  0  0  0  0  0  0
  126.5444  135.2757  159.9058 C   0  0  0  0  0  0  0  0  0  0  0  0
  127.9071  135.4701  159.7814 C   0  0  0  0  0  0  0  0  0  0  0  0
  130.6985  133.7291  157.4092 N   0  0  0  0  0  0  0  0  0  0  0  0
  131.1137  134.3441  156.7845 H   0  0  0  0  0  0  0  0  0  0  0  0
  131.2887  130.6048  155.7534 C   0  0  0  0  0  0  0  0  0  0  0  0
  131.4419  129.9585  154.5450 C   0  0  0  0  0  0  0  0  0  0  0  0
  130.5643  130.1605  151.3823 H   0  0  0  0  0  0  0  0  0  0  0  0
  131.5309  129.0051  152.1261 H   0  0  0  0  0  0  0  0  0  0  0  0
  129.5819  132.0050  152.5903 H   0  0  0  0  0  0  0  0  0  0  0  0
  129.2946  133.1566  154.7438 H   0  0  0  0  0  0  0  0  0  0  0  0
  129.3932  130.9221  158.3652 H   0  0  0  0  0  0  0  0  0  0  0  0
  131.0415  135.9392  158.8165 H   0  0  0  0  0  0  0  0  0  0  0  0
  130.0063  137.0434  162.0434 H   0  0  0  0  0  0  0  0  0  0  0  0
  130.3684  137.5000  160.3615 H   0  0  0  0  0  0  0  0  0  0  0  0
  131.7728  136.3138  163.5407 H   0  0  0  0  0  0  0  0  0  0  0  0
  134.1719  136.4184  164.0855 H   0  0  0  0  0  0  0  0  0  0  0  0
  135.8053  137.0173  162.3431 H   0  0  0  0  0  0  0  0  0  0  0  0
  135.0387  137.5213  160.0580 H   0  0  0  0  0  0  0  0  0  0  0  0
  132.6405  137.4086  159.5109 H   0  0  0  0  0  0  0  0  0  0  0  0
  128.8876  134.4130  162.8315 H   0  0  0  0  0  0  0  0  0  0  0  0
  126.4597  134.0747  163.0605 H   0  0  0  0  0  0  0  0  0  0  0  0
  125.8874  135.5152  159.0829 H   0  0  0  0  0  0  0  0  0  0  0  0
  128.3147  135.8619  158.8613 H   0  0  0  0  0  0  0  0  0  0  0  0
  131.7685  130.2155  156.6392 H   0  0  0  0  0  0  0  0  0  0  0  0
  132.0422  129.0626  154.4845 H   0  0  0  0  0  0  0  0  0  0  0  0
  1  2  1  0
  1 32  1  0
  1 33  1  0
  2 31  2  0
  2  3  1  0
  3  4  2  0
  3 34  1  0
  4  5  1  0
  4 35  1  0
  5  6  1  0
  5 30  2  0
  6 28  1  0
  6  7  2  0
  7  8  1  0
  7 36  1  0
  8  9  1  0
  8 10  1  0
 10 11  1  0
 10 28  2  0
 11 12  1  0
 11 37  1  0
 12 13  1  1
 12 14  1  0
 12 21  1  0
 14 15  1  0
 14 38  1  0
 14 39  1  0
 15 20  1  0
 15 16  2  0
 16 17  1  0
 16 40  1  0
 17 18  2  0
 17 41  1  0
 18 19  1  0
 18 42  1  0
 19 20  2  0
 19 43  1  0
 20 44  1  0
 21 27  1  0
 21 22  2  0
 22 23  1  0
 22 45  1  0
 23 24  2  0
 23 46  1  0
 24 25  1  0
 24 26  1  0
 26 27  2  0
 26 47  1  0
 27 48  1  0
 28 29  1  0
 30 31  1  0
 30 49  1  0
 31 50  1  0
M  CHG  1  28   1
M  END
>  <DOCK_score>  (1) 
-57.718693

>  <SMILES>  (1) 
Nc1ccc(-c2c[nH]c(N[C@@H](Cc3ccccc3)c3ccc(F)cc3)[nH+]2)cc1

$$$$
