Cc1ccc(C2=CCC=CC2)cc1NC(=O)[C@@H](CCl)Nc1[nH]c2ccccc2[nH+]1
     RDKit          3D

 53 56  0  0  1  0  0  0  0  0999 V2000
  130.8584  139.3303  159.7587 C   0  0  0  0  0  0  0  0  0  0  0  0
  130.0157  139.8093  160.9125 C   0  0  0  0  0  0  0  0  0  0  0  0
  129.9996  141.1514  161.2433 C   0  0  0  0  0  0  0  0  0  0  0  0
  129.2310  141.5974  162.2991 C   0  0  0  0  0  0  0  0  0  0  0  0
  128.4662  140.6921  163.0368 C   0  0  0  0  0  0  0  0  0  0  0  0
  127.6421  141.1671  164.1683 C   0  0  0  0  0  0  0  0  0  0  0  0
  126.3423  140.9739  164.1272 C   0  0  0  0  0  0  0  0  0  0  0  0
  125.4235  141.4186  165.2253 C   0  0  0  0  0  0  0  0  0  0  0  0
  126.0665  142.4710  166.0771 C   0  0  0  0  0  0  0  0  0  0  0  0
  127.3493  142.6618  166.1177 C   0  0  0  0  0  0  0  0  0  0  0  0
  128.3219  141.8497  165.3173 C   0  0  0  0  0  0  0  0  0  0  0  0
  128.4865  139.3380  162.7066 C   0  0  0  0  0  0  0  0  0  0  0  0
  129.2578  138.9006  161.6407 C   0  0  0  0  0  0  0  0  0  0  0  0
  129.2776  137.5428  161.3020 N   0  0  0  0  0  0  0  0  0  0  0  0
  128.1928  136.7758  161.5291 C   0  0  0  0  0  0  0  0  0  0  0  0
  127.1996  137.2622  162.0270 O   0  0  0  0  0  0  0  0  0  0  0  0
  128.2141  135.3138  161.1644 C   0  0  1  0  0  0  0  0  0  0  0  0
  129.0104  134.8134  161.7153 H   0  0  0  0  0  0  0  0  0  0  0  0
  126.8690  134.6791  161.5231 C   0  0  0  0  0  0  0  0  0  0  0  0
  126.8942  132.9299  161.0868 Cl  0  0  0  0  0  0  0  0  0  0  0  0
  128.4524  135.1727  159.7258 N   0  0  0  0  0  0  0  0  0  0  0  0
  129.1071  134.0645  159.2428 C   0  0  0  0  0  0  0  0  0  0  0  0
  129.5703  133.0660  159.9915 N   0  0  0  0  0  0  0  0  0  0  0  0
  129.5022  133.0024  160.9571 H   0  0  0  0  0  0  0  0  0  0  0  0
  130.1570  132.1421  159.1673 C   0  0  0  0  0  0  0  0  0  0  0  0
  130.7933  130.9236  159.3854 C   0  0  0  0  0  0  0  0  0  0  0  0
  131.2987  130.2139  158.3176 C   0  0  0  0  0  0  0  0  0  0  0  0
  131.1778  130.7054  157.0261 C   0  0  0  0  0  0  0  0  0  0  0  0
  130.5507  131.9101  156.7925 C   0  0  0  0  0  0  0  0  0  0  0  0
  130.0347  132.6397  157.8596 C   0  0  0  0  0  0  0  0  0  0  0  0
  129.3751  133.8365  157.9590 N   0  0  0  0  0  0  0  0  0  0  0  0
  129.1432  134.4194  157.2191 H   0  0  0  0  0  0  0  0  0  0  0  0
  131.8527  139.0668  160.1197 H   0  0  0  0  0  0  0  0  0  0  0  0
  130.3921  138.4548  159.3070 H   0  0  0  0  0  0  0  0  0  0  0  0
  130.9402  140.1228  159.0148 H   0  0  0  0  0  0  0  0  0  0  0  0
  130.5907  141.8533  160.6736 H   0  0  0  0  0  0  0  0  0  0  0  0
  129.2215  142.6466  162.5549 H   0  0  0  0  0  0  0  0  0  0  0  0
  125.9194  140.4751  163.2676 H   0  0  0  0  0  0  0  0  0  0  0  0
  124.5112  141.8225  164.7864 H   0  0  0  0  0  0  0  0  0  0  0  0
  125.1698  140.5609  165.8482 H   0  0  0  0  0  0  0  0  0  0  0  0
  125.4327  143.0999  166.6848 H   0  0  0  0  0  0  0  0  0  0  0  0
  127.7339  143.4417  166.7582 H   0  0  0  0  0  0  0  0  0  0  0  0
  128.7750  141.0971  165.9625 H   0  0  0  0  0  0  0  0  0  0  0  0
  129.1027  142.5054  164.9318 H   0  0  0  0  0  0  0  0  0  0  0  0
  127.9005  138.6324  163.2769 H   0  0  0  0  0  0  0  0  0  0  0  0
  130.0719  137.1538  160.9038 H   0  0  0  0  0  0  0  0  0  0  0  0
  126.6917  134.7840  162.5935 H   0  0  0  0  0  0  0  0  0  0  0  0
  126.0726  135.1795  160.9722 H   0  0  0  0  0  0  0  0  0  0  0  0
  128.1482  135.8614  159.1140 H   0  0  0  0  0  0  0  0  0  0  0  0
  130.8905  130.5351  160.3884 H   0  0  0  0  0  0  0  0  0  0  0  0
  131.7920  129.2683  158.4874 H   0  0  0  0  0  0  0  0  0  0  0  0
  131.5777  130.1397  156.1975 H   0  0  0  0  0  0  0  0  0  0  0  0
  130.4596  132.2869  155.7845 H   0  0  0  0  0  0  0  0  0  0  0  0
  1  2  1  0
  1 33  1  0
  1 34  1  0
  1 35  1  0
  2 13  2  0
  2  3  1  0
  3  4  2  0
  3 36  1  0
  4  5  1  0
  4 37  1  0
  5  6  1  0
  5 12  2  0
  6 11  1  0
  6  7  2  0
  7  8  1  0
  7 38  1  0
  8  9  1  0
  8 39  1  0
  8 40  1  0
  9 10  2  0
  9 41  1  0
 10 11  1  0
 10 42  1  0
 11 43  1  0
 11 44  1  0
 12 13  1  0
 12 45  1  0
 13 14  1  0
 14 15  1  0
 14 46  1  0
 15 16  2  0
 15 17  1  0
 17 18  1  1
 17 19  1  0
 17 21  1  0
 19 20  1  0
 19 47  1  0
 19 48  1  0
 21 22  1  0
 21 49  1  0
 22 31  1  0
 22 23  2  0
 23 24  1  0
 23 25  1  0
 25 30  2  0
 25 26  1  0
 26 27  2  0
 26 50  1  0
 27 28  1  0
 27 51  1  0
 28 29  2  0
 28 52  1  0
 29 30  1  0
 29 53  1  0
 30 31  1  0
 31 32  1  0
M  CHG  1  23   1
M  END
>  <DOCK_score>  (1) 
-45.067883

>  <SMILES>  (1) 
Cc1ccc(C2=CCC=CC2)cc1NC(=O)[C@@H](CCl)Nc1[nH]c2ccccc2[nH+]1

$$$$
