CCc1ccc(-c2c[nH]c(N[C@H](Cc3ncccc3/C3=C/CC/C=C\CC3)c3ccnn3C)[nH+]2)cc1
     RDKit          3D

 71 75  0  0  1  0  0  0  0  0999 V2000
  132.0771  129.7202  152.6546 C   0  0  0  0  0  0  0  0  0  0  0  0
  130.6639  129.8320  153.2307 C   0  0  0  0  0  0  0  0  0  0  0  0
  130.7027  130.6388  154.5030 C   0  0  0  0  0  0  0  0  0  0  0  0
  130.5424  132.0118  154.4533 C   0  0  0  0  0  0  0  0  0  0  0  0
  130.5714  132.7551  155.6158 C   0  0  0  0  0  0  0  0  0  0  0  0
  130.7740  132.1210  156.8403 C   0  0  0  0  0  0  0  0  0  0  0  0
  130.8127  132.9151  158.0925 C   0  0  0  0  0  0  0  0  0  0  0  0
  130.4316  132.4867  159.3214 C   0  0  0  0  0  0  0  0  0  0  0  0
  130.6341  133.5325  160.1888 N   0  0  0  0  0  0  0  0  0  0  0  0
  130.4561  133.5309  161.1423 H   0  0  0  0  0  0  0  0  0  0  0  0
  131.1248  134.5734  159.4622 C   0  0  0  0  0  0  0  0  0  0  0  0
  131.4577  135.8204  159.9631 N   0  0  0  0  0  0  0  0  0  0  0  0
  131.2898  136.1052  161.3903 C   0  0  2  0  0  0  0  0  0  0  0  0
  130.3617  135.6558  161.7437 H   0  0  0  0  0  0  0  0  0  0  0  0
  131.2377  137.6190  161.6055 C   0  0  0  0  0  0  0  0  0  0  0  0
  132.5207  138.2404  161.1170 C   0  0  0  0  0  0  0  0  0  0  0  0
  132.8688  138.1116  159.8532 N   0  0  0  0  0  0  0  0  0  0  0  0
  133.9818  138.6382  159.3802 C   0  0  0  0  0  0  0  0  0  0  0  0
  134.8374  139.3533  160.1986 C   0  0  0  0  0  0  0  0  0  0  0  0
  134.5171  139.5174  161.5348 C   0  0  0  0  0  0  0  0  0  0  0  0
  133.3268  138.9519  162.0058 C   0  0  0  0  0  0  0  0  0  0  0  0
  132.9314  139.1021  163.4278 C   0  0  0  0  0  0  0  0  0  0  0  0
  132.1707  140.1453  163.7496 C   0  0  0  0  0  0  0  0  0  0  0  0
  131.7651  140.3981  165.1649 C   0  0  0  0  0  0  0  0  0  0  0  0
  132.7919  141.1232  165.9955 C   0  0  0  0  0  0  0  0  0  0  0  0
  134.1769  141.0602  165.4617 C   0  0  0  0  0  0  0  0  0  0  0  0
  134.7735  139.9075  165.2769 C   0  0  0  0  0  0  0  0  0  0  0  0
  134.0728  138.6247  165.6238 C   0  0  0  0  0  0  0  0  0  0  0  0
  133.3966  138.0660  164.3846 C   0  0  0  0  0  0  0  0  0  0  0  0
  132.4513  135.5283  162.1578 C   0  0  0  0  0  0  0  0  0  0  0  0
  133.7128  135.3686  161.6950 C   0  0  0  0  0  0  0  0  0  0  0  0
  134.4785  134.8022  162.7195 C   0  0  0  0  0  0  0  0  0  0  0  0
  133.7045  134.6282  163.7599 N   0  0  0  0  0  0  0  0  0  0  0  0
  132.4211  135.0835  163.4315 N   0  0  0  0  0  0  0  0  0  0  0  0
  131.2516  135.0756  164.3141 C   0  0  0  0  0  0  0  0  0  0  0  0
  131.2301  134.2007  158.2101 N   0  0  0  0  0  0  0  0  0  0  0  0
  131.5543  134.7555  157.4835 H   0  0  0  0  0  0  0  0  0  0  0  0
  130.9406  130.7379  156.8838 C   0  0  0  0  0  0  0  0  0  0  0  0
  130.9041  130.0041  155.7155 C   0  0  0  0  0  0  0  0  0  0  0  0
  132.0491  129.1365  151.7345 H   0  0  0  0  0  0  0  0  0  0  0  0
  132.7264  129.2271  153.3781 H   0  0  0  0  0  0  0  0  0  0  0  0
  132.4622  130.7173  152.4411 H   0  0  0  0  0  0  0  0  0  0  0  0
  130.0148  130.3251  152.5073 H   0  0  0  0  0  0  0  0  0  0  0  0
  130.2788  128.8349  153.4443 H   0  0  0  0  0  0  0  0  0  0  0  0
  130.3898  132.5027  153.5034 H   0  0  0  0  0  0  0  0  0  0  0  0
  130.4417  133.8266  155.5763 H   0  0  0  0  0  0  0  0  0  0  0  0
  130.0448  131.5096  159.5707 H   0  0  0  0  0  0  0  0  0  0  0  0
  131.8024  136.5055  159.3691 H   0  0  0  0  0  0  0  0  0  0  0  0
  130.3974  138.0362  161.0506 H   0  0  0  0  0  0  0  0  0  0  0  0
  131.1126  137.8309  162.6674 H   0  0  0  0  0  0  0  0  0  0  0  0
  134.2292  138.5085  158.3369 H   0  0  0  0  0  0  0  0  0  0  0  0
  135.7462  139.7789  159.7990 H   0  0  0  0  0  0  0  0  0  0  0  0
  135.1669  140.0714  162.1961 H   0  0  0  0  0  0  0  0  0  0  0  0
  131.8517  140.8324  162.9715 H   0  0  0  0  0  0  0  0  0  0  0  0
  130.8451  140.9857  165.1630 H   0  0  0  0  0  0  0  0  0  0  0  0
  131.5499  139.4391  165.6396 H   0  0  0  0  0  0  0  0  0  0  0  0
  132.5000  142.1717  166.0694 H   0  0  0  0  0  0  0  0  0  0  0  0
  132.7893  140.6999  167.0002 H   0  0  0  0  0  0  0  0  0  0  0  0
  134.6974  141.9742  165.2231 H   0  0  0  0  0  0  0  0  0  0  0  0
  135.7805  139.8854  164.8844 H   0  0  0  0  0  0  0  0  0  0  0  0
  134.8050  137.9014  165.9957 H   0  0  0  0  0  0  0  0  0  0  0  0
  133.3324  138.8050  166.4045 H   0  0  0  0  0  0  0  0  0  0  0  0
  132.5364  137.4657  164.6925 H   0  0  0  0  0  0  0  0  0  0  0  0
  134.0974  137.4050  163.8662 H   0  0  0  0  0  0  0  0  0  0  0  0
  134.0661  135.6321  160.7091 H   0  0  0  0  0  0  0  0  0  0  0  0
  135.5277  134.5524  162.6618 H   0  0  0  0  0  0  0  0  0  0  0  0
  130.7160  134.1334  164.1989 H   0  0  0  0  0  0  0  0  0  0  0  0
  131.5768  135.1847  165.3488 H   0  0  0  0  0  0  0  0  0  0  0  0
  130.5924  135.9029  164.0513 H   0  0  0  0  0  0  0  0  0  0  0  0
  131.0976  130.2412  157.8299 H   0  0  0  0  0  0  0  0  0  0  0  0
  131.0327  128.9322  155.7480 H   0  0  0  0  0  0  0  0  0  0  0  0
  1  2  1  0
  1 40  1  0
  1 41  1  0
  1 42  1  0
  2  3  1  0
  2 43  1  0
  2 44  1  0
  3 39  2  0
  3  4  1  0
  4  5  2  0
  4 45  1  0
  5  6  1  0
  5 46  1  0
  6  7  1  0
  6 38  2  0
  7 36  1  0
  7  8  2  0
  8  9  1  0
  8 47  1  0
  9 10  1  0
  9 11  1  0
 11 12  1  0
 11 36  2  0
 12 13  1  0
 12 48  1  0
 13 14  1  1
 13 15  1  0
 13 30  1  0
 15 16  1  0
 15 49  1  0
 15 50  1  0
 16 21  1  0
 16 17  2  0
 17 18  1  0
 18 19  2  0
 18 51  1  0
 19 20  1  0
 19 52  1  0
 20 21  2  0
 20 53  1  0
 21 22  1  0
 22 29  1  0
 22 23  2  0
 23 24  1  0
 23 54  1  0
 24 25  1  0
 24 55  1  0
 24 56  1  0
 25 26  1  0
 25 57  1  0
 25 58  1  0
 26 27  2  0
 26 59  1  0
 27 28  1  0
 27 60  1  0
 28 29  1  0
 28 61  1  0
 28 62  1  0
 29 63  1  0
 29 64  1  0
 30 34  1  0
 30 31  2  0
 31 32  1  0
 31 65  1  0
 32 33  2  0
 32 66  1  0
 33 34  1  0
 34 35  1  0
 35 67  1  0
 35 68  1  0
 35 69  1  0
 36 37  1  0
 38 39  1  0
 38 70  1  0
 39 71  1  0
M  CHG  1  36   1
M  END
>  <DOCK_score>  (1) 
-60.538288

>  <SMILES>  (1) 
CCc1ccc(-c2c[nH]c(N[C@H](Cc3ncccc3/C3=C/CC/C=C\CC3)c3ccnn3C)[nH+]2)cc1

$$$$
