Brc1ccc(N2CC[NH+]([C@@H](c3ccccc3)c3cccnc3)CC2)cc1
     RDKit          3D

 49 52  0  0  1  0  0  0  0  0999 V2000
  136.9227  140.9374  161.5884 Br  0  0  0  0  0  0  0  0  0  0  0  0
  135.5949  139.6024  161.4135 C   0  0  0  0  0  0  0  0  0  0  0  0
  135.1493  139.2323  160.1569 C   0  0  0  0  0  0  0  0  0  0  0  0
  134.1797  138.2576  160.0261 C   0  0  0  0  0  0  0  0  0  0  0  0
  133.6518  137.6487  161.1574 C   0  0  0  0  0  0  0  0  0  0  0  0
  132.6707  136.6622  161.0281 N   0  0  0  0  0  0  0  0  0  0  0  0
  131.4459  137.2127  160.4306 C   0  0  0  0  0  0  0  0  0  0  0  0
  130.3791  136.1177  160.3614 C   0  0  0  0  0  0  0  0  0  0  0  0
  130.8784  134.9978  159.5526 N   0  0  0  0  0  0  0  0  0  0  0  0
  131.0985  135.3256  158.6241 H   0  0  0  0  0  0  0  0  0  0  0  0
  129.8472  133.9548  159.4715 C   0  0  1  0  0  0  0  0  0  0  0  0
  129.6087  133.6009  160.4745 H   0  0  0  0  0  0  0  0  0  0  0  0
  128.6070  134.5232  158.8312 C   0  0  0  0  0  0  0  0  0  0  0  0
  127.3636  134.0214  159.1674 C   0  0  0  0  0  0  0  0  0  0  0  0
  126.2256  134.5457  158.5832 C   0  0  0  0  0  0  0  0  0  0  0  0
  126.3320  135.5653  157.6559 C   0  0  0  0  0  0  0  0  0  0  0  0
  127.5757  136.0639  157.3161 C   0  0  0  0  0  0  0  0  0  0  0  0
  128.7133  135.5424  157.9035 C   0  0  0  0  0  0  0  0  0  0  0  0
  130.3592  132.8056  158.6418 C   0  0  0  0  0  0  0  0  0  0  0  0
  130.7317  133.0046  157.3209 C   0  0  0  0  0  0  0  0  0  0  0  0
  131.1971  131.9185  156.5959 C   0  0  0  0  0  0  0  0  0  0  0  0
  131.2738  130.6821  157.2094 C   0  0  0  0  0  0  0  0  0  0  0  0
  130.9108  130.5300  158.4677 N   0  0  0  0  0  0  0  0  0  0  0  0
  130.4689  131.5417  159.1893 C   0  0  0  0  0  0  0  0  0  0  0  0
  132.0876  134.4430  160.1751 C   0  0  0  0  0  0  0  0  0  0  0  0
  133.1686  135.5240  160.2428 C   0  0  0  0  0  0  0  0  0  0  0  0
  134.0969  138.0264  162.4178 C   0  0  0  0  0  0  0  0  0  0  0  0
  135.0706  138.9979  162.5423 C   0  0  0  0  0  0  0  0  0  0  0  0
  135.5598  139.7062  159.2777 H   0  0  0  0  0  0  0  0  0  0  0  0
  133.8320  137.9693  159.0450 H   0  0  0  0  0  0  0  0  0  0  0  0
  131.0814  138.0374  161.0430 H   0  0  0  0  0  0  0  0  0  0  0  0
  131.6622  137.5737  159.4251 H   0  0  0  0  0  0  0  0  0  0  0  0
  130.1532  135.7664  161.3682 H   0  0  0  0  0  0  0  0  0  0  0  0
  129.4744  136.5202  159.9055 H   0  0  0  0  0  0  0  0  0  0  0  0
  127.2809  133.2220  159.8888 H   0  0  0  0  0  0  0  0  0  0  0  0
  125.2539  134.1565  158.8489 H   0  0  0  0  0  0  0  0  0  0  0  0
  125.4431  135.9727  157.1970 H   0  0  0  0  0  0  0  0  0  0  0  0
  127.6587  136.8604  156.5916 H   0  0  0  0  0  0  0  0  0  0  0  0
  129.6850  135.9316  157.6378 H   0  0  0  0  0  0  0  0  0  0  0  0
  130.6613  133.9824  156.8679 H   0  0  0  0  0  0  0  0  0  0  0  0
  131.4962  132.0369  155.5649 H   0  0  0  0  0  0  0  0  0  0  0  0
  131.6348  129.8309  156.6513 H   0  0  0  0  0  0  0  0  0  0  0  0
  130.1855  131.3795  160.2187 H   0  0  0  0  0  0  0  0  0  0  0  0
  132.4496  133.6038  159.5811 H   0  0  0  0  0  0  0  0  0  0  0  0
  131.8530  134.1003  161.1829 H   0  0  0  0  0  0  0  0  0  0  0  0
  133.4134  135.8573  159.2342 H   0  0  0  0  0  0  0  0  0  0  0  0
  134.0612  135.1171  160.7178 H   0  0  0  0  0  0  0  0  0  0  0  0
  133.6849  137.5580  163.2994 H   0  0  0  0  0  0  0  0  0  0  0  0
  135.4200  139.2891  163.5217 H   0  0  0  0  0  0  0  0  0  0  0  0
  1  2  1  0
  2 28  2  0
  2  3  1  0
  3  4  2  0
  3 29  1  0
  4  5  1  0
  4 30  1  0
  5  6  1  0
  5 27  2  0
  6 26  1  0
  6  7  1  0
  7  8  1  0
  7 31  1  0
  7 32  1  0
  8  9  1  0
  8 33  1  0
  8 34  1  0
  9 10  1  0
  9 11  1  0
  9 25  1  0
 11 12  1  1
 11 13  1  0
 11 19  1  0
 13 18  1  0
 13 14  2  0
 14 15  1  0
 14 35  1  0
 15 16  2  0
 15 36  1  0
 16 17  1  0
 16 37  1  0
 17 18  2  0
 17 38  1  0
 18 39  1  0
 19 24  1  0
 19 20  2  0
 20 21  1  0
 20 40  1  0
 21 22  2  0
 21 41  1  0
 22 23  1  0
 22 42  1  0
 23 24  2  0
 24 43  1  0
 25 26  1  0
 25 44  1  0
 25 45  1  0
 26 46  1  0
 26 47  1  0
 27 28  1  0
 27 48  1  0
 28 49  1  0
M  CHG  1   9   1
M  END
>  <DOCK_score>  (1) 
-56.144642

>  <SMILES>  (1) 
Brc1ccc(N2CC[NH+]([C@@H](c3ccccc3)c3cccnc3)CC2)cc1

$$$$
