Nc1ccc(NC2CC=CC2)c(C[NH+]=C(NC2CCC2)N[C@H]2[C@@H]3CC=CC[C@@H]32)n1
     RDKit          3D

 62 66  0  0  1  0  0  0  0  0999 V2000
  126.4397  137.3306  162.2470 N   0  0  0  0  0  0  0  0  0  0  0  0
  127.3554  136.6971  161.4096 C   0  0  0  0  0  0  0  0  0  0  0  0
  126.9004  136.0014  160.2945 C   0  0  0  0  0  0  0  0  0  0  0  0
  127.8175  135.3766  159.4695 C   0  0  0  0  0  0  0  0  0  0  0  0
  129.1714  135.4744  159.7873 C   0  0  0  0  0  0  0  0  0  0  0  0
  130.1358  134.8625  158.9769 N   0  0  0  0  0  0  0  0  0  0  0  0
  129.8020  133.6456  158.2328 C   0  0  0  0  0  0  0  0  0  0  0  0
  129.5738  132.4538  159.1912 C   0  0  0  0  0  0  0  0  0  0  0  0
  130.1602  131.2628  158.4696 C   0  0  0  0  0  0  0  0  0  0  0  0
  130.9451  131.6416  157.4979 C   0  0  0  0  0  0  0  0  0  0  0  0
  131.0130  133.1485  157.4097 C   0  0  0  0  0  0  0  0  0  0  0  0
  129.5508  136.1806  160.9184 C   0  0  0  0  0  0  0  0  0  0  0  0
  131.0113  136.2875  161.2746 C   0  0  0  0  0  0  0  0  0  0  0  0
  131.5837  137.4756  160.6367 N   0  0  0  0  0  0  0  0  0  0  0  0
  131.9716  137.4106  159.7499 H   0  0  0  0  0  0  0  0  0  0  0  0
  131.5719  138.6200  161.2606 C   0  0  0  0  0  0  0  0  0  0  0  0
  130.5653  138.9064  162.1521 N   0  0  0  0  0  0  0  0  0  0  0  0
  130.5519  140.1926  162.8533 C   0  0  0  0  0  0  0  0  0  0  0  0
  129.4723  140.2884  163.9442 C   0  0  0  0  0  0  0  0  0  0  0  0
  129.2373  141.7337  163.4745 C   0  0  0  0  0  0  0  0  0  0  0  0
  129.7822  141.2940  162.1054 C   0  0  0  0  0  0  0  0  0  0  0  0
  132.5659  139.5405  161.0270 N   0  0  0  0  0  0  0  0  0  0  0  0
  133.9097  139.0896  160.6571 C   0  0  1  0  0  0  0  0  0  0  0  0
  134.0402  138.0096  160.5880 H   0  0  0  0  0  0  0  0  0  0  0  0
  134.7167  139.9875  159.6740 C   0  0  2  0  0  0  0  0  0  0  0  0
  134.2565  140.9039  159.3044 H   0  0  0  0  0  0  0  0  0  0  0  0
  135.7041  139.2968  158.7199 C   0  0  0  0  0  0  0  0  0  0  0  0
  137.1101  139.6062  159.1720 C   0  0  0  0  0  0  0  0  0  0  0  0
  137.4291  139.5393  160.4405 C   0  0  0  0  0  0  0  0  0  0  0  0
  136.3956  139.1516  161.4696 C   0  0  0  0  0  0  0  0  0  0  0  0
  135.0950  139.9124  161.1661 C   0  0  2  0  0  0  0  0  0  0  0  0
  134.8888  140.7771  161.7968 H   0  0  0  0  0  0  0  0  0  0  0  0
  128.6481  136.7647  161.6838 N   0  0  0  0  0  0  0  0  0  0  0  0
  126.7511  137.8176  163.0259 H   0  0  0  0  0  0  0  0  0  0  0  0
  125.4909  137.2845  162.0512 H   0  0  0  0  0  0  0  0  0  0  0  0
  125.8440  135.9493  160.0761 H   0  0  0  0  0  0  0  0  0  0  0  0
  127.4927  134.8292  158.5970 H   0  0  0  0  0  0  0  0  0  0  0  0
  131.0247  135.2445  158.9083 H   0  0  0  0  0  0  0  0  0  0  0  0
  128.9339  133.8062  157.5935 H   0  0  0  0  0  0  0  0  0  0  0  0
  130.0941  132.6201  160.1345 H   0  0  0  0  0  0  0  0  0  0  0  0
  128.5081  132.3052  159.3655 H   0  0  0  0  0  0  0  0  0  0  0  0
  129.9562  130.2331  158.7240 H   0  0  0  0  0  0  0  0  0  0  0  0
  131.4764  130.9668  156.8434 H   0  0  0  0  0  0  0  0  0  0  0  0
  130.9260  133.4724  156.3726 H   0  0  0  0  0  0  0  0  0  0  0  0
  131.9434  133.5146  157.8441 H   0  0  0  0  0  0  0  0  0  0  0  0
  131.5365  135.3987  160.9252 H   0  0  0  0  0  0  0  0  0  0  0  0
  131.1162  136.3698  162.3564 H   0  0  0  0  0  0  0  0  0  0  0  0
  129.8639  138.2569  162.3168 H   0  0  0  0  0  0  0  0  0  0  0  0
  131.5418  140.5023  163.1884 H   0  0  0  0  0  0  0  0  0  0  0  0
  128.6203  139.6300  163.7743 H   0  0  0  0  0  0  0  0  0  0  0  0
  129.8678  140.2173  164.9574 H   0  0  0  0  0  0  0  0  0  0  0  0
  129.8673  142.4652  163.9807 H   0  0  0  0  0  0  0  0  0  0  0  0
  128.1860  142.0208  163.4543 H   0  0  0  0  0  0  0  0  0  0  0  0
  130.4280  142.0349  161.6340 H   0  0  0  0  0  0  0  0  0  0  0  0
  129.0160  140.9107  161.4316 H   0  0  0  0  0  0  0  0  0  0  0  0
  132.3774  140.4887  161.1072 H   0  0  0  0  0  0  0  0  0  0  0  0
  135.5549  139.6693  157.7063 H   0  0  0  0  0  0  0  0  0  0  0  0
  135.5412  138.2193  158.7416 H   0  0  0  0  0  0  0  0  0  0  0  0
  137.8582  139.8851  158.4448 H   0  0  0  0  0  0  0  0  0  0  0  0
  138.4386  139.7634  160.7524 H   0  0  0  0  0  0  0  0  0  0  0  0
  136.2124  138.0783  161.4183 H   0  0  0  0  0  0  0  0  0  0  0  0
  136.7534  139.4148  162.4650 H   0  0  0  0  0  0  0  0  0  0  0  0
  1  2  1  0
  1 34  1  0
  1 35  1  0
  2 33  2  0
  2  3  1  0
  3  4  2  0
  3 36  1  0
  4  5  1  0
  4 37  1  0
  5  6  1  0
  5 12  2  0
  6  7  1  0
  6 38  1  0
  7 11  1  0
  7  8  1  0
  7 39  1  0
  8  9  1  0
  8 40  1  0
  8 41  1  0
  9 10  2  0
  9 42  1  0
 10 11  1  0
 10 43  1  0
 11 44  1  0
 11 45  1  0
 12 13  1  0
 12 33  1  0
 13 14  1  0
 13 46  1  0
 13 47  1  0
 14 15  1  0
 16 14  2  0
 16 17  1  0
 16 22  1  0
 17 18  1  0
 17 48  1  0
 18 21  1  0
 18 19  1  0
 18 49  1  0
 19 20  1  0
 19 50  1  0
 19 51  1  0
 20 21  1  0
 20 52  1  0
 20 53  1  0
 21 54  1  0
 21 55  1  0
 22 23  1  0
 22 56  1  0
 23 24  1  6
 23 31  1  0
 23 25  1  0
 25 26  1  6
 25 31  1  0
 25 27  1  0
 27 28  1  0
 27 57  1  0
 27 58  1  0
 28 29  2  0
 28 59  1  0
 29 30  1  0
 29 60  1  0
 30 31  1  0
 30 61  1  0
 30 62  1  0
 31 32  1  1
M  CHG  1  14   1
M  END
>  <DOCK_score>  (1) 
-48.497471

>  <SMILES>  (1) 
Nc1ccc(NC2CC=CC2)c(C[NH+]=C(NC2CCC2)N[C@H]2[C@@H]3CC=CC[C@@H]32)n1

$$$$
