O=C1CC[C@H](NC(NC2CC=CC2)=[NH+][C@H]2COc3cc(NCc4ccccc4)ccc3C2)CN1
     RDKit          3D

 68 72  0  0  1  0  0  0  0  0999 V2000
  124.0373  133.6263  161.6961 O   0  0  0  0  0  0  0  0  0  0  0  0
  125.2093  133.8963  161.5393 C   0  0  0  0  0  0  0  0  0  0  0  0
  126.1025  132.8560  160.9268 C   0  0  0  0  0  0  0  0  0  0  0  0
  127.5680  133.1962  161.2090 C   0  0  0  0  0  0  0  0  0  0  0  0
  127.8015  134.6686  160.8497 C   0  0  2  0  0  0  0  0  0  0  0  0
  127.4504  134.8575  159.8352 H   0  0  0  0  0  0  0  0  0  0  0  0
  129.2307  134.9769  160.9440 N   0  0  0  0  0  0  0  0  0  0  0  0
  130.0417  134.8201  159.8449 C   0  0  0  0  0  0  0  0  0  0  0  0
  129.5117  134.3742  158.6574 N   0  0  0  0  0  0  0  0  0  0  0  0
  130.3401  133.5987  157.7307 C   0  0  0  0  0  0  0  0  0  0  0  0
  129.4930  133.0379  156.5651 C   0  0  0  0  0  0  0  0  0  0  0  0
  130.0708  131.6671  156.2961 C   0  0  0  0  0  0  0  0  0  0  0  0
  130.8094  131.2640  157.2939 C   0  0  0  0  0  0  0  0  0  0  0  0
  130.8471  132.2977  158.3953 C   0  0  0  0  0  0  0  0  0  0  0  0
  131.3132  135.0944  159.9289 N   0  0  0  0  0  0  0  0  0  0  0  0
  131.7942  135.4090  159.1476 H   0  0  0  0  0  0  0  0  0  0  0  0
  132.0158  134.9276  161.2036 C   0  0  1  0  0  0  0  0  0  0  0  0
  131.5499  134.1269  161.7780 H   0  0  0  0  0  0  0  0  0  0  0  0
  133.4883  134.5866  160.9415 C   0  0  0  0  0  0  0  0  0  0  0  0
  134.1211  134.3295  162.1958 O   0  0  0  0  0  0  0  0  0  0  0  0
  133.9399  135.2312  163.1957 C   0  0  0  0  0  0  0  0  0  0  0  0
  134.8087  135.1996  164.2806 C   0  0  0  0  0  0  0  0  0  0  0  0
  134.6514  136.0972  165.3253 C   0  0  0  0  0  0  0  0  0  0  0  0
  135.5245  136.0640  166.4148 N   0  0  0  0  0  0  0  0  0  0  0  0
  136.3086  134.8572  166.6886 C   0  0  0  0  0  0  0  0  0  0  0  0
  137.1642  135.0801  167.9091 C   0  0  0  0  0  0  0  0  0  0  0  0
  138.4407  135.5928  167.7741 C   0  0  0  0  0  0  0  0  0  0  0  0
  139.2240  135.8009  168.8939 C   0  0  0  0  0  0  0  0  0  0  0  0
  138.7336  135.4887  170.1480 C   0  0  0  0  0  0  0  0  0  0  0  0
  137.4589  134.9712  170.2827 C   0  0  0  0  0  0  0  0  0  0  0  0
  136.6742  134.7667  169.1633 C   0  0  0  0  0  0  0  0  0  0  0  0
  133.6219  137.0299  165.2852 C   0  0  0  0  0  0  0  0  0  0  0  0
  132.7624  137.0599  164.2064 C   0  0  0  0  0  0  0  0  0  0  0  0
  132.9178  136.1644  163.1604 C   0  0  0  0  0  0  0  0  0  0  0  0
  131.9583  136.2340  161.9992 C   0  0  0  0  0  0  0  0  0  0  0  0
  127.0222  135.5423  161.8333 C   0  0  0  0  0  0  0  0  0  0  0  0
  125.6357  135.1013  161.9197 N   0  0  0  0  0  0  0  0  0  0  0  0
  125.8685  131.8808  161.3540 H   0  0  0  0  0  0  0  0  0  0  0  0
  125.9397  132.8278  159.8495 H   0  0  0  0  0  0  0  0  0  0  0  0
  127.7847  133.0376  162.2655 H   0  0  0  0  0  0  0  0  0  0  0  0
  128.2152  132.5629  160.6025 H   0  0  0  0  0  0  0  0  0  0  0  0
  129.6047  135.2917  161.7818 H   0  0  0  0  0  0  0  0  0  0  0  0
  128.5891  134.5729  158.4330 H   0  0  0  0  0  0  0  0  0  0  0  0
  131.1713  134.1973  157.3578 H   0  0  0  0  0  0  0  0  0  0  0  0
  128.4468  132.9576  156.8603 H   0  0  0  0  0  0  0  0  0  0  0  0
  129.5922  133.6721  155.6841 H   0  0  0  0  0  0  0  0  0  0  0  0
  129.8954  131.0964  155.3960 H   0  0  0  0  0  0  0  0  0  0  0  0
  131.3253  130.3158  157.3280 H   0  0  0  0  0  0  0  0  0  0  0  0
  131.8666  132.4289  158.7580 H   0  0  0  0  0  0  0  0  0  0  0  0
  130.1881  132.0075  159.2135 H   0  0  0  0  0  0  0  0  0  0  0  0
  133.5533  133.7016  160.3086 H   0  0  0  0  0  0  0  0  0  0  0  0
  133.9779  135.4272  160.4496 H   0  0  0  0  0  0  0  0  0  0  0  0
  135.6080  134.4739  164.3097 H   0  0  0  0  0  0  0  0  0  0  0  0
  135.6117  136.8400  166.9902 H   0  0  0  0  0  0  0  0  0  0  0  0
  135.6350  134.0186  166.8653 H   0  0  0  0  0  0  0  0  0  0  0  0
  136.9469  134.6366  165.8330 H   0  0  0  0  0  0  0  0  0  0  0  0
  138.8252  135.8335  166.7939 H   0  0  0  0  0  0  0  0  0  0  0  0
  140.2200  136.2049  168.7888 H   0  0  0  0  0  0  0  0  0  0  0  0
  139.3465  135.6489  171.0228 H   0  0  0  0  0  0  0  0  0  0  0  0
  137.0759  134.7270  171.2625 H   0  0  0  0  0  0  0  0  0  0  0  0
  135.6783  134.3623  169.2683 H   0  0  0  0  0  0  0  0  0  0  0  0
  133.4951  137.7306  166.0972 H   0  0  0  0  0  0  0  0  0  0  0  0
  131.9634  137.7860  164.1770 H   0  0  0  0  0  0  0  0  0  0  0  0
  132.2333  137.0658  161.3507 H   0  0  0  0  0  0  0  0  0  0  0  0
  130.9464  136.3859  162.3744 H   0  0  0  0  0  0  0  0  0  0  0  0
  127.0502  136.5783  161.4955 H   0  0  0  0  0  0  0  0  0  0  0  0
  127.4836  135.4753  162.8185 H   0  0  0  0  0  0  0  0  0  0  0  0
  124.9822  135.7229  162.2766 H   0  0  0  0  0  0  0  0  0  0  0  0
  1  2  2  0
  2 37  1  0
  2  3  1  0
  3  4  1  0
  3 38  1  0
  3 39  1  0
  4  5  1  0
  4 40  1  0
  4 41  1  0
  5  6  1  6
  5  7  1  0
  5 36  1  0
  7 42  1  0
  8  7  1  0
  8  9  1  0
  8 15  2  0
  9 10  1  0
  9 43  1  0
 10 14  1  0
 10 11  1  0
 10 44  1  0
 11 12  1  0
 11 45  1  0
 11 46  1  0
 12 13  2  0
 12 47  1  0
 13 14  1  0
 13 48  1  0
 14 49  1  0
 14 50  1  0
 15 16  1  0
 15 17  1  0
 17 18  1  1
 17 35  1  0
 17 19  1  0
 19 20  1  0
 19 51  1  0
 19 52  1  0
 20 21  1  0
 21 34  2  0
 21 22  1  0
 22 23  2  0
 22 53  1  0
 23 24  1  0
 23 32  1  0
 24 25  1  0
 24 54  1  0
 25 26  1  0
 25 55  1  0
 25 56  1  0
 26 31  1  0
 26 27  2  0
 27 28  1  0
 27 57  1  0
 28 29  2  0
 28 58  1  0
 29 30  1  0
 29 59  1  0
 30 31  2  0
 30 60  1  0
 31 61  1  0
 32 33  2  0
 32 62  1  0
 33 34  1  0
 33 63  1  0
 34 35  1  0
 35 64  1  0
 35 65  1  0
 36 37  1  0
 36 66  1  0
 36 67  1  0
 37 68  1  0
M  CHG  1  15   1
M  END
>  <DOCK_score>  (1) 
-51.089809

>  <SMILES>  (1) 
O=C1CC[C@H](NC(NC2CC=CC2)=[NH+][C@H]2COc3cc(NCc4ccccc4)ccc3C2)CN1

$$$$
