CCc1ccc(-c2c[nH]c(N[C@@H](CCC#C[C@@H]3CC[C@H]3F)c3ccccc3)[nH+]2)cc1
     RDKit          3D

 59 62  0  0  1  0  0  0  0  0999 V2000
  130.4897  127.8741  151.8751 C   0  0  0  0  0  0  0  0  0  0  0  0
  131.3922  129.1081  151.9342 C   0  0  0  0  0  0  0  0  0  0  0  0
  131.0495  129.9230  153.1547 C   0  0  0  0  0  0  0  0  0  0  0  0
  131.6963  129.6774  154.3519 C   0  0  0  0  0  0  0  0  0  0  0  0
  131.3895  130.4241  155.4711 C   0  0  0  0  0  0  0  0  0  0  0  0
  130.4184  131.4210  155.3959 C   0  0  0  0  0  0  0  0  0  0  0  0
  130.0809  132.2239  156.5965 C   0  0  0  0  0  0  0  0  0  0  0  0
  129.5954  131.7429  157.7678 C   0  0  0  0  0  0  0  0  0  0  0  0
  129.4279  132.8208  158.6026 N   0  0  0  0  0  0  0  0  0  0  0  0
  129.0967  132.7957  159.5139 H   0  0  0  0  0  0  0  0  0  0  0  0
  129.8082  133.9312  157.9135 C   0  0  0  0  0  0  0  0  0  0  0  0
  129.7864  135.2278  158.3981 N   0  0  0  0  0  0  0  0  0  0  0  0
  129.3244  135.4920  159.7631 C   0  0  1  0  0  0  0  0  0  0  0  0
  129.6983  134.7150  160.4300 H   0  0  0  0  0  0  0  0  0  0  0  0
  129.8469  136.8542  160.2237 C   0  0  0  0  0  0  0  0  0  0  0  0
  129.8097  136.9247  161.7516 C   0  0  0  0  0  0  0  0  0  0  0  0
  130.3124  138.2353  162.1947 C   0  0  0  0  0  0  0  0  0  0  0  0
  130.7133  139.2805  162.5481 C   0  0  0  0  0  0  0  0  0  0  0  0
  131.2160  140.5912  162.9913 C   0  0  2  0  0  0  0  0  0  0  0  0
  132.1593  140.8647  162.5183 H   0  0  0  0  0  0  0  0  0  0  0  0
  131.2199  140.7650  164.5192 C   0  0  0  0  0  0  0  0  0  0  0  0
  129.7852  141.3017  164.3829 C   0  0  0  0  0  0  0  0  0  0  0  0
  130.1564  141.7047  162.9461 C   0  0  1  0  0  0  0  0  0  0  0  0
  129.3620  141.5224  162.2224 H   0  0  0  0  0  0  0  0  0  0  0  0
  130.6987  142.9905  162.8470 F   0  0  0  0  0  0  0  0  0  0  0  0
  127.8177  135.4960  159.7914 C   0  0  0  0  0  0  0  0  0  0  0  0
  127.1469  135.1021  160.9341 C   0  0  0  0  0  0  0  0  0  0  0  0
  125.7649  135.1103  160.9618 C   0  0  0  0  0  0  0  0  0  0  0  0
  125.0535  135.5024  159.8432 C   0  0  0  0  0  0  0  0  0  0  0  0
  125.7243  135.8914  158.6988 C   0  0  0  0  0  0  0  0  0  0  0  0
  127.1064  135.8882  158.6729 C   0  0  0  0  0  0  0  0  0  0  0  0
  130.1978  133.5704  156.7152 N   0  0  0  0  0  0  0  0  0  0  0  0
  130.5181  134.1704  156.0236 H   0  0  0  0  0  0  0  0  0  0  0  0
  129.7656  131.6609  154.1879 C   0  0  0  0  0  0  0  0  0  0  0  0
  130.0839  130.9112  153.0739 C   0  0  0  0  0  0  0  0  0  0  0  0
  129.4475  128.1885  151.8207 H   0  0  0  0  0  0  0  0  0  0  0  0
  130.7379  127.2844  150.9927 H   0  0  0  0  0  0  0  0  0  0  0  0
  130.6407  127.2702  152.7699 H   0  0  0  0  0  0  0  0  0  0  0  0
  132.4346  128.7936  151.9887 H   0  0  0  0  0  0  0  0  0  0  0  0
  131.2413  129.7120  151.0395 H   0  0  0  0  0  0  0  0  0  0  0  0
  132.4460  128.9023  154.4099 H   0  0  0  0  0  0  0  0  0  0  0  0
  131.8987  130.2342  156.4045 H   0  0  0  0  0  0  0  0  0  0  0  0
  129.3835  130.7098  158.0005 H   0  0  0  0  0  0  0  0  0  0  0  0
  130.0770  135.9613  157.8339 H   0  0  0  0  0  0  0  0  0  0  0  0
  130.8725  136.9855  159.8788 H   0  0  0  0  0  0  0  0  0  0  0  0
  129.2201  137.6431  159.8081 H   0  0  0  0  0  0  0  0  0  0  0  0
  128.7841  136.7934  162.0965 H   0  0  0  0  0  0  0  0  0  0  0  0
  130.4366  136.1357  162.1671 H   0  0  0  0  0  0  0  0  0  0  0  0
  131.2840  139.8239  165.0656 H   0  0  0  0  0  0  0  0  0  0  0  0
  131.9341  141.5088  164.8723 H   0  0  0  0  0  0  0  0  0  0  0  0
  129.0218  140.5255  164.4353 H   0  0  0  0  0  0  0  0  0  0  0  0
  129.5724  142.1492  165.0345 H   0  0  0  0  0  0  0  0  0  0  0  0
  127.7026  134.7914  161.8064 H   0  0  0  0  0  0  0  0  0  0  0  0
  125.2407  134.8061  161.8557 H   0  0  0  0  0  0  0  0  0  0  0  0
  123.9737  135.5046  159.8633 H   0  0  0  0  0  0  0  0  0  0  0  0
  125.1685  136.1975  157.8248 H   0  0  0  0  0  0  0  0  0  0  0  0
  127.6305  136.1917  157.7786 H   0  0  0  0  0  0  0  0  0  0  0  0
  129.0120  132.4319  154.1239 H   0  0  0  0  0  0  0  0  0  0  0  0
  129.5789  131.0962  152.1374 H   0  0  0  0  0  0  0  0  0  0  0  0
  1  2  1  0
  1 36  1  0
  1 37  1  0
  1 38  1  0
  2  3  1  0
  2 39  1  0
  2 40  1  0
  3 35  2  0
  3  4  1  0
  4  5  2  0
  4 41  1  0
  5  6  1  0
  5 42  1  0
  6  7  1  0
  6 34  2  0
  7 32  1  0
  7  8  2  0
  8  9  1  0
  8 43  1  0
  9 10  1  0
  9 11  1  0
 11 12  1  0
 11 32  2  0
 12 13  1  0
 12 44  1  0
 13 14  1  1
 13 15  1  0
 13 26  1  0
 15 16  1  0
 15 45  1  0
 15 46  1  0
 16 17  1  0
 16 47  1  0
 16 48  1  0
 17 18  3  0
 18 19  1  0
 19 20  1  6
 19 23  1  0
 19 21  1  0
 21 22  1  0
 21 49  1  0
 21 50  1  0
 22 23  1  0
 22 51  1  0
 22 52  1  0
 23 24  1  6
 23 25  1  0
 26 31  1  0
 26 27  2  0
 27 28  1  0
 27 53  1  0
 28 29  2  0
 28 54  1  0
 29 30  1  0
 29 55  1  0
 30 31  2  0
 30 56  1  0
 31 57  1  0
 32 33  1  0
 34 35  1  0
 34 58  1  0
 35 59  1  0
M  CHG  1  32   1
M  END
>  <DOCK_score>  (1) 
-56.683208

>  <SMILES>  (1) 
CCc1ccc(-c2c[nH]c(N[C@@H](CCC#C[C@@H]3CC[C@H]3F)c3ccccc3)[nH+]2)cc1

$$$$
