C[C@@H]([NH2+]C1C=CCCC1)c1cnc(SCC2C=CCCC2)c(NC2CCC2)c1
     RDKit          3D

 64 67  0  0  1  0  0  0  0  0999 V2000
  132.5405  134.8657  160.1944 C   0  0  0  0  0  0  0  0  0  0  0  0
  131.9624  136.2033  160.6607 C   0  0  1  0  0  0  0  0  0  0  0  0
  132.2459  136.3796  161.6983 H   0  0  0  0  0  0  0  0  0  0  0  0
  132.4899  137.2851  159.8184 N   0  0  0  0  0  0  0  0  0  0  0  0
  132.5246  136.9772  158.8582 H   0  0  0  0  0  0  0  0  0  0  0  0
  131.8885  138.0919  159.8913 H   0  0  0  0  0  0  0  0  0  0  0  0
  133.8426  137.6404  160.2679 C   0  0  1  0  0  0  0  0  0  0  0  0
  134.5671  138.3436  159.1576 C   0  0  0  0  0  0  0  0  0  0  0  0
  135.3044  139.3944  159.3240 C   0  0  0  0  0  0  0  0  0  0  0  0
  135.5301  140.0620  160.6489 C   0  0  0  0  0  0  0  0  0  0  0  0
  135.1418  139.1170  161.7882 C   0  0  0  0  0  0  0  0  0  0  0  0
  133.7468  138.5506  161.4942 C   0  0  0  0  0  0  0  0  0  0  0  0
  130.4600  136.1673  160.5496 C   0  0  0  0  0  0  0  0  0  0  0  0
  129.8516  135.3947  159.5812 C   0  0  0  0  0  0  0  0  0  0  0  0
  128.5363  135.3487  159.4750 N   0  0  0  0  0  0  0  0  0  0  0  0
  127.7493  136.0444  160.2797 C   0  0  0  0  0  0  0  0  0  0  0  0
  126.0002  135.9499  160.0884 S   0  0  0  0  0  0  0  0  0  0  0  0
  125.7505  134.2740  159.4405 C   0  0  0  0  0  0  0  0  0  0  0  0
  126.2881  133.2533  160.4457 C   0  0  1  0  0  0  0  0  0  0  0  0
  125.2868  133.0651  161.5474 C   0  0  0  0  0  0  0  0  0  0  0  0
  124.9677  131.9152  162.0488 C   0  0  0  0  0  0  0  0  0  0  0  0
  125.5469  130.6086  161.5915 C   0  0  0  0  0  0  0  0  0  0  0  0
  126.8281  130.8516  160.7906 C   0  0  0  0  0  0  0  0  0  0  0  0
  126.5423  131.9239  159.7318 C   0  0  0  0  0  0  0  0  0  0  0  0
  128.2946  136.8488  161.2842 C   0  0  0  0  0  0  0  0  0  0  0  0
  127.4620  137.5804  162.1394 N   0  0  0  0  0  0  0  0  0  0  0  0
  128.0457  138.4201  163.1883 C   0  0  0  0  0  0  0  0  0  0  0  0
  127.0054  139.0119  164.1540 C   0  0  0  0  0  0  0  0  0  0  0  0
  127.8268  140.3115  164.1177 C   0  0  0  0  0  0  0  0  0  0  0  0
  128.3303  139.8621  162.7360 C   0  0  0  0  0  0  0  0  0  0  0  0
  129.6749  136.9109  161.4209 C   0  0  0  0  0  0  0  0  0  0  0  0
  133.6148  134.8503  160.3782 H   0  0  0  0  0  0  0  0  0  0  0  0
  132.0659  134.0533  160.7445 H   0  0  0  0  0  0  0  0  0  0  0  0
  132.3526  134.7407  159.1280 H   0  0  0  0  0  0  0  0  0  0  0  0
  134.3844  136.7332  160.5352 H   0  0  0  0  0  0  0  0  0  0  0  0
  134.4667  137.9486  158.1574 H   0  0  0  0  0  0  0  0  0  0  0  0
  135.7874  139.8168  158.4553 H   0  0  0  0  0  0  0  0  0  0  0  0
  136.5824  140.3295  160.7442 H   0  0  0  0  0  0  0  0  0  0  0  0
  134.9212  140.9642  160.7073 H   0  0  0  0  0  0  0  0  0  0  0  0
  135.8630  138.3020  161.8500 H   0  0  0  0  0  0  0  0  0  0  0  0
  135.1270  139.6653  162.7301 H   0  0  0  0  0  0  0  0  0  0  0  0
  133.0550  139.3679  161.2909 H   0  0  0  0  0  0  0  0  0  0  0  0
  133.3970  137.9749  162.3512 H   0  0  0  0  0  0  0  0  0  0  0  0
  130.4606  134.8153  158.9030 H   0  0  0  0  0  0  0  0  0  0  0  0
  126.2816  134.1671  158.4949 H   0  0  0  0  0  0  0  0  0  0  0  0
  124.6862  134.1009  159.2811 H   0  0  0  0  0  0  0  0  0  0  0  0
  127.2235  133.6221  160.8667 H   0  0  0  0  0  0  0  0  0  0  0  0
  124.8057  133.9443  161.9502 H   0  0  0  0  0  0  0  0  0  0  0  0
  124.2395  131.8949  162.8461 H   0  0  0  0  0  0  0  0  0  0  0  0
  124.8211  130.0916  160.9637 H   0  0  0  0  0  0  0  0  0  0  0  0
  125.7753  129.9908  162.4599 H   0  0  0  0  0  0  0  0  0  0  0  0
  127.1356  129.9269  160.3021 H   0  0  0  0  0  0  0  0  0  0  0  0
  127.6174  131.1969  161.4583 H   0  0  0  0  0  0  0  0  0  0  0  0
  125.6612  131.6436  159.1546 H   0  0  0  0  0  0  0  0  0  0  0  0
  127.3997  132.0236  159.0660 H   0  0  0  0  0  0  0  0  0  0  0  0
  126.4986  137.5313  162.0374 H   0  0  0  0  0  0  0  0  0  0  0  0
  128.8889  137.9454  163.6902 H   0  0  0  0  0  0  0  0  0  0  0  0
  126.0114  139.1113  163.7177 H   0  0  0  0  0  0  0  0  0  0  0  0
  126.9933  138.5301  165.1316 H   0  0  0  0  0  0  0  0  0  0  0  0
  128.6096  140.3544  164.8751 H   0  0  0  0  0  0  0  0  0  0  0  0
  127.2157  141.2136  164.0878 H   0  0  0  0  0  0  0  0  0  0  0  0
  129.3877  140.0666  162.5689 H   0  0  0  0  0  0  0  0  0  0  0  0
  127.6996  140.1934  161.9110 H   0  0  0  0  0  0  0  0  0  0  0  0
  130.1273  137.5229  162.1871 H   0  0  0  0  0  0  0  0  0  0  0  0
  1  2  1  0
  1 32  1  0
  1 33  1  0
  1 34  1  0
  2  3  1  1
  2  4  1  0
  2 13  1  0
  4  5  1  0
  4  6  1  0
  4  7  1  0
  7 12  1  0
  7  8  1  0
  7 35  1  1
  8  9  2  0
  8 36  1  0
  9 10  1  0
  9 37  1  0
 10 11  1  0
 10 38  1  0
 10 39  1  0
 11 12  1  0
 11 40  1  0
 11 41  1  0
 12 42  1  0
 12 43  1  0
 13 31  1  0
 13 14  2  0
 14 15  1  0
 14 44  1  0
 15 16  2  0
 16 17  1  0
 16 25  1  0
 17 18  1  0
 18 19  1  0
 18 45  1  0
 18 46  1  0
 19 24  1  0
 19 20  1  0
 19 47  1  1
 20 21  2  0
 20 48  1  0
 21 22  1  0
 21 49  1  0
 22 23  1  0
 22 50  1  0
 22 51  1  0
 23 24  1  0
 23 52  1  0
 23 53  1  0
 24 54  1  0
 24 55  1  0
 25 26  1  0
 25 31  2  0
 26 27  1  0
 26 56  1  0
 27 30  1  0
 27 28  1  0
 27 57  1  0
 28 29  1  0
 28 58  1  0
 28 59  1  0
 29 30  1  0
 29 60  1  0
 29 61  1  0
 30 62  1  0
 30 63  1  0
 31 64  1  0
M  CHG  1   4   1
M  END
>  <DOCK_score>  (1) 
-46.360054

>  <SMILES>  (1) 
C[C@@H]([NH2+]C1C=CCCC1)c1cnc(SCC2C=CCCC2)c(NC2CCC2)c1

$$$$
