O=C1CC[C@@H]([NH+]=C(NCc2ccccc2)NC2CC=CC2)CN1
     RDKit          3D

 48 50  0  0  1  0  0  0  0  0999 V2000
  123.8766  133.7336  161.8668 O   0  0  0  0  0  0  0  0  0  0  0  0
  124.9439  133.9298  161.3252 C   0  0  0  0  0  0  0  0  0  0  0  0
  125.8044  132.7430  160.9993 C   0  0  0  0  0  0  0  0  0  0  0  0
  126.8592  133.1338  159.9612 C   0  0  0  0  0  0  0  0  0  0  0  0
  127.5384  134.4283  160.4241 C   0  0  1  0  0  0  0  0  0  0  0  0
  127.8946  134.3088  161.4473 H   0  0  0  0  0  0  0  0  0  0  0  0
  128.6683  134.7329  159.5427 N   0  0  0  0  0  0  0  0  0  0  0  0
  128.6457  134.4582  158.6128 H   0  0  0  0  0  0  0  0  0  0  0  0
  129.7040  135.3728  160.0083 C   0  0  0  0  0  0  0  0  0  0  0  0
  130.9495  135.1476  159.4717 N   0  0  0  0  0  0  0  0  0  0  0  0
  131.1128  134.1883  158.3765 C   0  0  0  0  0  0  0  0  0  0  0  0
  130.6604  132.8248  158.8316 C   0  0  0  0  0  0  0  0  0  0  0  0
  130.1345  131.9304  157.9182 C   0  0  0  0  0  0  0  0  0  0  0  0
  129.7154  130.6813  158.3364 C   0  0  0  0  0  0  0  0  0  0  0  0
  129.8311  130.3229  159.6666 C   0  0  0  0  0  0  0  0  0  0  0  0
  130.3608  131.2158  160.5793 C   0  0  0  0  0  0  0  0  0  0  0  0
  130.7753  132.4667  160.1619 C   0  0  0  0  0  0  0  0  0  0  0  0
  129.5508  136.2732  161.0360 N   0  0  0  0  0  0  0  0  0  0  0  0
  130.4504  137.4246  161.1414 C   0  0  0  0  0  0  0  0  0  0  0  0
  129.9763  138.4005  162.2431 C   0  0  0  0  0  0  0  0  0  0  0  0
  130.2713  139.7760  161.6897 C   0  0  0  0  0  0  0  0  0  0  0  0
  130.4808  139.7300  160.4022 C   0  0  0  0  0  0  0  0  0  0  0  0
  130.3601  138.3167  159.8815 C   0  0  0  0  0  0  0  0  0  0  0  0
  126.5183  135.5658  160.3621 C   0  0  0  0  0  0  0  0  0  0  0  0
  125.2904  135.1879  161.0506 N   0  0  0  0  0  0  0  0  0  0  0  0
  125.1814  131.9431  160.5990 H   0  0  0  0  0  0  0  0  0  0  0  0
  126.2999  132.3965  161.9063 H   0  0  0  0  0  0  0  0  0  0  0  0
  126.3811  133.2954  158.9952 H   0  0  0  0  0  0  0  0  0  0  0  0
  127.6016  132.3404  159.8750 H   0  0  0  0  0  0  0  0  0  0  0  0
  131.7202  135.6239  159.8182 H   0  0  0  0  0  0  0  0  0  0  0  0
  132.1622  134.1444  158.0854 H   0  0  0  0  0  0  0  0  0  0  0  0
  130.5121  134.5046  157.5238 H   0  0  0  0  0  0  0  0  0  0  0  0
  130.0480  132.2087  156.8783 H   0  0  0  0  0  0  0  0  0  0  0  0
  129.3016  129.9836  157.6233 H   0  0  0  0  0  0  0  0  0  0  0  0
  129.5076  129.3455  159.9924 H   0  0  0  0  0  0  0  0  0  0  0  0
  130.4510  130.9359  161.6186 H   0  0  0  0  0  0  0  0  0  0  0  0
  131.1895  133.1642  160.8750 H   0  0  0  0  0  0  0  0  0  0  0  0
  128.8471  136.1460  161.6914 H   0  0  0  0  0  0  0  0  0  0  0  0
  131.4761  137.1019  161.3196 H   0  0  0  0  0  0  0  0  0  0  0  0
  128.9071  138.2836  162.4195 H   0  0  0  0  0  0  0  0  0  0  0  0
  130.5345  138.2334  163.1643 H   0  0  0  0  0  0  0  0  0  0  0  0
  130.3045  140.6784  162.2822 H   0  0  0  0  0  0  0  0  0  0  0  0
  130.7101  140.5894  159.7895 H   0  0  0  0  0  0  0  0  0  0  0  0
  131.1790  138.0926  159.1980 H   0  0  0  0  0  0  0  0  0  0  0  0
  129.4010  138.1743  159.3835 H   0  0  0  0  0  0  0  0  0  0  0  0
  126.9385  136.4530  160.8358 H   0  0  0  0  0  0  0  0  0  0  0  0
  126.2922  135.7905  159.3196 H   0  0  0  0  0  0  0  0  0  0  0  0
  124.6874  135.8960  161.3263 H   0  0  0  0  0  0  0  0  0  0  0  0
  1  2  2  0
  2 25  1  0
  2  3  1  0
  3  4  1  0
  3 26  1  0
  3 27  1  0
  4  5  1  0
  4 28  1  0
  4 29  1  0
  5  6  1  1
  5  7  1  0
  5 24  1  0
  7  8  1  0
  9  7  2  0
  9 10  1  0
  9 18  1  0
 10 11  1  0
 10 30  1  0
 11 12  1  0
 11 31  1  0
 11 32  1  0
 12 17  1  0
 12 13  2  0
 13 14  1  0
 13 33  1  0
 14 15  2  0
 14 34  1  0
 15 16  1  0
 15 35  1  0
 16 17  2  0
 16 36  1  0
 17 37  1  0
 18 19  1  0
 18 38  1  0
 19 23  1  0
 19 20  1  0
 19 39  1  0
 20 21  1  0
 20 40  1  0
 20 41  1  0
 21 22  2  0
 21 42  1  0
 22 23  1  0
 22 43  1  0
 23 44  1  0
 23 45  1  0
 24 25  1  0
 24 46  1  0
 24 47  1  0
 25 48  1  0
M  CHG  1   7   1
M  END
>  <DOCK_score>  (1) 
-42.637512

>  <SMILES>  (1) 
O=C1CC[C@@H]([NH+]=C(NCc2ccccc2)NC2CC=CC2)CN1

$$$$
