Cc1cc(O)ccc1N[C@H]1C[C@H]1[NH2+][C@H](CO)c1cccc(C#N)c1
     RDKit          3D

 46 48  0  0  1  0  0  0  0  0999 V2000
  127.9164  135.9440  158.2431 C   0  0  0  0  0  0  0  0  0  0  0  0
  127.9274  135.6660  159.7242 C   0  0  0  0  0  0  0  0  0  0  0  0
  126.8648  136.0672  160.5103 C   0  0  0  0  0  0  0  0  0  0  0  0
  126.8748  135.8118  161.8733 C   0  0  0  0  0  0  0  0  0  0  0  0
  125.8282  136.2072  162.6466 O   0  0  0  0  0  0  0  0  0  0  0  0
  127.9516  135.1531  162.4485 C   0  0  0  0  0  0  0  0  0  0  0  0
  129.0148  134.7513  161.6640 C   0  0  0  0  0  0  0  0  0  0  0  0
  129.0080  135.0116  160.2999 C   0  0  0  0  0  0  0  0  0  0  0  0
  130.0877  134.6100  159.5052 N   0  0  0  0  0  0  0  0  0  0  0  0
  131.2277  133.9195  160.1132 C   0  0  1  0  0  0  0  0  0  0  0  0
  130.9787  133.1864  160.8804 H   0  0  0  0  0  0  0  0  0  0  0  0
  132.4337  133.6245  159.2190 C   0  0  0  0  0  0  0  0  0  0  0  0
  132.5232  134.7145  160.2890 C   0  0  1  0  0  0  0  0  0  0  0  0
  133.1266  134.5045  161.1720 H   0  0  0  0  0  0  0  0  0  0  0  0
  132.5284  136.1117  159.8352 N   0  0  0  0  0  0  0  0  0  0  0  0
  133.4802  136.4165  159.6962 H   0  0  0  0  0  0  0  0  0  0  0  0
  132.0214  136.1849  158.9660 H   0  0  0  0  0  0  0  0  0  0  0  0
  131.8863  136.9583  160.8495 C   0  0  2  0  0  0  0  0  0  0  0  0
  131.0180  136.4411  161.2577 H   0  0  0  0  0  0  0  0  0  0  0  0
  131.4413  138.2742  160.2081 C   0  0  0  0  0  0  0  0  0  0  0  0
  132.4425  138.7196  159.2909 O   0  0  0  0  0  0  0  0  0  0  0  0
  132.8665  137.2458  161.9576 C   0  0  0  0  0  0  0  0  0  0  0  0
  132.5777  136.8547  163.2533 C   0  0  0  0  0  0  0  0  0  0  0  0
  133.4721  137.1141  164.2764 C   0  0  0  0  0  0  0  0  0  0  0  0
  134.6590  137.7652  164.0107 C   0  0  0  0  0  0  0  0  0  0  0  0
  134.9568  138.1625  162.7058 C   0  0  0  0  0  0  0  0  0  0  0  0
  136.1868  138.8388  162.4229 C   0  0  0  0  0  0  0  0  0  0  0  0
  137.1628  139.3753  162.1983 N   0  0  0  0  0  0  0  0  0  0  0  0
  134.0518  137.8928  161.6770 C   0  0  0  0  0  0  0  0  0  0  0  0
  128.3771  136.9133  158.0519 H   0  0  0  0  0  0  0  0  0  0  0  0
  128.4764  135.1667  157.7233 H   0  0  0  0  0  0  0  0  0  0  0  0
  126.8878  135.9534  157.8827 H   0  0  0  0  0  0  0  0  0  0  0  0
  126.0260  136.5802  160.0634 H   0  0  0  0  0  0  0  0  0  0  0  0
  125.1259  136.6576  162.1576 H   0  0  0  0  0  0  0  0  0  0  0  0
  127.9587  134.9546  163.5101 H   0  0  0  0  0  0  0  0  0  0  0  0
  129.8531  134.2388  162.1121 H   0  0  0  0  0  0  0  0  0  0  0  0
  130.0811  134.7889  158.5518 H   0  0  0  0  0  0  0  0  0  0  0  0
  132.9783  132.6975  159.3981 H   0  0  0  0  0  0  0  0  0  0  0  0
  132.3787  133.9441  158.1783 H   0  0  0  0  0  0  0  0  0  0  0  0
  130.5032  138.1196  159.6751 H   0  0  0  0  0  0  0  0  0  0  0  0
  131.2987  139.0266  160.9840 H   0  0  0  0  0  0  0  0  0  0  0  0
  132.6218  138.0981  158.5721 H   0  0  0  0  0  0  0  0  0  0  0  0
  131.6499  136.3450  163.4667 H   0  0  0  0  0  0  0  0  0  0  0  0
  133.2403  136.8064  165.2853 H   0  0  0  0  0  0  0  0  0  0  0  0
  135.3566  137.9667  164.8104 H   0  0  0  0  0  0  0  0  0  0  0  0
  134.2776  138.1937  160.6647 H   0  0  0  0  0  0  0  0  0  0  0  0
  1  2  1  0
  1 30  1  0
  1 31  1  0
  1 32  1  0
  2  8  2  0
  2  3  1  0
  3  4  2  0
  3 33  1  0
  4  5  1  0
  4  6  1  0
  5 34  1  0
  6  7  2  0
  6 35  1  0
  7  8  1  0
  7 36  1  0
  8  9  1  0
  9 10  1  0
  9 37  1  0
 10 11  1  1
 10 13  1  0
 10 12  1  0
 12 13  1  0
 12 38  1  0
 12 39  1  0
 13 14  1  1
 13 15  1  0
 15 16  1  0
 15 17  1  0
 15 18  1  0
 18 19  1  1
 18 20  1  0
 18 22  1  0
 20 21  1  0
 20 40  1  0
 20 41  1  0
 21 42  1  0
 22 29  1  0
 22 23  2  0
 23 24  1  0
 23 43  1  0
 24 25  2  0
 24 44  1  0
 25 26  1  0
 25 45  1  0
 26 27  1  0
 26 29  2  0
 27 28  3  0
 29 46  1  0
M  CHG  1  15   1
M  END
>  <DOCK_score>  (1) 
-41.952232

>  <SMILES>  (1) 
Cc1cc(O)ccc1N[C@H]1C[C@H]1[NH2+][C@H](CO)c1cccc(C#N)c1

$$$$
