OCC(O)[C@H](Nc1[nH]cc(-c2ccc(Br)cc2)[nH+]1)c1ccccc1
     RDKit          3D

 43 45  0  0  1  0  0  0  0  0999 V2000
  130.1944  137.6051  158.8576 O   0  0  0  0  0  0  0  0  0  0  0  0
  130.4260  137.7015  160.2643 C   0  0  0  0  0  0  0  0  0  0  0  0
  131.2063  136.4737  160.7381 C   0  0  2  0  0  0  0  0  0  0  0  0
  132.4584  136.4112  160.0525 O   0  0  0  0  0  0  0  0  0  0  0  0
  130.3979  135.2093  160.4398 C   0  0  2  0  0  0  0  0  0  0  0  0
  130.9538  134.3346  160.7773 H   0  0  0  0  0  0  0  0  0  0  0  0
  130.1604  135.1105  158.9975 N   0  0  0  0  0  0  0  0  0  0  0  0
  130.0347  133.8679  158.4003 C   0  0  0  0  0  0  0  0  0  0  0  0
  129.5461  132.7471  158.9976 N   0  0  0  0  0  0  0  0  0  0  0  0
  129.2256  132.6757  159.9104 H   0  0  0  0  0  0  0  0  0  0  0  0
  129.5898  131.7354  158.0691 C   0  0  0  0  0  0  0  0  0  0  0  0
  130.1033  132.2668  156.9321 C   0  0  0  0  0  0  0  0  0  0  0  0
  130.3362  131.5436  155.6582 C   0  0  0  0  0  0  0  0  0  0  0  0
  129.6924  131.9553  154.4926 C   0  0  0  0  0  0  0  0  0  0  0  0
  129.9169  131.2826  153.3089 C   0  0  0  0  0  0  0  0  0  0  0  0
  130.7705  130.1939  153.2799 C   0  0  0  0  0  0  0  0  0  0  0  0
  131.0668  129.2709  151.6563 Br  0  0  0  0  0  0  0  0  0  0  0  0
  131.4082  129.7771  154.4360 C   0  0  0  0  0  0  0  0  0  0  0  0
  131.1950  130.4464  155.6238 C   0  0  0  0  0  0  0  0  0  0  0  0
  130.3667  133.5770  157.1661 N   0  0  0  0  0  0  0  0  0  0  0  0
  130.7411  134.1991  156.5228 H   0  0  0  0  0  0  0  0  0  0  0  0
  129.0774  135.2752  161.1630 C   0  0  0  0  0  0  0  0  0  0  0  0
  128.9630  134.7616  162.4413 C   0  0  0  0  0  0  0  0  0  0  0  0
  127.7528  134.8260  163.1063 C   0  0  0  0  0  0  0  0  0  0  0  0
  126.6548  135.3959  162.4895 C   0  0  0  0  0  0  0  0  0  0  0  0
  126.7678  135.9048  161.2093 C   0  0  0  0  0  0  0  0  0  0  0  0
  127.9790  135.8443  160.5459 C   0  0  0  0  0  0  0  0  0  0  0  0
  131.0024  137.5588  158.3283 H   0  0  0  0  0  0  0  0  0  0  0  0
  129.4708  137.7491  160.7874 H   0  0  0  0  0  0  0  0  0  0  0  0
  131.0019  138.6022  160.4769 H   0  0  0  0  0  0  0  0  0  0  0  0
  131.3830  136.5471  161.8111 H   0  0  0  0  0  0  0  0  0  0  0  0
  132.3777  136.3445  159.0912 H   0  0  0  0  0  0  0  0  0  0  0  0
  130.0912  135.9157  158.4611 H   0  0  0  0  0  0  0  0  0  0  0  0
  129.2790  130.7119  158.2177 H   0  0  0  0  0  0  0  0  0  0  0  0
  129.0225  132.8021  154.5148 H   0  0  0  0  0  0  0  0  0  0  0  0
  129.4223  131.6037  152.4040 H   0  0  0  0  0  0  0  0  0  0  0  0
  132.0735  128.9267  154.4084 H   0  0  0  0  0  0  0  0  0  0  0  0
  131.6931  130.1208  156.5252 H   0  0  0  0  0  0  0  0  0  0  0  0
  129.8199  134.3131  162.9217 H   0  0  0  0  0  0  0  0  0  0  0  0
  127.6645  134.4288  164.1067 H   0  0  0  0  0  0  0  0  0  0  0  0
  125.7085  135.4438  163.0081 H   0  0  0  0  0  0  0  0  0  0  0  0
  125.9099  136.3500  160.7274 H   0  0  0  0  0  0  0  0  0  0  0  0
  128.0674  136.2418  159.5457 H   0  0  0  0  0  0  0  0  0  0  0  0
  1  2  1  0
  1 28  1  0
  2  3  1  0
  2 29  1  0
  2 30  1  0
  3  4  1  0
  3  5  1  0
  3 31  1  1
  4 32  1  0
  5  6  1  1
  5  7  1  0
  5 22  1  0
  7 33  1  0
  8  7  1  0
  8 20  2  0
  8  9  1  0
  9 10  1  0
  9 11  1  0
 11 12  2  0
 11 34  1  0
 12 13  1  0
 12 20  1  0
 13 19  1  0
 13 14  2  0
 14 15  1  0
 14 35  1  0
 15 16  2  0
 15 36  1  0
 16 17  1  0
 16 18  1  0
 18 19  2  0
 18 37  1  0
 19 38  1  0
 20 21  1  0
 22 27  1  0
 22 23  2  0
 23 24  1  0
 23 39  1  0
 24 25  2  0
 24 40  1  0
 25 26  1  0
 25 41  1  0
 26 27  2  0
 26 42  1  0
 27 43  1  0
M  CHG  1  20   1
M  END
>  <DOCK_score>  (1) 
-58.445839

>  <SMILES>  (1) 
OCC(O)[C@H](Nc1[nH]cc(-c2ccc(Br)cc2)[nH+]1)c1ccccc1

$$$$
