Nc1ccc(-c2c[nH]c(N[C@@H](c3ccccc3N)c3cccc4ccccc34)[nH+]2)cc1
     RDKit          3D

 55 59  0  0  1  0  0  0  0  0999 V2000
  131.0737  129.1811  151.1842 N   0  0  0  0  0  0  0  0  0  0  0  0
  130.9324  129.8368  152.4096 C   0  0  0  0  0  0  0  0  0  0  0  0
  130.1586  130.9881  152.4955 C   0  0  0  0  0  0  0  0  0  0  0  0
  130.0177  131.6369  153.7040 C   0  0  0  0  0  0  0  0  0  0  0  0
  130.6522  131.1373  154.8402 C   0  0  0  0  0  0  0  0  0  0  0  0
  130.5021  131.8337  156.1416 C   0  0  0  0  0  0  0  0  0  0  0  0
  129.9729  131.3055  157.2727 C   0  0  0  0  0  0  0  0  0  0  0  0
  130.0271  132.2867  158.2341 N   0  0  0  0  0  0  0  0  0  0  0  0
  129.7219  132.2097  159.1516 H   0  0  0  0  0  0  0  0  0  0  0  0
  130.5883  133.3857  157.6609 C   0  0  0  0  0  0  0  0  0  0  0  0
  130.8225  134.5947  158.2937 N   0  0  0  0  0  0  0  0  0  0  0  0
  130.4563  134.7674  159.7017 C   0  0  1  0  0  0  0  0  0  0  0  0
  130.6971  133.8589  160.2538 H   0  0  0  0  0  0  0  0  0  0  0  0
  131.2250  135.9265  160.2819 C   0  0  0  0  0  0  0  0  0  0  0  0
  130.6977  137.2020  160.2281 C   0  0  0  0  0  0  0  0  0  0  0  0
  131.4001  138.2653  160.7645 C   0  0  0  0  0  0  0  0  0  0  0  0
  132.6364  138.0575  161.3479 C   0  0  0  0  0  0  0  0  0  0  0  0
  133.1722  136.7857  161.4000 C   0  0  0  0  0  0  0  0  0  0  0  0
  132.4668  135.7143  160.8666 C   0  0  0  0  0  0  0  0  0  0  0  0
  133.0055  134.4265  160.9177 N   0  0  0  0  0  0  0  0  0  0  0  0
  128.9783  135.0420  159.8061 C   0  0  0  0  0  0  0  0  0  0  0  0
  128.2112  135.0953  158.6829 C   0  0  0  0  0  0  0  0  0  0  0  0
  126.8430  135.3475  158.7599 C   0  0  0  0  0  0  0  0  0  0  0  0
  126.2338  135.5486  159.9605 C   0  0  0  0  0  0  0  0  0  0  0  0
  126.9930  135.5013  161.1418 C   0  0  0  0  0  0  0  0  0  0  0  0
  126.3992  135.7025  162.3996 C   0  0  0  0  0  0  0  0  0  0  0  0
  127.1661  135.6485  163.5226 C   0  0  0  0  0  0  0  0  0  0  0  0
  128.5348  135.3963  163.4456 C   0  0  0  0  0  0  0  0  0  0  0  0
  129.1440  135.1962  162.2454 C   0  0  0  0  0  0  0  0  0  0  0  0
  128.3849  135.2440  161.0636 C   0  0  0  0  0  0  0  0  0  0  0  0
  130.8656  133.1130  156.4091 N   0  0  0  0  0  0  0  0  0  0  0  0
  131.2685  133.7272  155.7756 H   0  0  0  0  0  0  0  0  0  0  0  0
  131.4326  129.9857  154.7507 C   0  0  0  0  0  0  0  0  0  0  0  0
  131.5656  129.3366  153.5415 C   0  0  0  0  0  0  0  0  0  0  0  0
  130.6320  129.5292  150.3941 H   0  0  0  0  0  0  0  0  0  0  0  0
  131.6137  128.3775  151.1237 H   0  0  0  0  0  0  0  0  0  0  0  0
  129.6675  131.3748  151.6149 H   0  0  0  0  0  0  0  0  0  0  0  0
  129.4159  132.5312  153.7701 H   0  0  0  0  0  0  0  0  0  0  0  0
  129.5831  130.3057  157.3948 H   0  0  0  0  0  0  0  0  0  0  0  0
  131.2289  135.3272  157.8048 H   0  0  0  0  0  0  0  0  0  0  0  0
  129.7341  137.3685  159.7696 H   0  0  0  0  0  0  0  0  0  0  0  0
  130.9836  139.2610  160.7251 H   0  0  0  0  0  0  0  0  0  0  0  0
  133.1847  138.8908  161.7622 H   0  0  0  0  0  0  0  0  0  0  0  0
  134.1379  136.6240  161.8556 H   0  0  0  0  0  0  0  0  0  0  0  0
  132.4804  133.6689  160.6160 H   0  0  0  0  0  0  0  0  0  0  0  0
  133.9048  134.2901  161.2549 H   0  0  0  0  0  0  0  0  0  0  0  0
  128.6698  134.9392  157.7176 H   0  0  0  0  0  0  0  0  0  0  0  0
  126.2572  135.3844  157.8533 H   0  0  0  0  0  0  0  0  0  0  0  0
  125.1733  135.7479  160.0044 H   0  0  0  0  0  0  0  0  0  0  0  0
  125.3401  135.8995  162.4746 H   0  0  0  0  0  0  0  0  0  0  0  0
  126.7073  135.8035  164.4879 H   0  0  0  0  0  0  0  0  0  0  0  0
  129.1205  135.3590  164.3522 H   0  0  0  0  0  0  0  0  0  0  0  0
  130.2054  135.0012  162.2011 H   0  0  0  0  0  0  0  0  0  0  0  0
  131.9286  129.5995  155.6288 H   0  0  0  0  0  0  0  0  0  0  0  0
  132.1659  128.4414  153.4726 H   0  0  0  0  0  0  0  0  0  0  0  0
  1  2  1  0
  1 35  1  0
  1 36  1  0
  2 34  2  0
  2  3  1  0
  3  4  2  0
  3 37  1  0
  4  5  1  0
  4 38  1  0
  5  6  1  0
  5 33  2  0
  6 31  1  0
  6  7  2  0
  7  8  1  0
  7 39  1  0
  8  9  1  0
  8 10  1  0
 10 11  1  0
 10 31  2  0
 11 12  1  0
 11 40  1  0
 12 13  1  1
 12 14  1  0
 12 21  1  0
 14 19  1  0
 14 15  2  0
 15 16  1  0
 15 41  1  0
 16 17  2  0
 16 42  1  0
 17 18  1  0
 17 43  1  0
 18 19  2  0
 18 44  1  0
 19 20  1  0
 20 45  1  0
 20 46  1  0
 21 30  1  0
 21 22  2  0
 22 23  1  0
 22 47  1  0
 23 24  2  0
 23 48  1  0
 24 25  1  0
 24 49  1  0
 25 30  2  0
 25 26  1  0
 26 27  2  0
 26 50  1  0
 27 28  1  0
 27 51  1  0
 28 29  2  0
 28 52  1  0
 29 30  1  0
 29 53  1  0
 31 32  1  0
 33 34  1  0
 33 54  1  0
 34 55  1  0
M  CHG  1  31   1
M  END
>  <DOCK_score>  (1) 
-62.83683

>  <SMILES>  (1) 
Nc1ccc(-c2c[nH]c(N[C@@H](c3ccccc3N)c3cccc4ccccc34)[nH+]2)cc1

$$$$
