Clc1ccccc1[C@H](c1ccccc1)[NH+]1CCN(c2cccc(Cl)c2CC2=CCC=CC2)CC1
     RDKit          3D

 65 69  0  0  1  0  0  0  0  0999 V2000
  130.7601  132.4430  162.0184 Cl  0  0  0  0  0  0  0  0  0  0  0  0
  131.0436  132.3466  160.3084 C   0  0  0  0  0  0  0  0  0  0  0  0
  131.5180  131.1725  159.7506 C   0  0  0  0  0  0  0  0  0  0  0  0
  131.7431  131.0964  158.3893 C   0  0  0  0  0  0  0  0  0  0  0  0
  131.4948  132.1929  157.5847 C   0  0  0  0  0  0  0  0  0  0  0  0
  131.0154  133.3642  158.1405 C   0  0  0  0  0  0  0  0  0  0  0  0
  130.7949  133.4433  159.5029 C   0  0  0  0  0  0  0  0  0  0  0  0
  130.2776  134.7222  160.1096 C   0  0  2  0  0  0  0  0  0  0  0  0
  130.1625  134.5932  161.1858 H   0  0  0  0  0  0  0  0  0  0  0  0
  128.9430  135.0640  159.4989 C   0  0  0  0  0  0  0  0  0  0  0  0
  127.7786  134.5868  160.0710 C   0  0  0  0  0  0  0  0  0  0  0  0
  126.5541  134.9041  159.5133 C   0  0  0  0  0  0  0  0  0  0  0  0
  126.4946  135.6906  158.3782 C   0  0  0  0  0  0  0  0  0  0  0  0
  127.6592  136.1638  157.8033 C   0  0  0  0  0  0  0  0  0  0  0  0
  128.8835  135.8502  158.3634 C   0  0  0  0  0  0  0  0  0  0  0  0
  131.2297  135.8094  159.8459 N   0  0  0  0  0  0  0  0  0  0  0  0
  131.3363  135.9286  158.8496 H   0  0  0  0  0  0  0  0  0  0  0  0
  130.7250  137.0559  160.4366 C   0  0  0  0  0  0  0  0  0  0  0  0
  131.7071  138.1927  160.1460 C   0  0  0  0  0  0  0  0  0  0  0  0
  133.0210  137.8582  160.7136 N   0  0  0  0  0  0  0  0  0  0  0  0
  133.9317  138.8983  160.5146 C   0  0  0  0  0  0  0  0  0  0  0  0
  134.2451  139.3122  159.2259 C   0  0  0  0  0  0  0  0  0  0  0  0
  135.1458  140.3408  159.0319 C   0  0  0  0  0  0  0  0  0  0  0  0
  135.7366  140.9591  160.1187 C   0  0  0  0  0  0  0  0  0  0  0  0
  135.4270  140.5499  161.4038 C   0  0  0  0  0  0  0  0  0  0  0  0
  136.1706  141.3293  162.7651 Cl  0  0  0  0  0  0  0  0  0  0  0  0
  134.5258  139.5210  161.6045 C   0  0  0  0  0  0  0  0  0  0  0  0
  134.1931  139.0715  163.0040 C   0  0  0  0  0  0  0  0  0  0  0  0
  135.1497  137.9853  163.4236 C   0  0  0  0  0  0  0  0  0  0  0  0
  134.6683  136.8210  163.7370 C   0  0  0  0  0  0  0  0  0  0  0  0
  135.5321  135.6719  164.1618 C   0  0  0  0  0  0  0  0  0  0  0  0
  136.8727  136.1491  164.6335 C   0  0  0  0  0  0  0  0  0  0  0  0
  137.3536  137.3149  164.3251 C   0  0  0  0  0  0  0  0  0  0  0  0
  136.6151  138.2976  163.4669 C   0  0  0  0  0  0  0  0  0  0  0  0
  133.5279  136.5992  160.1498 C   0  0  0  0  0  0  0  0  0  0  0  0
  132.5307  135.4755  160.4404 C   0  0  0  0  0  0  0  0  0  0  0  0
  131.7121  130.3158  160.3789 H   0  0  0  0  0  0  0  0  0  0  0  0
  132.1134  130.1800  157.9536 H   0  0  0  0  0  0  0  0  0  0  0  0
  131.6715  132.1331  156.5210 H   0  0  0  0  0  0  0  0  0  0  0  0
  130.8170  134.2190  157.5109 H   0  0  0  0  0  0  0  0  0  0  0  0
  127.8253  133.9690  160.9556 H   0  0  0  0  0  0  0  0  0  0  0  0
  125.6442  134.5346  159.9627 H   0  0  0  0  0  0  0  0  0  0  0  0
  125.5381  135.9355  157.9405 H   0  0  0  0  0  0  0  0  0  0  0  0
  127.6127  136.7783  156.9164 H   0  0  0  0  0  0  0  0  0  0  0  0
  129.7934  136.2196  157.9141 H   0  0  0  0  0  0  0  0  0  0  0  0
  130.6219  136.9315  161.5146 H   0  0  0  0  0  0  0  0  0  0  0  0
  129.7535  137.2955  160.0042 H   0  0  0  0  0  0  0  0  0  0  0  0
  131.3402  139.1146  160.5970 H   0  0  0  0  0  0  0  0  0  0  0  0
  131.8001  138.3269  159.0682 H   0  0  0  0  0  0  0  0  0  0  0  0
  133.7840  138.8303  158.3764 H   0  0  0  0  0  0  0  0  0  0  0  0
  135.3890  140.6630  158.0302 H   0  0  0  0  0  0  0  0  0  0  0  0
  136.4406  141.7633  159.9641 H   0  0  0  0  0  0  0  0  0  0  0  0
  134.2802  139.9164  163.6872 H   0  0  0  0  0  0  0  0  0  0  0  0
  133.1733  138.6873  163.0293 H   0  0  0  0  0  0  0  0  0  0  0  0
  133.5997  136.6727  163.6857 H   0  0  0  0  0  0  0  0  0  0  0  0
  135.6702  134.9939  163.3195 H   0  0  0  0  0  0  0  0  0  0  0  0
  135.0373  135.1377  164.9728 H   0  0  0  0  0  0  0  0  0  0  0  0
  137.4640  135.4948  165.2570 H   0  0  0  0  0  0  0  0  0  0  0  0
  138.3271  137.5889  164.7036 H   0  0  0  0  0  0  0  0  0  0  0  0
  137.0182  138.2617  162.4548 H   0  0  0  0  0  0  0  0  0  0  0  0
  136.7550  139.3001  163.8716 H   0  0  0  0  0  0  0  0  0  0  0  0
  133.6508  136.7067  159.0721 H   0  0  0  0  0  0  0  0  0  0  0  0
  134.4893  136.3586  160.6036 H   0  0  0  0  0  0  0  0  0  0  0  0
  132.4184  135.3592  161.5183 H   0  0  0  0  0  0  0  0  0  0  0  0
  132.8981  134.5436  160.0107 H   0  0  0  0  0  0  0  0  0  0  0  0
  1  2  1  0
  2  7  2  0
  2  3  1  0
  3  4  2  0
  3 37  1  0
  4  5  1  0
  4 38  1  0
  5  6  2  0
  5 39  1  0
  6  7  1  0
  6 40  1  0
  7  8  1  0
  8  9  1  1
  8 10  1  0
  8 16  1  0
 10 15  1  0
 10 11  2  0
 11 12  1  0
 11 41  1  0
 12 13  2  0
 12 42  1  0
 13 14  1  0
 13 43  1  0
 14 15  2  0
 14 44  1  0
 15 45  1  0
 16 17  1  0
 16 36  1  0
 16 18  1  0
 18 19  1  0
 18 46  1  0
 18 47  1  0
 19 20  1  0
 19 48  1  0
 19 49  1  0
 20 21  1  0
 20 35  1  0
 21 27  1  0
 21 22  2  0
 22 23  1  0
 22 50  1  0
 23 24  2  0
 23 51  1  0
 24 25  1  0
 24 52  1  0
 25 26  1  0
 25 27  2  0
 27 28  1  0
 28 29  1  0
 28 53  1  0
 28 54  1  0
 29 34  1  0
 29 30  2  0
 30 31  1  0
 30 55  1  0
 31 32  1  0
 31 56  1  0
 31 57  1  0
 32 33  2  0
 32 58  1  0
 33 34  1  0
 33 59  1  0
 34 60  1  0
 34 61  1  0
 35 36  1  0
 35 62  1  0
 35 63  1  0
 36 64  1  0
 36 65  1  0
M  CHG  1  16   1
M  END
>  <DOCK_score>  (1) 
-62.697559

>  <SMILES>  (1) 
Clc1ccccc1[C@H](c1ccccc1)[NH+]1CCN(c2cccc(Cl)c2CC2=CCC=CC2)CC1

$$$$
