Nc1cc(O)ccc1Nc1[nH]cc(C2=CCC=CC2)[nH+]1
     RDKit          3D

 37 39  0  0  1  0  0  0  0  0999 V2000
  127.5317  135.4906  158.1969 N   0  0  0  0  0  0  0  0  0  0  0  0
  127.9246  135.7363  159.5174 C   0  0  0  0  0  0  0  0  0  0  0  0
  126.9990  136.1899  160.4447 C   0  0  0  0  0  0  0  0  0  0  0  0
  127.3923  136.4379  161.7511 C   0  0  0  0  0  0  0  0  0  0  0  0
  126.4860  136.8883  162.6593 O   0  0  0  0  0  0  0  0  0  0  0  0
  128.7093  136.2275  162.1326 C   0  0  0  0  0  0  0  0  0  0  0  0
  129.6340  135.7706  161.2122 C   0  0  0  0  0  0  0  0  0  0  0  0
  129.2470  135.5208  159.9045 C   0  0  0  0  0  0  0  0  0  0  0  0
  130.1858  135.0576  158.9704 N   0  0  0  0  0  0  0  0  0  0  0  0
  129.9911  133.8416  158.3381 C   0  0  0  0  0  0  0  0  0  0  0  0
  129.3389  132.7692  158.8659 N   0  0  0  0  0  0  0  0  0  0  0  0
  128.9309  132.7206  159.7447 H   0  0  0  0  0  0  0  0  0  0  0  0
  129.3608  131.7710  157.9238 C   0  0  0  0  0  0  0  0  0  0  0  0
  130.0337  132.2585  156.8488 C   0  0  0  0  0  0  0  0  0  0  0  0
  130.3073  131.5327  155.5914 C   0  0  0  0  0  0  0  0  0  0  0  0
  129.8379  132.0228  154.4644 C   0  0  0  0  0  0  0  0  0  0  0  0
  130.0673  131.3622  153.1382 C   0  0  0  0  0  0  0  0  0  0  0  0
  131.2247  130.4117  153.1990 C   0  0  0  0  0  0  0  0  0  0  0  0
  131.6837  129.9260  154.3112 C   0  0  0  0  0  0  0  0  0  0  0  0
  131.1044  130.2644  155.6515 C   0  0  0  0  0  0  0  0  0  0  0  0
  130.4048  133.5331  157.1332 N   0  0  0  0  0  0  0  0  0  0  0  0
  130.8975  134.1213  156.5398 H   0  0  0  0  0  0  0  0  0  0  0  0
  128.1794  135.1703  157.5496 H   0  0  0  0  0  0  0  0  0  0  0  0
  126.6117  135.6408  157.9287 H   0  0  0  0  0  0  0  0  0  0  0  0
  125.9733  136.3542  160.1487 H   0  0  0  0  0  0  0  0  0  0  0  0
  125.5953  137.0049  162.3015 H   0  0  0  0  0  0  0  0  0  0  0  0
  129.0129  136.4215  163.1507 H   0  0  0  0  0  0  0  0  0  0  0  0
  130.6588  135.6085  161.5118 H   0  0  0  0  0  0  0  0  0  0  0  0
  130.9712  135.5895  158.7676 H   0  0  0  0  0  0  0  0  0  0  0  0
  128.9282  130.7861  158.0196 H   0  0  0  0  0  0  0  0  0  0  0  0
  129.2683  132.9399  154.4953 H   0  0  0  0  0  0  0  0  0  0  0  0
  129.1698  130.8142  152.8520 H   0  0  0  0  0  0  0  0  0  0  0  0
  130.2732  132.1268  152.3891 H   0  0  0  0  0  0  0  0  0  0  0  0
  131.6988  130.1177  152.2741 H   0  0  0  0  0  0  0  0  0  0  0  0
  132.5219  129.2463  154.2692 H   0  0  0  0  0  0  0  0  0  0  0  0
  130.4599  129.4485  155.9784 H   0  0  0  0  0  0  0  0  0  0  0  0
  131.9146  130.3881  156.3699 H   0  0  0  0  0  0  0  0  0  0  0  0
  1  2  1  0
  1 23  1  0
  1 24  1  0
  2  8  2  0
  2  3  1  0
  3  4  2  0
  3 25  1  0
  4  5  1  0
  4  6  1  0
  5 26  1  0
  6  7  2  0
  6 27  1  0
  7  8  1  0
  7 28  1  0
  8  9  1  0
  9 29  1  0
 10  9  1  0
 10 21  2  0
 10 11  1  0
 11 12  1  0
 11 13  1  0
 13 14  2  0
 13 30  1  0
 14 15  1  0
 14 21  1  0
 15 20  1  0
 15 16  2  0
 16 17  1  0
 16 31  1  0
 17 18  1  0
 17 32  1  0
 17 33  1  0
 18 19  2  0
 18 34  1  0
 19 20  1  0
 19 35  1  0
 20 36  1  0
 20 37  1  0
 21 22  1  0
M  CHG  1  21   1
M  END
>  <DOCK_score>  (1) 
-50.607212

>  <SMILES>  (1) 
Nc1cc(O)ccc1Nc1[nH]cc(C2=CCC=CC2)[nH+]1

$$$$
