CCc1n[nH]cc1C[NH2+]Cc1ccccc1[C@@H](O)c1c[nH]nc1-c1ccc(Nc2cncc(C)n2)o1
     RDKit          3D

 65 69  0  0  1  0  0  0  0  0999 V2000
  130.7897  138.0275  165.4458 C   0  0  0  0  0  0  0  0  0  0  0  0
  130.0569  139.3046  165.0301 C   0  0  0  0  0  0  0  0  0  0  0  0
  130.9877  140.1805  164.2317 C   0  0  0  0  0  0  0  0  0  0  0  0
  131.7807  141.1008  164.7177 N   0  0  0  0  0  0  0  0  0  0  0  0
  132.4763  141.6863  163.6521 N   0  0  0  0  0  0  0  0  0  0  0  0
  133.1321  142.3977  163.7209 H   0  0  0  0  0  0  0  0  0  0  0  0
  132.0771  141.0822  162.5134 C   0  0  0  0  0  0  0  0  0  0  0  0
  131.1526  140.1507  162.8430 C   0  0  0  0  0  0  0  0  0  0  0  0
  130.4327  139.2377  161.8841 C   0  0  0  0  0  0  0  0  0  0  0  0
  131.2056  138.0003  161.7124 N   0  0  0  0  0  0  0  0  0  0  0  0
  131.3056  137.5396  162.6046 H   0  0  0  0  0  0  0  0  0  0  0  0
  132.1185  138.2224  161.3443 H   0  0  0  0  0  0  0  0  0  0  0  0
  130.5039  137.1105  160.7776 C   0  0  0  0  0  0  0  0  0  0  0  0
  131.2968  135.8412  160.6015 C   0  0  0  0  0  0  0  0  0  0  0  0
  132.4897  135.6714  161.2797 C   0  0  0  0  0  0  0  0  0  0  0  0
  133.2169  134.5072  161.1181 C   0  0  0  0  0  0  0  0  0  0  0  0
  132.7513  133.5121  160.2786 C   0  0  0  0  0  0  0  0  0  0  0  0
  131.5560  133.6794  159.6051 C   0  0  0  0  0  0  0  0  0  0  0  0
  130.8314  134.8464  159.7623 C   0  0  0  0  0  0  0  0  0  0  0  0
  129.5311  135.0312  159.0235 C   0  0  1  0  0  0  0  0  0  0  0  0
  128.7222  135.1704  159.7407 H   0  0  0  0  0  0  0  0  0  0  0  0
  129.6221  136.1805  158.1791 O   0  0  0  0  0  0  0  0  0  0  0  0
  129.2530  133.8114  158.1833 C   0  0  0  0  0  0  0  0  0  0  0  0
  129.6447  133.6198  156.9054 C   0  0  0  0  0  0  0  0  0  0  0  0
  129.2017  132.4068  156.5094 N   0  0  0  0  0  0  0  0  0  0  0  0
  129.3391  132.0084  155.6357 H   0  0  0  0  0  0  0  0  0  0  0  0
  128.5100  131.8235  157.5786 N   0  0  0  0  0  0  0  0  0  0  0  0
  128.5421  132.6640  158.5940 C   0  0  0  0  0  0  0  0  0  0  0  0
  127.9380  132.4448  159.9244 C   0  0  0  0  0  0  0  0  0  0  0  0
  127.2489  131.3398  160.3136 C   0  0  0  0  0  0  0  0  0  0  0  0
  126.8581  131.5521  161.6502 C   0  0  0  0  0  0  0  0  0  0  0  0
  127.3195  132.7765  162.0075 C   0  0  0  0  0  0  0  0  0  0  0  0
  127.1467  133.3793  163.2490 N   0  0  0  0  0  0  0  0  0  0  0  0
  127.0776  134.7648  163.3457 C   0  0  0  0  0  0  0  0  0  0  0  0
  127.1864  135.5514  162.2006 C   0  0  0  0  0  0  0  0  0  0  0  0
  127.1153  136.8651  162.2964 N   0  0  0  0  0  0  0  0  0  0  0  0
  126.9517  137.4360  163.4784 C   0  0  0  0  0  0  0  0  0  0  0  0
  126.8482  136.6597  164.6167 C   0  0  0  0  0  0  0  0  0  0  0  0
  126.6614  137.3159  165.9605 C   0  0  0  0  0  0  0  0  0  0  0  0
  126.9131  135.3418  164.5292 N   0  0  0  0  0  0  0  0  0  0  0  0
  127.9709  133.3097  160.9596 O   0  0  0  0  0  0  0  0  0  0  0  0
  130.1166  137.3938  166.0233 H   0  0  0  0  0  0  0  0  0  0  0  0
  131.1191  137.4914  164.5558 H   0  0  0  0  0  0  0  0  0  0  0  0
  131.6558  138.2873  166.0546 H   0  0  0  0  0  0  0  0  0  0  0  0
  129.7277  139.8406  165.9202 H   0  0  0  0  0  0  0  0  0  0  0  0
  129.1910  139.0447  164.4212 H   0  0  0  0  0  0  0  0  0  0  0  0
  132.4300  141.3042  161.5172 H   0  0  0  0  0  0  0  0  0  0  0  0
  130.3246  139.7353  160.9204 H   0  0  0  0  0  0  0  0  0  0  0  0
  129.4466  138.9978  162.2819 H   0  0  0  0  0  0  0  0  0  0  0  0
  130.3961  137.6082  159.8139 H   0  0  0  0  0  0  0  0  0  0  0  0
  129.5178  136.8707  161.1752 H   0  0  0  0  0  0  0  0  0  0  0  0
  132.8534  136.4486  161.9355 H   0  0  0  0  0  0  0  0  0  0  0  0
  134.1490  134.3748  161.6473 H   0  0  0  0  0  0  0  0  0  0  0  0
  133.3197  132.6026  160.1521 H   0  0  0  0  0  0  0  0  0  0  0  0
  131.1902  132.9003  158.9527 H   0  0  0  0  0  0  0  0  0  0  0  0
  130.3226  136.1259  157.5147 H   0  0  0  0  0  0  0  0  0  0  0  0
  130.2129  134.3148  156.3050 H   0  0  0  0  0  0  0  0  0  0  0  0
  127.0423  130.4657  159.7138 H   0  0  0  0  0  0  0  0  0  0  0  0
  126.2948  130.8712  162.2710 H   0  0  0  0  0  0  0  0  0  0  0  0
  127.0747  132.8332  164.0475 H   0  0  0  0  0  0  0  0  0  0  0  0
  127.3247  135.0860  161.2359 H   0  0  0  0  0  0  0  0  0  0  0  0
  126.8986  138.5121  163.5540 H   0  0  0  0  0  0  0  0  0  0  0  0
  127.6361  137.5163  166.4055 H   0  0  0  0  0  0  0  0  0  0  0  0
  126.1197  138.2534  165.8348 H   0  0  0  0  0  0  0  0  0  0  0  0
  126.0935  136.6527  166.6130 H   0  0  0  0  0  0  0  0  0  0  0  0
  1  2  1  0
  1 42  1  0
  1 43  1  0
  1 44  1  0
  2  3  1  0
  2 45  1  0
  2 46  1  0
  3  8  1  0
  3  4  2  0
  4  5  1  0
  5  6  1  0
  5  7  1  0
  7  8  2  0
  7 47  1  0
  8  9  1  0
  9 10  1  0
  9 48  1  0
  9 49  1  0
 10 11  1  0
 10 12  1  0
 10 13  1  0
 13 14  1  0
 13 50  1  0
 13 51  1  0
 14 19  1  0
 14 15  2  0
 15 16  1  0
 15 52  1  0
 16 17  2  0
 16 53  1  0
 17 18  1  0
 17 54  1  0
 18 19  2  0
 18 55  1  0
 19 20  1  0
 20 21  1  1
 20 22  1  0
 20 23  1  0
 22 56  1  0
 23 28  1  0
 23 24  2  0
 24 25  1  0
 24 57  1  0
 25 26  1  0
 25 27  1  0
 27 28  2  0
 28 29  1  0
 29 41  1  0
 29 30  2  0
 30 31  1  0
 30 58  1  0
 31 32  2  0
 31 59  1  0
 32 33  1  0
 32 41  1  0
 33 34  1  0
 33 60  1  0
 34 40  1  0
 34 35  2  0
 35 36  1  0
 35 61  1  0
 36 37  2  0
 37 38  1  0
 37 62  1  0
 38 39  1  0
 38 40  2  0
 39 63  1  0
 39 64  1  0
 39 65  1  0
M  CHG  1  10   1
M  END
>  <DOCK_score>  (1) 
-43.692181

>  <SMILES>  (1) 
CCc1n[nH]cc1C[NH2+]Cc1ccccc1[C@@H](O)c1c[nH]nc1-c1ccc(Nc2cncc(C)n2)o1

$$$$
