CCc1ccccc1S[C@@H]1C[C@@H](Nc2[nH]c(C)c(-c3ccccc3)[nH+]2)[C@H]1O
     RDKit          3D

 53 56  0  0  1  0  0  0  0  0999 V2000
  134.1405  138.7904  164.6685 C   0  0  0  0  0  0  0  0  0  0  0  0
  135.4249  138.2875  164.0065 C   0  0  0  0  0  0  0  0  0  0  0  0
  135.4308  138.6867  162.5534 C   0  0  0  0  0  0  0  0  0  0  0  0
  135.9814  139.8940  162.1703 C   0  0  0  0  0  0  0  0  0  0  0  0
  135.9877  140.2610  160.8372 C   0  0  0  0  0  0  0  0  0  0  0  0
  135.4434  139.4208  159.8825 C   0  0  0  0  0  0  0  0  0  0  0  0
  134.8961  138.2101  160.2574 C   0  0  0  0  0  0  0  0  0  0  0  0
  134.8828  137.8405  161.5972 C   0  0  0  0  0  0  0  0  0  0  0  0
  134.1793  136.2992  162.0812 S   0  0  0  0  0  0  0  0  0  0  0  0
  132.8871  136.0317  160.8364 C   0  0  2  0  0  0  0  0  0  0  0  0
  133.2797  135.9837  159.8208 H   0  0  0  0  0  0  0  0  0  0  0  0
  131.6821  136.9751  160.9870 C   0  0  0  0  0  0  0  0  0  0  0  0
  130.7919  135.7663  160.6452 C   0  0  1  0  0  0  0  0  0  0  0  0
  129.8795  135.7131  161.2391 H   0  0  0  0  0  0  0  0  0  0  0  0
  130.5485  135.6040  159.2098 N   0  0  0  0  0  0  0  0  0  0  0  0
  130.3410  134.3414  158.6814 C   0  0  0  0  0  0  0  0  0  0  0  0
  129.7740  133.2915  159.3359 N   0  0  0  0  0  0  0  0  0  0  0  0
  129.4457  133.2931  160.2486 H   0  0  0  0  0  0  0  0  0  0  0  0
  129.7529  132.2289  158.4655 C   0  0  0  0  0  0  0  0  0  0  0  0
  129.2166  130.8488  158.7464 C   0  0  0  0  0  0  0  0  0  0  0  0
  130.3071  132.6596  157.3052 C   0  0  0  0  0  0  0  0  0  0  0  0
  130.4956  131.8521  156.0753 C   0  0  0  0  0  0  0  0  0  0  0  0
  129.8872  132.2409  154.8832 C   0  0  0  0  0  0  0  0  0  0  0  0
  130.0703  131.4888  153.7406 C   0  0  0  0  0  0  0  0  0  0  0  0
  130.8474  130.3452  153.7796 C   0  0  0  0  0  0  0  0  0  0  0  0
  131.4490  129.9512  154.9614 C   0  0  0  0  0  0  0  0  0  0  0  0
  131.2771  130.6985  156.1088 C   0  0  0  0  0  0  0  0  0  0  0  0
  130.6531  133.9615  157.4663 N   0  0  0  0  0  0  0  0  0  0  0  0
  131.0671  134.5212  156.7910 H   0  0  0  0  0  0  0  0  0  0  0  0
  131.9284  134.8798  161.1815 C   0  0  1  0  0  0  0  0  0  0  0  0
  131.8566  134.6767  162.2499 H   0  0  0  0  0  0  0  0  0  0  0  0
  132.1486  133.7000  160.4058 O   0  0  0  0  0  0  0  0  0  0  0  0
  134.1363  138.5016  165.7195 H   0  0  0  0  0  0  0  0  0  0  0  0
  134.0925  139.8765  164.5900 H   0  0  0  0  0  0  0  0  0  0  0  0
  133.2776  138.3515  164.1676 H   0  0  0  0  0  0  0  0  0  0  0  0
  135.4728  137.2013  164.0851 H   0  0  0  0  0  0  0  0  0  0  0  0
  136.2877  138.7264  164.5074 H   0  0  0  0  0  0  0  0  0  0  0  0
  136.4079  140.5521  162.9130 H   0  0  0  0  0  0  0  0  0  0  0  0
  136.4189  141.2056  160.5405 H   0  0  0  0  0  0  0  0  0  0  0  0
  135.4507  139.7104  158.8420 H   0  0  0  0  0  0  0  0  0  0  0  0
  134.4749  137.5528  159.5110 H   0  0  0  0  0  0  0  0  0  0  0  0
  131.5417  137.3457  162.0024 H   0  0  0  0  0  0  0  0  0  0  0  0
  131.6510  137.7667  160.2384 H   0  0  0  0  0  0  0  0  0  0  0  0
  130.5328  136.3812  158.6295 H   0  0  0  0  0  0  0  0  0  0  0  0
  128.1604  130.8084  158.4802 H   0  0  0  0  0  0  0  0  0  0  0  0
  129.7683  130.1175  158.1558 H   0  0  0  0  0  0  0  0  0  0  0  0
  129.3333  130.6224  159.8062 H   0  0  0  0  0  0  0  0  0  0  0  0
  129.2766  133.1314  154.8526 H   0  0  0  0  0  0  0  0  0  0  0  0
  129.6027  131.7914  152.8154 H   0  0  0  0  0  0  0  0  0  0  0  0
  130.9836  129.7564  152.8844 H   0  0  0  0  0  0  0  0  0  0  0  0
  132.0543  129.0571  154.9862 H   0  0  0  0  0  0  0  0  0  0  0  0
  131.7476  130.3903  157.0308 H   0  0  0  0  0  0  0  0  0  0  0  0
  132.3614  133.8731  159.4785 H   0  0  0  0  0  0  0  0  0  0  0  0
  1  2  1  0
  1 33  1  0
  1 34  1  0
  1 35  1  0
  2  3  1  0
  2 36  1  0
  2 37  1  0
  3  8  2  0
  3  4  1  0
  4  5  2  0
  4 38  1  0
  5  6  1  0
  5 39  1  0
  6  7  2  0
  6 40  1  0
  7  8  1  0
  7 41  1  0
  8  9  1  0
  9 10  1  0
 10 11  1  6
 10 30  1  0
 10 12  1  0
 12 13  1  0
 12 42  1  0
 12 43  1  0
 13 14  1  1
 13 15  1  0
 13 30  1  0
 15 44  1  0
 16 15  1  0
 16 28  2  0
 16 17  1  0
 17 18  1  0
 17 19  1  0
 19 20  1  0
 19 21  2  0
 20 45  1  0
 20 46  1  0
 20 47  1  0
 21 22  1  0
 21 28  1  0
 22 27  1  0
 22 23  2  0
 23 24  1  0
 23 48  1  0
 24 25  2  0
 24 49  1  0
 25 26  1  0
 25 50  1  0
 26 27  2  0
 26 51  1  0
 27 52  1  0
 28 29  1  0
 30 31  1  1
 30 32  1  0
 32 53  1  0
M  CHG  1  28   1
M  END
>  <DOCK_score>  (1) 
-58.497341

>  <SMILES>  (1) 
CCc1ccccc1S[C@@H]1C[C@@H](Nc2[nH]c(C)c(-c3ccccc3)[nH+]2)[C@H]1O

$$$$
