CCc1ccc(C2=CC[N@H+](Cc3ccc(-c4ccccc4)[nH]3)CC2)cc1
     RDKit          3D

 53 56  0  0  1  0  0  0  0  0999 V2000
  138.4171  139.7459  160.7849 C   0  0  0  0  0  0  0  0  0  0  0  0
  137.1627  140.4223  161.3433 C   0  0  0  0  0  0  0  0  0  0  0  0
  135.9694  139.5300  161.1181 C   0  0  0  0  0  0  0  0  0  0  0  0
  135.6147  138.5997  162.0786 C   0  0  0  0  0  0  0  0  0  0  0  0
  134.5227  137.7802  161.8797 C   0  0  0  0  0  0  0  0  0  0  0  0
  133.7755  137.8913  160.7063 C   0  0  0  0  0  0  0  0  0  0  0  0
  132.6047  137.0161  160.4865 C   0  0  0  0  0  0  0  0  0  0  0  0
  131.4223  137.5685  160.3201 C   0  0  0  0  0  0  0  0  0  0  0  0
  130.1715  136.7687  160.0962 C   0  0  0  0  0  0  0  0  0  0  0  0
  130.5056  135.4059  159.6664 N   0  0  2  0  0  0  0  0  0  0  0  0
  130.9236  135.4341  158.7485 H   0  0  0  0  0  0  0  0  0  0  0  0
  129.2846  134.5900  159.6256 C   0  0  0  0  0  0  0  0  0  0  0  0
  129.5131  133.3874  158.7466 C   0  0  0  0  0  0  0  0  0  0  0  0
  129.1509  132.1187  159.0351 C   0  0  0  0  0  0  0  0  0  0  0  0
  129.5449  131.3073  157.9588 C   0  0  0  0  0  0  0  0  0  0  0  0
  130.1413  132.1154  157.0382 C   0  0  0  0  0  0  0  0  0  0  0  0
  130.7102  131.6866  155.7424 C   0  0  0  0  0  0  0  0  0  0  0  0
  130.7137  132.5612  154.6549 C   0  0  0  0  0  0  0  0  0  0  0  0
  131.2508  132.1569  153.4501 C   0  0  0  0  0  0  0  0  0  0  0  0
  131.7759  130.8840  153.3158 C   0  0  0  0  0  0  0  0  0  0  0  0
  131.7703  130.0100  154.3884 C   0  0  0  0  0  0  0  0  0  0  0  0
  131.2409  130.4037  155.6001 C   0  0  0  0  0  0  0  0  0  0  0  0
  130.1151  133.3976  157.5236 N   0  0  0  0  0  0  0  0  0  0  0  0
  130.4683  134.1806  157.0731 H   0  0  0  0  0  0  0  0  0  0  0  0
  131.4585  134.8219  160.6237 C   0  0  0  0  0  0  0  0  0  0  0  0
  132.8078  135.5262  160.4607 C   0  0  0  0  0  0  0  0  0  0  0  0
  134.1417  138.8280  159.7392 C   0  0  0  0  0  0  0  0  0  0  0  0
  135.2328  139.6451  159.9527 C   0  0  0  0  0  0  0  0  0  0  0  0
  138.5736  138.7947  161.2938 H   0  0  0  0  0  0  0  0  0  0  0  0
  138.2906  139.5698  159.7166 H   0  0  0  0  0  0  0  0  0  0  0  0
  139.2805  140.3911  160.9471 H   0  0  0  0  0  0  0  0  0  0  0  0
  137.0065  141.3733  160.8335 H   0  0  0  0  0  0  0  0  0  0  0  0
  137.2894  140.5981  162.4106 H   0  0  0  0  0  0  0  0  0  0  0  0
  136.1936  138.5150  162.9864 H   0  0  0  0  0  0  0  0  0  0  0  0
  134.2465  137.0547  162.6304 H   0  0  0  0  0  0  0  0  0  0  0  0
  131.3482  138.6456  160.3457 H   0  0  0  0  0  0  0  0  0  0  0  0
  129.5678  137.2513  159.3277 H   0  0  0  0  0  0  0  0  0  0  0  0
  129.6009  136.7245  161.0239 H   0  0  0  0  0  0  0  0  0  0  0  0
  129.0338  134.2607  160.6339 H   0  0  0  0  0  0  0  0  0  0  0  0
  128.4642  135.1839  159.2228 H   0  0  0  0  0  0  0  0  0  0  0  0
  128.6491  131.7877  159.9324 H   0  0  0  0  0  0  0  0  0  0  0  0
  129.4019  130.2399  157.8762 H   0  0  0  0  0  0  0  0  0  0  0  0
  130.3001  133.5537  154.7572 H   0  0  0  0  0  0  0  0  0  0  0  0
  131.2580  132.8342  152.6089 H   0  0  0  0  0  0  0  0  0  0  0  0
  132.1914  130.5709  152.3694 H   0  0  0  0  0  0  0  0  0  0  0  0
  132.1816  129.0176  154.2771 H   0  0  0  0  0  0  0  0  0  0  0  0
  131.2369  129.7205  156.4366 H   0  0  0  0  0  0  0  0  0  0  0  0
  131.0910  134.9658  161.6397 H   0  0  0  0  0  0  0  0  0  0  0  0
  131.5722  133.7566  160.4230 H   0  0  0  0  0  0  0  0  0  0  0  0
  133.4698  135.2359  161.2766 H   0  0  0  0  0  0  0  0  0  0  0  0
  133.2558  135.2372  159.5099 H   0  0  0  0  0  0  0  0  0  0  0  0
  133.5699  138.9160  158.8272 H   0  0  0  0  0  0  0  0  0  0  0  0
  135.5147  140.3733  159.2068 H   0  0  0  0  0  0  0  0  0  0  0  0
  1  2  1  0
  1 29  1  0
  1 30  1  0
  1 31  1  0
  2  3  1  0
  2 32  1  0
  2 33  1  0
  3 28  2  0
  3  4  1  0
  4  5  2  0
  4 34  1  0
  5  6  1  0
  5 35  1  0
  6  7  1  0
  6 27  2  0
  7 26  1  0
  7  8  2  0
  8  9  1  0
  8 36  1  0
  9 10  1  0
  9 37  1  0
  9 38  1  0
 10 11  1  6
 10 12  1  0
 10 25  1  0
 12 13  1  0
 12 39  1  0
 12 40  1  0
 13 23  1  0
 13 14  2  0
 14 15  1  0
 14 41  1  0
 15 16  2  0
 15 42  1  0
 16 17  1  0
 16 23  1  0
 17 22  1  0
 17 18  2  0
 18 19  1  0
 18 43  1  0
 19 20  2  0
 19 44  1  0
 20 21  1  0
 20 45  1  0
 21 22  2  0
 21 46  1  0
 22 47  1  0
 23 24  1  0
 25 26  1  0
 25 48  1  0
 25 49  1  0
 26 50  1  0
 26 51  1  0
 27 28  1  0
 27 52  1  0
 28 53  1  0
M  CHG  1  10   1
M  END
>  <DOCK_score>  (1) 
-56.168285

>  <SMILES>  (1) 
CCc1ccc(C2=CC[N@H+](Cc3ccc(-c4ccccc4)[nH]3)CC2)cc1

$$$$
