Nc1ccc(-c2c[nH]c(N[C@H](c3ccccc3)C3CCC3)[nH+]2)cc1
     RDKit          3D

 47 50  0  0  1  0  0  0  0  0999 V2000
  131.5563  129.8736  151.8521 N   0  0  0  0  0  0  0  0  0  0  0  0
  131.2810  130.4807  153.0798 C   0  0  0  0  0  0  0  0  0  0  0  0
  130.8611  131.8049  153.1204 C   0  0  0  0  0  0  0  0  0  0  0  0
  130.5892  132.4064  154.3309 C   0  0  0  0  0  0  0  0  0  0  0  0
  130.7354  131.6850  155.5148 C   0  0  0  0  0  0  0  0  0  0  0  0
  130.4439  132.3300  156.8187 C   0  0  0  0  0  0  0  0  0  0  0  0
  129.9829  131.7073  157.9315 C   0  0  0  0  0  0  0  0  0  0  0  0
  129.8533  132.6714  158.9029 N   0  0  0  0  0  0  0  0  0  0  0  0
  129.5437  132.5334  159.8118 H   0  0  0  0  0  0  0  0  0  0  0  0
  130.2395  133.8550  158.3538 C   0  0  0  0  0  0  0  0  0  0  0  0
  130.2574  135.0775  159.0034 N   0  0  0  0  0  0  0  0  0  0  0  0
  129.8358  135.1694  160.4034 C   0  0  2  0  0  0  0  0  0  0  0  0
  130.2097  134.3055  160.9529 H   0  0  0  0  0  0  0  0  0  0  0  0
  128.3305  135.1963  160.4738 C   0  0  0  0  0  0  0  0  0  0  0  0
  127.6809  134.6753  161.5772 C   0  0  0  0  0  0  0  0  0  0  0  0
  126.3002  134.7004  161.6420 C   0  0  0  0  0  0  0  0  0  0  0  0
  125.5694  135.2465  160.6035 C   0  0  0  0  0  0  0  0  0  0  0  0
  126.2191  135.7679  159.5003 C   0  0  0  0  0  0  0  0  0  0  0  0
  127.5998  135.7436  159.4359 C   0  0  0  0  0  0  0  0  0  0  0  0
  130.3983  136.4504  161.0225 C   0  0  0  0  0  0  0  0  0  0  0  0
  129.9778  137.7297  160.2798 C   0  0  0  0  0  0  0  0  0  0  0  0
  131.4104  138.2395  160.5090 C   0  0  0  0  0  0  0  0  0  0  0  0
  131.8389  136.7646  160.5859 C   0  0  0  0  0  0  0  0  0  0  0  0
  130.5863  133.6479  157.1068 N   0  0  0  0  0  0  0  0  0  0  0  0
  130.8971  134.3282  156.4891 H   0  0  0  0  0  0  0  0  0  0  0  0
  131.1612  130.3584  155.4721 C   0  0  0  0  0  0  0  0  0  0  0  0
  131.4269  129.7593  154.2588 C   0  0  0  0  0  0  0  0  0  0  0  0
  131.4544  130.3763  151.0288 H   0  0  0  0  0  0  0  0  0  0  0  0
  131.8493  128.9494  151.8230 H   0  0  0  0  0  0  0  0  0  0  0  0
  130.7481  132.3635  152.2029 H   0  0  0  0  0  0  0  0  0  0  0  0
  130.2630  133.4355  154.3620 H   0  0  0  0  0  0  0  0  0  0  0  0
  129.7596  130.6557  158.0346 H   0  0  0  0  0  0  0  0  0  0  0  0
  130.5493  135.8731  158.5315 H   0  0  0  0  0  0  0  0  0  0  0  0
  128.2521  134.2528  162.3905 H   0  0  0  0  0  0  0  0  0  0  0  0
  125.7928  134.2930  162.5038 H   0  0  0  0  0  0  0  0  0  0  0  0
  124.4907  135.2654  160.6537 H   0  0  0  0  0  0  0  0  0  0  0  0
  125.6481  136.1939  158.6886 H   0  0  0  0  0  0  0  0  0  0  0  0
  128.1074  136.1507  158.5738 H   0  0  0  0  0  0  0  0  0  0  0  0
  130.2480  136.5006  162.1009 H   0  0  0  0  0  0  0  0  0  0  0  0
  129.7356  137.5654  159.2298 H   0  0  0  0  0  0  0  0  0  0  0  0
  129.2187  138.3098  160.8047 H   0  0  0  0  0  0  0  0  0  0  0  0
  131.5367  138.7802  161.4469 H   0  0  0  0  0  0  0  0  0  0  0  0
  131.8268  138.7712  159.6534 H   0  0  0  0  0  0  0  0  0  0  0  0
  132.5823  136.5655  161.3577 H   0  0  0  0  0  0  0  0  0  0  0  0
  132.1055  136.3364  159.6195 H   0  0  0  0  0  0  0  0  0  0  0  0
  131.2791  129.7987  156.3883 H   0  0  0  0  0  0  0  0  0  0  0  0
  131.7529  128.7303  154.2249 H   0  0  0  0  0  0  0  0  0  0  0  0
  1  2  1  0
  1 28  1  0
  1 29  1  0
  2 27  2  0
  2  3  1  0
  3  4  2  0
  3 30  1  0
  4  5  1  0
  4 31  1  0
  5  6  1  0
  5 26  2  0
  6 24  1  0
  6  7  2  0
  7  8  1  0
  7 32  1  0
  8  9  1  0
  8 10  1  0
 10 11  1  0
 10 24  2  0
 11 12  1  0
 11 33  1  0
 12 13  1  1
 12 14  1  0
 12 20  1  0
 14 19  1  0
 14 15  2  0
 15 16  1  0
 15 34  1  0
 16 17  2  0
 16 35  1  0
 17 18  1  0
 17 36  1  0
 18 19  2  0
 18 37  1  0
 19 38  1  0
 20 23  1  0
 20 21  1  0
 20 39  1  0
 21 22  1  0
 21 40  1  0
 21 41  1  0
 22 23  1  0
 22 42  1  0
 22 43  1  0
 23 44  1  0
 23 45  1  0
 24 25  1  0
 26 27  1  0
 26 46  1  0
 27 47  1  0
M  CHG  1  24   1
M  END
>  <DOCK_score>  (1) 
-55.954178

>  <SMILES>  (1) 
Nc1ccc(-c2c[nH]c(N[C@H](c3ccccc3)C3CCC3)[nH+]2)cc1

$$$$
