Oc1ccc2c(c1)C([NH+]1CCC[C@@H]1CC1=CC3C=CC1CCC3)c1cc(O)ccc1-2
     RDKit          3D

 60 65  0  0  1  0  0  0  0  0999 V2000
  131.2614  132.6801  156.0991 O   0  0  0  0  0  0  0  0  0  0  0  0
  130.1500  132.7251  156.8796 C   0  0  0  0  0  0  0  0  0  0  0  0
  129.3328  131.6083  156.9892 C   0  0  0  0  0  0  0  0  0  0  0  0
  128.2042  131.6499  157.7793 C   0  0  0  0  0  0  0  0  0  0  0  0
  127.8791  132.8176  158.4730 C   0  0  0  0  0  0  0  0  0  0  0  0
  128.7037  133.9341  158.3583 C   0  0  0  0  0  0  0  0  0  0  0  0
  129.8309  133.8886  157.5674 C   0  0  0  0  0  0  0  0  0  0  0  0
  128.1074  135.0291  159.2084 C   0  0  0  0  0  0  0  0  0  0  0  0
  129.0546  135.4266  160.2586 N   0  0  1  0  0  0  0  0  0  0  0  0
  128.5606  135.8965  161.0023 H   0  0  0  0  0  0  0  0  0  0  0  0
  129.7314  134.2299  160.7912 C   0  0  0  0  0  0  0  0  0  0  0  0
  131.2459  134.4201  160.5612 C   0  0  0  0  0  0  0  0  0  0  0  0
  131.3877  135.9591  160.4260 C   0  0  0  0  0  0  0  0  0  0  0  0
  130.0763  136.3316  159.6904 C   0  0  2  0  0  0  0  0  0  0  0  0
  130.1806  136.1611  158.6190 H   0  0  0  0  0  0  0  0  0  0  0  0
  129.7074  137.7908  159.9655 C   0  0  0  0  0  0  0  0  0  0  0  0
  129.6245  138.0162  161.4532 C   0  0  0  0  0  0  0  0  0  0  0  0
  128.4879  137.8504  162.1450 C   0  0  0  0  0  0  0  0  0  0  0  0
  128.5993  138.1238  163.6370 C   0  0  1  0  0  0  0  0  0  0  0  0
  129.8296  137.5642  164.2592 C   0  0  0  0  0  0  0  0  0  0  0  0
  130.9448  137.7207  163.5794 C   0  0  0  0  0  0  0  0  0  0  0  0
  130.8251  138.4424  162.2838 C   0  0  2  0  0  0  0  0  0  0  0  0
  130.7107  139.9785  162.4816 C   0  0  0  0  0  0  0  0  0  0  0  0
  129.2183  140.3159  162.6359 C   0  0  0  0  0  0  0  0  0  0  0  0
  128.5018  139.6564  163.8262 C   0  0  0  0  0  0  0  0  0  0  0  0
  126.8610  134.4448  159.8269 C   0  0  0  0  0  0  0  0  0  0  0  0
  125.9201  134.9726  160.6840 C   0  0  0  0  0  0  0  0  0  0  0  0
  124.8491  134.1944  161.1037 C   0  0  0  0  0  0  0  0  0  0  0  0
  123.9212  134.7145  161.9493 O   0  0  0  0  0  0  0  0  0  0  0  0
  124.7271  132.8849  160.6591 C   0  0  0  0  0  0  0  0  0  0  0  0
  125.6667  132.3531  159.8023 C   0  0  0  0  0  0  0  0  0  0  0  0
  126.7450  133.1319  159.3770 C   0  0  0  0  0  0  0  0  0  0  0  0
  131.7661  133.5048  156.0854 H   0  0  0  0  0  0  0  0  0  0  0  0
  129.5823  130.7041  156.4539 H   0  0  0  0  0  0  0  0  0  0  0  0
  127.5711  130.7789  157.8623 H   0  0  0  0  0  0  0  0  0  0  0  0
  130.4664  134.7577  157.4823 H   0  0  0  0  0  0  0  0  0  0  0  0
  127.8524  135.8887  158.5887 H   0  0  0  0  0  0  0  0  0  0  0  0
  129.5282  134.1327  161.8576 H   0  0  0  0  0  0  0  0  0  0  0  0
  129.3823  133.3414  160.2649 H   0  0  0  0  0  0  0  0  0  0  0  0
  131.5619  133.9220  159.6446 H   0  0  0  0  0  0  0  0  0  0  0  0
  131.8151  134.0542  161.4158 H   0  0  0  0  0  0  0  0  0  0  0  0
  132.2595  136.2197  159.8260 H   0  0  0  0  0  0  0  0  0  0  0  0
  131.4344  136.4344  161.4057 H   0  0  0  0  0  0  0  0  0  0  0  0
  130.4694  138.4444  159.5410 H   0  0  0  0  0  0  0  0  0  0  0  0
  128.7426  138.0138  159.5099 H   0  0  0  0  0  0  0  0  0  0  0  0
  127.5630  137.5460  161.6780 H   0  0  0  0  0  0  0  0  0  0  0  0
  127.7418  137.6664  164.1306 H   0  0  0  0  0  0  0  0  0  0  0  0
  129.8085  137.0552  165.2116 H   0  0  0  0  0  0  0  0  0  0  0  0
  131.8918  137.3483  163.9416 H   0  0  0  0  0  0  0  0  0  0  0  0
  131.7267  138.2378  161.7066 H   0  0  0  0  0  0  0  0  0  0  0  0
  131.1192  140.4957  161.6135 H   0  0  0  0  0  0  0  0  0  0  0  0
  131.2522  140.2762  163.3795 H   0  0  0  0  0  0  0  0  0  0  0  0
  128.7052  140.0174  161.7218 H   0  0  0  0  0  0  0  0  0  0  0  0
  129.1251  141.3970  162.7388 H   0  0  0  0  0  0  0  0  0  0  0  0
  127.4555  139.9615  163.8437 H   0  0  0  0  0  0  0  0  0  0  0  0
  128.9872  139.9459  164.7582 H   0  0  0  0  0  0  0  0  0  0  0  0
  126.0155  135.9912  161.0298 H   0  0  0  0  0  0  0  0  0  0  0  0
  124.0910  135.6319  162.2034 H   0  0  0  0  0  0  0  0  0  0  0  0
  123.8935  132.2810  160.9861 H   0  0  0  0  0  0  0  0  0  0  0  0
  125.5681  131.3340  159.4586 H   0  0  0  0  0  0  0  0  0  0  0  0
  1  2  1  0
  1 33  1  0
  2  7  1  0
  2  3  2  0
  3  4  1  0
  3 34  1  0
  4  5  2  0
  4 35  1  0
  5 32  1  0
  5  6  1  0
  6  7  2  0
  6  8  1  0
  7 36  1  0
  8  9  1  0
  8 26  1  0
  8 37  1  0
  9 10  1  1
  9 14  1  0
  9 11  1  0
 11 12  1  0
 11 38  1  0
 11 39  1  0
 12 13  1  0
 12 40  1  0
 12 41  1  0
 13 14  1  0
 13 42  1  0
 13 43  1  0
 14 15  1  6
 14 16  1  0
 16 17  1  0
 16 44  1  0
 16 45  1  0
 17 22  1  0
 17 18  2  0
 18 19  1  0
 18 46  1  0
 19 25  1  0
 19 20  1  0
 19 47  1  1
 20 21  2  0
 20 48  1  0
 21 22  1  0
 21 49  1  0
 22 23  1  0
 22 50  1  6
 23 24  1  0
 23 51  1  0
 23 52  1  0
 24 25  1  0
 24 53  1  0
 24 54  1  0
 25 55  1  0
 25 56  1  0
 26 32  2  0
 26 27  1  0
 27 28  2  0
 27 57  1  0
 28 29  1  0
 28 30  1  0
 29 58  1  0
 30 31  2  0
 30 59  1  0
 31 32  1  0
 31 60  1  0
M  CHG  1   9   1
M  END
>  <DOCK_score>  (1) 
-43.107304

>  <SMILES>  (1) 
Oc1ccc2c(c1)C([NH+]1CCC[C@@H]1CC1=CC3C=CC1CCC3)c1cc(O)ccc1-2

$$$$
