Nc1nc(NCc2cccc3c[nH+]cn23)nc(Nc2ccccc2)n1
     RDKit          3D

 42 45  0  0  0  0  0  0  0  0999 V2000
  126.0480  136.1596  161.0240 N   0  0  0  0  0  0  0  0  0  0  0  0
  127.3968  136.1641  160.7317 C   0  0  0  0  0  0  0  0  0  0  0  0
  128.0164  135.0259  160.4349 N   0  0  0  0  0  0  0  0  0  0  0  0
  129.3155  135.0303  160.1529 C   0  0  0  0  0  0  0  0  0  0  0  0
  129.9589  133.8487  159.8452 N   0  0  0  0  0  0  0  0  0  0  0  0
  129.2101  132.5896  159.8294 C   0  0  0  0  0  0  0  0  0  0  0  0
  129.8292  131.6496  158.8273 C   0  0  0  0  0  0  0  0  0  0  0  0
  130.0300  130.3595  159.1575 C   0  0  0  0  0  0  0  0  0  0  0  0
  130.6070  129.4647  158.2359 C   0  0  0  0  0  0  0  0  0  0  0  0
  130.9649  129.9053  157.0013 C   0  0  0  0  0  0  0  0  0  0  0  0
  130.7501  131.2573  156.6652 C   0  0  0  0  0  0  0  0  0  0  0  0
  130.9849  132.0067  155.5305 C   0  0  0  0  0  0  0  0  0  0  0  0
  130.5801  133.2525  155.7827 N   0  0  0  0  0  0  0  0  0  0  0  0
  130.6304  133.9923  155.1573 H   0  0  0  0  0  0  0  0  0  0  0  0
  130.0997  133.3268  156.9981 C   0  0  0  0  0  0  0  0  0  0  0  0
  130.1828  132.1146  157.5874 N   0  0  0  0  0  0  0  0  0  0  0  0
  129.9961  136.1722  160.1726 N   0  0  0  0  0  0  0  0  0  0  0  0
  129.3754  137.3108  160.4644 C   0  0  0  0  0  0  0  0  0  0  0  0
  130.0818  138.4981  160.4803 N   0  0  0  0  0  0  0  0  0  0  0  0
  131.4496  138.5018  160.1895 C   0  0  0  0  0  0  0  0  0  0  0  0
  131.9302  139.2359  159.1127 C   0  0  0  0  0  0  0  0  0  0  0  0
  133.2825  139.2424  158.8321 C   0  0  0  0  0  0  0  0  0  0  0  0
  134.1562  138.5097  159.6145 C   0  0  0  0  0  0  0  0  0  0  0  0
  133.6800  137.7729  160.6836 C   0  0  0  0  0  0  0  0  0  0  0  0
  132.3298  137.7669  160.9733 C   0  0  0  0  0  0  0  0  0  0  0  0
  128.0763  137.3065  160.7465 N   0  0  0  0  0  0  0  0  0  0  0  0
  125.5522  135.3259  161.0131 H   0  0  0  0  0  0  0  0  0  0  0  0
  125.5958  136.9900  161.2408 H   0  0  0  0  0  0  0  0  0  0  0  0
  130.9068  133.8519  159.6395 H   0  0  0  0  0  0  0  0  0  0  0  0
  128.1745  132.7861  159.5516 H   0  0  0  0  0  0  0  0  0  0  0  0
  129.2408  132.1362  160.8201 H   0  0  0  0  0  0  0  0  0  0  0  0
  129.7461  130.0079  160.1384 H   0  0  0  0  0  0  0  0  0  0  0  0
  130.7651  128.4321  158.5096 H   0  0  0  0  0  0  0  0  0  0  0  0
  131.4083  129.2280  156.2864 H   0  0  0  0  0  0  0  0  0  0  0  0
  131.4195  131.6505  154.6082 H   0  0  0  0  0  0  0  0  0  0  0  0
  129.6993  134.2183  157.4578 H   0  0  0  0  0  0  0  0  0  0  0  0
  129.6290  139.3289  160.6931 H   0  0  0  0  0  0  0  0  0  0  0  0
  131.2479  139.8047  158.4987 H   0  0  0  0  0  0  0  0  0  0  0  0
  133.6576  139.8171  157.9981 H   0  0  0  0  0  0  0  0  0  0  0  0
  135.2125  138.5126  159.3900 H   0  0  0  0  0  0  0  0  0  0  0  0
  134.3650  137.2018  161.2926 H   0  0  0  0  0  0  0  0  0  0  0  0
  131.9586  137.1912  161.8083 H   0  0  0  0  0  0  0  0  0  0  0  0
  1  2  1  0
  1 27  1  0
  1 28  1  0
  2 26  2  0
  2  3  1  0
  3  4  2  0
  4  5  1  0
  4 17  1  0
  5  6  1  0
  5 29  1  0
  6  7  1  0
  6 30  1  0
  6 31  1  0
  7 16  1  0
  7  8  2  0
  8  9  1  0
  8 32  1  0
  9 10  2  0
  9 33  1  0
 10 11  1  0
 10 34  1  0
 11 16  1  0
 11 12  2  0
 12 13  1  0
 12 35  1  0
 13 14  1  0
 13 15  2  0
 15 16  1  0
 15 36  1  0
 17 18  2  0
 18 19  1  0
 18 26  1  0
 19 20  1  0
 19 37  1  0
 20 25  1  0
 20 21  2  0
 21 22  1  0
 21 38  1  0
 22 23  2  0
 22 39  1  0
 23 24  1  0
 23 40  1  0
 24 25  2  0
 24 41  1  0
 25 42  1  0
M  CHG  1  13   1
M  END
>  <DOCK_score>  (1) 
-42.570744

>  <SMILES>  (1) 
Nc1nc(NCc2cccc3c[nH+]cn23)nc(Nc2ccccc2)n1

$$$$
