CCN(c1c[nH]c(C[NH+]=C(NC2CCCCC2)NC2CCCCC2)n1)C1CCCCC1
     RDKit          3D

 76 79  0  0  0  0  0  0  0  0999 V2000
  127.3498  140.9479  166.9439 C   0  0  0  0  0  0  0  0  0  0  0  0
  127.1546  141.4900  165.5266 C   0  0  0  0  0  0  0  0  0  0  0  0
  128.0252  140.7611  164.6008 N   0  0  0  0  0  0  0  0  0  0  0  0
  127.5592  139.5975  163.9673 C   0  0  0  0  0  0  0  0  0  0  0  0
  126.3356  139.0435  164.1214 C   0  0  0  0  0  0  0  0  0  0  0  0
  126.3055  137.9253  163.3225 N   0  0  0  0  0  0  0  0  0  0  0  0
  125.5604  137.3132  163.2172 H   0  0  0  0  0  0  0  0  0  0  0  0
  127.5060  137.8380  162.7128 C   0  0  0  0  0  0  0  0  0  0  0  0
  127.9201  136.7620  161.7423 C   0  0  0  0  0  0  0  0  0  0  0  0
  129.2936  137.0087  161.2965 N   0  0  0  0  0  0  0  0  0  0  0  0
  129.7820  137.7765  161.6323 H   0  0  0  0  0  0  0  0  0  0  0  0
  129.8593  136.1963  160.4485 C   0  0  0  0  0  0  0  0  0  0  0  0
  131.1483  136.4277  160.0302 N   0  0  0  0  0  0  0  0  0  0  0  0
  132.0983  137.0985  160.9211 C   0  0  0  0  0  0  0  0  0  0  0  0
  132.2669  136.2754  162.1998 C   0  0  0  0  0  0  0  0  0  0  0  0
  133.2590  136.9760  163.1302 C   0  0  0  0  0  0  0  0  0  0  0  0
  134.6114  137.1085  162.4270 C   0  0  0  0  0  0  0  0  0  0  0  0
  134.4428  137.9316  161.1483 C   0  0  0  0  0  0  0  0  0  0  0  0
  133.4507  137.2310  160.2178 C   0  0  0  0  0  0  0  0  0  0  0  0
  129.1671  135.1080  159.9727 N   0  0  0  0  0  0  0  0  0  0  0  0
  129.8029  134.1949  159.0197 C   0  0  0  0  0  0  0  0  0  0  0  0
  128.8240  133.0776  158.6532 C   0  0  0  0  0  0  0  0  0  0  0  0
  129.4880  132.1240  157.6579 C   0  0  0  0  0  0  0  0  0  0  0  0
  130.7410  131.5166  158.2917 C   0  0  0  0  0  0  0  0  0  0  0  0
  131.7199  132.6339  158.6583 C   0  0  0  0  0  0  0  0  0  0  0  0
  131.0559  133.5875  159.6536 C   0  0  0  0  0  0  0  0  0  0  0  0
  128.2524  138.8351  163.1053 N   0  0  0  0  0  0  0  0  0  0  0  0
  129.3819  141.2460  164.3359 C   0  0  0  0  0  0  0  0  0  0  0  0
  129.5321  141.5519  162.8443 C   0  0  0  0  0  0  0  0  0  0  0  0
  130.9492  142.0584  162.5677 C   0  0  0  0  0  0  0  0  0  0  0  0
  131.9623  140.9859  162.9729 C   0  0  0  0  0  0  0  0  0  0  0  0
  131.8120  140.6800  164.4644 C   0  0  0  0  0  0  0  0  0  0  0  0
  130.3951  140.1735  164.7410 C   0  0  0  0  0  0  0  0  0  0  0  0
  126.7019  141.4902  167.6328 H   0  0  0  0  0  0  0  0  0  0  0  0
  127.0968  139.8878  166.9656 H   0  0  0  0  0  0  0  0  0  0  0  0
  128.3895  141.0795  167.2433 H   0  0  0  0  0  0  0  0  0  0  0  0
  127.4075  142.5499  165.5049 H   0  0  0  0  0  0  0  0  0  0  0  0
  126.1148  141.3583  165.2272 H   0  0  0  0  0  0  0  0  0  0  0  0
  125.5372  139.4083  164.7505 H   0  0  0  0  0  0  0  0  0  0  0  0
  127.2513  136.7721  160.8816 H   0  0  0  0  0  0  0  0  0  0  0  0
  127.8662  135.7900  162.2328 H   0  0  0  0  0  0  0  0  0  0  0  0
  131.4288  136.1468  159.1451 H   0  0  0  0  0  0  0  0  0  0  0  0
  131.7216  138.0896  161.1739 H   0  0  0  0  0  0  0  0  0  0  0  0
  131.3033  136.1810  162.7007 H   0  0  0  0  0  0  0  0  0  0  0  0
  132.6435  135.2843  161.9469 H   0  0  0  0  0  0  0  0  0  0  0  0
  133.3791  136.3896  164.0411 H   0  0  0  0  0  0  0  0  0  0  0  0
  132.8824  137.9671  163.3831 H   0  0  0  0  0  0  0  0  0  0  0  0
  134.9881  136.1174  162.1741 H   0  0  0  0  0  0  0  0  0  0  0  0
  135.3182  137.6077  163.0899 H   0  0  0  0  0  0  0  0  0  0  0  0
  135.4063  138.0259  160.6474 H   0  0  0  0  0  0  0  0  0  0  0  0
  134.0662  138.9227  161.4011 H   0  0  0  0  0  0  0  0  0  0  0  0
  133.8274  136.2399  159.9650 H   0  0  0  0  0  0  0  0  0  0  0  0
  133.3306  137.8174  159.3069 H   0  0  0  0  0  0  0  0  0  0  0  0
  128.2576  134.9448  160.2680 H   0  0  0  0  0  0  0  0  0  0  0  0
  130.0806  134.7442  158.1201 H   0  0  0  0  0  0  0  0  0  0  0  0
  128.5463  132.5282  159.5527 H   0  0  0  0  0  0  0  0  0  0  0  0
  127.9313  133.5103  158.2015 H   0  0  0  0  0  0  0  0  0  0  0  0
  129.7656  132.6733  156.7583 H   0  0  0  0  0  0  0  0  0  0  0  0
  128.7905  131.3281  157.3967 H   0  0  0  0  0  0  0  0  0  0  0  0
  131.2141  130.8372  157.5826 H   0  0  0  0  0  0  0  0  0  0  0  0
  130.4633  130.9672  159.1913 H   0  0  0  0  0  0  0  0  0  0  0  0
  131.9976  133.1832  157.7587 H   0  0  0  0  0  0  0  0  0  0  0  0
  132.6126  132.2011  159.1099 H   0  0  0  0  0  0  0  0  0  0  0  0
  131.7533  134.3834  159.9147 H   0  0  0  0  0  0  0  0  0  0  0  0
  130.7782  133.0381  160.5532 H   0  0  0  0  0  0  0  0  0  0  0  0
  129.5627  142.1531  164.9128 H   0  0  0  0  0  0  0  0  0  0  0  0
  129.3513  140.6449  162.2675 H   0  0  0  0  0  0  0  0  0  0  0  0
  128.8105  142.3159  162.5557 H   0  0  0  0  0  0  0  0  0  0  0  0
  131.1299  142.9655  163.1446 H   0  0  0  0  0  0  0  0  0  0  0  0
  131.0561  142.2763  161.5050 H   0  0  0  0  0  0  0  0  0  0  0  0
  132.9717  141.3467  162.7758 H   0  0  0  0  0  0  0  0  0  0  0  0
  131.7815  140.0790  162.3960 H   0  0  0  0  0  0  0  0  0  0  0  0
  131.9928  141.5870  165.0412 H   0  0  0  0  0  0  0  0  0  0  0  0
  132.5339  139.9159  164.7531 H   0  0  0  0  0  0  0  0  0  0  0  0
  130.2881  139.9557  165.8036 H   0  0  0  0  0  0  0  0  0  0  0  0
  130.2144  139.2666  164.1642 H   0  0  0  0  0  0  0  0  0  0  0  0
  1  2  1  0
  1 34  1  0
  1 35  1  0
  1 36  1  0
  2  3  1  0
  2 37  1  0
  2 38  1  0
  3  4  1  0
  3 28  1  0
  4 27  1  0
  4  5  2  0
  5  6  1  0
  5 39  1  0
  6  7  1  0
  6  8  1  0
  8  9  1  0
  8 27  2  0
  9 10  1  0
  9 40  1  0
  9 41  1  0
 10 11  1  0
 10 12  2  0
 12 13  1  0
 12 20  1  0
 13 14  1  0
 13 42  1  0
 14 19  1  0
 14 15  1  0
 14 43  1  0
 15 16  1  0
 15 44  1  0
 15 45  1  0
 16 17  1  0
 16 46  1  0
 16 47  1  0
 17 18  1  0
 17 48  1  0
 17 49  1  0
 18 19  1  0
 18 50  1  0
 18 51  1  0
 19 52  1  0
 19 53  1  0
 20 21  1  0
 20 54  1  0
 21 26  1  0
 21 22  1  0
 21 55  1  0
 22 23  1  0
 22 56  1  0
 22 57  1  0
 23 24  1  0
 23 58  1  0
 23 59  1  0
 24 25  1  0
 24 60  1  0
 24 61  1  0
 25 26  1  0
 25 62  1  0
 25 63  1  0
 26 64  1  0
 26 65  1  0
 28 33  1  0
 28 29  1  0
 28 66  1  0
 29 30  1  0
 29 67  1  0
 29 68  1  0
 30 31  1  0
 30 69  1  0
 30 70  1  0
 31 32  1  0
 31 71  1  0
 31 72  1  0
 32 33  1  0
 32 73  1  0
 32 74  1  0
 33 75  1  0
 33 76  1  0
M  CHG  1  10   1
M  END
>  <DOCK_score>  (1) 
-42.435989

>  <SMILES>  (1) 
CCN(c1c[nH]c(C[NH+]=C(NC2CCCCC2)NC2CCCCC2)n1)C1CCCCC1

$$$$
