CC1=CC[C@@H](CC[NH+]2CCN(c3ccc4cc[nH]c4c3CC(F)(F)F)CC2)CC1
     RDKit          3D

 60 63  0  0  1  0  0  0  0  0999 V2000
  130.1776  128.4275  151.2339 C   0  0  0  0  0  0  0  0  0  0  0  0
  130.3875  129.5387  152.2301 C   0  0  0  0  0  0  0  0  0  0  0  0
  129.6975  130.6240  152.0832 C   0  0  0  0  0  0  0  0  0  0  0  0
  129.7899  131.8095  152.9985 C   0  0  0  0  0  0  0  0  0  0  0  0
  131.0700  131.7324  153.8334 C   0  0  1  0  0  0  0  0  0  0  0  0
  131.9355  131.9064  153.1938 H   0  0  0  0  0  0  0  0  0  0  0  0
  131.0272  132.7887  154.9394 C   0  0  0  0  0  0  0  0  0  0  0  0
  130.1649  132.2808  156.0966 C   0  0  0  0  0  0  0  0  0  0  0  0
  130.1238  133.2951  157.1586 N   0  0  0  0  0  0  0  0  0  0  0  0
  131.0373  133.7111  157.2615 H   0  0  0  0  0  0  0  0  0  0  0  0
  129.7285  132.6628  158.4241 C   0  0  0  0  0  0  0  0  0  0  0  0
  129.7043  133.7154  159.5346 C   0  0  0  0  0  0  0  0  0  0  0  0
  128.7514  134.7763  159.1788 N   0  0  0  0  0  0  0  0  0  0  0  0
  128.6614  135.7307  160.1964 C   0  0  0  0  0  0  0  0  0  0  0  0
  129.7979  136.4411  160.5813 C   0  0  0  0  0  0  0  0  0  0  0  0
  129.7264  137.3766  161.5728 C   0  0  0  0  0  0  0  0  0  0  0  0
  128.5075  137.6252  162.2080 C   0  0  0  0  0  0  0  0  0  0  0  0
  128.0861  138.5324  163.2793 C   0  0  0  0  0  0  0  0  0  0  0  0
  126.7744  138.3275  163.4738 C   0  0  0  0  0  0  0  0  0  0  0  0
  126.3202  137.3625  162.6141 N   0  0  0  0  0  0  0  0  0  0  0  0
  125.4053  137.0435  162.5672 H   0  0  0  0  0  0  0  0  0  0  0  0
  127.3563  136.9128  161.8263 C   0  0  0  0  0  0  0  0  0  0  0  0
  127.4439  135.9672  160.8103 C   0  0  0  0  0  0  0  0  0  0  0  0
  126.2195  135.1995  160.3833 C   0  0  0  0  0  0  0  0  0  0  0  0
  126.1013  133.9227  161.2181 C   0  0  0  0  0  0  0  0  0  0  0  0
  125.9926  134.2590  162.5717 F   0  0  0  0  0  0  0  0  0  0  0  0
  124.9645  133.2100  160.8218 F   0  0  0  0  0  0  0  0  0  0  0  0
  127.2388  133.1317  161.0240 F   0  0  0  0  0  0  0  0  0  0  0  0
  129.1199  135.4020  157.9010 C   0  0  0  0  0  0  0  0  0  0  0  0
  129.1494  134.3354  156.8041 C   0  0  0  0  0  0  0  0  0  0  0  0
  131.1570  130.3327  154.4538 C   0  0  0  0  0  0  0  0  0  0  0  0
  131.3833  129.3180  153.3309 C   0  0  0  0  0  0  0  0  0  0  0  0
  129.3844  127.7682  151.5869 H   0  0  0  0  0  0  0  0  0  0  0  0
  129.8954  128.8518  150.2704 H   0  0  0  0  0  0  0  0  0  0  0  0
  131.1008  127.8587  151.1242 H   0  0  0  0  0  0  0  0  0  0  0  0
  129.0130  130.6799  151.2496 H   0  0  0  0  0  0  0  0  0  0  0  0
  129.7997  132.7241  152.4056 H   0  0  0  0  0  0  0  0  0  0  0  0
  128.9256  131.8212  153.6628 H   0  0  0  0  0  0  0  0  0  0  0  0
  132.0386  132.9814  155.2971 H   0  0  0  0  0  0  0  0  0  0  0  0
  130.5996  133.7105  154.5450 H   0  0  0  0  0  0  0  0  0  0  0  0
  129.1535  132.0882  155.7388 H   0  0  0  0  0  0  0  0  0  0  0  0
  130.5925  131.3589  156.4909 H   0  0  0  0  0  0  0  0  0  0  0  0
  128.7364  132.2244  158.3170 H   0  0  0  0  0  0  0  0  0  0  0  0
  130.4451  131.8820  158.6794 H   0  0  0  0  0  0  0  0  0  0  0  0
  130.6995  134.1444  159.6511 H   0  0  0  0  0  0  0  0  0  0  0  0
  129.3971  133.2496  160.4709 H   0  0  0  0  0  0  0  0  0  0  0  0
  130.7412  136.2501  160.0912 H   0  0  0  0  0  0  0  0  0  0  0  0
  130.6106  137.9233  161.8659 H   0  0  0  0  0  0  0  0  0  0  0  0
  128.7126  139.2332  163.8112 H   0  0  0  0  0  0  0  0  0  0  0  0
  126.1670  138.8461  164.2007 H   0  0  0  0  0  0  0  0  0  0  0  0
  125.3332  135.8157  160.5346 H   0  0  0  0  0  0  0  0  0  0  0  0
  126.3043  134.9374  159.3287 H   0  0  0  0  0  0  0  0  0  0  0  0
  130.1055  135.8588  157.9906 H   0  0  0  0  0  0  0  0  0  0  0  0
  128.3865  136.1666  157.6452 H   0  0  0  0  0  0  0  0  0  0  0  0
  129.4364  134.7948  155.8582 H   0  0  0  0  0  0  0  0  0  0  0  0
  128.1603  133.8882  156.7054 H   0  0  0  0  0  0  0  0  0  0  0  0
  130.2272  130.1024  154.9738 H   0  0  0  0  0  0  0  0  0  0  0  0
  131.9912  130.2961  155.1543 H   0  0  0  0  0  0  0  0  0  0  0  0
  131.2666  128.3091  153.7267 H   0  0  0  0  0  0  0  0  0  0  0  0
  132.3919  129.4364  152.9348 H   0  0  0  0  0  0  0  0  0  0  0  0
  1  2  1  0
  1 33  1  0
  1 34  1  0
  1 35  1  0
  2 32  1  0
  2  3  2  0
  3  4  1  0
  3 36  1  0
  4  5  1  0
  4 37  1  0
  4 38  1  0
  5  6  1  6
  5  7  1  0
  5 31  1  0
  7  8  1  0
  7 39  1  0
  7 40  1  0
  8  9  1  0
  8 41  1  0
  8 42  1  0
  9 10  1  0
  9 30  1  0
  9 11  1  0
 11 12  1  0
 11 43  1  0
 11 44  1  0
 12 13  1  0
 12 45  1  0
 12 46  1  0
 13 14  1  0
 13 29  1  0
 14 23  1  0
 14 15  2  0
 15 16  1  0
 15 47  1  0
 16 17  2  0
 16 48  1  0
 17 22  1  0
 17 18  1  0
 18 19  2  0
 18 49  1  0
 19 20  1  0
 19 50  1  0
 20 21  1  0
 20 22  1  0
 22 23  2  0
 23 24  1  0
 24 25  1  0
 24 51  1  0
 24 52  1  0
 25 26  1  0
 25 27  1  0
 25 28  1  0
 29 30  1  0
 29 53  1  0
 29 54  1  0
 30 55  1  0
 30 56  1  0
 31 32  1  0
 31 57  1  0
 31 58  1  0
 32 59  1  0
 32 60  1  0
M  CHG  1   9   1
M  END
>  <DOCK_score>  (1) 
-41.196522

>  <SMILES>  (1) 
CC1=CC[C@@H](CC[NH+]2CCN(c3ccc4cc[nH]c4c3CC(F)(F)F)CC2)CC1

$$$$
