CCc1ccc(-c2c[nH]c(N[C@H](C)Cc3ccc(C4=CCCC4)cc3)[nH+]2)cc1
     RDKit          3D

 58 61  0  0  1  0  0  0  0  0999 V2000
  130.2154  128.6411  151.5343 C   0  0  0  0  0  0  0  0  0  0  0  0
  131.3206  129.6540  151.8396 C   0  0  0  0  0  0  0  0  0  0  0  0
  131.0151  130.3551  153.1381 C   0  0  0  0  0  0  0  0  0  0  0  0
  131.4837  129.8327  154.3296 C   0  0  0  0  0  0  0  0  0  0  0  0
  131.2118  130.4734  155.5215 C   0  0  0  0  0  0  0  0  0  0  0  0
  130.4537  131.6429  155.5236 C   0  0  0  0  0  0  0  0  0  0  0  0
  130.1535  132.3331  156.8018 C   0  0  0  0  0  0  0  0  0  0  0  0
  129.4845  131.8044  157.8564 C   0  0  0  0  0  0  0  0  0  0  0  0
  129.4309  132.7786  158.8234 N   0  0  0  0  0  0  0  0  0  0  0  0
  129.0146  132.6996  159.6959 H   0  0  0  0  0  0  0  0  0  0  0  0
  130.0694  133.8750  158.3312 C   0  0  0  0  0  0  0  0  0  0  0  0
  130.2365  135.0773  158.9967 N   0  0  0  0  0  0  0  0  0  0  0  0
  129.7024  135.2456  160.3505 C   0  0  2  0  0  0  0  0  0  0  0  0
  128.7245  134.7688  160.4171 H   0  0  0  0  0  0  0  0  0  0  0  0
  129.5650  136.7371  160.6628 C   0  0  0  0  0  0  0  0  0  0  0  0
  130.6548  134.5992  161.3585 C   0  0  0  0  0  0  0  0  0  0  0  0
  130.1054  134.7723  162.7511 C   0  0  0  0  0  0  0  0  0  0  0  0
  128.7378  134.8404  162.9485 C   0  0  0  0  0  0  0  0  0  0  0  0
  128.2284  134.9940  164.2215 C   0  0  0  0  0  0  0  0  0  0  0  0
  129.0953  135.0910  165.3096 C   0  0  0  0  0  0  0  0  0  0  0  0
  128.5573  135.2622  166.6756 C   0  0  0  0  0  0  0  0  0  0  0  0
  127.3931  134.7910  167.0873 C   0  0  0  0  0  0  0  0  0  0  0  0
  127.1522  135.1448  168.5365 C   0  0  0  0  0  0  0  0  0  0  0  0
  128.1632  136.2739  168.8410 C   0  0  0  0  0  0  0  0  0  0  0  0
  129.2660  135.9937  167.7918 C   0  0  0  0  0  0  0  0  0  0  0  0
  130.4746  135.0272  165.1034 C   0  0  0  0  0  0  0  0  0  0  0  0
  130.9711  134.8682  163.8259 C   0  0  0  0  0  0  0  0  0  0  0  0
  130.5048  133.6030  157.1252 N   0  0  0  0  0  0  0  0  0  0  0  0
  130.9974  134.2131  156.5542 H   0  0  0  0  0  0  0  0  0  0  0  0
  129.9792  132.1619  154.3203 C   0  0  0  0  0  0  0  0  0  0  0  0
  130.2620  131.5159  153.1340 C   0  0  0  0  0  0  0  0  0  0  0  0
  130.1628  127.9080  152.3393 H   0  0  0  0  0  0  0  0  0  0  0  0
  129.2600  129.1591  151.4517 H   0  0  0  0  0  0  0  0  0  0  0  0
  130.4364  128.1341  150.5951 H   0  0  0  0  0  0  0  0  0  0  0  0
  132.2758  129.1366  151.9217 H   0  0  0  0  0  0  0  0  0  0  0  0
  131.3729  130.3877  151.0342 H   0  0  0  0  0  0  0  0  0  0  0  0
  132.0669  128.9238  154.3272 H   0  0  0  0  0  0  0  0  0  0  0  0
  131.5822  130.0671  156.4510 H   0  0  0  0  0  0  0  0  0  0  0  0
  129.0724  130.8083  157.9229 H   0  0  0  0  0  0  0  0  0  0  0  0
  130.7074  135.8083  158.5668 H   0  0  0  0  0  0  0  0  0  0  0  0
  130.5429  137.2139  160.5960 H   0  0  0  0  0  0  0  0  0  0  0  0
  128.8865  137.1976  159.9446 H   0  0  0  0  0  0  0  0  0  0  0  0
  129.1675  136.8623  161.6699 H   0  0  0  0  0  0  0  0  0  0  0  0
  130.7530  133.5368  161.1360 H   0  0  0  0  0  0  0  0  0  0  0  0
  131.6328  135.0762  161.2918 H   0  0  0  0  0  0  0  0  0  0  0  0
  128.0674  134.7691  162.1048 H   0  0  0  0  0  0  0  0  0  0  0  0
  127.1604  135.0429  164.3747 H   0  0  0  0  0  0  0  0  0  0  0  0
  126.7067  134.2293  166.4711 H   0  0  0  0  0  0  0  0  0  0  0  0
  126.1316  135.5018  168.6753 H   0  0  0  0  0  0  0  0  0  0  0  0
  127.3434  134.2821  169.1745 H   0  0  0  0  0  0  0  0  0  0  0  0
  127.7121  137.2543  168.6870 H   0  0  0  0  0  0  0  0  0  0  0  0
  128.5577  136.1825  169.8531 H   0  0  0  0  0  0  0  0  0  0  0  0
  130.0492  135.3672  168.2189 H   0  0  0  0  0  0  0  0  0  0  0  0
  129.6859  136.9303  167.4252 H   0  0  0  0  0  0  0  0  0  0  0  0
  131.1514  135.1024  165.9416 H   0  0  0  0  0  0  0  0  0  0  0  0
  132.0378  134.8188  163.6648 H   0  0  0  0  0  0  0  0  0  0  0  0
  129.3911  133.0679  154.3162 H   0  0  0  0  0  0  0  0  0  0  0  0
  129.8946  131.9170  152.2009 H   0  0  0  0  0  0  0  0  0  0  0  0
  1  2  1  0
  1 32  1  0
  1 33  1  0
  1 34  1  0
  2  3  1  0
  2 35  1  0
  2 36  1  0
  3 31  2  0
  3  4  1  0
  4  5  2  0
  4 37  1  0
  5  6  1  0
  5 38  1  0
  6  7  1  0
  6 30  2  0
  7 28  1  0
  7  8  2  0
  8  9  1  0
  8 39  1  0
  9 10  1  0
  9 11  1  0
 11 12  1  0
 11 28  2  0
 12 13  1  0
 12 40  1  0
 13 14  1  6
 13 15  1  0
 13 16  1  0
 15 41  1  0
 15 42  1  0
 15 43  1  0
 16 17  1  0
 16 44  1  0
 16 45  1  0
 17 27  1  0
 17 18  2  0
 18 19  1  0
 18 46  1  0
 19 20  2  0
 19 47  1  0
 20 21  1  0
 20 26  1  0
 21 25  1  0
 21 22  2  0
 22 23  1  0
 22 48  1  0
 23 24  1  0
 23 49  1  0
 23 50  1  0
 24 25  1  0
 24 51  1  0
 24 52  1  0
 25 53  1  0
 25 54  1  0
 26 27  2  0
 26 55  1  0
 27 56  1  0
 28 29  1  0
 30 31  1  0
 30 57  1  0
 31 58  1  0
M  CHG  1  28   1
M  END
>  <DOCK_score>  (1) 
-57.406662

>  <SMILES>  (1) 
CCc1ccc(-c2c[nH]c(N[C@H](C)Cc3ccc(C4=CCCC4)cc3)[nH+]2)cc1

$$$$
