CCc1ccc(-c2c[nH]c(N[C@@H](C=C3C=C(C)CC3)c3ccnn3C)[nH+]2)cc1
     RDKit          3D

 56 59  0  0  1  0  0  0  0  0999 V2000
  130.5522  128.4800  151.6159 C   0  0  0  0  0  0  0  0  0  0  0  0
  131.6433  129.4916  151.9721 C   0  0  0  0  0  0  0  0  0  0  0  0
  131.2609  130.2190  153.2353 C   0  0  0  0  0  0  0  0  0  0  0  0
  131.6487  129.7166  154.4639 C   0  0  0  0  0  0  0  0  0  0  0  0
  131.3055  130.3811  155.6237 C   0  0  0  0  0  0  0  0  0  0  0  0
  130.5576  131.5553  155.5558 C   0  0  0  0  0  0  0  0  0  0  0  0
  130.1813  132.2713  156.7991 C   0  0  0  0  0  0  0  0  0  0  0  0
  129.4422  131.7667  157.8180 C   0  0  0  0  0  0  0  0  0  0  0  0
  129.3347  132.7589  158.7620 N   0  0  0  0  0  0  0  0  0  0  0  0
  128.8630  132.6989  159.6075 H   0  0  0  0  0  0  0  0  0  0  0  0
  130.0120  133.8418  158.2919 C   0  0  0  0  0  0  0  0  0  0  0  0
  130.1454  135.0552  158.9448 N   0  0  0  0  0  0  0  0  0  0  0  0
  129.0901  135.5209  159.8479 C   0  0  1  0  0  0  0  0  0  0  0  0
  128.9586  134.8006  160.6553 H   0  0  0  0  0  0  0  0  0  0  0  0
  129.4772  136.8579  160.4257 C   0  0  0  0  0  0  0  0  0  0  0  0
  130.5890  136.9744  161.1440 C   0  0  0  0  0  0  0  0  0  0  0  0
  131.5335  135.8978  161.4650 C   0  0  0  0  0  0  0  0  0  0  0  0
  132.5465  136.3245  162.1943 C   0  0  0  0  0  0  0  0  0  0  0  0
  133.6795  135.4566  162.6782 C   0  0  0  0  0  0  0  0  0  0  0  0
  132.4118  137.7983  162.4828 C   0  0  0  0  0  0  0  0  0  0  0  0
  131.1121  138.2409  161.7880 C   0  0  0  0  0  0  0  0  0  0  0  0
  127.7990  135.6591  159.0829 C   0  0  0  0  0  0  0  0  0  0  0  0
  127.6784  135.9619  157.7697 C   0  0  0  0  0  0  0  0  0  0  0  0
  126.3152  135.9913  157.4581 C   0  0  0  0  0  0  0  0  0  0  0  0
  125.6415  135.7160  158.5454 N   0  0  0  0  0  0  0  0  0  0  0  0
  126.5563  135.4975  159.5836 N   0  0  0  0  0  0  0  0  0  0  0  0
  126.2228  135.1569  160.9688 C   0  0  0  0  0  0  0  0  0  0  0  0
  130.5207  133.5448  157.1210 N   0  0  0  0  0  0  0  0  0  0  0  0
  131.0532  134.1410  156.5716 H   0  0  0  0  0  0  0  0  0  0  0  0
  130.1651  132.0544  154.3151 C   0  0  0  0  0  0  0  0  0  0  0  0
  130.5184  131.3844  153.1616 C   0  0  0  0  0  0  0  0  0  0  0  0
  129.6080  129.0024  151.4628 H   0  0  0  0  0  0  0  0  0  0  0  0
  130.8289  127.9538  150.7023 H   0  0  0  0  0  0  0  0  0  0  0  0
  130.4429  127.7626  152.4293 H   0  0  0  0  0  0  0  0  0  0  0  0
  132.5875  128.9697  152.1250 H   0  0  0  0  0  0  0  0  0  0  0  0
  131.7525  130.2095  151.1584 H   0  0  0  0  0  0  0  0  0  0  0  0
  132.2245  128.8043  154.5156 H   0  0  0  0  0  0  0  0  0  0  0  0
  131.6127  129.9901  156.5825 H   0  0  0  0  0  0  0  0  0  0  0  0
  129.0188  130.7749  157.8761 H   0  0  0  0  0  0  0  0  0  0  0  0
  130.9375  135.5970  158.8043 H   0  0  0  0  0  0  0  0  0  0  0  0
  128.8511  137.7213  160.2559 H   0  0  0  0  0  0  0  0  0  0  0  0
  131.4143  134.8750  161.1393 H   0  0  0  0  0  0  0  0  0  0  0  0
  133.4230  135.0319  163.6487 H   0  0  0  0  0  0  0  0  0  0  0  0
  133.8515  134.6518  161.9635 H   0  0  0  0  0  0  0  0  0  0  0  0
  134.5835  136.0584  162.7724 H   0  0  0  0  0  0  0  0  0  0  0  0
  133.2625  138.3418  162.0715 H   0  0  0  0  0  0  0  0  0  0  0  0
  132.3412  137.9680  163.5572 H   0  0  0  0  0  0  0  0  0  0  0  0
  131.3219  138.9958  161.0305 H   0  0  0  0  0  0  0  0  0  0  0  0
  130.3972  138.6215  162.5175 H   0  0  0  0  0  0  0  0  0  0  0  0
  128.4911  136.1483  157.0833 H   0  0  0  0  0  0  0  0  0  0  0  0
  125.8917  136.2048  156.4878 H   0  0  0  0  0  0  0  0  0  0  0  0
  126.1058  136.0716  161.5499 H   0  0  0  0  0  0  0  0  0  0  0  0
  125.2912  134.5914  160.9897 H   0  0  0  0  0  0  0  0  0  0  0  0
  127.0233  134.5541  161.3976 H   0  0  0  0  0  0  0  0  0  0  0  0
  129.5852  132.9637  154.2565 H   0  0  0  0  0  0  0  0  0  0  0  0
  130.2145  131.7700  152.1996 H   0  0  0  0  0  0  0  0  0  0  0  0
  1  2  1  0
  1 32  1  0
  1 33  1  0
  1 34  1  0
  2  3  1  0
  2 35  1  0
  2 36  1  0
  3 31  2  0
  3  4  1  0
  4  5  2  0
  4 37  1  0
  5  6  1  0
  5 38  1  0
  6  7  1  0
  6 30  2  0
  7 28  1  0
  7  8  2  0
  8  9  1  0
  8 39  1  0
  9 10  1  0
  9 11  1  0
 11 12  1  0
 11 28  2  0
 12 13  1  0
 12 40  1  0
 13 14  1  1
 13 15  1  0
 13 22  1  0
 15 16  2  0
 15 41  1  0
 16 21  1  0
 16 17  1  0
 17 18  2  0
 17 42  1  0
 18 19  1  0
 18 20  1  0
 19 43  1  0
 19 44  1  0
 19 45  1  0
 20 21  1  0
 20 46  1  0
 20 47  1  0
 21 48  1  0
 21 49  1  0
 22 26  1  0
 22 23  2  0
 23 24  1  0
 23 50  1  0
 24 25  2  0
 24 51  1  0
 25 26  1  0
 26 27  1  0
 27 52  1  0
 27 53  1  0
 27 54  1  0
 28 29  1  0
 30 31  1  0
 30 55  1  0
 31 56  1  0
M  CHG  1  28   1
M  END
>  <DOCK_score>  (1) 
-58.745426

>  <SMILES>  (1) 
CCc1ccc(-c2c[nH]c(N[C@@H](C=C3C=C(C)CC3)c3ccnn3C)[nH+]2)cc1

$$$$
