Cc1cccc(CNC(NC2CC=CC2)=[NH+][C@H]2C[C@@H](O)C2)c1C#CCBr
     RDKit          3D

 53 55  0  0  1  0  0  0  0  0999 V2000
  130.0500  138.8867  164.1647 C   0  0  0  0  0  0  0  0  0  0  0  0
  130.1452  139.0083  162.6657 C   0  0  0  0  0  0  0  0  0  0  0  0
  130.3136  140.2473  162.0818 C   0  0  0  0  0  0  0  0  0  0  0  0
  130.4007  140.3605  160.7059 C   0  0  0  0  0  0  0  0  0  0  0  0
  130.3253  139.2337  159.9067 C   0  0  0  0  0  0  0  0  0  0  0  0
  130.1518  137.9898  160.4777 C   0  0  0  0  0  0  0  0  0  0  0  0
  130.0645  136.7641  159.6055 C   0  0  0  0  0  0  0  0  0  0  0  0
  128.9582  135.9185  160.0607 N   0  0  0  0  0  0  0  0  0  0  0  0
  128.6838  134.7375  159.4126 C   0  0  0  0  0  0  0  0  0  0  0  0
  129.4477  134.3501  158.3371 N   0  0  0  0  0  0  0  0  0  0  0  0
  129.1553  133.0915  157.6464 C   0  0  0  0  0  0  0  0  0  0  0  0
  129.7193  133.1045  156.2067 C   0  0  0  0  0  0  0  0  0  0  0  0
  131.0847  132.4667  156.3240 C   0  0  0  0  0  0  0  0  0  0  0  0
  131.2066  131.8202  157.4513 C   0  0  0  0  0  0  0  0  0  0  0  0
  129.9429  131.9181  158.2739 C   0  0  0  0  0  0  0  0  0  0  0  0
  127.6995  133.9852  159.8176 N   0  0  0  0  0  0  0  0  0  0  0  0
  127.5059  133.1520  159.3603 H   0  0  0  0  0  0  0  0  0  0  0  0
  126.8855  134.3981  160.9636 C   0  0  1  0  0  0  0  0  0  0  0  0
  127.4688  134.5138  161.8772 H   0  0  0  0  0  0  0  0  0  0  0  0
  125.9635  135.5923  160.6660 C   0  0  0  0  0  0  0  0  0  0  0  0
  124.8920  134.8725  161.5019 C   0  0  1  0  0  0  0  0  0  0  0  0
  124.9282  135.1183  162.5633 H   0  0  0  0  0  0  0  0  0  0  0  0
  123.5760  134.9719  160.9539 O   0  0  0  0  0  0  0  0  0  0  0  0
  125.6096  133.5595  161.1470 C   0  0  0  0  0  0  0  0  0  0  0  0
  130.0631  137.8687  161.8651 C   0  0  0  0  0  0  0  0  0  0  0  0
  129.8889  136.5799  162.4646 C   0  0  0  0  0  0  0  0  0  0  0  0
  129.7462  135.5233  162.9561 C   0  0  0  0  0  0  0  0  0  0  0  0
  129.5671  134.1985  163.5723 C   0  0  0  0  0  0  0  0  0  0  0  0
  131.0833  133.0425  163.0931 Br  0  0  0  0  0  0  0  0  0  0  0  0
  131.0470  138.7446  164.5818 H   0  0  0  0  0  0  0  0  0  0  0  0
  129.6102  139.7953  164.5757 H   0  0  0  0  0  0  0  0  0  0  0  0
  129.4238  138.0320  164.4208 H   0  0  0  0  0  0  0  0  0  0  0  0
  130.3777  141.1303  162.7003 H   0  0  0  0  0  0  0  0  0  0  0  0
  130.5329  141.3325  160.2539 H   0  0  0  0  0  0  0  0  0  0  0  0
  130.3981  139.3285  158.8334 H   0  0  0  0  0  0  0  0  0  0  0  0
  130.9984  136.2057  159.6689 H   0  0  0  0  0  0  0  0  0  0  0  0
  129.8905  137.0650  158.5723 H   0  0  0  0  0  0  0  0  0  0  0  0
  128.4193  136.1919  160.8194 H   0  0  0  0  0  0  0  0  0  0  0  0
  130.1802  134.9099  158.0356 H   0  0  0  0  0  0  0  0  0  0  0  0
  128.0845  132.8880  157.6454 H   0  0  0  0  0  0  0  0  0  0  0  0
  129.0824  132.5187  155.5440 H   0  0  0  0  0  0  0  0  0  0  0  0
  129.8077  134.1281  155.8427 H   0  0  0  0  0  0  0  0  0  0  0  0
  131.8582  132.5370  155.5734 H   0  0  0  0  0  0  0  0  0  0  0  0
  132.0942  131.2858  157.7563 H   0  0  0  0  0  0  0  0  0  0  0  0
  130.1831  132.1354  159.3147 H   0  0  0  0  0  0  0  0  0  0  0  0
  129.3696  130.9938  158.2007 H   0  0  0  0  0  0  0  0  0  0  0  0
  126.3055  136.5285  161.1072 H   0  0  0  0  0  0  0  0  0  0  0  0
  125.7023  135.6903  159.6123 H   0  0  0  0  0  0  0  0  0  0  0  0
  123.2535  135.8793  160.8674 H   0  0  0  0  0  0  0  0  0  0  0  0
  125.2516  133.1018  160.2249 H   0  0  0  0  0  0  0  0  0  0  0  0
  125.6659  132.8546  161.9765 H   0  0  0  0  0  0  0  0  0  0  0  0
  129.5200  134.3053  164.6561 H   0  0  0  0  0  0  0  0  0  0  0  0
  128.6410  133.7517  163.2106 H   0  0  0  0  0  0  0  0  0  0  0  0
  1  2  1  0
  1 30  1  0
  1 31  1  0
  1 32  1  0
  2 25  2  0
  2  3  1  0
  3  4  2  0
  3 33  1  0
  4  5  1  0
  4 34  1  0
  5  6  2  0
  5 35  1  0
  6  7  1  0
  6 25  1  0
  7  8  1  0
  7 36  1  0
  7 37  1  0
  8 38  1  0
  9  8  1  0
  9 10  1  0
  9 16  2  0
 10 11  1  0
 10 39  1  0
 11 15  1  0
 11 12  1  0
 11 40  1  0
 12 13  1  0
 12 41  1  0
 12 42  1  0
 13 14  2  0
 13 43  1  0
 14 15  1  0
 14 44  1  0
 15 45  1  0
 15 46  1  0
 16 17  1  0
 16 18  1  0
 18 19  1  1
 18 24  1  0
 18 20  1  0
 20 21  1  0
 20 47  1  0
 20 48  1  0
 21 22  1  1
 21 23  1  0
 21 24  1  0
 23 49  1  0
 24 50  1  0
 24 51  1  0
 25 26  1  0
 26 27  3  0
 27 28  1  0
 28 29  1  0
 28 52  1  0
 28 53  1  0
M  CHG  1  16   1
M  END
>  <DOCK_score>  (1) 
-42.33865

>  <SMILES>  (1) 
Cc1cccc(CNC(NC2CC=CC2)=[NH+][C@H]2C[C@@H](O)C2)c1C#CCBr

$$$$
