O=C1CC[C@H](NC(NC2CC2)=[NH+]C/C=C/c2ccc(Br)cc2)CN1
     RDKit          3D

 48 50  0  0  1  0  0  0  0  0999 V2000
  124.1501  133.9464  161.0574 O   0  0  0  0  0  0  0  0  0  0  0  0
  125.3248  134.1580  160.8424 C   0  0  0  0  0  0  0  0  0  0  0  0
  126.1620  133.0343  160.3024 C   0  0  0  0  0  0  0  0  0  0  0  0
  127.6465  133.3444  160.5103 C   0  0  0  0  0  0  0  0  0  0  0  0
  127.9187  134.7685  160.0110 C   0  0  2  0  0  0  0  0  0  0  0  0
  127.5447  134.8769  158.9928 H   0  0  0  0  0  0  0  0  0  0  0  0
  129.3597  135.0311  160.0357 N   0  0  0  0  0  0  0  0  0  0  0  0
  130.2134  134.2516  159.2915 C   0  0  0  0  0  0  0  0  0  0  0  0
  129.7786  133.6841  158.1173 N   0  0  0  0  0  0  0  0  0  0  0  0
  130.6881  132.8535  157.3243 C   0  0  0  0  0  0  0  0  0  0  0  0
  130.0632  131.8634  156.3392 C   0  0  0  0  0  0  0  0  0  0  0  0
  130.7180  131.3534  157.6245 C   0  0  0  0  0  0  0  0  0  0  0  0
  131.4350  134.0507  159.6994 N   0  0  0  0  0  0  0  0  0  0  0  0
  132.0372  133.5008  159.1744 H   0  0  0  0  0  0  0  0  0  0  0  0
  131.8982  134.6556  160.9507 C   0  0  0  0  0  0  0  0  0  0  0  0
  132.4849  136.0139  160.6650 C   0  0  0  0  0  0  0  0  0  0  0  0
  133.7511  136.2658  160.9669 C   0  0  0  0  0  0  0  0  0  0  0  0
  134.3265  137.5982  160.6866 C   0  0  0  0  0  0  0  0  0  0  0  0
  133.7185  138.4422  159.7566 C   0  0  0  0  0  0  0  0  0  0  0  0
  134.2573  139.6867  159.5032 C   0  0  0  0  0  0  0  0  0  0  0  0
  135.4047  140.0944  160.1617 C   0  0  0  0  0  0  0  0  0  0  0  0
  136.1409  141.7990  159.8032 Br  0  0  0  0  0  0  0  0  0  0  0  0
  136.0157  139.2591  161.0812 C   0  0  0  0  0  0  0  0  0  0  0  0
  135.4832  138.0145  161.3470 C   0  0  0  0  0  0  0  0  0  0  0  0
  127.2002  135.7575  160.9267 C   0  0  0  0  0  0  0  0  0  0  0  0
  125.8040  135.3758  161.0984 N   0  0  0  0  0  0  0  0  0  0  0  0
  125.9086  132.1111  160.8237 H   0  0  0  0  0  0  0  0  0  0  0  0
  125.9629  132.9137  159.2376 H   0  0  0  0  0  0  0  0  0  0  0  0
  127.8912  133.2740  161.5701 H   0  0  0  0  0  0  0  0  0  0  0  0
  128.2521  132.6356  159.9455 H   0  0  0  0  0  0  0  0  0  0  0  0
  129.7115  135.7550  160.5771 H   0  0  0  0  0  0  0  0  0  0  0  0
  128.8695  133.8337  157.8138 H   0  0  0  0  0  0  0  0  0  0  0  0
  131.6260  133.3275  157.0350 H   0  0  0  0  0  0  0  0  0  0  0  0
  128.9752  131.8302  156.2813 H   0  0  0  0  0  0  0  0  0  0  0  0
  130.5899  131.6862  155.4015 H   0  0  0  0  0  0  0  0  0  0  0  0
  131.6755  130.8407  157.5323 H   0  0  0  0  0  0  0  0  0  0  0  0
  130.0612  130.9847  158.4124 H   0  0  0  0  0  0  0  0  0  0  0  0
  131.0576  134.7598  161.6368 H   0  0  0  0  0  0  0  0  0  0  0  0
  132.6589  134.0188  161.4023 H   0  0  0  0  0  0  0  0  0  0  0  0
  131.8741  136.7822  160.2145 H   0  0  0  0  0  0  0  0  0  0  0  0
  134.3620  135.4976  161.4174 H   0  0  0  0  0  0  0  0  0  0  0  0
  132.8260  138.1235  159.2389 H   0  0  0  0  0  0  0  0  0  0  0  0
  133.7851  140.3427  158.7868 H   0  0  0  0  0  0  0  0  0  0  0  0
  136.9110  139.5824  161.5913 H   0  0  0  0  0  0  0  0  0  0  0  0
  135.9608  137.3635  162.0643 H   0  0  0  0  0  0  0  0  0  0  0  0
  127.2499  136.7556  160.4917 H   0  0  0  0  0  0  0  0  0  0  0  0
  127.6933  135.7665  161.8988 H   0  0  0  0  0  0  0  0  0  0  0  0
  125.1838  136.0511  161.4151 H   0  0  0  0  0  0  0  0  0  0  0  0
  1  2  2  0
  2 26  1  0
  2  3  1  0
  3  4  1  0
  3 27  1  0
  3 28  1  0
  4  5  1  0
  4 29  1  0
  4 30  1  0
  5  6  1  6
  5  7  1  0
  5 25  1  0
  7 31  1  0
  8  7  1  0
  8  9  1  0
  8 13  2  0
  9 10  1  0
  9 32  1  0
 10 12  1  0
 10 11  1  0
 10 33  1  0
 11 12  1  0
 11 34  1  0
 11 35  1  0
 12 36  1  0
 12 37  1  0
 13 14  1  0
 13 15  1  0
 15 16  1  0
 15 38  1  0
 15 39  1  0
 16 17  2  0
 16 40  1  0
 17 18  1  0
 17 41  1  0
 18 24  1  0
 18 19  2  0
 19 20  1  0
 19 42  1  0
 20 21  2  0
 20 43  1  0
 21 22  1  0
 21 23  1  0
 23 24  2  0
 23 44  1  0
 24 45  1  0
 25 26  1  0
 25 46  1  0
 25 47  1  0
 26 48  1  0
M  CHG  1  13   1
M  END
>  <DOCK_score>  (1) 
-45.002296

>  <SMILES>  (1) 
O=C1CC[C@H](NC(NC2CC2)=[NH+]C/C=C/c2ccc(Br)cc2)CN1

$$$$
