O=C1CC[C@H](NC(NC2CC=CC2)=[NH+][C@H]2COc3ccc(-c4ccccc4)cc3C2)CN1
     RDKit          3D

 63 67  0  0  1  0  0  0  0  0999 V2000
  123.9391  132.8587  160.8960 O   0  0  0  0  0  0  0  0  0  0  0  0
  125.0853  133.1984  160.6914 C   0  0  0  0  0  0  0  0  0  0  0  0
  126.0275  132.1950  160.0908 C   0  0  0  0  0  0  0  0  0  0  0  0
  127.4746  132.6418  160.3125 C   0  0  0  0  0  0  0  0  0  0  0  0
  127.5988  134.1107  159.8901 C   0  0  2  0  0  0  0  0  0  0  0  0
  127.2082  134.2377  158.8805 H   0  0  0  0  0  0  0  0  0  0  0  0
  129.0063  134.5154  159.9270 N   0  0  0  0  0  0  0  0  0  0  0  0
  129.9289  133.8666  159.1409 C   0  0  0  0  0  0  0  0  0  0  0  0
  129.5456  133.3216  157.9383 N   0  0  0  0  0  0  0  0  0  0  0  0
  130.5287  132.6302  157.1007 C   0  0  0  0  0  0  0  0  0  0  0  0
  130.0687  132.5878  155.6250 C   0  0  0  0  0  0  0  0  0  0  0  0
  130.5101  131.2313  155.1247 C   0  0  0  0  0  0  0  0  0  0  0  0
  130.7952  130.4337  156.1177 C   0  0  0  0  0  0  0  0  0  0  0  0
  130.5910  131.1241  157.4461 C   0  0  0  0  0  0  0  0  0  0  0  0
  131.1673  133.7682  159.5358 N   0  0  0  0  0  0  0  0  0  0  0  0
  131.8183  133.3103  158.9811 H   0  0  0  0  0  0  0  0  0  0  0  0
  131.5758  134.3487  160.8173 C   0  0  1  0  0  0  0  0  0  0  0  0
  131.3890  135.4225  160.8104 H   0  0  0  0  0  0  0  0  0  0  0  0
  130.7861  133.6937  161.9578 C   0  0  0  0  0  0  0  0  0  0  0  0
  131.1296  134.3500  163.1788 O   0  0  0  0  0  0  0  0  0  0  0  0
  132.4478  134.5219  163.4592 C   0  0  0  0  0  0  0  0  0  0  0  0
  132.8125  134.8184  164.7702 C   0  0  0  0  0  0  0  0  0  0  0  0
  134.1360  135.0115  165.0982 C   0  0  0  0  0  0  0  0  0  0  0  0
  135.1168  134.9092  164.1128 C   0  0  0  0  0  0  0  0  0  0  0  0
  136.5443  135.1183  164.4583 C   0  0  0  0  0  0  0  0  0  0  0  0
  137.5406  134.4502  163.7490 C   0  0  0  0  0  0  0  0  0  0  0  0
  138.8673  134.6522  164.0715 C   0  0  0  0  0  0  0  0  0  0  0  0
  139.2083  135.5077  165.1035 C   0  0  0  0  0  0  0  0  0  0  0  0
  138.2233  136.1694  165.8145 C   0  0  0  0  0  0  0  0  0  0  0  0
  136.8937  135.9790  165.4971 C   0  0  0  0  0  0  0  0  0  0  0  0
  134.7510  134.6105  162.8034 C   0  0  0  0  0  0  0  0  0  0  0  0
  133.4209  134.4160  162.4792 C   0  0  0  0  0  0  0  0  0  0  0  0
  133.0653  134.0855  161.0515 C   0  0  0  0  0  0  0  0  0  0  0  0
  126.7921  134.9703  160.8641 C   0  0  0  0  0  0  0  0  0  0  0  0
  125.4413  134.4430  161.0115 N   0  0  0  0  0  0  0  0  0  0  0  0
  125.8719  131.2247  160.5623 H   0  0  0  0  0  0  0  0  0  0  0  0
  125.8351  132.1128  159.0211 H   0  0  0  0  0  0  0  0  0  0  0  0
  128.1445  132.0287  159.7097 H   0  0  0  0  0  0  0  0  0  0  0  0
  127.7323  132.5401  161.3667 H   0  0  0  0  0  0  0  0  0  0  0  0
  129.2873  135.2411  160.5062 H   0  0  0  0  0  0  0  0  0  0  0  0
  128.6241  133.3949  157.6445 H   0  0  0  0  0  0  0  0  0  0  0  0
  131.5112  133.0934  157.1912 H   0  0  0  0  0  0  0  0  0  0  0  0
  128.9845  132.6811  155.5623 H   0  0  0  0  0  0  0  0  0  0  0  0
  130.5525  133.3799  155.0535 H   0  0  0  0  0  0  0  0  0  0  0  0
  130.5805  130.9582  154.0822 H   0  0  0  0  0  0  0  0  0  0  0  0
  131.1324  129.4139  156.0048 H   0  0  0  0  0  0  0  0  0  0  0  0
  131.4299  130.9218  158.1121 H   0  0  0  0  0  0  0  0  0  0  0  0
  129.6565  130.8008  157.9045 H   0  0  0  0  0  0  0  0  0  0  0  0
  129.7173  133.7995  161.7724 H   0  0  0  0  0  0  0  0  0  0  0  0
  131.0444  132.6367  162.0234 H   0  0  0  0  0  0  0  0  0  0  0  0
  132.0526  134.9019  165.5330 H   0  0  0  0  0  0  0  0  0  0  0  0
  134.4134  135.2419  166.1162 H   0  0  0  0  0  0  0  0  0  0  0  0
  137.2753  133.7786  162.9459 H   0  0  0  0  0  0  0  0  0  0  0  0
  139.6404  134.1381  163.5199 H   0  0  0  0  0  0  0  0  0  0  0  0
  140.2475  135.6598  165.3551 H   0  0  0  0  0  0  0  0  0  0  0  0
  138.4951  136.8360  166.6196 H   0  0  0  0  0  0  0  0  0  0  0  0
  136.1255  136.4964  166.0525 H   0  0  0  0  0  0  0  0  0  0  0  0
  135.5088  134.5301  162.0380 H   0  0  0  0  0  0  0  0  0  0  0  0
  133.6539  134.7082  160.3778 H   0  0  0  0  0  0  0  0  0  0  0  0
  133.2824  133.0352  160.8573 H   0  0  0  0  0  0  0  0  0  0  0  0
  127.2857  134.9731  161.8360 H   0  0  0  0  0  0  0  0  0  0  0  0
  126.7411  135.9914  160.4865 H   0  0  0  0  0  0  0  0  0  0  0  0
  124.7584  135.0345  161.3648 H   0  0  0  0  0  0  0  0  0  0  0  0
  1  2  2  0
  2 35  1  0
  2  3  1  0
  3  4  1  0
  3 36  1  0
  3 37  1  0
  4  5  1  0
  4 38  1  0
  4 39  1  0
  5  6  1  6
  5  7  1  0
  5 34  1  0
  7 40  1  0
  8  7  1  0
  8  9  1  0
  8 15  2  0
  9 10  1  0
  9 41  1  0
 10 14  1  0
 10 11  1  0
 10 42  1  0
 11 12  1  0
 11 43  1  0
 11 44  1  0
 12 13  2  0
 12 45  1  0
 13 14  1  0
 13 46  1  0
 14 47  1  0
 14 48  1  0
 15 16  1  0
 15 17  1  0
 17 18  1  6
 17 33  1  0
 17 19  1  0
 19 20  1  0
 19 49  1  0
 19 50  1  0
 20 21  1  0
 21 32  2  0
 21 22  1  0
 22 23  2  0
 22 51  1  0
 23 24  1  0
 23 52  1  0
 24 25  1  0
 24 31  2  0
 25 30  1  0
 25 26  2  0
 26 27  1  0
 26 53  1  0
 27 28  2  0
 27 54  1  0
 28 29  1  0
 28 55  1  0
 29 30  2  0
 29 56  1  0
 30 57  1  0
 31 32  1  0
 31 58  1  0
 32 33  1  0
 33 59  1  0
 33 60  1  0
 34 35  1  0
 34 61  1  0
 34 62  1  0
 35 63  1  0
M  CHG  1  15   1
M  END
>  <DOCK_score>  (1) 
-44.576256

>  <SMILES>  (1) 
O=C1CC[C@H](NC(NC2CC=CC2)=[NH+][C@H]2COc3ccc(-c4ccccc4)cc3C2)CN1

$$$$
