CC1=C(C)C[C@@H]2CC(NC(NC3CC4CC4C3)=[NH+][C@H]3CCC(=O)NC3)CC2C1
     RDKit          3D

 65 69  0  0  1  0  0  0  0  0999 V2000
  136.6659  141.3327  159.9101 C   0  0  0  0  0  0  0  0  0  0  0  0
  135.7670  140.2173  160.3780 C   0  0  0  0  0  0  0  0  0  0  0  0
  136.2920  139.2805  161.1057 C   0  0  0  0  0  0  0  0  0  0  0  0
  137.7646  139.3706  161.4128 C   0  0  0  0  0  0  0  0  0  0  0  0
  135.5259  138.1061  161.6660 C   0  0  0  0  0  0  0  0  0  0  0  0
  134.0452  138.4535  161.6233 C   0  0  2  0  0  0  0  0  0  0  0  0
  133.8101  139.2493  162.3300 H   0  0  0  0  0  0  0  0  0  0  0  0
  133.1069  137.2528  161.8118 C   0  0  0  0  0  0  0  0  0  0  0  0
  131.7998  137.7119  161.1142 C   0  0  0  0  0  0  0  0  0  0  0  0
  131.1688  136.5786  160.4332 N   0  0  0  0  0  0  0  0  0  0  0  0
  130.2573  135.7959  161.1014 C   0  0  0  0  0  0  0  0  0  0  0  0
  129.6651  134.7325  160.4622 N   0  0  0  0  0  0  0  0  0  0  0  0
  130.0054  134.4333  159.0691 C   0  0  2  0  0  0  0  0  0  0  0  0
  128.8703  133.6334  158.3868 C   0  0  0  0  0  0  0  0  0  0  0  0
  129.5713  132.8915  157.2301 C   0  0  2  0  0  0  0  0  0  0  0  0
  130.1885  131.5216  157.5185 C   0  0  0  0  0  0  0  0  0  0  0  0
  131.0555  132.7784  157.6166 C   0  0  2  0  0  0  0  0  0  0  0  0
  131.2044  133.4556  158.9948 C   0  0  0  0  0  0  0  0  0  0  0  0
  129.9546  136.0620  162.3409 N   0  0  0  0  0  0  0  0  0  0  0  0
  130.6122  136.4739  162.9231 H   0  0  0  0  0  0  0  0  0  0  0  0
  128.6214  135.7390  162.8550 C   0  0  1  0  0  0  0  0  0  0  0  0
  128.4453  134.6669  162.7668 H   0  0  0  0  0  0  0  0  0  0  0  0
  128.5209  136.1610  164.3257 C   0  0  0  0  0  0  0  0  0  0  0  0
  127.1915  135.6500  164.8863 C   0  0  0  0  0  0  0  0  0  0  0  0
  126.0707  136.0141  163.9554 C   0  0  0  0  0  0  0  0  0  0  0  0
  124.9361  135.9805  164.3823 O   0  0  0  0  0  0  0  0  0  0  0  0
  126.2564  136.3719  162.6842 N   0  0  0  0  0  0  0  0  0  0  0  0
  127.5643  136.5001  162.0539 C   0  0  0  0  0  0  0  0  0  0  0  0
  132.2087  138.7901  160.0831 C   0  0  0  0  0  0  0  0  0  0  0  0
  133.7344  138.8703  160.1561 C   0  0  1  0  0  0  0  0  0  0  0  0
  134.3138  140.2638  159.9693 C   0  0  0  0  0  0  0  0  0  0  0  0
  137.6935  141.1185  160.2037 H   0  0  0  0  0  0  0  0  0  0  0  0
  136.6078  141.4152  158.8248 H   0  0  0  0  0  0  0  0  0  0  0  0
  136.3467  142.2711  160.3634 H   0  0  0  0  0  0  0  0  0  0  0  0
  138.0665  138.5048  162.0021 H   0  0  0  0  0  0  0  0  0  0  0  0
  138.3295  139.3909  160.4808 H   0  0  0  0  0  0  0  0  0  0  0  0
  137.9629  140.2816  161.9776 H   0  0  0  0  0  0  0  0  0  0  0  0
  135.8326  137.9228  162.6958 H   0  0  0  0  0  0  0  0  0  0  0  0
  135.7145  137.2188  161.0614 H   0  0  0  0  0  0  0  0  0  0  0  0
  132.9317  137.0639  162.8709 H   0  0  0  0  0  0  0  0  0  0  0  0
  133.5128  136.3668  161.3237 H   0  0  0  0  0  0  0  0  0  0  0  0
  131.1139  138.1364  161.8471 H   0  0  0  0  0  0  0  0  0  0  0  0
  131.3941  136.3806  159.5106 H   0  0  0  0  0  0  0  0  0  0  0  0
  129.0219  134.1802  160.9337 H   0  0  0  0  0  0  0  0  0  0  0  0
  130.2200  135.3501  158.5201 H   0  0  0  0  0  0  0  0  0  0  0  0
  128.1077  134.3093  158.0000 H   0  0  0  0  0  0  0  0  0  0  0  0
  128.4314  132.9217  159.0861 H   0  0  0  0  0  0  0  0  0  0  0  0
  129.2676  133.1361  156.2122 H   0  0  0  0  0  0  0  0  0  0  0  0
  129.9084  131.0303  158.4503 H   0  0  0  0  0  0  0  0  0  0  0  0
  130.3589  130.8584  156.6705 H   0  0  0  0  0  0  0  0  0  0  0  0
  131.8461  132.9396  156.8837 H   0  0  0  0  0  0  0  0  0  0  0  0
  131.1429  132.7151  159.7923 H   0  0  0  0  0  0  0  0  0  0  0  0
  132.1472  133.9997  159.0526 H   0  0  0  0  0  0  0  0  0  0  0  0
  129.3474  135.7280  164.8891 H   0  0  0  0  0  0  0  0  0  0  0  0
  128.5561  137.2480  164.3989 H   0  0  0  0  0  0  0  0  0  0  0  0
  127.0127  136.1014  165.8622 H   0  0  0  0  0  0  0  0  0  0  0  0
  127.2361  134.5662  164.9928 H   0  0  0  0  0  0  0  0  0  0  0  0
  125.4718  136.5590  162.1453 H   0  0  0  0  0  0  0  0  0  0  0  0
  127.8390  137.5538  162.0049 H   0  0  0  0  0  0  0  0  0  0  0  0
  127.5181  136.0956  161.0428 H   0  0  0  0  0  0  0  0  0  0  0  0
  131.8943  138.4930  159.0826 H   0  0  0  0  0  0  0  0  0  0  0  0
  131.7673  139.7510  160.3476 H   0  0  0  0  0  0  0  0  0  0  0  0
  134.1946  138.1717  159.4572 H   0  0  0  0  0  0  0  0  0  0  0  0
  133.7763  140.9747  160.5969 H   0  0  0  0  0  0  0  0  0  0  0  0
  134.2337  140.5596  158.9232 H   0  0  0  0  0  0  0  0  0  0  0  0
  1  2  1  0
  1 32  1  0
  1 33  1  0
  1 34  1  0
  2 31  1  0
  2  3  2  0
  3  4  1  0
  3  5  1  0
  4 35  1  0
  4 36  1  0
  4 37  1  0
  5  6  1  0
  5 38  1  0
  5 39  1  0
  6  7  1  1
  6 30  1  0
  6  8  1  0
  8  9  1  0
  8 40  1  0
  8 41  1  0
  9 10  1  0
  9 29  1  0
  9 42  1  0
 10 43  1  0
 11 10  1  0
 11 12  1  0
 11 19  2  0
 12 13  1  0
 12 44  1  0
 13 18  1  0
 13 14  1  0
 13 45  1  6
 14 15  1  0
 14 46  1  0
 14 47  1  0
 15 17  1  0
 15 16  1  0
 15 48  1  6
 16 17  1  0
 16 49  1  0
 16 50  1  0
 17 18  1  0
 17 51  1  6
 18 52  1  0
 18 53  1  0
 19 20  1  0
 19 21  1  0
 21 22  1  1
 21 28  1  0
 21 23  1  0
 23 24  1  0
 23 54  1  0
 23 55  1  0
 24 25  1  0
 24 56  1  0
 24 57  1  0
 25 26  2  0
 25 27  1  0
 27 28  1  0
 27 58  1  0
 28 59  1  0
 28 60  1  0
 29 30  1  0
 29 61  1  0
 29 62  1  0
 30 31  1  0
 30 63  1  6
 31 64  1  0
 31 65  1  0
M  CHG  1  19   1
M  END
>  <DOCK_score>  (1) 
-46.508484

>  <SMILES>  (1) 
CC1=C(C)C[C@@H]2CC(NC(NC3CC4CC4C3)=[NH+][C@H]3CCC(=O)NC3)CC2C1

$$$$
