N#CC1=CC([NH2+]C2CC(Cc3cccc(O[C@@H]4C=CC(O)CC4)c3)C2)CC1
     RDKit          3D

 56 59  0  0  1  0  0  0  0  0999 V2000
  134.4216  140.6268  163.9005 N   0  0  0  0  0  0  0  0  0  0  0  0
  134.0902  140.0850  162.9586 C   0  0  0  0  0  0  0  0  0  0  0  0
  133.6727  139.4018  161.7714 C   0  0  0  0  0  0  0  0  0  0  0  0
  133.8199  138.1005  161.5591 C   0  0  0  0  0  0  0  0  0  0  0  0
  133.2707  137.7133  160.2056 C   0  0  1  0  0  0  0  0  0  0  0  0
  131.9543  137.0777  160.3509 N   0  0  0  0  0  0  0  0  0  0  0  0
  131.6005  136.8249  159.4404 H   0  0  0  0  0  0  0  0  0  0  0  0
  131.3162  137.7226  160.7925 H   0  0  0  0  0  0  0  0  0  0  0  0
  132.0820  135.8709  161.1788 C   0  0  1  0  0  0  0  0  0  0  0  0
  130.9513  134.8517  160.9607 C   0  0  0  0  0  0  0  0  0  0  0  0
  131.8203  134.2441  159.8470 C   0  0  2  0  0  0  0  0  0  0  0  0
  131.7901  132.7148  159.8113 C   0  0  0  0  0  0  0  0  0  0  0  0
  130.6908  132.2556  158.8885 C   0  0  0  0  0  0  0  0  0  0  0  0
  130.9557  132.0511  157.5470 C   0  0  0  0  0  0  0  0  0  0  0  0
  129.9493  131.6295  156.6976 C   0  0  0  0  0  0  0  0  0  0  0  0
  128.6774  131.4064  157.1889 C   0  0  0  0  0  0  0  0  0  0  0  0
  128.4078  131.6167  158.5333 C   0  0  0  0  0  0  0  0  0  0  0  0
  127.1561  131.4035  159.0180 O   0  0  0  0  0  0  0  0  0  0  0  0
  126.7473  132.2005  160.1314 C   0  0  2  0  0  0  0  0  0  0  0  0
  127.4214  132.0233  160.9695 H   0  0  0  0  0  0  0  0  0  0  0  0
  125.3510  131.8186  160.5269 C   0  0  0  0  0  0  0  0  0  0  0  0
  124.4272  132.6698  160.8395 C   0  0  0  0  0  0  0  0  0  0  0  0
  124.6207  134.1581  160.8404 C   0  0  1  0  0  0  0  0  0  0  0  0
  124.0049  134.7150  162.0034 O   0  0  0  0  0  0  0  0  0  0  0  0
  126.1133  134.4955  160.8457 C   0  0  0  0  0  0  0  0  0  0  0  0
  126.7991  133.6797  159.7427 C   0  0  0  0  0  0  0  0  0  0  0  0
  129.4196  132.0396  159.3835 C   0  0  0  0  0  0  0  0  0  0  0  0
  133.0387  134.8189  160.5889 C   0  0  0  0  0  0  0  0  0  0  0  0
  133.1418  139.0468  159.4344 C   0  0  0  0  0  0  0  0  0  0  0  0
  133.0044  140.0649  160.5894 C   0  0  0  0  0  0  0  0  0  0  0  0
  134.2709  137.4118  162.2581 H   0  0  0  0  0  0  0  0  0  0  0  0
  133.9601  137.0432  159.6922 H   0  0  0  0  0  0  0  0  0  0  0  0
  132.2705  136.0959  162.2286 H   0  0  0  0  0  0  0  0  0  0  0  0
  130.0254  135.2978  160.5977 H   0  0  0  0  0  0  0  0  0  0  0  0
  130.7966  134.1833  161.8076 H   0  0  0  0  0  0  0  0  0  0  0  0
  131.6532  134.6938  158.8683 H   0  0  0  0  0  0  0  0  0  0  0  0
  131.6055  132.3316  160.8149 H   0  0  0  0  0  0  0  0  0  0  0  0
  132.7479  132.3407  159.4499 H   0  0  0  0  0  0  0  0  0  0  0  0
  131.9503  132.2209  157.1619 H   0  0  0  0  0  0  0  0  0  0  0  0
  130.1587  131.4703  155.6502 H   0  0  0  0  0  0  0  0  0  0  0  0
  127.8926  131.0731  156.5261 H   0  0  0  0  0  0  0  0  0  0  0  0
  125.1013  130.7682  160.5527 H   0  0  0  0  0  0  0  0  0  0  0  0
  123.4571  132.2851  161.1173 H   0  0  0  0  0  0  0  0  0  0  0  0
  124.1579  134.5810  159.9488 H   0  0  0  0  0  0  0  0  0  0  0  0
  124.0807  135.6770  162.0662 H   0  0  0  0  0  0  0  0  0  0  0  0
  126.2490  135.5596  160.6526 H   0  0  0  0  0  0  0  0  0  0  0  0
  126.5436  134.2378  161.8135 H   0  0  0  0  0  0  0  0  0  0  0  0
  126.2764  133.8287  158.7979 H   0  0  0  0  0  0  0  0  0  0  0  0
  127.8374  133.9964  159.6444 H   0  0  0  0  0  0  0  0  0  0  0  0
  129.2130  132.2000  160.4314 H   0  0  0  0  0  0  0  0  0  0  0  0
  133.4557  134.1414  161.3340 H   0  0  0  0  0  0  0  0  0  0  0  0
  133.7954  135.2386  159.9261 H   0  0  0  0  0  0  0  0  0  0  0  0
  134.0367  139.2443  158.8444 H   0  0  0  0  0  0  0  0  0  0  0  0
  132.2528  139.0487  158.8037 H   0  0  0  0  0  0  0  0  0  0  0  0
  133.5144  140.9949  160.3378 H   0  0  0  0  0  0  0  0  0  0  0  0
  131.9530  140.2557  160.8036 H   0  0  0  0  0  0  0  0  0  0  0  0
  1  2  3  0
  2  3  1  0
  3 30  1  0
  3  4  2  0
  4  5  1  0
  4 31  1  0
  5  6  1  0
  5 29  1  0
  5 32  1  6
  6  7  1  0
  6  8  1  0
  6  9  1  0
  9 28  1  0
  9 10  1  0
  9 33  1  1
 10 11  1  0
 10 34  1  0
 10 35  1  0
 11 12  1  0
 11 28  1  0
 11 36  1  6
 12 13  1  0
 12 37  1  0
 12 38  1  0
 13 27  1  0
 13 14  2  0
 14 15  1  0
 14 39  1  0
 15 16  2  0
 15 40  1  0
 16 17  1  0
 16 41  1  0
 17 18  1  0
 17 27  2  0
 18 19  1  0
 19 20  1  1
 19 26  1  0
 19 21  1  0
 21 22  2  0
 21 42  1  0
 22 23  1  0
 22 43  1  0
 23 24  1  0
 23 25  1  0
 23 44  1  6
 24 45  1  0
 25 26  1  0
 25 46  1  0
 25 47  1  0
 26 48  1  0
 26 49  1  0
 27 50  1  0
 28 51  1  0
 28 52  1  0
 29 30  1  0
 29 53  1  0
 29 54  1  0
 30 55  1  0
 30 56  1  0
M  CHG  1   6   1
M  END
>  <DOCK_score>  (1) 
-44.166985

>  <SMILES>  (1) 
N#CC1=CC([NH2+]C2CC(Cc3cccc(O[C@@H]4C=CC(O)CC4)c3)C2)CC1

$$$$
