Cc1[nH]c(N[C@@](Cl)(CNC2C=C3CCCCC3C2)NCc2cccc3c2NC(=O)CO3)[nH+]c1C
     RDKit          3D

 68 72  0  0  1  0  0  0  0  0999 V2000
  131.0552  131.2410  156.2298 C   0  0  0  0  0  0  0  0  0  0  0  0
  130.9482  132.0462  157.4991 C   0  0  0  0  0  0  0  0  0  0  0  0
  131.1956  133.3777  157.6310 N   0  0  0  0  0  0  0  0  0  0  0  0
  131.4723  133.9779  156.9209 H   0  0  0  0  0  0  0  0  0  0  0  0
  130.9918  133.7142  158.9014 C   0  0  0  0  0  0  0  0  0  0  0  0
  131.1397  134.9812  159.4330 N   0  0  0  0  0  0  0  0  0  0  0  0
  130.8813  135.2131  160.8563 C   0  0  1  0  0  0  0  0  0  0  0  0
  131.9943  134.1940  161.8429 Cl  0  0  0  0  0  0  0  0  0  0  0  0
  131.1166  136.6890  161.1834 C   0  0  0  0  0  0  0  0  0  0  0  0
  130.2099  137.5194  160.3795 N   0  0  0  0  0  0  0  0  0  0  0  0
  130.0536  138.8542  160.9726 C   0  0  2  0  0  0  0  0  0  0  0  0
  131.3584  139.3106  161.5833 C   0  0  0  0  0  0  0  0  0  0  0  0
  131.1814  139.7844  162.7724 C   0  0  0  0  0  0  0  0  0  0  0  0
  132.1609  140.5685  163.6294 C   0  0  0  0  0  0  0  0  0  0  0  0
  131.4958  141.9384  163.8609 C   0  0  0  0  0  0  0  0  0  0  0  0
  130.0822  141.7635  164.4077 C   0  0  0  0  0  0  0  0  0  0  0  0
  129.1773  141.0154  163.4205 C   0  0  0  0  0  0  0  0  0  0  0  0
  129.7442  139.6095  163.2345 C   0  0  1  0  0  0  0  0  0  0  0  0
  129.0439  138.8048  162.1402 C   0  0  0  0  0  0  0  0  0  0  0  0
  129.4895  134.8589  161.1654 N   0  0  0  0  0  0  0  0  0  0  0  0
  129.3146  134.6188  162.6041 C   0  0  0  0  0  0  0  0  0  0  0  0
  127.8559  134.7454  162.9608 C   0  0  0  0  0  0  0  0  0  0  0  0
  127.4756  135.4623  164.0811 C   0  0  0  0  0  0  0  0  0  0  0  0
  126.1383  135.5795  164.4105 C   0  0  0  0  0  0  0  0  0  0  0  0
  125.1709  134.9821  163.6222 C   0  0  0  0  0  0  0  0  0  0  0  0
  125.5435  134.2641  162.4996 C   0  0  0  0  0  0  0  0  0  0  0  0
  126.8923  134.1495  162.1649 C   0  0  0  0  0  0  0  0  0  0  0  0
  127.2567  133.4127  161.0289 N   0  0  0  0  0  0  0  0  0  0  0  0
  126.3093  133.1109  160.1145 C   0  0  0  0  0  0  0  0  0  0  0  0
  126.5946  132.4522  159.1368 O   0  0  0  0  0  0  0  0  0  0  0  0
  124.8960  133.5965  160.3139 C   0  0  0  0  0  0  0  0  0  0  0  0
  124.6064  133.6718  161.7122 O   0  0  0  0  0  0  0  0  0  0  0  0
  130.6275  132.6277  159.5764 N   0  0  0  0  0  0  0  0  0  0  0  0
  130.4211  132.5890  160.5234 H   0  0  0  0  0  0  0  0  0  0  0  0
  130.5914  131.5805  158.7083 C   0  0  0  0  0  0  0  0  0  0  0  0
  130.2251  130.1575  159.0429 C   0  0  0  0  0  0  0  0  0  0  0  0
  132.0658  130.8432  156.1359 H   0  0  0  0  0  0  0  0  0  0  0  0
  130.3420  130.4173  156.2608 H   0  0  0  0  0  0  0  0  0  0  0  0
  130.8354  131.8800  155.3746 H   0  0  0  0  0  0  0  0  0  0  0  0
  131.4146  135.7170  158.8638 H   0  0  0  0  0  0  0  0  0  0  0  0
  132.1493  136.9519  160.9541 H   0  0  0  0  0  0  0  0  0  0  0  0
  130.9244  136.8615  162.2424 H   0  0  0  0  0  0  0  0  0  0  0  0
  130.5292  137.5832  159.4245 H   0  0  0  0  0  0  0  0  0  0  0  0
  129.7224  139.5659  160.2162 H   0  0  0  0  0  0  0  0  0  0  0  0
  132.3172  139.2450  161.0906 H   0  0  0  0  0  0  0  0  0  0  0  0
  132.3204  140.0609  164.5807 H   0  0  0  0  0  0  0  0  0  0  0  0
  133.1074  140.6927  163.1030 H   0  0  0  0  0  0  0  0  0  0  0  0
  132.0891  142.5100  164.5746 H   0  0  0  0  0  0  0  0  0  0  0  0
  131.4512  142.4804  162.9162 H   0  0  0  0  0  0  0  0  0  0  0  0
  130.1295  141.2026  165.3411 H   0  0  0  0  0  0  0  0  0  0  0  0
  129.6540  142.7461  164.6056 H   0  0  0  0  0  0  0  0  0  0  0  0
  129.1648  141.5374  162.4637 H   0  0  0  0  0  0  0  0  0  0  0  0
  128.1655  140.9548  163.8213 H   0  0  0  0  0  0  0  0  0  0  0  0
  129.7197  139.0591  164.1750 H   0  0  0  0  0  0  0  0  0  0  0  0
  128.1033  139.2769  161.8566 H   0  0  0  0  0  0  0  0  0  0  0  0
  128.8785  137.7771  162.4635 H   0  0  0  0  0  0  0  0  0  0  0  0
  128.8539  135.5705  160.8376 H   0  0  0  0  0  0  0  0  0  0  0  0
  129.6630  133.6156  162.8501 H   0  0  0  0  0  0  0  0  0  0  0  0
  129.8914  135.3521  163.1676 H   0  0  0  0  0  0  0  0  0  0  0  0
  128.2258  135.9314  164.7003 H   0  0  0  0  0  0  0  0  0  0  0  0
  125.8472  136.1399  165.2867 H   0  0  0  0  0  0  0  0  0  0  0  0
  124.1270  135.0756  163.8826 H   0  0  0  0  0  0  0  0  0  0  0  0
  128.1746  133.1274  160.8995 H   0  0  0  0  0  0  0  0  0  0  0  0
  124.2034  132.9032  159.8367 H   0  0  0  0  0  0  0  0  0  0  0  0
  124.7859  134.5845  159.8668 H   0  0  0  0  0  0  0  0  0  0  0  0
  131.1215  129.6108  159.3358 H   0  0  0  0  0  0  0  0  0  0  0  0
  129.5101  130.1502  159.8657 H   0  0  0  0  0  0  0  0  0  0  0  0
  129.7788  129.6822  158.1695 H   0  0  0  0  0  0  0  0  0  0  0  0
  1  2  1  0
  1 37  1  0
  1 38  1  0
  1 39  1  0
  2 35  2  0
  2  3  1  0
  3  4  1  0
  3  5  1  0
  5  6  1  0
  5 33  2  0
  6  7  1  0
  6 40  1  0
  7  8  1  1
  7  9  1  0
  7 20  1  0
  9 10  1  0
  9 41  1  0
  9 42  1  0
 10 11  1  0
 10 43  1  0
 11 19  1  0
 11 12  1  0
 11 44  1  6
 12 13  2  0
 12 45  1  0
 13 18  1  0
 13 14  1  0
 14 15  1  0
 14 46  1  0
 14 47  1  0
 15 16  1  0
 15 48  1  0
 15 49  1  0
 16 17  1  0
 16 50  1  0
 16 51  1  0
 17 18  1  0
 17 52  1  0
 17 53  1  0
 18 19  1  0
 18 54  1  1
 19 55  1  0
 19 56  1  0
 20 21  1  0
 20 57  1  0
 21 22  1  0
 21 58  1  0
 21 59  1  0
 22 27  1  0
 22 23  2  0
 23 24  1  0
 23 60  1  0
 24 25  2  0
 24 61  1  0
 25 26  1  0
 25 62  1  0
 26 32  1  0
 26 27  2  0
 27 28  1  0
 28 29  1  0
 28 63  1  0
 29 30  2  0
 29 31  1  0
 31 32  1  0
 31 64  1  0
 31 65  1  0
 33 34  1  0
 33 35  1  0
 35 36  1  0
 36 66  1  0
 36 67  1  0
 36 68  1  0
M  CHG  1  33   1
M  END
>  <DOCK_score>  (1) 
-56.057362

>  <SMILES>  (1) 
Cc1[nH]c(N[C@@](Cl)(CNC2C=C3CCCCC3C2)NCc2cccc3c2NC(=O)CO3)[nH+]c1C

$$$$
