Cc1ccc([C@H](Nc2[nH]cc(C3=CCC=CC3)[nH+]2)c2ccccc2)cc1
     RDKit          3D

 50 53  0  0  1  0  0  0  0  0999 V2000
  130.8606  140.7248  161.7388 C   0  0  0  0  0  0  0  0  0  0  0  0
  130.4222  139.3639  161.2625 C   0  0  0  0  0  0  0  0  0  0  0  0
  130.2469  138.3370  162.1711 C   0  0  0  0  0  0  0  0  0  0  0  0
  129.8446  137.0888  161.7344 C   0  0  0  0  0  0  0  0  0  0  0  0
  129.6178  136.8673  160.3887 C   0  0  0  0  0  0  0  0  0  0  0  0
  129.1797  135.5063  159.9125 C   0  0  2  0  0  0  0  0  0  0  0  0
  129.0964  134.8324  160.7651 H   0  0  0  0  0  0  0  0  0  0  0  0
  130.1672  134.9784  158.9677 N   0  0  0  0  0  0  0  0  0  0  0  0
  129.9784  133.7335  158.3928 C   0  0  0  0  0  0  0  0  0  0  0  0
  129.3242  132.6868  158.9665 N   0  0  0  0  0  0  0  0  0  0  0  0
  128.9102  132.6796  159.8437 H   0  0  0  0  0  0  0  0  0  0  0  0
  129.3536  131.6445  158.0731 C   0  0  0  0  0  0  0  0  0  0  0  0
  130.0330  132.0814  156.9808 C   0  0  0  0  0  0  0  0  0  0  0  0
  130.3160  131.2971  155.7613 C   0  0  0  0  0  0  0  0  0  0  0  0
  129.8529  131.7319  154.6091 C   0  0  0  0  0  0  0  0  0  0  0  0
  130.0922  131.0094  153.3174 C   0  0  0  0  0  0  0  0  0  0  0  0
  131.2510  130.0656  153.4307 C   0  0  0  0  0  0  0  0  0  0  0  0
  131.7036  129.6340  154.5676 C   0  0  0  0  0  0  0  0  0  0  0  0
  131.1145  130.0341  155.8866 C   0  0  0  0  0  0  0  0  0  0  0  0
  130.4005  133.3690  157.2069 N   0  0  0  0  0  0  0  0  0  0  0  0
  130.8965  133.9292  156.5896 H   0  0  0  0  0  0  0  0  0  0  0  0
  127.8414  135.6200  159.2292 C   0  0  0  0  0  0  0  0  0  0  0  0
  126.6775  135.4774  159.9611 C   0  0  0  0  0  0  0  0  0  0  0  0
  125.4496  135.5860  159.3351 C   0  0  0  0  0  0  0  0  0  0  0  0
  125.3860  135.8281  157.9756 C   0  0  0  0  0  0  0  0  0  0  0  0
  126.5501  135.9655  157.2428 C   0  0  0  0  0  0  0  0  0  0  0  0
  127.7778  135.8612  157.8696 C   0  0  0  0  0  0  0  0  0  0  0  0
  129.7982  137.8928  159.4795 C   0  0  0  0  0  0  0  0  0  0  0  0
  130.1949  139.1426  159.9170 C   0  0  0  0  0  0  0  0  0  0  0  0
  131.9493  140.7784  161.7330 H   0  0  0  0  0  0  0  0  0  0  0  0
  130.4557  141.4895  161.0759 H   0  0  0  0  0  0  0  0  0  0  0  0
  130.4940  140.8907  162.7517 H   0  0  0  0  0  0  0  0  0  0  0  0
  130.4245  138.5099  163.2224 H   0  0  0  0  0  0  0  0  0  0  0  0
  129.7080  136.2864  162.4441 H   0  0  0  0  0  0  0  0  0  0  0  0
  130.9531  135.5014  158.7449 H   0  0  0  0  0  0  0  0  0  0  0  0
  128.9216  130.6646  158.2129 H   0  0  0  0  0  0  0  0  0  0  0  0
  129.2813  132.6481  154.5926 H   0  0  0  0  0  0  0  0  0  0  0  0
  129.1975  130.4464  153.0518 H   0  0  0  0  0  0  0  0  0  0  0  0
  130.3014  131.7379  152.5340 H   0  0  0  0  0  0  0  0  0  0  0  0
  131.7318  129.7291  152.5241 H   0  0  0  0  0  0  0  0  0  0  0  0
  132.5432  128.9550  154.5634 H   0  0  0  0  0  0  0  0  0  0  0  0
  130.4691  129.2333  156.2472 H   0  0  0  0  0  0  0  0  0  0  0  0
  131.9197  130.1931  156.6038 H   0  0  0  0  0  0  0  0  0  0  0  0
  126.7272  135.2846  161.0226 H   0  0  0  0  0  0  0  0  0  0  0  0
  124.5402  135.4790  159.9078 H   0  0  0  0  0  0  0  0  0  0  0  0
  124.4268  135.9103  157.4861 H   0  0  0  0  0  0  0  0  0  0  0  0
  126.5004  136.1546  156.1806 H   0  0  0  0  0  0  0  0  0  0  0  0
  128.6872  135.9685  157.2970 H   0  0  0  0  0  0  0  0  0  0  0  0
  129.6252  137.7186  158.4278 H   0  0  0  0  0  0  0  0  0  0  0  0
  130.3316  139.9451  159.2071 H   0  0  0  0  0  0  0  0  0  0  0  0
  1  2  1  0
  1 30  1  0
  1 31  1  0
  1 32  1  0
  2 29  2  0
  2  3  1  0
  3  4  2  0
  3 33  1  0
  4  5  1  0
  4 34  1  0
  5  6  1  0
  5 28  2  0
  6  7  1  1
  6  8  1  0
  6 22  1  0
  8 35  1  0
  9  8  1  0
  9 20  2  0
  9 10  1  0
 10 11  1  0
 10 12  1  0
 12 13  2  0
 12 36  1  0
 13 14  1  0
 13 20  1  0
 14 19  1  0
 14 15  2  0
 15 16  1  0
 15 37  1  0
 16 17  1  0
 16 38  1  0
 16 39  1  0
 17 18  2  0
 17 40  1  0
 18 19  1  0
 18 41  1  0
 19 42  1  0
 19 43  1  0
 20 21  1  0
 22 27  1  0
 22 23  2  0
 23 24  1  0
 23 44  1  0
 24 25  2  0
 24 45  1  0
 25 26  1  0
 25 46  1  0
 26 27  2  0
 26 47  1  0
 27 48  1  0
 28 29  1  0
 28 49  1  0
 29 50  1  0
M  CHG  1  20   1
M  END
>  <DOCK_score>  (1) 
-59.755512

>  <SMILES>  (1) 
Cc1ccc([C@H](Nc2[nH]cc(C3=CCC=CC3)[nH+]2)c2ccccc2)cc1

$$$$
