C=CC=CCC(Oc1cccc([C@@H]([NH3+])C(=O)Nc2cccc(O)c2)c1)N(C)C
     RDKit          3D

 56 57  0  0  1  0  0  0  0  0999 V2000
  138.5985  136.6838  166.0412 C   0  0  0  0  0  0  0  0  0  0  0  0
  137.9627  136.4466  164.8989 C   0  0  0  0  0  0  0  0  0  0  0  0
  136.7361  137.1901  164.5717 C   0  0  0  0  0  0  0  0  0  0  0  0
  136.1003  136.9529  163.4294 C   0  0  0  0  0  0  0  0  0  0  0  0
  134.8438  137.7145  163.0941 C   0  0  0  0  0  0  0  0  0  0  0  0
  133.6832  136.7326  162.9209 C   0  0  2  0  0  0  0  0  0  0  0  0
  133.7474  136.1440  161.6205 O   0  0  0  0  0  0  0  0  0  0  0  0
  132.7816  135.2419  161.3032 C   0  0  0  0  0  0  0  0  0  0  0  0
  132.6329  134.0880  162.0594 C   0  0  0  0  0  0  0  0  0  0  0  0
  131.6503  133.1733  161.7352 C   0  0  0  0  0  0  0  0  0  0  0  0
  130.8117  133.4088  160.6611 C   0  0  0  0  0  0  0  0  0  0  0  0
  130.9613  134.5551  159.9029 C   0  0  0  0  0  0  0  0  0  0  0  0
  130.0491  134.8062  158.7299 C   0  0  1  0  0  0  0  0  0  0  0  0
  129.9224  135.8800  158.5915 H   0  0  0  0  0  0  0  0  0  0  0  0
  130.6386  134.2226  157.5175 N   0  0  0  0  0  0  0  0  0  0  0  0
  130.0278  134.3907  156.7321 H   0  0  0  0  0  0  0  0  0  0  0  0
  131.5368  134.6474  157.3421 H   0  0  0  0  0  0  0  0  0  0  0  0
  130.7559  133.2286  157.6456 H   0  0  0  0  0  0  0  0  0  0  0  0
  128.7076  134.1717  158.9920 C   0  0  0  0  0  0  0  0  0  0  0  0
  128.2842  133.3173  158.2424 O   0  0  0  0  0  0  0  0  0  0  0  0
  127.9783  134.5535  160.0590 N   0  0  0  0  0  0  0  0  0  0  0  0
  126.7329  133.9643  160.3023 C   0  0  0  0  0  0  0  0  0  0  0  0
  126.4950  132.6532  159.9093 C   0  0  0  0  0  0  0  0  0  0  0  0
  125.2653  132.0715  160.1493 C   0  0  0  0  0  0  0  0  0  0  0  0
  124.2711  132.7895  160.7868 C   0  0  0  0  0  0  0  0  0  0  0  0
  124.5012  134.1012  161.1765 C   0  0  0  0  0  0  0  0  0  0  0  0
  123.5206  134.8079  161.7977 O   0  0  0  0  0  0  0  0  0  0  0  0
  125.7338  134.6886  160.9368 C   0  0  0  0  0  0  0  0  0  0  0  0
  131.9427  135.4735  160.2231 C   0  0  0  0  0  0  0  0  0  0  0  0
  132.4095  137.4487  163.0719 N   0  0  0  0  0  0  0  0  0  0  0  0
  132.0870  137.6560  164.4901 C   0  0  0  0  0  0  0  0  0  0  0  0
  132.4338  138.7251  162.3455 C   0  0  0  0  0  0  0  0  0  0  0  0
  138.2149  137.4223  166.7295 H   0  0  0  0  0  0  0  0  0  0  0  0
  139.4991  136.1380  166.2814 H   0  0  0  0  0  0  0  0  0  0  0  0
  138.3463  135.7080  164.2106 H   0  0  0  0  0  0  0  0  0  0  0  0
  136.3525  137.9287  165.2599 H   0  0  0  0  0  0  0  0  0  0  0  0
  136.4837  136.2141  162.7411 H   0  0  0  0  0  0  0  0  0  0  0  0
  134.9916  138.2695  162.1678 H   0  0  0  0  0  0  0  0  0  0  0  0
  134.6140  138.4098  163.9016 H   0  0  0  0  0  0  0  0  0  0  0  0
  133.7524  135.9510  163.6776 H   0  0  0  0  0  0  0  0  0  0  0  0
  133.2847  133.9058  162.9011 H   0  0  0  0  0  0  0  0  0  0  0  0
  131.5339  132.2751  162.3237 H   0  0  0  0  0  0  0  0  0  0  0  0
  130.0412  132.6944  160.4120 H   0  0  0  0  0  0  0  0  0  0  0  0
  128.3170  135.2369  160.6585 H   0  0  0  0  0  0  0  0  0  0  0  0
  127.2718  132.0885  159.4153 H   0  0  0  0  0  0  0  0  0  0  0  0
  125.0822  131.0523  159.8428 H   0  0  0  0  0  0  0  0  0  0  0  0
  123.3124  132.3304  160.9779 H   0  0  0  0  0  0  0  0  0  0  0  0
  123.7743  135.7116  162.0306 H   0  0  0  0  0  0  0  0  0  0  0  0
  125.9160  135.7081  161.2431 H   0  0  0  0  0  0  0  0  0  0  0  0
  132.0562  136.3709  159.6331 H   0  0  0  0  0  0  0  0  0  0  0  0
  132.8393  138.3017  164.9431 H   0  0  0  0  0  0  0  0  0  0  0  0
  131.1069  138.1253  164.5751 H   0  0  0  0  0  0  0  0  0  0  0  0
  132.0756  136.6951  165.0044 H   0  0  0  0  0  0  0  0  0  0  0  0
  132.5912  138.5359  161.2837 H   0  0  0  0  0  0  0  0  0  0  0  0
  131.4840  139.2412  162.4857 H   0  0  0  0  0  0  0  0  0  0  0  0
  133.2441  139.3456  162.7281 H   0  0  0  0  0  0  0  0  0  0  0  0
  1  2  2  0
  1 33  1  0
  1 34  1  0
  2  3  1  0
  2 35  1  0
  3  4  2  0
  3 36  1  0
  4  5  1  0
  4 37  1  0
  5  6  1  0
  5 38  1  0
  5 39  1  0
  6  7  1  0
  6 30  1  0
  6 40  1  1
  7  8  1  0
  8 29  2  0
  8  9  1  0
  9 10  2  0
  9 41  1  0
 10 11  1  0
 10 42  1  0
 11 12  2  0
 11 43  1  0
 12 13  1  0
 12 29  1  0
 13 14  1  6
 13 15  1  0
 13 19  1  0
 15 16  1  0
 15 17  1  0
 15 18  1  0
 19 20  2  0
 19 21  1  0
 21 22  1  0
 21 44  1  0
 22 28  1  0
 22 23  2  0
 23 24  1  0
 23 45  1  0
 24 25  2  0
 24 46  1  0
 25 26  1  0
 25 47  1  0
 26 27  1  0
 26 28  2  0
 27 48  1  0
 28 49  1  0
 29 50  1  0
 30 31  1  0
 30 32  1  0
 31 51  1  0
 31 52  1  0
 31 53  1  0
 32 54  1  0
 32 55  1  0
 32 56  1  0
M  CHG  1  15   1
M  END
>  <DOCK_score>  (1) 
-46.431885

>  <SMILES>  (1) 
C=CC=CCC(Oc1cccc([C@@H]([NH3+])C(=O)Nc2cccc(O)c2)c1)N(C)C

$$$$
