CC1=CCc2[nH]c3cc(Nc4[nH]cc(-c5ccncc5)[nH+]4)c(SC=CCl)cc3c2C1
     RDKit          3D

 51 55  0  0  1  0  0  0  0  0999 V2000
  127.8989  135.5429  167.9924 C   0  0  0  0  0  0  0  0  0  0  0  0
  127.6245  135.9191  166.5591 C   0  0  0  0  0  0  0  0  0  0  0  0
  126.4079  136.2162  166.2398 C   0  0  0  0  0  0  0  0  0  0  0  0
  125.9480  136.6135  164.8680 C   0  0  0  0  0  0  0  0  0  0  0  0
  127.0072  136.2637  163.8530 C   0  0  0  0  0  0  0  0  0  0  0  0
  126.8683  136.2038  162.4951 N   0  0  0  0  0  0  0  0  0  0  0  0
  126.0478  136.3853  162.0105 H   0  0  0  0  0  0  0  0  0  0  0  0
  128.0694  135.8469  161.9153 C   0  0  0  0  0  0  0  0  0  0  0  0
  128.4674  135.6477  160.5974 C   0  0  0  0  0  0  0  0  0  0  0  0
  129.7719  135.2902  160.3155 C   0  0  0  0  0  0  0  0  0  0  0  0
  130.1685  135.0962  158.9864 N   0  0  0  0  0  0  0  0  0  0  0  0
  130.0645  133.8421  158.4088 C   0  0  0  0  0  0  0  0  0  0  0  0
  129.5894  132.7232  159.0226 N   0  0  0  0  0  0  0  0  0  0  0  0
  129.2660  132.6621  159.9351 H   0  0  0  0  0  0  0  0  0  0  0  0
  129.6525  131.6985  158.1128 C   0  0  0  0  0  0  0  0  0  0  0  0
  130.1642  132.2182  156.9684 C   0  0  0  0  0  0  0  0  0  0  0  0
  130.4130  131.4777  155.7088 C   0  0  0  0  0  0  0  0  0  0  0  0
  129.7758  131.8477  154.5200 C   0  0  0  0  0  0  0  0  0  0  0  0
  130.0406  131.1352  153.3694 C   0  0  0  0  0  0  0  0  0  0  0  0
  130.8729  130.1106  153.3834 N   0  0  0  0  0  0  0  0  0  0  0  0
  131.4898  129.7256  154.4843 C   0  0  0  0  0  0  0  0  0  0  0  0
  131.2871  130.3863  155.6776 C   0  0  0  0  0  0  0  0  0  0  0  0
  130.4017  133.5373  157.1796 N   0  0  0  0  0  0  0  0  0  0  0  0
  130.7648  134.1553  156.5260 H   0  0  0  0  0  0  0  0  0  0  0  0
  130.6987  135.1149  161.3507 C   0  0  0  0  0  0  0  0  0  0  0  0
  132.3570  134.6516  160.9765 S   0  0  0  0  0  0  0  0  0  0  0  0
  133.1678  136.2036  160.7811 C   0  0  0  0  0  0  0  0  0  0  0  0
  132.7468  137.2589  161.4563 C   0  0  0  0  0  0  0  0  0  0  0  0
  133.5456  138.7882  161.2637 Cl  0  0  0  0  0  0  0  0  0  0  0  0
  130.3178  135.3096  162.6631 C   0  0  0  0  0  0  0  0  0  0  0  0
  129.0011  135.6768  162.9568 C   0  0  0  0  0  0  0  0  0  0  0  0
  128.2749  135.9554  164.1911 C   0  0  0  0  0  0  0  0  0  0  0  0
  128.7843  135.9218  165.6054 C   0  0  0  0  0  0  0  0  0  0  0  0
  126.9711  135.5847  168.5630 H   0  0  0  0  0  0  0  0  0  0  0  0
  128.3043  134.5319  168.0315 H   0  0  0  0  0  0  0  0  0  0  0  0
  128.6197  136.2401  168.4194 H   0  0  0  0  0  0  0  0  0  0  0  0
  125.6639  136.1749  167.0215 H   0  0  0  0  0  0  0  0  0  0  0  0
  125.7642  137.6877  164.8445 H   0  0  0  0  0  0  0  0  0  0  0  0
  125.0267  136.0829  164.6278 H   0  0  0  0  0  0  0  0  0  0  0  0
  127.7575  135.7767  159.7937 H   0  0  0  0  0  0  0  0  0  0  0  0
  130.5162  135.8404  158.4704 H   0  0  0  0  0  0  0  0  0  0  0  0
  129.3524  130.6739  158.2761 H   0  0  0  0  0  0  0  0  0  0  0  0
  129.0901  132.6819  154.5023 H   0  0  0  0  0  0  0  0  0  0  0  0
  129.5571  131.4163  152.4455 H   0  0  0  0  0  0  0  0  0  0  0  0
  132.1629  128.8816  154.4502 H   0  0  0  0  0  0  0  0  0  0  0  0
  131.7959  130.0659  156.5747 H   0  0  0  0  0  0  0  0  0  0  0  0
  134.0088  136.2927  160.1093 H   0  0  0  0  0  0  0  0  0  0  0  0
  131.9058  137.1698  162.1281 H   0  0  0  0  0  0  0  0  0  0  0  0
  131.0346  135.1790  163.4603 H   0  0  0  0  0  0  0  0  0  0  0  0
  129.4031  136.8002  165.7891 H   0  0  0  0  0  0  0  0  0  0  0  0
  129.3798  135.0213  165.7553 H   0  0  0  0  0  0  0  0  0  0  0  0
  1  2  1  0
  1 34  1  0
  1 35  1  0
  1 36  1  0
  2 33  1  0
  2  3  2  0
  3  4  1  0
  3 37  1  0
  4  5  1  0
  4 38  1  0
  4 39  1  0
  5 32  2  0
  5  6  1  0
  6  7  1  0
  6  8  1  0
  8 31  2  0
  8  9  1  0
  9 10  2  0
  9 40  1  0
 10 11  1  0
 10 25  1  0
 11 41  1  0
 12 11  1  0
 12 23  2  0
 12 13  1  0
 13 14  1  0
 13 15  1  0
 15 16  2  0
 15 42  1  0
 16 17  1  0
 16 23  1  0
 17 22  1  0
 17 18  2  0
 18 19  1  0
 18 43  1  0
 19 20  2  0
 19 44  1  0
 20 21  1  0
 21 22  2  0
 21 45  1  0
 22 46  1  0
 23 24  1  0
 25 26  1  0
 25 30  2  0
 26 27  1  0
 27 28  2  0
 27 47  1  0
 28 29  1  0
 28 48  1  0
 30 31  1  0
 30 49  1  0
 31 32  1  0
 32 33  1  0
 33 50  1  0
 33 51  1  0
M  CHG  1  23   1
M  END
>  <DOCK_score>  (1) 
-51.294186

>  <SMILES>  (1) 
CC1=CCc2[nH]c3cc(Nc4[nH]cc(-c5ccncc5)[nH+]4)c(SC=CCl)cc3c2C1

$$$$
