[NH3+][C@@H](C(=O)Nc1cccc(O)c1)c1cccc(NCCc2cccc3ccccc23)c1
     RDKit          3D

 57 60  0  0  1  0  0  0  0  0999 V2000
  130.6465  134.1920  157.4525 N   0  0  0  0  0  0  0  0  0  0  0  0
  130.7364  133.1909  157.5398 H   0  0  0  0  0  0  0  0  0  0  0  0
  130.0388  134.4089  156.6768 H   0  0  0  0  0  0  0  0  0  0  0  0
  131.5558  134.5987  157.2913 H   0  0  0  0  0  0  0  0  0  0  0  0
  130.0764  134.7421  158.6896 C   0  0  1  0  0  0  0  0  0  0  0  0
  129.9792  135.8236  158.5954 H   0  0  0  0  0  0  0  0  0  0  0  0
  128.7183  134.1347  158.9303 C   0  0  0  0  0  0  0  0  0  0  0  0
  128.2695  133.3236  158.1481 O   0  0  0  0  0  0  0  0  0  0  0  0
  128.0024  134.4930  160.0146 N   0  0  0  0  0  0  0  0  0  0  0  0
  126.7416  133.9292  160.2379 C   0  0  0  0  0  0  0  0  0  0  0  0
  126.4643  132.6445  159.7872 C   0  0  0  0  0  0  0  0  0  0  0  0
  125.2215  132.0858  160.0130 C   0  0  0  0  0  0  0  0  0  0  0  0
  124.2470  132.8068  160.6770 C   0  0  0  0  0  0  0  0  0  0  0  0
  124.5164  134.0924  161.1242 C   0  0  0  0  0  0  0  0  0  0  0  0
  123.5572  134.8003  161.7766 O   0  0  0  0  0  0  0  0  0  0  0  0
  125.7645  134.6545  160.9048 C   0  0  0  0  0  0  0  0  0  0  0  0
  130.9839  134.4183  159.8483 C   0  0  0  0  0  0  0  0  0  0  0  0
  130.8042  133.2461  160.5600 C   0  0  0  0  0  0  0  0  0  0  0  0
  131.6346  132.9453  161.6239 C   0  0  0  0  0  0  0  0  0  0  0  0
  132.6502  133.8125  161.9759 C   0  0  0  0  0  0  0  0  0  0  0  0
  132.8300  134.9933  161.2669 C   0  0  0  0  0  0  0  0  0  0  0  0
  133.8528  135.8752  161.6236 N   0  0  0  0  0  0  0  0  0  0  0  0
  134.7374  135.5551  162.7467 C   0  0  0  0  0  0  0  0  0  0  0  0
  135.7620  136.6773  162.9245 C   0  0  0  0  0  0  0  0  0  0  0  0
  136.6720  136.3481  164.0799 C   0  0  0  0  0  0  0  0  0  0  0  0
  137.8189  135.6459  163.8691 C   0  0  0  0  0  0  0  0  0  0  0  0
  138.6721  135.3318  164.9249 C   0  0  0  0  0  0  0  0  0  0  0  0
  138.3844  135.7195  166.1978 C   0  0  0  0  0  0  0  0  0  0  0  0
  137.2098  136.4464  166.4542 C   0  0  0  0  0  0  0  0  0  0  0  0
  136.8784  136.8631  167.7550 C   0  0  0  0  0  0  0  0  0  0  0  0
  135.7313  137.5643  167.9656 C   0  0  0  0  0  0  0  0  0  0  0  0
  134.8774  137.8779  166.9096 C   0  0  0  0  0  0  0  0  0  0  0  0
  135.1657  137.4912  165.6370 C   0  0  0  0  0  0  0  0  0  0  0  0
  136.3413  136.7649  165.3803 C   0  0  0  0  0  0  0  0  0  0  0  0
  131.9938  135.2925  160.1985 C   0  0  0  0  0  0  0  0  0  0  0  0
  128.3614  135.1417  160.6400 H   0  0  0  0  0  0  0  0  0  0  0  0
  127.2227  132.0807  159.2643 H   0  0  0  0  0  0  0  0  0  0  0  0
  125.0091  131.0856  159.6655 H   0  0  0  0  0  0  0  0  0  0  0  0
  123.2747  132.3689  160.8482 H   0  0  0  0  0  0  0  0  0  0  0  0
  123.8380  135.6847  162.0492 H   0  0  0  0  0  0  0  0  0  0  0  0
  125.9761  135.6549  161.2524 H   0  0  0  0  0  0  0  0  0  0  0  0
  130.0131  132.5645  160.2845 H   0  0  0  0  0  0  0  0  0  0  0  0
  131.4914  132.0291  162.1775 H   0  0  0  0  0  0  0  0  0  0  0  0
  133.3013  133.5748  162.8041 H   0  0  0  0  0  0  0  0  0  0  0  0
  133.9775  136.6993  161.1276 H   0  0  0  0  0  0  0  0  0  0  0  0
  135.2561  134.6179  162.5451 H   0  0  0  0  0  0  0  0  0  0  0  0
  134.1466  135.4548  163.6573 H   0  0  0  0  0  0  0  0  0  0  0  0
  135.2433  137.6144  163.1263 H   0  0  0  0  0  0  0  0  0  0  0  0
  136.3526  136.7777  162.0140 H   0  0  0  0  0  0  0  0  0  0  0  0
  138.0710  135.3271  162.8685 H   0  0  0  0  0  0  0  0  0  0  0  0
  139.5757  134.7731  164.7305 H   0  0  0  0  0  0  0  0  0  0  0  0
  139.0579  135.4734  167.0053 H   0  0  0  0  0  0  0  0  0  0  0  0
  137.5304  136.6273  168.5832 H   0  0  0  0  0  0  0  0  0  0  0  0
  135.4790  137.8829  168.9663 H   0  0  0  0  0  0  0  0  0  0  0  0
  133.9734  138.4358  167.1041 H   0  0  0  0  0  0  0  0  0  0  0  0
  134.4947  137.7413  164.8286 H   0  0  0  0  0  0  0  0  0  0  0  0
  132.1337  136.2077  159.6423 H   0  0  0  0  0  0  0  0  0  0  0  0
  1  2  1  0
  1  3  1  0
  1  4  1  0
  1  5  1  0
  5  6  1  6
  5  7  1  0
  5 17  1  0
  7  8  2  0
  7  9  1  0
  9 10  1  0
  9 36  1  0
 10 16  1  0
 10 11  2  0
 11 12  1  0
 11 37  1  0
 12 13  2  0
 12 38  1  0
 13 14  1  0
 13 39  1  0
 14 15  1  0
 14 16  2  0
 15 40  1  0
 16 41  1  0
 17 35  1  0
 17 18  2  0
 18 19  1  0
 18 42  1  0
 19 20  2  0
 19 43  1  0
 20 21  1  0
 20 44  1  0
 21 22  1  0
 21 35  2  0
 22 23  1  0
 22 45  1  0
 23 24  1  0
 23 46  1  0
 23 47  1  0
 24 25  1  0
 24 48  1  0
 24 49  1  0
 25 34  1  0
 25 26  2  0
 26 27  1  0
 26 50  1  0
 27 28  2  0
 27 51  1  0
 28 29  1  0
 28 52  1  0
 29 34  2  0
 29 30  1  0
 30 31  2  0
 30 53  1  0
 31 32  1  0
 31 54  1  0
 32 33  2  0
 32 55  1  0
 33 34  1  0
 33 56  1  0
 35 57  1  0
M  CHG  1   1   1
M  END
>  <DOCK_score>  (1) 
-49.959328

>  <SMILES>  (1) 
[NH3+][C@@H](C(=O)Nc1cccc(O)c1)c1cccc(NCCc2cccc3ccccc23)c1

$$$$
