Nc1ccc(-c2c[nH]c(N[C@@H](/C=C/c3ccccc3)C3CCc4ccccc4C3)[nH+]2)cc1
     RDKit          3D

 61 65  0  0  1  0  0  0  0  0999 V2000
  134.4140  140.7208  161.2849 N   0  0  0  0  0  0  0  0  0  0  0  0
  133.9865  139.4020  161.1138 C   0  0  0  0  0  0  0  0  0  0  0  0
  134.2307  138.7433  159.9146 C   0  0  0  0  0  0  0  0  0  0  0  0
  133.8092  137.4417  159.7433 C   0  0  0  0  0  0  0  0  0  0  0  0
  133.1380  136.7861  160.7743 C   0  0  0  0  0  0  0  0  0  0  0  0
  132.6832  135.3858  160.5923 C   0  0  0  0  0  0  0  0  0  0  0  0
  132.5628  134.4527  161.5688 C   0  0  0  0  0  0  0  0  0  0  0  0
  132.1134  133.3014  160.9667 N   0  0  0  0  0  0  0  0  0  0  0  0
  131.9304  132.4565  161.4067 H   0  0  0  0  0  0  0  0  0  0  0  0
  131.9727  133.5660  159.6393 C   0  0  0  0  0  0  0  0  0  0  0  0
  131.5401  132.6672  158.6794 N   0  0  0  0  0  0  0  0  0  0  0  0
  130.8179  133.1475  157.4987 C   0  0  1  0  0  0  0  0  0  0  0  0
  131.2712  134.0745  157.1476 H   0  0  0  0  0  0  0  0  0  0  0  0
  130.8898  132.1091  156.4091 C   0  0  0  0  0  0  0  0  0  0  0  0
  130.8673  132.4808  155.1367 C   0  0  0  0  0  0  0  0  0  0  0  0
  130.9377  131.4622  154.0679 C   0  0  0  0  0  0  0  0  0  0  0  0
  131.4364  130.1889  154.3452 C   0  0  0  0  0  0  0  0  0  0  0  0
  131.4934  129.2405  153.3446 C   0  0  0  0  0  0  0  0  0  0  0  0
  131.0692  129.5539  152.0657 C   0  0  0  0  0  0  0  0  0  0  0  0
  130.5796  130.8165  151.7826 C   0  0  0  0  0  0  0  0  0  0  0  0
  130.5112  131.7717  152.7758 C   0  0  0  0  0  0  0  0  0  0  0  0
  129.3543  133.4022  157.8647 C   0  0  2  0  0  0  0  0  0  0  0  0
  129.2309  134.7438  158.5966 C   0  0  0  0  0  0  0  0  0  0  0  0
  127.7477  135.0829  158.7329 C   0  0  0  0  0  0  0  0  0  0  0  0
  126.9913  133.9216  159.3234 C   0  0  0  0  0  0  0  0  0  0  0  0
  125.7334  134.1732  159.8561 C   0  0  0  0  0  0  0  0  0  0  0  0
  124.9875  133.1510  160.4053 C   0  0  0  0  0  0  0  0  0  0  0  0
  125.4957  131.8653  160.4267 C   0  0  0  0  0  0  0  0  0  0  0  0
  126.7458  131.6141  159.9006 C   0  0  0  0  0  0  0  0  0  0  0  0
  127.4990  132.6424  159.3483 C   0  0  0  0  0  0  0  0  0  0  0  0
  128.8573  132.2980  158.7955 C   0  0  0  0  0  0  0  0  0  0  0  0
  132.3194  134.8107  159.4188 N   0  0  0  0  0  0  0  0  0  0  0  0
  132.3147  135.2510  158.5544 H   0  0  0  0  0  0  0  0  0  0  0  0
  132.8899  137.4503  161.9745 C   0  0  0  0  0  0  0  0  0  0  0  0
  133.3179  138.7501  162.1433 C   0  0  0  0  0  0  0  0  0  0  0  0
  134.8810  141.1763  160.5669 H   0  0  0  0  0  0  0  0  0  0  0  0
  134.2440  141.1811  162.1215 H   0  0  0  0  0  0  0  0  0  0  0  0
  134.7508  139.2516  159.1159 H   0  0  0  0  0  0  0  0  0  0  0  0
  133.9993  136.9303  158.8112 H   0  0  0  0  0  0  0  0  0  0  0  0
  132.7791  134.5879  162.6182 H   0  0  0  0  0  0  0  0  0  0  0  0
  131.7151  131.7194  158.7885 H   0  0  0  0  0  0  0  0  0  0  0  0
  130.9597  131.0621  156.6646 H   0  0  0  0  0  0  0  0  0  0  0  0
  130.7974  133.5277  154.8812 H   0  0  0  0  0  0  0  0  0  0  0  0
  131.7726  129.9446  155.3421 H   0  0  0  0  0  0  0  0  0  0  0  0
  131.8742  128.2529  153.5592 H   0  0  0  0  0  0  0  0  0  0  0  0
  131.1203  128.8095  151.2847 H   0  0  0  0  0  0  0  0  0  0  0  0
  130.2497  131.0546  150.7823 H   0  0  0  0  0  0  0  0  0  0  0  0
  130.1280  132.7567  152.5538 H   0  0  0  0  0  0  0  0  0  0  0  0
  128.7474  133.4201  156.9595 H   0  0  0  0  0  0  0  0  0  0  0  0
  129.6824  134.6654  159.5857 H   0  0  0  0  0  0  0  0  0  0  0  0
  129.7342  135.5223  158.0234 H   0  0  0  0  0  0  0  0  0  0  0  0
  127.3400  135.3144  157.7489 H   0  0  0  0  0  0  0  0  0  0  0  0
  127.6363  135.9516  159.3817 H   0  0  0  0  0  0  0  0  0  0  0  0
  125.3357  135.1772  159.8398 H   0  0  0  0  0  0  0  0  0  0  0  0
  124.0099  133.3542  160.8168 H   0  0  0  0  0  0  0  0  0  0  0  0
  124.9158  131.0605  160.8537 H   0  0  0  0  0  0  0  0  0  0  0  0
  127.1420  130.6095  159.9177 H   0  0  0  0  0  0  0  0  0  0  0  0
  128.7927  131.3621  158.2406 H   0  0  0  0  0  0  0  0  0  0  0  0
  129.5609  132.1787  159.6194 H   0  0  0  0  0  0  0  0  0  0  0  0
  132.3664  136.9456  162.7732 H   0  0  0  0  0  0  0  0  0  0  0  0
  133.1295  139.2637  163.0744 H   0  0  0  0  0  0  0  0  0  0  0  0
  1  2  1  0
  1 36  1  0
  1 37  1  0
  2 35  2  0
  2  3  1  0
  3  4  2  0
  3 38  1  0
  4  5  1  0
  4 39  1  0
  5  6  1  0
  5 34  2  0
  6 32  1  0
  6  7  2  0
  7  8  1  0
  7 40  1  0
  8  9  1  0
  8 10  1  0
 10 11  1  0
 10 32  2  0
 11 12  1  0
 11 41  1  0
 12 13  1  6
 12 14  1  0
 12 22  1  0
 14 15  2  0
 14 42  1  0
 15 16  1  0
 15 43  1  0
 16 21  1  0
 16 17  2  0
 17 18  1  0
 17 44  1  0
 18 19  2  0
 18 45  1  0
 19 20  1  0
 19 46  1  0
 20 21  2  0
 20 47  1  0
 21 48  1  0
 22 31  1  0
 22 23  1  0
 22 49  1  6
 23 24  1  0
 23 50  1  0
 23 51  1  0
 24 25  1  0
 24 52  1  0
 24 53  1  0
 25 30  2  0
 25 26  1  0
 26 27  2  0
 26 54  1  0
 27 28  1  0
 27 55  1  0
 28 29  2  0
 28 56  1  0
 29 30  1  0
 29 57  1  0
 30 31  1  0
 31 58  1  0
 31 59  1  0
 32 33  1  0
 34 35  1  0
 34 60  1  0
 35 61  1  0
M  CHG  1  32   1
M  END
>  <DOCK_score>  (1) 
-63.243744

>  <SMILES>  (1) 
Nc1ccc(-c2c[nH]c(N[C@@H](/C=C/c3ccccc3)C3CCc4ccccc4C3)[nH+]2)cc1

$$$$
