Nc1ccc(-c2c[nH]c(N[C@@H](CCCBr)c3ccccc3)[nH+]2)cc1
     RDKit          3D

 46 48  0  0  1  0  0  0  0  0999 V2000
  131.8107  129.5104  152.0267 N   0  0  0  0  0  0  0  0  0  0  0  0
  131.4312  130.1877  153.1880 C   0  0  0  0  0  0  0  0  0  0  0  0
  130.6435  131.3300  153.0982 C   0  0  0  0  0  0  0  0  0  0  0  0
  130.2678  132.0010  154.2426 C   0  0  0  0  0  0  0  0  0  0  0  0
  130.6781  131.5334  155.4900 C   0  0  0  0  0  0  0  0  0  0  0  0
  130.2756  132.2540  156.7228 C   0  0  0  0  0  0  0  0  0  0  0  0
  129.5441  131.7422  157.7433 C   0  0  0  0  0  0  0  0  0  0  0  0
  129.4041  132.7436  158.6748 N   0  0  0  0  0  0  0  0  0  0  0  0
  128.9292  132.6815  159.5183 H   0  0  0  0  0  0  0  0  0  0  0  0
  130.0548  133.8380  158.1947 C   0  0  0  0  0  0  0  0  0  0  0  0
  130.1522  135.0627  158.8331 N   0  0  0  0  0  0  0  0  0  0  0  0
  129.0798  135.5113  159.7247 C   0  0  1  0  0  0  0  0  0  0  0  0
  128.9632  134.7978  160.5404 H   0  0  0  0  0  0  0  0  0  0  0  0
  129.4335  136.8858  160.2962 C   0  0  0  0  0  0  0  0  0  0  0  0
  130.4177  136.7182  161.4555 C   0  0  0  0  0  0  0  0  0  0  0  0
  130.7712  138.0928  162.0271 C   0  0  0  0  0  0  0  0  0  0  0  0
  131.5947  139.1945  160.6223 Br  0  0  0  0  0  0  0  0  0  0  0  0
  127.7899  135.6057  158.9512 C   0  0  0  0  0  0  0  0  0  0  0  0
  126.5834  135.3907  159.5907 C   0  0  0  0  0  0  0  0  0  0  0  0
  125.4001  135.4769  158.8812 C   0  0  0  0  0  0  0  0  0  0  0  0
  125.4236  135.7765  157.5318 C   0  0  0  0  0  0  0  0  0  0  0  0
  126.6302  135.9900  156.8922 C   0  0  0  0  0  0  0  0  0  0  0  0
  127.8133  135.9043  157.6018 C   0  0  0  0  0  0  0  0  0  0  0  0
  130.5693  133.5434  157.0257 N   0  0  0  0  0  0  0  0  0  0  0  0
  131.0804  134.1498  156.4672 H   0  0  0  0  0  0  0  0  0  0  0  0
  131.4720  130.3909  155.5771 C   0  0  0  0  0  0  0  0  0  0  0  0
  131.8410  129.7199  154.4302 C   0  0  0  0  0  0  0  0  0  0  0  0
  131.5249  129.8364  151.1591 H   0  0  0  0  0  0  0  0  0  0  0  0
  132.3605  128.7135  152.0883 H   0  0  0  0  0  0  0  0  0  0  0  0
  130.3257  131.6920  152.1315 H   0  0  0  0  0  0  0  0  0  0  0  0
  129.6557  132.8882  154.1726 H   0  0  0  0  0  0  0  0  0  0  0  0
  129.1472  130.7401  157.8111 H   0  0  0  0  0  0  0  0  0  0  0  0
  130.9305  135.6236  158.6900 H   0  0  0  0  0  0  0  0  0  0  0  0
  129.8900  137.4967  159.5173 H   0  0  0  0  0  0  0  0  0  0  0  0
  128.5276  137.3736  160.6563 H   0  0  0  0  0  0  0  0  0  0  0  0
  129.9611  136.1075  162.2344 H   0  0  0  0  0  0  0  0  0  0  0  0
  131.3235  136.2306  161.0955 H   0  0  0  0  0  0  0  0  0  0  0  0
  129.8655  138.5806  162.3871 H   0  0  0  0  0  0  0  0  0  0  0  0
  131.4725  137.9735  162.8530 H   0  0  0  0  0  0  0  0  0  0  0  0
  126.5650  135.1571  160.6449 H   0  0  0  0  0  0  0  0  0  0  0  0
  124.4572  135.3145  159.3820 H   0  0  0  0  0  0  0  0  0  0  0  0
  124.4991  135.8433  156.9775 H   0  0  0  0  0  0  0  0  0  0  0  0
  126.6486  136.2233  155.8378 H   0  0  0  0  0  0  0  0  0  0  0  0
  128.7562  136.0704  157.1018 H   0  0  0  0  0  0  0  0  0  0  0  0
  131.7945  130.0291  156.5422 H   0  0  0  0  0  0  0  0  0  0  0  0
  132.4526  128.8324  154.4974 H   0  0  0  0  0  0  0  0  0  0  0  0
  1  2  1  0
  1 28  1  0
  1 29  1  0
  2 27  2  0
  2  3  1  0
  3  4  2  0
  3 30  1  0
  4  5  1  0
  4 31  1  0
  5  6  1  0
  5 26  2  0
  6 24  1  0
  6  7  2  0
  7  8  1  0
  7 32  1  0
  8  9  1  0
  8 10  1  0
 10 11  1  0
 10 24  2  0
 11 12  1  0
 11 33  1  0
 12 13  1  1
 12 14  1  0
 12 18  1  0
 14 15  1  0
 14 34  1  0
 14 35  1  0
 15 16  1  0
 15 36  1  0
 15 37  1  0
 16 17  1  0
 16 38  1  0
 16 39  1  0
 18 23  1  0
 18 19  2  0
 19 20  1  0
 19 40  1  0
 20 21  2  0
 20 41  1  0
 21 22  1  0
 21 42  1  0
 22 23  2  0
 22 43  1  0
 23 44  1  0
 24 25  1  0
 26 27  1  0
 26 45  1  0
 27 46  1  0
M  CHG  1  24   1
M  END
>  <DOCK_score>  (1) 
-60.107082

>  <SMILES>  (1) 
Nc1ccc(-c2c[nH]c(N[C@@H](CCCBr)c3ccccc3)[nH+]2)cc1

$$$$
