C=C=CCSc1cccc(C=C[C@@H](Nc2[nH]cc(-c3ccc(N)cc3)[nH+]2)c2ccccc2F)c1C
     RDKit          3D

 63 66  0  0  1  0  0  0  0  0999 V2000
  125.4455  141.1528  163.7131 C   0  0  0  0  0  0  0  0  0  0  0  0
  126.2497  141.4357  164.7038 C   0  0  0  0  0  0  0  0  0  0  0  0
  127.0540  141.7185  165.6945 C   0  0  0  0  0  0  0  0  0  0  0  0
  128.3929  142.3537  165.4202 C   0  0  0  0  0  0  0  0  0  0  0  0
  129.6386  141.0575  165.1776 S   0  0  0  0  0  0  0  0  0  0  0  0
  129.5714  140.7632  163.4417 C   0  0  0  0  0  0  0  0  0  0  0  0
  129.8447  141.7950  162.5500 C   0  0  0  0  0  0  0  0  0  0  0  0
  129.7934  141.5687  161.1880 C   0  0  0  0  0  0  0  0  0  0  0  0
  129.4696  140.3172  160.7031 C   0  0  0  0  0  0  0  0  0  0  0  0
  129.1940  139.2749  161.5893 C   0  0  0  0  0  0  0  0  0  0  0  0
  128.8477  137.9341  161.0722 C   0  0  0  0  0  0  0  0  0  0  0  0
  129.8034  137.0438  160.8458 C   0  0  0  0  0  0  0  0  0  0  0  0
  129.4504  135.6769  160.3187 C   0  0  1  0  0  0  0  0  0  0  0  0
  128.3707  135.6060  160.1866 H   0  0  0  0  0  0  0  0  0  0  0  0
  130.1151  135.4636  159.0308 N   0  0  0  0  0  0  0  0  0  0  0  0
  129.9390  134.2710  158.3501 C   0  0  0  0  0  0  0  0  0  0  0  0
  129.1781  133.2238  158.7696 N   0  0  0  0  0  0  0  0  0  0  0  0
  128.6654  133.1791  159.5918 H   0  0  0  0  0  0  0  0  0  0  0  0
  129.2700  132.2410  157.8127 C   0  0  0  0  0  0  0  0  0  0  0  0
  130.0837  132.7165  156.8377 C   0  0  0  0  0  0  0  0  0  0  0  0
  130.4735  131.9990  155.5991 C   0  0  0  0  0  0  0  0  0  0  0  0
  130.7492  132.7149  154.4352 C   0  0  0  0  0  0  0  0  0  0  0  0
  131.1171  132.0463  153.2866 C   0  0  0  0  0  0  0  0  0  0  0  0
  131.2016  130.6594  153.2855 C   0  0  0  0  0  0  0  0  0  0  0  0
  131.5688  129.9841  152.1191 N   0  0  0  0  0  0  0  0  0  0  0  0
  130.9218  129.9429  154.4435 C   0  0  0  0  0  0  0  0  0  0  0  0
  130.5591  130.6076  155.5959 C   0  0  0  0  0  0  0  0  0  0  0  0
  130.4784  133.9641  157.1954 N   0  0  0  0  0  0  0  0  0  0  0  0
  131.0658  134.5377  156.6790 H   0  0  0  0  0  0  0  0  0  0  0  0
  129.9063  134.6272  161.2993 C   0  0  0  0  0  0  0  0  0  0  0  0
  131.2450  134.5229  161.6276 C   0  0  0  0  0  0  0  0  0  0  0  0
  131.6634  133.5605  162.5274 C   0  0  0  0  0  0  0  0  0  0  0  0
  130.7438  132.7010  163.0995 C   0  0  0  0  0  0  0  0  0  0  0  0
  129.4053  132.8031  162.7722 C   0  0  0  0  0  0  0  0  0  0  0  0
  128.9840  133.7710  161.8757 C   0  0  0  0  0  0  0  0  0  0  0  0
  127.6746  133.8756  161.5597 F   0  0  0  0  0  0  0  0  0  0  0  0
  129.2405  139.5036  162.9638 C   0  0  0  0  0  0  0  0  0  0  0  0
  128.9376  138.3851  163.9272 C   0  0  0  0  0  0  0  0  0  0  0  0
  124.7257  141.8842  163.3762 H   0  0  0  0  0  0  0  0  0  0  0  0
  125.5008  140.1878  163.2314 H   0  0  0  0  0  0  0  0  0  0  0  0
  126.7591  141.4970  166.7095 H   0  0  0  0  0  0  0  0  0  0  0  0
  128.6787  142.9786  166.2662 H   0  0  0  0  0  0  0  0  0  0  0  0
  128.3268  142.9669  164.5215 H   0  0  0  0  0  0  0  0  0  0  0  0
  130.0979  142.7763  162.9235 H   0  0  0  0  0  0  0  0  0  0  0  0
  130.0066  142.3737  160.5003 H   0  0  0  0  0  0  0  0  0  0  0  0
  129.4301  140.1447  159.6377 H   0  0  0  0  0  0  0  0  0  0  0  0
  127.8160  137.6798  160.8788 H   0  0  0  0  0  0  0  0  0  0  0  0
  130.8350  137.2980  161.0394 H   0  0  0  0  0  0  0  0  0  0  0  0
  130.6785  136.1580  158.6549 H   0  0  0  0  0  0  0  0  0  0  0  0
  128.7899  131.2738  157.8354 H   0  0  0  0  0  0  0  0  0  0  0  0
  130.6792  133.7926  154.4342 H   0  0  0  0  0  0  0  0  0  0  0  0
  131.3349  132.6009  152.3857 H   0  0  0  0  0  0  0  0  0  0  0  0
  131.6276  129.0153  152.1177 H   0  0  0  0  0  0  0  0  0  0  0  0
  131.7635  130.4825  151.3106 H   0  0  0  0  0  0  0  0  0  0  0  0
  130.9883  128.8650  154.4406 H   0  0  0  0  0  0  0  0  0  0  0  0
  130.3420  130.0508  156.4954 H   0  0  0  0  0  0  0  0  0  0  0  0
  131.9640  135.1938  161.1815 H   0  0  0  0  0  0  0  0  0  0  0  0
  132.7094  133.4797  162.7834 H   0  0  0  0  0  0  0  0  0  0  0  0
  131.0719  131.9492  163.8019 H   0  0  0  0  0  0  0  0  0  0  0  0
  128.6871  132.1314  163.2189 H   0  0  0  0  0  0  0  0  0  0  0  0
  129.8586  137.8546  164.1692 H   0  0  0  0  0  0  0  0  0  0  0  0
  128.5057  138.7978  164.8389 H   0  0  0  0  0  0  0  0  0  0  0  0
  128.2295  137.6939  163.4702 H   0  0  0  0  0  0  0  0  0  0  0  0
  1  2  2  0
  1 39  1  0
  1 40  1  0
  2  3  2  0
  3  4  1  0
  3 41  1  0
  4  5  1  0
  4 42  1  0
  4 43  1  0
  5  6  1  0
  6 37  2  0
  6  7  1  0
  7  8  2  0
  7 44  1  0
  8  9  1  0
  8 45  1  0
  9 10  2  0
  9 46  1  0
 10 11  1  0
 10 37  1  0
 11 12  2  0
 11 47  1  0
 12 13  1  0
 12 48  1  0
 13 14  1  6
 13 15  1  0
 13 30  1  0
 15 49  1  0
 16 15  1  0
 16 28  2  0
 16 17  1  0
 17 18  1  0
 17 19  1  0
 19 20  2  0
 19 50  1  0
 20 21  1  0
 20 28  1  0
 21 27  1  0
 21 22  2  0
 22 23  1  0
 22 51  1  0
 23 24  2  0
 23 52  1  0
 24 25  1  0
 24 26  1  0
 25 53  1  0
 25 54  1  0
 26 27  2  0
 26 55  1  0
 27 56  1  0
 28 29  1  0
 30 35  1  0
 30 31  2  0
 31 32  1  0
 31 57  1  0
 32 33  2  0
 32 58  1  0
 33 34  1  0
 33 59  1  0
 34 35  2  0
 34 60  1  0
 35 36  1  0
 37 38  1  0
 38 61  1  0
 38 62  1  0
 38 63  1  0
M  CHG  1  28   1
M  END
>  <DOCK_score>  (1) 
-59.553467

>  <SMILES>  (1) 
C=C=CCSc1cccc(C=C[C@@H](Nc2[nH]cc(-c3ccc(N)cc3)[nH+]2)c2ccccc2F)c1C

$$$$
