Cc1c(OCC2=CCCCC2)cccc1N1CC[NH+]([C@@H](c2ccccc2)c2ccccn2)CC1
     RDKit          3D

 70 74  0  0  1  0  0  0  0  0999 V2000
  133.4463  135.8292  164.0172 C   0  0  0  0  0  0  0  0  0  0  0  0
  134.0989  136.6658  162.9471 C   0  0  0  0  0  0  0  0  0  0  0  0
  135.1242  137.5385  163.2768 C   0  0  0  0  0  0  0  0  0  0  0  0
  135.5423  137.6403  164.5659 O   0  0  0  0  0  0  0  0  0  0  0  0
  136.5938  136.7647  164.9778 C   0  0  0  0  0  0  0  0  0  0  0  0
  137.4076  137.4302  166.0577 C   0  0  0  0  0  0  0  0  0  0  0  0
  138.6625  137.1254  166.1467 C   0  0  0  0  0  0  0  0  0  0  0  0
  139.5968  137.7005  167.1708 C   0  0  0  0  0  0  0  0  0  0  0  0
  138.9880  138.9583  167.7943 C   0  0  0  0  0  0  0  0  0  0  0  0
  137.5503  138.6398  168.2238 C   0  0  0  0  0  0  0  0  0  0  0  0
  136.7114  138.4004  166.9667 C   0  0  0  0  0  0  0  0  0  0  0  0
  135.7200  138.3121  162.2907 C   0  0  0  0  0  0  0  0  0  0  0  0
  135.2959  138.2099  160.9792 C   0  0  0  0  0  0  0  0  0  0  0  0
  134.2785  137.3374  160.6455 C   0  0  0  0  0  0  0  0  0  0  0  0
  133.6786  136.5599  161.6287 C   0  0  0  0  0  0  0  0  0  0  0  0
  132.6501  135.6771  161.2915 N   0  0  0  0  0  0  0  0  0  0  0  0
  131.4816  136.4029  160.7741 C   0  0  0  0  0  0  0  0  0  0  0  0
  130.3588  135.4076  160.4731 C   0  0  0  0  0  0  0  0  0  0  0  0
  130.8253  134.4274  159.4838 N   0  0  0  0  0  0  0  0  0  0  0  0
  131.0984  134.9066  158.6389 H   0  0  0  0  0  0  0  0  0  0  0  0
  129.7414  133.4828  159.1821 C   0  0  1  0  0  0  0  0  0  0  0  0
  129.4458  132.9654  160.0949 H   0  0  0  0  0  0  0  0  0  0  0  0
  128.5600  134.2349  158.6257 C   0  0  0  0  0  0  0  0  0  0  0  0
  127.2787  133.7575  158.8290 C   0  0  0  0  0  0  0  0  0  0  0  0
  126.1948  134.4498  158.3223 C   0  0  0  0  0  0  0  0  0  0  0  0
  126.3926  135.6142  157.6041 C   0  0  0  0  0  0  0  0  0  0  0  0
  127.6742  136.0891  157.3968 C   0  0  0  0  0  0  0  0  0  0  0  0
  128.7579  135.3992  157.9071 C   0  0  0  0  0  0  0  0  0  0  0  0
  130.2198  132.4769  158.1670 C   0  0  0  0  0  0  0  0  0  0  0  0
  130.6475  132.9095  156.9258 C   0  0  0  0  0  0  0  0  0  0  0  0
  131.0861  131.9762  155.9994 C   0  0  0  0  0  0  0  0  0  0  0  0
  131.0781  130.6365  156.3577 C   0  0  0  0  0  0  0  0  0  0  0  0
  130.6364  130.2790  157.6172 C   0  0  0  0  0  0  0  0  0  0  0  0
  130.2308  131.1949  158.4751 N   0  0  0  0  0  0  0  0  0  0  0  0
  131.9772  133.6936  160.0245 C   0  0  0  0  0  0  0  0  0  0  0  0
  133.1134  134.6747  160.3215 C   0  0  0  0  0  0  0  0  0  0  0  0
  133.9795  134.8836  164.1148 H   0  0  0  0  0  0  0  0  0  0  0  0
  133.4782  136.3640  164.9665 H   0  0  0  0  0  0  0  0  0  0  0  0
  132.4091  135.6349  163.7444 H   0  0  0  0  0  0  0  0  0  0  0  0
  136.1661  135.8393  165.3635 H   0  0  0  0  0  0  0  0  0  0  0  0
  137.2352  136.5409  164.1255 H   0  0  0  0  0  0  0  0  0  0  0  0
  139.0629  136.4159  165.4378 H   0  0  0  0  0  0  0  0  0  0  0  0
  140.5444  137.9547  166.6962 H   0  0  0  0  0  0  0  0  0  0  0  0
  139.7729  136.9596  167.9506 H   0  0  0  0  0  0  0  0  0  0  0  0
  138.9813  139.7643  167.0605 H   0  0  0  0  0  0  0  0  0  0  0  0
  139.5720  139.2594  168.6639 H   0  0  0  0  0  0  0  0  0  0  0  0
  137.1402  139.4807  168.7831 H   0  0  0  0  0  0  0  0  0  0  0  0
  137.5433  137.7442  168.8450 H   0  0  0  0  0  0  0  0  0  0  0  0
  136.5666  139.3455  166.4434 H   0  0  0  0  0  0  0  0  0  0  0  0
  135.7416  137.9942  167.2538 H   0  0  0  0  0  0  0  0  0  0  0  0
  136.5156  138.9954  162.5484 H   0  0  0  0  0  0  0  0  0  0  0  0
  135.7613  138.8132  160.2137 H   0  0  0  0  0  0  0  0  0  0  0  0
  133.9494  137.2591  159.6199 H   0  0  0  0  0  0  0  0  0  0  0  0
  131.7558  136.9291  159.8597 H   0  0  0  0  0  0  0  0  0  0  0  0
  131.1405  137.1216  161.5193 H   0  0  0  0  0  0  0  0  0  0  0  0
  129.4960  135.9423  160.0761 H   0  0  0  0  0  0  0  0  0  0  0  0
  130.0755  134.8914  161.3905 H   0  0  0  0  0  0  0  0  0  0  0  0
  127.1243  132.8456  159.3865 H   0  0  0  0  0  0  0  0  0  0  0  0
  125.1935  134.0789  158.4846 H   0  0  0  0  0  0  0  0  0  0  0  0
  125.5459  136.1532  157.2053 H   0  0  0  0  0  0  0  0  0  0  0  0
  127.8289  136.9988  156.8357 H   0  0  0  0  0  0  0  0  0  0  0  0
  129.7592  135.7698  157.7449 H   0  0  0  0  0  0  0  0  0  0  0  0
  130.6404  133.9613  156.6809 H   0  0  0  0  0  0  0  0  0  0  0  0
  131.4263  132.2850  155.0220 H   0  0  0  0  0  0  0  0  0  0  0  0
  131.4133  129.8821  155.6613 H   0  0  0  0  0  0  0  0  0  0  0  0
  130.6272  129.2378  157.9040 H   0  0  0  0  0  0  0  0  0  0  0  0
  131.6855  133.1861  160.9439 H   0  0  0  0  0  0  0  0  0  0  0  0
  132.3141  132.9576  159.2945 H   0  0  0  0  0  0  0  0  0  0  0  0
  133.4145  135.1725  159.3997 H   0  0  0  0  0  0  0  0  0  0  0  0
  133.9629  134.1324  160.7366 H   0  0  0  0  0  0  0  0  0  0  0  0
  1  2  1  0
  1 37  1  0
  1 38  1  0
  1 39  1  0
  2 15  2  0
  2  3  1  0
  3  4  1  0
  3 12  2  0
  4  5  1  0
  5  6  1  0
  5 40  1  0
  5 41  1  0
  6 11  1  0
  6  7  2  0
  7  8  1  0
  7 42  1  0
  8  9  1  0
  8 43  1  0
  8 44  1  0
  9 10  1  0
  9 45  1  0
  9 46  1  0
 10 11  1  0
 10 47  1  0
 10 48  1  0
 11 49  1  0
 11 50  1  0
 12 13  1  0
 12 51  1  0
 13 14  2  0
 13 52  1  0
 14 15  1  0
 14 53  1  0
 15 16  1  0
 16 36  1  0
 16 17  1  0
 17 18  1  0
 17 54  1  0
 17 55  1  0
 18 19  1  0
 18 56  1  0
 18 57  1  0
 19 20  1  0
 19 21  1  0
 19 35  1  0
 21 22  1  1
 21 23  1  0
 21 29  1  0
 23 28  1  0
 23 24  2  0
 24 25  1  0
 24 58  1  0
 25 26  2  0
 25 59  1  0
 26 27  1  0
 26 60  1  0
 27 28  2  0
 27 61  1  0
 28 62  1  0
 29 34  1  0
 29 30  2  0
 30 31  1  0
 30 63  1  0
 31 32  2  0
 31 64  1  0
 32 33  1  0
 32 65  1  0
 33 34  2  0
 33 66  1  0
 35 36  1  0
 35 67  1  0
 35 68  1  0
 36 69  1  0
 36 70  1  0
M  CHG  1  19   1
M  END
>  <DOCK_score>  (1) 
-57.893745

>  <SMILES>  (1) 
Cc1c(OCC2=CCCCC2)cccc1N1CC[NH+]([C@@H](c2ccccc2)c2ccccn2)CC1

$$$$
