CC1=CC(=C[C@H](Cc2ccccc2)[NH2+]C2CN(C(c3ccccc3)c3ccccc3)C2)CC1
     RDKit          3D

 68 72  0  0  1  0  0  0  0  0999 V2000
  130.5320  139.4354  164.6452 C   0  0  0  0  0  0  0  0  0  0  0  0
  130.6649  139.5368  163.1476 C   0  0  0  0  0  0  0  0  0  0  0  0
  131.5850  138.9184  162.4325 C   0  0  0  0  0  0  0  0  0  0  0  0
  131.4646  139.2131  160.9997 C   0  0  0  0  0  0  0  0  0  0  0  0
  132.2442  138.7437  160.0315 C   0  0  0  0  0  0  0  0  0  0  0  0
  133.3863  137.8188  160.3654 C   0  0  2  0  0  0  0  0  0  0  0  0
  133.4151  137.6510  161.4420 H   0  0  0  0  0  0  0  0  0  0  0  0
  134.7038  138.4515  159.9125 C   0  0  0  0  0  0  0  0  0  0  0  0
  135.1467  139.4719  160.9293 C   0  0  0  0  0  0  0  0  0  0  0  0
  134.7458  140.7891  160.8063 C   0  0  0  0  0  0  0  0  0  0  0  0
  135.1481  141.7241  161.7417 C   0  0  0  0  0  0  0  0  0  0  0  0
  135.9599  141.3440  162.7940 C   0  0  0  0  0  0  0  0  0  0  0  0
  136.3652  140.0278  162.9139 C   0  0  0  0  0  0  0  0  0  0  0  0
  135.9586  139.0918  161.9815 C   0  0  0  0  0  0  0  0  0  0  0  0
  133.1959  136.5365  159.6746 N   0  0  0  0  0  0  0  0  0  0  0  0
  132.8457  136.7048  158.7435 H   0  0  0  0  0  0  0  0  0  0  0  0
  134.0782  136.0500  159.6194 H   0  0  0  0  0  0  0  0  0  0  0  0
  132.2310  135.7174  160.4201 C   0  0  0  0  0  0  0  0  0  0  0  0
  131.8970  134.3785  159.7377 C   0  0  0  0  0  0  0  0  0  0  0  0
  130.4930  134.6476  160.1192 N   0  0  0  0  0  0  0  0  0  0  0  0
  129.5761  134.3149  159.0209 C   0  0  0  0  0  0  0  0  0  0  0  0
  129.7120  132.8537  158.6781 C   0  0  0  0  0  0  0  0  0  0  0  0
  130.6255  132.4500  157.7222 C   0  0  0  0  0  0  0  0  0  0  0  0
  130.7531  131.1093  157.4106 C   0  0  0  0  0  0  0  0  0  0  0  0
  129.9613  130.1731  158.0493 C   0  0  0  0  0  0  0  0  0  0  0  0
  129.0440  130.5772  159.0009 C   0  0  0  0  0  0  0  0  0  0  0  0
  128.9193  131.9176  159.3152 C   0  0  0  0  0  0  0  0  0  0  0  0
  128.1587  134.6014  159.4454 C   0  0  0  0  0  0  0  0  0  0  0  0
  127.2180  134.9777  158.5051 C   0  0  0  0  0  0  0  0  0  0  0  0
  125.9171  135.2365  158.8939 C   0  0  0  0  0  0  0  0  0  0  0  0
  125.5588  135.1272  160.2246 C   0  0  0  0  0  0  0  0  0  0  0  0
  126.5007  134.7561  161.1658 C   0  0  0  0  0  0  0  0  0  0  0  0
  127.8006  134.4934  160.7763 C   0  0  0  0  0  0  0  0  0  0  0  0
  130.7626  136.1017  160.1628 C   0  0  0  0  0  0  0  0  0  0  0  0
  130.2842  140.1454  160.8281 C   0  0  0  0  0  0  0  0  0  0  0  0
  129.7604  140.3540  162.2600 C   0  0  0  0  0  0  0  0  0  0  0  0
  129.8765  138.6013  164.8963 H   0  0  0  0  0  0  0  0  0  0  0  0
  131.5148  139.2707  165.0869 H   0  0  0  0  0  0  0  0  0  0  0  0
  130.1085  140.3606  165.0359 H   0  0  0  0  0  0  0  0  0  0  0  0
  132.3411  138.2722  162.8531 H   0  0  0  0  0  0  0  0  0  0  0  0
  132.0593  139.0249  159.0053 H   0  0  0  0  0  0  0  0  0  0  0  0
  135.4654  137.6773  159.8191 H   0  0  0  0  0  0  0  0  0  0  0  0
  134.5604  138.9383  158.9479 H   0  0  0  0  0  0  0  0  0  0  0  0
  134.1152  141.0869  159.9818 H   0  0  0  0  0  0  0  0  0  0  0  0
  134.8318  142.7525  161.6478 H   0  0  0  0  0  0  0  0  0  0  0  0
  136.2779  142.0754  163.5223 H   0  0  0  0  0  0  0  0  0  0  0  0
  136.9996  139.7309  163.7358 H   0  0  0  0  0  0  0  0  0  0  0  0
  136.2753  138.0636  162.0751 H   0  0  0  0  0  0  0  0  0  0  0  0
  132.4810  135.6228  161.4769 H   0  0  0  0  0  0  0  0  0  0  0  0
  132.0675  134.3797  158.6612 H   0  0  0  0  0  0  0  0  0  0  0  0
  132.3293  133.5113  160.2370 H   0  0  0  0  0  0  0  0  0  0  0  0
  129.8223  134.9177  158.1467 H   0  0  0  0  0  0  0  0  0  0  0  0
  131.2418  133.1819  157.2212 H   0  0  0  0  0  0  0  0  0  0  0  0
  131.4693  130.7937  156.6666 H   0  0  0  0  0  0  0  0  0  0  0  0
  130.0590  129.1259  157.8036 H   0  0  0  0  0  0  0  0  0  0  0  0
  128.4253  129.8458  159.4993 H   0  0  0  0  0  0  0  0  0  0  0  0
  128.2027  132.2333  160.0590 H   0  0  0  0  0  0  0  0  0  0  0  0
  127.4989  135.0663  157.4659 H   0  0  0  0  0  0  0  0  0  0  0  0
  125.1813  135.5269  158.1585 H   0  0  0  0  0  0  0  0  0  0  0  0
  124.5429  135.3322  160.5288 H   0  0  0  0  0  0  0  0  0  0  0  0
  126.2208  134.6710  162.2054 H   0  0  0  0  0  0  0  0  0  0  0  0
  128.5366  134.2034  161.5117 H   0  0  0  0  0  0  0  0  0  0  0  0
  130.2886  136.6114  161.0016 H   0  0  0  0  0  0  0  0  0  0  0  0
  130.6018  136.6087  159.2114 H   0  0  0  0  0  0  0  0  0  0  0  0
  130.6060  141.0936  160.3974 H   0  0  0  0  0  0  0  0  0  0  0  0
  129.5201  139.6830  160.2034 H   0  0  0  0  0  0  0  0  0  0  0  0
  129.8179  141.4079  162.5323 H   0  0  0  0  0  0  0  0  0  0  0  0
  128.7325  140.0003  162.3401 H   0  0  0  0  0  0  0  0  0  0  0  0
  1  2  1  0
  1 37  1  0
  1 38  1  0
  1 39  1  0
  2 36  1  0
  2  3  2  0
  3  4  1  0
  3 40  1  0
  4  5  2  0
  4 35  1  0
  5  6  1  0
  5 41  1  0
  6  7  1  1
  6  8  1  0
  6 15  1  0
  8  9  1  0
  8 42  1  0
  8 43  1  0
  9 14  1  0
  9 10  2  0
 10 11  1  0
 10 44  1  0
 11 12  2  0
 11 45  1  0
 12 13  1  0
 12 46  1  0
 13 14  2  0
 13 47  1  0
 14 48  1  0
 15 16  1  0
 15 17  1  0
 15 18  1  0
 18 34  1  0
 18 19  1  0
 18 49  1  0
 19 20  1  0
 19 50  1  0
 19 51  1  0
 20 21  1  0
 20 34  1  0
 21 22  1  0
 21 28  1  0
 21 52  1  0
 22 27  1  0
 22 23  2  0
 23 24  1  0
 23 53  1  0
 24 25  2  0
 24 54  1  0
 25 26  1  0
 25 55  1  0
 26 27  2  0
 26 56  1  0
 27 57  1  0
 28 33  1  0
 28 29  2  0
 29 30  1  0
 29 58  1  0
 30 31  2  0
 30 59  1  0
 31 32  1  0
 31 60  1  0
 32 33  2  0
 32 61  1  0
 33 62  1  0
 34 63  1  0
 34 64  1  0
 35 36  1  0
 35 65  1  0
 35 66  1  0
 36 67  1  0
 36 68  1  0
M  CHG  1  15   1
M  END
>  <DOCK_score>  (1) 
-56.339058

>  <SMILES>  (1) 
CC1=CC(=C[C@H](Cc2ccccc2)[NH2+]C2CN(C(c3ccccc3)c3ccccc3)C2)CC1

$$$$
