Cn1nccc1C[C@@H](Nc1[nH]cc(-c2ccc(N)cc2)[nH+]1)c1ccnn1-c1ccc(F)cc1
     RDKit          3D

 57 61  0  0  1  0  0  0  0  0999 V2000
  128.5204  136.0001  157.7099 C   0  0  0  0  0  0  0  0  0  0  0  0
  127.9486  135.0245  158.6414 N   0  0  0  0  0  0  0  0  0  0  0  0
  126.9791  134.0614  158.3338 N   0  0  0  0  0  0  0  0  0  0  0  0
  126.7185  133.3819  159.4211 C   0  0  0  0  0  0  0  0  0  0  0  0
  127.5164  133.8864  160.4533 C   0  0  0  0  0  0  0  0  0  0  0  0
  128.2653  134.8932  159.9466 C   0  0  0  0  0  0  0  0  0  0  0  0
  129.2683  135.7232  160.7056 C   0  0  0  0  0  0  0  0  0  0  0  0
  130.6467  135.0652  160.6159 C   0  0  1  0  0  0  0  0  0  0  0  0
  130.6010  134.0657  161.0481 H   0  0  0  0  0  0  0  0  0  0  0  0
  131.0530  134.9720  159.2116 N   0  0  0  0  0  0  0  0  0  0  0  0
  130.7255  133.8502  158.4693 C   0  0  0  0  0  0  0  0  0  0  0  0
  130.0334  132.7716  158.9266 N   0  0  0  0  0  0  0  0  0  0  0  0
  129.6835  132.6513  159.8232 H   0  0  0  0  0  0  0  0  0  0  0  0
  129.9220  131.8836  157.8828 C   0  0  0  0  0  0  0  0  0  0  0  0
  130.5437  132.4481  156.8183 C   0  0  0  0  0  0  0  0  0  0  0  0
  130.6712  131.8531  155.4653 C   0  0  0  0  0  0  0  0  0  0  0  0
  130.7344  132.6778  154.3432 C   0  0  0  0  0  0  0  0  0  0  0  0
  130.8588  132.1226  153.0871 C   0  0  0  0  0  0  0  0  0  0  0  0
  130.9093  130.7420  152.9382 C   0  0  0  0  0  0  0  0  0  0  0  0
  131.0292  130.1819  151.6640 N   0  0  0  0  0  0  0  0  0  0  0  0
  130.8410  129.9174  154.0553 C   0  0  0  0  0  0  0  0  0  0  0  0
  130.7224  130.4683  155.3139 C   0  0  0  0  0  0  0  0  0  0  0  0
  131.0316  133.6517  157.2103 N   0  0  0  0  0  0  0  0  0  0  0  0
  131.5249  134.2688  156.6474 H   0  0  0  0  0  0  0  0  0  0  0  0
  131.6497  135.8952  161.3750 C   0  0  0  0  0  0  0  0  0  0  0  0
  132.7596  136.4739  160.8602 C   0  0  0  0  0  0  0  0  0  0  0  0
  133.4109  137.1531  161.8956 C   0  0  0  0  0  0  0  0  0  0  0  0
  132.7222  136.9813  162.9952 N   0  0  0  0  0  0  0  0  0  0  0  0
  131.6058  136.1907  162.6936 N   0  0  0  0  0  0  0  0  0  0  0  0
  130.6173  135.7784  163.5993 C   0  0  0  0  0  0  0  0  0  0  0  0
  129.8645  136.7227  164.2840 C   0  0  0  0  0  0  0  0  0  0  0  0
  128.8879  136.3148  165.1711 C   0  0  0  0  0  0  0  0  0  0  0  0
  128.6668  134.9647  165.3861 C   0  0  0  0  0  0  0  0  0  0  0  0
  127.7145  134.5676  166.2581 F   0  0  0  0  0  0  0  0  0  0  0  0
  129.4206  134.0213  164.7082 C   0  0  0  0  0  0  0  0  0  0  0  0
  130.3943  134.4255  163.8161 C   0  0  0  0  0  0  0  0  0  0  0  0
  129.4020  135.5727  157.2321 H   0  0  0  0  0  0  0  0  0  0  0  0
  127.7815  136.2526  156.9494 H   0  0  0  0  0  0  0  0  0  0  0  0
  128.8032  136.9005  158.2550 H   0  0  0  0  0  0  0  0  0  0  0  0
  126.0094  132.5719  159.5071 H   0  0  0  0  0  0  0  0  0  0  0  0
  127.5318  133.5347  161.4744 H   0  0  0  0  0  0  0  0  0  0  0  0
  128.9661  135.7926  161.7505 H   0  0  0  0  0  0  0  0  0  0  0  0
  129.3141  136.7227  160.2733 H   0  0  0  0  0  0  0  0  0  0  0  0
  131.5515  135.6962  158.8017 H   0  0  0  0  0  0  0  0  0  0  0  0
  129.4293  130.9228  157.9052 H   0  0  0  0  0  0  0  0  0  0  0  0
  130.6901  133.7507  154.4578 H   0  0  0  0  0  0  0  0  0  0  0  0
  130.9122  132.7613  152.2178 H   0  0  0  0  0  0  0  0  0  0  0  0
  131.0642  129.2177  151.5597 H   0  0  0  0  0  0  0  0  0  0  0  0
  131.0764  130.7559  150.8842 H   0  0  0  0  0  0  0  0  0  0  0  0
  130.8806  128.8445  153.9374 H   0  0  0  0  0  0  0  0  0  0  0  0
  130.6694  129.8274  156.1814 H   0  0  0  0  0  0  0  0  0  0  0  0
  133.0842  136.4221  159.8315 H   0  0  0  0  0  0  0  0  0  0  0  0
  134.3267  137.7182  161.8042 H   0  0  0  0  0  0  0  0  0  0  0  0
  130.0397  137.7758  164.1199 H   0  0  0  0  0  0  0  0  0  0  0  0
  128.2991  137.0492  165.7007 H   0  0  0  0  0  0  0  0  0  0  0  0
  129.2469  132.9689  164.8774 H   0  0  0  0  0  0  0  0  0  0  0  0
  130.9817  133.6894  163.2873 H   0  0  0  0  0  0  0  0  0  0  0  0
  1  2  1  0
  1 37  1  0
  1 38  1  0
  1 39  1  0
  2  6  1  0
  2  3  1  0
  3  4  2  0
  4  5  1  0
  4 40  1  0
  5  6  2  0
  5 41  1  0
  6  7  1  0
  7  8  1  0
  7 42  1  0
  7 43  1  0
  8  9  1  1
  8 10  1  0
  8 25  1  0
 10 44  1  0
 11 10  1  0
 11 23  2  0
 11 12  1  0
 12 13  1  0
 12 14  1  0
 14 15  2  0
 14 45  1  0
 15 16  1  0
 15 23  1  0
 16 22  1  0
 16 17  2  0
 17 18  1  0
 17 46  1  0
 18 19  2  0
 18 47  1  0
 19 20  1  0
 19 21  1  0
 20 48  1  0
 20 49  1  0
 21 22  2  0
 21 50  1  0
 22 51  1  0
 23 24  1  0
 25 29  1  0
 25 26  2  0
 26 27  1  0
 26 52  1  0
 27 28  2  0
 27 53  1  0
 28 29  1  0
 29 30  1  0
 30 36  1  0
 30 31  2  0
 31 32  1  0
 31 54  1  0
 32 33  2  0
 32 55  1  0
 33 34  1  0
 33 35  1  0
 35 36  2  0
 35 56  1  0
 36 57  1  0
M  CHG  1  23   1
M  END
>  <DOCK_score>  (1) 
-61.366631

>  <SMILES>  (1) 
Cn1nccc1C[C@@H](Nc1[nH]cc(-c2ccc(N)cc2)[nH+]1)c1ccnn1-c1ccc(F)cc1

$$$$
