N#CC1CCCCC[C@H]1[NH2+]CC=CNC1=C(C(=O)C2=CCC2)CC(=O)N1c1ccccc1
     RDKit          3D

 63 66  0  0  1  0  0  0  0  0999 V2000
  134.0863  139.7526  158.1729 N   0  0  0  0  0  0  0  0  0  0  0  0
  134.1957  139.7706  159.3034 C   0  0  0  0  0  0  0  0  0  0  0  0
  134.3378  139.7939  160.7684 C   0  0  2  0  0  0  0  0  0  0  0  0
  135.7397  140.3118  161.1492 C   0  0  0  0  0  0  0  0  0  0  0  0
  135.7997  140.7932  162.5213 C   0  0  0  0  0  0  0  0  0  0  0  0
  135.4956  139.6828  163.5476 C   0  0  0  0  0  0  0  0  0  0  0  0
  134.0040  139.5002  163.6267 C   0  0  0  0  0  0  0  0  0  0  0  0
  133.4968  138.3826  162.6953 C   0  0  0  0  0  0  0  0  0  0  0  0
  134.1787  138.4006  161.3139 C   0  0  1  0  0  0  0  0  0  0  0  0
  135.1636  137.9421  161.4025 H   0  0  0  0  0  0  0  0  0  0  0  0
  133.3705  137.6117  160.3745 N   0  0  0  0  0  0  0  0  0  0  0  0
  133.8341  137.5768  159.4790 H   0  0  0  0  0  0  0  0  0  0  0  0
  132.4640  138.0419  160.2673 H   0  0  0  0  0  0  0  0  0  0  0  0
  133.2069  136.2477  160.8949 C   0  0  0  0  0  0  0  0  0  0  0  0
  132.3777  135.4386  159.9311 C   0  0  0  0  0  0  0  0  0  0  0  0
  131.0642  135.4068  160.0559 C   0  0  0  0  0  0  0  0  0  0  0  0
  130.2914  134.7470  159.1070 N   0  0  0  0  0  0  0  0  0  0  0  0
  128.9267  134.7140  159.2366 C   0  0  0  0  0  0  0  0  0  0  0  0
  128.1380  133.6953  158.7845 C   0  0  0  0  0  0  0  0  0  0  0  0
  128.5579  132.5292  158.1232 C   0  0  0  0  0  0  0  0  0  0  0  0
  128.3261  131.4348  158.6101 O   0  0  0  0  0  0  0  0  0  0  0  0
  129.2788  132.6278  156.8412 C   0  0  0  0  0  0  0  0  0  0  0  0
  129.6758  133.6256  156.0574 C   0  0  0  0  0  0  0  0  0  0  0  0
  130.3255  132.7975  154.9782 C   0  0  0  0  0  0  0  0  0  0  0  0
  129.8683  131.6389  155.8677 C   0  0  0  0  0  0  0  0  0  0  0  0
  126.7164  134.0809  159.1417 C   0  0  0  0  0  0  0  0  0  0  0  0
  126.8713  135.4180  159.8370 C   0  0  0  0  0  0  0  0  0  0  0  0
  125.9837  136.1019  160.3006 O   0  0  0  0  0  0  0  0  0  0  0  0
  128.1872  135.6987  159.8362 N   0  0  0  0  0  0  0  0  0  0  0  0
  128.7381  136.8615  160.3903 C   0  0  0  0  0  0  0  0  0  0  0  0
  128.5611  137.1411  161.7389 C   0  0  0  0  0  0  0  0  0  0  0  0
  129.1051  138.2884  162.2821 C   0  0  0  0  0  0  0  0  0  0  0  0
  129.8256  139.1585  161.4844 C   0  0  0  0  0  0  0  0  0  0  0  0
  129.9989  138.8857  160.1398 C   0  0  0  0  0  0  0  0  0  0  0  0
  129.4622  137.7370  159.5920 C   0  0  0  0  0  0  0  0  0  0  0  0
  133.5773  140.4449  161.1997 H   0  0  0  0  0  0  0  0  0  0  0  0
  136.4600  139.5030  161.0271 H   0  0  0  0  0  0  0  0  0  0  0  0
  136.0095  141.1266  160.4772 H   0  0  0  0  0  0  0  0  0  0  0  0
  136.7973  141.1880  162.7136 H   0  0  0  0  0  0  0  0  0  0  0  0
  135.0740  141.5970  162.6454 H   0  0  0  0  0  0  0  0  0  0  0  0
  135.9621  138.7510  163.2280 H   0  0  0  0  0  0  0  0  0  0  0  0
  135.8843  139.9705  164.5245 H   0  0  0  0  0  0  0  0  0  0  0  0
  133.7328  139.2539  164.6532 H   0  0  0  0  0  0  0  0  0  0  0  0
  133.5190  140.4365  163.3508 H   0  0  0  0  0  0  0  0  0  0  0  0
  132.4218  138.5002  162.5582 H   0  0  0  0  0  0  0  0  0  0  0  0
  133.6852  137.4186  163.1679 H   0  0  0  0  0  0  0  0  0  0  0  0
  132.7060  136.2856  161.8623 H   0  0  0  0  0  0  0  0  0  0  0  0
  134.1861  135.7832  161.0106 H   0  0  0  0  0  0  0  0  0  0  0  0
  132.8584  134.8848  159.1383 H   0  0  0  0  0  0  0  0  0  0  0  0
  130.5896  135.8932  160.8954 H   0  0  0  0  0  0  0  0  0  0  0  0
  130.7177  134.3101  158.3531 H   0  0  0  0  0  0  0  0  0  0  0  0
  129.5663  134.6951  156.1611 H   0  0  0  0  0  0  0  0  0  0  0  0
  131.4073  132.9113  154.9090 H   0  0  0  0  0  0  0  0  0  0  0  0
  129.8225  132.8484  154.0125 H   0  0  0  0  0  0  0  0  0  0  0  0
  130.6964  131.0669  156.2861 H   0  0  0  0  0  0  0  0  0  0  0  0
  129.1191  131.0038  155.3951 H   0  0  0  0  0  0  0  0  0  0  0  0
  126.1091  134.1811  158.2421 H   0  0  0  0  0  0  0  0  0  0  0  0
  126.2788  133.3468  159.8182 H   0  0  0  0  0  0  0  0  0  0  0  0
  127.9989  136.4618  162.3624 H   0  0  0  0  0  0  0  0  0  0  0  0
  128.9675  138.5065  163.3308 H   0  0  0  0  0  0  0  0  0  0  0  0
  130.2500  140.0551  161.9115 H   0  0  0  0  0  0  0  0  0  0  0  0
  130.5582  139.5693  159.5185 H   0  0  0  0  0  0  0  0  0  0  0  0
  129.6012  137.5226  158.5427 H   0  0  0  0  0  0  0  0  0  0  0  0
  1  2  3  0
  2  3  1  0
  3  9  1  0
  3  4  1  0
  3 36  1  1
  4  5  1  0
  4 37  1  0
  4 38  1  0
  5  6  1  0
  5 39  1  0
  5 40  1  0
  6  7  1  0
  6 41  1  0
  6 42  1  0
  7  8  1  0
  7 43  1  0
  7 44  1  0
  8  9  1  0
  8 45  1  0
  8 46  1  0
  9 10  1  1
  9 11  1  0
 11 12  1  0
 11 13  1  0
 11 14  1  0
 14 15  1  0
 14 47  1  0
 14 48  1  0
 15 16  2  0
 15 49  1  0
 16 17  1  0
 16 50  1  0
 17 18  1  0
 17 51  1  0
 18 29  1  0
 18 19  2  0
 19 20  1  0
 19 26  1  0
 20 21  2  0
 20 22  1  0
 22 25  1  0
 22 23  2  0
 23 24  1  0
 23 52  1  0
 24 25  1  0
 24 53  1  0
 24 54  1  0
 25 55  1  0
 25 56  1  0
 26 27  1  0
 26 57  1  0
 26 58  1  0
 27 28  2  0
 27 29  1  0
 29 30  1  0
 30 35  1  0
 30 31  2  0
 31 32  1  0
 31 59  1  0
 32 33  2  0
 32 60  1  0
 33 34  1  0
 33 61  1  0
 34 35  2  0
 34 62  1  0
 35 63  1  0
M  CHG  1  11   1
M  END
>  <DOCK_score>  (1) 
-43.160873

>  <SMILES>  (1) 
N#CC1CCCCC[C@H]1[NH2+]CC=CNC1=C(C(=O)C2=CCC2)CC(=O)N1c1ccccc1

$$$$
