Fc1ccccc1[C@@H]1CCC[NH+]1CCc1ccc(Nc2cccc3ccccc23)cc1
     RDKit          3D

 59 63  0  0  1  0  0  0  0  0999 V2000
  129.3234  133.1155  161.5101 F   0  0  0  0  0  0  0  0  0  0  0  0
  128.3858  132.2374  161.0918 C   0  0  0  0  0  0  0  0  0  0  0  0
  127.2783  131.9778  161.8817 C   0  0  0  0  0  0  0  0  0  0  0  0
  126.3229  131.0749  161.4557 C   0  0  0  0  0  0  0  0  0  0  0  0
  126.4693  130.4355  160.2386 C   0  0  0  0  0  0  0  0  0  0  0  0
  127.5712  130.6985  159.4465 C   0  0  0  0  0  0  0  0  0  0  0  0
  128.5283  131.6009  159.8708 C   0  0  0  0  0  0  0  0  0  0  0  0
  129.7298  131.8871  159.0072 C   0  0  2  0  0  0  0  0  0  0  0  0
  129.6891  131.3071  158.0852 H   0  0  0  0  0  0  0  0  0  0  0  0
  131.0406  131.5948  159.7798 C   0  0  0  0  0  0  0  0  0  0  0  0
  132.0746  132.4878  159.0565 C   0  0  0  0  0  0  0  0  0  0  0  0
  131.2446  133.5857  158.3657 C   0  0  0  0  0  0  0  0  0  0  0  0
  129.8273  133.3389  158.7094 N   0  0  1  0  0  0  0  0  0  0  0  0
  129.5667  133.8797  159.5204 H   0  0  0  0  0  0  0  0  0  0  0  0
  128.9632  133.6820  157.5721 C   0  0  0  0  0  0  0  0  0  0  0  0
  128.6778  135.1851  157.5835 C   0  0  0  0  0  0  0  0  0  0  0  0
  127.9855  135.5552  158.8699 C   0  0  0  0  0  0  0  0  0  0  0  0
  128.7323  135.9226  159.9744 C   0  0  0  0  0  0  0  0  0  0  0  0
  128.1013  136.2624  161.1548 C   0  0  0  0  0  0  0  0  0  0  0  0
  126.7144  136.2347  161.2320 C   0  0  0  0  0  0  0  0  0  0  0  0
  126.0726  136.5779  162.4244 N   0  0  0  0  0  0  0  0  0  0  0  0
  126.7015  136.3453  163.6459 C   0  0  0  0  0  0  0  0  0  0  0  0
  127.0598  135.0647  164.0116 C   0  0  0  0  0  0  0  0  0  0  0  0
  127.6881  134.8220  165.2290 C   0  0  0  0  0  0  0  0  0  0  0  0
  127.9652  135.8382  166.0921 C   0  0  0  0  0  0  0  0  0  0  0  0
  127.6161  137.1577  165.7581 C   0  0  0  0  0  0  0  0  0  0  0  0
  127.8908  138.2261  166.6293 C   0  0  0  0  0  0  0  0  0  0  0  0
  127.5403  139.4923  166.2738 C   0  0  0  0  0  0  0  0  0  0  0  0
  126.9114  139.7472  165.0569 C   0  0  0  0  0  0  0  0  0  0  0  0
  126.6299  138.7368  164.1885 C   0  0  0  0  0  0  0  0  0  0  0  0
  126.9769  137.4182  164.5209 C   0  0  0  0  0  0  0  0  0  0  0  0
  125.9673  135.8594  160.1222 C   0  0  0  0  0  0  0  0  0  0  0  0
  126.6048  135.5269  158.9431 C   0  0  0  0  0  0  0  0  0  0  0  0
  127.1636  132.4773  162.8322 H   0  0  0  0  0  0  0  0  0  0  0  0
  125.4614  130.8689  162.0734 H   0  0  0  0  0  0  0  0  0  0  0  0
  125.7220  129.7302  159.9062 H   0  0  0  0  0  0  0  0  0  0  0  0
  127.6841  130.1990  158.4957 H   0  0  0  0  0  0  0  0  0  0  0  0
  131.3125  130.5427  159.6939 H   0  0  0  0  0  0  0  0  0  0  0  0
  130.9470  131.8832  160.8267 H   0  0  0  0  0  0  0  0  0  0  0  0
  132.6241  131.9067  158.3159 H   0  0  0  0  0  0  0  0  0  0  0  0
  132.7634  132.9306  159.7760 H   0  0  0  0  0  0  0  0  0  0  0  0
  131.3800  133.5293  157.2857 H   0  0  0  0  0  0  0  0  0  0  0  0
  131.5488  134.5680  158.7271 H   0  0  0  0  0  0  0  0  0  0  0  0
  128.0246  133.1334  157.6503 H   0  0  0  0  0  0  0  0  0  0  0  0
  129.4641  133.4144  156.6417 H   0  0  0  0  0  0  0  0  0  0  0  0
  128.0366  135.4396  156.7397 H   0  0  0  0  0  0  0  0  0  0  0  0
  129.6164  135.7337  157.5053 H   0  0  0  0  0  0  0  0  0  0  0  0
  129.8105  135.9443  159.9135 H   0  0  0  0  0  0  0  0  0  0  0  0
  128.6851  136.5496  162.0168 H   0  0  0  0  0  0  0  0  0  0  0  0
  125.1894  136.9781  162.4021 H   0  0  0  0  0  0  0  0  0  0  0  0
  126.8509  134.2409  163.3450 H   0  0  0  0  0  0  0  0  0  0  0  0
  127.9599  133.8110  165.4940 H   0  0  0  0  0  0  0  0  0  0  0  0
  128.4491  135.6295  167.0348 H   0  0  0  0  0  0  0  0  0  0  0  0
  128.3777  138.0434  167.5759 H   0  0  0  0  0  0  0  0  0  0  0  0
  127.7526  140.3114  166.9448 H   0  0  0  0  0  0  0  0  0  0  0  0
  126.6435  140.7610  164.7983 H   0  0  0  0  0  0  0  0  0  0  0  0
  126.1423  138.9490  163.2485 H   0  0  0  0  0  0  0  0  0  0  0  0
  124.8893  135.8323  160.1803 H   0  0  0  0  0  0  0  0  0  0  0  0
  126.0246  135.2402  158.0787 H   0  0  0  0  0  0  0  0  0  0  0  0
  1  2  1  0
  2  7  2  0
  2  3  1  0
  3  4  2  0
  3 34  1  0
  4  5  1  0
  4 35  1  0
  5  6  2  0
  5 36  1  0
  6  7  1  0
  6 37  1  0
  7  8  1  0
  8  9  1  6
  8 13  1  0
  8 10  1  0
 10 11  1  0
 10 38  1  0
 10 39  1  0
 11 12  1  0
 11 40  1  0
 11 41  1  0
 12 13  1  0
 12 42  1  0
 12 43  1  0
 13 14  1  1
 13 15  1  0
 15 16  1  0
 15 44  1  0
 15 45  1  0
 16 17  1  0
 16 46  1  0
 16 47  1  0
 17 33  1  0
 17 18  2  0
 18 19  1  0
 18 48  1  0
 19 20  2  0
 19 49  1  0
 20 21  1  0
 20 32  1  0
 21 22  1  0
 21 50  1  0
 22 31  1  0
 22 23  2  0
 23 24  1  0
 23 51  1  0
 24 25  2  0
 24 52  1  0
 25 26  1  0
 25 53  1  0
 26 31  2  0
 26 27  1  0
 27 28  2  0
 27 54  1  0
 28 29  1  0
 28 55  1  0
 29 30  2  0
 29 56  1  0
 30 31  1  0
 30 57  1  0
 32 33  2  0
 32 58  1  0
 33 59  1  0
M  CHG  1  13   1
M  END
>  <DOCK_score>  (1) 
-43.884315

>  <SMILES>  (1) 
Fc1ccccc1[C@@H]1CCC[NH+]1CCc1ccc(Nc2cccc3ccccc23)cc1

$$$$
