CCn1ncnc1C(C)Nc1cccc(CC[N@H+]2CCC(c3c[nH]c4ccccc34)C2)c1
     RDKit          3D

 65 69  0  0  1  0  0  0  0  0999 V2000
  129.0774  139.2202  167.4834 C   0  0  0  0  0  0  0  0  0  0  0  0
  127.5710  139.2811  167.7447 C   0  0  0  0  0  0  0  0  0  0  0  0
  126.9173  138.1384  167.1019 N   0  0  0  0  0  0  0  0  0  0  0  0
  126.6768  136.8769  167.6703 N   0  0  0  0  0  0  0  0  0  0  0  0
  126.0801  136.1582  166.7559 C   0  0  0  0  0  0  0  0  0  0  0  0
  125.9295  136.8954  165.6564 N   0  0  0  0  0  0  0  0  0  0  0  0
  126.4257  138.0901  165.8516 C   0  0  0  0  0  0  0  0  0  0  0  0
  126.4481  139.2140  164.8479 C   0  0  2  0  0  0  0  0  0  0  0  0
  125.1769  140.0531  164.9933 C   0  0  0  0  0  0  0  0  0  0  0  0
  126.5141  138.6584  163.4940 N   0  0  0  0  0  0  0  0  0  0  0  0
  127.5921  138.9711  162.6626 C   0  0  0  0  0  0  0  0  0  0  0  0
  128.2387  140.1940  162.7913 C   0  0  0  0  0  0  0  0  0  0  0  0
  129.3039  140.5000  161.9677 C   0  0  0  0  0  0  0  0  0  0  0  0
  129.7275  139.5907  161.0156 C   0  0  0  0  0  0  0  0  0  0  0  0
  129.0865  138.3724  160.8852 C   0  0  0  0  0  0  0  0  0  0  0  0
  129.5518  137.3845  159.8466 C   0  0  0  0  0  0  0  0  0  0  0  0
  130.6124  136.4655  160.4559 C   0  0  0  0  0  0  0  0  0  0  0  0
  131.0661  135.5025  159.4436 N   0  0  1  0  0  0  0  0  0  0  0  0
  131.4624  135.9978  158.6590 H   0  0  0  0  0  0  0  0  0  0  0  0
  132.0810  134.6079  160.0295 C   0  0  0  0  0  0  0  0  0  0  0  0
  131.5456  133.1653  159.9061 C   0  0  0  0  0  0  0  0  0  0  0  0
  130.5167  133.2727  158.7498 C   0  0  1  0  0  0  0  0  0  0  0  0
  129.4540  132.2114  158.8726 C   0  0  0  0  0  0  0  0  0  0  0  0
  129.1733  131.2546  157.9737 C   0  0  0  0  0  0  0  0  0  0  0  0
  128.1494  130.4708  158.4313 N   0  0  0  0  0  0  0  0  0  0  0  0
  127.7717  129.7141  157.9561 H   0  0  0  0  0  0  0  0  0  0  0  0
  127.7297  130.9209  159.6629 C   0  0  0  0  0  0  0  0  0  0  0  0
  126.7446  130.5013  160.5512 C   0  0  0  0  0  0  0  0  0  0  0  0
  126.5660  131.1717  161.7413 C   0  0  0  0  0  0  0  0  0  0  0  0
  127.3591  132.2643  162.0644 C   0  0  0  0  0  0  0  0  0  0  0  0
  128.3319  132.6936  161.2066 C   0  0  0  0  0  0  0  0  0  0  0  0
  128.5306  132.0286  159.9950 C   0  0  0  0  0  0  0  0  0  0  0  0
  129.9226  134.6833  158.9886 C   0  0  0  0  0  0  0  0  0  0  0  0
  128.0167  138.0623  161.7019 C   0  0  0  0  0  0  0  0  0  0  0  0
  129.2616  139.2531  166.4096 H   0  0  0  0  0  0  0  0  0  0  0  0
  129.5637  140.0704  167.9617 H   0  0  0  0  0  0  0  0  0  0  0  0
  129.4800  138.2937  167.8929 H   0  0  0  0  0  0  0  0  0  0  0  0
  127.1684  140.2075  167.3353 H   0  0  0  0  0  0  0  0  0  0  0  0
  127.3870  139.2481  168.8185 H   0  0  0  0  0  0  0  0  0  0  0  0
  125.7613  135.1329  166.8728 H   0  0  0  0  0  0  0  0  0  0  0  0
  127.3206  139.8426  165.0257 H   0  0  0  0  0  0  0  0  0  0  0  0
  125.1931  140.8659  164.2674 H   0  0  0  0  0  0  0  0  0  0  0  0
  124.3043  139.4244  164.8157 H   0  0  0  0  0  0  0  0  0  0  0  0
  125.1277  140.4665  166.0007 H   0  0  0  0  0  0  0  0  0  0  0  0
  125.8095  138.0732  163.1750 H   0  0  0  0  0  0  0  0  0  0  0  0
  127.9082  140.9047  163.5343 H   0  0  0  0  0  0  0  0  0  0  0  0
  129.8068  141.4506  162.0670 H   0  0  0  0  0  0  0  0  0  0  0  0
  130.5609  139.8325  160.3726 H   0  0  0  0  0  0  0  0  0  0  0  0
  129.9794  137.9216  159.0000 H   0  0  0  0  0  0  0  0  0  0  0  0
  128.7050  136.7876  159.5079 H   0  0  0  0  0  0  0  0  0  0  0  0
  130.1847  135.9283  161.3025 H   0  0  0  0  0  0  0  0  0  0  0  0
  131.4591  137.0624  160.7948 H   0  0  0  0  0  0  0  0  0  0  0  0
  133.0190  134.7026  159.4826 H   0  0  0  0  0  0  0  0  0  0  0  0
  132.2364  134.8600  161.0785 H   0  0  0  0  0  0  0  0  0  0  0  0
  131.0565  132.8556  160.8296 H   0  0  0  0  0  0  0  0  0  0  0  0
  132.3488  132.4765  159.6444 H   0  0  0  0  0  0  0  0  0  0  0  0
  131.0117  133.2166  157.7803 H   0  0  0  0  0  0  0  0  0  0  0  0
  129.6827  131.1211  157.0309 H   0  0  0  0  0  0  0  0  0  0  0  0
  126.1223  129.6526  160.3088 H   0  0  0  0  0  0  0  0  0  0  0  0
  125.8012  130.8439  162.4299 H   0  0  0  0  0  0  0  0  0  0  0  0
  127.2062  132.7788  163.0015 H   0  0  0  0  0  0  0  0  0  0  0  0
  128.9449  133.5446  161.4646 H   0  0  0  0  0  0  0  0  0  0  0  0
  129.5134  135.0845  158.0614 H   0  0  0  0  0  0  0  0  0  0  0  0
  129.1526  134.6452  159.7591 H   0  0  0  0  0  0  0  0  0  0  0  0
  127.5136  137.1124  161.5965 H   0  0  0  0  0  0  0  0  0  0  0  0
  1  2  1  0
  1 35  1  0
  1 36  1  0
  1 37  1  0
  2  3  1  0
  2 38  1  0
  2 39  1  0
  3  7  1  0
  3  4  1  0
  4  5  2  0
  5  6  1  0
  5 40  1  0
  6  7  2  0
  7  8  1  0
  8  9  1  0
  8 10  1  0
  8 41  1  1
  9 42  1  0
  9 43  1  0
  9 44  1  0
 10 11  1  0
 10 45  1  0
 11 34  1  0
 11 12  2  0
 12 13  1  0
 12 46  1  0
 13 14  2  0
 13 47  1  0
 14 15  1  0
 14 48  1  0
 15 16  1  0
 15 34  2  0
 16 17  1  0
 16 49  1  0
 16 50  1  0
 17 18  1  0
 17 51  1  0
 17 52  1  0
 18 19  1  6
 18 33  1  0
 18 20  1  0
 20 21  1  0
 20 53  1  0
 20 54  1  0
 21 22  1  0
 21 55  1  0
 21 56  1  0
 22 23  1  0
 22 33  1  0
 22 57  1  6
 23 32  1  0
 23 24  2  0
 24 25  1  0
 24 58  1  0
 25 26  1  0
 25 27  1  0
 27 32  2  0
 27 28  1  0
 28 29  2  0
 28 59  1  0
 29 30  1  0
 29 60  1  0
 30 31  2  0
 30 61  1  0
 31 32  1  0
 31 62  1  0
 33 63  1  0
 33 64  1  0
 34 65  1  0
M  CHG  1  18   1
M  END
>  <DOCK_score>  (1) 
-47.410553

>  <SMILES>  (1) 
CCn1ncnc1C(C)Nc1cccc(CC[N@H+]2CCC(c3c[nH]c4ccccc34)C2)c1

$$$$
