Nc1ccc(-c2c[nH]c(Nc3cc(N)cnc3NCCCC(F)F)[nH+]2)cc1
     RDKit          3D

 49 51  0  0  1  0  0  0  0  0999 V2000
  131.5878  129.4437  151.5778 N   0  0  0  0  0  0  0  0  0  0  0  0
  131.2197  130.1537  152.7232 C   0  0  0  0  0  0  0  0  0  0  0  0
  130.4529  131.3071  152.6083 C   0  0  0  0  0  0  0  0  0  0  0  0
  130.0885  132.0095  153.7375 C   0  0  0  0  0  0  0  0  0  0  0  0
  130.4898  131.5618  154.9952 C   0  0  0  0  0  0  0  0  0  0  0  0
  130.0990  132.3157  156.2116 C   0  0  0  0  0  0  0  0  0  0  0  0
  129.3581  131.8386  157.2424 C   0  0  0  0  0  0  0  0  0  0  0  0
  129.2346  132.8618  158.1518 N   0  0  0  0  0  0  0  0  0  0  0  0
  128.7584  132.8258  158.9961 H   0  0  0  0  0  0  0  0  0  0  0  0
  129.9045  133.9346  157.6488 C   0  0  0  0  0  0  0  0  0  0  0  0
  130.0226  135.1713  158.2608 N   0  0  0  0  0  0  0  0  0  0  0  0
  129.0045  135.6360  159.1028 C   0  0  0  0  0  0  0  0  0  0  0  0
  127.6859  135.2573  158.8885 C   0  0  0  0  0  0  0  0  0  0  0  0
  126.7078  135.7458  159.7525 C   0  0  0  0  0  0  0  0  0  0  0  0
  125.3649  135.3913  159.5748 N   0  0  0  0  0  0  0  0  0  0  0  0
  127.0794  136.5875  160.7898 C   0  0  0  0  0  0  0  0  0  0  0  0
  128.3437  136.9245  160.9696 N   0  0  0  0  0  0  0  0  0  0  0  0
  129.3010  136.4875  160.1696 C   0  0  0  0  0  0  0  0  0  0  0  0
  130.6219  136.8762  160.3966 N   0  0  0  0  0  0  0  0  0  0  0  0
  130.9418  137.7642  161.5171 C   0  0  0  0  0  0  0  0  0  0  0  0
  132.3563  137.4646  162.0173 C   0  0  0  0  0  0  0  0  0  0  0  0
  132.4354  136.0087  162.4815 C   0  0  0  0  0  0  0  0  0  0  0  0
  133.8500  135.7092  162.9818 C   0  0  0  0  0  0  0  0  0  0  0  0
  133.9223  134.3781  163.4062 F   0  0  0  0  0  0  0  0  0  0  0  0
  134.7654  135.9183  161.9447 F   0  0  0  0  0  0  0  0  0  0  0  0
  130.4147  133.6057  156.4868 N   0  0  0  0  0  0  0  0  0  0  0  0
  130.9368  134.1909  155.9159 H   0  0  0  0  0  0  0  0  0  0  0  0
  131.2637  130.4079  155.1077 C   0  0  0  0  0  0  0  0  0  0  0  0
  131.6207  129.7053  153.9762 C   0  0  0  0  0  0  0  0  0  0  0  0
  131.3082  129.7559  150.7030 H   0  0  0  0  0  0  0  0  0  0  0  0
  132.1230  128.6386  151.6573 H   0  0  0  0  0  0  0  0  0  0  0  0
  130.1426  131.6538  151.6335 H   0  0  0  0  0  0  0  0  0  0  0  0
  129.4923  132.9055  153.6477 H   0  0  0  0  0  0  0  0  0  0  0  0
  128.9443  130.8450  157.3317 H   0  0  0  0  0  0  0  0  0  0  0  0
  130.8106  135.7155  158.1064 H   0  0  0  0  0  0  0  0  0  0  0  0
  127.4246  134.6005  158.0720 H   0  0  0  0  0  0  0  0  0  0  0  0
  125.1110  134.8023  158.8470 H   0  0  0  0  0  0  0  0  0  0  0  0
  124.6885  135.7345  160.1794 H   0  0  0  0  0  0  0  0  0  0  0  0
  126.3256  136.9691  161.4624 H   0  0  0  0  0  0  0  0  0  0  0  0
  131.3282  136.5584  159.8127 H   0  0  0  0  0  0  0  0  0  0  0  0
  130.2285  137.6013  162.3250 H   0  0  0  0  0  0  0  0  0  0  0  0
  130.8854  138.8013  161.1862 H   0  0  0  0  0  0  0  0  0  0  0  0
  133.0696  137.6275  161.2094 H   0  0  0  0  0  0  0  0  0  0  0  0
  132.5944  138.1251  162.8510 H   0  0  0  0  0  0  0  0  0  0  0  0
  131.7222  135.8458  163.2895 H   0  0  0  0  0  0  0  0  0  0  0  0
  132.1973  135.3482  161.6479 H   0  0  0  0  0  0  0  0  0  0  0  0
  134.0881  136.3699  163.8153 H   0  0  0  0  0  0  0  0  0  0  0  0
  131.5798  130.0620  156.0808 H   0  0  0  0  0  0  0  0  0  0  0  0
  132.2162  128.8085  154.0632 H   0  0  0  0  0  0  0  0  0  0  0  0
  1  2  1  0
  1 30  1  0
  1 31  1  0
  2 29  2  0
  2  3  1  0
  3  4  2  0
  3 32  1  0
  4  5  1  0
  4 33  1  0
  5  6  1  0
  5 28  2  0
  6 26  1  0
  6  7  2  0
  7  8  1  0
  7 34  1  0
  8  9  1  0
  8 10  1  0
 10 11  1  0
 10 26  2  0
 11 12  1  0
 11 35  1  0
 12 18  1  0
 12 13  2  0
 13 14  1  0
 13 36  1  0
 14 15  1  0
 14 16  2  0
 15 37  1  0
 15 38  1  0
 16 17  1  0
 16 39  1  0
 17 18  2  0
 18 19  1  0
 19 20  1  0
 19 40  1  0
 20 21  1  0
 20 41  1  0
 20 42  1  0
 21 22  1  0
 21 43  1  0
 21 44  1  0
 22 23  1  0
 22 45  1  0
 22 46  1  0
 23 24  1  0
 23 25  1  0
 23 47  1  0
 26 27  1  0
 28 29  1  0
 28 48  1  0
 29 49  1  0
M  CHG  1  26   1
M  END
>  <DOCK_score>  (1) 
-57.805752

>  <SMILES>  (1) 
Nc1ccc(-c2c[nH]c(Nc3cc(N)cnc3NCCCC(F)F)[nH+]2)cc1

$$$$
