O=C(CCc1c[nH+]c(NC[C@H]2CC=CC[C@H]2CC2=CCC=CC2)[nH]1)NCC1=CCCCC1
     RDKit          3D

 71 74  0  0  1  0  0  0  0  0999 V2000
  127.8295  134.2092  162.8559 O   0  0  0  0  0  0  0  0  0  0  0  0
  126.9591  134.7976  162.2501 C   0  0  0  0  0  0  0  0  0  0  0  0
  126.1877  134.0918  161.1647 C   0  0  0  0  0  0  0  0  0  0  0  0
  127.0786  133.0331  160.5118 C   0  0  0  0  0  0  0  0  0  0  0  0
  128.2927  133.6969  159.9148 C   0  0  0  0  0  0  0  0  0  0  0  0
  128.4094  134.1747  158.6642 C   0  0  0  0  0  0  0  0  0  0  0  0
  129.6429  134.6886  158.5218 N   0  0  0  0  0  0  0  0  0  0  0  0
  129.9900  135.0991  157.7144 H   0  0  0  0  0  0  0  0  0  0  0  0
  130.3041  134.5475  159.6462 C   0  0  0  0  0  0  0  0  0  0  0  0
  131.6068  134.9572  159.8767 N   0  0  0  0  0  0  0  0  0  0  0  0
  132.2236  134.7351  161.1868 C   0  0  0  0  0  0  0  0  0  0  0  0
  131.9556  135.9422  162.0878 C   0  0  1  0  0  0  0  0  0  0  0  0
  130.8809  136.0755  162.2117 H   0  0  0  0  0  0  0  0  0  0  0  0
  132.6118  135.7214  163.4524 C   0  0  0  0  0  0  0  0  0  0  0  0
  132.5871  136.9926  164.2496 C   0  0  0  0  0  0  0  0  0  0  0  0
  132.3808  138.1644  163.7400 C   0  0  0  0  0  0  0  0  0  0  0  0
  132.1275  138.4146  162.2820 C   0  0  0  0  0  0  0  0  0  0  0  0
  132.5618  137.2018  161.4560 C   0  0  1  0  0  0  0  0  0  0  0  0
  132.2022  137.3078  160.4326 H   0  0  0  0  0  0  0  0  0  0  0  0
  134.0881  137.0960  161.4610 C   0  0  0  0  0  0  0  0  0  0  0  0
  134.6796  138.3350  160.8396 C   0  0  0  0  0  0  0  0  0  0  0  0
  135.4745  139.0703  161.5560 C   0  0  0  0  0  0  0  0  0  0  0  0
  136.1192  140.3184  161.0328 C   0  0  0  0  0  0  0  0  0  0  0  0
  135.3849  140.8454  159.8367 C   0  0  0  0  0  0  0  0  0  0  0  0
  134.5859  140.1129  159.1221 C   0  0  0  0  0  0  0  0  0  0  0  0
  134.3197  138.6687  159.4231 C   0  0  0  0  0  0  0  0  0  0  0  0
  129.4949  133.9251  160.5454 N   0  0  0  0  0  0  0  0  0  0  0  0
  129.7216  133.6886  161.4584 H   0  0  0  0  0  0  0  0  0  0  0  0
  126.6815  136.0825  162.5474 N   0  0  0  0  0  0  0  0  0  0  0  0
  127.4315  136.7685  163.6024 C   0  0  0  0  0  0  0  0  0  0  0  0
  126.9309  138.1837  163.7355 C   0  0  0  0  0  0  0  0  0  0  0  0
  125.6849  138.3609  164.0385 C   0  0  0  0  0  0  0  0  0  0  0  0
  125.0422  139.7072  164.2002 C   0  0  0  0  0  0  0  0  0  0  0  0
  126.1130  140.7872  164.3692 C   0  0  0  0  0  0  0  0  0  0  0  0
  127.1578  140.6122  163.2597 C   0  0  0  0  0  0  0  0  0  0  0  0
  127.9066  139.3000  163.5026 C   0  0  0  0  0  0  0  0  0  0  0  0
  125.8732  134.8158  160.4129 H   0  0  0  0  0  0  0  0  0  0  0  0
  125.3096  133.6117  161.5966 H   0  0  0  0  0  0  0  0  0  0  0  0
  126.5206  132.5227  159.7268 H   0  0  0  0  0  0  0  0  0  0  0  0
  127.3932  132.3092  161.2636 H   0  0  0  0  0  0  0  0  0  0  0  0
  127.6427  134.1504  157.9040 H   0  0  0  0  0  0  0  0  0  0  0  0
  132.1108  135.3911  159.1705 H   0  0  0  0  0  0  0  0  0  0  0  0
  133.2989  134.6044  161.0648 H   0  0  0  0  0  0  0  0  0  0  0  0
  131.7982  133.8406  161.6417 H   0  0  0  0  0  0  0  0  0  0  0  0
  132.0696  134.9455  163.9927 H   0  0  0  0  0  0  0  0  0  0  0  0
  133.6450  135.4046  163.3094 H   0  0  0  0  0  0  0  0  0  0  0  0
  132.7521  136.9256  165.3148 H   0  0  0  0  0  0  0  0  0  0  0  0
  132.3913  139.0151  164.4054 H   0  0  0  0  0  0  0  0  0  0  0  0
  132.6922  139.2903  161.9624 H   0  0  0  0  0  0  0  0  0  0  0  0
  131.0641  138.5959  162.1260 H   0  0  0  0  0  0  0  0  0  0  0  0
  134.4424  136.9999  162.4874 H   0  0  0  0  0  0  0  0  0  0  0  0
  134.3936  136.2208  160.8877 H   0  0  0  0  0  0  0  0  0  0  0  0
  135.6834  138.7675  162.5713 H   0  0  0  0  0  0  0  0  0  0  0  0
  137.1499  140.1015  160.7524 H   0  0  0  0  0  0  0  0  0  0  0  0
  136.1141  141.0753  161.8172 H   0  0  0  0  0  0  0  0  0  0  0  0
  135.5265  141.8791  159.5577 H   0  0  0  0  0  0  0  0  0  0  0  0
  134.0911  140.5638  158.2747 H   0  0  0  0  0  0  0  0  0  0  0  0
  134.9105  138.0486  158.7489 H   0  0  0  0  0  0  0  0  0  0  0  0
  133.2618  138.4597  159.2644 H   0  0  0  0  0  0  0  0  0  0  0  0
  125.9853  136.5530  162.0629 H   0  0  0  0  0  0  0  0  0  0  0  0
  127.2921  136.2435  164.5475 H   0  0  0  0  0  0  0  0  0  0  0  0
  128.4909  136.7805  163.3463 H   0  0  0  0  0  0  0  0  0  0  0  0
  125.0707  137.4852  164.1879 H   0  0  0  0  0  0  0  0  0  0  0  0
  124.3961  139.6986  165.0780 H   0  0  0  0  0  0  0  0  0  0  0  0
  124.4439  139.9269  163.3159 H   0  0  0  0  0  0  0  0  0  0  0  0
  126.5911  140.6800  165.3428 H   0  0  0  0  0  0  0  0  0  0  0  0
  125.6576  141.7745  164.2913 H   0  0  0  0  0  0  0  0  0  0  0  0
  127.8608  141.4450  163.2837 H   0  0  0  0  0  0  0  0  0  0  0  0
  126.6606  140.5763  162.2904 H   0  0  0  0  0  0  0  0  0  0  0  0
  128.5487  139.4070  164.3768 H   0  0  0  0  0  0  0  0  0  0  0  0
  128.5186  139.0689  162.6308 H   0  0  0  0  0  0  0  0  0  0  0  0
  1  2  2  0
  2  3  1  0
  2 29  1  0
  3  4  1  0
  3 37  1  0
  3 38  1  0
  4  5  1  0
  4 39  1  0
  4 40  1  0
  5 27  1  0
  5  6  2  0
  6  7  1  0
  6 41  1  0
  7  8  1  0
  7  9  2  0
  9 10  1  0
  9 27  1  0
 10 11  1  0
 10 42  1  0
 11 12  1  0
 11 43  1  0
 11 44  1  0
 12 13  1  1
 12 18  1  0
 12 14  1  0
 14 15  1  0
 14 45  1  0
 14 46  1  0
 15 16  2  0
 15 47  1  0
 16 17  1  0
 16 48  1  0
 17 18  1  0
 17 49  1  0
 17 50  1  0
 18 19  1  6
 18 20  1  0
 20 21  1  0
 20 51  1  0
 20 52  1  0
 21 26  1  0
 21 22  2  0
 22 23  1  0
 22 53  1  0
 23 24  1  0
 23 54  1  0
 23 55  1  0
 24 25  2  0
 24 56  1  0
 25 26  1  0
 25 57  1  0
 26 58  1  0
 26 59  1  0
 27 28  1  0
 29 30  1  0
 29 60  1  0
 30 31  1  0
 30 61  1  0
 30 62  1  0
 31 36  1  0
 31 32  2  0
 32 33  1  0
 32 63  1  0
 33 34  1  0
 33 64  1  0
 33 65  1  0
 34 35  1  0
 34 66  1  0
 34 67  1  0
 35 36  1  0
 35 68  1  0
 35 69  1  0
 36 70  1  0
 36 71  1  0
M  CHG  1   7   1
M  END
>  <DOCK_score>  (1) 
-47.122906

>  <SMILES>  (1) 
O=C(CCc1c[nH+]c(NC[C@H]2CC=CC[C@H]2CC2=CCC=CC2)[nH]1)NCC1=CCCCC1

$$$$
