Cc1cc([C@H]2C[C@H](CNc3ccc(-c4n[nH]cc4C[NH2+]CC4CC5C[C@@H]5C4)o3)C2)ccc1F
     RDKit          3D

 67 72  0  0  1  0  0  0  0  0999 V2000
  128.7043  142.4713  168.4571 C   0  0  0  0  0  0  0  0  0  0  0  0
  128.0939  141.1111  168.2376 C   0  0  0  0  0  0  0  0  0  0  0  0
  128.1120  140.5403  166.9788 C   0  0  0  0  0  0  0  0  0  0  0  0
  127.5518  139.2929  166.7771 C   0  0  0  0  0  0  0  0  0  0  0  0
  127.5722  138.6716  165.4042 C   0  0  1  0  0  0  0  0  0  0  0  0
  128.4613  138.0668  165.2265 H   0  0  0  0  0  0  0  0  0  0  0  0
  126.2599  137.9626  165.0295 C   0  0  0  0  0  0  0  0  0  0  0  0
  126.4385  138.5479  163.6186 C   0  0  2  0  0  0  0  0  0  0  0  0
  125.5086  138.8976  163.1700 H   0  0  0  0  0  0  0  0  0  0  0  0
  127.2500  137.6514  162.6814 C   0  0  0  0  0  0  0  0  0  0  0  0
  126.3900  136.5873  162.1575 N   0  0  0  0  0  0  0  0  0  0  0  0
  126.9092  135.6434  161.2789 C   0  0  0  0  0  0  0  0  0  0  0  0
  126.2229  134.6104  160.7297 C   0  0  0  0  0  0  0  0  0  0  0  0
  127.1253  133.9099  159.9050 C   0  0  0  0  0  0  0  0  0  0  0  0
  128.3214  134.5480  159.9990 C   0  0  0  0  0  0  0  0  0  0  0  0
  129.5667  134.1593  159.3052 C   0  0  0  0  0  0  0  0  0  0  0  0
  129.7114  133.1383  158.4836 N   0  0  0  0  0  0  0  0  0  0  0  0
  131.0409  133.1199  158.0430 N   0  0  0  0  0  0  0  0  0  0  0  0
  131.4282  132.4757  157.4300 H   0  0  0  0  0  0  0  0  0  0  0  0
  131.6905  134.1543  158.6198 C   0  0  0  0  0  0  0  0  0  0  0  0
  130.8106  134.8183  159.3994 C   0  0  0  0  0  0  0  0  0  0  0  0
  131.1056  136.0435  160.2258 C   0  0  0  0  0  0  0  0  0  0  0  0
  132.5147  136.4214  160.0554 N   0  0  0  0  0  0  0  0  0  0  0  0
  133.1058  135.6615  160.3577 H   0  0  0  0  0  0  0  0  0  0  0  0
  132.6943  136.6206  159.0827 H   0  0  0  0  0  0  0  0  0  0  0  0
  132.8024  137.6158  160.8609 C   0  0  0  0  0  0  0  0  0  0  0  0
  134.2701  138.0094  160.6834 C   0  0  2  0  0  0  0  0  0  0  0  0
  134.5655  139.3582  161.3853 C   0  0  0  0  0  0  0  0  0  0  0  0
  135.8030  139.9068  160.6455 C   0  0  2  0  0  0  0  0  0  0  0  0
  135.5789  140.7541  159.3914 C   0  0  0  0  0  0  0  0  0  0  0  0
  135.8116  139.2480  159.2548 C   0  0  2  0  0  0  0  0  0  0  0  0
  136.7297  138.8902  158.7890 H   0  0  0  0  0  0  0  0  0  0  0  0
  134.5788  138.3222  159.1982 C   0  0  0  0  0  0  0  0  0  0  0  0
  128.1769  135.5975  160.8351 O   0  0  0  0  0  0  0  0  0  0  0  0
  127.2656  139.6671  164.2729 C   0  0  0  0  0  0  0  0  0  0  0  0
  126.9727  138.6146  167.8338 C   0  0  0  0  0  0  0  0  0  0  0  0
  126.9535  139.1833  169.0929 C   0  0  0  0  0  0  0  0  0  0  0  0
  127.5146  140.4329  169.2963 C   0  0  0  0  0  0  0  0  0  0  0  0
  127.4958  140.9902  170.5270 F   0  0  0  0  0  0  0  0  0  0  0  0
  127.9474  143.2393  168.2977 H   0  0  0  0  0  0  0  0  0  0  0  0
  129.0818  142.5398  169.4774 H   0  0  0  0  0  0  0  0  0  0  0  0
  129.5252  142.6189  167.7554 H   0  0  0  0  0  0  0  0  0  0  0  0
  128.5599  141.0711  166.1518 H   0  0  0  0  0  0  0  0  0  0  0  0
  126.3262  136.8752  165.0627 H   0  0  0  0  0  0  0  0  0  0  0  0
  125.3883  138.3499  165.5572 H   0  0  0  0  0  0  0  0  0  0  0  0
  127.6369  138.2463  161.8540 H   0  0  0  0  0  0  0  0  0  0  0  0
  128.0811  137.2093  163.2309 H   0  0  0  0  0  0  0  0  0  0  0  0
  125.4584  136.5414  162.4237 H   0  0  0  0  0  0  0  0  0  0  0  0
  125.1824  134.3712  160.8925 H   0  0  0  0  0  0  0  0  0  0  0  0
  126.9089  133.0316  159.3147 H   0  0  0  0  0  0  0  0  0  0  0  0
  132.7307  134.4081  158.4787 H   0  0  0  0  0  0  0  0  0  0  0  0
  130.4671  136.8644  159.8993 H   0  0  0  0  0  0  0  0  0  0  0  0
  130.9116  135.8283  161.2767 H   0  0  0  0  0  0  0  0  0  0  0  0
  132.1640  138.4367  160.5344 H   0  0  0  0  0  0  0  0  0  0  0  0
  132.6085  137.4006  161.9118 H   0  0  0  0  0  0  0  0  0  0  0  0
  134.9271  137.2242  161.0574 H   0  0  0  0  0  0  0  0  0  0  0  0
  133.7216  140.0390  161.2740 H   0  0  0  0  0  0  0  0  0  0  0  0
  134.7912  139.1982  162.4396 H   0  0  0  0  0  0  0  0  0  0  0  0
  136.7218  140.0338  161.2180 H   0  0  0  0  0  0  0  0  0  0  0  0
  136.3865  141.4175  159.0822 H   0  0  0  0  0  0  0  0  0  0  0  0
  134.5704  141.1254  159.2098 H   0  0  0  0  0  0  0  0  0  0  0  0
  134.8143  137.4062  158.6564 H   0  0  0  0  0  0  0  0  0  0  0  0
  133.7362  138.8337  158.7330 H   0  0  0  0  0  0  0  0  0  0  0  0
  126.6687  140.5212  164.5928 H   0  0  0  0  0  0  0  0  0  0  0  0
  128.1438  139.9556  163.6953 H   0  0  0  0  0  0  0  0  0  0  0  0
  126.5353  137.6400  167.6749 H   0  0  0  0  0  0  0  0  0  0  0  0
  126.5009  138.6535  169.9181 H   0  0  0  0  0  0  0  0  0  0  0  0
  1  2  1  0
  1 40  1  0
  1 41  1  0
  1 42  1  0
  2 38  2  0
  2  3  1  0
  3  4  2  0
  3 43  1  0
  4  5  1  0
  4 36  1  0
  5  6  1  6
  5 35  1  0
  5  7  1  0
  7  8  1  0
  7 44  1  0
  7 45  1  0
  8  9  1  6
  8 10  1  0
  8 35  1  0
 10 11  1  0
 10 46  1  0
 10 47  1  0
 11 12  1  0
 11 48  1  0
 12 34  1  0
 12 13  2  0
 13 14  1  0
 13 49  1  0
 14 15  2  0
 14 50  1  0
 15 16  1  0
 15 34  1  0
 16 21  1  0
 16 17  2  0
 17 18  1  0
 18 19  1  0
 18 20  1  0
 20 21  2  0
 20 51  1  0
 21 22  1  0
 22 23  1  0
 22 52  1  0
 22 53  1  0
 23 24  1  0
 23 25  1  0
 23 26  1  0
 26 27  1  0
 26 54  1  0
 26 55  1  0
 27 33  1  0
 27 28  1  0
 27 56  1  1
 28 29  1  0
 28 57  1  0
 28 58  1  0
 29 31  1  0
 29 30  1  0
 29 59  1  1
 30 31  1  0
 30 60  1  0
 30 61  1  0
 31 32  1  6
 31 33  1  0
 33 62  1  0
 33 63  1  0
 35 64  1  0
 35 65  1  0
 36 37  2  0
 36 66  1  0
 37 38  1  0
 37 67  1  0
 38 39  1  0
M  CHG  1  23   1
M  END
>  <DOCK_score>  (1) 
-46.845303

>  <SMILES>  (1) 
Cc1cc([C@H]2C[C@H](CNc3ccc(-c4n[nH]cc4C[NH2+]CC4CC5C[C@@H]5C4)o3)C2)ccc1F

$$$$
