CCc1ccc(-c2c[nH]c(NC(Cc3ccnn3C)[C@@H](c3ccnn3C)C(F)(F)F)[nH+]2)cc1
     RDKit          3D

 60 63  0  0  1  0  0  0  0  0999 V2000
  130.4573  128.0919  151.6220 C   0  0  0  0  0  0  0  0  0  0  0  0
  131.3846  129.2977  151.7882 C   0  0  0  0  0  0  0  0  0  0  0  0
  131.0639  130.0039  153.0803 C   0  0  0  0  0  0  0  0  0  0  0  0
  131.7119  129.6357  154.2460 C   0  0  0  0  0  0  0  0  0  0  0  0
  131.4222  130.2789  155.4321 C   0  0  0  0  0  0  0  0  0  0  0  0
  130.4748  131.3010  155.4543 C   0  0  0  0  0  0  0  0  0  0  0  0
  130.1592  131.9960  156.7260 C   0  0  0  0  0  0  0  0  0  0  0  0
  129.2017  131.6356  157.6161 C   0  0  0  0  0  0  0  0  0  0  0  0
  129.2533  132.5430  158.6463 N   0  0  0  0  0  0  0  0  0  0  0  0
  128.6914  132.5469  159.4370 H   0  0  0  0  0  0  0  0  0  0  0  0
  130.2362  133.4368  158.3513 C   0  0  0  0  0  0  0  0  0  0  0  0
  130.6074  134.5152  159.1361 N   0  0  0  0  0  0  0  0  0  0  0  0
  129.9203  134.7688  160.4049 C   0  0  2  0  0  0  0  0  0  0  0  0
  129.2682  136.1523  160.3640 C   0  0  0  0  0  0  0  0  0  0  0  0
  127.9706  136.0737  159.6017 C   0  0  0  0  0  0  0  0  0  0  0  0
  126.7528  135.8032  160.1256 C   0  0  0  0  0  0  0  0  0  0  0  0
  125.8206  135.8276  159.0829 C   0  0  0  0  0  0  0  0  0  0  0  0
  126.4574  136.0953  157.9718 N   0  0  0  0  0  0  0  0  0  0  0  0
  127.8160  136.2549  158.2734 N   0  0  0  0  0  0  0  0  0  0  0  0
  128.8809  136.5642  157.3161 C   0  0  0  0  0  0  0  0  0  0  0  0
  130.9314  134.7153  161.5520 C   0  0  1  0  0  0  0  0  0  0  0  0
  131.8591  135.1955  161.2414 H   0  0  0  0  0  0  0  0  0  0  0  0
  130.3697  135.4355  162.7507 C   0  0  0  0  0  0  0  0  0  0  0  0
  129.2295  135.1213  163.4083 C   0  0  0  0  0  0  0  0  0  0  0  0
  129.0716  136.0343  164.4562 C   0  0  0  0  0  0  0  0  0  0  0  0
  130.0806  136.8666  164.4286 N   0  0  0  0  0  0  0  0  0  0  0  0
  130.9139  136.5092  163.3607 N   0  0  0  0  0  0  0  0  0  0  0  0
  132.1564  137.1823  162.9742 C   0  0  0  0  0  0  0  0  0  0  0  0
  131.2100  133.2560  161.9183 C   0  0  0  0  0  0  0  0  0  0  0  0
  131.7313  132.5873  160.8056 F   0  0  0  0  0  0  0  0  0  0  0  0
  132.1342  133.2070  162.9673 F   0  0  0  0  0  0  0  0  0  0  0  0
  130.0190  132.6398  162.3170 F   0  0  0  0  0  0  0  0  0  0  0  0
  130.7773  133.1049  157.2046 N   0  0  0  0  0  0  0  0  0  0  0  0
  131.5036  133.5768  156.7680 H   0  0  0  0  0  0  0  0  0  0  0  0
  129.8212  131.6638  154.2778 C   0  0  0  0  0  0  0  0  0  0  0  0
  130.1228  131.0172  153.0966 C   0  0  0  0  0  0  0  0  0  0  0  0
  129.4211  128.4303  151.6037 H   0  0  0  0  0  0  0  0  0  0  0  0
  130.6892  127.5812  150.6875 H   0  0  0  0  0  0  0  0  0  0  0  0
  130.6005  127.4055  152.4565 H   0  0  0  0  0  0  0  0  0  0  0  0
  131.2411  129.9839  150.9539 H   0  0  0  0  0  0  0  0  0  0  0  0
  132.4205  128.9591  151.8065 H   0  0  0  0  0  0  0  0  0  0  0  0
  132.4457  128.8435  154.2275 H   0  0  0  0  0  0  0  0  0  0  0  0
  131.9288  129.9910  156.3414 H   0  0  0  0  0  0  0  0  0  0  0  0
  128.5302  130.7938  157.5331 H   0  0  0  0  0  0  0  0  0  0  0  0
  131.3224  135.1029  158.8458 H   0  0  0  0  0  0  0  0  0  0  0  0
  129.1534  134.0101  160.5607 H   0  0  0  0  0  0  0  0  0  0  0  0
  129.0721  136.4917  161.3811 H   0  0  0  0  0  0  0  0  0  0  0  0
  129.9384  136.8553  159.8692 H   0  0  0  0  0  0  0  0  0  0  0  0
  126.5379  135.6056  161.1654 H   0  0  0  0  0  0  0  0  0  0  0  0
  124.7593  135.6521  159.1781 H   0  0  0  0  0  0  0  0  0  0  0  0
  129.2977  135.6364  156.9239 H   0  0  0  0  0  0  0  0  0  0  0  0
  128.4719  137.1541  156.4957 H   0  0  0  0  0  0  0  0  0  0  0  0
  129.6653  137.1321  157.8161 H   0  0  0  0  0  0  0  0  0  0  0  0
  128.5620  134.3068  163.1691 H   0  0  0  0  0  0  0  0  0  0  0  0
  128.2572  136.0496  165.1653 H   0  0  0  0  0  0  0  0  0  0  0  0
  132.9951  136.7274  163.5011 H   0  0  0  0  0  0  0  0  0  0  0  0
  132.3048  137.0816  161.8991 H   0  0  0  0  0  0  0  0  0  0  0  0
  132.0935  138.2389  163.2349 H   0  0  0  0  0  0  0  0  0  0  0  0
  129.0828  132.4518  154.2902 H   0  0  0  0  0  0  0  0  0  0  0  0
  129.6198  131.3003  152.1837 H   0  0  0  0  0  0  0  0  0  0  0  0
  1  2  1  0
  1 37  1  0
  1 38  1  0
  1 39  1  0
  2  3  1  0
  2 40  1  0
  2 41  1  0
  3 36  2  0
  3  4  1  0
  4  5  2  0
  4 42  1  0
  5  6  1  0
  5 43  1  0
  6  7  1  0
  6 35  2  0
  7 33  1  0
  7  8  2  0
  8  9  1  0
  8 44  1  0
  9 10  1  0
  9 11  1  0
 11 12  1  0
 11 33  2  0
 12 13  1  0
 12 45  1  0
 13 14  1  0
 13 21  1  0
 13 46  1  1
 14 15  1  0
 14 47  1  0
 14 48  1  0
 15 19  1  0
 15 16  2  0
 16 17  1  0
 16 49  1  0
 17 18  2  0
 17 50  1  0
 18 19  1  0
 19 20  1  0
 20 51  1  0
 20 52  1  0
 20 53  1  0
 21 22  1  6
 21 23  1  0
 21 29  1  0
 23 27  1  0
 23 24  2  0
 24 25  1  0
 24 54  1  0
 25 26  2  0
 25 55  1  0
 26 27  1  0
 27 28  1  0
 28 56  1  0
 28 57  1  0
 28 58  1  0
 29 30  1  0
 29 31  1  0
 29 32  1  0
 33 34  1  0
 35 36  1  0
 35 59  1  0
 36 60  1  0
M  CHG  1  33   1
M  END
>  <DOCK_score>  (1) 
-59.04224

>  <SMILES>  (1) 
CCc1ccc(-c2c[nH]c(NC(Cc3ccnn3C)[C@@H](c3ccnn3C)C(F)(F)F)[nH+]2)cc1

$$$$
