CC1(C)C(Nc2ccc([C@@H](O)C[NH+]=C(NC3CCCCC3)NC3CCCCC3)cc2)C[C@@H]1O
     RDKit          3D

 78 81  0  0  1  0  0  0  0  0999 V2000
  129.2221  137.6522  169.4859 C   0  0  0  0  0  0  0  0  0  0  0  0
  128.1463  138.7212  169.6883 C   0  0  0  0  0  0  0  0  0  0  0  0
  128.5557  140.0894  169.1395 C   0  0  0  0  0  0  0  0  0  0  0  0
  126.7430  138.2745  169.2455 C   0  0  2  0  0  0  0  0  0  0  0  0
  126.3054  138.8789  167.9848 N   0  0  0  0  0  0  0  0  0  0  0  0
  126.5837  138.2439  166.7722 C   0  0  0  0  0  0  0  0  0  0  0  0
  126.6810  136.8593  166.7180 C   0  0  0  0  0  0  0  0  0  0  0  0
  126.9568  136.2346  165.5175 C   0  0  0  0  0  0  0  0  0  0  0  0
  127.1358  136.9859  164.3705 C   0  0  0  0  0  0  0  0  0  0  0  0
  127.4366  136.3007  163.0623 C   0  0  1  0  0  0  0  0  0  0  0  0
  127.4737  135.2224  163.2171 H   0  0  0  0  0  0  0  0  0  0  0  0
  126.4121  136.6110  162.1156 O   0  0  0  0  0  0  0  0  0  0  0  0
  128.7865  136.7864  162.5306 C   0  0  0  0  0  0  0  0  0  0  0  0
  129.0788  136.1203  161.2591 N   0  0  0  0  0  0  0  0  0  0  0  0
  128.4487  135.4819  160.8899 H   0  0  0  0  0  0  0  0  0  0  0  0
  130.1857  136.3854  160.6239 C   0  0  0  0  0  0  0  0  0  0  0  0
  131.0788  137.2901  161.1471 N   0  0  0  0  0  0  0  0  0  0  0  0
  132.3229  137.5881  160.4330 C   0  0  0  0  0  0  0  0  0  0  0  0
  133.4123  137.9615  161.4405 C   0  0  0  0  0  0  0  0  0  0  0  0
  134.7116  138.2726  160.6948 C   0  0  0  0  0  0  0  0  0  0  0  0
  134.4815  139.4420  159.7355 C   0  0  0  0  0  0  0  0  0  0  0  0
  133.3922  139.0686  158.7281 C   0  0  0  0  0  0  0  0  0  0  0  0
  132.0928  138.7575  159.4738 C   0  0  0  0  0  0  0  0  0  0  0  0
  130.4600  135.7603  159.4305 N   0  0  0  0  0  0  0  0  0  0  0  0
  129.9471  134.4122  159.1748 C   0  0  0  0  0  0  0  0  0  0  0  0
  130.4943  133.4495  160.2306 C   0  0  0  0  0  0  0  0  0  0  0  0
  129.9585  132.0415  159.9636 C   0  0  0  0  0  0  0  0  0  0  0  0
  130.4041  131.5813  158.5741 C   0  0  0  0  0  0  0  0  0  0  0  0
  129.8568  132.5440  157.5183 C   0  0  0  0  0  0  0  0  0  0  0  0
  130.3925  133.9520  157.7853 C   0  0  0  0  0  0  0  0  0  0  0  0
  127.0451  138.3649  164.4220 C   0  0  0  0  0  0  0  0  0  0  0  0
  126.7641  138.9955  165.6181 C   0  0  0  0  0  0  0  0  0  0  0  0
  126.2058  138.9951  170.4934 C   0  0  0  0  0  0  0  0  0  0  0  0
  127.5917  138.7732  171.1216 C   0  0  2  0  0  0  0  0  0  0  0  0
  127.6813  137.8292  171.6591 H   0  0  0  0  0  0  0  0  0  0  0  0
  128.0645  139.8895  171.8782 O   0  0  0  0  0  0  0  0  0  0  0  0
  129.2819  137.3925  168.4289 H   0  0  0  0  0  0  0  0  0  0  0  0
  130.1851  138.0380  169.8202 H   0  0  0  0  0  0  0  0  0  0  0  0
  128.9656  136.7646  170.0643 H   0  0  0  0  0  0  0  0  0  0  0  0
  127.8499  140.8452  169.4843 H   0  0  0  0  0  0  0  0  0  0  0  0
  129.5562  140.3382  169.4933 H   0  0  0  0  0  0  0  0  0  0  0  0
  128.5526  140.0596  168.0500 H   0  0  0  0  0  0  0  0  0  0  0  0
  126.6012  137.1941  169.2686 H   0  0  0  0  0  0  0  0  0  0  0  0
  125.8225  139.7202  167.9922 H   0  0  0  0  0  0  0  0  0  0  0  0
  126.5416  136.2719  167.6134 H   0  0  0  0  0  0  0  0  0  0  0  0
  127.0323  135.1581  165.4745 H   0  0  0  0  0  0  0  0  0  0  0  0
  125.5273  136.3312  162.3875 H   0  0  0  0  0  0  0  0  0  0  0  0
  129.5678  136.5499  163.2528 H   0  0  0  0  0  0  0  0  0  0  0  0
  128.7492  137.8648  162.3758 H   0  0  0  0  0  0  0  0  0  0  0  0
  130.8836  137.7342  161.9871 H   0  0  0  0  0  0  0  0  0  0  0  0
  132.6364  136.7106  159.8676 H   0  0  0  0  0  0  0  0  0  0  0  0
  133.0988  138.8390  162.0060 H   0  0  0  0  0  0  0  0  0  0  0  0
  133.5761  137.1283  162.1238 H   0  0  0  0  0  0  0  0  0  0  0  0
  135.0249  137.3950  160.1293 H   0  0  0  0  0  0  0  0  0  0  0  0
  135.4876  138.5387  161.4125 H   0  0  0  0  0  0  0  0  0  0  0  0
  135.4071  139.6637  159.2043 H   0  0  0  0  0  0  0  0  0  0  0  0
  134.1681  140.3196  160.3011 H   0  0  0  0  0  0  0  0  0  0  0  0
  133.7056  138.1911  158.1626 H   0  0  0  0  0  0  0  0  0  0  0  0
  133.2283  139.9018  158.0446 H   0  0  0  0  0  0  0  0  0  0  0  0
  131.3168  138.4915  158.7561 H   0  0  0  0  0  0  0  0  0  0  0  0
  131.7794  139.6351  160.0392 H   0  0  0  0  0  0  0  0  0  0  0  0
  130.9931  136.2120  158.7578 H   0  0  0  0  0  0  0  0  0  0  0  0
  128.8581  134.4227  159.2222 H   0  0  0  0  0  0  0  0  0  0  0  0
  131.5832  133.4390  160.1832 H   0  0  0  0  0  0  0  0  0  0  0  0
  130.1769  133.7774  161.2205 H   0  0  0  0  0  0  0  0  0  0  0  0
  128.8696  132.0520  160.0111 H   0  0  0  0  0  0  0  0  0  0  0  0
  130.3484  131.3557  160.7158 H   0  0  0  0  0  0  0  0  0  0  0  0
  130.0224  130.5782  158.3839 H   0  0  0  0  0  0  0  0  0  0  0  0
  131.4930  131.5708  158.5267 H   0  0  0  0  0  0  0  0  0  0  0  0
  128.7679  132.5544  157.5657 H   0  0  0  0  0  0  0  0  0  0  0  0
  130.1742  132.2161  156.5284 H   0  0  0  0  0  0  0  0  0  0  0  0
  130.0027  134.6377  157.0331 H   0  0  0  0  0  0  0  0  0  0  0  0
  131.4815  133.9415  157.7378 H   0  0  0  0  0  0  0  0  0  0  0  0
  127.1902  138.9489  163.5252 H   0  0  0  0  0  0  0  0  0  0  0  0
  126.6890  140.0722  165.6569 H   0  0  0  0  0  0  0  0  0  0  0  0
  125.9668  140.0447  170.3224 H   0  0  0  0  0  0  0  0  0  0  0  0
  125.4055  138.4547  170.9989 H   0  0  0  0  0  0  0  0  0  0  0  0
  127.8394  140.7483  171.4948 H   0  0  0  0  0  0  0  0  0  0  0  0
  1  2  1  0
  1 37  1  0
  1 38  1  0
  1 39  1  0
  2 34  1  0
  2  3  1  0
  2  4  1  0
  3 40  1  0
  3 41  1  0
  3 42  1  0
  4  5  1  0
  4 33  1  0
  4 43  1  6
  5  6  1  0
  5 44  1  0
  6 32  1  0
  6  7  2  0
  7  8  1  0
  7 45  1  0
  8  9  2  0
  8 46  1  0
  9 10  1  0
  9 31  1  0
 10 11  1  1
 10 12  1  0
 10 13  1  0
 12 47  1  0
 13 14  1  0
 13 48  1  0
 13 49  1  0
 14 15  1  0
 14 16  2  0
 16 17  1  0
 16 24  1  0
 17 18  1  0
 17 50  1  0
 18 23  1  0
 18 19  1  0
 18 51  1  0
 19 20  1  0
 19 52  1  0
 19 53  1  0
 20 21  1  0
 20 54  1  0
 20 55  1  0
 21 22  1  0
 21 56  1  0
 21 57  1  0
 22 23  1  0
 22 58  1  0
 22 59  1  0
 23 60  1  0
 23 61  1  0
 24 25  1  0
 24 62  1  0
 25 30  1  0
 25 26  1  0
 25 63  1  0
 26 27  1  0
 26 64  1  0
 26 65  1  0
 27 28  1  0
 27 66  1  0
 27 67  1  0
 28 29  1  0
 28 68  1  0
 28 69  1  0
 29 30  1  0
 29 70  1  0
 29 71  1  0
 30 72  1  0
 30 73  1  0
 31 32  2  0
 31 74  1  0
 32 75  1  0
 33 34  1  0
 33 76  1  0
 33 77  1  0
 34 35  1  1
 34 36  1  0
 36 78  1  0
M  CHG  1  14   1
M  END
>  <DOCK_score>  (1) 
-43.231205

>  <SMILES>  (1) 
CC1(C)C(Nc2ccc([C@@H](O)C[NH+]=C(NC3CCCCC3)NC3CCCCC3)cc2)C[C@@H]1O

$$$$
