C1=CCC(CNc2ccc(-c3n[nH]cc3C[NH2+]C3CC3)o2)C1
     RDKit          3D

 45 48  0  0  1  0  0  0  0  0999 V2000
  126.5073  137.4600  166.5359 C   0  0  0  0  0  0  0  0  0  0  0  0
  125.8416  136.3464  166.3942 C   0  0  0  0  0  0  0  0  0  0  0  0
  125.7923  135.9227  164.9447 C   0  0  0  0  0  0  0  0  0  0  0  0
  126.1881  137.1894  164.1510 C   0  0  0  0  0  0  0  0  0  0  0  0
  127.0467  136.8306  162.9365 C   0  0  0  0  0  0  0  0  0  0  0  0
  126.2926  135.9389  162.0518 N   0  0  0  0  0  0  0  0  0  0  0  0
  126.9630  135.0038  161.2719 C   0  0  0  0  0  0  0  0  0  0  0  0
  126.4152  133.8908  160.7235 C   0  0  0  0  0  0  0  0  0  0  0  0
  127.4417  133.2323  160.0179 C   0  0  0  0  0  0  0  0  0  0  0  0
  128.5668  133.9789  160.1720 C   0  0  0  0  0  0  0  0  0  0  0  0
  129.8950  133.6702  159.6030 C   0  0  0  0  0  0  0  0  0  0  0  0
  130.1958  132.6265  158.8555 N   0  0  0  0  0  0  0  0  0  0  0  0
  131.5559  132.7032  158.5293 N   0  0  0  0  0  0  0  0  0  0  0  0
  132.0487  132.0641  157.9912 H   0  0  0  0  0  0  0  0  0  0  0  0
  132.0626  133.8207  159.0940 C   0  0  0  0  0  0  0  0  0  0  0  0
  131.0657  134.4417  159.7600 C   0  0  0  0  0  0  0  0  0  0  0  0
  131.1841  135.7269  160.5380 C   0  0  0  0  0  0  0  0  0  0  0  0
  130.9013  136.8638  159.6515 N   0  0  0  0  0  0  0  0  0  0  0  0
  131.5633  136.8692  158.8901 H   0  0  0  0  0  0  0  0  0  0  0  0
  129.9659  136.7783  159.2831 H   0  0  0  0  0  0  0  0  0  0  0  0
  131.0165  138.1165  160.4099 C   0  0  0  0  0  0  0  0  0  0  0  0
  131.4884  139.3597  159.6531 C   0  0  0  0  0  0  0  0  0  0  0  0
  132.4224  138.6704  160.6498 C   0  0  0  0  0  0  0  0  0  0  0  0
  128.2642  135.0477  160.9386 O   0  0  0  0  0  0  0  0  0  0  0  0
  127.0131  137.9647  165.2044 C   0  0  0  0  0  0  0  0  0  0  0  0
  126.6744  137.9559  167.4807 H   0  0  0  0  0  0  0  0  0  0  0  0
  125.3855  135.7996  167.2064 H   0  0  0  0  0  0  0  0  0  0  0  0
  124.7845  135.6056  164.6758 H   0  0  0  0  0  0  0  0  0  0  0  0
  126.5048  135.1192  164.7578 H   0  0  0  0  0  0  0  0  0  0  0  0
  125.3059  137.7546  163.8508 H   0  0  0  0  0  0  0  0  0  0  0  0
  127.9553  136.3289  163.2694 H   0  0  0  0  0  0  0  0  0  0  0  0
  127.3105  137.7399  162.3967 H   0  0  0  0  0  0  0  0  0  0  0  0
  125.3254  136.0013  162.0102 H   0  0  0  0  0  0  0  0  0  0  0  0
  125.3877  133.5699  160.8115 H   0  0  0  0  0  0  0  0  0  0  0  0
  127.3516  132.3111  159.4614 H   0  0  0  0  0  0  0  0  0  0  0  0
  133.0863  134.1581  159.0253 H   0  0  0  0  0  0  0  0  0  0  0  0
  132.1946  135.8191  160.9359 H   0  0  0  0  0  0  0  0  0  0  0  0
  130.4689  135.7209  161.3605 H   0  0  0  0  0  0  0  0  0  0  0  0
  130.2785  138.2576  161.1996 H   0  0  0  0  0  0  0  0  0  0  0  0
  131.7133  139.2479  158.5924 H   0  0  0  0  0  0  0  0  0  0  0  0
  131.0607  140.3189  159.9447 H   0  0  0  0  0  0  0  0  0  0  0  0
  132.6093  139.1762  161.5971 H   0  0  0  0  0  0  0  0  0  0  0  0
  133.2619  138.1052  160.2448 H   0  0  0  0  0  0  0  0  0  0  0  0
  128.0746  137.7439  165.0931 H   0  0  0  0  0  0  0  0  0  0  0  0
  126.8355  139.0361  165.1122 H   0  0  0  0  0  0  0  0  0  0  0  0
  1 25  1  0
  1  2  2  0
  1 26  1  0
  2  3  1  0
  2 27  1  0
  3  4  1  0
  3 28  1  0
  3 29  1  0
  4  5  1  0
  4 25  1  0
  4 30  1  0
  5  6  1  0
  5 31  1  0
  5 32  1  0
  6  7  1  0
  6 33  1  0
  7 24  1  0
  7  8  2  0
  8  9  1  0
  8 34  1  0
  9 10  2  0
  9 35  1  0
 10 11  1  0
 10 24  1  0
 11 16  1  0
 11 12  2  0
 12 13  1  0
 13 14  1  0
 13 15  1  0
 15 16  2  0
 15 36  1  0
 16 17  1  0
 17 18  1  0
 17 37  1  0
 17 38  1  0
 18 19  1  0
 18 20  1  0
 18 21  1  0
 21 23  1  0
 21 22  1  0
 21 39  1  0
 22 23  1  0
 22 40  1  0
 22 41  1  0
 23 42  1  0
 23 43  1  0
 25 44  1  0
 25 45  1  0
M  CHG  1  18   1
M  END
>  <DOCK_score>  (1) 
-41.493141

>  <SMILES>  (1) 
C1=CCC(CNc2ccc(-c3n[nH]cc3C[NH2+]C3CC3)o2)C1

$$$$
