Cc1cccc(N2CC[NH+](C(c3ccccc3)c3ccccc3)CC2)c1C(=O)C[C@@H]1CCC[C@H]1C
     RDKit          3D

 74 78  0  0  1  0  0  0  0  0999 V2000
  136.0686  141.0897  162.5625 C   0  0  0  0  0  0  0  0  0  0  0  0
  135.4229  140.3451  161.4225 C   0  0  0  0  0  0  0  0  0  0  0  0
  135.8016  140.6075  160.1252 C   0  0  0  0  0  0  0  0  0  0  0  0
  135.2080  139.9309  159.0706 C   0  0  0  0  0  0  0  0  0  0  0  0
  134.2340  138.9825  159.3069 C   0  0  0  0  0  0  0  0  0  0  0  0
  133.8402  138.6978  160.6083 C   0  0  0  0  0  0  0  0  0  0  0  0
  132.8617  137.7446  160.8484 N   0  0  0  0  0  0  0  0  0  0  0  0
  133.3057  136.4128  160.4133 C   0  0  0  0  0  0  0  0  0  0  0  0
  132.2247  135.3830  160.7492 C   0  0  0  0  0  0  0  0  0  0  0  0
  130.9739  135.7469  160.0707 N   0  0  0  0  0  0  0  0  0  0  0  0
  131.1279  135.7743  159.0738 H   0  0  0  0  0  0  0  0  0  0  0  0
  129.9417  134.7482  160.3792 C   0  0  0  0  0  0  0  0  0  0  0  0
  128.6580  135.1211  159.6832 C   0  0  0  0  0  0  0  0  0  0  0  0
  127.4426  134.7684  160.2396 C   0  0  0  0  0  0  0  0  0  0  0  0
  126.2651  135.1146  159.6037 C   0  0  0  0  0  0  0  0  0  0  0  0
  126.3028  135.8048  158.4069 C   0  0  0  0  0  0  0  0  0  0  0  0
  127.5185  136.1522  157.8473 C   0  0  0  0  0  0  0  0  0  0  0  0
  128.6959  135.8108  158.4858 C   0  0  0  0  0  0  0  0  0  0  0  0
  130.3959  133.3925  159.9027 C   0  0  0  0  0  0  0  0  0  0  0  0
  129.9819  132.2524  160.5659 C   0  0  0  0  0  0  0  0  0  0  0  0
  130.3947  131.0087  160.1260 C   0  0  0  0  0  0  0  0  0  0  0  0
  131.2296  130.9056  159.0290 C   0  0  0  0  0  0  0  0  0  0  0  0
  131.6481  132.0459  158.3693 C   0  0  0  0  0  0  0  0  0  0  0  0
  131.2311  133.2894  158.8061 C   0  0  0  0  0  0  0  0  0  0  0  0
  130.5301  137.0683  160.5337 C   0  0  0  0  0  0  0  0  0  0  0  0
  131.5970  138.1121  160.1959 C   0  0  0  0  0  0  0  0  0  0  0  0
  134.4403  139.3818  161.6813 C   0  0  0  0  0  0  0  0  0  0  0  0
  134.0352  139.0921  163.0608 C   0  0  0  0  0  0  0  0  0  0  0  0
  133.5667  139.9716  163.7528 O   0  0  0  0  0  0  0  0  0  0  0  0
  134.2009  137.7021  163.6188 C   0  0  0  0  0  0  0  0  0  0  0  0
  135.5804  137.5743  164.2682 C   0  0  2  0  0  0  0  0  0  0  0  0
  135.8305  138.4849  164.8126 H   0  0  0  0  0  0  0  0  0  0  0  0
  136.6593  137.2676  163.2000 C   0  0  0  0  0  0  0  0  0  0  0  0
  137.7797  136.5932  164.0297 C   0  0  0  0  0  0  0  0  0  0  0  0
  137.0211  135.7290  165.0596 C   0  0  0  0  0  0  0  0  0  0  0  0
  135.6227  136.3533  165.2100 C   0  0  1  0  0  0  0  0  0  0  0  0
  134.8586  135.6318  164.9205 H   0  0  0  0  0  0  0  0  0  0  0  0
  135.4007  136.7993  166.6566 C   0  0  0  0  0  0  0  0  0  0  0  0
  136.9871  140.5807  162.8550 H   0  0  0  0  0  0  0  0  0  0  0  0
  136.3017  142.1066  162.2467 H   0  0  0  0  0  0  0  0  0  0  0  0
  135.3844  141.1203  163.4104 H   0  0  0  0  0  0  0  0  0  0  0  0
  136.5626  141.3480  159.9276 H   0  0  0  0  0  0  0  0  0  0  0  0
  135.5100  140.1479  158.0566 H   0  0  0  0  0  0  0  0  0  0  0  0
  133.7774  138.4605  158.4789 H   0  0  0  0  0  0  0  0  0  0  0  0
  133.4786  136.4206  159.3371 H   0  0  0  0  0  0  0  0  0  0  0  0
  134.2299  136.1511  160.9286 H   0  0  0  0  0  0  0  0  0  0  0  0
  132.0618  135.3657  161.8268 H   0  0  0  0  0  0  0  0  0  0  0  0
  132.5460  134.3967  160.4145 H   0  0  0  0  0  0  0  0  0  0  0  0
  129.7757  134.7181  161.4559 H   0  0  0  0  0  0  0  0  0  0  0  0
  127.4131  134.2257  161.1729 H   0  0  0  0  0  0  0  0  0  0  0  0
  125.3155  134.8427  160.0404 H   0  0  0  0  0  0  0  0  0  0  0  0
  125.3828  136.0721  157.9081 H   0  0  0  0  0  0  0  0  0  0  0  0
  127.5481  136.6910  156.9118 H   0  0  0  0  0  0  0  0  0  0  0  0
  129.6456  136.0823  158.0490 H   0  0  0  0  0  0  0  0  0  0  0  0
  129.3330  132.3333  161.4254 H   0  0  0  0  0  0  0  0  0  0  0  0
  130.0680  130.1179  160.6416 H   0  0  0  0  0  0  0  0  0  0  0  0
  131.5550  129.9340  158.6876 H   0  0  0  0  0  0  0  0  0  0  0  0
  132.3006  131.9653  157.5125 H   0  0  0  0  0  0  0  0  0  0  0  0
  131.5582  134.1804  158.2907 H   0  0  0  0  0  0  0  0  0  0  0  0
  130.3758  137.0424  161.6124 H   0  0  0  0  0  0  0  0  0  0  0  0
  129.5951  137.3314  160.0391 H   0  0  0  0  0  0  0  0  0  0  0  0
  131.2746  139.0903  160.5527 H   0  0  0  0  0  0  0  0  0  0  0  0
  131.7419  138.1483  159.1163 H   0  0  0  0  0  0  0  0  0  0  0  0
  134.1098  136.9739  162.8128 H   0  0  0  0  0  0  0  0  0  0  0  0
  133.4291  137.5159  164.3656 H   0  0  0  0  0  0  0  0  0  0  0  0
  136.2720  136.5830  162.4453 H   0  0  0  0  0  0  0  0  0  0  0  0
  137.0198  138.1877  162.7398 H   0  0  0  0  0  0  0  0  0  0  0  0
  138.4029  135.9669  163.3913 H   0  0  0  0  0  0  0  0  0  0  0  0
  138.3866  137.3454  164.5336 H   0  0  0  0  0  0  0  0  0  0  0  0
  137.5419  135.7446  166.0170 H   0  0  0  0  0  0  0  0  0  0  0  0
  136.9356  134.7046  164.6972 H   0  0  0  0  0  0  0  0  0  0  0  0
  134.4231  137.2731  166.7448 H   0  0  0  0  0  0  0  0  0  0  0  0
  135.4445  135.9316  167.3150 H   0  0  0  0  0  0  0  0  0  0  0  0
  136.1762  137.5105  166.9407 H   0  0  0  0  0  0  0  0  0  0  0  0
  1  2  1  0
  1 39  1  0
  1 40  1  0
  1 41  1  0
  2 27  2  0
  2  3  1  0
  3  4  2  0
  3 42  1  0
  4  5  1  0
  4 43  1  0
  5  6  2  0
  5 44  1  0
  6  7  1  0
  6 27  1  0
  7 26  1  0
  7  8  1  0
  8  9  1  0
  8 45  1  0
  8 46  1  0
  9 10  1  0
  9 47  1  0
  9 48  1  0
 10 11  1  0
 10 12  1  0
 10 25  1  0
 12 13  1  0
 12 19  1  0
 12 49  1  0
 13 18  1  0
 13 14  2  0
 14 15  1  0
 14 50  1  0
 15 16  2  0
 15 51  1  0
 16 17  1  0
 16 52  1  0
 17 18  2  0
 17 53  1  0
 18 54  1  0
 19 24  1  0
 19 20  2  0
 20 21  1  0
 20 55  1  0
 21 22  2  0
 21 56  1  0
 22 23  1  0
 22 57  1  0
 23 24  2  0
 23 58  1  0
 24 59  1  0
 25 26  1  0
 25 60  1  0
 25 61  1  0
 26 62  1  0
 26 63  1  0
 27 28  1  0
 28 29  2  0
 28 30  1  0
 30 31  1  0
 30 64  1  0
 30 65  1  0
 31 32  1  1
 31 36  1  0
 31 33  1  0
 33 34  1  0
 33 66  1  0
 33 67  1  0
 34 35  1  0
 34 68  1  0
 34 69  1  0
 35 36  1  0
 35 70  1  0
 35 71  1  0
 36 37  1  6
 36 38  1  0
 38 72  1  0
 38 73  1  0
 38 74  1  0
M  CHG  1  10   1
M  END
>  <DOCK_score>  (1) 
-57.522266

>  <SMILES>  (1) 
Cc1cccc(N2CC[NH+](C(c3ccccc3)c3ccccc3)CC2)c1C(=O)C[C@@H]1CCC[C@H]1C

$$$$
