CCSc1ccc([C@H](Nc2[nH]cc(-c3cccnc3)[nH+]2)c2ccccc2)cc1
     RDKit          3D

 51 54  0  0  1  0  0  0  0  0999 V2000
  129.7586  142.1915  164.4888 C   0  0  0  0  0  0  0  0  0  0  0  0
  129.5164  140.8595  163.7761 C   0  0  0  0  0  0  0  0  0  0  0  0
  130.3253  140.8864  162.1526 S   0  0  0  0  0  0  0  0  0  0  0  0
  129.9431  139.2980  161.4928 C   0  0  0  0  0  0  0  0  0  0  0  0
  130.4030  138.9386  160.2316 C   0  0  0  0  0  0  0  0  0  0  0  0
  130.1019  137.6927  159.7180 C   0  0  0  0  0  0  0  0  0  0  0  0
  129.3439  136.8028  160.4573 C   0  0  0  0  0  0  0  0  0  0  0  0
  129.0174  135.4440  159.8932 C   0  0  2  0  0  0  0  0  0  0  0  0
  128.9155  134.7273  160.7079 H   0  0  0  0  0  0  0  0  0  0  0  0
  130.0947  135.0154  158.9977 N   0  0  0  0  0  0  0  0  0  0  0  0
  130.0166  133.7904  158.3576 C   0  0  0  0  0  0  0  0  0  0  0  0
  129.3862  132.6840  158.8377 N   0  0  0  0  0  0  0  0  0  0  0  0
  128.9152  132.6123  159.6826 H   0  0  0  0  0  0  0  0  0  0  0  0
  129.5404  131.6872  157.9051 C   0  0  0  0  0  0  0  0  0  0  0  0
  130.2599  132.2127  156.8828 C   0  0  0  0  0  0  0  0  0  0  0  0
  130.6709  131.5007  155.6481 C   0  0  0  0  0  0  0  0  0  0  0  0
  130.2539  131.9554  154.3937 C   0  0  0  0  0  0  0  0  0  0  0  0
  130.6695  131.2596  153.2717 C   0  0  0  0  0  0  0  0  0  0  0  0
  131.4667  130.1399  153.4268 C   0  0  0  0  0  0  0  0  0  0  0  0
  131.8400  129.7314  154.6240 N   0  0  0  0  0  0  0  0  0  0  0  0
  131.4740  130.3642  155.7201 C   0  0  0  0  0  0  0  0  0  0  0  0
  130.5375  133.5049  157.1892 N   0  0  0  0  0  0  0  0  0  0  0  0
  131.0379  134.1203  156.6310 H   0  0  0  0  0  0  0  0  0  0  0  0
  127.7238  135.5173  159.1236 C   0  0  0  0  0  0  0  0  0  0  0  0
  126.5232  135.2778  159.7654 C   0  0  0  0  0  0  0  0  0  0  0  0
  125.3363  135.3495  159.0605 C   0  0  0  0  0  0  0  0  0  0  0  0
  125.3507  135.6516  157.7116 C   0  0  0  0  0  0  0  0  0  0  0  0
  126.5518  135.8858  157.0686 C   0  0  0  0  0  0  0  0  0  0  0  0
  127.7384  135.8185  157.7745 C   0  0  0  0  0  0  0  0  0  0  0  0
  128.8800  137.1591  161.7106 C   0  0  0  0  0  0  0  0  0  0  0  0
  129.1813  138.4014  162.2327 C   0  0  0  0  0  0  0  0  0  0  0  0
  130.8299  142.3442  164.6192 H   0  0  0  0  0  0  0  0  0  0  0  0
  129.3460  143.0039  163.8907 H   0  0  0  0  0  0  0  0  0  0  0  0
  129.2725  142.1751  165.4643 H   0  0  0  0  0  0  0  0  0  0  0  0
  128.4450  140.7067  163.6457 H   0  0  0  0  0  0  0  0  0  0  0  0
  129.9289  140.0470  164.3742 H   0  0  0  0  0  0  0  0  0  0  0  0
  130.9949  139.6329  159.6539 H   0  0  0  0  0  0  0  0  0  0  0  0
  130.4590  137.4126  158.7380 H   0  0  0  0  0  0  0  0  0  0  0  0
  130.8629  135.5900  158.8533 H   0  0  0  0  0  0  0  0  0  0  0  0
  129.1613  130.6782  157.9730 H   0  0  0  0  0  0  0  0  0  0  0  0
  129.6275  132.8304  154.3020 H   0  0  0  0  0  0  0  0  0  0  0  0
  130.3707  131.5846  152.2861 H   0  0  0  0  0  0  0  0  0  0  0  0
  131.7891  129.5919  152.5539 H   0  0  0  0  0  0  0  0  0  0  0  0
  131.7998  129.9991  156.6829 H   0  0  0  0  0  0  0  0  0  0  0  0
  126.5123  135.0381  160.8185 H   0  0  0  0  0  0  0  0  0  0  0  0
  124.3979  135.1666  159.5629 H   0  0  0  0  0  0  0  0  0  0  0  0
  124.4236  135.7048  157.1603 H   0  0  0  0  0  0  0  0  0  0  0  0
  126.5630  136.1219  156.0147 H   0  0  0  0  0  0  0  0  0  0  0  0
  128.6767  136.0017  157.2722 H   0  0  0  0  0  0  0  0  0  0  0  0
  128.2848  136.4633  162.2832 H   0  0  0  0  0  0  0  0  0  0  0  0
  128.8225  138.6772  163.2133 H   0  0  0  0  0  0  0  0  0  0  0  0
  1  2  1  0
  1 32  1  0
  1 33  1  0
  1 34  1  0
  2  3  1  0
  2 35  1  0
  2 36  1  0
  3  4  1  0
  4 31  2  0
  4  5  1  0
  5  6  2  0
  5 37  1  0
  6  7  1  0
  6 38  1  0
  7  8  1  0
  7 30  2  0
  8  9  1  1
  8 10  1  0
  8 24  1  0
 10 39  1  0
 11 10  1  0
 11 22  2  0
 11 12  1  0
 12 13  1  0
 12 14  1  0
 14 15  2  0
 14 40  1  0
 15 16  1  0
 15 22  1  0
 16 21  1  0
 16 17  2  0
 17 18  1  0
 17 41  1  0
 18 19  2  0
 18 42  1  0
 19 20  1  0
 19 43  1  0
 20 21  2  0
 21 44  1  0
 22 23  1  0
 24 29  1  0
 24 25  2  0
 25 26  1  0
 25 45  1  0
 26 27  2  0
 26 46  1  0
 27 28  1  0
 27 47  1  0
 28 29  2  0
 28 48  1  0
 29 49  1  0
 30 31  1  0
 30 50  1  0
 31 51  1  0
M  CHG  1  22   1
M  END
>  <DOCK_score>  (1) 
-61.73428

>  <SMILES>  (1) 
CCSc1ccc([C@H](Nc2[nH]cc(-c3cccnc3)[nH+]2)c2ccccc2)cc1

$$$$
