Cc1ccc([C@H](c2ccccc2)[NH+]2CCN(c3ccccc3Nc3cccc(C)c3N)CC2)cc1
     RDKit          3D

 70 74  0  0  1  0  0  0  0  0999 V2000
  131.9621  129.9444  157.4851 C   0  0  0  0  0  0  0  0  0  0  0  0
  131.5108  131.1821  158.2167 C   0  0  0  0  0  0  0  0  0  0  0  0
  131.4074  131.1711  159.5951 C   0  0  0  0  0  0  0  0  0  0  0  0
  130.9944  132.3067  160.2663 C   0  0  0  0  0  0  0  0  0  0  0  0
  130.6840  133.4532  159.5590 C   0  0  0  0  0  0  0  0  0  0  0  0
  130.2332  134.6912  160.2907 C   0  0  2  0  0  0  0  0  0  0  0  0
  130.2135  134.4929  161.3624 H   0  0  0  0  0  0  0  0  0  0  0  0
  128.8522  135.0749  159.8253 C   0  0  0  0  0  0  0  0  0  0  0  0
  127.7397  134.5641  160.4672 C   0  0  0  0  0  0  0  0  0  0  0  0
  126.4729  134.9194  160.0430 C   0  0  0  0  0  0  0  0  0  0  0  0
  126.3187  135.7784  158.9710 C   0  0  0  0  0  0  0  0  0  0  0  0
  127.4312  136.2851  158.3257 C   0  0  0  0  0  0  0  0  0  0  0  0
  128.6980  135.9332  158.7526 C   0  0  0  0  0  0  0  0  0  0  0  0
  131.1666  135.7911  160.0134 N   0  0  0  0  0  0  0  0  0  0  0  0
  131.1848  135.9745  159.0214 H   0  0  0  0  0  0  0  0  0  0  0  0
  132.5128  135.4163  160.4661 C   0  0  0  0  0  0  0  0  0  0  0  0
  133.4892  136.5542  160.1604 C   0  0  0  0  0  0  0  0  0  0  0  0
  133.0447  137.7752  160.8475 N   0  0  0  0  0  0  0  0  0  0  0  0
  133.9444  138.8263  160.6348 C   0  0  0  0  0  0  0  0  0  0  0  0
  134.2025  139.2709  159.3470 C   0  0  0  0  0  0  0  0  0  0  0  0
  135.0908  140.3099  159.1392 C   0  0  0  0  0  0  0  0  0  0  0  0
  135.7241  140.9086  160.2127 C   0  0  0  0  0  0  0  0  0  0  0  0
  135.4735  140.4713  161.5000 C   0  0  0  0  0  0  0  0  0  0  0  0
  134.5796  139.4335  161.7182 C   0  0  0  0  0  0  0  0  0  0  0  0
  134.3196  138.9932  163.0214 N   0  0  0  0  0  0  0  0  0  0  0  0
  135.3621  138.4991  163.8142 C   0  0  0  0  0  0  0  0  0  0  0  0
  136.4483  137.8711  163.2229 C   0  0  0  0  0  0  0  0  0  0  0  0
  137.4769  137.3844  164.0080 C   0  0  0  0  0  0  0  0  0  0  0  0
  137.4269  137.5213  165.3830 C   0  0  0  0  0  0  0  0  0  0  0  0
  136.3483  138.1462  165.9809 C   0  0  0  0  0  0  0  0  0  0  0  0
  136.2987  138.2934  167.4800 C   0  0  0  0  0  0  0  0  0  0  0  0
  135.3144  138.6418  165.2011 C   0  0  0  0  0  0  0  0  0  0  0  0
  134.2236  139.2792  165.8041 N   0  0  0  0  0  0  0  0  0  0  0  0
  131.6882  138.1487  160.4227 C   0  0  0  0  0  0  0  0  0  0  0  0
  130.7267  136.9976  160.7263 C   0  0  0  0  0  0  0  0  0  0  0  0
  130.7819  133.4625  158.1802 C   0  0  0  0  0  0  0  0  0  0  0  0
  131.2003  132.3285  157.5095 C   0  0  0  0  0  0  0  0  0  0  0  0
  131.0944  129.3345  157.2331 H   0  0  0  0  0  0  0  0  0  0  0  0
  132.4820  130.2317  156.5712 H   0  0  0  0  0  0  0  0  0  0  0  0
  132.6362  129.3715  158.1217 H   0  0  0  0  0  0  0  0  0  0  0  0
  131.6499  130.2754  160.1477 H   0  0  0  0  0  0  0  0  0  0  0  0
  130.9137  132.2982  161.3433 H   0  0  0  0  0  0  0  0  0  0  0  0
  127.8602  133.8899  161.3023 H   0  0  0  0  0  0  0  0  0  0  0  0
  125.6038  134.5238  160.5475 H   0  0  0  0  0  0  0  0  0  0  0  0
  125.3290  136.0539  158.6379 H   0  0  0  0  0  0  0  0  0  0  0  0
  127.3106  136.9563  157.4882 H   0  0  0  0  0  0  0  0  0  0  0  0
  129.5672  136.3290  158.2484 H   0  0  0  0  0  0  0  0  0  0  0  0
  132.4963  135.2304  161.5400 H   0  0  0  0  0  0  0  0  0  0  0  0
  132.8328  134.5135  159.9460 H   0  0  0  0  0  0  0  0  0  0  0  0
  133.5162  136.7313  159.0852 H   0  0  0  0  0  0  0  0  0  0  0  0
  134.4853  136.2825  160.5097 H   0  0  0  0  0  0  0  0  0  0  0  0
  133.7094  138.8057  158.5061 H   0  0  0  0  0  0  0  0  0  0  0  0
  135.2903  140.6550  158.1355 H   0  0  0  0  0  0  0  0  0  0  0  0
  136.4167  141.7201  160.0448 H   0  0  0  0  0  0  0  0  0  0  0  0
  135.9706  140.9409  162.3361 H   0  0  0  0  0  0  0  0  0  0  0  0
  133.4171  139.0305  163.3749 H   0  0  0  0  0  0  0  0  0  0  0  0
  136.4906  137.7628  162.1492 H   0  0  0  0  0  0  0  0  0  0  0  0
  138.3221  136.8960  163.5459 H   0  0  0  0  0  0  0  0  0  0  0  0
  138.2331  137.1393  165.9917 H   0  0  0  0  0  0  0  0  0  0  0  0
  136.7701  139.2329  167.7684 H   0  0  0  0  0  0  0  0  0  0  0  0
  135.2603  138.2912  167.8111 H   0  0  0  0  0  0  0  0  0  0  0  0
  136.8299  137.4626  167.9444 H   0  0  0  0  0  0  0  0  0  0  0  0
  133.4995  139.6224  165.2573 H   0  0  0  0  0  0  0  0  0  0  0  0
  134.1918  139.3777  166.7685 H   0  0  0  0  0  0  0  0  0  0  0  0
  131.6855  138.3521  159.3518 H   0  0  0  0  0  0  0  0  0  0  0  0
  131.3704  139.0403  160.9633 H   0  0  0  0  0  0  0  0  0  0  0  0
  129.7226  137.2672  160.3989 H   0  0  0  0  0  0  0  0  0  0  0  0
  130.7194  136.8036  161.7989 H   0  0  0  0  0  0  0  0  0  0  0  0
  130.5353  134.3568  157.6272 H   0  0  0  0  0  0  0  0  0  0  0  0
  131.2816  132.3371  156.4325 H   0  0  0  0  0  0  0  0  0  0  0  0
  1  2  1  0
  1 38  1  0
  1 39  1  0
  1 40  1  0
  2 37  2  0
  2  3  1  0
  3  4  2  0
  3 41  1  0
  4  5  1  0
  4 42  1  0
  5  6  1  0
  5 36  2  0
  6  7  1  1
  6  8  1  0
  6 14  1  0
  8 13  1  0
  8  9  2  0
  9 10  1  0
  9 43  1  0
 10 11  2  0
 10 44  1  0
 11 12  1  0
 11 45  1  0
 12 13  2  0
 12 46  1  0
 13 47  1  0
 14 15  1  0
 14 35  1  0
 14 16  1  0
 16 17  1  0
 16 48  1  0
 16 49  1  0
 17 18  1  0
 17 50  1  0
 17 51  1  0
 18 19  1  0
 18 34  1  0
 19 24  1  0
 19 20  2  0
 20 21  1  0
 20 52  1  0
 21 22  2  0
 21 53  1  0
 22 23  1  0
 22 54  1  0
 23 24  2  0
 23 55  1  0
 24 25  1  0
 25 26  1  0
 25 56  1  0
 26 32  1  0
 26 27  2  0
 27 28  1  0
 27 57  1  0
 28 29  2  0
 28 58  1  0
 29 30  1  0
 29 59  1  0
 30 31  1  0
 30 32  2  0
 31 60  1  0
 31 61  1  0
 31 62  1  0
 32 33  1  0
 33 63  1  0
 33 64  1  0
 34 35  1  0
 34 65  1  0
 34 66  1  0
 35 67  1  0
 35 68  1  0
 36 37  1  0
 36 69  1  0
 37 70  1  0
M  CHG  1  14   1
M  END
>  <DOCK_score>  (1) 
-57.88995

>  <SMILES>  (1) 
Cc1ccc([C@H](c2ccccc2)[NH+]2CCN(c3ccccc3Nc3cccc(C)c3N)CC2)cc1

$$$$
