Oc1ccc(-c2c[nH]c(Nc3ccc(Nc4ccc(Cl)cc4)cc3)[nH+]2)cc1
     RDKit          3D

 45 48  0  0  1  0  0  0  0  0999 V2000
  131.3141  129.4089  152.1102 O   0  0  0  0  0  0  0  0  0  0  0  0
  131.0459  130.0914  153.2544 C   0  0  0  0  0  0  0  0  0  0  0  0
  130.1185  131.1247  153.2436 C   0  0  0  0  0  0  0  0  0  0  0  0
  129.8443  131.8192  154.4033 C   0  0  0  0  0  0  0  0  0  0  0  0
  130.4994  131.4827  155.5868 C   0  0  0  0  0  0  0  0  0  0  0  0
  130.2071  132.2280  156.8359 C   0  0  0  0  0  0  0  0  0  0  0  0
  129.7185  131.6989  157.9851 C   0  0  0  0  0  0  0  0  0  0  0  0
  129.6042  132.7330  158.8830 N   0  0  0  0  0  0  0  0  0  0  0  0
  129.2852  132.6679  159.7967 H   0  0  0  0  0  0  0  0  0  0  0  0
  130.0181  133.8658  158.2521 C   0  0  0  0  0  0  0  0  0  0  0  0
  130.0555  135.1326  158.8107 N   0  0  0  0  0  0  0  0  0  0  0  0
  129.1351  135.4869  159.8049 C   0  0  0  0  0  0  0  0  0  0  0  0
  129.4865  136.4134  160.7780 C   0  0  0  0  0  0  0  0  0  0  0  0
  128.5810  136.7589  161.7613 C   0  0  0  0  0  0  0  0  0  0  0  0
  127.3146  136.1882  161.7706 C   0  0  0  0  0  0  0  0  0  0  0  0
  126.3945  136.5427  162.7641 N   0  0  0  0  0  0  0  0  0  0  0  0
  126.6974  136.3173  164.1095 C   0  0  0  0  0  0  0  0  0  0  0  0
  126.1809  137.1560  165.0890 C   0  0  0  0  0  0  0  0  0  0  0  0
  126.4770  136.9271  166.4184 C   0  0  0  0  0  0  0  0  0  0  0  0
  127.2970  135.8706  166.7740 C   0  0  0  0  0  0  0  0  0  0  0  0
  127.6733  135.5907  168.4455 Cl  0  0  0  0  0  0  0  0  0  0  0  0
  127.8180  135.0372  165.7999 C   0  0  0  0  0  0  0  0  0  0  0  0
  127.5203  135.2576  164.4695 C   0  0  0  0  0  0  0  0  0  0  0  0
  126.9634  135.2616  160.7974 C   0  0  0  0  0  0  0  0  0  0  0  0
  127.8709  134.9119  159.8175 C   0  0  0  0  0  0  0  0  0  0  0  0
  130.3807  133.5590  157.0302 N   0  0  0  0  0  0  0  0  0  0  0  0
  130.7195  134.1841  156.3704 H   0  0  0  0  0  0  0  0  0  0  0  0
  131.4337  130.4484  155.5931 C   0  0  0  0  0  0  0  0  0  0  0  0
  131.6992  129.7539  154.4313 C   0  0  0  0  0  0  0  0  0  0  0  0
  130.8109  129.7153  151.3425 H   0  0  0  0  0  0  0  0  0  0  0  0
  129.6117  131.3852  152.3262 H   0  0  0  0  0  0  0  0  0  0  0  0
  129.1226  132.6227  154.3945 H   0  0  0  0  0  0  0  0  0  0  0  0
  129.4716  130.6626  158.1622 H   0  0  0  0  0  0  0  0  0  0  0  0
  130.7192  135.7744  158.5133 H   0  0  0  0  0  0  0  0  0  0  0  0
  130.4696  136.8604  160.7682 H   0  0  0  0  0  0  0  0  0  0  0  0
  128.8557  137.4761  162.5205 H   0  0  0  0  0  0  0  0  0  0  0  0
  125.5466  136.9446  162.5183 H   0  0  0  0  0  0  0  0  0  0  0  0
  125.5448  137.9835  164.8116 H   0  0  0  0  0  0  0  0  0  0  0  0
  126.0720  137.5762  167.1808 H   0  0  0  0  0  0  0  0  0  0  0  0
  128.4577  134.2135  166.0804 H   0  0  0  0  0  0  0  0  0  0  0  0
  127.9272  134.6068  163.7096 H   0  0  0  0  0  0  0  0  0  0  0  0
  125.9802  134.8147  160.8070 H   0  0  0  0  0  0  0  0  0  0  0  0
  127.5980  134.1912  159.0609 H   0  0  0  0  0  0  0  0  0  0  0  0
  131.9461  130.1883  156.5076 H   0  0  0  0  0  0  0  0  0  0  0  0
  132.4201  128.9498  154.4364 H   0  0  0  0  0  0  0  0  0  0  0  0
  1  2  1  0
  1 30  1  0
  2 29  2  0
  2  3  1  0
  3  4  2  0
  3 31  1  0
  4  5  1  0
  4 32  1  0
  5  6  1  0
  5 28  2  0
  6 26  1  0
  6  7  2  0
  7  8  1  0
  7 33  1  0
  8  9  1  0
  8 10  1  0
 10 11  1  0
 10 26  2  0
 11 12  1  0
 11 34  1  0
 12 25  1  0
 12 13  2  0
 13 14  1  0
 13 35  1  0
 14 15  2  0
 14 36  1  0
 15 16  1  0
 15 24  1  0
 16 17  1  0
 16 37  1  0
 17 23  1  0
 17 18  2  0
 18 19  1  0
 18 38  1  0
 19 20  2  0
 19 39  1  0
 20 21  1  0
 20 22  1  0
 22 23  2  0
 22 40  1  0
 23 41  1  0
 24 25  2  0
 24 42  1  0
 25 43  1  0
 26 27  1  0
 28 29  1  0
 28 44  1  0
 29 45  1  0
M  CHG  1  26   1
M  END
>  <DOCK_score>  (1) 
-53.54985

>  <SMILES>  (1) 
Oc1ccc(-c2c[nH]c(Nc3ccc(Nc4ccc(Cl)cc4)cc3)[nH+]2)cc1

$$$$
