CCc1ccc(-c2c[nH]c(N[C@@H](/C=C/C(=O)NC3=CCC(=O)N3)c3ccccc3)[nH+]2)cc1
     RDKit          3D

 58 61  0  0  1  0  0  0  0  0999 V2000
  130.3916  128.4600  150.9494 C   0  0  0  0  0  0  0  0  0  0  0  0
  131.4630  129.4961  151.2953 C   0  0  0  0  0  0  0  0  0  0  0  0
  131.0831  130.2062  152.5690 C   0  0  0  0  0  0  0  0  0  0  0  0
  131.5019  129.7046  153.7885 C   0  0  0  0  0  0  0  0  0  0  0  0
  131.1564  130.3500  154.9583 C   0  0  0  0  0  0  0  0  0  0  0  0
  130.3841  131.5093  154.9096 C   0  0  0  0  0  0  0  0  0  0  0  0
  130.0096  132.2076  156.1635 C   0  0  0  0  0  0  0  0  0  0  0  0
  129.2848  131.6836  157.1828 C   0  0  0  0  0  0  0  0  0  0  0  0
  129.1726  132.6647  158.1378 N   0  0  0  0  0  0  0  0  0  0  0  0
  128.7089  132.5901  158.9865 H   0  0  0  0  0  0  0  0  0  0  0  0
  129.8327  133.7607  157.6736 C   0  0  0  0  0  0  0  0  0  0  0  0
  129.9562  134.9690  158.3378 N   0  0  0  0  0  0  0  0  0  0  0  0
  128.9023  135.4125  159.2538 C   0  0  1  0  0  0  0  0  0  0  0  0
  128.7862  134.6823  160.0548 H   0  0  0  0  0  0  0  0  0  0  0  0
  129.2776  136.7481  159.8422 C   0  0  0  0  0  0  0  0  0  0  0  0
  129.4144  136.8801  161.1589 C   0  0  0  0  0  0  0  0  0  0  0  0
  129.7745  138.1848  161.7334 C   0  0  0  0  0  0  0  0  0  0  0  0
  130.4547  138.9642  161.0938 O   0  0  0  0  0  0  0  0  0  0  0  0
  129.3509  138.5171  162.9690 N   0  0  0  0  0  0  0  0  0  0  0  0
  129.6919  139.7526  163.5132 C   0  0  0  0  0  0  0  0  0  0  0  0
  129.3127  140.1605  164.7174 C   0  0  0  0  0  0  0  0  0  0  0  0
  129.8989  141.5445  164.9067 C   0  0  0  0  0  0  0  0  0  0  0  0
  130.6383  141.8027  163.6092 C   0  0  0  0  0  0  0  0  0  0  0  0
  131.2629  142.7982  163.3095 O   0  0  0  0  0  0  0  0  0  0  0  0
  130.4604  140.6987  162.8577 N   0  0  0  0  0  0  0  0  0  0  0  0
  127.6038  135.5424  158.5003 C   0  0  0  0  0  0  0  0  0  0  0  0
  126.4030  135.3274  159.1505 C   0  0  0  0  0  0  0  0  0  0  0  0
  125.2115  135.4503  158.4604 C   0  0  0  0  0  0  0  0  0  0  0  0
  125.2213  135.7804  157.1180 C   0  0  0  0  0  0  0  0  0  0  0  0
  126.4223  135.9905  156.4666 C   0  0  0  0  0  0  0  0  0  0  0  0
  127.6136  135.8712  157.1577 C   0  0  0  0  0  0  0  0  0  0  0  0
  130.3273  133.4852  156.4915 N   0  0  0  0  0  0  0  0  0  0  0  0
  130.8402  134.0966  155.9400 H   0  0  0  0  0  0  0  0  0  0  0  0
  129.9602  132.0067  153.6785 C   0  0  0  0  0  0  0  0  0  0  0  0
  130.3166  131.3562  152.5148 C   0  0  0  0  0  0  0  0  0  0  0  0
  130.6665  127.9467  150.0280 H   0  0  0  0  0  0  0  0  0  0  0  0
  130.3122  127.7351  151.7595 H   0  0  0  0  0  0  0  0  0  0  0  0
  129.4326  128.9604  150.8143 H   0  0  0  0  0  0  0  0  0  0  0  0
  131.5424  130.2210  150.4853 H   0  0  0  0  0  0  0  0  0  0  0  0
  132.4220  128.9957  151.4304 H   0  0  0  0  0  0  0  0  0  0  0  0
  132.1002  128.8063  153.8251 H   0  0  0  0  0  0  0  0  0  0  0  0
  131.4841  129.9579  155.9098 H   0  0  0  0  0  0  0  0  0  0  0  0
  128.8739  130.6862  157.2339 H   0  0  0  0  0  0  0  0  0  0  0  0
  130.7406  135.5220  158.1967 H   0  0  0  0  0  0  0  0  0  0  0  0
  129.4355  137.5981  159.1950 H   0  0  0  0  0  0  0  0  0  0  0  0
  129.2564  136.0300  161.8061 H   0  0  0  0  0  0  0  0  0  0  0  0
  128.8084  137.8956  163.4792 H   0  0  0  0  0  0  0  0  0  0  0  0
  128.7068  139.6131  165.4242 H   0  0  0  0  0  0  0  0  0  0  0  0
  130.5889  141.5594  165.7504 H   0  0  0  0  0  0  0  0  0  0  0  0
  129.1063  142.2792  165.0486 H   0  0  0  0  0  0  0  0  0  0  0  0
  130.8252  140.5818  161.9665 H   0  0  0  0  0  0  0  0  0  0  0  0
  126.3955  135.0660  160.1985 H   0  0  0  0  0  0  0  0  0  0  0  0
  124.2733  135.2859  158.9692 H   0  0  0  0  0  0  0  0  0  0  0  0
  124.2906  135.8739  156.5781 H   0  0  0  0  0  0  0  0  0  0  0  0
  126.4299  136.2479  155.4177 H   0  0  0  0  0  0  0  0  0  0  0  0
  128.5520  136.0352  156.6488 H   0  0  0  0  0  0  0  0  0  0  0  0
  129.3576  132.9019  153.6353 H   0  0  0  0  0  0  0  0  0  0  0  0
  129.9925  131.7432  151.5600 H   0  0  0  0  0  0  0  0  0  0  0  0
  1  2  1  0
  1 36  1  0
  1 37  1  0
  1 38  1  0
  2  3  1  0
  2 39  1  0
  2 40  1  0
  3 35  2  0
  3  4  1  0
  4  5  2  0
  4 41  1  0
  5  6  1  0
  5 42  1  0
  6  7  1  0
  6 34  2  0
  7 32  1  0
  7  8  2  0
  8  9  1  0
  8 43  1  0
  9 10  1  0
  9 11  1  0
 11 12  1  0
 11 32  2  0
 12 13  1  0
 12 44  1  0
 13 14  1  1
 13 15  1  0
 13 26  1  0
 15 16  2  0
 15 45  1  0
 16 17  1  0
 16 46  1  0
 17 18  2  0
 17 19  1  0
 19 20  1  0
 19 47  1  0
 20 25  1  0
 20 21  2  0
 21 22  1  0
 21 48  1  0
 22 23  1  0
 22 49  1  0
 22 50  1  0
 23 24  2  0
 23 25  1  0
 25 51  1  0
 26 31  1  0
 26 27  2  0
 27 28  1  0
 27 52  1  0
 28 29  2  0
 28 53  1  0
 29 30  1  0
 29 54  1  0
 30 31  2  0
 30 55  1  0
 31 56  1  0
 32 33  1  0
 34 35  1  0
 34 57  1  0
 35 58  1  0
M  CHG  1  32   1
M  END
>  <DOCK_score>  (1) 
-61.480522

>  <SMILES>  (1) 
CCc1ccc(-c2c[nH]c(N[C@@H](/C=C/C(=O)NC3=CCC(=O)N3)c3ccccc3)[nH+]2)cc1

$$$$
