CC=CCNc1cc(Nc2[nH]c3ccccc3[nH+]2)c2ccccc2c1
     RDKit          3D

 46 49  0  0  0  0  0  0  0  0999 V2000
  126.6942  140.7316  165.2393 C   0  0  0  0  0  0  0  0  0  0  0  0
  126.2715  139.3838  164.7141 C   0  0  0  0  0  0  0  0  0  0  0  0
  127.1592  138.4328  164.5606 C   0  0  0  0  0  0  0  0  0  0  0  0
  126.7365  137.0850  164.0354 C   0  0  0  0  0  0  0  0  0  0  0  0
  126.8359  137.0774  162.5738 N   0  0  0  0  0  0  0  0  0  0  0  0
  128.0252  136.6847  161.9571 C   0  0  0  0  0  0  0  0  0  0  0  0
  128.0088  136.2802  160.6187 C   0  0  0  0  0  0  0  0  0  0  0  0
  129.1572  135.8859  159.9922 C   0  0  0  0  0  0  0  0  0  0  0  0
  129.1230  135.4809  158.6578 N   0  0  0  0  0  0  0  0  0  0  0  0
  129.5230  134.2094  158.3139 C   0  0  0  0  0  0  0  0  0  0  0  0
  130.0648  133.8702  157.1462 N   0  0  0  0  0  0  0  0  0  0  0  0
  130.2400  134.4723  156.4061 H   0  0  0  0  0  0  0  0  0  0  0  0
  130.3358  132.5277  157.1678 C   0  0  0  0  0  0  0  0  0  0  0  0
  130.8930  131.6427  156.2490 C   0  0  0  0  0  0  0  0  0  0  0  0
  131.0293  130.3113  156.5766 C   0  0  0  0  0  0  0  0  0  0  0  0
  130.6151  129.8457  157.8160 C   0  0  0  0  0  0  0  0  0  0  0  0
  130.0618  130.7081  158.7373 C   0  0  0  0  0  0  0  0  0  0  0  0
  129.9168  132.0564  158.4228 C   0  0  0  0  0  0  0  0  0  0  0  0
  129.4190  133.1389  159.0985 N   0  0  0  0  0  0  0  0  0  0  0  0
  129.0527  133.1275  159.9965 H   0  0  0  0  0  0  0  0  0  0  0  0
  130.3790  135.8902  160.7004 C   0  0  0  0  0  0  0  0  0  0  0  0
  131.5754  135.4904  160.0853 C   0  0  0  0  0  0  0  0  0  0  0  0
  132.7372  135.5054  160.7955 C   0  0  0  0  0  0  0  0  0  0  0  0
  132.7580  135.9127  162.1278 C   0  0  0  0  0  0  0  0  0  0  0  0
  131.6173  136.3072  162.7571 C   0  0  0  0  0  0  0  0  0  0  0  0
  130.3991  136.3044  162.0551 C   0  0  0  0  0  0  0  0  0  0  0  0
  129.2029  136.7048  162.6734 C   0  0  0  0  0  0  0  0  0  0  0  0
  127.4337  141.1676  164.5677 H   0  0  0  0  0  0  0  0  0  0  0  0
  125.8254  141.3873  165.2980 H   0  0  0  0  0  0  0  0  0  0  0  0
  127.1290  140.6146  166.2319 H   0  0  0  0  0  0  0  0  0  0  0  0
  125.2366  139.2019  164.4641 H   0  0  0  0  0  0  0  0  0  0  0  0
  128.1940  138.6146  164.8105 H   0  0  0  0  0  0  0  0  0  0  0  0
  125.7061  136.8869  164.3304 H   0  0  0  0  0  0  0  0  0  0  0  0
  127.3872  136.3140  164.4477 H   0  0  0  0  0  0  0  0  0  0  0  0
  126.0755  137.3455  162.0344 H   0  0  0  0  0  0  0  0  0  0  0  0
  127.0761  136.2759  160.0744 H   0  0  0  0  0  0  0  0  0  0  0  0
  128.8172  136.0951  157.9722 H   0  0  0  0  0  0  0  0  0  0  0  0
  131.2178  131.9988  155.2824 H   0  0  0  0  0  0  0  0  0  0  0  0
  131.4621  129.6253  155.8634 H   0  0  0  0  0  0  0  0  0  0  0  0
  130.7274  128.7998  158.0607 H   0  0  0  0  0  0  0  0  0  0  0  0
  129.7422  130.3393  159.7006 H   0  0  0  0  0  0  0  0  0  0  0  0
  131.5746  135.1718  159.0533 H   0  0  0  0  0  0  0  0  0  0  0  0
  133.6561  135.1974  160.3190 H   0  0  0  0  0  0  0  0  0  0  0  0
  133.6926  135.9157  162.6690 H   0  0  0  0  0  0  0  0  0  0  0  0
  131.6479  136.6207  163.7901 H   0  0  0  0  0  0  0  0  0  0  0  0
  129.2053  137.0224  163.7056 H   0  0  0  0  0  0  0  0  0  0  0  0
  1  2  1  0
  1 28  1  0
  1 29  1  0
  1 30  1  0
  2  3  2  0
  2 31  1  0
  3  4  1  0
  3 32  1  0
  4  5  1  0
  4 33  1  0
  4 34  1  0
  5  6  1  0
  5 35  1  0
  6 27  2  0
  6  7  1  0
  7  8  2  0
  7 36  1  0
  8  9  1  0
  8 21  1  0
  9 10  1  0
  9 37  1  0
 10 19  1  0
 10 11  2  0
 11 12  1  0
 11 13  1  0
 13 18  2  0
 13 14  1  0
 14 15  2  0
 14 38  1  0
 15 16  1  0
 15 39  1  0
 16 17  2  0
 16 40  1  0
 17 18  1  0
 17 41  1  0
 18 19  1  0
 19 20  1  0
 21 26  2  0
 21 22  1  0
 22 23  2  0
 22 42  1  0
 23 24  1  0
 23 43  1  0
 24 25  2  0
 24 44  1  0
 25 26  1  0
 25 45  1  0
 26 27  1  0
 27 46  1  0
M  CHG  1  11   1
M  END
>  <DOCK_score>  (1) 
-41.389462

>  <SMILES>  (1) 
CC=CCNc1cc(Nc2[nH]c3ccccc3[nH+]2)c2ccccc2c1

$$$$
