C1=CCC(c2c[nH]c(N[C@H](c3ccccc3)c3cccnc3)[nH+]2)=CC1
     RDKit          3D

 46 49  0  0  1  0  0  0  0  0999 V2000
  131.2289  130.0549  153.4055 C   0  0  0  0  0  0  0  0  0  0  0  0
  131.6902  129.6183  154.5368 C   0  0  0  0  0  0  0  0  0  0  0  0
  131.1163  130.0150  155.8612 C   0  0  0  0  0  0  0  0  0  0  0  0
  130.3073  131.2724  155.7497 C   0  0  0  0  0  0  0  0  0  0  0  0
  130.0295  132.0482  156.9758 C   0  0  0  0  0  0  0  0  0  0  0  0
  129.3587  131.6024  158.0697 C   0  0  0  0  0  0  0  0  0  0  0  0
  129.3292  132.6398  158.9687 N   0  0  0  0  0  0  0  0  0  0  0  0
  128.9182  132.6268  159.8472 H   0  0  0  0  0  0  0  0  0  0  0  0
  129.9824  133.6899  158.4001 C   0  0  0  0  0  0  0  0  0  0  0  0
  130.1745  134.9306  158.9831 N   0  0  0  0  0  0  0  0  0  0  0  0
  129.1913  135.4525  159.9355 C   0  0  2  0  0  0  0  0  0  0  0  0
  129.1104  134.7726  160.7836 H   0  0  0  0  0  0  0  0  0  0  0  0
  127.8503  135.5722  159.2581 C   0  0  0  0  0  0  0  0  0  0  0  0
  126.6890  135.4254  159.9935 C   0  0  0  0  0  0  0  0  0  0  0  0
  125.4590  135.5397  159.3730 C   0  0  0  0  0  0  0  0  0  0  0  0
  125.3904  135.7912  158.0155 C   0  0  0  0  0  0  0  0  0  0  0  0
  126.5517  135.9331  157.2792 C   0  0  0  0  0  0  0  0  0  0  0  0
  127.7816  135.8232  157.9005 C   0  0  0  0  0  0  0  0  0  0  0  0
  129.6321  136.8096  160.4198 C   0  0  0  0  0  0  0  0  0  0  0  0
  129.8080  137.8524  159.5228 C   0  0  0  0  0  0  0  0  0  0  0  0
  130.2100  139.0848  160.0142 C   0  0  0  0  0  0  0  0  0  0  0  0
  130.4303  139.2295  161.3711 C   0  0  0  0  0  0  0  0  0  0  0  0
  130.2580  138.2141  162.1944 N   0  0  0  0  0  0  0  0  0  0  0  0
  129.8719  137.0291  161.7629 C   0  0  0  0  0  0  0  0  0  0  0  0
  130.3946  133.3355  157.2077 N   0  0  0  0  0  0  0  0  0  0  0  0
  130.8839  133.9015  156.5903 H   0  0  0  0  0  0  0  0  0  0  0  0
  129.8394  131.7151  154.6026 C   0  0  0  0  0  0  0  0  0  0  0  0
  130.0692  130.9991  153.3055 C   0  0  0  0  0  0  0  0  0  0  0  0
  131.7028  129.7228  152.4936 H   0  0  0  0  0  0  0  0  0  0  0  0
  132.5300  128.9395  154.5230 H   0  0  0  0  0  0  0  0  0  0  0  0
  131.9283  130.1745  156.5708 H   0  0  0  0  0  0  0  0  0  0  0  0
  130.4777  129.2104  156.2257 H   0  0  0  0  0  0  0  0  0  0  0  0
  128.9307  130.6202  158.2062 H   0  0  0  0  0  0  0  0  0  0  0  0
  130.9581  135.4562  158.7580 H   0  0  0  0  0  0  0  0  0  0  0  0
  126.7427  135.2250  161.0533 H   0  0  0  0  0  0  0  0  0  0  0  0
  124.5517  135.4292  159.9483 H   0  0  0  0  0  0  0  0  0  0  0  0
  124.4294  135.8770  157.5301 H   0  0  0  0  0  0  0  0  0  0  0  0
  126.4980  136.1294  156.2186 H   0  0  0  0  0  0  0  0  0  0  0  0
  128.6889  135.9337  157.3252 H   0  0  0  0  0  0  0  0  0  0  0  0
  129.6319  137.7090  158.4668 H   0  0  0  0  0  0  0  0  0  0  0  0
  130.3532  139.9200  159.3448 H   0  0  0  0  0  0  0  0  0  0  0  0
  130.7470  140.1854  161.7615 H   0  0  0  0  0  0  0  0  0  0  0  0
  129.7413  136.2210  162.4675 H   0  0  0  0  0  0  0  0  0  0  0  0
  129.2673  132.6311  154.5949 H   0  0  0  0  0  0  0  0  0  0  0  0
  129.1725  130.4373  153.0439 H   0  0  0  0  0  0  0  0  0  0  0  0
  130.2723  131.7316  152.5242 H   0  0  0  0  0  0  0  0  0  0  0  0
  1 28  1  0
  1  2  2  0
  1 29  1  0
  2  3  1  0
  2 30  1  0
  3  4  1  0
  3 31  1  0
  3 32  1  0
  4  5  1  0
  4 27  2  0
  5 25  1  0
  5  6  2  0
  6  7  1  0
  6 33  1  0
  7  8  1  0
  7  9  1  0
  9 10  1  0
  9 25  2  0
 10 11  1  0
 10 34  1  0
 11 12  1  1
 11 13  1  0
 11 19  1  0
 13 18  1  0
 13 14  2  0
 14 15  1  0
 14 35  1  0
 15 16  2  0
 15 36  1  0
 16 17  1  0
 16 37  1  0
 17 18  2  0
 17 38  1  0
 18 39  1  0
 19 24  1  0
 19 20  2  0
 20 21  1  0
 20 40  1  0
 21 22  2  0
 21 41  1  0
 22 23  1  0
 22 42  1  0
 23 24  2  0
 24 43  1  0
 25 26  1  0
 27 28  1  0
 27 44  1  0
 28 45  1  0
 28 46  1  0
M  CHG  1  25   1
M  END
>  <DOCK_score>  (1) 
-57.754181

>  <SMILES>  (1) 
C1=CCC(c2c[nH]c(N[C@H](c3ccccc3)c3cccnc3)[nH+]2)=CC1

$$$$
