C[C@]1(NC(=O)c2cccc(COc3ccc(Cl)cc3OCc3cccc(O)c3)c2)CC[NH2+]C1
     RDKit          3D

 61 64  0  0  1  0  0  0  0  0999 V2000
  130.9900  131.6043  160.2799 C   0  0  0  0  0  0  0  0  0  0  0  0
  130.2984  132.5597  159.3052 C   0  0  2  0  0  0  0  0  0  0  0  0
  129.0823  133.1091  159.9097 N   0  0  0  0  0  0  0  0  0  0  0  0
  129.1602  133.8250  161.0490 C   0  0  0  0  0  0  0  0  0  0  0  0
  130.2395  134.0149  161.5749 O   0  0  0  0  0  0  0  0  0  0  0  0
  127.9329  134.3793  161.6592 C   0  0  0  0  0  0  0  0  0  0  0  0
  126.7018  133.7561  161.4476 C   0  0  0  0  0  0  0  0  0  0  0  0
  125.5606  134.2783  162.0199 C   0  0  0  0  0  0  0  0  0  0  0  0
  125.6337  135.4169  162.8019 C   0  0  0  0  0  0  0  0  0  0  0  0
  126.8507  136.0405  163.0149 C   0  0  0  0  0  0  0  0  0  0  0  0
  126.9212  137.2811  163.8673 C   0  0  0  0  0  0  0  0  0  0  0  0
  126.7449  138.4356  163.0437 O   0  0  0  0  0  0  0  0  0  0  0  0
  126.7816  139.6465  163.6619 C   0  0  0  0  0  0  0  0  0  0  0  0
  125.6157  140.2100  164.1546 C   0  0  0  0  0  0  0  0  0  0  0  0
  125.6541  141.4411  164.7822 C   0  0  0  0  0  0  0  0  0  0  0  0
  126.8555  142.1133  164.9200 C   0  0  0  0  0  0  0  0  0  0  0  0
  126.8980  143.6590  165.7089 Cl  0  0  0  0  0  0  0  0  0  0  0  0
  128.0237  141.5534  164.4348 C   0  0  0  0  0  0  0  0  0  0  0  0
  127.9902  140.3221  163.8001 C   0  0  0  0  0  0  0  0  0  0  0  0
  129.1371  139.7724  163.3184 O   0  0  0  0  0  0  0  0  0  0  0  0
  130.1555  140.6748  162.8819 C   0  0  0  0  0  0  0  0  0  0  0  0
  130.9545  140.0337  161.7765 C   0  0  0  0  0  0  0  0  0  0  0  0
  132.3351  140.1107  161.7879 C   0  0  0  0  0  0  0  0  0  0  0  0
  133.0710  139.5242  160.7752 C   0  0  0  0  0  0  0  0  0  0  0  0
  132.4281  138.8592  159.7488 C   0  0  0  0  0  0  0  0  0  0  0  0
  131.0433  138.7804  159.7350 C   0  0  0  0  0  0  0  0  0  0  0  0
  130.4087  138.1272  158.7263 O   0  0  0  0  0  0  0  0  0  0  0  0
  130.3072  139.3701  160.7527 C   0  0  0  0  0  0  0  0  0  0  0  0
  127.9992  135.5313  162.4442 C   0  0  0  0  0  0  0  0  0  0  0  0
  129.9587  131.8279  157.9865 C   0  0  0  0  0  0  0  0  0  0  0  0
  130.2583  132.8996  156.9084 C   0  0  0  0  0  0  0  0  0  0  0  0
  131.4627  133.5881  157.4392 N   0  0  0  0  0  0  0  0  0  0  0  0
  132.2891  133.0426  157.2454 H   0  0  0  0  0  0  0  0  0  0  0  0
  131.5474  134.5063  157.0295 H   0  0  0  0  0  0  0  0  0  0  0  0
  131.2542  133.6970  158.8994 C   0  0  0  0  0  0  0  0  0  0  0  0
  130.3188  130.7791  160.5175 H   0  0  0  0  0  0  0  0  0  0  0  0
  131.8987  131.2133  159.8222 H   0  0  0  0  0  0  0  0  0  0  0  0
  131.2453  132.1400  161.1942 H   0  0  0  0  0  0  0  0  0  0  0  0
  128.2209  132.9575  159.4902 H   0  0  0  0  0  0  0  0  0  0  0  0
  126.6430  132.8671  160.8371 H   0  0  0  0  0  0  0  0  0  0  0  0
  124.6075  133.7970  161.8570 H   0  0  0  0  0  0  0  0  0  0  0  0
  124.7374  135.8228  163.2470 H   0  0  0  0  0  0  0  0  0  0  0  0
  127.8932  137.3300  164.3582 H   0  0  0  0  0  0  0  0  0  0  0  0
  126.1345  137.2491  164.6212 H   0  0  0  0  0  0  0  0  0  0  0  0
  124.6766  139.6871  164.0485 H   0  0  0  0  0  0  0  0  0  0  0  0
  124.7445  141.8790  165.1662 H   0  0  0  0  0  0  0  0  0  0  0  0
  128.9614  142.0777  164.5471 H   0  0  0  0  0  0  0  0  0  0  0  0
  130.8148  140.9101  163.7173 H   0  0  0  0  0  0  0  0  0  0  0  0
  129.6952  141.5913  162.5129 H   0  0  0  0  0  0  0  0  0  0  0  0
  132.8395  140.6302  162.5893 H   0  0  0  0  0  0  0  0  0  0  0  0
  134.1491  139.5861  160.7860 H   0  0  0  0  0  0  0  0  0  0  0  0
  133.0034  138.4007  158.9579 H   0  0  0  0  0  0  0  0  0  0  0  0
  131.0053  137.7504  158.0651 H   0  0  0  0  0  0  0  0  0  0  0  0
  129.2287  139.3138  160.7419 H   0  0  0  0  0  0  0  0  0  0  0  0
  128.9478  136.0209  162.6078 H   0  0  0  0  0  0  0  0  0  0  0  0
  130.5997  130.9565  157.8528 H   0  0  0  0  0  0  0  0  0  0  0  0
  128.9072  131.5417  157.9640 H   0  0  0  0  0  0  0  0  0  0  0  0
  130.4753  132.4298  155.9490 H   0  0  0  0  0  0  0  0  0  0  0  0
  129.4243  133.5950  156.8150 H   0  0  0  0  0  0  0  0  0  0  0  0
  130.8069  134.6614  159.1398 H   0  0  0  0  0  0  0  0  0  0  0  0
  132.2056  133.5858  159.4196 H   0  0  0  0  0  0  0  0  0  0  0  0
  1 36  1  0
  1 37  1  0
  1 38  1  0
  2  1  1  0
  2 35  1  0
  2  3  1  1
  2 30  1  0
  3  4  1  0
  3 39  1  0
  4  5  2  0
  4  6  1  0
  6 29  1  0
  6  7  2  0
  7  8  1  0
  7 40  1  0
  8  9  2  0
  8 41  1  0
  9 10  1  0
  9 42  1  0
 10 11  1  0
 10 29  2  0
 11 12  1  0
 11 43  1  0
 11 44  1  0
 12 13  1  0
 13 19  1  0
 13 14  2  0
 14 15  1  0
 14 45  1  0
 15 16  2  0
 15 46  1  0
 16 17  1  0
 16 18  1  0
 18 19  2  0
 18 47  1  0
 19 20  1  0
 20 21  1  0
 21 22  1  0
 21 48  1  0
 21 49  1  0
 22 28  1  0
 22 23  2  0
 23 24  1  0
 23 50  1  0
 24 25  2  0
 24 51  1  0
 25 26  1  0
 25 52  1  0
 26 27  1  0
 26 28  2  0
 27 53  1  0
 28 54  1  0
 29 55  1  0
 30 31  1  0
 30 56  1  0
 30 57  1  0
 31 32  1  0
 31 58  1  0
 31 59  1  0
 32 33  1  0
 32 34  1  0
 32 35  1  0
 35 60  1  0
 35 61  1  0
M  CHG  1  32   1
M  END
>  <DOCK_score>  (1) 
-51.796066

>  <SMILES>  (1) 
C[C@]1(NC(=O)c2cccc(COc3ccc(Cl)cc3OCc3cccc(O)c3)c2)CC[NH2+]C1

$$$$
