Nc1ccc(-c2c[nH]c(N[C@H](CBr)c3ccc(-c4ccccc4)cc3)[nH+]2)cc1
     RDKit          3D

 50 53  0  0  1  0  0  0  0  0999 V2000
  131.2727  129.7079  151.8533 N   0  0  0  0  0  0  0  0  0  0  0  0
  131.0011  130.3763  153.0495 C   0  0  0  0  0  0  0  0  0  0  0  0
  130.3671  131.6133  153.0248 C   0  0  0  0  0  0  0  0  0  0  0  0
  130.0975  132.2747  154.2043 C   0  0  0  0  0  0  0  0  0  0  0  0
  130.4612  131.7019  155.4221 C   0  0  0  0  0  0  0  0  0  0  0  0
  130.1727  132.4116  156.6925 C   0  0  0  0  0  0  0  0  0  0  0  0
  129.4003  131.9496  157.7068 C   0  0  0  0  0  0  0  0  0  0  0  0
  129.4025  132.9183  158.6825 N   0  0  0  0  0  0  0  0  0  0  0  0
  128.9377  132.8782  159.5329 H   0  0  0  0  0  0  0  0  0  0  0  0
  130.1767  133.9437  158.2344 C   0  0  0  0  0  0  0  0  0  0  0  0
  130.4379  135.1167  158.9216 N   0  0  0  0  0  0  0  0  0  0  0  0
  129.4460  135.6547  159.8559 C   0  0  2  0  0  0  0  0  0  0  0  0
  128.9938  134.8367  160.4166 H   0  0  0  0  0  0  0  0  0  0  0  0
  128.3609  136.3990  159.0751 C   0  0  0  0  0  0  0  0  0  0  0  0
  127.0831  135.1031  158.3315 Br  0  0  0  0  0  0  0  0  0  0  0  0
  130.1197  136.6062  160.8109 C   0  0  0  0  0  0  0  0  0  0  0  0
  130.7661  137.7282  160.3245 C   0  0  0  0  0  0  0  0  0  0  0  0
  131.3806  138.6054  161.1948 C   0  0  0  0  0  0  0  0  0  0  0  0
  131.3579  138.3536  162.5652 C   0  0  0  0  0  0  0  0  0  0  0  0
  132.0222  139.2899  163.5055 C   0  0  0  0  0  0  0  0  0  0  0  0
  131.5289  139.4492  164.7988 C   0  0  0  0  0  0  0  0  0  0  0  0
  132.1535  140.3179  165.6707 C   0  0  0  0  0  0  0  0  0  0  0  0
  133.2608  141.0375  165.2592 C   0  0  0  0  0  0  0  0  0  0  0  0
  133.7516  140.8872  163.9748 C   0  0  0  0  0  0  0  0  0  0  0  0
  133.1380  140.0174  163.0963 C   0  0  0  0  0  0  0  0  0  0  0  0
  130.7099  137.2191  163.0493 C   0  0  0  0  0  0  0  0  0  0  0  0
  130.0942  136.3513  162.1702 C   0  0  0  0  0  0  0  0  0  0  0  0
  130.6350  133.6372  157.0452 N   0  0  0  0  0  0  0  0  0  0  0  0
  131.2125  134.1975  156.5036 H   0  0  0  0  0  0  0  0  0  0  0  0
  131.1017  130.4639  155.4441 C   0  0  0  0  0  0  0  0  0  0  0  0
  131.3646  129.8038  154.2623 C   0  0  0  0  0  0  0  0  0  0  0  0
  131.0191  130.1076  151.0061 H   0  0  0  0  0  0  0  0  0  0  0  0
  131.7152  128.8453  151.8694 H   0  0  0  0  0  0  0  0  0  0  0  0
  130.0859  132.0568  152.0811 H   0  0  0  0  0  0  0  0  0  0  0  0
  129.6046  133.2353  154.1849 H   0  0  0  0  0  0  0  0  0  0  0  0
  128.8860  131.0007  157.7432 H   0  0  0  0  0  0  0  0  0  0  0  0
  131.2777  135.5825  158.7844 H   0  0  0  0  0  0  0  0  0  0  0  0
  127.8375  137.0833  159.7427 H   0  0  0  0  0  0  0  0  0  0  0  0
  128.8199  136.9634  158.2633 H   0  0  0  0  0  0  0  0  0  0  0  0
  130.7865  137.9202  159.2618 H   0  0  0  0  0  0  0  0  0  0  0  0
  131.8818  139.4831  160.8144 H   0  0  0  0  0  0  0  0  0  0  0  0
  130.6620  138.8909  165.1197 H   0  0  0  0  0  0  0  0  0  0  0  0
  131.7746  140.4391  166.6747 H   0  0  0  0  0  0  0  0  0  0  0  0
  133.7439  141.7196  165.9434 H   0  0  0  0  0  0  0  0  0  0  0  0
  134.6163  141.4518  163.6586 H   0  0  0  0  0  0  0  0  0  0  0  0
  133.5217  139.9010  162.0935 H   0  0  0  0  0  0  0  0  0  0  0  0
  130.6898  137.0190  164.1104 H   0  0  0  0  0  0  0  0  0  0  0  0
  129.5912  135.4719  162.5443 H   0  0  0  0  0  0  0  0  0  0  0  0
  131.3884  130.0204  156.3861 H   0  0  0  0  0  0  0  0  0  0  0  0
  131.8574  128.8429  154.2791 H   0  0  0  0  0  0  0  0  0  0  0  0
  1  2  1  0
  1 32  1  0
  1 33  1  0
  2 31  2  0
  2  3  1  0
  3  4  2  0
  3 34  1  0
  4  5  1  0
  4 35  1  0
  5  6  1  0
  5 30  2  0
  6 28  1  0
  6  7  2  0
  7  8  1  0
  7 36  1  0
  8  9  1  0
  8 10  1  0
 10 11  1  0
 10 28  2  0
 11 12  1  0
 11 37  1  0
 12 13  1  1
 12 14  1  0
 12 16  1  0
 14 15  1  0
 14 38  1  0
 14 39  1  0
 16 27  1  0
 16 17  2  0
 17 18  1  0
 17 40  1  0
 18 19  2  0
 18 41  1  0
 19 20  1  0
 19 26  1  0
 20 25  1  0
 20 21  2  0
 21 22  1  0
 21 42  1  0
 22 23  2  0
 22 43  1  0
 23 24  1  0
 23 44  1  0
 24 25  2  0
 24 45  1  0
 25 46  1  0
 26 27  2  0
 26 47  1  0
 27 48  1  0
 28 29  1  0
 30 31  1  0
 30 49  1  0
 31 50  1  0
M  CHG  1  28   1
M  END
>  <DOCK_score>  (1) 
-56.500618

>  <SMILES>  (1) 
Nc1ccc(-c2c[nH]c(N[C@H](CBr)c3ccc(-c4ccccc4)cc3)[nH+]2)cc1

$$$$
