CC/C=C\C[NH2+]Cc1c[nH]nc1-c1ccc(N[C@H]2Cc3ccc(-c4ccc(N)cc4)cc3C2)o1
     RDKit          3D

 66 70  0  0  1  0  0  0  0  0999 V2000
  135.4718  135.6626  163.0256 C   0  0  0  0  0  0  0  0  0  0  0  0
  134.2092  136.0499  162.2532 C   0  0  0  0  0  0  0  0  0  0  0  0
  134.5056  137.2317  161.3664 C   0  0  0  0  0  0  0  0  0  0  0  0
  133.5626  137.7356  160.6095 C   0  0  0  0  0  0  0  0  0  0  0  0
  132.1431  137.2491  160.7501 C   0  0  0  0  0  0  0  0  0  0  0  0
  131.9227  136.1133  159.8449 N   0  0  0  0  0  0  0  0  0  0  0  0
  132.5590  135.3667  160.0810 H   0  0  0  0  0  0  0  0  0  0  0  0
  132.0855  136.4054  158.8929 H   0  0  0  0  0  0  0  0  0  0  0  0
  130.5392  135.6392  159.9819 C   0  0  0  0  0  0  0  0  0  0  0  0
  130.3131  134.4740  159.0532 C   0  0  0  0  0  0  0  0  0  0  0  0
  131.2271  133.9323  158.2199 C   0  0  0  0  0  0  0  0  0  0  0  0
  130.6369  132.9146  157.5565 N   0  0  0  0  0  0  0  0  0  0  0  0
  131.0586  132.3495  156.8902 H   0  0  0  0  0  0  0  0  0  0  0  0
  129.3108  132.8163  157.9964 N   0  0  0  0  0  0  0  0  0  0  0  0
  129.1098  133.7529  158.9024 C   0  0  0  0  0  0  0  0  0  0  0  0
  127.8471  134.0065  159.6264 C   0  0  0  0  0  0  0  0  0  0  0  0
  126.6888  133.3119  159.4743 C   0  0  0  0  0  0  0  0  0  0  0  0
  125.7499  133.8865  160.3536 C   0  0  0  0  0  0  0  0  0  0  0  0
  126.3796  134.9007  160.9974 C   0  0  0  0  0  0  0  0  0  0  0  0
  125.8105  135.7319  161.9553 N   0  0  0  0  0  0  0  0  0  0  0  0
  126.6437  136.3074  163.0139 C   0  0  1  0  0  0  0  0  0  0  0  0
  127.6109  136.6172  162.6179 H   0  0  0  0  0  0  0  0  0  0  0  0
  125.9251  137.4912  163.6950 C   0  0  0  0  0  0  0  0  0  0  0  0
  126.3357  137.4199  165.1507 C   0  0  0  0  0  0  0  0  0  0  0  0
  126.2619  138.3778  166.1501 C   0  0  0  0  0  0  0  0  0  0  0  0
  126.7004  138.0904  167.4251 C   0  0  0  0  0  0  0  0  0  0  0  0
  127.2209  136.8294  167.7111 C   0  0  0  0  0  0  0  0  0  0  0  0
  127.6952  136.5119  169.0803 C   0  0  0  0  0  0  0  0  0  0  0  0
  128.7237  135.5894  169.2663 C   0  0  0  0  0  0  0  0  0  0  0  0
  129.1658  135.2990  170.5393 C   0  0  0  0  0  0  0  0  0  0  0  0
  128.5803  135.9179  171.6377 C   0  0  0  0  0  0  0  0  0  0  0  0
  129.0262  135.6188  172.9260 N   0  0  0  0  0  0  0  0  0  0  0  0
  127.5509  136.8342  171.4547 C   0  0  0  0  0  0  0  0  0  0  0  0
  127.1091  137.1312  170.1832 C   0  0  0  0  0  0  0  0  0  0  0  0
  127.2939  135.8697  166.7053 C   0  0  0  0  0  0  0  0  0  0  0  0
  126.8514  136.1668  165.4292 C   0  0  0  0  0  0  0  0  0  0  0  0
  126.8217  135.3121  164.1799 C   0  0  0  0  0  0  0  0  0  0  0  0
  127.6445  134.9706  160.5490 O   0  0  0  0  0  0  0  0  0  0  0  0
  136.2620  135.3999  162.3222 H   0  0  0  0  0  0  0  0  0  0  0  0
  135.7956  136.5042  163.6380 H   0  0  0  0  0  0  0  0  0  0  0  0
  135.2575  134.8078  163.6671 H   0  0  0  0  0  0  0  0  0  0  0  0
  133.4191  136.3125  162.9566 H   0  0  0  0  0  0  0  0  0  0  0  0
  133.8855  135.2082  161.6408 H   0  0  0  0  0  0  0  0  0  0  0  0
  135.4954  137.6634  161.3549 H   0  0  0  0  0  0  0  0  0  0  0  0
  133.8021  138.4994  159.8846 H   0  0  0  0  0  0  0  0  0  0  0  0
  131.4558  138.0557  160.4948 H   0  0  0  0  0  0  0  0  0  0  0  0
  131.9672  136.9336  161.7784 H   0  0  0  0  0  0  0  0  0  0  0  0
  129.8518  136.4458  159.7267 H   0  0  0  0  0  0  0  0  0  0  0  0
  130.3633  135.3236  161.0103 H   0  0  0  0  0  0  0  0  0  0  0  0
  132.2498  134.2585  158.1015 H   0  0  0  0  0  0  0  0  0  0  0  0
  126.5207  132.4790  158.8075 H   0  0  0  0  0  0  0  0  0  0  0  0
  124.7237  133.5781  160.4890 H   0  0  0  0  0  0  0  0  0  0  0  0
  124.8617  135.9308  161.9227 H   0  0  0  0  0  0  0  0  0  0  0  0
  126.2503  138.4343  163.2561 H   0  0  0  0  0  0  0  0  0  0  0  0
  124.8446  137.3831  163.5996 H   0  0  0  0  0  0  0  0  0  0  0  0
  125.8586  139.3548  165.9284 H   0  0  0  0  0  0  0  0  0  0  0  0
  126.6410  138.8403  168.2000 H   0  0  0  0  0  0  0  0  0  0  0  0
  129.1760  135.1051  168.4135 H   0  0  0  0  0  0  0  0  0  0  0  0
  129.9654  134.5873  170.6836 H   0  0  0  0  0  0  0  0  0  0  0  0
  128.6178  136.0500  173.6929 H   0  0  0  0  0  0  0  0  0  0  0  0
  129.7444  134.9795  173.0543 H   0  0  0  0  0  0  0  0  0  0  0  0
  127.0974  137.3140  172.3095 H   0  0  0  0  0  0  0  0  0  0  0  0
  126.3092  137.8428  170.0416 H   0  0  0  0  0  0  0  0  0  0  0  0
  127.6965  134.8912  166.9220 H   0  0  0  0  0  0  0  0  0  0  0  0
  125.9822  134.6181  164.2163 H   0  0  0  0  0  0  0  0  0  0  0  0
  127.7596  134.7671  164.0721 H   0  0  0  0  0  0  0  0  0  0  0  0
  1  2  1  0
  1 39  1  0
  1 40  1  0
  1 41  1  0
  2  3  1  0
  2 42  1  0
  2 43  1  0
  3  4  2  0
  3 44  1  0
  4  5  1  0
  4 45  1  0
  5  6  1  0
  5 46  1  0
  5 47  1  0
  6  7  1  0
  6  8  1  0
  6  9  1  0
  9 10  1  0
  9 48  1  0
  9 49  1  0
 10 15  1  0
 10 11  2  0
 11 12  1  0
 11 50  1  0
 12 13  1  0
 12 14  1  0
 14 15  2  0
 15 16  1  0
 16 38  1  0
 16 17  2  0
 17 18  1  0
 17 51  1  0
 18 19  2  0
 18 52  1  0
 19 20  1  0
 19 38  1  0
 20 21  1  0
 20 53  1  0
 21 22  1  6
 21 37  1  0
 21 23  1  0
 23 24  1  0
 23 54  1  0
 23 55  1  0
 24 36  2  0
 24 25  1  0
 25 26  2  0
 25 56  1  0
 26 27  1  0
 26 57  1  0
 27 28  1  0
 27 35  2  0
 28 34  1  0
 28 29  2  0
 29 30  1  0
 29 58  1  0
 30 31  2  0
 30 59  1  0
 31 32  1  0
 31 33  1  0
 32 60  1  0
 32 61  1  0
 33 34  2  0
 33 62  1  0
 34 63  1  0
 35 36  1  0
 35 64  1  0
 36 37  1  0
 37 65  1  0
 37 66  1  0
M  CHG  1   6   1
M  END
>  <DOCK_score>  (1) 
-49.892616

>  <SMILES>  (1) 
CC/C=C\C[NH2+]Cc1c[nH]nc1-c1ccc(N[C@H]2Cc3ccc(-c4ccc(N)cc4)cc3C2)o1

$$$$
