[NH3+][C@H](Cc1cn(C(c2ccccc2)c2ccccc2)nn1)C(=O)Nc1cccc(O)c1
     RDKit          3D

 55 58  0  0  1  0  0  0  0  0999 V2000
  130.3837  134.1517  157.0834 N   0  0  0  0  0  0  0  0  0  0  0  0
  129.7305  134.2104  156.3167 H   0  0  0  0  0  0  0  0  0  0  0  0
  131.2485  134.6019  156.8235 H   0  0  0  0  0  0  0  0  0  0  0  0
  130.5612  133.1825  157.3007 H   0  0  0  0  0  0  0  0  0  0  0  0
  129.8173  134.8218  158.2616 C   0  0  2  0  0  0  0  0  0  0  0  0
  129.6257  135.8689  158.0269 H   0  0  0  0  0  0  0  0  0  0  0  0
  130.8080  134.7328  159.4242 C   0  0  0  0  0  0  0  0  0  0  0  0
  130.4844  135.7957  160.4424 C   0  0  0  0  0  0  0  0  0  0  0  0
  131.1340  136.0259  161.6073 C   0  0  0  0  0  0  0  0  0  0  0  0
  130.5028  137.0711  162.1907 N   0  0  0  0  0  0  0  0  0  0  0  0
  130.8578  137.6799  163.4751 C   0  0  0  0  0  0  0  0  0  0  0  0
  131.2026  139.1317  163.2647 C   0  0  0  0  0  0  0  0  0  0  0  0
  131.7511  139.5450  162.0651 C   0  0  0  0  0  0  0  0  0  0  0  0
  132.0627  140.8777  161.8703 C   0  0  0  0  0  0  0  0  0  0  0  0
  131.8356  141.7951  162.8790 C   0  0  0  0  0  0  0  0  0  0  0  0
  131.2920  141.3809  164.0806 C   0  0  0  0  0  0  0  0  0  0  0  0
  130.9755  140.0491  164.2734 C   0  0  0  0  0  0  0  0  0  0  0  0
  129.6901  137.5727  164.4216 C   0  0  0  0  0  0  0  0  0  0  0  0
  128.4812  138.1591  164.0968 C   0  0  0  0  0  0  0  0  0  0  0  0
  127.4085  138.0569  164.9626 C   0  0  0  0  0  0  0  0  0  0  0  0
  127.5479  137.3771  166.1582 C   0  0  0  0  0  0  0  0  0  0  0  0
  128.7583  136.7950  166.4854 C   0  0  0  0  0  0  0  0  0  0  0  0
  129.8294  136.8929  165.6170 C   0  0  0  0  0  0  0  0  0  0  0  0
  129.5332  137.4344  161.4263 N   0  0  0  0  0  0  0  0  0  0  0  0
  129.4951  136.6936  160.3753 N   0  0  0  0  0  0  0  0  0  0  0  0
  128.5258  134.1493  158.6496 C   0  0  0  0  0  0  0  0  0  0  0  0
  128.1172  133.2048  158.0077 O   0  0  0  0  0  0  0  0  0  0  0  0
  127.8247  134.5974  159.7098 N   0  0  0  0  0  0  0  0  0  0  0  0
  126.6254  133.9732  160.0700 C   0  0  0  0  0  0  0  0  0  0  0  0
  126.4427  132.6193  159.8171 C   0  0  0  0  0  0  0  0  0  0  0  0
  125.2588  132.0031  160.1727 C   0  0  0  0  0  0  0  0  0  0  0  0
  124.2558  132.7295  160.7866 C   0  0  0  0  0  0  0  0  0  0  0  0
  124.4306  134.0832  161.0363 C   0  0  0  0  0  0  0  0  0  0  0  0
  123.4411  134.7975  161.6345 O   0  0  0  0  0  0  0  0  0  0  0  0
  125.6172  134.7053  160.6806 C   0  0  0  0  0  0  0  0  0  0  0  0
  130.7349  133.7498  159.8895 H   0  0  0  0  0  0  0  0  0  0  0  0
  131.8208  134.8837  159.0509 H   0  0  0  0  0  0  0  0  0  0  0  0
  131.9862  135.4856  161.9924 H   0  0  0  0  0  0  0  0  0  0  0  0
  131.7175  137.1599  163.8983 H   0  0  0  0  0  0  0  0  0  0  0  0
  131.9327  138.8274  161.2785 H   0  0  0  0  0  0  0  0  0  0  0  0
  132.4879  141.2013  160.9316 H   0  0  0  0  0  0  0  0  0  0  0  0
  132.0834  142.8355  162.7285 H   0  0  0  0  0  0  0  0  0  0  0  0
  131.1149  142.0976  164.8688 H   0  0  0  0  0  0  0  0  0  0  0  0
  130.5511  139.7255  165.2123 H   0  0  0  0  0  0  0  0  0  0  0  0
  128.3736  138.6941  163.1647 H   0  0  0  0  0  0  0  0  0  0  0  0
  126.4630  138.5119  164.7072 H   0  0  0  0  0  0  0  0  0  0  0  0
  126.7111  137.3009  166.8368 H   0  0  0  0  0  0  0  0  0  0  0  0
  128.8672  136.2643  167.4196 H   0  0  0  0  0  0  0  0  0  0  0  0
  130.7752  136.4386  165.8729 H   0  0  0  0  0  0  0  0  0  0  0  0
  128.1515  135.3527  160.2231 H   0  0  0  0  0  0  0  0  0  0  0  0
  127.2268  132.0484  159.3419 H   0  0  0  0  0  0  0  0  0  0  0  0
  125.1184  130.9507  159.9750 H   0  0  0  0  0  0  0  0  0  0  0  0
  123.3332  132.2438  161.0680 H   0  0  0  0  0  0  0  0  0  0  0  0
  123.6549  135.7312  161.7665 H   0  0  0  0  0  0  0  0  0  0  0  0
  125.7568  135.7578  160.8786 H   0  0  0  0  0  0  0  0  0  0  0  0
  1  2  1  0
  1  3  1  0
  1  4  1  0
  1  5  1  0
  5  6  1  6
  5  7  1  0
  5 26  1  0
  7  8  1  0
  7 36  1  0
  7 37  1  0
  8 25  1  0
  8  9  2  0
  9 10  1  0
  9 38  1  0
 10 11  1  0
 10 24  1  0
 11 12  1  0
 11 18  1  0
 11 39  1  0
 12 17  1  0
 12 13  2  0
 13 14  1  0
 13 40  1  0
 14 15  2  0
 14 41  1  0
 15 16  1  0
 15 42  1  0
 16 17  2  0
 16 43  1  0
 17 44  1  0
 18 23  1  0
 18 19  2  0
 19 20  1  0
 19 45  1  0
 20 21  2  0
 20 46  1  0
 21 22  1  0
 21 47  1  0
 22 23  2  0
 22 48  1  0
 23 49  1  0
 24 25  2  0
 26 27  2  0
 26 28  1  0
 28 29  1  0
 28 50  1  0
 29 35  1  0
 29 30  2  0
 30 31  1  0
 30 51  1  0
 31 32  2  0
 31 52  1  0
 32 33  1  0
 32 53  1  0
 33 34  1  0
 33 35  2  0
 34 54  1  0
 35 55  1  0
M  CHG  1   1   1
M  END
>  <DOCK_score>  (1) 
-49.134659

>  <SMILES>  (1) 
[NH3+][C@H](Cc1cn(C(c2ccccc2)c2ccccc2)nn1)C(=O)Nc1cccc(O)c1

$$$$
