C1=C(c2c[nH]c(NC(c3ccccc3)c3ccccc3)[nH+]2)CCC1
     RDKit          3D

 46 49  0  0  1  0  0  0  0  0999 V2000
  131.2425  130.2448  155.9428 C   0  0  0  0  0  0  0  0  0  0  0  0
  130.5094  131.3442  155.8887 C   0  0  0  0  0  0  0  0  0  0  0  0
  130.1026  132.1396  157.0653 C   0  0  0  0  0  0  0  0  0  0  0  0
  129.3529  131.6984  158.1088 C   0  0  0  0  0  0  0  0  0  0  0  0
  129.2139  132.7556  158.9739 N   0  0  0  0  0  0  0  0  0  0  0  0
  128.7294  132.7500  159.8142 H   0  0  0  0  0  0  0  0  0  0  0  0
  129.8819  133.8125  158.4359 C   0  0  0  0  0  0  0  0  0  0  0  0
  129.9848  135.0724  159.0001 N   0  0  0  0  0  0  0  0  0  0  0  0
  128.9071  135.5846  159.8499 C   0  0  0  0  0  0  0  0  0  0  0  0
  129.2629  136.9666  160.3342 C   0  0  0  0  0  0  0  0  0  0  0  0
  128.7922  137.4137  161.5546 C   0  0  0  0  0  0  0  0  0  0  0  0
  129.1224  138.6796  162.0009 C   0  0  0  0  0  0  0  0  0  0  0  0
  129.9147  139.5020  161.2231 C   0  0  0  0  0  0  0  0  0  0  0  0
  130.3810  139.0570  159.9995 C   0  0  0  0  0  0  0  0  0  0  0  0
  130.0552  137.7892  159.5554 C   0  0  0  0  0  0  0  0  0  0  0  0
  127.6271  135.6443  159.0566 C   0  0  0  0  0  0  0  0  0  0  0  0
  126.4112  135.4773  159.6927 C   0  0  0  0  0  0  0  0  0  0  0  0
  125.2369  135.5368  158.9659 C   0  0  0  0  0  0  0  0  0  0  0  0
  125.2790  135.7531  157.6011 C   0  0  0  0  0  0  0  0  0  0  0  0
  126.4951  135.9148  156.9642 C   0  0  0  0  0  0  0  0  0  0  0  0
  127.6691  135.8605  157.6918 C   0  0  0  0  0  0  0  0  0  0  0  0
  130.4068  133.4433  157.2933 N   0  0  0  0  0  0  0  0  0  0  0  0
  130.9305  134.0100  156.7056 H   0  0  0  0  0  0  0  0  0  0  0  0
  130.1388  131.6730  154.4611 C   0  0  0  0  0  0  0  0  0  0  0  0
  131.1206  130.8438  153.5986 C   0  0  0  0  0  0  0  0  0  0  0  0
  131.4728  129.6843  154.5583 C   0  0  0  0  0  0  0  0  0  0  0  0
  131.6250  129.8070  156.8529 H   0  0  0  0  0  0  0  0  0  0  0  0
  128.9448  130.7064  158.2340 H   0  0  0  0  0  0  0  0  0  0  0  0
  130.7687  135.6177  158.8294 H   0  0  0  0  0  0  0  0  0  0  0  0
  128.7734  134.9229  160.7056 H   0  0  0  0  0  0  0  0  0  0  0  0
  128.1694  136.7727  162.1610 H   0  0  0  0  0  0  0  0  0  0  0  0
  128.7577  139.0276  162.9562 H   0  0  0  0  0  0  0  0  0  0  0  0
  130.1692  140.4930  161.5690 H   0  0  0  0  0  0  0  0  0  0  0  0
  130.9998  139.6999  159.3909 H   0  0  0  0  0  0  0  0  0  0  0  0
  130.4192  137.4415  158.5999 H   0  0  0  0  0  0  0  0  0  0  0  0
  126.3785  135.3040  160.7581 H   0  0  0  0  0  0  0  0  0  0  0  0
  124.2869  135.4102  159.4634 H   0  0  0  0  0  0  0  0  0  0  0  0
  124.3618  135.7953  157.0325 H   0  0  0  0  0  0  0  0  0  0  0  0
  126.5280  136.0835  155.8979 H   0  0  0  0  0  0  0  0  0  0  0  0
  128.6192  135.9866  157.1942 H   0  0  0  0  0  0  0  0  0  0  0  0
  129.1093  131.3777  154.2587 H   0  0  0  0  0  0  0  0  0  0  0  0
  130.2736  132.7376  154.2698 H   0  0  0  0  0  0  0  0  0  0  0  0
  132.0083  131.4232  153.3441 H   0  0  0  0  0  0  0  0  0  0  0  0
  130.6284  130.4715  152.7004 H   0  0  0  0  0  0  0  0  0  0  0  0
  132.5160  129.3936  154.4356 H   0  0  0  0  0  0  0  0  0  0  0  0
  130.8170  128.8320  154.3802 H   0  0  0  0  0  0  0  0  0  0  0  0
  1 26  1  0
  1  2  2  0
  1 27  1  0
  2  3  1  0
  2 24  1  0
  3 22  1  0
  3  4  2  0
  4  5  1  0
  4 28  1  0
  5  6  1  0
  5  7  1  0
  7  8  1  0
  7 22  2  0
  8  9  1  0
  8 29  1  0
  9 10  1  0
  9 16  1  0
  9 30  1  0
 10 15  1  0
 10 11  2  0
 11 12  1  0
 11 31  1  0
 12 13  2  0
 12 32  1  0
 13 14  1  0
 13 33  1  0
 14 15  2  0
 14 34  1  0
 15 35  1  0
 16 21  1  0
 16 17  2  0
 17 18  1  0
 17 36  1  0
 18 19  2  0
 18 37  1  0
 19 20  1  0
 19 38  1  0
 20 21  2  0
 20 39  1  0
 21 40  1  0
 22 23  1  0
 24 25  1  0
 24 41  1  0
 24 42  1  0
 25 26  1  0
 25 43  1  0
 25 44  1  0
 26 45  1  0
 26 46  1  0
M  CHG  1  22   1
M  END
>  <DOCK_score>  (1) 
-57.386368

>  <SMILES>  (1) 
C1=C(c2c[nH]c(NC(c3ccccc3)c3ccccc3)[nH+]2)CCC1

$$$$
