Cn1nccc1[C@@H](Nc1[nH]cc(-c2cccnc2)[nH+]1)c1ccnn1CCc1ccccc1
     RDKit          3D

 57 61  0  0  1  0  0  0  0  0999 V2000
  128.2457  135.4394  162.9266 C   0  0  0  0  0  0  0  0  0  0  0  0
  127.7995  135.6180  161.5425 N   0  0  0  0  0  0  0  0  0  0  0  0
  126.4760  135.5531  161.0885 N   0  0  0  0  0  0  0  0  0  0  0  0
  126.4761  135.7631  159.7971 C   0  0  0  0  0  0  0  0  0  0  0  0
  127.7973  135.9732  159.3887 C   0  0  0  0  0  0  0  0  0  0  0  0
  128.5912  135.8737  160.4800 C   0  0  0  0  0  0  0  0  0  0  0  0
  130.0901  136.0277  160.5053 C   0  0  1  0  0  0  0  0  0  0  0  0
  130.5044  135.4178  161.3082 H   0  0  0  0  0  0  0  0  0  0  0  0
  130.6475  135.5909  159.2228 N   0  0  0  0  0  0  0  0  0  0  0  0
  130.4520  134.2906  158.7899 C   0  0  0  0  0  0  0  0  0  0  0  0
  129.7688  133.3252  159.4633 N   0  0  0  0  0  0  0  0  0  0  0  0
  129.3348  133.4236  160.3252 H   0  0  0  0  0  0  0  0  0  0  0  0
  129.8049  132.1865  158.6958 C   0  0  0  0  0  0  0  0  0  0  0  0
  130.5154  132.4861  157.5803 C   0  0  0  0  0  0  0  0  0  0  0  0
  130.8186  131.5585  156.4632 C   0  0  0  0  0  0  0  0  0  0  0  0
  130.9717  132.0416  155.1602 C   0  0  0  0  0  0  0  0  0  0  0  0
  131.2585  131.1357  154.1539 C   0  0  0  0  0  0  0  0  0  0  0  0
  131.3733  129.7929  154.4647 C   0  0  0  0  0  0  0  0  0  0  0  0
  131.2188  129.3658  155.7030 N   0  0  0  0  0  0  0  0  0  0  0  0
  130.9499  130.1907  156.6944 C   0  0  0  0  0  0  0  0  0  0  0  0
  130.8991  133.7845  157.6666 N   0  0  0  0  0  0  0  0  0  0  0  0
  131.4214  134.2620  157.0031 H   0  0  0  0  0  0  0  0  0  0  0  0
  130.4427  137.4738  160.7399 C   0  0  0  0  0  0  0  0  0  0  0  0
  129.5668  138.4920  160.9048 C   0  0  0  0  0  0  0  0  0  0  0  0
  130.3026  139.6671  161.0893 C   0  0  0  0  0  0  0  0  0  0  0  0
  131.5746  139.3645  161.0426 N   0  0  0  0  0  0  0  0  0  0  0  0
  131.6886  137.9850  160.8267 N   0  0  0  0  0  0  0  0  0  0  0  0
  132.9394  137.2315  160.7095 C   0  0  0  0  0  0  0  0  0  0  0  0
  133.9024  137.6663  161.8162 C   0  0  0  0  0  0  0  0  0  0  0  0
  133.2773  137.3962  163.1605 C   0  0  0  0  0  0  0  0  0  0  0  0
  132.5088  138.3682  163.7733 C   0  0  0  0  0  0  0  0  0  0  0  0
  131.9315  138.1188  165.0043 C   0  0  0  0  0  0  0  0  0  0  0  0
  132.1312  136.9011  165.6274 C   0  0  0  0  0  0  0  0  0  0  0  0
  132.9040  135.9310  165.0170 C   0  0  0  0  0  0  0  0  0  0  0  0
  133.4771  136.1785  163.7837 C   0  0  0  0  0  0  0  0  0  0  0  0
  128.2509  136.4041  163.4340 H   0  0  0  0  0  0  0  0  0  0  0  0
  127.5663  134.7611  163.4426 H   0  0  0  0  0  0  0  0  0  0  0  0
  129.2518  135.0203  162.9326 H   0  0  0  0  0  0  0  0  0  0  0  0
  125.6060  135.7758  159.1575 H   0  0  0  0  0  0  0  0  0  0  0  0
  128.1259  136.1765  158.3802 H   0  0  0  0  0  0  0  0  0  0  0  0
  131.1534  136.2129  158.6769 H   0  0  0  0  0  0  0  0  0  0  0  0
  129.3567  131.2337  158.9366 H   0  0  0  0  0  0  0  0  0  0  0  0
  130.8724  133.0953  154.9452 H   0  0  0  0  0  0  0  0  0  0  0  0
  131.3869  131.4734  153.1361 H   0  0  0  0  0  0  0  0  0  0  0  0
  131.5934  129.0828  153.6812 H   0  0  0  0  0  0  0  0  0  0  0  0
  130.8305  129.8033  157.6954 H   0  0  0  0  0  0  0  0  0  0  0  0
  128.4899  138.4122  160.8916 H   0  0  0  0  0  0  0  0  0  0  0  0
  129.8917  140.6540  161.2432 H   0  0  0  0  0  0  0  0  0  0  0  0
  133.3915  137.4268  159.7371 H   0  0  0  0  0  0  0  0  0  0  0  0
  132.7320  136.1658  160.8064 H   0  0  0  0  0  0  0  0  0  0  0  0
  134.8331  137.1056  161.7290 H   0  0  0  0  0  0  0  0  0  0  0  0
  134.1097  138.7319  161.7194 H   0  0  0  0  0  0  0  0  0  0  0  0
  132.3564  139.3214  163.2885 H   0  0  0  0  0  0  0  0  0  0  0  0
  131.3280  138.8770  165.4813 H   0  0  0  0  0  0  0  0  0  0  0  0
  131.6837  136.7077  166.5911 H   0  0  0  0  0  0  0  0  0  0  0  0
  133.0602  134.9797  165.5040 H   0  0  0  0  0  0  0  0  0  0  0  0
  134.0811  135.4207  163.3070 H   0  0  0  0  0  0  0  0  0  0  0  0
  1  2  1  0
  1 36  1  0
  1 37  1  0
  1 38  1  0
  2  6  1  0
  2  3  1  0
  3  4  2  0
  4  5  1  0
  4 39  1  0
  5  6  2  0
  5 40  1  0
  6  7  1  0
  7  8  1  1
  7  9  1  0
  7 23  1  0
  9 41  1  0
 10  9  1  0
 10 21  2  0
 10 11  1  0
 11 12  1  0
 11 13  1  0
 13 14  2  0
 13 42  1  0
 14 15  1  0
 14 21  1  0
 15 20  1  0
 15 16  2  0
 16 17  1  0
 16 43  1  0
 17 18  2  0
 17 44  1  0
 18 19  1  0
 18 45  1  0
 19 20  2  0
 20 46  1  0
 21 22  1  0
 23 27  1  0
 23 24  2  0
 24 25  1  0
 24 47  1  0
 25 26  2  0
 25 48  1  0
 26 27  1  0
 27 28  1  0
 28 29  1  0
 28 49  1  0
 28 50  1  0
 29 30  1  0
 29 51  1  0
 29 52  1  0
 30 35  1  0
 30 31  2  0
 31 32  1  0
 31 53  1  0
 32 33  2  0
 32 54  1  0
 33 34  1  0
 33 55  1  0
 34 35  2  0
 34 56  1  0
 35 57  1  0
M  CHG  1  21   1
M  END
>  <DOCK_score>  (1) 
-53.633217

>  <SMILES>  (1) 
Cn1nccc1[C@@H](Nc1[nH]cc(-c2cccnc2)[nH+]1)c1ccnn1CCc1ccccc1

$$$$
