CCc1ccc(-c2c[nH]c(N[C@@H](CNc3ccccc3N)Cc3ccccc3)[nH+]2)cc1
     RDKit          3D

 61 64  0  0  1  0  0  0  0  0999 V2000
  138.3923  140.0400  161.6453 C   0  0  0  0  0  0  0  0  0  0  0  0
  136.9247  140.4670  161.7188 C   0  0  0  0  0  0  0  0  0  0  0  0
  136.0409  139.2724  161.4683 C   0  0  0  0  0  0  0  0  0  0  0  0
  135.6268  138.4864  162.5293 C   0  0  0  0  0  0  0  0  0  0  0  0
  134.8178  137.3911  162.3052 C   0  0  0  0  0  0  0  0  0  0  0  0
  134.4177  137.0774  161.0075 C   0  0  0  0  0  0  0  0  0  0  0  0
  133.5481  135.9013  160.7604 C   0  0  0  0  0  0  0  0  0  0  0  0
  133.5200  134.7615  161.4943 C   0  0  0  0  0  0  0  0  0  0  0  0
  132.5783  133.9417  160.9213 N   0  0  0  0  0  0  0  0  0  0  0  0
  132.3295  133.0539  161.2228 H   0  0  0  0  0  0  0  0  0  0  0  0
  132.0580  134.6053  159.8531 C   0  0  0  0  0  0  0  0  0  0  0  0
  131.0765  134.1230  159.0042 N   0  0  0  0  0  0  0  0  0  0  0  0
  130.0689  133.1858  159.5070 C   0  0  1  0  0  0  0  0  0  0  0  0
  130.5617  132.2868  159.8774 H   0  0  0  0  0  0  0  0  0  0  0  0
  129.2839  133.8427  160.6441 C   0  0  0  0  0  0  0  0  0  0  0  0
  129.0267  135.2463  160.3127 N   0  0  0  0  0  0  0  0  0  0  0  0
  128.9178  136.1981  161.3340 C   0  0  0  0  0  0  0  0  0  0  0  0
  128.6434  135.7964  162.6325 C   0  0  0  0  0  0  0  0  0  0  0  0
  128.5365  136.7379  163.6394 C   0  0  0  0  0  0  0  0  0  0  0  0
  128.7023  138.0809  163.3559 C   0  0  0  0  0  0  0  0  0  0  0  0
  128.9757  138.4903  162.0639 C   0  0  0  0  0  0  0  0  0  0  0  0
  129.0908  137.5524  161.0491 C   0  0  0  0  0  0  0  0  0  0  0  0
  129.3739  137.9642  159.7410 N   0  0  0  0  0  0  0  0  0  0  0  0
  129.1102  132.8120  158.3746 C   0  0  0  0  0  0  0  0  0  0  0  0
  129.8835  132.1652  157.2545 C   0  0  0  0  0  0  0  0  0  0  0  0
  130.4061  132.9416  156.2371 C   0  0  0  0  0  0  0  0  0  0  0  0
  131.1195  132.3488  155.2123 C   0  0  0  0  0  0  0  0  0  0  0  0
  131.3015  130.9786  155.1991 C   0  0  0  0  0  0  0  0  0  0  0  0
  130.7745  130.2017  156.2138 C   0  0  0  0  0  0  0  0  0  0  0  0
  130.0654  130.7950  157.2415 C   0  0  0  0  0  0  0  0  0  0  0  0
  132.6434  135.7740  159.7573 N   0  0  0  0  0  0  0  0  0  0  0  0
  132.4583  136.4419  159.0786 H   0  0  0  0  0  0  0  0  0  0  0  0
  134.8422  137.8696  159.9422 C   0  0  0  0  0  0  0  0  0  0  0  0
  135.6465  138.9658  160.1788 C   0  0  0  0  0  0  0  0  0  0  0  0
  138.6028  139.6337  160.6559 H   0  0  0  0  0  0  0  0  0  0  0  0
  139.0315  140.9040  161.8269 H   0  0  0  0  0  0  0  0  0  0  0  0
  138.5879  139.2782  162.4000 H   0  0  0  0  0  0  0  0  0  0  0  0
  136.7293  141.2284  160.9650 H   0  0  0  0  0  0  0  0  0  0  0  0
  136.7144  140.8729  162.7091 H   0  0  0  0  0  0  0  0  0  0  0  0
  135.9377  138.7304  163.5343 H   0  0  0  0  0  0  0  0  0  0  0  0
  134.4951  136.7784  163.1339 H   0  0  0  0  0  0  0  0  0  0  0  0
  134.1228  134.5402  162.3626 H   0  0  0  0  0  0  0  0  0  0  0  0
  131.0559  134.4057  158.0765 H   0  0  0  0  0  0  0  0  0  0  0  0
  129.8638  133.7871  161.5654 H   0  0  0  0  0  0  0  0  0  0  0  0
  128.3362  133.3217  160.7795 H   0  0  0  0  0  0  0  0  0  0  0  0
  128.9277  135.5157  159.3861 H   0  0  0  0  0  0  0  0  0  0  0  0
  128.5137  134.7481  162.8573 H   0  0  0  0  0  0  0  0  0  0  0  0
  128.3224  136.4234  164.6501 H   0  0  0  0  0  0  0  0  0  0  0  0
  128.6177  138.8124  164.1460 H   0  0  0  0  0  0  0  0  0  0  0  0
  129.1046  139.5403  161.8459 H   0  0  0  0  0  0  0  0  0  0  0  0
  129.4499  137.3072  159.0316 H   0  0  0  0  0  0  0  0  0  0  0  0
  129.4939  138.9064  159.5445 H   0  0  0  0  0  0  0  0  0  0  0  0
  128.3606  132.1146  158.7487 H   0  0  0  0  0  0  0  0  0  0  0  0
  128.6174  133.7110  158.0043 H   0  0  0  0  0  0  0  0  0  0  0  0
  130.2601  134.0117  156.2450 H   0  0  0  0  0  0  0  0  0  0  0  0
  131.5310  132.9559  154.4193 H   0  0  0  0  0  0  0  0  0  0  0  0
  131.8551  130.5150  154.3960 H   0  0  0  0  0  0  0  0  0  0  0  0
  130.9164  129.1311  156.2034 H   0  0  0  0  0  0  0  0  0  0  0  0
  129.6534  130.1879  158.0340 H   0  0  0  0  0  0  0  0  0  0  0  0
  134.5391  137.6283  158.9341 H   0  0  0  0  0  0  0  0  0  0  0  0
  135.9726  139.5829  159.3545 H   0  0  0  0  0  0  0  0  0  0  0  0
  1  2  1  0
  1 35  1  0
  1 36  1  0
  1 37  1  0
  2  3  1  0
  2 38  1  0
  2 39  1  0
  3 34  2  0
  3  4  1  0
  4  5  2  0
  4 40  1  0
  5  6  1  0
  5 41  1  0
  6  7  1  0
  6 33  2  0
  7 31  1  0
  7  8  2  0
  8  9  1  0
  8 42  1  0
  9 10  1  0
  9 11  1  0
 11 12  1  0
 11 31  2  0
 12 13  1  0
 12 43  1  0
 13 14  1  1
 13 15  1  0
 13 24  1  0
 15 16  1  0
 15 44  1  0
 15 45  1  0
 16 17  1  0
 16 46  1  0
 17 22  1  0
 17 18  2  0
 18 19  1  0
 18 47  1  0
 19 20  2  0
 19 48  1  0
 20 21  1  0
 20 49  1  0
 21 22  2  0
 21 50  1  0
 22 23  1  0
 23 51  1  0
 23 52  1  0
 24 25  1  0
 24 53  1  0
 24 54  1  0
 25 30  1  0
 25 26  2  0
 26 27  1  0
 26 55  1  0
 27 28  2  0
 27 56  1  0
 28 29  1  0
 28 57  1  0
 29 30  2  0
 29 58  1  0
 30 59  1  0
 31 32  1  0
 33 34  1  0
 33 60  1  0
 34 61  1  0
M  CHG  1  31   1
M  END
>  <DOCK_score>  (1) 
-58.192127

>  <SMILES>  (1) 
CCc1ccc(-c2c[nH]c(N[C@@H](CNc3ccccc3N)Cc3ccccc3)[nH+]2)cc1

$$$$
