C[C@@H](CC1=CCCCC1)Nc1[nH]cc(-c2cccc(O)c2)[nH+]1
     RDKit          3D

 46 48  0  0  1  0  0  0  0  0999 V2000
  132.8332  133.8001  161.7539 C   0  0  0  0  0  0  0  0  0  0  0  0
  131.9150  134.9581  161.3577 C   0  0  1  0  0  0  0  0  0  0  0  0
  131.0038  134.9199  161.9548 H   0  0  0  0  0  0  0  0  0  0  0  0
  132.6324  136.2863  161.6067 C   0  0  0  0  0  0  0  0  0  0  0  0
  131.7281  137.4268  161.2165 C   0  0  0  0  0  0  0  0  0  0  0  0
  132.1349  138.2345  160.2904 C   0  0  0  0  0  0  0  0  0  0  0  0
  131.3513  139.4181  159.8033 C   0  0  0  0  0  0  0  0  0  0  0  0
  129.8856  139.2889  160.2236 C   0  0  0  0  0  0  0  0  0  0  0  0
  129.8375  138.9587  161.7208 C   0  0  0  0  0  0  0  0  0  0  0  0
  130.4093  137.5518  161.9215 C   0  0  0  0  0  0  0  0  0  0  0  0
  131.5733  134.8464  159.9374 N   0  0  0  0  0  0  0  0  0  0  0  0
  130.2500  134.7167  159.5520 C   0  0  0  0  0  0  0  0  0  0  0  0
  129.7187  135.1599  158.3800 N   0  0  0  0  0  0  0  0  0  0  0  0
  130.1948  135.6195  157.6708 H   0  0  0  0  0  0  0  0  0  0  0  0
  128.3837  134.8359  158.3867 C   0  0  0  0  0  0  0  0  0  0  0  0
  128.1367  134.2095  159.5638 C   0  0  0  0  0  0  0  0  0  0  0  0
  126.8250  133.6833  160.0141 C   0  0  0  0  0  0  0  0  0  0  0  0
  126.4544  132.3745  159.7084 C   0  0  0  0  0  0  0  0  0  0  0  0
  125.2354  131.8857  160.1326 C   0  0  0  0  0  0  0  0  0  0  0  0
  124.3748  132.6939  160.8522 C   0  0  0  0  0  0  0  0  0  0  0  0
  124.7338  133.9998  161.1562 C   0  0  0  0  0  0  0  0  0  0  0  0
  123.8845  134.7908  161.8634 O   0  0  0  0  0  0  0  0  0  0  0  0
  125.9574  134.4972  160.7386 C   0  0  0  0  0  0  0  0  0  0  0  0
  129.3023  134.1465  160.2552 N   0  0  0  0  0  0  0  0  0  0  0  0
  129.4153  133.7473  161.1320 H   0  0  0  0  0  0  0  0  0  0  0  0
  133.0874  133.8832  162.8105 H   0  0  0  0  0  0  0  0  0  0  0  0
  132.3220  132.8540  161.5764 H   0  0  0  0  0  0  0  0  0  0  0  0
  133.7444  133.8384  161.1569 H   0  0  0  0  0  0  0  0  0  0  0  0
  132.8867  136.3694  162.6633 H   0  0  0  0  0  0  0  0  0  0  0  0
  133.5436  136.3245  161.0097 H   0  0  0  0  0  0  0  0  0  0  0  0
  133.0978  138.0446  159.8399 H   0  0  0  0  0  0  0  0  0  0  0  0
  131.7705  140.3292  160.2299 H   0  0  0  0  0  0  0  0  0  0  0  0
  131.4123  139.4691  158.7162 H   0  0  0  0  0  0  0  0  0  0  0  0
  129.3672  140.2299  160.0391 H   0  0  0  0  0  0  0  0  0  0  0  0
  129.4099  138.4909  159.6537 H   0  0  0  0  0  0  0  0  0  0  0  0
  130.4342  139.6832  162.2751 H   0  0  0  0  0  0  0  0  0  0  0  0
  128.8054  138.9903  162.0699 H   0  0  0  0  0  0  0  0  0  0  0  0
  129.7137  136.8149  161.5203 H   0  0  0  0  0  0  0  0  0  0  0  0
  130.5505  137.3699  162.9869 H   0  0  0  0  0  0  0  0  0  0  0  0
  132.2743  134.8633  159.2672 H   0  0  0  0  0  0  0  0  0  0  0  0
  127.6672  135.0444  157.6060 H   0  0  0  0  0  0  0  0  0  0  0  0
  127.1227  131.7420  159.1429 H   0  0  0  0  0  0  0  0  0  0  0  0
  124.9513  130.8706  159.8983 H   0  0  0  0  0  0  0  0  0  0  0  0
  123.4203  132.3081  161.1784 H   0  0  0  0  0  0  0  0  0  0  0  0
  124.2212  135.6825  162.0261 H   0  0  0  0  0  0  0  0  0  0  0  0
  126.2377  135.5133  160.9739 H   0  0  0  0  0  0  0  0  0  0  0  0
  1  2  1  0
  1 26  1  0
  1 27  1  0
  1 28  1  0
  2  3  1  1
  2  4  1  0
  2 11  1  0
  4  5  1  0
  4 29  1  0
  4 30  1  0
  5 10  1  0
  5  6  2  0
  6  7  1  0
  6 31  1  0
  7  8  1  0
  7 32  1  0
  7 33  1  0
  8  9  1  0
  8 34  1  0
  8 35  1  0
  9 10  1  0
  9 36  1  0
  9 37  1  0
 10 38  1  0
 10 39  1  0
 11 40  1  0
 12 11  1  0
 12 24  2  0
 12 13  1  0
 13 14  1  0
 13 15  1  0
 15 16  2  0
 15 41  1  0
 16 17  1  0
 16 24  1  0
 17 23  1  0
 17 18  2  0
 18 19  1  0
 18 42  1  0
 19 20  2  0
 19 43  1  0
 20 21  1  0
 20 44  1  0
 21 22  1  0
 21 23  2  0
 22 45  1  0
 23 46  1  0
 24 25  1  0
M  CHG  1  24   1
M  END
>  <DOCK_score>  (1) 
-46.728985

>  <SMILES>  (1) 
C[C@@H](CC1=CCCCC1)Nc1[nH]cc(-c2cccc(O)c2)[nH+]1

$$$$
