O=C1CC[C@H]([NH+]=C(NC2CCC2)NC2CC3COC[C@@H]3C2)CN1
     RDKit          3D

 52 55  0  0  1  0  0  0  0  0999 V2000
  123.8945  133.6490  161.6340 O   0  0  0  0  0  0  0  0  0  0  0  0
  125.0409  134.0437  161.6020 C   0  0  0  0  0  0  0  0  0  0  0  0
  126.1446  133.0292  161.6881 C   0  0  0  0  0  0  0  0  0  0  0  0
  127.4572  133.7186  162.0683 C   0  0  0  0  0  0  0  0  0  0  0  0
  127.6479  134.9355  161.1550 C   0  0  2  0  0  0  0  0  0  0  0  0
  127.5490  134.6300  160.1132 H   0  0  0  0  0  0  0  0  0  0  0  0
  128.9756  135.5136  161.3770 N   0  0  0  0  0  0  0  0  0  0  0  0
  129.0981  136.2032  162.0481 H   0  0  0  0  0  0  0  0  0  0  0  0
  129.9920  135.1013  160.6730 C   0  0  0  0  0  0  0  0  0  0  0  0
  131.0293  135.9599  160.3952 N   0  0  0  0  0  0  0  0  0  0  0  0
  130.9920  137.3382  160.8905 C   0  0  0  0  0  0  0  0  0  0  0  0
  130.1663  138.2881  160.0071 C   0  0  0  0  0  0  0  0  0  0  0  0
  131.2595  139.3411  160.2539 C   0  0  0  0  0  0  0  0  0  0  0  0
  132.2246  138.1684  160.4950 C   0  0  0  0  0  0  0  0  0  0  0  0
  130.0269  133.8080  160.2081 N   0  0  0  0  0  0  0  0  0  0  0  0
  131.1695  133.3447  159.4168 C   0  0  1  0  0  0  0  0  0  0  0  0
  131.2977  131.8009  159.4815 C   0  0  0  0  0  0  0  0  0  0  0  0
  130.2154  131.2956  158.5051 C   0  0  2  0  0  0  0  0  0  0  0  0
  130.8127  130.1599  157.6463 C   0  0  0  0  0  0  0  0  0  0  0  0
  131.4019  130.8254  156.5085 O   0  0  0  0  0  0  0  0  0  0  0  0
  130.4628  131.8603  156.1454 C   0  0  0  0  0  0  0  0  0  0  0  0
  129.9786  132.4463  157.4894 C   0  0  2  0  0  0  0  0  0  0  0  0
  128.9354  132.7604  157.4525 H   0  0  0  0  0  0  0  0  0  0  0  0
  130.9299  133.5878  157.9044 C   0  0  0  0  0  0  0  0  0  0  0  0
  126.5744  135.9720  161.4902 C   0  0  0  0  0  0  0  0  0  0  0  0
  125.2536  135.3556  161.4927 N   0  0  0  0  0  0  0  0  0  0  0  0
  126.2605  132.5373  160.7221 H   0  0  0  0  0  0  0  0  0  0  0  0
  125.8942  132.2849  162.4440 H   0  0  0  0  0  0  0  0  0  0  0  0
  127.4134  134.0433  163.1079 H   0  0  0  0  0  0  0  0  0  0  0  0
  128.2879  133.0256  161.9345 H   0  0  0  0  0  0  0  0  0  0  0  0
  131.7857  135.6531  159.8713 H   0  0  0  0  0  0  0  0  0  0  0  0
  130.7454  137.4004  161.9504 H   0  0  0  0  0  0  0  0  0  0  0  0
  130.0959  137.9673  158.9677 H   0  0  0  0  0  0  0  0  0  0  0  0
  129.1997  138.5534  160.4356 H   0  0  0  0  0  0  0  0  0  0  0  0
  131.0851  139.9522  161.1395 H   0  0  0  0  0  0  0  0  0  0  0  0
  131.5040  139.9336  159.3723 H   0  0  0  0  0  0  0  0  0  0  0  0
  132.9198  138.3369  161.3175 H   0  0  0  0  0  0  0  0  0  0  0  0
  132.7177  137.8138  159.5899 H   0  0  0  0  0  0  0  0  0  0  0  0
  129.2952  133.2022  160.4041 H   0  0  0  0  0  0  0  0  0  0  0  0
  132.0900  133.8256  159.7476 H   0  0  0  0  0  0  0  0  0  0  0  0
  132.2875  131.4855  159.1516 H   0  0  0  0  0  0  0  0  0  0  0  0
  131.0984  131.4430  160.4916 H   0  0  0  0  0  0  0  0  0  0  0  0
  129.3044  130.9904  159.0199 H   0  0  0  0  0  0  0  0  0  0  0  0
  131.5762  129.6214  158.2078 H   0  0  0  0  0  0  0  0  0  0  0  0
  130.0276  129.4771  157.3215 H   0  0  0  0  0  0  0  0  0  0  0  0
  130.9572  132.6299  155.5524 H   0  0  0  0  0  0  0  0  0  0  0  0
  129.6247  131.4352  155.5932 H   0  0  0  0  0  0  0  0  0  0  0  0
  130.4575  134.5567  157.7432 H   0  0  0  0  0  0  0  0  0  0  0  0
  131.8682  133.5226  157.3535 H   0  0  0  0  0  0  0  0  0  0  0  0
  126.5987  136.7690  160.7469 H   0  0  0  0  0  0  0  0  0  0  0  0
  126.7780  136.3917  162.4753 H   0  0  0  0  0  0  0  0  0  0  0  0
  124.4810  135.9361  161.4099 H   0  0  0  0  0  0  0  0  0  0  0  0
  1  2  2  0
  2 26  1  0
  2  3  1  0
  3  4  1  0
  3 27  1  0
  3 28  1  0
  4  5  1  0
  4 29  1  0
  4 30  1  0
  5  6  1  6
  5  7  1  0
  5 25  1  0
  7  8  1  0
  9  7  2  0
  9 10  1  0
  9 15  1  0
 10 11  1  0
 10 31  1  0
 11 14  1  0
 11 12  1  0
 11 32  1  0
 12 13  1  0
 12 33  1  0
 12 34  1  0
 13 14  1  0
 13 35  1  0
 13 36  1  0
 14 37  1  0
 14 38  1  0
 15 16  1  0
 15 39  1  0
 16 24  1  0
 16 17  1  0
 16 40  1  1
 17 18  1  0
 17 41  1  0
 17 42  1  0
 18 22  1  0
 18 19  1  0
 18 43  1  1
 19 20  1  0
 19 44  1  0
 19 45  1  0
 20 21  1  0
 21 22  1  0
 21 46  1  0
 21 47  1  0
 22 23  1  6
 22 24  1  0
 24 48  1  0
 24 49  1  0
 25 26  1  0
 25 50  1  0
 25 51  1  0
 26 52  1  0
M  CHG  1   7   1
M  END
>  <DOCK_score>  (1) 
-42.758659

>  <SMILES>  (1) 
O=C1CC[C@H]([NH+]=C(NC2CCC2)NC2CC3COC[C@@H]3C2)CN1

$$$$
