Cc1c(Cl)cccc1N1CC[NH+]([C@@H](c2ccccc2)c2ccccc2Cl)CC1
     RDKit          3D

 53 56  0  0  1  0  0  0  0  0999 V2000
  134.0468  139.1784  163.0615 C   0  0  0  0  0  0  0  0  0  0  0  0
  134.4499  139.5598  161.6604 C   0  0  0  0  0  0  0  0  0  0  0  0
  135.3559  140.5835  161.4552 C   0  0  0  0  0  0  0  0  0  0  0  0
  136.0299  141.4304  162.8126 Cl  0  0  0  0  0  0  0  0  0  0  0  0
  135.7218  140.9376  160.1684 C   0  0  0  0  0  0  0  0  0  0  0  0
  135.1865  140.2657  159.0848 C   0  0  0  0  0  0  0  0  0  0  0  0
  134.2854  139.2384  159.2834 C   0  0  0  0  0  0  0  0  0  0  0  0
  133.9155  138.8799  160.5738 C   0  0  0  0  0  0  0  0  0  0  0  0
  133.0038  137.8416  160.7775 N   0  0  0  0  0  0  0  0  0  0  0  0
  131.6912  138.1735  160.2057 C   0  0  0  0  0  0  0  0  0  0  0  0
  130.7078  137.0390  160.5015 C   0  0  0  0  0  0  0  0  0  0  0  0
  131.2127  135.7887  159.9191 N   0  0  0  0  0  0  0  0  0  0  0  0
  131.3210  135.9018  158.9224 H   0  0  0  0  0  0  0  0  0  0  0  0
  130.2595  134.7037  160.1878 C   0  0  1  0  0  0  0  0  0  0  0  0
  130.1420  134.5816  161.2646 H   0  0  0  0  0  0  0  0  0  0  0  0
  128.9263  135.0423  159.5720 C   0  0  0  0  0  0  0  0  0  0  0  0
  127.7605  134.5694  160.1447 C   0  0  0  0  0  0  0  0  0  0  0  0
  126.5374  134.8837  159.5824 C   0  0  0  0  0  0  0  0  0  0  0  0
  126.4807  135.6628  158.4419 C   0  0  0  0  0  0  0  0  0  0  0  0
  127.6468  136.1316  157.8667 C   0  0  0  0  0  0  0  0  0  0  0  0
  128.8697  135.8210  158.4314 C   0  0  0  0  0  0  0  0  0  0  0  0
  130.7774  133.4207  159.5906 C   0  0  0  0  0  0  0  0  0  0  0  0
  131.0065  133.3346  158.2300 C   0  0  0  0  0  0  0  0  0  0  0  0
  131.4864  132.1595  157.6827 C   0  0  0  0  0  0  0  0  0  0  0  0
  131.7268  131.0659  158.4940 C   0  0  0  0  0  0  0  0  0  0  0  0
  131.4930  131.1492  159.8535 C   0  0  0  0  0  0  0  0  0  0  0  0
  131.0181  132.3271  160.4028 C   0  0  0  0  0  0  0  0  0  0  0  0
  130.7237  132.4323  162.1103 Cl  0  0  0  0  0  0  0  0  0  0  0  0
  132.5124  135.4577  160.5182 C   0  0  0  0  0  0  0  0  0  0  0  0
  133.5109  136.5788  160.2221 C   0  0  0  0  0  0  0  0  0  0  0  0
  134.7252  138.4134  163.4392 H   0  0  0  0  0  0  0  0  0  0  0  0
  134.0950  140.0567  163.7052 H   0  0  0  0  0  0  0  0  0  0  0  0
  133.0286  138.7895  163.0535 H   0  0  0  0  0  0  0  0  0  0  0  0
  136.4269  141.7402  160.0102 H   0  0  0  0  0  0  0  0  0  0  0  0
  135.4741  140.5443  158.0818 H   0  0  0  0  0  0  0  0  0  0  0  0
  133.8685  138.7138  158.4363 H   0  0  0  0  0  0  0  0  0  0  0  0
  131.7860  138.3006  159.1272 H   0  0  0  0  0  0  0  0  0  0  0  0
  131.3241  139.0984  160.6505 H   0  0  0  0  0  0  0  0  0  0  0  0
  129.7372  137.2767  160.0659 H   0  0  0  0  0  0  0  0  0  0  0  0
  130.6028  136.9211  161.5800 H   0  0  0  0  0  0  0  0  0  0  0  0
  127.8049  133.9572  161.0334 H   0  0  0  0  0  0  0  0  0  0  0  0
  125.6262  134.5176  160.0322 H   0  0  0  0  0  0  0  0  0  0  0  0
  125.5252  135.9055  158.0007 H   0  0  0  0  0  0  0  0  0  0  0  0
  127.6026  136.7404  156.9757 H   0  0  0  0  0  0  0  0  0  0  0  0
  129.7808  136.1871  157.9816 H   0  0  0  0  0  0  0  0  0  0  0  0
  130.8145  134.1869  157.5952 H   0  0  0  0  0  0  0  0  0  0  0  0
  131.6698  132.0942  156.6204 H   0  0  0  0  0  0  0  0  0  0  0  0
  132.0975  130.1467  158.0652 H   0  0  0  0  0  0  0  0  0  0  0  0
  131.6807  130.2950  160.4871 H   0  0  0  0  0  0  0  0  0  0  0  0
  132.3980  135.3481  161.5966 H   0  0  0  0  0  0  0  0  0  0  0  0
  132.8799  134.5229  160.0949 H   0  0  0  0  0  0  0  0  0  0  0  0
  133.6357  136.6798  159.1440 H   0  0  0  0  0  0  0  0  0  0  0  0
  134.4717  136.3406  160.6787 H   0  0  0  0  0  0  0  0  0  0  0  0
  1  2  1  0
  1 31  1  0
  1 32  1  0
  1 33  1  0
  2  8  2  0
  2  3  1  0
  3  4  1  0
  3  5  2  0
  5  6  1  0
  5 34  1  0
  6  7  2  0
  6 35  1  0
  7  8  1  0
  7 36  1  0
  8  9  1  0
  9 30  1  0
  9 10  1  0
 10 11  1  0
 10 37  1  0
 10 38  1  0
 11 12  1  0
 11 39  1  0
 11 40  1  0
 12 13  1  0
 12 14  1  0
 12 29  1  0
 14 15  1  1
 14 16  1  0
 14 22  1  0
 16 21  1  0
 16 17  2  0
 17 18  1  0
 17 41  1  0
 18 19  2  0
 18 42  1  0
 19 20  1  0
 19 43  1  0
 20 21  2  0
 20 44  1  0
 21 45  1  0
 22 27  1  0
 22 23  2  0
 23 24  1  0
 23 46  1  0
 24 25  2  0
 24 47  1  0
 25 26  1  0
 25 48  1  0
 26 27  2  0
 26 49  1  0
 27 28  1  0
 29 30  1  0
 29 50  1  0
 29 51  1  0
 30 52  1  0
 30 53  1  0
M  CHG  1  12   1
M  END
>  <DOCK_score>  (1) 
-56.106853

>  <SMILES>  (1) 
Cc1c(Cl)cccc1N1CC[NH+]([C@@H](c2ccccc2)c2ccccc2Cl)CC1

$$$$
