Nc1ccc(-c2c[nH]c(Nc3cc(CO)ccc3O)[nH+]2)cc1
     RDKit          3D

 39 41  0  0  1  0  0  0  0  0999 V2000
  131.2209  129.3157  151.5820 N   0  0  0  0  0  0  0  0  0  0  0  0
  130.9899  130.0106  152.7717 C   0  0  0  0  0  0  0  0  0  0  0  0
  130.1101  131.0868  152.7869 C   0  0  0  0  0  0  0  0  0  0  0  0
  129.8801  131.7739  153.9602 C   0  0  0  0  0  0  0  0  0  0  0  0
  130.5306  131.3885  155.1313 C   0  0  0  0  0  0  0  0  0  0  0  0
  130.2852  132.1265  156.3947 C   0  0  0  0  0  0  0  0  0  0  0  0
  129.7796  131.6031  157.5391 C   0  0  0  0  0  0  0  0  0  0  0  0
  129.7186  132.6276  158.4533 N   0  0  0  0  0  0  0  0  0  0  0  0
  129.3994  132.5643  159.3670 H   0  0  0  0  0  0  0  0  0  0  0  0
  130.1892  133.7475  157.8393 C   0  0  0  0  0  0  0  0  0  0  0  0
  130.2938  135.0014  158.4182 N   0  0  0  0  0  0  0  0  0  0  0  0
  129.3959  135.3867  159.4211 C   0  0  0  0  0  0  0  0  0  0  0  0
  128.1061  134.8755  159.4339 C   0  0  0  0  0  0  0  0  0  0  0  0
  127.2218  135.2571  160.4251 C   0  0  0  0  0  0  0  0  0  0  0  0
  125.8214  134.7005  160.4379 C   0  0  0  0  0  0  0  0  0  0  0  0
  124.9635  135.5523  159.6760 O   0  0  0  0  0  0  0  0  0  0  0  0
  127.6191  136.1478  161.4051 C   0  0  0  0  0  0  0  0  0  0  0  0
  128.9030  136.6612  161.3992 C   0  0  0  0  0  0  0  0  0  0  0  0
  129.7969  136.2801  160.4121 C   0  0  0  0  0  0  0  0  0  0  0  0
  131.0617  136.7802  160.4077 O   0  0  0  0  0  0  0  0  0  0  0  0
  130.5218  133.4447  156.6079 N   0  0  0  0  0  0  0  0  0  0  0  0
  130.8814  134.0643  155.9539 H   0  0  0  0  0  0  0  0  0  0  0  0
  131.4165  130.3124  155.1123 C   0  0  0  0  0  0  0  0  0  0  0  0
  131.6395  129.6250  153.9379 C   0  0  0  0  0  0  0  0  0  0  0  0
  130.7675  129.5845  150.7675 H   0  0  0  0  0  0  0  0  0  0  0  0
  131.8347  128.5651  151.5702 H   0  0  0  0  0  0  0  0  0  0  0  0
  129.6066  131.3852  151.8793 H   0  0  0  0  0  0  0  0  0  0  0  0
  129.1962  132.6096  153.9718 H   0  0  0  0  0  0  0  0  0  0  0  0
  129.4820  130.5776  157.7011 H   0  0  0  0  0  0  0  0  0  0  0  0
  130.9892  135.6125  158.1289 H   0  0  0  0  0  0  0  0  0  0  0  0
  127.7931  134.1798  158.6693 H   0  0  0  0  0  0  0  0  0  0  0  0
  125.8232  133.7020  160.0011 H   0  0  0  0  0  0  0  0  0  0  0  0
  125.4611  134.6471  161.4653 H   0  0  0  0  0  0  0  0  0  0  0  0
  124.9134  136.4591  160.0085 H   0  0  0  0  0  0  0  0  0  0  0  0
  126.9246  136.4432  162.1778 H   0  0  0  0  0  0  0  0  0  0  0  0
  129.2102  137.3562  162.1666 H   0  0  0  0  0  0  0  0  0  0  0  0
  131.2454  137.3913  161.1342 H   0  0  0  0  0  0  0  0  0  0  0  0
  131.9250  130.0150  156.0174 H   0  0  0  0  0  0  0  0  0  0  0  0
  132.3230  128.7888  153.9236 H   0  0  0  0  0  0  0  0  0  0  0  0
  1  2  1  0
  1 25  1  0
  1 26  1  0
  2 24  2  0
  2  3  1  0
  3  4  2  0
  3 27  1  0
  4  5  1  0
  4 28  1  0
  5  6  1  0
  5 23  2  0
  6 21  1  0
  6  7  2  0
  7  8  1  0
  7 29  1  0
  8  9  1  0
  8 10  1  0
 10 11  1  0
 10 21  2  0
 11 12  1  0
 11 30  1  0
 12 19  1  0
 12 13  2  0
 13 14  1  0
 13 31  1  0
 14 15  1  0
 14 17  2  0
 15 16  1  0
 15 32  1  0
 15 33  1  0
 16 34  1  0
 17 18  1  0
 17 35  1  0
 18 19  2  0
 18 36  1  0
 19 20  1  0
 20 37  1  0
 21 22  1  0
 23 24  1  0
 23 38  1  0
 24 39  1  0
M  CHG  1  21   1
M  END
>  <DOCK_score>  (1) 
-49.505337

>  <SMILES>  (1) 
Nc1ccc(-c2c[nH]c(Nc3cc(CO)ccc3O)[nH+]2)cc1

$$$$
