O=C1CC[C@H]([NH+]=C(NC2CC=CC2)N[C@@H]2C[C@H]2c2ccccc2)CN1
     RDKit          3D

 52 55  0  0  1  0  0  0  0  0999 V2000
  123.4624  133.6668  161.4400 O   0  0  0  0  0  0  0  0  0  0  0  0
  124.6206  133.9462  161.2133 C   0  0  0  0  0  0  0  0  0  0  0  0
  125.4604  132.9470  160.4704 C   0  0  0  0  0  0  0  0  0  0  0  0
  126.9445  133.2678  160.6639 C   0  0  0  0  0  0  0  0  0  0  0  0
  127.1585  134.7601  160.3831 C   0  0  2  0  0  0  0  0  0  0  0  0
  126.7365  135.0134  159.4107 H   0  0  0  0  0  0  0  0  0  0  0  0
  128.5922  135.0609  160.3903 N   0  0  0  0  0  0  0  0  0  0  0  0
  129.0291  135.3208  161.2164 H   0  0  0  0  0  0  0  0  0  0  0  0
  129.2807  134.9793  159.2865 C   0  0  0  0  0  0  0  0  0  0  0  0
  128.9123  134.0829  158.3113 N   0  0  0  0  0  0  0  0  0  0  0  0
  129.9280  133.4987  157.4318 C   0  0  0  0  0  0  0  0  0  0  0  0
  129.3235  132.3795  156.5524 C   0  0  0  0  0  0  0  0  0  0  0  0
  130.4086  131.3314  156.4653 C   0  0  0  0  0  0  0  0  0  0  0  0
  131.3126  131.5131  157.3889 C   0  0  0  0  0  0  0  0  0  0  0  0
  130.9816  132.7125  158.2461 C   0  0  0  0  0  0  0  0  0  0  0  0
  130.3753  135.7894  159.0974 N   0  0  0  0  0  0  0  0  0  0  0  0
  130.7679  136.7445  160.1365 C   0  0  2  0  0  0  0  0  0  0  0  0
  131.4704  136.3678  160.8801 H   0  0  0  0  0  0  0  0  0  0  0  0
  129.7151  137.7509  160.6053 C   0  0  0  0  0  0  0  0  0  0  0  0
  130.8847  138.2164  159.7355 C   0  0  1  0  0  0  0  0  0  0  0  0
  130.6693  138.4741  158.6985 H   0  0  0  0  0  0  0  0  0  0  0  0
  131.9623  139.0349  160.3986 C   0  0  0  0  0  0  0  0  0  0  0  0
  131.6916  139.7131  161.5722 C   0  0  0  0  0  0  0  0  0  0  0  0
  132.6815  140.4601  162.1830 C   0  0  0  0  0  0  0  0  0  0  0  0
  133.9392  140.5371  161.6146 C   0  0  0  0  0  0  0  0  0  0  0  0
  134.2085  139.8631  160.4382 C   0  0  0  0  0  0  0  0  0  0  0  0
  133.2201  139.1120  159.8301 C   0  0  0  0  0  0  0  0  0  0  0  0
  126.4590  135.5691  161.4762 C   0  0  0  0  0  0  0  0  0  0  0  0
  125.0805  135.1239  161.6372 N   0  0  0  0  0  0  0  0  0  0  0  0
  125.2166  132.9872  159.4088 H   0  0  0  0  0  0  0  0  0  0  0  0
  125.2533  131.9471  160.8518 H   0  0  0  0  0  0  0  0  0  0  0  0
  127.5415  132.6748  159.9709 H   0  0  0  0  0  0  0  0  0  0  0  0
  127.2390  133.0412  161.6886 H   0  0  0  0  0  0  0  0  0  0  0  0
  127.9800  133.8373  158.2055 H   0  0  0  0  0  0  0  0  0  0  0  0
  130.4002  134.2666  156.8190 H   0  0  0  0  0  0  0  0  0  0  0  0
  128.4325  131.9654  157.0243 H   0  0  0  0  0  0  0  0  0  0  0  0
  129.0855  132.7630  155.5604 H   0  0  0  0  0  0  0  0  0  0  0  0
  130.4327  130.5366  155.7346 H   0  0  0  0  0  0  0  0  0  0  0  0
  132.1831  130.8879  157.5231 H   0  0  0  0  0  0  0  0  0  0  0  0
  131.8708  133.3224  158.4055 H   0  0  0  0  0  0  0  0  0  0  0  0
  130.5637  132.3951  159.2015 H   0  0  0  0  0  0  0  0  0  0  0  0
  130.8900  135.7256  158.2777 H   0  0  0  0  0  0  0  0  0  0  0  0
  128.7304  137.7022  160.1405 H   0  0  0  0  0  0  0  0  0  0  0  0
  129.7250  138.0364  161.6572 H   0  0  0  0  0  0  0  0  0  0  0  0
  130.7077  139.6564  162.0140 H   0  0  0  0  0  0  0  0  0  0  0  0
  132.4710  140.9869  163.1020 H   0  0  0  0  0  0  0  0  0  0  0  0
  134.7113  141.1242  162.0895 H   0  0  0  0  0  0  0  0  0  0  0  0
  135.1910  139.9236  159.9939 H   0  0  0  0  0  0  0  0  0  0  0  0
  133.4304  138.5856  158.9108 H   0  0  0  0  0  0  0  0  0  0  0  0
  126.9921  135.4386  162.4180 H   0  0  0  0  0  0  0  0  0  0  0  0
  126.4673  136.6245  161.2043 H   0  0  0  0  0  0  0  0  0  0  0  0
  124.4586  135.7218  162.0807 H   0  0  0  0  0  0  0  0  0  0  0  0
  1  2  2  0
  2 29  1  0
  2  3  1  0
  3  4  1  0
  3 30  1  0
  3 31  1  0
  4  5  1  0
  4 32  1  0
  4 33  1  0
  5  6  1  6
  5  7  1  0
  5 28  1  0
  7  8  1  0
  9  7  2  0
  9 10  1  0
  9 16  1  0
 10 11  1  0
 10 34  1  0
 11 15  1  0
 11 12  1  0
 11 35  1  0
 12 13  1  0
 12 36  1  0
 12 37  1  0
 13 14  2  0
 13 38  1  0
 14 15  1  0
 14 39  1  0
 15 40  1  0
 15 41  1  0
 16 17  1  0
 16 42  1  0
 17 18  1  1
 17 20  1  0
 17 19  1  0
 19 20  1  0
 19 43  1  0
 19 44  1  0
 20 21  1  6
 20 22  1  0
 22 27  1  0
 22 23  2  0
 23 24  1  0
 23 45  1  0
 24 25  2  0
 24 46  1  0
 25 26  1  0
 25 47  1  0
 26 27  2  0
 26 48  1  0
 27 49  1  0
 28 29  1  0
 28 50  1  0
 28 51  1  0
 29 52  1  0
M  CHG  1   7   1
M  END
>  <DOCK_score>  (1) 
-48.758545

>  <SMILES>  (1) 
O=C1CC[C@H]([NH+]=C(NC2CC=CC2)N[C@@H]2C[C@H]2c2ccccc2)CN1

$$$$
