Cc1ccc([C@H](C=C2CC(C)(c3ccccc3)NC2=O)Nc2[nH]cc(-c3ccc(N)cc3)[nH+]2)cc1
     RDKit          3D

 65 69  0  0  1  0  0  0  0  0999 V2000
  124.9040  134.1313  160.4077 C   0  0  0  0  0  0  0  0  0  0  0  0
  126.4053  134.2287  160.3180 C   0  0  0  0  0  0  0  0  0  0  0  0
  127.1924  133.7336  161.3409 C   0  0  0  0  0  0  0  0  0  0  0  0
  128.5693  133.8221  161.2582 C   0  0  0  0  0  0  0  0  0  0  0  0
  129.1594  134.4051  160.1524 C   0  0  0  0  0  0  0  0  0  0  0  0
  130.6605  134.5015  160.0622 C   0  0  2  0  0  0  0  0  0  0  0  0
  131.1111  133.6665  160.5988 H   0  0  0  0  0  0  0  0  0  0  0  0
  131.1183  135.7991  160.6766 C   0  0  0  0  0  0  0  0  0  0  0  0
  131.9491  135.7866  161.7151 C   0  0  0  0  0  0  0  0  0  0  0  0
  132.6073  136.9878  162.3613 C   0  0  0  0  0  0  0  0  0  0  0  0
  133.4456  136.3893  163.5032 C   0  0  2  0  0  0  0  0  0  0  0  0
  132.9701  136.9366  164.8506 C   0  0  0  0  0  0  0  0  0  0  0  0
  134.9024  136.7149  163.2968 C   0  0  0  0  0  0  0  0  0  0  0  0
  135.3155  138.0331  163.2443 C   0  0  0  0  0  0  0  0  0  0  0  0
  136.6525  138.3317  163.0600 C   0  0  0  0  0  0  0  0  0  0  0  0
  137.5751  137.3122  162.9174 C   0  0  0  0  0  0  0  0  0  0  0  0
  137.1614  135.9939  162.9645 C   0  0  0  0  0  0  0  0  0  0  0  0
  135.8250  135.6954  163.1542 C   0  0  0  0  0  0  0  0  0  0  0  0
  133.2418  134.9406  163.4490 N   0  0  0  0  0  0  0  0  0  0  0  0
  132.4075  134.6045  162.4577 C   0  0  0  0  0  0  0  0  0  0  0  0
  132.0712  133.4638  162.2034 O   0  0  0  0  0  0  0  0  0  0  0  0
  131.0692  134.4560  158.6561 N   0  0  0  0  0  0  0  0  0  0  0  0
  130.7577  133.3526  157.8801 C   0  0  0  0  0  0  0  0  0  0  0  0
  130.0742  132.2543  158.3022 N   0  0  0  0  0  0  0  0  0  0  0  0
  129.7210  132.1045  159.1931 H   0  0  0  0  0  0  0  0  0  0  0  0
  129.9774  131.3958  157.2327 C   0  0  0  0  0  0  0  0  0  0  0  0
  130.6039  131.9946  156.1899 C   0  0  0  0  0  0  0  0  0  0  0  0
  130.7516  131.4367  154.8233 C   0  0  0  0  0  0  0  0  0  0  0  0
  130.2178  132.1172  153.7300 C   0  0  0  0  0  0  0  0  0  0  0  0
  130.3609  131.5994  152.4600 C   0  0  0  0  0  0  0  0  0  0  0  0
  131.0270  130.3943  152.2708 C   0  0  0  0  0  0  0  0  0  0  0  0
  131.1655  129.8693  150.9836 N   0  0  0  0  0  0  0  0  0  0  0  0
  131.5554  129.7115  153.3598 C   0  0  0  0  0  0  0  0  0  0  0  0
  131.4197  130.2284  154.6310 C   0  0  0  0  0  0  0  0  0  0  0  0
  131.0675  133.1962  156.6161 N   0  0  0  0  0  0  0  0  0  0  0  0
  131.5528  133.8365  156.0726 H   0  0  0  0  0  0  0  0  0  0  0  0
  128.3722  134.9048  159.1318 C   0  0  0  0  0  0  0  0  0  0  0  0
  126.9952  134.8124  159.2125 C   0  0  0  0  0  0  0  0  0  0  0  0
  124.5107  135.0228  160.8962 H   0  0  0  0  0  0  0  0  0  0  0  0
  124.4845  134.0515  159.4048 H   0  0  0  0  0  0  0  0  0  0  0  0
  124.6311  133.2492  160.9869 H   0  0  0  0  0  0  0  0  0  0  0  0
  126.7314  133.2775  162.2046 H   0  0  0  0  0  0  0  0  0  0  0  0
  129.1843  133.4353  162.0575 H   0  0  0  0  0  0  0  0  0  0  0  0
  130.7719  136.7394  160.2736 H   0  0  0  0  0  0  0  0  0  0  0  0
  133.2457  137.5047  161.6448 H   0  0  0  0  0  0  0  0  0  0  0  0
  131.8539  137.6665  162.7613 H   0  0  0  0  0  0  0  0  0  0  0  0
  133.5536  136.4844  165.6525 H   0  0  0  0  0  0  0  0  0  0  0  0
  133.1023  138.0184  164.8705 H   0  0  0  0  0  0  0  0  0  0  0  0
  131.9158  136.6968  164.9885 H   0  0  0  0  0  0  0  0  0  0  0  0
  134.5940  138.8297  163.3514 H   0  0  0  0  0  0  0  0  0  0  0  0
  136.9757  139.3615  163.0227 H   0  0  0  0  0  0  0  0  0  0  0  0
  138.6190  137.5454  162.7688 H   0  0  0  0  0  0  0  0  0  0  0  0
  137.8821  135.1974  162.8528 H   0  0  0  0  0  0  0  0  0  0  0  0
  135.5017  134.6656  163.1908 H   0  0  0  0  0  0  0  0  0  0  0  0
  133.6549  134.3064  164.0558 H   0  0  0  0  0  0  0  0  0  0  0  0
  131.5581  135.1988  158.2688 H   0  0  0  0  0  0  0  0  0  0  0  0
  129.4948  130.4297  157.2247 H   0  0  0  0  0  0  0  0  0  0  0  0
  129.6959  133.0513  153.8772 H   0  0  0  0  0  0  0  0  0  0  0  0
  129.9512  132.1284  151.6123 H   0  0  0  0  0  0  0  0  0  0  0  0
  131.6306  129.0279  150.8509 H   0  0  0  0  0  0  0  0  0  0  0  0
  130.7971  130.3447  150.2234 H   0  0  0  0  0  0  0  0  0  0  0  0
  132.0726  128.7751  153.2104 H   0  0  0  0  0  0  0  0  0  0  0  0
  131.8309  129.6976  155.4769 H   0  0  0  0  0  0  0  0  0  0  0  0
  128.8329  135.3642  158.2700 H   0  0  0  0  0  0  0  0  0  0  0  0
  126.3803  135.1989  158.4133 H   0  0  0  0  0  0  0  0  0  0  0  0
  1  2  1  0
  1 39  1  0
  1 40  1  0
  1 41  1  0
  2 38  2  0
  2  3  1  0
  3  4  2  0
  3 42  1  0
  4  5  1  0
  4 43  1  0
  5  6  1  0
  5 37  2  0
  6  7  1  1
  6  8  1  0
  6 22  1  0
  8  9  2  0
  8 44  1  0
  9 20  1  0
  9 10  1  0
 10 11  1  0
 10 45  1  0
 10 46  1  0
 11 12  1  1
 11 13  1  0
 11 19  1  0
 12 47  1  0
 12 48  1  0
 12 49  1  0
 13 18  1  0
 13 14  2  0
 14 15  1  0
 14 50  1  0
 15 16  2  0
 15 51  1  0
 16 17  1  0
 16 52  1  0
 17 18  2  0
 17 53  1  0
 18 54  1  0
 19 20  1  0
 19 55  1  0
 20 21  2  0
 22 56  1  0
 23 22  1  0
 23 35  2  0
 23 24  1  0
 24 25  1  0
 24 26  1  0
 26 27  2  0
 26 57  1  0
 27 28  1  0
 27 35  1  0
 28 34  1  0
 28 29  2  0
 29 30  1  0
 29 58  1  0
 30 31  2  0
 30 59  1  0
 31 32  1  0
 31 33  1  0
 32 60  1  0
 32 61  1  0
 33 34  2  0
 33 62  1  0
 34 63  1  0
 35 36  1  0
 37 38  1  0
 37 64  1  0
 38 65  1  0
M  CHG  1  35   1
M  END
>  <DOCK_score>  (1) 
-62.226093

>  <SMILES>  (1) 
Cc1ccc([C@H](C=C2CC(C)(c3ccccc3)NC2=O)Nc2[nH]cc(-c3ccc(N)cc3)[nH+]2)cc1

$$$$
