Fc1ccc([C@H](Nc2[nH]cc(C3=CCC=CC3)[nH+]2)c2ccccc2)cc1
     RDKit          3D

 47 50  0  0  1  0  0  0  0  0999 V2000
  130.5656  140.7070  161.6658 F   0  0  0  0  0  0  0  0  0  0  0  0
  130.2057  139.4721  161.2527 C   0  0  0  0  0  0  0  0  0  0  0  0
  129.4971  138.6373  162.1000 C   0  0  0  0  0  0  0  0  0  0  0  0
  129.1299  137.3741  161.6765 C   0  0  0  0  0  0  0  0  0  0  0  0
  129.4694  136.9440  160.4072 C   0  0  0  0  0  0  0  0  0  0  0  0
  129.0680  135.5665  159.9464 C   0  0  2  0  0  0  0  0  0  0  0  0
  129.0190  134.8962  160.8046 H   0  0  0  0  0  0  0  0  0  0  0  0
  130.0576  135.0638  158.9902 N   0  0  0  0  0  0  0  0  0  0  0  0
  129.9001  133.8095  158.4263 C   0  0  0  0  0  0  0  0  0  0  0  0
  129.2883  132.7465  159.0166 N   0  0  0  0  0  0  0  0  0  0  0  0
  128.8879  132.7323  159.9000 H   0  0  0  0  0  0  0  0  0  0  0  0
  129.3377  131.6996  158.1296 C   0  0  0  0  0  0  0  0  0  0  0  0
  129.9863  132.1502  157.0243 C   0  0  0  0  0  0  0  0  0  0  0  0
  130.2760  131.3670  155.8057 C   0  0  0  0  0  0  0  0  0  0  0  0
  129.7820  131.7788  154.6580 C   0  0  0  0  0  0  0  0  0  0  0  0
  130.0249  131.0553  153.3675 C   0  0  0  0  0  0  0  0  0  0  0  0
  131.2148  130.1497  153.4692 C   0  0  0  0  0  0  0  0  0  0  0  0
  131.6980  129.7407  154.6019 C   0  0  0  0  0  0  0  0  0  0  0  0
  131.1162  130.1310  155.9270 C   0  0  0  0  0  0  0  0  0  0  0  0
  130.3158  133.4505  157.2365 N   0  0  0  0  0  0  0  0  0  0  0  0
  130.7844  134.0219  156.6081 H   0  0  0  0  0  0  0  0  0  0  0  0
  127.7167  135.6327  159.2828 C   0  0  0  0  0  0  0  0  0  0  0  0
  126.5690  135.4582  160.0332 C   0  0  0  0  0  0  0  0  0  0  0  0
  125.3290  135.5233  159.4252 C   0  0  0  0  0  0  0  0  0  0  0  0
  125.2373  135.7538  158.0653 C   0  0  0  0  0  0  0  0  0  0  0  0
  126.3854  135.9232  157.3140 C   0  0  0  0  0  0  0  0  0  0  0  0
  127.6251  135.8624  157.9228 C   0  0  0  0  0  0  0  0  0  0  0  0
  130.1818  137.7747  159.5624 C   0  0  0  0  0  0  0  0  0  0  0  0
  130.5456  139.0402  159.9818 C   0  0  0  0  0  0  0  0  0  0  0  0
  129.2317  138.9729  163.0916 H   0  0  0  0  0  0  0  0  0  0  0  0
  128.5771  136.7226  162.3372 H   0  0  0  0  0  0  0  0  0  0  0  0
  130.8230  135.6100  158.7521 H   0  0  0  0  0  0  0  0  0  0  0  0
  128.9393  130.7074  158.2823 H   0  0  0  0  0  0  0  0  0  0  0  0
  129.1813  132.6762  154.6442 H   0  0  0  0  0  0  0  0  0  0  0  0
  129.1448  130.4623  153.1191 H   0  0  0  0  0  0  0  0  0  0  0  0
  130.1990  131.7847  152.5763 H   0  0  0  0  0  0  0  0  0  0  0  0
  131.6925  129.8224  152.5576 H   0  0  0  0  0  0  0  0  0  0  0  0
  132.5587  129.0888  154.5894 H   0  0  0  0  0  0  0  0  0  0  0  0
  130.5022  129.3125  156.3026 H   0  0  0  0  0  0  0  0  0  0  0  0
  131.9266  130.3205  156.6310 H   0  0  0  0  0  0  0  0  0  0  0  0
  126.6406  135.2745  161.0951 H   0  0  0  0  0  0  0  0  0  0  0  0
  124.4322  135.3914  160.0123 H   0  0  0  0  0  0  0  0  0  0  0  0
  124.2689  135.8021  157.5899 H   0  0  0  0  0  0  0  0  0  0  0  0
  126.3138  136.1032  156.2516 H   0  0  0  0  0  0  0  0  0  0  0  0
  128.5219  135.9946  157.3358 H   0  0  0  0  0  0  0  0  0  0  0  0
  130.4506  137.4359  158.5728 H   0  0  0  0  0  0  0  0  0  0  0  0
  131.0980  139.6907  159.3200 H   0  0  0  0  0  0  0  0  0  0  0  0
  1  2  1  0
  2 29  2  0
  2  3  1  0
  3  4  2  0
  3 30  1  0
  4  5  1  0
  4 31  1  0
  5  6  1  0
  5 28  2  0
  6  7  1  1
  6  8  1  0
  6 22  1  0
  8 32  1  0
  9  8  1  0
  9 20  2  0
  9 10  1  0
 10 11  1  0
 10 12  1  0
 12 13  2  0
 12 33  1  0
 13 14  1  0
 13 20  1  0
 14 19  1  0
 14 15  2  0
 15 16  1  0
 15 34  1  0
 16 17  1  0
 16 35  1  0
 16 36  1  0
 17 18  2  0
 17 37  1  0
 18 19  1  0
 18 38  1  0
 19 39  1  0
 19 40  1  0
 20 21  1  0
 22 27  1  0
 22 23  2  0
 23 24  1  0
 23 41  1  0
 24 25  2  0
 24 42  1  0
 25 26  1  0
 25 43  1  0
 26 27  2  0
 26 44  1  0
 27 45  1  0
 28 29  1  0
 28 46  1  0
 29 47  1  0
M  CHG  1  20   1
M  END
>  <DOCK_score>  (1) 
-58.588291

>  <SMILES>  (1) 
Fc1ccc([C@H](Nc2[nH]cc(C3=CCC=CC3)[nH+]2)c2ccccc2)cc1

$$$$
