C=C(Br)CCCNc1cccc([C@@H]([NH3+])C(=O)Nc2cccc(O)c2)c1
     RDKit          3D

 48 49  0  0  1  0  0  0  0  0999 V2000
  133.6361  140.4950  164.6494 C   0  0  0  0  0  0  0  0  0  0  0  0
  134.1476  139.8800  163.6105 C   0  0  0  0  0  0  0  0  0  0  0  0
  135.4329  140.7535  162.5329 Br  0  0  0  0  0  0  0  0  0  0  0  0
  133.7112  138.4770  163.2751 C   0  0  0  0  0  0  0  0  0  0  0  0
  134.9226  137.5432  163.3141 C   0  0  0  0  0  0  0  0  0  0  0  0
  134.4796  136.1188  162.9737 C   0  0  0  0  0  0  0  0  0  0  0  0
  133.8900  136.0982  161.6327 N   0  0  0  0  0  0  0  0  0  0  0  0
  132.8917  135.1718  161.3230 C   0  0  0  0  0  0  0  0  0  0  0  0
  132.7399  134.0273  162.0958 C   0  0  0  0  0  0  0  0  0  0  0  0
  131.7521  133.1133  161.7864 C   0  0  0  0  0  0  0  0  0  0  0  0
  130.9108  133.3390  160.7121 C   0  0  0  0  0  0  0  0  0  0  0  0
  131.0627  134.4742  159.9377 C   0  0  0  0  0  0  0  0  0  0  0  0
  130.1476  134.7129  158.7643 C   0  0  1  0  0  0  0  0  0  0  0  0
  130.0249  135.7850  158.6115 H   0  0  0  0  0  0  0  0  0  0  0  0
  130.7304  134.1098  157.5582 N   0  0  0  0  0  0  0  0  0  0  0  0
  130.1176  134.2696  156.7726 H   0  0  0  0  0  0  0  0  0  0  0  0
  131.6297  134.5285  157.3738 H   0  0  0  0  0  0  0  0  0  0  0  0
  130.8441  133.1174  157.6996 H   0  0  0  0  0  0  0  0  0  0  0  0
  128.8043  134.0875  159.0396 C   0  0  0  0  0  0  0  0  0  0  0  0
  128.3748  133.2244  158.3036 O   0  0  0  0  0  0  0  0  0  0  0  0
  128.0803  134.4874  160.1038 N   0  0  0  0  0  0  0  0  0  0  0  0
  126.8331  133.9068  160.3594 C   0  0  0  0  0  0  0  0  0  0  0  0
  126.5884  132.5914  159.9854 C   0  0  0  0  0  0  0  0  0  0  0  0
  125.3572  132.0185  160.2376 C   0  0  0  0  0  0  0  0  0  0  0  0
  124.3681  132.7493  160.8682 C   0  0  0  0  0  0  0  0  0  0  0  0
  124.6049  134.0655  161.2388 C   0  0  0  0  0  0  0  0  0  0  0  0
  123.6294  134.7849  161.8533 O   0  0  0  0  0  0  0  0  0  0  0  0
  125.8392  134.6441  160.9870 C   0  0  0  0  0  0  0  0  0  0  0  0
  132.0487  135.3925  160.2413 C   0  0  0  0  0  0  0  0  0  0  0  0
  132.9021  139.9962  165.2650 H   0  0  0  0  0  0  0  0  0  0  0  0
  133.9489  141.5004  164.8898 H   0  0  0  0  0  0  0  0  0  0  0  0
  133.2727  138.4617  162.2775 H   0  0  0  0  0  0  0  0  0  0  0  0
  132.9714  138.1430  164.0025 H   0  0  0  0  0  0  0  0  0  0  0  0
  135.3612  137.5586  164.3119 H   0  0  0  0  0  0  0  0  0  0  0  0
  135.6625  137.8772  162.5868 H   0  0  0  0  0  0  0  0  0  0  0  0
  133.7395  135.7849  163.7011 H   0  0  0  0  0  0  0  0  0  0  0  0
  135.3425  135.4535  163.0016 H   0  0  0  0  0  0  0  0  0  0  0  0
  134.1931  136.7279  160.9599 H   0  0  0  0  0  0  0  0  0  0  0  0
  133.3935  133.8528  162.9375 H   0  0  0  0  0  0  0  0  0  0  0  0
  131.6336  132.2234  162.3868 H   0  0  0  0  0  0  0  0  0  0  0  0
  130.1360  132.6248  160.4753 H   0  0  0  0  0  0  0  0  0  0  0  0
  128.4238  135.1775  160.6924 H   0  0  0  0  0  0  0  0  0  0  0  0
  127.3613  132.0166  159.4968 H   0  0  0  0  0  0  0  0  0  0  0  0
  125.1687  130.9958  159.9459 H   0  0  0  0  0  0  0  0  0  0  0  0
  123.4081  132.2970  161.0688 H   0  0  0  0  0  0  0  0  0  0  0  0
  123.8876  135.6905  162.0728 H   0  0  0  0  0  0  0  0  0  0  0  0
  126.0267  135.6671  161.2784 H   0  0  0  0  0  0  0  0  0  0  0  0
  132.1637  136.2814  159.6389 H   0  0  0  0  0  0  0  0  0  0  0  0
  1  2  2  0
  1 30  1  0
  1 31  1  0
  2  3  1  0
  2  4  1  0
  4  5  1  0
  4 32  1  0
  4 33  1  0
  5  6  1  0
  5 34  1  0
  5 35  1  0
  6  7  1  0
  6 36  1  0
  6 37  1  0
  7  8  1  0
  7 38  1  0
  8 29  2  0
  8  9  1  0
  9 10  2  0
  9 39  1  0
 10 11  1  0
 10 40  1  0
 11 12  2  0
 11 41  1  0
 12 13  1  0
 12 29  1  0
 13 14  1  6
 13 15  1  0
 13 19  1  0
 15 16  1  0
 15 17  1  0
 15 18  1  0
 19 20  2  0
 19 21  1  0
 21 22  1  0
 21 42  1  0
 22 28  1  0
 22 23  2  0
 23 24  1  0
 23 43  1  0
 24 25  2  0
 24 44  1  0
 25 26  1  0
 25 45  1  0
 26 27  1  0
 26 28  2  0
 27 46  1  0
 28 47  1  0
 29 48  1  0
M  CHG  1  15   1
M  END
>  <DOCK_score>  (1) 
-46.069683

>  <SMILES>  (1) 
C=C(Br)CCCNc1cccc([C@@H]([NH3+])C(=O)Nc2cccc(O)c2)c1

$$$$
