CC1=C(CSc2ccc3c(c2)C[C@@H](NC(NC2CC2)=[NH+][C@H]2CCC(=O)NC2)C3)CCC1
     RDKit          3D

 66 70  0  0  1  0  0  0  0  0999 V2000
  132.9475  140.8000  165.9550 C   0  0  0  0  0  0  0  0  0  0  0  0
  134.2940  141.3421  166.3606 C   0  0  0  0  0  0  0  0  0  0  0  0
  135.4180  140.6884  166.2462 C   0  0  0  0  0  0  0  0  0  0  0  0
  135.5397  139.2925  165.6915 C   0  0  0  0  0  0  0  0  0  0  0  0
  135.8027  139.3752  163.8986 S   0  0  0  0  0  0  0  0  0  0  0  0
  135.0626  137.8846  163.3202 C   0  0  0  0  0  0  0  0  0  0  0  0
  135.5317  136.6544  163.7656 C   0  0  0  0  0  0  0  0  0  0  0  0
  134.9486  135.4908  163.3090 C   0  0  0  0  0  0  0  0  0  0  0  0
  133.8972  135.5421  162.4073 C   0  0  0  0  0  0  0  0  0  0  0  0
  133.4278  136.7645  161.9621 C   0  0  0  0  0  0  0  0  0  0  0  0
  134.0089  137.9346  162.4174 C   0  0  0  0  0  0  0  0  0  0  0  0
  132.2850  136.5511  160.9925 C   0  0  0  0  0  0  0  0  0  0  0  0
  131.8213  135.0980  161.2281 C   0  0  1  0  0  0  0  0  0  0  0  0
  131.0220  135.0583  161.9680 H   0  0  0  0  0  0  0  0  0  0  0  0
  131.3958  134.4769  159.9714 N   0  0  0  0  0  0  0  0  0  0  0  0
  130.0849  134.5703  159.5678 C   0  0  0  0  0  0  0  0  0  0  0  0
  129.6855  133.9874  158.3884 N   0  0  0  0  0  0  0  0  0  0  0  0
  130.6569  133.2668  157.5616 C   0  0  0  0  0  0  0  0  0  0  0  0
  130.1133  132.2418  156.5644 C   0  0  0  0  0  0  0  0  0  0  0  0
  130.8390  131.7711  157.8273 C   0  0  0  0  0  0  0  0  0  0  0  0
  129.2205  135.2113  160.3033 N   0  0  0  0  0  0  0  0  0  0  0  0
  129.5100  135.9546  160.8549 H   0  0  0  0  0  0  0  0  0  0  0  0
  127.8119  134.8088  160.2968 C   0  0  1  0  0  0  0  0  0  0  0  0
  127.4114  134.8956  159.2867 H   0  0  0  0  0  0  0  0  0  0  0  0
  127.6893  133.3572  160.7758 C   0  0  0  0  0  0  0  0  0  0  0  0
  126.2389  132.9060  160.5862 C   0  0  0  0  0  0  0  0  0  0  0  0
  125.3052  133.9337  161.1585 C   0  0  0  0  0  0  0  0  0  0  0  0
  124.1606  133.6047  161.3877 O   0  0  0  0  0  0  0  0  0  0  0  0
  125.6672  135.1885  161.4278 N   0  0  0  0  0  0  0  0  0  0  0  0
  127.0174  135.7065  161.2462 C   0  0  0  0  0  0  0  0  0  0  0  0
  133.1014  134.4248  161.7668 C   0  0  0  0  0  0  0  0  0  0  0  0
  136.5818  141.5177  166.7372 C   0  0  0  0  0  0  0  0  0  0  0  0
  135.9353  142.6459  167.5740 C   0  0  0  0  0  0  0  0  0  0  0  0
  134.5196  142.7127  166.9555 C   0  0  0  0  0  0  0  0  0  0  0  0
  132.4943  140.2830  166.8008 H   0  0  0  0  0  0  0  0  0  0  0  0
  132.3034  141.6224  165.6442 H   0  0  0  0  0  0  0  0  0  0  0  0
  133.0713  140.1023  165.1268 H   0  0  0  0  0  0  0  0  0  0  0  0
  134.6246  138.7379  165.8992 H   0  0  0  0  0  0  0  0  0  0  0  0
  136.3848  138.7879  166.1598 H   0  0  0  0  0  0  0  0  0  0  0  0
  136.3540  136.6097  164.4645 H   0  0  0  0  0  0  0  0  0  0  0  0
  135.3134  134.5351  163.6552 H   0  0  0  0  0  0  0  0  0  0  0  0
  133.6424  138.8890  162.0696 H   0  0  0  0  0  0  0  0  0  0  0  0
  131.4731  137.2464  161.2058 H   0  0  0  0  0  0  0  0  0  0  0  0
  132.6311  136.6761  159.9665 H   0  0  0  0  0  0  0  0  0  0  0  0
  132.0389  133.9999  159.4241 H   0  0  0  0  0  0  0  0  0  0  0  0
  128.7606  134.0533  158.1035 H   0  0  0  0  0  0  0  0  0  0  0  0
  131.5383  133.8367  157.2675 H   0  0  0  0  0  0  0  0  0  0  0  0
  129.0329  132.1034  156.5234 H   0  0  0  0  0  0  0  0  0  0  0  0
  130.6372  132.1368  155.6143 H   0  0  0  0  0  0  0  0  0  0  0  0
  131.8401  131.3570  157.7076 H   0  0  0  0  0  0  0  0  0  0  0  0
  130.2363  131.3233  158.6174 H   0  0  0  0  0  0  0  0  0  0  0  0
  128.3515  132.7201  160.1895 H   0  0  0  0  0  0  0  0  0  0  0  0
  127.9588  133.2948  161.8301 H   0  0  0  0  0  0  0  0  0  0  0  0
  126.0341  132.7831  159.5226 H   0  0  0  0  0  0  0  0  0  0  0  0
  126.0863  131.9545  161.0955 H   0  0  0  0  0  0  0  0  0  0  0  0
  124.9894  135.7946  161.7658 H   0  0  0  0  0  0  0  0  0  0  0  0
  127.5215  135.7449  162.2119 H   0  0  0  0  0  0  0  0  0  0  0  0
  126.9644  136.7128  160.8307 H   0  0  0  0  0  0  0  0  0  0  0  0
  133.6669  133.9785  160.9489 H   0  0  0  0  0  0  0  0  0  0  0  0
  132.8486  133.6671  162.5086 H   0  0  0  0  0  0  0  0  0  0  0  0
  137.2423  140.9140  167.3598 H   0  0  0  0  0  0  0  0  0  0  0  0
  137.1315  141.9371  165.8945 H   0  0  0  0  0  0  0  0  0  0  0  0
  135.8892  142.3739  168.6284 H   0  0  0  0  0  0  0  0  0  0  0  0
  136.4666  143.5878  167.4375 H   0  0  0  0  0  0  0  0  0  0  0  0
  133.7780  142.9214  167.7264 H   0  0  0  0  0  0  0  0  0  0  0  0
  134.4811  143.4739  166.1764 H   0  0  0  0  0  0  0  0  0  0  0  0
  1  2  1  0
  1 35  1  0
  1 36  1  0
  1 37  1  0
  2 34  1  0
  2  3  2  0
  3  4  1  0
  3 32  1  0
  4  5  1  0
  4 38  1  0
  4 39  1  0
  5  6  1  0
  6 11  1  0
  6  7  2  0
  7  8  1  0
  7 40  1  0
  8  9  2  0
  8 41  1  0
  9 31  1  0
  9 10  1  0
 10 11  2  0
 10 12  1  0
 11 42  1  0
 12 13  1  0
 12 43  1  0
 12 44  1  0
 13 14  1  1
 13 15  1  0
 13 31  1  0
 15 45  1  0
 16 15  1  0
 16 17  1  0
 16 21  2  0
 17 18  1  0
 17 46  1  0
 18 20  1  0
 18 19  1  0
 18 47  1  0
 19 20  1  0
 19 48  1  0
 19 49  1  0
 20 50  1  0
 20 51  1  0
 21 22  1  0
 21 23  1  0
 23 24  1  6
 23 30  1  0
 23 25  1  0
 25 26  1  0
 25 52  1  0
 25 53  1  0
 26 27  1  0
 26 54  1  0
 26 55  1  0
 27 28  2  0
 27 29  1  0
 29 30  1  0
 29 56  1  0
 30 57  1  0
 30 58  1  0
 31 59  1  0
 31 60  1  0
 32 33  1  0
 32 61  1  0
 32 62  1  0
 33 34  1  0
 33 63  1  0
 33 64  1  0
 34 65  1  0
 34 66  1  0
M  CHG  1  21   1
M  END
>  <DOCK_score>  (1) 
-44.689613

>  <SMILES>  (1) 
CC1=C(CSc2ccc3c(c2)C[C@@H](NC(NC2CC2)=[NH+][C@H]2CCC(=O)NC2)C3)CCC1

$$$$
