O=C1CC[C@H](Nc2ccc(Nc3[nH]cc(-c4ccc(C(F)(F)F)cc4)[nH+]3)cc2O)CN1
     RDKit          3D

 52 55  0  0  1  0  0  0  0  0999 V2000
  127.1429  138.7421  167.6254 O   0  0  0  0  0  0  0  0  0  0  0  0
  126.9791  138.3891  166.4767 C   0  0  0  0  0  0  0  0  0  0  0  0
  127.1973  139.3973  165.3853 C   0  0  0  0  0  0  0  0  0  0  0  0
  126.5366  138.9151  164.0913 C   0  0  0  0  0  0  0  0  0  0  0  0
  126.9594  137.4619  163.8440 C   0  0  2  0  0  0  0  0  0  0  0  0
  128.0458  137.3847  163.8877 H   0  0  0  0  0  0  0  0  0  0  0  0
  126.4853  137.0296  162.5269 N   0  0  0  0  0  0  0  0  0  0  0  0
  127.4042  136.6105  161.5538 C   0  0  0  0  0  0  0  0  0  0  0  0
  128.6833  137.1465  161.5308 C   0  0  0  0  0  0  0  0  0  0  0  0
  129.5907  136.7310  160.5749 C   0  0  0  0  0  0  0  0  0  0  0  0
  129.2209  135.7833  159.6297 C   0  0  0  0  0  0  0  0  0  0  0  0
  130.1406  135.3673  158.6589 N   0  0  0  0  0  0  0  0  0  0  0  0
  130.0702  134.0838  158.1431 C   0  0  0  0  0  0  0  0  0  0  0  0
  129.6092  132.9874  158.8051 N   0  0  0  0  0  0  0  0  0  0  0  0
  129.2746  132.9642  159.7152 H   0  0  0  0  0  0  0  0  0  0  0  0
  129.7058  131.9197  157.9465 C   0  0  0  0  0  0  0  0  0  0  0  0
  130.2225  132.3938  156.7855 C   0  0  0  0  0  0  0  0  0  0  0  0
  130.5039  131.5975  155.5660 C   0  0  0  0  0  0  0  0  0  0  0  0
  129.8686  131.9092  154.3652 C   0  0  0  0  0  0  0  0  0  0  0  0
  130.1376  131.1675  153.2327 C   0  0  0  0  0  0  0  0  0  0  0  0
  131.0281  130.1111  153.2899 C   0  0  0  0  0  0  0  0  0  0  0  0
  131.3134  129.3020  152.0509 C   0  0  0  0  0  0  0  0  0  0  0  0
  130.5661  129.8063  150.9820 F   0  0  0  0  0  0  0  0  0  0  0  0
  132.6767  129.3810  151.7461 F   0  0  0  0  0  0  0  0  0  0  0  0
  130.9634  127.9657  152.2760 F   0  0  0  0  0  0  0  0  0  0  0  0
  131.6576  129.7937  154.4805 C   0  0  0  0  0  0  0  0  0  0  0  0
  131.4000  130.5314  155.6181 C   0  0  0  0  0  0  0  0  0  0  0  0
  130.4311  133.7256  156.9348 N   0  0  0  0  0  0  0  0  0  0  0  0
  130.7918  134.3180  156.2567 H   0  0  0  0  0  0  0  0  0  0  0  0
  127.9397  135.2482  159.6463 C   0  0  0  0  0  0  0  0  0  0  0  0
  127.0309  135.6601  160.6064 C   0  0  0  0  0  0  0  0  0  0  0  0
  125.7756  135.1370  160.6246 O   0  0  0  0  0  0  0  0  0  0  0  0
  126.3382  136.5801  164.9278 C   0  0  0  0  0  0  0  0  0  0  0  0
  126.6145  137.1264  166.2505 N   0  0  0  0  0  0  0  0  0  0  0  0
  126.7607  140.3512  165.6811 H   0  0  0  0  0  0  0  0  0  0  0  0
  128.2668  139.5247  165.2187 H   0  0  0  0  0  0  0  0  0  0  0  0
  126.8621  139.5388  163.2587 H   0  0  0  0  0  0  0  0  0  0  0  0
  125.4525  138.9702  164.1897 H   0  0  0  0  0  0  0  0  0  0  0  0
  125.5360  137.0331  162.3279 H   0  0  0  0  0  0  0  0  0  0  0  0
  128.9714  137.8865  162.2628 H   0  0  0  0  0  0  0  0  0  0  0  0
  130.5872  137.1470  160.5604 H   0  0  0  0  0  0  0  0  0  0  0  0
  130.8269  135.9781  158.3478 H   0  0  0  0  0  0  0  0  0  0  0  0
  129.4243  130.8984  158.1558 H   0  0  0  0  0  0  0  0  0  0  0  0
  129.1702  132.7316  154.3200 H   0  0  0  0  0  0  0  0  0  0  0  0
  129.6485  131.4101  152.3009 H   0  0  0  0  0  0  0  0  0  0  0  0
  132.3522  128.9675  154.5196 H   0  0  0  0  0  0  0  0  0  0  0  0
  131.8916  130.2827  156.5470 H   0  0  0  0  0  0  0  0  0  0  0  0
  127.6522  134.5111  158.9111 H   0  0  0  0  0  0  0  0  0  0  0  0
  125.6106  134.4861  159.9290 H   0  0  0  0  0  0  0  0  0  0  0  0
  125.2598  136.5294  164.7770 H   0  0  0  0  0  0  0  0  0  0  0  0
  126.7587  135.5767  164.8607 H   0  0  0  0  0  0  0  0  0  0  0  0
  126.5279  136.5345  167.0140 H   0  0  0  0  0  0  0  0  0  0  0  0
  1  2  2  0
  2 34  1  0
  2  3  1  0
  3  4  1  0
  3 35  1  0
  3 36  1  0
  4  5  1  0
  4 37  1  0
  4 38  1  0
  5  6  1  6
  5  7  1  0
  5 33  1  0
  7  8  1  0
  7 39  1  0
  8 31  1  0
  8  9  2  0
  9 10  1  0
  9 40  1  0
 10 11  2  0
 10 41  1  0
 11 12  1  0
 11 30  1  0
 12 42  1  0
 13 12  1  0
 13 28  2  0
 13 14  1  0
 14 15  1  0
 14 16  1  0
 16 17  2  0
 16 43  1  0
 17 18  1  0
 17 28  1  0
 18 27  1  0
 18 19  2  0
 19 20  1  0
 19 44  1  0
 20 21  2  0
 20 45  1  0
 21 22  1  0
 21 26  1  0
 22 23  1  0
 22 24  1  0
 22 25  1  0
 26 27  2  0
 26 46  1  0
 27 47  1  0
 28 29  1  0
 30 31  2  0
 30 48  1  0
 31 32  1  0
 32 49  1  0
 33 34  1  0
 33 50  1  0
 33 51  1  0
 34 52  1  0
M  CHG  1  28   1
M  END
>  <DOCK_score>  (1) 
-52.309216

>  <SMILES>  (1) 
O=C1CC[C@H](Nc2ccc(Nc3[nH]cc(-c4ccc(C(F)(F)F)cc4)[nH+]3)cc2O)CN1

$$$$
