CC1(C)C(O)C[C@H]1C[NH+]=C(NC1CCCCC1)NC1CCCCC1
     RDKit          3D

 62 64  0  0  1  0  0  0  0  0999 V2000
  127.8088  134.5607  163.9929 C   0  0  0  0  0  0  0  0  0  0  0  0
  126.5849  134.9817  163.1770 C   0  0  0  0  0  0  0  0  0  0  0  0
  126.0859  133.8797  162.2403 C   0  0  0  0  0  0  0  0  0  0  0  0
  125.4717  135.6227  164.0224 C   0  0  2  0  0  0  0  0  0  0  0  0
  124.1748  135.5299  163.4294 O   0  0  0  0  0  0  0  0  0  0  0  0
  126.1676  136.9713  163.7740 C   0  0  0  0  0  0  0  0  0  0  0  0
  126.7427  136.3489  162.4907 C   0  0  1  0  0  0  0  0  0  0  0  0
  126.1016  136.4761  161.6185 H   0  0  0  0  0  0  0  0  0  0  0  0
  128.1978  136.7367  162.2203 C   0  0  0  0  0  0  0  0  0  0  0  0
  128.6701  136.0509  161.0149 N   0  0  0  0  0  0  0  0  0  0  0  0
  128.0748  135.4589  160.5291 H   0  0  0  0  0  0  0  0  0  0  0  0
  129.8902  136.2362  160.5955 C   0  0  0  0  0  0  0  0  0  0  0  0
  130.3333  135.5925  159.4643 N   0  0  0  0  0  0  0  0  0  0  0  0
  129.7823  134.2841  159.1026 C   0  0  0  0  0  0  0  0  0  0  0  0
  130.0587  133.2855  160.2283 C   0  0  0  0  0  0  0  0  0  0  0  0
  129.4832  131.9191  159.8504 C   0  0  0  0  0  0  0  0  0  0  0  0
  130.1414  131.4276  158.5597 C   0  0  0  0  0  0  0  0  0  0  0  0
  129.8652  132.4263  157.4341 C   0  0  0  0  0  0  0  0  0  0  0  0
  130.4406  133.7926  157.8118 C   0  0  0  0  0  0  0  0  0  0  0  0
  130.7339  137.0752  161.2840 N   0  0  0  0  0  0  0  0  0  0  0  0
  132.1051  137.2835  160.8125 C   0  0  0  0  0  0  0  0  0  0  0  0
  133.0155  137.5789  162.0062 C   0  0  0  0  0  0  0  0  0  0  0  0
  134.4477  137.7963  161.5137 C   0  0  0  0  0  0  0  0  0  0  0  0
  134.4794  138.9787  160.5433 C   0  0  0  0  0  0  0  0  0  0  0  0
  133.5690  138.6833  159.3496 C   0  0  0  0  0  0  0  0  0  0  0  0
  132.1369  138.4658  159.8421 C   0  0  0  0  0  0  0  0  0  0  0  0
  127.6050  133.6126  164.4906 H   0  0  0  0  0  0  0  0  0  0  0  0
  128.6659  134.4459  163.3294 H   0  0  0  0  0  0  0  0  0  0  0  0
  128.0274  135.3236  164.7401 H   0  0  0  0  0  0  0  0  0  0  0  0
  125.1358  134.1809  161.7988 H   0  0  0  0  0  0  0  0  0  0  0  0
  126.8181  133.7156  161.4497 H   0  0  0  0  0  0  0  0  0  0  0  0
  125.9479  132.9578  162.8051 H   0  0  0  0  0  0  0  0  0  0  0  0
  125.4827  135.3116  165.0671 H   0  0  0  0  0  0  0  0  0  0  0  0
  124.1124  135.9373  162.5547 H   0  0  0  0  0  0  0  0  0  0  0  0
  125.4752  137.7924  163.5887 H   0  0  0  0  0  0  0  0  0  0  0  0
  126.9255  137.2153  164.5185 H   0  0  0  0  0  0  0  0  0  0  0  0
  128.2655  137.8149  162.0749 H   0  0  0  0  0  0  0  0  0  0  0  0
  128.8155  136.4452  163.0697 H   0  0  0  0  0  0  0  0  0  0  0  0
  131.0108  136.0046  158.9057 H   0  0  0  0  0  0  0  0  0  0  0  0
  128.7065  134.3723  158.9510 H   0  0  0  0  0  0  0  0  0  0  0  0
  131.1344  133.1973  160.3798 H   0  0  0  0  0  0  0  0  0  0  0  0
  129.5896  133.6355  161.1478 H   0  0  0  0  0  0  0  0  0  0  0  0
  128.4073  132.0072  159.6990 H   0  0  0  0  0  0  0  0  0  0  0  0
  129.6800  131.2076  160.6524 H   0  0  0  0  0  0  0  0  0  0  0  0
  129.7314  130.4541  158.2906 H   0  0  0  0  0  0  0  0  0  0  0  0
  131.2172  131.3395  158.7113 H   0  0  0  0  0  0  0  0  0  0  0  0
  128.7893  132.5145  157.2825 H   0  0  0  0  0  0  0  0  0  0  0  0
  130.3341  132.0762  156.5145 H   0  0  0  0  0  0  0  0  0  0  0  0
  130.2438  134.5041  157.0098 H   0  0  0  0  0  0  0  0  0  0  0  0
  131.5164  133.7045  157.9634 H   0  0  0  0  0  0  0  0  0  0  0  0
  130.4212  137.5293  162.0821 H   0  0  0  0  0  0  0  0  0  0  0  0
  132.4544  136.3855  160.3027 H   0  0  0  0  0  0  0  0  0  0  0  0
  132.6664  138.4767  162.5159 H   0  0  0  0  0  0  0  0  0  0  0  0
  132.9931  136.7365  162.6975 H   0  0  0  0  0  0  0  0  0  0  0  0
  134.7970  136.8984  161.0039 H   0  0  0  0  0  0  0  0  0  0  0  0
  135.0963  138.0068  162.3640 H   0  0  0  0  0  0  0  0  0  0  0  0
  135.4997  139.1336  160.1924 H   0  0  0  0  0  0  0  0  0  0  0  0
  134.1302  139.8766  161.0530 H   0  0  0  0  0  0  0  0  0  0  0  0
  133.9182  137.7853  158.8398 H   0  0  0  0  0  0  0  0  0  0  0  0
  133.5916  139.5256  158.6582 H   0  0  0  0  0  0  0  0  0  0  0  0
  131.4882  138.2554  158.9916 H   0  0  0  0  0  0  0  0  0  0  0  0
  131.7876  139.3638  160.3518 H   0  0  0  0  0  0  0  0  0  0  0  0
  1  2  1  0
  1 27  1  0
  1 28  1  0
  1 29  1  0
  2  7  1  0
  2  3  1  0
  2  4  1  0
  3 30  1  0
  3 31  1  0
  3 32  1  0
  4  5  1  0
  4  6  1  0
  4 33  1  1
  5 34  1  0
  6  7  1  0
  6 35  1  0
  6 36  1  0
  7  8  1  6
  7  9  1  0
  9 10  1  0
  9 37  1  0
  9 38  1  0
 10 11  1  0
 10 12  2  0
 12 13  1  0
 12 20  1  0
 13 14  1  0
 13 39  1  0
 14 19  1  0
 14 15  1  0
 14 40  1  0
 15 16  1  0
 15 41  1  0
 15 42  1  0
 16 17  1  0
 16 43  1  0
 16 44  1  0
 17 18  1  0
 17 45  1  0
 17 46  1  0
 18 19  1  0
 18 47  1  0
 18 48  1  0
 19 49  1  0
 19 50  1  0
 20 21  1  0
 20 51  1  0
 21 26  1  0
 21 22  1  0
 21 52  1  0
 22 23  1  0
 22 53  1  0
 22 54  1  0
 23 24  1  0
 23 55  1  0
 23 56  1  0
 24 25  1  0
 24 57  1  0
 24 58  1  0
 25 26  1  0
 25 59  1  0
 25 60  1  0
 26 61  1  0
 26 62  1  0
M  CHG  1  10   1
M  END
>  <DOCK_score>  (1) 
-42.951149

>  <SMILES>  (1) 
CC1(C)C(O)C[C@H]1C[NH+]=C(NC1CCCCC1)NC1CCCCC1

$$$$
