O=C1SCC[C@@H]1[NH+]=C(NC1C=CCC1)NC1CCC=C(CC2CC=CC2)CC1
     RDKit          3D

 62 65  0  0  1  0  0  0  0  0999 V2000
  126.5455  135.4950  161.1456 O   0  0  0  0  0  0  0  0  0  0  0  0
  126.6463  134.4202  160.5917 C   0  0  0  0  0  0  0  0  0  0  0  0
  125.6181  133.0659  160.8342 S   0  0  0  0  0  0  0  0  0  0  0  0
  126.4567  131.9185  159.6985 C   0  0  0  0  0  0  0  0  0  0  0  0
  127.8563  132.5303  159.5005 C   0  0  0  0  0  0  0  0  0  0  0  0
  127.6927  134.0493  159.5763 C   0  0  2  0  0  0  0  0  0  0  0  0
  127.3942  134.4266  158.5983 H   0  0  0  0  0  0  0  0  0  0  0  0
  128.9714  134.6542  159.9574 N   0  0  0  0  0  0  0  0  0  0  0  0
  129.0319  135.1950  160.7603 H   0  0  0  0  0  0  0  0  0  0  0  0
  130.0277  134.4657  159.2175 C   0  0  0  0  0  0  0  0  0  0  0  0
  129.9420  133.6991  158.0794 N   0  0  0  0  0  0  0  0  0  0  0  0
  131.1083  132.9435  157.6156 C   0  0  2  0  0  0  0  0  0  0  0  0
  130.7439  132.0948  156.4196 C   0  0  0  0  0  0  0  0  0  0  0  0
  130.5838  130.8436  156.7655 C   0  0  0  0  0  0  0  0  0  0  0  0
  130.8159  130.6533  158.2464 C   0  0  0  0  0  0  0  0  0  0  0  0
  131.5595  131.9327  158.6953 C   0  0  0  0  0  0  0  0  0  0  0  0
  131.2278  135.0335  159.5751 N   0  0  0  0  0  0  0  0  0  0  0  0
  131.5367  135.2641  160.9884 C   0  0  1  0  0  0  0  0  0  0  0  0
  133.0277  135.0674  161.1980 C   0  0  0  0  0  0  0  0  0  0  0  0
  133.3764  135.1115  162.6873 C   0  0  0  0  0  0  0  0  0  0  0  0
  133.5826  136.5552  163.0929 C   0  0  0  0  0  0  0  0  0  0  0  0
  132.5724  137.3608  163.1827 C   0  0  0  0  0  0  0  0  0  0  0  0
  132.7915  138.7955  163.5884 C   0  0  0  0  0  0  0  0  0  0  0  0
  133.0344  139.6469  162.3407 C   0  0  0  0  0  0  0  0  0  0  0  0
  134.3835  139.2872  161.6761 C   0  0  0  0  0  0  0  0  0  0  0  0
  134.9328  140.6060  161.1838 C   0  0  0  0  0  0  0  0  0  0  0  0
  134.3223  141.6106  161.7511 C   0  0  0  0  0  0  0  0  0  0  0  0
  133.2640  141.1292  162.7164 C   0  0  0  0  0  0  0  0  0  0  0  0
  131.1720  136.8672  162.8883 C   0  0  0  0  0  0  0  0  0  0  0  0
  131.0452  136.6483  161.3733 C   0  0  0  0  0  0  0  0  0  0  0  0
  126.5340  130.9277  160.1464 H   0  0  0  0  0  0  0  0  0  0  0  0
  125.9243  131.8654  158.7488 H   0  0  0  0  0  0  0  0  0  0  0  0
  128.2520  132.2467  158.5252 H   0  0  0  0  0  0  0  0  0  0  0  0
  128.5270  132.1882  160.2886 H   0  0  0  0  0  0  0  0  0  0  0  0
  129.1093  133.6585  157.5836 H   0  0  0  0  0  0  0  0  0  0  0  0
  131.9242  133.6216  157.3656 H   0  0  0  0  0  0  0  0  0  0  0  0
  130.6307  132.4726  155.4143 H   0  0  0  0  0  0  0  0  0  0  0  0
  130.3204  130.0503  156.0816 H   0  0  0  0  0  0  0  0  0  0  0  0
  131.4337  129.7730  158.4240 H   0  0  0  0  0  0  0  0  0  0  0  0
  129.8648  130.5629  158.7714 H   0  0  0  0  0  0  0  0  0  0  0  0
  132.6394  131.7875  158.6684 H   0  0  0  0  0  0  0  0  0  0  0  0
  131.2339  132.2478  159.6867 H   0  0  0  0  0  0  0  0  0  0  0  0
  131.8698  135.2814  158.8915 H   0  0  0  0  0  0  0  0  0  0  0  0
  131.0005  134.5256  161.5844 H   0  0  0  0  0  0  0  0  0  0  0  0
  133.5703  135.8575  160.6788 H   0  0  0  0  0  0  0  0  0  0  0  0
  133.3225  134.1010  160.7888 H   0  0  0  0  0  0  0  0  0  0  0  0
  134.2918  134.5471  162.8656 H   0  0  0  0  0  0  0  0  0  0  0  0
  132.5617  134.6807  163.2695 H   0  0  0  0  0  0  0  0  0  0  0  0
  134.5776  136.9156  163.3089 H   0  0  0  0  0  0  0  0  0  0  0  0
  133.6585  138.8587  164.2458 H   0  0  0  0  0  0  0  0  0  0  0  0
  131.9099  139.1632  164.1134 H   0  0  0  0  0  0  0  0  0  0  0  0
  132.2107  139.5455  161.6340 H   0  0  0  0  0  0  0  0  0  0  0  0
  134.2251  138.6060  160.8400 H   0  0  0  0  0  0  0  0  0  0  0  0
  135.0599  138.8429  162.4062 H   0  0  0  0  0  0  0  0  0  0  0  0
  135.7236  140.7044  160.4548 H   0  0  0  0  0  0  0  0  0  0  0  0
  134.5447  142.6493  161.5565 H   0  0  0  0  0  0  0  0  0  0  0  0
  133.6215  141.2098  163.7429 H   0  0  0  0  0  0  0  0  0  0  0  0
  132.3454  141.7019  162.5889 H   0  0  0  0  0  0  0  0  0  0  0  0
  130.9978  135.9270  163.4114 H   0  0  0  0  0  0  0  0  0  0  0  0
  130.4455  137.6111  163.2157 H   0  0  0  0  0  0  0  0  0  0  0  0
  131.6382  137.3981  160.8497 H   0  0  0  0  0  0  0  0  0  0  0  0
  129.9995  136.7513  161.0833 H   0  0  0  0  0  0  0  0  0  0  0  0
  1  2  2  0
  2  6  1  0
  2  3  1  0
  3  4  1  0
  4  5  1  0
  4 31  1  0
  4 32  1  0
  5  6  1  0
  5 33  1  0
  5 34  1  0
  6  7  1  6
  6  8  1  0
  8  9  1  0
 10  8  2  0
 10 11  1  0
 10 17  1  0
 11 12  1  0
 11 35  1  0
 12 16  1  0
 12 13  1  0
 12 36  1  6
 13 14  2  0
 13 37  1  0
 14 15  1  0
 14 38  1  0
 15 16  1  0
 15 39  1  0
 15 40  1  0
 16 41  1  0
 16 42  1  0
 17 18  1  0
 17 43  1  0
 18 30  1  0
 18 19  1  0
 18 44  1  1
 19 20  1  0
 19 45  1  0
 19 46  1  0
 20 21  1  0
 20 47  1  0
 20 48  1  0
 21 22  2  0
 21 49  1  0
 22 23  1  0
 22 29  1  0
 23 24  1  0
 23 50  1  0
 23 51  1  0
 24 28  1  0
 24 25  1  0
 24 52  1  0
 25 26  1  0
 25 53  1  0
 25 54  1  0
 26 27  2  0
 26 55  1  0
 27 28  1  0
 27 56  1  0
 28 57  1  0
 28 58  1  0
 29 30  1  0
 29 59  1  0
 29 60  1  0
 30 61  1  0
 30 62  1  0
M  CHG  1   8   1
M  END
>  <DOCK_score>  (1) 
-43.985466

>  <SMILES>  (1) 
O=C1SCC[C@@H]1[NH+]=C(NC1C=CCC1)NC1CCC=C(CC2CC=CC2)CC1

$$$$
