O=C1CC[C@H](NC(NC2CC=CC2)=[NH+]Cc2ccccc2F)CN1
     RDKit          3D

 48 50  0  0  1  0  0  0  0  0999 V2000
  123.6627  133.6988  161.4774 O   0  0  0  0  0  0  0  0  0  0  0  0
  124.8430  133.8934  161.2775 C   0  0  0  0  0  0  0  0  0  0  0  0
  125.6920  132.7315  160.8477 C   0  0  0  0  0  0  0  0  0  0  0  0
  127.1711  133.0571  161.0696 C   0  0  0  0  0  0  0  0  0  0  0  0
  127.4587  134.4384  160.4693 C   0  0  2  0  0  0  0  0  0  0  0  0
  127.1115  134.4678  159.4365 H   0  0  0  0  0  0  0  0  0  0  0  0
  128.8991  134.7025  160.5114 N   0  0  0  0  0  0  0  0  0  0  0  0
  129.6969  134.3333  159.4544 C   0  0  0  0  0  0  0  0  0  0  0  0
  131.0486  134.5811  159.4940 N   0  0  0  0  0  0  0  0  0  0  0  0
  131.6387  135.2388  160.6625 C   0  0  0  0  0  0  0  0  0  0  0  0
  132.9878  135.9035  160.3030 C   0  0  0  0  0  0  0  0  0  0  0  0
  133.8591  135.6846  161.5187 C   0  0  0  0  0  0  0  0  0  0  0  0
  133.3640  134.7564  162.2912 C   0  0  0  0  0  0  0  0  0  0  0  0
  132.0805  134.2005  161.7199 C   0  0  0  0  0  0  0  0  0  0  0  0
  129.1719  133.7479  158.4149 N   0  0  0  0  0  0  0  0  0  0  0  0
  128.3832  133.1925  158.5178 H   0  0  0  0  0  0  0  0  0  0  0  0
  129.7727  133.9289  157.0911 C   0  0  0  0  0  0  0  0  0  0  0  0
  130.1965  132.5899  156.5445 C   0  0  0  0  0  0  0  0  0  0  0  0
  129.9148  132.2582  155.2325 C   0  0  0  0  0  0  0  0  0  0  0  0
  130.3038  131.0304  154.7309 C   0  0  0  0  0  0  0  0  0  0  0  0
  130.9743  130.1324  155.5406 C   0  0  0  0  0  0  0  0  0  0  0  0
  131.2577  130.4623  156.8523 C   0  0  0  0  0  0  0  0  0  0  0  0
  130.8689  131.6922  157.3558 C   0  0  0  0  0  0  0  0  0  0  0  0
  131.1447  132.0154  158.6382 F   0  0  0  0  0  0  0  0  0  0  0  0
  126.7194  135.4938  161.2928 C   0  0  0  0  0  0  0  0  0  0  0  0
  125.3176  135.1274  161.4513 N   0  0  0  0  0  0  0  0  0  0  0  0
  125.5205  132.5292  159.7905 H   0  0  0  0  0  0  0  0  0  0  0  0
  125.4234  131.8513  161.4318 H   0  0  0  0  0  0  0  0  0  0  0  0
  127.7898  132.3069  160.5772 H   0  0  0  0  0  0  0  0  0  0  0  0
  127.3880  133.0687  162.1378 H   0  0  0  0  0  0  0  0  0  0  0  0
  129.2899  135.1380  161.2851 H   0  0  0  0  0  0  0  0  0  0  0  0
  131.6115  134.3205  158.7484 H   0  0  0  0  0  0  0  0  0  0  0  0
  130.9472  135.9641  161.0914 H   0  0  0  0  0  0  0  0  0  0  0  0
  133.4273  135.4221  159.4293 H   0  0  0  0  0  0  0  0  0  0  0  0
  132.8494  136.9693  160.1210 H   0  0  0  0  0  0  0  0  0  0  0  0
  134.7716  136.2258  161.7214 H   0  0  0  0  0  0  0  0  0  0  0  0
  133.8130  134.4285  163.2171 H   0  0  0  0  0  0  0  0  0  0  0  0
  131.3254  134.1090  162.5007 H   0  0  0  0  0  0  0  0  0  0  0  0
  132.2593  133.2332  161.2505 H   0  0  0  0  0  0  0  0  0  0  0  0
  130.6430  134.5799  157.1729 H   0  0  0  0  0  0  0  0  0  0  0  0
  129.0427  134.3809  156.4196 H   0  0  0  0  0  0  0  0  0  0  0  0
  129.3909  132.9587  154.5992 H   0  0  0  0  0  0  0  0  0  0  0  0
  130.0834  130.7720  153.7056 H   0  0  0  0  0  0  0  0  0  0  0  0
  131.2779  129.1734  155.1476 H   0  0  0  0  0  0  0  0  0  0  0  0
  131.7781  129.7592  157.4856 H   0  0  0  0  0  0  0  0  0  0  0  0
  127.1840  135.5744  162.2756 H   0  0  0  0  0  0  0  0  0  0  0  0
  126.7851  136.4569  160.7867 H   0  0  0  0  0  0  0  0  0  0  0  0
  124.6905  135.8249  161.6987 H   0  0  0  0  0  0  0  0  0  0  0  0
  1  2  2  0
  2 26  1  0
  2  3  1  0
  3  4  1  0
  3 27  1  0
  3 28  1  0
  4  5  1  0
  4 29  1  0
  4 30  1  0
  5  6  1  6
  5  7  1  0
  5 25  1  0
  7 31  1  0
  8  7  1  0
  8  9  1  0
  8 15  2  0
  9 10  1  0
  9 32  1  0
 10 14  1  0
 10 11  1  0
 10 33  1  0
 11 12  1  0
 11 34  1  0
 11 35  1  0
 12 13  2  0
 12 36  1  0
 13 14  1  0
 13 37  1  0
 14 38  1  0
 14 39  1  0
 15 16  1  0
 15 17  1  0
 17 18  1  0
 17 40  1  0
 17 41  1  0
 18 23  1  0
 18 19  2  0
 19 20  1  0
 19 42  1  0
 20 21  2  0
 20 43  1  0
 21 22  1  0
 21 44  1  0
 22 23  2  0
 22 45  1  0
 23 24  1  0
 25 26  1  0
 25 46  1  0
 25 47  1  0
 26 48  1  0
M  CHG  1  15   1
M  END
>  <DOCK_score>  (1) 
-48.717731

>  <SMILES>  (1) 
O=C1CC[C@H](NC(NC2CC=CC2)=[NH+]Cc2ccccc2F)CN1

$$$$
