CCc1ccc(CCSc2ccc(N)cc2Nc2[nH]cc(-c3ccc(N)cc3)[nH+]2)cc1
     RDKit          3D

 59 62  0  0  1  0  0  0  0  0999 V2000
  137.2113  135.5380  167.7064 C   0  0  0  0  0  0  0  0  0  0  0  0
  135.7343  135.1645  167.5661 C   0  0  0  0  0  0  0  0  0  0  0  0
  135.2218  135.6358  166.2294 C   0  0  0  0  0  0  0  0  0  0  0  0
  135.2980  134.8044  165.1277 C   0  0  0  0  0  0  0  0  0  0  0  0
  134.8285  135.2368  163.9017 C   0  0  0  0  0  0  0  0  0  0  0  0
  134.2827  136.5008  163.7773 C   0  0  0  0  0  0  0  0  0  0  0  0
  133.7711  136.9725  162.4405 C   0  0  0  0  0  0  0  0  0  0  0  0
  132.2922  136.6056  162.3020 C   0  0  0  0  0  0  0  0  0  0  0  0
  131.6765  137.1733  160.6929 S   0  0  0  0  0  0  0  0  0  0  0  0
  129.9878  136.6707  160.7150 C   0  0  0  0  0  0  0  0  0  0  0  0
  129.1331  137.1522  161.6955 C   0  0  0  0  0  0  0  0  0  0  0  0
  127.8095  136.7541  161.7165 C   0  0  0  0  0  0  0  0  0  0  0  0
  127.3305  135.8750  160.7541 C   0  0  0  0  0  0  0  0  0  0  0  0
  125.9898  135.4734  160.7791 N   0  0  0  0  0  0  0  0  0  0  0  0
  128.1804  135.3938  159.7675 C   0  0  0  0  0  0  0  0  0  0  0  0
  129.5083  135.7916  159.7438 C   0  0  0  0  0  0  0  0  0  0  0  0
  130.3680  135.3075  158.7501 N   0  0  0  0  0  0  0  0  0  0  0  0
  130.1547  134.0544  158.2001 C   0  0  0  0  0  0  0  0  0  0  0  0
  129.5853  132.9952  158.8376 N   0  0  0  0  0  0  0  0  0  0  0  0
  129.2593  132.9818  159.7511 H   0  0  0  0  0  0  0  0  0  0  0  0
  129.5582  131.9479  157.9479 C   0  0  0  0  0  0  0  0  0  0  0  0
  130.1113  132.3975  156.7942 C   0  0  0  0  0  0  0  0  0  0  0  0
  130.2944  131.6111  155.5496 C   0  0  0  0  0  0  0  0  0  0  0  0
  129.6837  132.0245  154.3666 C   0  0  0  0  0  0  0  0  0  0  0  0
  129.8595  131.2949  153.2098 C   0  0  0  0  0  0  0  0  0  0  0  0
  130.6352  130.1423  153.2249 C   0  0  0  0  0  0  0  0  0  0  0  0
  130.8071  129.4019  152.0530 N   0  0  0  0  0  0  0  0  0  0  0  0
  131.2410  129.7250  154.4047 C   0  0  0  0  0  0  0  0  0  0  0  0
  131.0725  130.4547  155.5627 C   0  0  0  0  0  0  0  0  0  0  0  0
  130.4628  133.6944  156.9777 N   0  0  0  0  0  0  0  0  0  0  0  0
  130.8779  134.2642  156.3114 H   0  0  0  0  0  0  0  0  0  0  0  0
  134.2112  137.3342  164.8777 C   0  0  0  0  0  0  0  0  0  0  0  0
  134.6760  136.8997  166.1050 C   0  0  0  0  0  0  0  0  0  0  0  0
  137.5819  135.1971  168.6732 H   0  0  0  0  0  0  0  0  0  0  0  0
  137.7835  135.0626  166.9098 H   0  0  0  0  0  0  0  0  0  0  0  0
  137.3207  136.6201  167.6365 H   0  0  0  0  0  0  0  0  0  0  0  0
  135.1620  135.6398  168.3627 H   0  0  0  0  0  0  0  0  0  0  0  0
  135.6248  134.0822  167.6360 H   0  0  0  0  0  0  0  0  0  0  0  0
  135.7249  133.8170  165.2249 H   0  0  0  0  0  0  0  0  0  0  0  0
  134.8884  134.5873  163.0409 H   0  0  0  0  0  0  0  0  0  0  0  0
  134.3404  136.4933  161.6440 H   0  0  0  0  0  0  0  0  0  0  0  0
  133.8855  138.0540  162.3687 H   0  0  0  0  0  0  0  0  0  0  0  0
  131.7229  137.0848  163.0985 H   0  0  0  0  0  0  0  0  0  0  0  0
  132.1779  135.5240  162.3737 H   0  0  0  0  0  0  0  0  0  0  0  0
  129.5030  137.8354  162.4456 H   0  0  0  0  0  0  0  0  0  0  0  0
  127.1466  137.1274  162.4831 H   0  0  0  0  0  0  0  0  0  0  0  0
  125.6548  134.8592  160.1072 H   0  0  0  0  0  0  0  0  0  0  0  0
  125.3955  135.8095  161.4683 H   0  0  0  0  0  0  0  0  0  0  0  0
  127.8074  134.7103  159.0189 H   0  0  0  0  0  0  0  0  0  0  0  0
  131.1130  135.8497  158.4469 H   0  0  0  0  0  0  0  0  0  0  0  0
  129.1704  130.9570  158.1323 H   0  0  0  0  0  0  0  0  0  0  0  0
  129.0767  132.9177  154.3552 H   0  0  0  0  0  0  0  0  0  0  0  0
  129.3899  131.6169  152.2921 H   0  0  0  0  0  0  0  0  0  0  0  0
  131.3490  128.5965  152.0634 H   0  0  0  0  0  0  0  0  0  0  0  0
  130.3852  129.6914  151.2298 H   0  0  0  0  0  0  0  0  0  0  0  0
  131.8436  128.8287  154.4146 H   0  0  0  0  0  0  0  0  0  0  0  0
  131.5435  130.1305  156.4790 H   0  0  0  0  0  0  0  0  0  0  0  0
  133.7888  138.3234  164.7797 H   0  0  0  0  0  0  0  0  0  0  0  0
  134.6169  137.5495  166.9657 H   0  0  0  0  0  0  0  0  0  0  0  0
  1  2  1  0
  1 34  1  0
  1 35  1  0
  1 36  1  0
  2  3  1  0
  2 37  1  0
  2 38  1  0
  3 33  2  0
  3  4  1  0
  4  5  2  0
  4 39  1  0
  5  6  1  0
  5 40  1  0
  6  7  1  0
  6 32  2  0
  7  8  1  0
  7 41  1  0
  7 42  1  0
  8  9  1  0
  8 43  1  0
  8 44  1  0
  9 10  1  0
 10 16  1  0
 10 11  2  0
 11 12  1  0
 11 45  1  0
 12 13  2  0
 12 46  1  0
 13 14  1  0
 13 15  1  0
 14 47  1  0
 14 48  1  0
 15 16  2  0
 15 49  1  0
 16 17  1  0
 17 50  1  0
 18 17  1  0
 18 30  2  0
 18 19  1  0
 19 20  1  0
 19 21  1  0
 21 22  2  0
 21 51  1  0
 22 23  1  0
 22 30  1  0
 23 29  1  0
 23 24  2  0
 24 25  1  0
 24 52  1  0
 25 26  2  0
 25 53  1  0
 26 27  1  0
 26 28  1  0
 27 54  1  0
 27 55  1  0
 28 29  2  0
 28 56  1  0
 29 57  1  0
 30 31  1  0
 32 33  1  0
 32 58  1  0
 33 59  1  0
M  CHG  1  30   1
M  END
>  <DOCK_score>  (1) 
-58.065536

>  <SMILES>  (1) 
CCc1ccc(CCSc2ccc(N)cc2Nc2[nH]cc(-c3ccc(N)cc3)[nH+]2)cc1

$$$$
