CCc1ccc(-c2c[nH]c(NC[C@H](c3ccnn3C)N3CC=CC3)[nH+]2)cc1
     RDKit          3D

 54 57  0  0  1  0  0  0  0  0999 V2000
  130.2908  128.5255  151.7874 C   0  0  0  0  0  0  0  0  0  0  0  0
  131.4016  129.5209  152.1275 C   0  0  0  0  0  0  0  0  0  0  0  0
  131.0275  130.2853  153.3712 C   0  0  0  0  0  0  0  0  0  0  0  0
  131.3967  129.8033  154.6133 C   0  0  0  0  0  0  0  0  0  0  0  0
  131.0612  130.5016  155.7554 C   0  0  0  0  0  0  0  0  0  0  0  0
  130.3397  131.6899  155.6557 C   0  0  0  0  0  0  0  0  0  0  0  0
  129.9719  132.4425  156.8799 C   0  0  0  0  0  0  0  0  0  0  0  0
  129.2060  131.9821  157.8998 C   0  0  0  0  0  0  0  0  0  0  0  0
  129.1204  132.9956  158.8231 N   0  0  0  0  0  0  0  0  0  0  0  0
  128.6400  132.9664  159.6653 H   0  0  0  0  0  0  0  0  0  0  0  0
  129.8300  134.0497  158.3359 C   0  0  0  0  0  0  0  0  0  0  0  0
  129.9892  135.2735  158.9633 N   0  0  0  0  0  0  0  0  0  0  0  0
  129.3641  135.5157  160.2659 C   0  0  0  0  0  0  0  0  0  0  0  0
  130.3309  135.1077  161.3793 C   0  0  2  0  0  0  0  0  0  0  0  0
  131.0648  135.8991  161.5314 H   0  0  0  0  0  0  0  0  0  0  0  0
  131.0377  133.8352  160.9894 C   0  0  0  0  0  0  0  0  0  0  0  0
  130.6195  132.5762  161.2567 C   0  0  0  0  0  0  0  0  0  0  0  0
  131.5585  131.6881  160.7219 C   0  0  0  0  0  0  0  0  0  0  0  0
  132.5104  132.3889  160.1607 N   0  0  0  0  0  0  0  0  0  0  0  0
  132.2041  133.7469  160.3166 N   0  0  0  0  0  0  0  0  0  0  0  0
  133.0084  134.8726  159.8347 C   0  0  0  0  0  0  0  0  0  0  0  0
  129.5809  134.8898  162.6235 N   0  0  0  0  0  0  0  0  0  0  0  0
  130.4988  134.6415  163.7605 C   0  0  0  0  0  0  0  0  0  0  0  0
  129.8365  135.2839  164.9574 C   0  0  0  0  0  0  0  0  0  0  0  0
  128.9161  136.1215  164.5492 C   0  0  0  0  0  0  0  0  0  0  0  0
  128.8709  136.1230  163.0387 C   0  0  0  0  0  0  0  0  0  0  0  0
  130.3373  133.7154  157.1746 N   0  0  0  0  0  0  0  0  0  0  0  0
  130.8866  134.2868  156.6153 H   0  0  0  0  0  0  0  0  0  0  0  0
  129.9656  132.1687  154.4014 C   0  0  0  0  0  0  0  0  0  0  0  0
  130.3109  131.4646  153.2657 C   0  0  0  0  0  0  0  0  0  0  0  0
  130.5613  127.9726  150.8878 H   0  0  0  0  0  0  0  0  0  0  0  0
  130.1611  127.8296  152.6163 H   0  0  0  0  0  0  0  0  0  0  0  0
  129.3590  129.0644  151.6163 H   0  0  0  0  0  0  0  0  0  0  0  0
  132.3331  128.9826  152.2982 H   0  0  0  0  0  0  0  0  0  0  0  0
  131.5311  130.2175  151.2981 H   0  0  0  0  0  0  0  0  0  0  0  0
  131.9525  128.8804  154.6896 H   0  0  0  0  0  0  0  0  0  0  0  0
  131.3539  130.1261  156.7248 H   0  0  0  0  0  0  0  0  0  0  0  0
  128.7524  131.0047  157.9733 H   0  0  0  0  0  0  0  0  0  0  0  0
  130.5144  135.9706  158.5402 H   0  0  0  0  0  0  0  0  0  0  0  0
  129.1245  136.5747  160.3627 H   0  0  0  0  0  0  0  0  0  0  0  0
  128.4497  134.9276  160.3451 H   0  0  0  0  0  0  0  0  0  0  0  0
  129.7188  132.3051  161.7872 H   0  0  0  0  0  0  0  0  0  0  0  0
  131.5084  130.6104  160.7676 H   0  0  0  0  0  0  0  0  0  0  0  0
  133.7884  135.0992  160.5614 H   0  0  0  0  0  0  0  0  0  0  0  0
  133.4657  134.6103  158.8806 H   0  0  0  0  0  0  0  0  0  0  0  0
  132.3692  135.7458  159.7033 H   0  0  0  0  0  0  0  0  0  0  0  0
  130.6164  133.5703  163.9239 H   0  0  0  0  0  0  0  0  0  0  0  0
  131.4676  135.1040  163.5717 H   0  0  0  0  0  0  0  0  0  0  0  0
  130.0834  135.0831  165.9893 H   0  0  0  0  0  0  0  0  0  0  0  0
  128.2869  136.7187  165.1925 H   0  0  0  0  0  0  0  0  0  0  0  0
  129.3813  137.0027  162.6466 H   0  0  0  0  0  0  0  0  0  0  0  0
  127.8379  136.0989  162.6919 H   0  0  0  0  0  0  0  0  0  0  0  0
  129.4063  133.0888  154.3183 H   0  0  0  0  0  0  0  0  0  0  0  0
  130.0215  131.8347  152.2933 H   0  0  0  0  0  0  0  0  0  0  0  0
  1  2  1  0
  1 31  1  0
  1 32  1  0
  1 33  1  0
  2  3  1  0
  2 34  1  0
  2 35  1  0
  3 30  2  0
  3  4  1  0
  4  5  2  0
  4 36  1  0
  5  6  1  0
  5 37  1  0
  6  7  1  0
  6 29  2  0
  7 27  1  0
  7  8  2  0
  8  9  1  0
  8 38  1  0
  9 10  1  0
  9 11  1  0
 11 12  1  0
 11 27  2  0
 12 13  1  0
 12 39  1  0
 13 14  1  0
 13 40  1  0
 13 41  1  0
 14 15  1  1
 14 16  1  0
 14 22  1  0
 16 20  1  0
 16 17  2  0
 17 18  1  0
 17 42  1  0
 18 19  2  0
 18 43  1  0
 19 20  1  0
 20 21  1  0
 21 44  1  0
 21 45  1  0
 21 46  1  0
 22 26  1  0
 22 23  1  0
 23 24  1  0
 23 47  1  0
 23 48  1  0
 24 25  2  0
 24 49  1  0
 25 26  1  0
 25 50  1  0
 26 51  1  0
 26 52  1  0
 27 28  1  0
 29 30  1  0
 29 53  1  0
 30 54  1  0
M  CHG  1  27   1
M  END
>  <DOCK_score>  (1) 
-56.632164

>  <SMILES>  (1) 
CCc1ccc(-c2c[nH]c(NC[C@H](c3ccnn3C)N3CC=CC3)[nH+]2)cc1

$$$$
