O=C(N[C@H](c1ccccc1)c1cccc(-c2ccccc2)c1)[C@@H]1CC[C@@H](c2ccccc2)[NH2+]1
     RDKit          3D

 62 66  0  0  1  0  0  0  0  0999 V2000
  129.2519  136.3984  159.5017 O   0  0  0  0  0  0  0  0  0  0  0  0
  130.2447  135.8733  159.9595 C   0  0  0  0  0  0  0  0  0  0  0  0
  130.4639  134.5584  159.7613 N   0  0  0  0  0  0  0  0  0  0  0  0
  129.5028  133.7633  158.9928 C   0  0  2  0  0  0  0  0  0  0  0  0
  129.0425  134.3892  158.2283 H   0  0  0  0  0  0  0  0  0  0  0  0
  128.4370  133.2329  159.9168 C   0  0  0  0  0  0  0  0  0  0  0  0
  127.1587  133.0087  159.4408 C   0  0  0  0  0  0  0  0  0  0  0  0
  126.1797  132.5272  160.2897 C   0  0  0  0  0  0  0  0  0  0  0  0
  126.4816  132.2605  161.6120 C   0  0  0  0  0  0  0  0  0  0  0  0
  127.7610  132.4805  162.0869 C   0  0  0  0  0  0  0  0  0  0  0  0
  128.7388  132.9666  161.2392 C   0  0  0  0  0  0  0  0  0  0  0  0
  130.2167  132.6104  158.3352 C   0  0  0  0  0  0  0  0  0  0  0  0
  130.8801  131.6764  159.1106 C   0  0  0  0  0  0  0  0  0  0  0  0
  131.5332  130.6132  158.5140 C   0  0  0  0  0  0  0  0  0  0  0  0
  131.5352  130.4847  157.1396 C   0  0  0  0  0  0  0  0  0  0  0  0
  130.8732  131.4252  156.3536 C   0  0  0  0  0  0  0  0  0  0  0  0
  130.8715  131.2920  154.8757 C   0  0  0  0  0  0  0  0  0  0  0  0
  130.7961  132.4272  154.0713 C   0  0  0  0  0  0  0  0  0  0  0  0
  130.8011  132.2978  152.6972 C   0  0  0  0  0  0  0  0  0  0  0  0
  130.8689  131.0432  152.1184 C   0  0  0  0  0  0  0  0  0  0  0  0
  130.9376  129.9125  152.9122 C   0  0  0  0  0  0  0  0  0  0  0  0
  130.9396  130.0308  154.2873 C   0  0  0  0  0  0  0  0  0  0  0  0
  130.2123  132.4915  156.9604 C   0  0  0  0  0  0  0  0  0  0  0  0
  131.2333  136.6912  160.7500 C   0  0  2  0  0  0  0  0  0  0  0  0
  131.7237  136.0629  161.4935 H   0  0  0  0  0  0  0  0  0  0  0  0
  130.5086  137.8636  161.4441 C   0  0  0  0  0  0  0  0  0  0  0  0
  131.5271  139.0271  161.3194 C   0  0  0  0  0  0  0  0  0  0  0  0
  132.1523  138.7481  159.9297 C   0  0  1  0  0  0  0  0  0  0  0  0
  131.5098  139.1367  159.1396 H   0  0  0  0  0  0  0  0  0  0  0  0
  133.5260  139.3612  159.8398 C   0  0  0  0  0  0  0  0  0  0  0  0
  134.4929  138.7766  159.0435 C   0  0  0  0  0  0  0  0  0  0  0  0
  135.7514  139.3420  158.9568 C   0  0  0  0  0  0  0  0  0  0  0  0
  136.0461  140.4858  159.6750 C   0  0  0  0  0  0  0  0  0  0  0  0
  135.0808  141.0672  160.4758 C   0  0  0  0  0  0  0  0  0  0  0  0
  133.8207  140.5050  160.5580 C   0  0  0  0  0  0  0  0  0  0  0  0
  132.2396  137.2747  159.8440 N   0  0  0  0  0  0  0  0  0  0  0  0
  133.1616  136.9726  160.1208 H   0  0  0  0  0  0  0  0  0  0  0  0
  132.0551  136.9801  158.8968 H   0  0  0  0  0  0  0  0  0  0  0  0
  131.2579  134.1383  160.1274 H   0  0  0  0  0  0  0  0  0  0  0  0
  126.9240  133.2129  158.4066 H   0  0  0  0  0  0  0  0  0  0  0  0
  125.1801  132.3551  159.9188 H   0  0  0  0  0  0  0  0  0  0  0  0
  125.7177  131.8803  162.2743 H   0  0  0  0  0  0  0  0  0  0  0  0
  127.9968  132.2724  163.1201 H   0  0  0  0  0  0  0  0  0  0  0  0
  129.7384  133.1385  161.6102 H   0  0  0  0  0  0  0  0  0  0  0  0
  130.8848  131.7757  160.1861 H   0  0  0  0  0  0  0  0  0  0  0  0
  132.0463  129.8848  159.1244 H   0  0  0  0  0  0  0  0  0  0  0  0
  132.0493  129.6565  156.6745 H   0  0  0  0  0  0  0  0  0  0  0  0
  130.7386  133.4069  154.5222 H   0  0  0  0  0  0  0  0  0  0  0  0
  130.7476  133.1773  152.0728 H   0  0  0  0  0  0  0  0  0  0  0  0
  130.8676  130.9463  151.0428 H   0  0  0  0  0  0  0  0  0  0  0  0
  130.9904  128.9354  152.4551 H   0  0  0  0  0  0  0  0  0  0  0  0
  130.9933  129.1472  154.9061 H   0  0  0  0  0  0  0  0  0  0  0  0
  129.6973  133.2234  156.3558 H   0  0  0  0  0  0  0  0  0  0  0  0
  129.5815  138.1055  160.9245 H   0  0  0  0  0  0  0  0  0  0  0  0
  130.3152  137.6313  162.4915 H   0  0  0  0  0  0  0  0  0  0  0  0
  132.2810  138.9721  162.1049 H   0  0  0  0  0  0  0  0  0  0  0  0
  131.0215  139.9926  161.3333 H   0  0  0  0  0  0  0  0  0  0  0  0
  134.2640  137.8804  158.4858 H   0  0  0  0  0  0  0  0  0  0  0  0
  136.5054  138.8880  158.3310 H   0  0  0  0  0  0  0  0  0  0  0  0
  137.0305  140.9254  159.6101 H   0  0  0  0  0  0  0  0  0  0  0  0
  135.3112  141.9609  161.0368 H   0  0  0  0  0  0  0  0  0  0  0  0
  133.0665  140.9592  161.1834 H   0  0  0  0  0  0  0  0  0  0  0  0
  1  2  2  0
  2  3  1  0
  2 24  1  0
  3  4  1  0
  3 39  1  0
  4  5  1  6
  4  6  1  0
  4 12  1  0
  6 11  1  0
  6  7  2  0
  7  8  1  0
  7 40  1  0
  8  9  2  0
  8 41  1  0
  9 10  1  0
  9 42  1  0
 10 11  2  0
 10 43  1  0
 11 44  1  0
 12 23  1  0
 12 13  2  0
 13 14  1  0
 13 45  1  0
 14 15  2  0
 14 46  1  0
 15 16  1  0
 15 47  1  0
 16 17  1  0
 16 23  2  0
 17 22  1  0
 17 18  2  0
 18 19  1  0
 18 48  1  0
 19 20  2  0
 19 49  1  0
 20 21  1  0
 20 50  1  0
 21 22  2  0
 21 51  1  0
 22 52  1  0
 23 53  1  0
 24 25  1  1
 24 36  1  0
 24 26  1  0
 26 27  1  0
 26 54  1  0
 26 55  1  0
 27 28  1  0
 27 56  1  0
 27 57  1  0
 28 29  1  6
 28 30  1  0
 28 36  1  0
 30 35  1  0
 30 31  2  0
 31 32  1  0
 31 58  1  0
 32 33  2  0
 32 59  1  0
 33 34  1  0
 33 60  1  0
 34 35  2  0
 34 61  1  0
 35 62  1  0
 36 37  1  0
 36 38  1  0
M  CHG  1  36   1
M  END
>  <DOCK_score>  (1) 
-63.831779

>  <SMILES>  (1) 
O=C(N[C@H](c1ccccc1)c1cccc(-c2ccccc2)c1)[C@@H]1CC[C@@H](c2ccccc2)[NH2+]1

$$$$
