Clc1ccc(Nc2ccc(Nc3[nH]cc(-c4cc(Cl)c(Cl)cc4Cl)[nH+]3)cc2)cc1
     RDKit          3D

 44 47  0  0  1  0  0  0  0  0999 V2000
  127.7133  138.3733  168.0816 Cl  0  0  0  0  0  0  0  0  0  0  0  0
  127.2873  137.9748  166.4465 C   0  0  0  0  0  0  0  0  0  0  0  0
  127.5009  136.6932  165.9700 C   0  0  0  0  0  0  0  0  0  0  0  0
  127.1577  136.3718  164.6716 C   0  0  0  0  0  0  0  0  0  0  0  0
  126.6083  137.3395  163.8399 C   0  0  0  0  0  0  0  0  0  0  0  0
  126.2650  137.0185  162.5238 N   0  0  0  0  0  0  0  0  0  0  0  0
  127.2462  136.5628  161.6359 C   0  0  0  0  0  0  0  0  0  0  0  0
  126.9052  135.6850  160.6148 C   0  0  0  0  0  0  0  0  0  0  0  0
  127.8721  135.2393  159.7360 C   0  0  0  0  0  0  0  0  0  0  0  0
  129.1879  135.6603  159.8792 C   0  0  0  0  0  0  0  0  0  0  0  0
  130.1695  135.2044  158.9908 N   0  0  0  0  0  0  0  0  0  0  0  0
  130.0491  133.9538  158.4081 C   0  0  0  0  0  0  0  0  0  0  0  0
  129.4296  132.8765  158.9635 N   0  0  0  0  0  0  0  0  0  0  0  0
  128.9970  132.8466  159.8312 H   0  0  0  0  0  0  0  0  0  0  0  0
  129.5304  131.8393  158.0683 C   0  0  0  0  0  0  0  0  0  0  0  0
  130.2080  132.3121  156.9928 C   0  0  0  0  0  0  0  0  0  0  0  0
  130.5543  131.5433  155.7724 C   0  0  0  0  0  0  0  0  0  0  0  0
  130.0818  131.9565  154.5281 C   0  0  0  0  0  0  0  0  0  0  0  0
  130.4126  131.2412  153.3942 C   0  0  0  0  0  0  0  0  0  0  0  0
  129.8320  131.7596  151.8425 Cl  0  0  0  0  0  0  0  0  0  0  0  0
  131.2024  130.1068  153.4937 C   0  0  0  0  0  0  0  0  0  0  0  0
  131.6083  129.2075  152.0654 Cl  0  0  0  0  0  0  0  0  0  0  0  0
  131.6690  129.6889  154.7276 C   0  0  0  0  0  0  0  0  0  0  0  0
  131.3492  130.4013  155.8669 C   0  0  0  0  0  0  0  0  0  0  0  0
  131.9363  129.8763  157.4141 Cl  0  0  0  0  0  0  0  0  0  0  0  0
  130.5078  133.6138  157.2280 N   0  0  0  0  0  0  0  0  0  0  0  0
  130.9875  134.1989  156.6211 H   0  0  0  0  0  0  0  0  0  0  0  0
  129.5300  136.5340  160.9033 C   0  0  0  0  0  0  0  0  0  0  0  0
  128.5621  136.9839  161.7790 C   0  0  0  0  0  0  0  0  0  0  0  0
  126.4004  138.6266  164.3193 C   0  0  0  0  0  0  0  0  0  0  0  0
  126.7403  138.9408  165.6204 C   0  0  0  0  0  0  0  0  0  0  0  0
  127.9321  135.9424  166.6157 H   0  0  0  0  0  0  0  0  0  0  0  0
  127.3208  135.3703  164.3015 H   0  0  0  0  0  0  0  0  0  0  0  0
  125.3466  137.1115  162.2257 H   0  0  0  0  0  0  0  0  0  0  0  0
  125.8827  135.3544  160.5060 H   0  0  0  0  0  0  0  0  0  0  0  0
  127.6062  134.5600  158.9396 H   0  0  0  0  0  0  0  0  0  0  0  0
  130.9340  135.7644  158.7836 H   0  0  0  0  0  0  0  0  0  0  0  0
  129.1440  130.8390  158.1964 H   0  0  0  0  0  0  0  0  0  0  0  0
  129.4622  132.8376  154.4502 H   0  0  0  0  0  0  0  0  0  0  0  0
  132.2845  128.8044  154.7998 H   0  0  0  0  0  0  0  0  0  0  0  0
  130.5531  136.8609  161.0148 H   0  0  0  0  0  0  0  0  0  0  0  0
  128.8281  137.6635  162.5751 H   0  0  0  0  0  0  0  0  0  0  0  0
  125.9737  139.3811  163.6749 H   0  0  0  0  0  0  0  0  0  0  0  0
  126.5791  139.9415  165.9935 H   0  0  0  0  0  0  0  0  0  0  0  0
  1  2  1  0
  2 31  2  0
  2  3  1  0
  3  4  2  0
  3 32  1  0
  4  5  1  0
  4 33  1  0
  5  6  1  0
  5 30  2  0
  6  7  1  0
  6 34  1  0
  7 29  1  0
  7  8  2  0
  8  9  1  0
  8 35  1  0
  9 10  2  0
  9 36  1  0
 10 11  1  0
 10 28  1  0
 11 37  1  0
 12 11  1  0
 12 26  2  0
 12 13  1  0
 13 14  1  0
 13 15  1  0
 15 16  2  0
 15 38  1  0
 16 17  1  0
 16 26  1  0
 17 24  1  0
 17 18  2  0
 18 19  1  0
 18 39  1  0
 19 20  1  0
 19 21  2  0
 21 22  1  0
 21 23  1  0
 23 24  2  0
 23 40  1  0
 24 25  1  0
 26 27  1  0
 28 29  2  0
 28 41  1  0
 29 42  1  0
 30 31  1  0
 30 43  1  0
 31 44  1  0
M  CHG  1  26   1
M  END
>  <DOCK_score>  (1) 
-58.837246

>  <SMILES>  (1) 
Clc1ccc(Nc2ccc(Nc3[nH]cc(-c4cc(Cl)c(Cl)cc4Cl)[nH+]3)cc2)cc1

$$$$
