Fc1ccc(-c2c[nH]c(NC(c3ccc(F)cc3)c3ccc(F)cc3)[nH+]2)cc1
     RDKit          3D

 45 48  0  0  1  0  0  0  0  0999 V2000
  131.2184  129.4741  152.2503 F   0  0  0  0  0  0  0  0  0  0  0  0
  130.9597  130.1905  153.3661 C   0  0  0  0  0  0  0  0  0  0  0  0
  130.2246  131.3616  153.2797 C   0  0  0  0  0  0  0  0  0  0  0  0
  129.9579  132.0966  154.4166 C   0  0  0  0  0  0  0  0  0  0  0  0
  130.4289  131.6589  155.6532 C   0  0  0  0  0  0  0  0  0  0  0  0
  130.1447  132.4455  156.8785 C   0  0  0  0  0  0  0  0  0  0  0  0
  129.4651  132.0086  157.9674 C   0  0  0  0  0  0  0  0  0  0  0  0
  129.4377  133.0493  158.8643 N   0  0  0  0  0  0  0  0  0  0  0  0
  129.0247  133.0408  159.7419 H   0  0  0  0  0  0  0  0  0  0  0  0
  130.0939  134.0954  158.2924 C   0  0  0  0  0  0  0  0  0  0  0  0
  130.2871  135.3389  158.8696 N   0  0  0  0  0  0  0  0  0  0  0  0
  129.7634  135.6136  160.2099 C   0  0  0  0  0  0  0  0  0  0  0  0
  128.2663  135.4409  160.2095 C   0  0  0  0  0  0  0  0  0  0  0  0
  127.6178  135.0334  161.3604 C   0  0  0  0  0  0  0  0  0  0  0  0
  126.2448  134.8749  161.3612 C   0  0  0  0  0  0  0  0  0  0  0  0
  125.5196  135.1192  160.2072 C   0  0  0  0  0  0  0  0  0  0  0  0
  124.1781  134.9595  160.2054 F   0  0  0  0  0  0  0  0  0  0  0  0
  126.1697  135.5329  159.0568 C   0  0  0  0  0  0  0  0  0  0  0  0
  127.5425  135.6909  159.0584 C   0  0  0  0  0  0  0  0  0  0  0  0
  130.1060  137.0276  160.6029 C   0  0  0  0  0  0  0  0  0  0  0  0
  130.2950  137.3476  161.9345 C   0  0  0  0  0  0  0  0  0  0  0  0
  130.6141  138.6429  162.2957 C   0  0  0  0  0  0  0  0  0  0  0  0
  130.7335  139.6224  161.3245 C   0  0  0  0  0  0  0  0  0  0  0  0
  131.0394  140.8902  161.6770 F   0  0  0  0  0  0  0  0  0  0  0  0
  130.5388  139.3018  159.9917 C   0  0  0  0  0  0  0  0  0  0  0  0
  130.2255  138.0047  159.6323 C   0  0  0  0  0  0  0  0  0  0  0  0
  130.5179  133.7297  157.1073 N   0  0  0  0  0  0  0  0  0  0  0  0
  131.0186  134.2879  156.4921 H   0  0  0  0  0  0  0  0  0  0  0  0
  131.1726  130.4829  155.7345 C   0  0  0  0  0  0  0  0  0  0  0  0
  131.4298  129.7516  154.5930 C   0  0  0  0  0  0  0  0  0  0  0  0
  129.8600  131.7001  152.3211 H   0  0  0  0  0  0  0  0  0  0  0  0
  129.3848  133.0094  154.3485 H   0  0  0  0  0  0  0  0  0  0  0  0
  129.0328  131.0287  158.1056 H   0  0  0  0  0  0  0  0  0  0  0  0
  130.7690  136.0282  158.3864 H   0  0  0  0  0  0  0  0  0  0  0  0
  130.2089  134.9202  160.9232 H   0  0  0  0  0  0  0  0  0  0  0  0
  128.1841  134.8392  162.2592 H   0  0  0  0  0  0  0  0  0  0  0  0
  125.7384  134.5560  162.2602 H   0  0  0  0  0  0  0  0  0  0  0  0
  125.6044  135.7278  158.1574 H   0  0  0  0  0  0  0  0  0  0  0  0
  128.0503  136.0092  158.1599 H   0  0  0  0  0  0  0  0  0  0  0  0
  130.1970  136.5845  162.6924 H   0  0  0  0  0  0  0  0  0  0  0  0
  130.7653  138.8921  163.3357 H   0  0  0  0  0  0  0  0  0  0  0  0
  130.6314  140.0651  159.2333 H   0  0  0  0  0  0  0  0  0  0  0  0
  130.0736  137.7543  158.5928 H   0  0  0  0  0  0  0  0  0  0  0  0
  131.5435  130.1425  156.6900 H   0  0  0  0  0  0  0  0  0  0  0  0
  132.0026  128.8382  154.6556 H   0  0  0  0  0  0  0  0  0  0  0  0
  1  2  1  0
  2 30  2  0
  2  3  1  0
  3  4  2  0
  3 31  1  0
  4  5  1  0
  4 32  1  0
  5  6  1  0
  5 29  2  0
  6 27  1  0
  6  7  2  0
  7  8  1  0
  7 33  1  0
  8  9  1  0
  8 10  1  0
 10 11  1  0
 10 27  2  0
 11 12  1  0
 11 34  1  0
 12 13  1  0
 12 20  1  0
 12 35  1  0
 13 19  1  0
 13 14  2  0
 14 15  1  0
 14 36  1  0
 15 16  2  0
 15 37  1  0
 16 17  1  0
 16 18  1  0
 18 19  2  0
 18 38  1  0
 19 39  1  0
 20 26  1  0
 20 21  2  0
 21 22  1  0
 21 40  1  0
 22 23  2  0
 22 41  1  0
 23 24  1  0
 23 25  1  0
 25 26  2  0
 25 42  1  0
 26 43  1  0
 27 28  1  0
 29 30  1  0
 29 44  1  0
 30 45  1  0
M  CHG  1  27   1
M  END
>  <DOCK_score>  (1) 
-56.440804

>  <SMILES>  (1) 
Fc1ccc(-c2c[nH]c(NC(c3ccc(F)cc3)c3ccc(F)cc3)[nH+]2)cc1

$$$$
