FC1(F)C[C@H]1CNc1c(Cl)cc(Nc2[nH]c3ccccc3[nH+]2)cc1Cl
     RDKit          3D

 40 43  0  0  1  0  0  0  0  0999 V2000
  125.4751  137.3058  164.9131 F   0  0  0  0  0  0  0  0  0  0  0  0
  126.8394  137.5965  165.0194 C   0  0  0  0  0  0  0  0  0  0  0  0
  127.1493  138.9032  165.4117 F   0  0  0  0  0  0  0  0  0  0  0  0
  127.7654  136.4767  165.4983 C   0  0  0  0  0  0  0  0  0  0  0  0
  127.7869  136.9113  164.0315 C   0  0  1  0  0  0  0  0  0  0  0  0
  128.6518  137.4786  163.6874 H   0  0  0  0  0  0  0  0  0  0  0  0
  127.1694  135.9608  163.0038 C   0  0  0  0  0  0  0  0  0  0  0  0
  126.5993  136.7401  161.8968 N   0  0  0  0  0  0  0  0  0  0  0  0
  127.2048  136.4005  160.6799 C   0  0  0  0  0  0  0  0  0  0  0  0
  128.3309  137.0900  160.2479 C   0  0  0  0  0  0  0  0  0  0  0  0
  128.9879  138.3726  161.2159 Cl  0  0  0  0  0  0  0  0  0  0  0  0
  128.9311  136.7509  159.0502 C   0  0  0  0  0  0  0  0  0  0  0  0
  128.4023  135.7291  158.2732 C   0  0  0  0  0  0  0  0  0  0  0  0
  129.0075  135.3897  157.0560 N   0  0  0  0  0  0  0  0  0  0  0  0
  129.4946  134.1178  156.8608 C   0  0  0  0  0  0  0  0  0  0  0  0
  129.4484  133.1371  157.7601 N   0  0  0  0  0  0  0  0  0  0  0  0
  129.0700  133.2019  158.6509 H   0  0  0  0  0  0  0  0  0  0  0  0
  130.0227  132.0201  157.2132 C   0  0  0  0  0  0  0  0  0  0  0  0
  130.2470  130.7271  157.6774 C   0  0  0  0  0  0  0  0  0  0  0  0
  130.8728  129.8067  156.8649 C   0  0  0  0  0  0  0  0  0  0  0  0
  131.2812  130.1592  155.5869 C   0  0  0  0  0  0  0  0  0  0  0  0
  131.0668  131.4349  155.1117 C   0  0  0  0  0  0  0  0  0  0  0  0
  130.4361  132.3770  155.9192 C   0  0  0  0  0  0  0  0  0  0  0  0
  130.0858  133.6901  155.7471 N   0  0  0  0  0  0  0  0  0  0  0  0
  130.2415  134.2187  154.9488 H   0  0  0  0  0  0  0  0  0  0  0  0
  127.2735  135.0435  158.7019 C   0  0  0  0  0  0  0  0  0  0  0  0
  126.6759  135.3781  159.9020 C   0  0  0  0  0  0  0  0  0  0  0  0
  125.2649  134.5205  160.4382 Cl  0  0  0  0  0  0  0  0  0  0  0  0
  128.6159  136.7579  166.1192 H   0  0  0  0  0  0  0  0  0  0  0  0
  127.3115  135.5135  165.7311 H   0  0  0  0  0  0  0  0  0  0  0  0
  127.9392  135.2921  162.6189 H   0  0  0  0  0  0  0  0  0  0  0  0
  126.3826  135.3743  163.4783 H   0  0  0  0  0  0  0  0  0  0  0  0
  125.5985  136.6209  161.8483 H   0  0  0  0  0  0  0  0  0  0  0  0
  129.8092  137.2840  158.7165 H   0  0  0  0  0  0  0  0  0  0  0  0
  129.0831  136.0514  156.3508 H   0  0  0  0  0  0  0  0  0  0  0  0
  129.9319  130.4463  158.6715 H   0  0  0  0  0  0  0  0  0  0  0  0
  131.0468  128.8037  157.2258 H   0  0  0  0  0  0  0  0  0  0  0  0
  131.7708  129.4287  154.9599 H   0  0  0  0  0  0  0  0  0  0  0  0
  131.3870  131.7026  154.1156 H   0  0  0  0  0  0  0  0  0  0  0  0
  126.8627  134.2483  158.0974 H   0  0  0  0  0  0  0  0  0  0  0  0
  1  2  1  0
  2  5  1  0
  2  3  1  0
  2  4  1  0
  4  5  1  0
  4 29  1  0
  4 30  1  0
  5  6  1  6
  5  7  1  0
  7  8  1  0
  7 31  1  0
  7 32  1  0
  8  9  1  0
  8 33  1  0
  9 27  1  0
  9 10  2  0
 10 11  1  0
 10 12  1  0
 12 13  2  0
 12 34  1  0
 13 14  1  0
 13 26  1  0
 14 15  1  0
 14 35  1  0
 15 24  1  0
 15 16  2  0
 16 17  1  0
 16 18  1  0
 18 23  2  0
 18 19  1  0
 19 20  2  0
 19 36  1  0
 20 21  1  0
 20 37  1  0
 21 22  2  0
 21 38  1  0
 22 23  1  0
 22 39  1  0
 23 24  1  0
 24 25  1  0
 26 27  2  0
 26 40  1  0
 27 28  1  0
M  CHG  1  16   1
M  END
>  <DOCK_score>  (1) 
-46.026783

>  <SMILES>  (1) 
FC1(F)C[C@H]1CNc1c(Cl)cc(Nc2[nH]c3ccccc3[nH+]2)cc1Cl

$$$$
