Cc1c(Sc2cc(Nc3[nH]cc(-c4ccccc4)[nH+]3)c(F)cc2O)ccc2c1CCC2
     RDKit          3D

 54 58  0  0  1  0  0  0  0  0999 V2000
  131.5283  136.8626  163.6788 C   0  0  0  0  0  0  0  0  0  0  0  0
  130.5506  137.9764  163.9518 C   0  0  0  0  0  0  0  0  0  0  0  0
  129.1911  137.7021  164.0265 C   0  0  0  0  0  0  0  0  0  0  0  0
  128.6079  136.0547  163.8017 S   0  0  0  0  0  0  0  0  0  0  0  0
  128.3270  135.9673  162.0645 C   0  0  0  0  0  0  0  0  0  0  0  0
  129.3449  135.5556  161.2160 C   0  0  0  0  0  0  0  0  0  0  0  0
  129.1196  135.4830  159.8490 C   0  0  0  0  0  0  0  0  0  0  0  0
  130.1449  135.0622  158.9913 N   0  0  0  0  0  0  0  0  0  0  0  0
  129.9695  133.9382  158.2015 C   0  0  0  0  0  0  0  0  0  0  0  0
  129.2018  132.8592  158.5171 N   0  0  0  0  0  0  0  0  0  0  0  0
  128.6840  132.7401  159.3287 H   0  0  0  0  0  0  0  0  0  0  0  0
  129.2934  131.9718  157.4729 C   0  0  0  0  0  0  0  0  0  0  0  0
  130.1209  132.5291  156.5541 C   0  0  0  0  0  0  0  0  0  0  0  0
  130.5189  131.9261  155.2585 C   0  0  0  0  0  0  0  0  0  0  0  0
  130.2197  132.5770  154.0629 C   0  0  0  0  0  0  0  0  0  0  0  0
  130.5975  132.0142  152.8608 C   0  0  0  0  0  0  0  0  0  0  0  0
  131.2617  130.8010  152.8404 C   0  0  0  0  0  0  0  0  0  0  0  0
  131.5561  130.1478  154.0238 C   0  0  0  0  0  0  0  0  0  0  0  0
  131.1881  130.7039  155.2319 C   0  0  0  0  0  0  0  0  0  0  0  0
  130.5197  133.7353  157.0290 N   0  0  0  0  0  0  0  0  0  0  0  0
  131.1169  134.3495  156.5741 H   0  0  0  0  0  0  0  0  0  0  0  0
  127.8781  135.8327  159.3292 C   0  0  0  0  0  0  0  0  0  0  0  0
  127.6612  135.7661  157.9975 F   0  0  0  0  0  0  0  0  0  0  0  0
  126.8630  136.2432  160.1750 C   0  0  0  0  0  0  0  0  0  0  0  0
  127.0828  136.3119  161.5411 C   0  0  0  0  0  0  0  0  0  0  0  0
  126.0835  136.7164  162.3715 O   0  0  0  0  0  0  0  0  0  0  0  0
  128.2931  138.7307  164.2846 C   0  0  0  0  0  0  0  0  0  0  0  0
  128.7558  140.0186  164.4596 C   0  0  0  0  0  0  0  0  0  0  0  0
  130.1116  140.2919  164.3787 C   0  0  0  0  0  0  0  0  0  0  0  0
  131.0086  139.2704  164.1219 C   0  0  0  0  0  0  0  0  0  0  0  0
  132.4170  139.8240  164.0836 C   0  0  0  0  0  0  0  0  0  0  0  0
  132.2474  141.3481  163.9085 C   0  0  0  0  0  0  0  0  0  0  0  0
  130.8576  141.6007  164.5304 C   0  0  0  0  0  0  0  0  0  0  0  0
  131.6746  136.7632  162.6032 H   0  0  0  0  0  0  0  0  0  0  0  0
  132.4816  137.0910  164.1555 H   0  0  0  0  0  0  0  0  0  0  0  0
  131.1360  135.9282  164.0801 H   0  0  0  0  0  0  0  0  0  0  0  0
  130.3100  135.2876  161.6199 H   0  0  0  0  0  0  0  0  0  0  0  0
  130.9776  135.5581  158.9509 H   0  0  0  0  0  0  0  0  0  0  0  0
  128.8034  131.0122  157.3993 H   0  0  0  0  0  0  0  0  0  0  0  0
  129.6972  133.5221  154.0774 H   0  0  0  0  0  0  0  0  0  0  0  0
  130.3701  132.5199  151.9339 H   0  0  0  0  0  0  0  0  0  0  0  0
  131.5519  130.3620  151.8973 H   0  0  0  0  0  0  0  0  0  0  0  0
  132.0751  129.2009  154.0019 H   0  0  0  0  0  0  0  0  0  0  0  0
  131.4189  130.1932  156.1552 H   0  0  0  0  0  0  0  0  0  0  0  0
  125.8984  136.5108  159.7697 H   0  0  0  0  0  0  0  0  0  0  0  0
  125.2583  136.9339  161.9169 H   0  0  0  0  0  0  0  0  0  0  0  0
  127.2352  138.5223  164.3478 H   0  0  0  0  0  0  0  0  0  0  0  0
  128.0576  140.8179  164.6601 H   0  0  0  0  0  0  0  0  0  0  0  0
  132.9653  139.4051  163.2399 H   0  0  0  0  0  0  0  0  0  0  0  0
  132.9362  139.6060  165.0170 H   0  0  0  0  0  0  0  0  0  0  0  0
  132.2548  141.6198  162.8530 H   0  0  0  0  0  0  0  0  0  0  0  0
  133.0198  141.8917  164.4523 H   0  0  0  0  0  0  0  0  0  0  0  0
  130.3410  142.3949  163.9916 H   0  0  0  0  0  0  0  0  0  0  0  0
  130.9565  141.8598  165.5845 H   0  0  0  0  0  0  0  0  0  0  0  0
  1  2  1  0
  1 34  1  0
  1 35  1  0
  1 36  1  0
  2 30  2  0
  2  3  1  0
  3  4  1  0
  3 27  2  0
  4  5  1  0
  5 25  1  0
  5  6  2  0
  6  7  1  0
  6 37  1  0
  7  8  1  0
  7 22  2  0
  8 38  1  0
  9  8  1  0
  9 20  2  0
  9 10  1  0
 10 11  1  0
 10 12  1  0
 12 13  2  0
 12 39  1  0
 13 14  1  0
 13 20  1  0
 14 19  1  0
 14 15  2  0
 15 16  1  0
 15 40  1  0
 16 17  2  0
 16 41  1  0
 17 18  1  0
 17 42  1  0
 18 19  2  0
 18 43  1  0
 19 44  1  0
 20 21  1  0
 22 23  1  0
 22 24  1  0
 24 25  2  0
 24 45  1  0
 25 26  1  0
 26 46  1  0
 27 28  1  0
 27 47  1  0
 28 29  2  0
 28 48  1  0
 29 33  1  0
 29 30  1  0
 30 31  1  0
 31 32  1  0
 31 49  1  0
 31 50  1  0
 32 33  1  0
 32 51  1  0
 32 52  1  0
 33 53  1  0
 33 54  1  0
M  CHG  1  20   1
M  END
>  <DOCK_score>  (1) 
-56.919136

>  <SMILES>  (1) 
Cc1c(Sc2cc(Nc3[nH]cc(-c4ccccc4)[nH+]3)c(F)cc2O)ccc2c1CCC2

$$$$
