O=C(Cc1ccccn1)C[C@H](Nc1[nH]cc(-c2ccc(F)cc2)[nH+]1)C1=CCOCC1
     RDKit          3D

 54 57  0  0  1  0  0  0  0  0999 V2000
  132.7410  135.8723  161.4414 O   0  0  0  0  0  0  0  0  0  0  0  0
  131.9860  136.7999  161.6087 C   0  0  0  0  0  0  0  0  0  0  0  0
  132.5056  138.1058  162.1522 C   0  0  0  0  0  0  0  0  0  0  0  0
  133.5562  138.6547  161.2214 C   0  0  0  0  0  0  0  0  0  0  0  0
  134.5811  139.4305  161.7296 C   0  0  0  0  0  0  0  0  0  0  0  0
  135.5448  139.9268  160.8655 C   0  0  0  0  0  0  0  0  0  0  0  0
  135.4356  139.6312  159.5151 C   0  0  0  0  0  0  0  0  0  0  0  0
  134.3830  138.8486  159.0801 C   0  0  0  0  0  0  0  0  0  0  0  0
  133.4867  138.3896  159.9317 N   0  0  0  0  0  0  0  0  0  0  0  0
  130.5241  136.6514  161.2737 C   0  0  0  0  0  0  0  0  0  0  0  0
  130.2630  135.2398  160.7446 C   0  0  2  0  0  0  0  0  0  0  0  0
  130.8437  134.5215  161.3235 H   0  0  0  0  0  0  0  0  0  0  0  0
  130.6586  135.1653  159.3360 N   0  0  0  0  0  0  0  0  0  0  0  0
  130.5139  133.9784  158.6382 C   0  0  0  0  0  0  0  0  0  0  0  0
  130.0143  132.8177  159.1434 N   0  0  0  0  0  0  0  0  0  0  0  0
  129.6985  132.6743  160.0493 H   0  0  0  0  0  0  0  0  0  0  0  0
  130.0404  131.8863  158.1334 C   0  0  0  0  0  0  0  0  0  0  0  0
  130.5547  132.5044  157.0415 C   0  0  0  0  0  0  0  0  0  0  0  0
  130.7721  131.8869  155.7103 C   0  0  0  0  0  0  0  0  0  0  0  0
  130.6925  132.6657  154.5572 C   0  0  0  0  0  0  0  0  0  0  0  0
  130.9011  132.0883  153.3214 C   0  0  0  0  0  0  0  0  0  0  0  0
  131.1780  130.7342  153.2251 C   0  0  0  0  0  0  0  0  0  0  0  0
  131.3765  130.1720  152.0128 F   0  0  0  0  0  0  0  0  0  0  0  0
  131.2524  129.9551  154.3683 C   0  0  0  0  0  0  0  0  0  0  0  0
  131.0509  130.5252  155.6085 C   0  0  0  0  0  0  0  0  0  0  0  0
  130.8305  133.7887  157.3805 N   0  0  0  0  0  0  0  0  0  0  0  0
  131.2046  134.4589  156.7875 H   0  0  0  0  0  0  0  0  0  0  0  0
  128.7961  134.9190  160.8721 C   0  0  0  0  0  0  0  0  0  0  0  0
  128.0044  135.2104  159.8832 C   0  0  0  0  0  0  0  0  0  0  0  0
  126.5278  134.9347  159.9124 C   0  0  0  0  0  0  0  0  0  0  0  0
  126.2161  134.0288  160.9727 O   0  0  0  0  0  0  0  0  0  0  0  0
  126.7809  134.4219  162.2298 C   0  0  0  0  0  0  0  0  0  0  0  0
  128.3030  134.2797  162.1409 C   0  0  0  0  0  0  0  0  0  0  0  0
  132.9429  137.9413  163.1369 H   0  0  0  0  0  0  0  0  0  0  0  0
  131.6844  138.8179  162.2334 H   0  0  0  0  0  0  0  0  0  0  0  0
  134.6324  139.6445  162.7870 H   0  0  0  0  0  0  0  0  0  0  0  0
  136.3592  140.5327  161.2347 H   0  0  0  0  0  0  0  0  0  0  0  0
  136.1664  140.0041  158.8128 H   0  0  0  0  0  0  0  0  0  0  0  0
  134.2931  138.6105  158.0305 H   0  0  0  0  0  0  0  0  0  0  0  0
  129.9272  136.8196  162.1702 H   0  0  0  0  0  0  0  0  0  0  0  0
  130.2499  137.3814  160.5123 H   0  0  0  0  0  0  0  0  0  0  0  0
  131.0218  135.9476  158.8922 H   0  0  0  0  0  0  0  0  0  0  0  0
  129.7132  130.8590  158.1969 H   0  0  0  0  0  0  0  0  0  0  0  0
  130.4724  133.7205  154.6311 H   0  0  0  0  0  0  0  0  0  0  0  0
  130.8438  132.6919  152.4277 H   0  0  0  0  0  0  0  0  0  0  0  0
  131.4682  128.8999  154.2884 H   0  0  0  0  0  0  0  0  0  0  0  0
  131.1093  129.9171  156.4992 H   0  0  0  0  0  0  0  0  0  0  0  0
  128.4270  135.6671  159.0005 H   0  0  0  0  0  0  0  0  0  0  0  0
  126.2203  134.4982  158.9622 H   0  0  0  0  0  0  0  0  0  0  0  0
  125.9939  135.8720  160.0692 H   0  0  0  0  0  0  0  0  0  0  0  0
  126.3978  133.7785  163.0217 H   0  0  0  0  0  0  0  0  0  0  0  0
  126.5208  135.4590  162.4414 H   0  0  0  0  0  0  0  0  0  0  0  0
  128.5696  133.2228  162.1422 H   0  0  0  0  0  0  0  0  0  0  0  0
  128.7638  134.7713  162.9977 H   0  0  0  0  0  0  0  0  0  0  0  0
  1  2  2  0
  2  3  1  0
  2 10  1  0
  3  4  1  0
  3 34  1  0
  3 35  1  0
  4  9  1  0
  4  5  2  0
  5  6  1  0
  5 36  1  0
  6  7  2  0
  6 37  1  0
  7  8  1  0
  7 38  1  0
  8  9  2  0
  8 39  1  0
 10 11  1  0
 10 40  1  0
 10 41  1  0
 11 12  1  1
 11 13  1  0
 11 28  1  0
 13 42  1  0
 14 13  1  0
 14 26  2  0
 14 15  1  0
 15 16  1  0
 15 17  1  0
 17 18  2  0
 17 43  1  0
 18 19  1  0
 18 26  1  0
 19 25  1  0
 19 20  2  0
 20 21  1  0
 20 44  1  0
 21 22  2  0
 21 45  1  0
 22 23  1  0
 22 24  1  0
 24 25  2  0
 24 46  1  0
 25 47  1  0
 26 27  1  0
 28 33  1  0
 28 29  2  0
 29 30  1  0
 29 48  1  0
 30 31  1  0
 30 49  1  0
 30 50  1  0
 31 32  1  0
 32 33  1  0
 32 51  1  0
 32 52  1  0
 33 53  1  0
 33 54  1  0
M  CHG  1  26   1
M  END
>  <DOCK_score>  (1) 
-59.924042

>  <SMILES>  (1) 
O=C(Cc1ccccn1)C[C@H](Nc1[nH]cc(-c2ccc(F)cc2)[nH+]1)C1=CCOCC1

$$$$
