C1=C(c2ccccc2-c2ccc(-c3ccccc3)cc2)CC[N@H+](C(c2ccccc2)c2ccccc2)C1
     RDKit          3D

 69 74  0  0  1  0  0  0  0  0999 V2000
  133.2091  136.4371  160.2390 C   0  0  0  0  0  0  0  0  0  0  0  0
  132.7772  137.6716  160.0844 C   0  0  0  0  0  0  0  0  0  0  0  0
  133.7581  138.7745  160.0876 C   0  0  0  0  0  0  0  0  0  0  0  0
  134.7740  138.8129  159.1329 C   0  0  0  0  0  0  0  0  0  0  0  0
  135.6921  139.8426  159.1444 C   0  0  0  0  0  0  0  0  0  0  0  0
  135.6089  140.8456  160.0959 C   0  0  0  0  0  0  0  0  0  0  0  0
  134.6068  140.8275  161.0448 C   0  0  0  0  0  0  0  0  0  0  0  0
  133.6708  139.7963  161.0497 C   0  0  0  0  0  0  0  0  0  0  0  0
  132.5936  139.7726  162.0660 C   0  0  0  0  0  0  0  0  0  0  0  0
  131.6811  140.8257  162.1402 C   0  0  0  0  0  0  0  0  0  0  0  0
  130.6793  140.8031  163.0851 C   0  0  0  0  0  0  0  0  0  0  0  0
  130.5765  139.7275  163.9671 C   0  0  0  0  0  0  0  0  0  0  0  0
  129.4975  139.7036  164.9842 C   0  0  0  0  0  0  0  0  0  0  0  0
  129.6988  139.0572  166.2026 C   0  0  0  0  0  0  0  0  0  0  0  0
  128.6911  139.0377  167.1451 C   0  0  0  0  0  0  0  0  0  0  0  0
  127.4827  139.6578  166.8826 C   0  0  0  0  0  0  0  0  0  0  0  0
  127.2752  140.2960  165.6730 C   0  0  0  0  0  0  0  0  0  0  0  0
  128.2780  140.3271  164.7254 C   0  0  0  0  0  0  0  0  0  0  0  0
  131.4915  138.6775  163.8965 C   0  0  0  0  0  0  0  0  0  0  0  0
  132.4906  138.6970  162.9488 C   0  0  0  0  0  0  0  0  0  0  0  0
  131.3193  137.9981  159.9109 C   0  0  0  0  0  0  0  0  0  0  0  0
  130.4701  136.7963  160.3272 C   0  0  0  0  0  0  0  0  0  0  0  0
  130.9954  135.5929  159.6631 N   0  0  2  0  0  0  0  0  0  0  0  0
  131.1120  135.7733  158.6773 H   0  0  0  0  0  0  0  0  0  0  0  0
  130.0569  134.4785  159.8512 C   0  0  0  0  0  0  0  0  0  0  0  0
  128.7219  134.8394  159.2522 C   0  0  0  0  0  0  0  0  0  0  0  0
  127.5603  134.3119  159.7843 C   0  0  0  0  0  0  0  0  0  0  0  0
  126.3355  134.6463  159.2377 C   0  0  0  0  0  0  0  0  0  0  0  0
  126.2730  135.5009  158.1528 C   0  0  0  0  0  0  0  0  0  0  0  0
  127.4349  136.0249  157.6178 C   0  0  0  0  0  0  0  0  0  0  0  0
  128.6595  135.6938  158.1673 C   0  0  0  0  0  0  0  0  0  0  0  0
  130.5964  133.2470  159.1704 C   0  0  0  0  0  0  0  0  0  0  0  0
  130.2713  132.9876  157.8521 C   0  0  0  0  0  0  0  0  0  0  0  0
  130.7697  131.8602  157.2263 C   0  0  0  0  0  0  0  0  0  0  0  0
  131.5855  130.9874  157.9217 C   0  0  0  0  0  0  0  0  0  0  0  0
  131.9066  131.2443  159.2414 C   0  0  0  0  0  0  0  0  0  0  0  0
  131.4118  132.3739  159.8659 C   0  0  0  0  0  0  0  0  0  0  0  0
  132.2927  135.2478  160.2560 C   0  0  0  0  0  0  0  0  0  0  0  0
  134.2697  136.2729  160.3583 H   0  0  0  0  0  0  0  0  0  0  0  0
  134.8444  138.0345  158.3875 H   0  0  0  0  0  0  0  0  0  0  0  0
  136.4805  139.8668  158.4066 H   0  0  0  0  0  0  0  0  0  0  0  0
  136.3327  141.6472  160.0952 H   0  0  0  0  0  0  0  0  0  0  0  0
  134.5487  141.6129  161.7838 H   0  0  0  0  0  0  0  0  0  0  0  0
  131.7607  141.6586  161.4573 H   0  0  0  0  0  0  0  0  0  0  0  0
  129.9729  141.6181  163.1427 H   0  0  0  0  0  0  0  0  0  0  0  0
  130.6417  138.5721  166.4083 H   0  0  0  0  0  0  0  0  0  0  0  0
  128.8460  138.5371  168.0896 H   0  0  0  0  0  0  0  0  0  0  0  0
  126.6968  139.6396  167.6232 H   0  0  0  0  0  0  0  0  0  0  0  0
  126.3281  140.7742  165.4715 H   0  0  0  0  0  0  0  0  0  0  0  0
  128.1163  140.8291  163.7829 H   0  0  0  0  0  0  0  0  0  0  0  0
  131.4139  137.8467  164.5823 H   0  0  0  0  0  0  0  0  0  0  0  0
  133.1967  137.8818  162.8916 H   0  0  0  0  0  0  0  0  0  0  0  0
  131.0636  138.8577  160.5303 H   0  0  0  0  0  0  0  0  0  0  0  0
  131.1218  138.2329  158.8651 H   0  0  0  0  0  0  0  0  0  0  0  0
  129.4346  136.9571  160.0275 H   0  0  0  0  0  0  0  0  0  0  0  0
  130.5226  136.6697  161.4086 H   0  0  0  0  0  0  0  0  0  0  0  0
  129.9358  134.2813  160.9163 H   0  0  0  0  0  0  0  0  0  0  0  0
  127.6093  133.6409  160.6292 H   0  0  0  0  0  0  0  0  0  0  0  0
  125.4276  134.2372  159.6558 H   0  0  0  0  0  0  0  0  0  0  0  0
  125.3163  135.7596  157.7237 H   0  0  0  0  0  0  0  0  0  0  0  0
  127.3861  136.6925  156.7704 H   0  0  0  0  0  0  0  0  0  0  0  0
  129.5673  136.1028  157.7490 H   0  0  0  0  0  0  0  0  0  0  0  0
  129.6307  133.6674  157.3101 H   0  0  0  0  0  0  0  0  0  0  0  0
  130.5190  131.6597  156.1951 H   0  0  0  0  0  0  0  0  0  0  0  0
  131.9722  130.1049  157.4339 H   0  0  0  0  0  0  0  0  0  0  0  0
  132.5440  130.5624  159.7847 H   0  0  0  0  0  0  0  0  0  0  0  0
  131.6624  132.5744  160.8971 H   0  0  0  0  0  0  0  0  0  0  0  0
  132.7449  134.4360  159.6864 H   0  0  0  0  0  0  0  0  0  0  0  0
  132.1434  134.9224  161.2856 H   0  0  0  0  0  0  0  0  0  0  0  0
  1 38  1  0
  1  2  2  0
  1 39  1  0
  2  3  1  0
  2 21  1  0
  3  8  1  0
  3  4  2  0
  4  5  1  0
  4 40  1  0
  5  6  2  0
  5 41  1  0
  6  7  1  0
  6 42  1  0
  7  8  2  0
  7 43  1  0
  8  9  1  0
  9 20  1  0
  9 10  2  0
 10 11  1  0
 10 44  1  0
 11 12  2  0
 11 45  1  0
 12 13  1  0
 12 19  1  0
 13 18  1  0
 13 14  2  0
 14 15  1  0
 14 46  1  0
 15 16  2  0
 15 47  1  0
 16 17  1  0
 16 48  1  0
 17 18  2  0
 17 49  1  0
 18 50  1  0
 19 20  2  0
 19 51  1  0
 20 52  1  0
 21 22  1  0
 21 53  1  0
 21 54  1  0
 22 23  1  0
 22 55  1  0
 22 56  1  0
 23 24  1  6
 23 25  1  0
 23 38  1  0
 25 26  1  0
 25 32  1  0
 25 57  1  0
 26 31  1  0
 26 27  2  0
 27 28  1  0
 27 58  1  0
 28 29  2  0
 28 59  1  0
 29 30  1  0
 29 60  1  0
 30 31  2  0
 30 61  1  0
 31 62  1  0
 32 37  1  0
 32 33  2  0
 33 34  1  0
 33 63  1  0
 34 35  2  0
 34 64  1  0
 35 36  1  0
 35 65  1  0
 36 37  2  0
 36 66  1  0
 37 67  1  0
 38 68  1  0
 38 69  1  0
M  CHG  1  23   1
M  END
>  <DOCK_score>  (1) 
-60.641647

>  <SMILES>  (1) 
C1=C(c2ccccc2-c2ccc(-c3ccccc3)cc2)CC[N@H+](C(c2ccccc2)c2ccccc2)C1

$$$$
