O=C1CC[C@H]([NH+]=C(NC2CCC2)N[C@H]2CCc3ccccc3C2)CN1
     RDKit          3D

 54 57  0  0  1  0  0  0  0  0999 V2000
  123.8809  133.9550  161.8433 O   0  0  0  0  0  0  0  0  0  0  0  0
  125.0679  134.1610  161.7033 C   0  0  0  0  0  0  0  0  0  0  0  0
  125.9996  132.9833  161.7126 C   0  0  0  0  0  0  0  0  0  0  0  0
  127.4338  133.4560  161.9630 C   0  0  0  0  0  0  0  0  0  0  0  0
  127.7330  134.6215  161.0126 C   0  0  2  0  0  0  0  0  0  0  0  0
  127.4968  134.3291  159.9895 H   0  0  0  0  0  0  0  0  0  0  0  0
  129.1501  134.9810  161.1063 N   0  0  0  0  0  0  0  0  0  0  0  0
  129.4402  135.6457  161.7505 H   0  0  0  0  0  0  0  0  0  0  0  0
  130.0210  134.4075  160.3243 C   0  0  0  0  0  0  0  0  0  0  0  0
  129.8082  133.1227  159.8836 N   0  0  0  0  0  0  0  0  0  0  0  0
  130.7871  132.4782  159.0046 C   0  0  0  0  0  0  0  0  0  0  0  0
  130.6255  132.8542  157.5223 C   0  0  0  0  0  0  0  0  0  0  0  0
  130.9302  131.3824  157.1970 C   0  0  0  0  0  0  0  0  0  0  0  0
  130.4032  131.0446  158.6016 C   0  0  0  0  0  0  0  0  0  0  0  0
  131.1526  135.0874  159.9401 N   0  0  0  0  0  0  0  0  0  0  0  0
  131.7372  136.0966  160.8268 C   0  0  1  0  0  0  0  0  0  0  0  0
  131.5353  135.8346  161.8653 H   0  0  0  0  0  0  0  0  0  0  0  0
  133.2514  136.1701  160.5977 C   0  0  0  0  0  0  0  0  0  0  0  0
  133.8617  137.0457  161.6900 C   0  0  0  0  0  0  0  0  0  0  0  0
  133.1315  138.3597  161.7851 C   0  0  0  0  0  0  0  0  0  0  0  0
  133.7641  139.4049  162.4462 C   0  0  0  0  0  0  0  0  0  0  0  0
  133.1433  140.6297  162.5766 C   0  0  0  0  0  0  0  0  0  0  0  0
  131.8809  140.8195  162.0458 C   0  0  0  0  0  0  0  0  0  0  0  0
  131.2520  139.7836  161.3869 C   0  0  0  0  0  0  0  0  0  0  0  0
  131.8766  138.5502  161.2523 C   0  0  0  0  0  0  0  0  0  0  0  0
  131.1354  137.4654  160.5154 C   0  0  0  0  0  0  0  0  0  0  0  0
  126.8722  135.8182  161.4194 C   0  0  0  0  0  0  0  0  0  0  0  0
  125.4759  135.4213  161.5499 N   0  0  0  0  0  0  0  0  0  0  0  0
  125.9490  132.4741  160.7502 H   0  0  0  0  0  0  0  0  0  0  0  0
  125.7023  132.2942  162.5030 H   0  0  0  0  0  0  0  0  0  0  0  0
  128.1284  132.6382  161.7709 H   0  0  0  0  0  0  0  0  0  0  0  0
  127.5360  133.7890  162.9958 H   0  0  0  0  0  0  0  0  0  0  0  0
  129.0099  132.6430  160.1546 H   0  0  0  0  0  0  0  0  0  0  0  0
  131.8097  132.5699  159.3707 H   0  0  0  0  0  0  0  0  0  0  0  0
  129.6133  133.1594  157.2570 H   0  0  0  0  0  0  0  0  0  0  0  0
  131.3857  133.5473  157.1623 H   0  0  0  0  0  0  0  0  0  0  0  0
  131.9924  131.1747  157.0676 H   0  0  0  0  0  0  0  0  0  0  0  0
  130.3176  130.9773  156.3916 H   0  0  0  0  0  0  0  0  0  0  0  0
  130.9840  130.2770  159.1130 H   0  0  0  0  0  0  0  0  0  0  0  0
  129.3302  130.8551  158.6315 H   0  0  0  0  0  0  0  0  0  0  0  0
  131.5638  134.8989  159.0820 H   0  0  0  0  0  0  0  0  0  0  0  0
  133.6794  135.1689  160.6478 H   0  0  0  0  0  0  0  0  0  0  0  0
  133.4541  136.6079  159.6202 H   0  0  0  0  0  0  0  0  0  0  0  0
  134.9099  137.2330  161.4569 H   0  0  0  0  0  0  0  0  0  0  0  0
  133.7936  136.5266  162.6462 H   0  0  0  0  0  0  0  0  0  0  0  0
  134.7502  139.2574  162.8611 H   0  0  0  0  0  0  0  0  0  0  0  0
  133.6417  141.4378  163.0916 H   0  0  0  0  0  0  0  0  0  0  0  0
  131.3889  141.7758  162.1462 H   0  0  0  0  0  0  0  0  0  0  0  0
  130.2663  139.9330  160.9718 H   0  0  0  0  0  0  0  0  0  0  0  0
  131.1998  137.6507  159.4432 H   0  0  0  0  0  0  0  0  0  0  0  0
  130.0888  137.4755  160.8196 H   0  0  0  0  0  0  0  0  0  0  0  0
  127.2264  136.2092  162.3733 H   0  0  0  0  0  0  0  0  0  0  0  0
  126.9561  136.5968  160.6611 H   0  0  0  0  0  0  0  0  0  0  0  0
  124.8011  136.1177  161.5236 H   0  0  0  0  0  0  0  0  0  0  0  0
  1  2  2  0
  2 28  1  0
  2  3  1  0
  3  4  1  0
  3 29  1  0
  3 30  1  0
  4  5  1  0
  4 31  1  0
  4 32  1  0
  5  6  1  6
  5  7  1  0
  5 27  1  0
  7  8  1  0
  9  7  2  0
  9 10  1  0
  9 15  1  0
 10 11  1  0
 10 33  1  0
 11 14  1  0
 11 12  1  0
 11 34  1  0
 12 13  1  0
 12 35  1  0
 12 36  1  0
 13 14  1  0
 13 37  1  0
 13 38  1  0
 14 39  1  0
 14 40  1  0
 15 16  1  0
 15 41  1  0
 16 17  1  1
 16 26  1  0
 16 18  1  0
 18 19  1  0
 18 42  1  0
 18 43  1  0
 19 20  1  0
 19 44  1  0
 19 45  1  0
 20 25  2  0
 20 21  1  0
 21 22  2  0
 21 46  1  0
 22 23  1  0
 22 47  1  0
 23 24  2  0
 23 48  1  0
 24 25  1  0
 24 49  1  0
 25 26  1  0
 26 50  1  0
 26 51  1  0
 27 28  1  0
 27 52  1  0
 27 53  1  0
 28 54  1  0
M  CHG  1   7   1
M  END
>  <DOCK_score>  (1) 
-46.460918

>  <SMILES>  (1) 
O=C1CC[C@H]([NH+]=C(NC2CCC2)N[C@H]2CCc3ccccc3C2)CN1

$$$$
