FCC[NH2+]Cc1c[nH]nc1-c1ccc(NCc2ccc(C3CC3)cc2F)o1
     RDKit          3D

 50 53  0  0  0  0  0  0  0  0999 V2000
  131.7808  139.4886  158.4281 F   0  0  0  0  0  0  0  0  0  0  0  0
  130.8640  139.5167  159.4844 C   0  0  0  0  0  0  0  0  0  0  0  0
  131.1105  138.3202  160.4056 C   0  0  0  0  0  0  0  0  0  0  0  0
  130.9436  137.0743  159.6454 N   0  0  0  0  0  0  0  0  0  0  0  0
  131.6048  137.0541  158.8834 H   0  0  0  0  0  0  0  0  0  0  0  0
  130.0051  137.0280  159.2776 H   0  0  0  0  0  0  0  0  0  0  0  0
  131.1802  135.9257  160.5298 C   0  0  0  0  0  0  0  0  0  0  0  0
  131.0090  134.6475  159.7500 C   0  0  0  0  0  0  0  0  0  0  0  0
  131.9768  133.9935  159.0726 C   0  0  0  0  0  0  0  0  0  0  0  0
  131.4259  132.8950  158.5122 N   0  0  0  0  0  0  0  0  0  0  0  0
  131.8909  132.2394  157.9691 H   0  0  0  0  0  0  0  0  0  0  0  0
  130.0657  132.8694  158.8455 N   0  0  0  0  0  0  0  0  0  0  0  0
  129.8075  133.9248  159.5926 C   0  0  0  0  0  0  0  0  0  0  0  0
  128.4937  134.2860  160.1640 C   0  0  0  0  0  0  0  0  0  0  0  0
  127.3401  133.5832  160.0144 C   0  0  0  0  0  0  0  0  0  0  0  0
  126.3415  134.2830  160.7202 C   0  0  0  0  0  0  0  0  0  0  0  0
  126.9333  135.3754  161.2643 C   0  0  0  0  0  0  0  0  0  0  0  0
  126.3013  136.3381  162.0430 N   0  0  0  0  0  0  0  0  0  0  0  0
  127.0919  137.2060  162.9191 C   0  0  0  0  0  0  0  0  0  0  0  0
  127.2280  136.5615  164.2746 C   0  0  0  0  0  0  0  0  0  0  0  0
  128.2886  135.7139  164.5339 C   0  0  0  0  0  0  0  0  0  0  0  0
  128.4167  135.1273  165.7789 C   0  0  0  0  0  0  0  0  0  0  0  0
  127.4774  135.3783  166.7626 C   0  0  0  0  0  0  0  0  0  0  0  0
  127.6157  134.7330  168.1175 C   0  0  0  0  0  0  0  0  0  0  0  0
  127.5448  135.6440  169.3446 C   0  0  0  0  0  0  0  0  0  0  0  0
  128.8829  135.0361  168.9193 C   0  0  0  0  0  0  0  0  0  0  0  0
  126.4141  136.2212  166.5040 C   0  0  0  0  0  0  0  0  0  0  0  0
  126.2878  136.8139  165.2589 C   0  0  0  0  0  0  0  0  0  0  0  0
  125.2479  137.6384  165.0050 F   0  0  0  0  0  0  0  0  0  0  0  0
  128.2346  135.3674  160.9289 O   0  0  0  0  0  0  0  0  0  0  0  0
  129.8503  139.4666  159.0872 H   0  0  0  0  0  0  0  0  0  0  0  0
  130.9880  140.4412  160.0484 H   0  0  0  0  0  0  0  0  0  0  0  0
  130.3964  138.3421  161.2286 H   0  0  0  0  0  0  0  0  0  0  0  0
  132.1243  138.3705  160.8028 H   0  0  0  0  0  0  0  0  0  0  0  0
  130.4659  135.9475  161.3529 H   0  0  0  0  0  0  0  0  0  0  0  0
  132.1940  135.9758  160.9272 H   0  0  0  0  0  0  0  0  0  0  0  0
  133.0109  134.2950  158.9943 H   0  0  0  0  0  0  0  0  0  0  0  0
  127.2132  132.6647  159.4606 H   0  0  0  0  0  0  0  0  0  0  0  0
  125.3025  134.0026  160.8110 H   0  0  0  0  0  0  0  0  0  0  0  0
  125.3370  136.4351  162.0061 H   0  0  0  0  0  0  0  0  0  0  0  0
  128.0813  137.3547  162.4866 H   0  0  0  0  0  0  0  0  0  0  0  0
  126.5924  138.1693  163.0234 H   0  0  0  0  0  0  0  0  0  0  0  0
  129.0198  135.5133  163.7648 H   0  0  0  0  0  0  0  0  0  0  0  0
  129.2479  134.4683  165.9818 H   0  0  0  0  0  0  0  0  0  0  0  0
  127.1904  133.7333  168.2071 H   0  0  0  0  0  0  0  0  0  0  0  0
  127.3989  136.7102  169.1722 H   0  0  0  0  0  0  0  0  0  0  0  0
  127.0729  135.2437  170.2420 H   0  0  0  0  0  0  0  0  0  0  0  0
  129.2913  134.2361  169.5367 H   0  0  0  0  0  0  0  0  0  0  0  0
  129.6172  135.7027  168.4668 H   0  0  0  0  0  0  0  0  0  0  0  0
  125.6813  136.4176  167.2727 H   0  0  0  0  0  0  0  0  0  0  0  0
  1  2  1  0
  2  3  1  0
  2 31  1  0
  2 32  1  0
  3  4  1  0
  3 33  1  0
  3 34  1  0
  4  5  1  0
  4  6  1  0
  4  7  1  0
  7  8  1  0
  7 35  1  0
  7 36  1  0
  8 13  1  0
  8  9  2  0
  9 10  1  0
  9 37  1  0
 10 11  1  0
 10 12  1  0
 12 13  2  0
 13 14  1  0
 14 30  1  0
 14 15  2  0
 15 16  1  0
 15 38  1  0
 16 17  2  0
 16 39  1  0
 17 18  1  0
 17 30  1  0
 18 19  1  0
 18 40  1  0
 19 20  1  0
 19 41  1  0
 19 42  1  0
 20 28  1  0
 20 21  2  0
 21 22  1  0
 21 43  1  0
 22 23  2  0
 22 44  1  0
 23 24  1  0
 23 27  1  0
 24 26  1  0
 24 25  1  0
 24 45  1  0
 25 26  1  0
 25 46  1  0
 25 47  1  0
 26 48  1  0
 26 49  1  0
 27 28  2  0
 27 50  1  0
 28 29  1  0
M  CHG  1   4   1
M  END
>  <DOCK_score>  (1) 
-41.218933

>  <SMILES>  (1) 
FCC[NH2+]Cc1c[nH]nc1-c1ccc(NCc2ccc(C3CC3)cc2F)o1

$$$$
