CCc1ccc(C[C@@H](Nc2[nH]cc(-c3ccc(CC)cc3)[nH+]2)C2CC(O)C2)cc1
     RDKit          3D

 61 64  0  0  1  0  0  0  0  0999 V2000
  135.6995  139.1140  160.1193 C   0  0  0  0  0  0  0  0  0  0  0  0
  134.5624  140.1111  160.3502 C   0  0  0  0  0  0  0  0  0  0  0  0
  133.2553  139.3678  160.4515 C   0  0  0  0  0  0  0  0  0  0  0  0
  132.8060  138.9241  161.6811 C   0  0  0  0  0  0  0  0  0  0  0  0
  131.6073  138.2418  161.7738 C   0  0  0  0  0  0  0  0  0  0  0  0
  130.8578  138.0034  160.6370 C   0  0  0  0  0  0  0  0  0  0  0  0
  129.5512  137.2592  160.7381 C   0  0  0  0  0  0  0  0  0  0  0  0
  129.8057  135.7586  160.5824 C   0  0  1  0  0  0  0  0  0  0  0  0
  128.8606  135.2203  160.6555 H   0  0  0  0  0  0  0  0  0  0  0  0
  130.4153  135.4997  159.2756 N   0  0  0  0  0  0  0  0  0  0  0  0
  130.1890  134.2947  158.6327 C   0  0  0  0  0  0  0  0  0  0  0  0
  129.4277  133.2724  159.1098 N   0  0  0  0  0  0  0  0  0  0  0  0
  128.9500  133.2572  159.9539 H   0  0  0  0  0  0  0  0  0  0  0  0
  129.4601  132.2663  158.1751 C   0  0  0  0  0  0  0  0  0  0  0  0
  130.2396  132.7022  157.1546 C   0  0  0  0  0  0  0  0  0  0  0  0
  130.5627  131.9477  155.9190 C   0  0  0  0  0  0  0  0  0  0  0  0
  130.2085  132.4617  154.6729 C   0  0  0  0  0  0  0  0  0  0  0  0
  130.5120  131.7556  153.5266 C   0  0  0  0  0  0  0  0  0  0  0  0
  131.1667  130.5396  153.6132 C   0  0  0  0  0  0  0  0  0  0  0  0
  131.4955  129.7731  152.3580 C   0  0  0  0  0  0  0  0  0  0  0  0
  130.3332  128.8410  152.0103 C   0  0  0  0  0  0  0  0  0  0  0  0
  131.5156  130.0224  154.8472 C   0  0  0  0  0  0  0  0  0  0  0  0
  131.2221  130.7225  155.9998 C   0  0  0  0  0  0  0  0  0  0  0  0
  130.6767  133.9482  157.4665 N   0  0  0  0  0  0  0  0  0  0  0  0
  131.2557  134.4959  156.9138 H   0  0  0  0  0  0  0  0  0  0  0  0
  130.7499  135.2839  161.6887 C   0  0  2  0  0  0  0  0  0  0  0  0
  130.6537  133.7761  161.9757 C   0  0  0  0  0  0  0  0  0  0  0  0
  130.7807  134.1336  163.4677 C   0  0  2  0  0  0  0  0  0  0  0  0
  129.9314  133.3597  164.3173 O   0  0  0  0  0  0  0  0  0  0  0  0
  130.2007  135.5114  163.1070 C   0  0  0  0  0  0  0  0  0  0  0  0
  131.3097  138.4426  159.4067 C   0  0  0  0  0  0  0  0  0  0  0  0
  132.5059  139.1294  159.3145 C   0  0  0  0  0  0  0  0  0  0  0  0
  135.7435  138.4136  160.9533 H   0  0  0  0  0  0  0  0  0  0  0  0
  135.5203  138.5665  159.1941 H   0  0  0  0  0  0  0  0  0  0  0  0
  136.6449  139.6516  160.0462 H   0  0  0  0  0  0  0  0  0  0  0  0
  134.5182  140.8116  159.5162 H   0  0  0  0  0  0  0  0  0  0  0  0
  134.7414  140.6588  161.2755 H   0  0  0  0  0  0  0  0  0  0  0  0
  133.3916  139.1100  162.5692 H   0  0  0  0  0  0  0  0  0  0  0  0
  131.2564  137.8947  162.7345 H   0  0  0  0  0  0  0  0  0  0  0  0
  128.8788  137.5975  159.9498 H   0  0  0  0  0  0  0  0  0  0  0  0
  129.0977  137.4519  161.7102 H   0  0  0  0  0  0  0  0  0  0  0  0
  130.9776  136.1726  158.8609 H   0  0  0  0  0  0  0  0  0  0  0  0
  128.9604  131.3112  158.2403 H   0  0  0  0  0  0  0  0  0  0  0  0
  129.6971  133.4105  154.6044 H   0  0  0  0  0  0  0  0  0  0  0  0
  130.2384  132.1531  152.5605 H   0  0  0  0  0  0  0  0  0  0  0  0
  132.3986  129.1850  152.5173 H   0  0  0  0  0  0  0  0  0  0  0  0
  131.6576  130.4728  151.5371 H   0  0  0  0  0  0  0  0  0  0  0  0
  129.4300  129.4298  151.8506 H   0  0  0  0  0  0  0  0  0  0  0  0
  130.5710  128.2868  151.1024 H   0  0  0  0  0  0  0  0  0  0  0  0
  130.1708  128.1420  152.8307 H   0  0  0  0  0  0  0  0  0  0  0  0
  132.0223  129.0707  154.9089 H   0  0  0  0  0  0  0  0  0  0  0  0
  131.4991  130.3197  156.9629 H   0  0  0  0  0  0  0  0  0  0  0  0
  131.7717  135.6385  161.5540 H   0  0  0  0  0  0  0  0  0  0  0  0
  129.6895  133.3420  161.7112 H   0  0  0  0  0  0  0  0  0  0  0  0
  131.4970  133.2036  161.5895 H   0  0  0  0  0  0  0  0  0  0  0  0
  131.8116  134.1724  163.8198 H   0  0  0  0  0  0  0  0  0  0  0  0
  129.0623  133.1705  163.9377 H   0  0  0  0  0  0  0  0  0  0  0  0
  130.6789  136.3377  163.6330 H   0  0  0  0  0  0  0  0  0  0  0  0
  129.1125  135.5540  163.1522 H   0  0  0  0  0  0  0  0  0  0  0  0
  130.7265  138.2524  158.5177 H   0  0  0  0  0  0  0  0  0  0  0  0
  132.8571  139.4758  158.3537 H   0  0  0  0  0  0  0  0  0  0  0  0
  1  2  1  0
  1 33  1  0
  1 34  1  0
  1 35  1  0
  2  3  1  0
  2 36  1  0
  2 37  1  0
  3 32  2  0
  3  4  1  0
  4  5  2  0
  4 38  1  0
  5  6  1  0
  5 39  1  0
  6  7  1  0
  6 31  2  0
  7  8  1  0
  7 40  1  0
  7 41  1  0
  8  9  1  6
  8 10  1  0
  8 26  1  0
 10 42  1  0
 11 10  1  0
 11 24  2  0
 11 12  1  0
 12 13  1  0
 12 14  1  0
 14 15  2  0
 14 43  1  0
 15 16  1  0
 15 24  1  0
 16 23  1  0
 16 17  2  0
 17 18  1  0
 17 44  1  0
 18 19  2  0
 18 45  1  0
 19 20  1  0
 19 22  1  0
 20 21  1  0
 20 46  1  0
 20 47  1  0
 21 48  1  0
 21 49  1  0
 21 50  1  0
 22 23  2  0
 22 51  1  0
 23 52  1  0
 24 25  1  0
 26 30  1  0
 26 27  1  0
 26 53  1  1
 27 28  1  0
 27 54  1  0
 27 55  1  0
 28 29  1  0
 28 30  1  0
 28 56  1  1
 29 57  1  0
 30 58  1  0
 30 59  1  0
 31 32  1  0
 31 60  1  0
 32 61  1  0
M  CHG  1  24   1
M  END
>  <DOCK_score>  (1) 
-60.274345

>  <SMILES>  (1) 
CCc1ccc(C[C@@H](Nc2[nH]cc(-c3ccc(CC)cc3)[nH+]2)C2CC(O)C2)cc1

$$$$
