Fc1ccc(-c2c[nH]c(Nc3ccc(-c4n[nH]cc4C[NH2+][C@@H]4C=CCC4)o3)n2)cc1
     RDKit          3D

 52 56  0  0  1  0  0  0  0  0999 V2000
  127.0107  143.4616  166.7775 F   0  0  0  0  0  0  0  0  0  0  0  0
  127.1002  142.3918  165.9572 C   0  0  0  0  0  0  0  0  0  0  0  0
  126.0086  142.0179  165.1893 C   0  0  0  0  0  0  0  0  0  0  0  0
  126.0947  140.9257  164.3504 C   0  0  0  0  0  0  0  0  0  0  0  0
  127.2813  140.1986  164.2761 C   0  0  0  0  0  0  0  0  0  0  0  0
  127.3784  139.0231  163.3761 C   0  0  0  0  0  0  0  0  0  0  0  0
  128.5030  138.5795  162.7614 C   0  0  0  0  0  0  0  0  0  0  0  0
  128.1481  137.4705  162.0327 N   0  0  0  0  0  0  0  0  0  0  0  0
  128.7388  136.9285  161.4867 H   0  0  0  0  0  0  0  0  0  0  0  0
  126.8135  137.2743  162.2162 C   0  0  0  0  0  0  0  0  0  0  0  0
  126.0618  136.2583  161.6495 N   0  0  0  0  0  0  0  0  0  0  0  0
  126.6675  135.3322  160.8067 C   0  0  0  0  0  0  0  0  0  0  0  0
  126.0459  134.2957  160.1911 C   0  0  0  0  0  0  0  0  0  0  0  0
  127.0245  133.6178  159.4385 C   0  0  0  0  0  0  0  0  0  0  0  0
  128.1974  134.2766  159.6331 C   0  0  0  0  0  0  0  0  0  0  0  0
  129.5009  133.9179  159.0369 C   0  0  0  0  0  0  0  0  0  0  0  0
  129.7296  132.9085  158.2200 N   0  0  0  0  0  0  0  0  0  0  0  0
  131.0899  132.9189  157.8864 N   0  0  0  0  0  0  0  0  0  0  0  0
  131.5366  132.2884  157.3002 H   0  0  0  0  0  0  0  0  0  0  0  0
  131.6721  133.9586  158.5225 C   0  0  0  0  0  0  0  0  0  0  0  0
  130.7208  134.5983  159.2357 C   0  0  0  0  0  0  0  0  0  0  0  0
  130.9261  135.8195  160.0946 C   0  0  0  0  0  0  0  0  0  0  0  0
  132.3371  136.2249  160.0400 N   0  0  0  0  0  0  0  0  0  0  0  0
  132.9166  135.4725  160.3810 H   0  0  0  0  0  0  0  0  0  0  0  0
  132.5891  136.4380  159.0866 H   0  0  0  0  0  0  0  0  0  0  0  0
  132.5372  137.4153  160.8771 C   0  0  2  0  0  0  0  0  0  0  0  0
  131.9595  137.3327  161.7978 H   0  0  0  0  0  0  0  0  0  0  0  0
  132.1456  138.6630  160.1201 C   0  0  0  0  0  0  0  0  0  0  0  0
  133.2035  139.2962  159.6832 C   0  0  0  0  0  0  0  0  0  0  0  0
  134.4718  138.5760  160.0778 C   0  0  0  0  0  0  0  0  0  0  0  0
  134.0383  137.6021  161.1980 C   0  0  0  0  0  0  0  0  0  0  0  0
  127.9673  135.3141  160.4647 O   0  0  0  0  0  0  0  0  0  0  0  0
  126.3583  138.2025  163.0226 N   0  0  0  0  0  0  0  0  0  0  0  0
  128.3746  140.5754  165.0540 C   0  0  0  0  0  0  0  0  0  0  0  0
  128.2809  141.6716  165.8867 C   0  0  0  0  0  0  0  0  0  0  0  0
  125.0895  142.5820  165.2476 H   0  0  0  0  0  0  0  0  0  0  0  0
  125.2437  140.6350  163.7522 H   0  0  0  0  0  0  0  0  0  0  0  0
  129.4897  139.0125  162.8345 H   0  0  0  0  0  0  0  0  0  0  0  0
  125.1130  136.1926  161.8403 H   0  0  0  0  0  0  0  0  0  0  0  0
  124.9993  134.0391  160.2639 H   0  0  0  0  0  0  0  0  0  0  0  0
  126.8730  132.7401  158.8276 H   0  0  0  0  0  0  0  0  0  0  0  0
  132.7153  134.2327  158.4669 H   0  0  0  0  0  0  0  0  0  0  0  0
  130.3002  136.6322  159.7262 H   0  0  0  0  0  0  0  0  0  0  0  0
  130.6539  135.5893  161.1245 H   0  0  0  0  0  0  0  0  0  0  0  0
  131.1277  138.9873  159.9617 H   0  0  0  0  0  0  0  0  0  0  0  0
  133.1739  140.2144  159.1152 H   0  0  0  0  0  0  0  0  0  0  0  0
  135.2091  139.2846  160.4551 H   0  0  0  0  0  0  0  0  0  0  0  0
  134.8764  138.0235  159.2298 H   0  0  0  0  0  0  0  0  0  0  0  0
  134.1753  138.0512  162.1816 H   0  0  0  0  0  0  0  0  0  0  0  0
  134.5751  136.6563  161.1234 H   0  0  0  0  0  0  0  0  0  0  0  0
  129.2946  140.0123  165.0026 H   0  0  0  0  0  0  0  0  0  0  0  0
  129.1285  141.9661  166.4878 H   0  0  0  0  0  0  0  0  0  0  0  0
  1  2  1  0
  2 35  2  0
  2  3  1  0
  3  4  2  0
  3 36  1  0
  4  5  1  0
  4 37  1  0
  5  6  1  0
  5 34  2  0
  6 33  1  0
  6  7  2  0
  7  8  1  0
  7 38  1  0
  8  9  1  0
  8 10  1  0
 10 11  1  0
 10 33  2  0
 11 12  1  0
 11 39  1  0
 12 32  1  0
 12 13  2  0
 13 14  1  0
 13 40  1  0
 14 15  2  0
 14 41  1  0
 15 16  1  0
 15 32  1  0
 16 21  1  0
 16 17  2  0
 17 18  1  0
 18 19  1  0
 18 20  1  0
 20 21  2  0
 20 42  1  0
 21 22  1  0
 22 23  1  0
 22 43  1  0
 22 44  1  0
 23 24  1  0
 23 25  1  0
 23 26  1  0
 26 27  1  1
 26 31  1  0
 26 28  1  0
 28 29  2  0
 28 45  1  0
 29 30  1  0
 29 46  1  0
 30 31  1  0
 30 47  1  0
 30 48  1  0
 31 49  1  0
 31 50  1  0
 34 35  1  0
 34 51  1  0
 35 52  1  0
M  CHG  1  23   1
M  END
>  <DOCK_score>  (1) 
-50.125019

>  <SMILES>  (1) 
Fc1ccc(-c2c[nH]c(Nc3ccc(-c4n[nH]cc4C[NH2+][C@@H]4C=CCC4)o3)n2)cc1

$$$$
