O=C1CC[C@H](NC(NC2CC2)=[NH+]C2COc3cc(Cl)ccc3C2)CN1
     RDKit          3D

 49 52  0  0  1  0  0  0  0  0999 V2000
  123.6813  134.0698  161.6242 O   0  0  0  0  0  0  0  0  0  0  0  0
  124.8484  134.2501  161.3481 C   0  0  0  0  0  0  0  0  0  0  0  0
  125.6441  133.0867  160.8297 C   0  0  0  0  0  0  0  0  0  0  0  0
  127.1407  133.3812  160.9571 C   0  0  0  0  0  0  0  0  0  0  0  0
  127.4119  134.7739  160.3754 C   0  0  2  0  0  0  0  0  0  0  0  0
  126.9950  134.8379  159.3702 H   0  0  0  0  0  0  0  0  0  0  0  0
  128.8564  135.0126  160.3244 N   0  0  0  0  0  0  0  0  0  0  0  0
  129.5724  134.6598  159.2052 C   0  0  0  0  0  0  0  0  0  0  0  0
  128.9329  134.0826  158.1336 N   0  0  0  0  0  0  0  0  0  0  0  0
  129.6962  133.7066  156.9409 C   0  0  0  0  0  0  0  0  0  0  0  0
  129.5280  132.2795  156.4156 C   0  0  0  0  0  0  0  0  0  0  0  0
  130.8249  132.6887  157.1165 C   0  0  0  0  0  0  0  0  0  0  0  0
  130.8576  134.8722  159.1598 N   0  0  0  0  0  0  0  0  0  0  0  0
  131.2905  135.0477  158.3098 H   0  0  0  0  0  0  0  0  0  0  0  0
  131.6484  134.8459  160.3928 C   0  0  1  0  0  0  0  0  0  0  0  0
  132.7401  133.7735  160.2840 C   0  0  0  0  0  0  0  0  0  0  0  0
  133.4262  133.7012  161.5346 O   0  0  0  0  0  0  0  0  0  0  0  0
  133.8593  134.8633  162.0890 C   0  0  0  0  0  0  0  0  0  0  0  0
  134.8282  134.8025  163.0856 C   0  0  0  0  0  0  0  0  0  0  0  0
  135.2837  135.9611  163.6830 C   0  0  0  0  0  0  0  0  0  0  0  0
  136.4892  135.8798  164.9296 Cl  0  0  0  0  0  0  0  0  0  0  0  0
  134.7824  137.1875  163.2830 C   0  0  0  0  0  0  0  0  0  0  0  0
  133.8253  137.2508  162.2897 C   0  0  0  0  0  0  0  0  0  0  0  0
  133.3631  136.0915  161.6887 C   0  0  0  0  0  0  0  0  0  0  0  0
  132.3258  136.2027  160.6002 C   0  0  0  0  0  0  0  0  0  0  0  0
  126.7502  135.8205  161.2728 C   0  0  0  0  0  0  0  0  0  0  0  0
  125.3567  135.4707  161.5215 N   0  0  0  0  0  0  0  0  0  0  0  0
  125.3964  132.9169  159.7819 H   0  0  0  0  0  0  0  0  0  0  0  0
  125.4000  132.1951  161.4073 H   0  0  0  0  0  0  0  0  0  0  0  0
  127.7101  132.6350  160.4031 H   0  0  0  0  0  0  0  0  0  0  0  0
  127.4309  133.3595  162.0075 H   0  0  0  0  0  0  0  0  0  0  0  0
  129.3075  135.4198  161.0804 H   0  0  0  0  0  0  0  0  0  0  0  0
  127.9765  133.9245  158.1671 H   0  0  0  0  0  0  0  0  0  0  0  0
  129.8430  134.4993  156.2074 H   0  0  0  0  0  0  0  0  0  0  0  0
  128.8494  131.6204  156.9572 H   0  0  0  0  0  0  0  0  0  0  0  0
  129.5638  132.1331  155.3360 H   0  0  0  0  0  0  0  0  0  0  0  0
  131.7140  132.8116  156.4981 H   0  0  0  0  0  0  0  0  0  0  0  0
  130.9997  132.2990  158.1193 H   0  0  0  0  0  0  0  0  0  0  0  0
  130.9997  134.6250  161.2405 H   0  0  0  0  0  0  0  0  0  0  0  0
  133.4422  134.0431  159.4951 H   0  0  0  0  0  0  0  0  0  0  0  0
  132.2858  132.8088  160.0582 H   0  0  0  0  0  0  0  0  0  0  0  0
  135.2228  133.8460  163.3952 H   0  0  0  0  0  0  0  0  0  0  0  0
  135.1398  138.0947  163.7473 H   0  0  0  0  0  0  0  0  0  0  0  0
  133.4355  138.2090  161.9794 H   0  0  0  0  0  0  0  0  0  0  0  0
  131.5774  136.9417  160.8864 H   0  0  0  0  0  0  0  0  0  0  0  0
  132.8057  136.5140  159.6724 H   0  0  0  0  0  0  0  0  0  0  0  0
  127.2824  135.8686  162.2228 H   0  0  0  0  0  0  0  0  0  0  0  0
  126.7989  136.7947  160.7864 H   0  0  0  0  0  0  0  0  0  0  0  0
  124.7612  136.1714  161.8302 H   0  0  0  0  0  0  0  0  0  0  0  0
  1  2  2  0
  2 27  1  0
  2  3  1  0
  3  4  1  0
  3 28  1  0
  3 29  1  0
  4  5  1  0
  4 30  1  0
  4 31  1  0
  5  6  1  6
  5  7  1  0
  5 26  1  0
  7 32  1  0
  8  7  1  0
  8  9  1  0
  8 13  2  0
  9 10  1  0
  9 33  1  0
 10 12  1  0
 10 11  1  0
 10 34  1  0
 11 12  1  0
 11 35  1  0
 11 36  1  0
 12 37  1  0
 12 38  1  0
 13 14  1  0
 13 15  1  0
 15 25  1  0
 15 16  1  0
 15 39  1  1
 16 17  1  0
 16 40  1  0
 16 41  1  0
 17 18  1  0
 18 24  2  0
 18 19  1  0
 19 20  2  0
 19 42  1  0
 20 21  1  0
 20 22  1  0
 22 23  2  0
 22 43  1  0
 23 24  1  0
 23 44  1  0
 24 25  1  0
 25 45  1  0
 25 46  1  0
 26 27  1  0
 26 47  1  0
 26 48  1  0
 27 49  1  0
M  CHG  1  13   1
M  END
>  <DOCK_score>  (1) 
-49.148952

>  <SMILES>  (1) 
O=C1CC[C@H](NC(NC2CC2)=[NH+]C2COc3cc(Cl)ccc3C2)CN1

$$$$
