c1ccc2c(C3CC[NH+](Cc4c[nH]nc4OC[C@H]4COC5(CCC5)CN4)CC3)c[nH]c2c1
     RDKit          3D

 66 71  0  0  1  0  0  0  0  0999 V2000
  138.0579  136.6429  164.2318 C   0  0  0  0  0  0  0  0  0  0  0  0
  137.8857  135.4361  163.5676 C   0  0  0  0  0  0  0  0  0  0  0  0
  136.6909  135.1325  162.9785 C   0  0  0  0  0  0  0  0  0  0  0  0
  135.6343  136.0429  163.0447 C   0  0  0  0  0  0  0  0  0  0  0  0
  134.2589  136.0448  162.5406 C   0  0  0  0  0  0  0  0  0  0  0  0
  133.5925  134.9485  161.7500 C   0  0  2  0  0  0  0  0  0  0  0  0
  133.1408  135.4974  160.3935 C   0  0  0  0  0  0  0  0  0  0  0  0
  132.3951  134.4017  159.6287 C   0  0  0  0  0  0  0  0  0  0  0  0
  131.2221  133.9732  160.4000 N   0  0  1  0  0  0  0  0  0  0  0  0
  130.6324  134.7709  160.5844 H   0  0  0  0  0  0  0  0  0  0  0  0
  130.4669  132.9778  159.6275 C   0  0  0  0  0  0  0  0  0  0  0  0
  129.6170  133.6791  158.5994 C   0  0  0  0  0  0  0  0  0  0  0  0
  129.9900  133.9922  157.3373 C   0  0  0  0  0  0  0  0  0  0  0  0
  128.9485  134.6077  156.7394 N   0  0  0  0  0  0  0  0  0  0  0  0
  128.9299  134.9414  155.8288 H   0  0  0  0  0  0  0  0  0  0  0  0
  127.9010  134.6857  157.6661 N   0  0  0  0  0  0  0  0  0  0  0  0
  128.3009  134.1286  158.7834 C   0  0  0  0  0  0  0  0  0  0  0  0
  127.5675  134.0069  159.9221 O   0  0  0  0  0  0  0  0  0  0  0  0
  126.2400  134.5354  159.8985 C   0  0  0  0  0  0  0  0  0  0  0  0
  125.8509  135.0000  161.3033 C   0  0  1  0  0  0  0  0  0  0  0  0
  124.8384  135.4031  161.2852 H   0  0  0  0  0  0  0  0  0  0  0  0
  125.9099  133.8129  162.2676 C   0  0  0  0  0  0  0  0  0  0  0  0
  125.5757  134.2591  163.5864 O   0  0  0  0  0  0  0  0  0  0  0  0
  126.4046  135.3226  164.0528 C   0  0  0  0  0  0  0  0  0  0  0  0
  127.7992  134.8637  164.4970 C   0  0  0  0  0  0  0  0  0  0  0  0
  127.6659  135.8589  165.6625 C   0  0  0  0  0  0  0  0  0  0  0  0
  126.1417  135.7117  165.5128 C   0  0  0  0  0  0  0  0  0  0  0  0
  126.4308  136.5155  163.0985 C   0  0  0  0  0  0  0  0  0  0  0  0
  126.7851  136.0430  161.7506 N   0  0  0  0  0  0  0  0  0  0  0  0
  131.6519  133.3799  161.6720 C   0  0  0  0  0  0  0  0  0  0  0  0
  132.3690  134.4363  162.5154 C   0  0  0  0  0  0  0  0  0  0  0  0
  133.7047  137.2083  162.9165 C   0  0  0  0  0  0  0  0  0  0  0  0
  134.6129  137.9516  163.6201 N   0  0  0  0  0  0  0  0  0  0  0  0
  134.4430  138.8299  163.9951 H   0  0  0  0  0  0  0  0  0  0  0  0
  135.8037  137.2671  163.7164 C   0  0  0  0  0  0  0  0  0  0  0  0
  137.0289  137.5555  164.3092 C   0  0  0  0  0  0  0  0  0  0  0  0
  139.0083  136.8689  164.6923 H   0  0  0  0  0  0  0  0  0  0  0  0
  138.7027  134.7318  163.5157 H   0  0  0  0  0  0  0  0  0  0  0  0
  136.5644  134.1919  162.4632 H   0  0  0  0  0  0  0  0  0  0  0  0
  134.2959  134.1299  161.5973 H   0  0  0  0  0  0  0  0  0  0  0  0
  132.4780  136.3489  160.5478 H   0  0  0  0  0  0  0  0  0  0  0  0
  134.0124  135.8130  159.8201 H   0  0  0  0  0  0  0  0  0  0  0  0
  133.0588  133.5508  159.4747 H   0  0  0  0  0  0  0  0  0  0  0  0
  132.0723  134.7896  158.6626 H   0  0  0  0  0  0  0  0  0  0  0  0
  131.1615  132.3037  159.1261 H   0  0  0  0  0  0  0  0  0  0  0  0
  129.8266  132.4060  160.2993 H   0  0  0  0  0  0  0  0  0  0  0  0
  130.9495  133.7839  156.8874 H   0  0  0  0  0  0  0  0  0  0  0  0
  126.1977  135.3806  159.2115 H   0  0  0  0  0  0  0  0  0  0  0  0
  125.5471  133.7622  159.5665 H   0  0  0  0  0  0  0  0  0  0  0  0
  125.1986  133.0503  161.9501 H   0  0  0  0  0  0  0  0  0  0  0  0
  126.9163  133.3941  162.2684 H   0  0  0  0  0  0  0  0  0  0  0  0
  127.8358  133.8215  164.8142 H   0  0  0  0  0  0  0  0  0  0  0  0
  128.5891  135.1207  163.7911 H   0  0  0  0  0  0  0  0  0  0  0  0
  128.0330  136.8580  165.4276 H   0  0  0  0  0  0  0  0  0  0  0  0
  128.0504  135.4774  166.6084 H   0  0  0  0  0  0  0  0  0  0  0  0
  125.5990  136.6504  165.6241 H   0  0  0  0  0  0  0  0  0  0  0  0
  125.7200  134.9041  166.1111 H   0  0  0  0  0  0  0  0  0  0  0  0
  125.4473  136.9844  163.0737 H   0  0  0  0  0  0  0  0  0  0  0  0
  127.1726  137.2381  163.4384 H   0  0  0  0  0  0  0  0  0  0  0  0
  127.7376  135.7114  161.7224 H   0  0  0  0  0  0  0  0  0  0  0  0
  132.3314  132.5508  161.4743 H   0  0  0  0  0  0  0  0  0  0  0  0
  130.7800  133.0134  162.2139 H   0  0  0  0  0  0  0  0  0  0  0  0
  132.6888  133.9935  163.4585 H   0  0  0  0  0  0  0  0  0  0  0  0
  131.6902  135.2658  162.7137 H   0  0  0  0  0  0  0  0  0  0  0  0
  132.6923  137.5126  162.6959 H   0  0  0  0  0  0  0  0  0  0  0  0
  137.1714  138.4896  164.8320 H   0  0  0  0  0  0  0  0  0  0  0  0
  1 36  2  0
  1  2  1  0
  1 37  1  0
  2  3  2  0
  2 38  1  0
  3  4  1  0
  3 39  1  0
  4 35  2  0
  4  5  1  0
  5  6  1  0
  5 32  2  0
  6 31  1  0
  6  7  1  0
  6 40  1  6
  7  8  1  0
  7 41  1  0
  7 42  1  0
  8  9  1  0
  8 43  1  0
  8 44  1  0
  9 10  1  1
  9 11  1  0
  9 30  1  0
 11 12  1  0
 11 45  1  0
 11 46  1  0
 12 17  1  0
 12 13  2  0
 13 14  1  0
 13 47  1  0
 14 15  1  0
 14 16  1  0
 16 17  2  0
 17 18  1  0
 18 19  1  0
 19 20  1  0
 19 48  1  0
 19 49  1  0
 20 21  1  6
 20 29  1  0
 20 22  1  0
 22 23  1  0
 22 50  1  0
 22 51  1  0
 23 24  1  0
 24 27  1  0
 24 25  1  0
 24 28  1  0
 25 26  1  0
 25 52  1  0
 25 53  1  0
 26 27  1  0
 26 54  1  0
 26 55  1  0
 27 56  1  0
 27 57  1  0
 28 29  1  0
 28 58  1  0
 28 59  1  0
 29 60  1  0
 30 31  1  0
 30 61  1  0
 30 62  1  0
 31 63  1  0
 31 64  1  0
 32 33  1  0
 32 65  1  0
 33 34  1  0
 33 35  1  0
 35 36  1  0
 36 66  1  0
M  CHG  1   9   1
M  END
>  <DOCK_score>  (1) 
-41.267513

>  <SMILES>  (1) 
c1ccc2c(C3CC[NH+](Cc4c[nH]nc4OC[C@H]4COC5(CCC5)CN4)CC3)c[nH]c2c1

$$$$
