Oc1ccc(Nc2[nH]cc(-c3ccccc3)[nH+]2)c(SC2CCCCC2)c1
     RDKit          3D

 50 53  0  0  1  0  0  0  0  0999 V2000
  128.1329  136.1275  163.7070 O   0  0  0  0  0  0  0  0  0  0  0  0
  128.6939  135.9030  162.4888 C   0  0  0  0  0  0  0  0  0  0  0  0
  127.8858  135.6453  161.3910 C   0  0  0  0  0  0  0  0  0  0  0  0
  128.4520  135.4160  160.1507 C   0  0  0  0  0  0  0  0  0  0  0  0
  129.8298  135.4431  160.0005 C   0  0  0  0  0  0  0  0  0  0  0  0
  130.4041  135.2047  158.7430 N   0  0  0  0  0  0  0  0  0  0  0  0
  130.1841  133.9991  158.0986 C   0  0  0  0  0  0  0  0  0  0  0  0
  129.4287  132.9715  158.5750 N   0  0  0  0  0  0  0  0  0  0  0  0
  128.9523  132.9521  159.4197 H   0  0  0  0  0  0  0  0  0  0  0  0
  129.4665  131.9671  157.6391 C   0  0  0  0  0  0  0  0  0  0  0  0
  130.2429  132.4088  156.6186 C   0  0  0  0  0  0  0  0  0  0  0  0
  130.5693  131.6577  155.3818 C   0  0  0  0  0  0  0  0  0  0  0  0
  130.2057  132.1681  154.1369 C   0  0  0  0  0  0  0  0  0  0  0  0
  130.5166  131.4674  152.9892 C   0  0  0  0  0  0  0  0  0  0  0  0
  131.1775  130.2557  153.0733 C   0  0  0  0  0  0  0  0  0  0  0  0
  131.5364  129.7414  154.3067 C   0  0  0  0  0  0  0  0  0  0  0  0
  131.2356  130.4360  155.4606 C   0  0  0  0  0  0  0  0  0  0  0  0
  130.6642  133.6608  156.9266 N   0  0  0  0  0  0  0  0  0  0  0  0
  131.2319  134.2162  156.3697 H   0  0  0  0  0  0  0  0  0  0  0  0
  130.6448  135.7019  161.1028 C   0  0  0  0  0  0  0  0  0  0  0  0
  132.3965  135.7367  160.9171 S   0  0  0  0  0  0  0  0  0  0  0  0
  132.7305  137.4751  160.5207 C   0  0  0  0  0  0  0  0  0  0  0  0
  134.1009  137.5912  159.8504 C   0  0  0  0  0  0  0  0  0  0  0  0
  134.3826  139.0573  159.5161 C   0  0  0  0  0  0  0  0  0  0  0  0
  134.3725  139.8848  160.8028 C   0  0  0  0  0  0  0  0  0  0  0  0
  133.0022  139.7688  161.4731 C   0  0  0  0  0  0  0  0  0  0  0  0
  132.7205  138.3026  161.8076 C   0  0  0  0  0  0  0  0  0  0  0  0
  130.0727  135.9314  162.3457 C   0  0  0  0  0  0  0  0  0  0  0  0
  128.7746  136.2974  164.4103 H   0  0  0  0  0  0  0  0  0  0  0  0
  126.8121  135.6241  161.5055 H   0  0  0  0  0  0  0  0  0  0  0  0
  127.8201  135.2155  159.2980 H   0  0  0  0  0  0  0  0  0  0  0  0
  130.9553  135.8847  158.3249 H   0  0  0  0  0  0  0  0  0  0  0  0
  128.9721  131.0090  157.7032 H   0  0  0  0  0  0  0  0  0  0  0  0
  129.6855  133.1123  154.0702 H   0  0  0  0  0  0  0  0  0  0  0  0
  130.2396  131.8643  152.0237 H   0  0  0  0  0  0  0  0  0  0  0  0
  131.4149  129.7088  152.1727 H   0  0  0  0  0  0  0  0  0  0  0  0
  132.0530  128.7948  154.3666 H   0  0  0  0  0  0  0  0  0  0  0  0
  131.5164  130.0341  156.4229 H   0  0  0  0  0  0  0  0  0  0  0  0
  131.9620  137.8474  159.8432 H   0  0  0  0  0  0  0  0  0  0  0  0
  134.8694  137.2188  160.5278 H   0  0  0  0  0  0  0  0  0  0  0  0
  134.1080  137.0015  158.9337 H   0  0  0  0  0  0  0  0  0  0  0  0
  133.6140  139.4296  158.8386 H   0  0  0  0  0  0  0  0  0  0  0  0
  135.3590  139.1400  159.0385 H   0  0  0  0  0  0  0  0  0  0  0  0
  134.5733  140.9294  160.5648 H   0  0  0  0  0  0  0  0  0  0  0  0
  135.1410  139.5126  161.4803 H   0  0  0  0  0  0  0  0  0  0  0  0
  132.2336  140.1411  160.7959 H   0  0  0  0  0  0  0  0  0  0  0  0
  132.9949  140.3585  162.3900 H   0  0  0  0  0  0  0  0  0  0  0  0
  131.7441  138.2200  162.2851 H   0  0  0  0  0  0  0  0  0  0  0  0
  133.4890  137.9303  162.4850 H   0  0  0  0  0  0  0  0  0  0  0  0
  130.7008  136.1317  163.2011 H   0  0  0  0  0  0  0  0  0  0  0  0
  1  2  1  0
  1 29  1  0
  2 28  2  0
  2  3  1  0
  3  4  2  0
  3 30  1  0
  4  5  1  0
  4 31  1  0
  5  6  1  0
  5 20  2  0
  6 32  1  0
  7  6  1  0
  7 18  2  0
  7  8  1  0
  8  9  1  0
  8 10  1  0
 10 11  2  0
 10 33  1  0
 11 12  1  0
 11 18  1  0
 12 17  1  0
 12 13  2  0
 13 14  1  0
 13 34  1  0
 14 15  2  0
 14 35  1  0
 15 16  1  0
 15 36  1  0
 16 17  2  0
 16 37  1  0
 17 38  1  0
 18 19  1  0
 20 21  1  0
 20 28  1  0
 21 22  1  0
 22 27  1  0
 22 23  1  0
 22 39  1  0
 23 24  1  0
 23 40  1  0
 23 41  1  0
 24 25  1  0
 24 42  1  0
 24 43  1  0
 25 26  1  0
 25 44  1  0
 25 45  1  0
 26 27  1  0
 26 46  1  0
 26 47  1  0
 27 48  1  0
 27 49  1  0
 28 50  1  0
M  CHG  1  18   1
M  END
>  <DOCK_score>  (1) 
-56.409546

>  <SMILES>  (1) 
Oc1ccc(Nc2[nH]cc(-c3ccccc3)[nH+]2)c(SC2CCCCC2)c1

$$$$
