Nc1ccc(-c2c[nH]c(N[C@@H](CCc3cnn(-c4ccccc4)c3)c3ccccc3)[nH+]2)cc1
     RDKit          3D

 60 64  0  0  1  0  0  0  0  0999 V2000
  131.2401  129.5807  151.1609 N   0  0  0  0  0  0  0  0  0  0  0  0
  130.9731  130.2233  152.3722 C   0  0  0  0  0  0  0  0  0  0  0  0
  130.5628  131.5512  152.3774 C   0  0  0  0  0  0  0  0  0  0  0  0
  130.2991  132.1877  153.5719 C   0  0  0  0  0  0  0  0  0  0  0  0
  130.4440  131.4980  154.7748 C   0  0  0  0  0  0  0  0  0  0  0  0
  130.1614  132.1809  156.0612 C   0  0  0  0  0  0  0  0  0  0  0  0
  129.6996  131.5927  157.1921 C   0  0  0  0  0  0  0  0  0  0  0  0
  129.5800  132.5841  158.1370 N   0  0  0  0  0  0  0  0  0  0  0  0
  129.2725  132.4736  159.0503 H   0  0  0  0  0  0  0  0  0  0  0  0
  129.9728  133.7494  157.5542 C   0  0  0  0  0  0  0  0  0  0  0  0
  130.0016  134.9891  158.1695 N   0  0  0  0  0  0  0  0  0  0  0  0
  129.5852  135.1228  159.5677 C   0  0  1  0  0  0  0  0  0  0  0  0
  129.9548  134.2719  160.1399 H   0  0  0  0  0  0  0  0  0  0  0  0
  130.1590  136.4162  160.1494 C   0  0  0  0  0  0  0  0  0  0  0  0
  130.1660  136.3295  161.6770 C   0  0  0  0  0  0  0  0  0  0  0  0
  130.7312  137.6036  162.2499 C   0  0  0  0  0  0  0  0  0  0  0  0
  130.6456  138.8751  161.6719 C   0  0  0  0  0  0  0  0  0  0  0  0
  131.2474  139.7261  162.4633 N   0  0  0  0  0  0  0  0  0  0  0  0
  131.7361  139.0232  163.5721 N   0  0  0  0  0  0  0  0  0  0  0  0
  132.4419  139.5724  164.6516 C   0  0  0  0  0  0  0  0  0  0  0  0
  132.8654  138.7573  165.6928 C   0  0  0  0  0  0  0  0  0  0  0  0
  133.5652  139.3005  166.7523 C   0  0  0  0  0  0  0  0  0  0  0  0
  133.8348  140.6564  166.7823 C   0  0  0  0  0  0  0  0  0  0  0  0
  133.4093  141.4717  165.7496 C   0  0  0  0  0  0  0  0  0  0  0  0
  132.7142  140.9335  164.6844 C   0  0  0  0  0  0  0  0  0  0  0  0
  131.4058  137.7210  163.4170 C   0  0  0  0  0  0  0  0  0  0  0  0
  128.0806  135.1628  159.6420 C   0  0  0  0  0  0  0  0  0  0  0  0
  127.4302  134.6706  160.7581 C   0  0  0  0  0  0  0  0  0  0  0  0
  126.0502  134.7113  160.8280 C   0  0  0  0  0  0  0  0  0  0  0  0
  125.3202  135.2359  159.7779 C   0  0  0  0  0  0  0  0  0  0  0  0
  125.9703  135.7233  158.6596 C   0  0  0  0  0  0  0  0  0  0  0  0
  127.3505  135.6866  158.5916 C   0  0  0  0  0  0  0  0  0  0  0  0
  130.3141  133.5052  156.3123 N   0  0  0  0  0  0  0  0  0  0  0  0
  130.6277  134.1659  155.6751 H   0  0  0  0  0  0  0  0  0  0  0  0
  130.8602  130.1677  154.7674 C   0  0  0  0  0  0  0  0  0  0  0  0
  131.1177  129.5337  153.5702 C   0  0  0  0  0  0  0  0  0  0  0  0
  131.1391  130.0611  150.3243 H   0  0  0  0  0  0  0  0  0  0  0  0
  131.5264  128.6539  151.1564 H   0  0  0  0  0  0  0  0  0  0  0  0
  130.4507  132.0851  151.4453 H   0  0  0  0  0  0  0  0  0  0  0  0
  129.9803  133.2195  153.5756 H   0  0  0  0  0  0  0  0  0  0  0  0
  129.4691  130.5459  157.3251 H   0  0  0  0  0  0  0  0  0  0  0  0
  130.2976  135.7693  157.6750 H   0  0  0  0  0  0  0  0  0  0  0  0
  129.5439  137.2598  159.8362 H   0  0  0  0  0  0  0  0  0  0  0  0
  131.1781  136.5562  159.7887 H   0  0  0  0  0  0  0  0  0  0  0  0
  130.7813  135.4860  161.9901 H   0  0  0  0  0  0  0  0  0  0  0  0
  129.1470  136.1896  162.0376 H   0  0  0  0  0  0  0  0  0  0  0  0
  130.1659  139.1130  160.7341 H   0  0  0  0  0  0  0  0  0  0  0  0
  132.6512  137.6989  165.6721 H   0  0  0  0  0  0  0  0  0  0  0  0
  133.8990  138.6662  167.5602 H   0  0  0  0  0  0  0  0  0  0  0  0
  134.3790  141.0796  167.6137 H   0  0  0  0  0  0  0  0  0  0  0  0
  133.6214  142.5304  165.7757 H   0  0  0  0  0  0  0  0  0  0  0  0
  132.3828  141.5705  163.8779 H   0  0  0  0  0  0  0  0  0  0  0  0
  131.6385  136.9189  164.1018 H   0  0  0  0  0  0  0  0  0  0  0  0
  128.0005  134.2573  161.5769 H   0  0  0  0  0  0  0  0  0  0  0  0
  125.5423  134.3308  161.7019 H   0  0  0  0  0  0  0  0  0  0  0  0
  124.2419  135.2652  159.8314 H   0  0  0  0  0  0  0  0  0  0  0  0
  125.3999  136.1333  157.8391 H   0  0  0  0  0  0  0  0  0  0  0  0
  127.8583  136.0673  157.7177 H   0  0  0  0  0  0  0  0  0  0  0  0
  130.9770  129.6328  155.6982 H   0  0  0  0  0  0  0  0  0  0  0  0
  131.4363  128.5018  153.5637 H   0  0  0  0  0  0  0  0  0  0  0  0
  1  2  1  0
  1 37  1  0
  1 38  1  0
  2 36  2  0
  2  3  1  0
  3  4  2  0
  3 39  1  0
  4  5  1  0
  4 40  1  0
  5  6  1  0
  5 35  2  0
  6 33  1  0
  6  7  2  0
  7  8  1  0
  7 41  1  0
  8  9  1  0
  8 10  1  0
 10 11  1  0
 10 33  2  0
 11 12  1  0
 11 42  1  0
 12 13  1  1
 12 14  1  0
 12 27  1  0
 14 15  1  0
 14 43  1  0
 14 44  1  0
 15 16  1  0
 15 45  1  0
 15 46  1  0
 16 26  2  0
 16 17  1  0
 17 18  2  0
 17 47  1  0
 18 19  1  0
 19 20  1  0
 19 26  1  0
 20 25  1  0
 20 21  2  0
 21 22  1  0
 21 48  1  0
 22 23  2  0
 22 49  1  0
 23 24  1  0
 23 50  1  0
 24 25  2  0
 24 51  1  0
 25 52  1  0
 26 53  1  0
 27 32  1  0
 27 28  2  0
 28 29  1  0
 28 54  1  0
 29 30  2  0
 29 55  1  0
 30 31  1  0
 30 56  1  0
 31 32  2  0
 31 57  1  0
 32 58  1  0
 33 34  1  0
 35 36  1  0
 35 59  1  0
 36 60  1  0
M  CHG  1  33   1
M  END
>  <DOCK_score>  (1) 
-56.890167

>  <SMILES>  (1) 
Nc1ccc(-c2c[nH]c(N[C@@H](CCc3cnn(-c4ccccc4)c3)c3ccccc3)[nH+]2)cc1

$$$$
