CCc1ccc(-c2c[nH]c(N[C@@H](Cc3cnnn3C)c3ccc(CC)cc3)[nH+]2)cc1
     RDKit          3D

 59 62  0  0  1  0  0  0  0  0999 V2000
  130.1541  128.4535  151.4186 C   0  0  0  0  0  0  0  0  0  0  0  0
  131.3065  129.4041  151.7489 C   0  0  0  0  0  0  0  0  0  0  0  0
  130.9719  130.1870  152.9923 C   0  0  0  0  0  0  0  0  0  0  0  0
  131.3282  129.6924  154.2344 C   0  0  0  0  0  0  0  0  0  0  0  0
  131.0236  130.4044  155.3766 C   0  0  0  0  0  0  0  0  0  0  0  0
  130.3560  131.6239  155.2772 C   0  0  0  0  0  0  0  0  0  0  0  0
  130.0259  132.3939  156.5013 C   0  0  0  0  0  0  0  0  0  0  0  0
  129.2440  131.9692  157.5246 C   0  0  0  0  0  0  0  0  0  0  0  0
  129.2041  132.9881  158.4452 N   0  0  0  0  0  0  0  0  0  0  0  0
  128.7237  132.9825  159.2878 H   0  0  0  0  0  0  0  0  0  0  0  0
  129.9635  134.0065  157.9571 C   0  0  0  0  0  0  0  0  0  0  0  0
  130.1823  135.2213  158.5838 N   0  0  0  0  0  0  0  0  0  0  0  0
  130.1783  135.3021  160.0466 C   0  0  1  0  0  0  0  0  0  0  0  0
  129.3832  134.6709  160.4431 H   0  0  0  0  0  0  0  0  0  0  0  0
  131.5271  134.8235  160.5875 C   0  0  0  0  0  0  0  0  0  0  0  0
  131.5551  133.3167  160.6055 C   0  0  0  0  0  0  0  0  0  0  0  0
  131.9739  132.4996  159.6111 C   0  0  0  0  0  0  0  0  0  0  0  0
  131.8181  131.2480  160.0569 N   0  0  0  0  0  0  0  0  0  0  0  0
  131.3392  131.2878  161.2502 N   0  0  0  0  0  0  0  0  0  0  0  0
  131.1688  132.5089  161.6198 N   0  0  0  0  0  0  0  0  0  0  0  0
  130.6414  132.9483  162.9141 C   0  0  0  0  0  0  0  0  0  0  0  0
  129.9451  136.7293  160.4702 C   0  0  0  0  0  0  0  0  0  0  0  0
  130.8300  137.7185  160.0835 C   0  0  0  0  0  0  0  0  0  0  0  0
  130.6139  139.0284  160.4689 C   0  0  0  0  0  0  0  0  0  0  0  0
  129.5176  139.3478  161.2481 C   0  0  0  0  0  0  0  0  0  0  0  0
  129.2847  140.7749  161.6721 C   0  0  0  0  0  0  0  0  0  0  0  0
  129.9872  141.0316  163.0068 C   0  0  0  0  0  0  0  0  0  0  0  0
  128.6354  138.3579  161.6388 C   0  0  0  0  0  0  0  0  0  0  0  0
  128.8493  137.0486  161.2502 C   0  0  0  0  0  0  0  0  0  0  0  0
  130.4490  133.6495  156.7930 N   0  0  0  0  0  0  0  0  0  0  0  0
  131.0208  134.1953  156.2309 H   0  0  0  0  0  0  0  0  0  0  0  0
  129.9945  132.1143  154.0236 C   0  0  0  0  0  0  0  0  0  0  0  0
  130.3093  131.3964  152.8878 C   0  0  0  0  0  0  0  0  0  0  0  0
  129.2442  129.0300  151.2511 H   0  0  0  0  0  0  0  0  0  0  0  0
  130.3963  127.8875  150.5190 H   0  0  0  0  0  0  0  0  0  0  0  0
  130.0005  127.7658  152.2502 H   0  0  0  0  0  0  0  0  0  0  0  0
  131.4601  130.0917  150.9172 H   0  0  0  0  0  0  0  0  0  0  0  0
  132.2164  128.8276  151.9163 H   0  0  0  0  0  0  0  0  0  0  0  0
  131.8454  128.7474  154.3102 H   0  0  0  0  0  0  0  0  0  0  0  0
  131.3023  130.0178  156.3457 H   0  0  0  0  0  0  0  0  0  0  0  0
  128.7472  131.0134  157.6009 H   0  0  0  0  0  0  0  0  0  0  0  0
  130.3383  136.0190  158.0544 H   0  0  0  0  0  0  0  0  0  0  0  0
  131.6673  135.2016  161.6001 H   0  0  0  0  0  0  0  0  0  0  0  0
  132.3275  135.1941  159.9472 H   0  0  0  0  0  0  0  0  0  0  0  0
  132.3551  132.7990  158.6460 H   0  0  0  0  0  0  0  0  0  0  0  0
  131.4642  133.0750  163.6177 H   0  0  0  0  0  0  0  0  0  0  0  0
  130.1197  133.8974  162.7905 H   0  0  0  0  0  0  0  0  0  0  0  0
  129.9478  132.1996  163.2970 H   0  0  0  0  0  0  0  0  0  0  0  0
  131.6884  137.4684  159.4779 H   0  0  0  0  0  0  0  0  0  0  0  0
  131.3034  139.8016  160.1640 H   0  0  0  0  0  0  0  0  0  0  0  0
  129.6855  141.4490  160.9149 H   0  0  0  0  0  0  0  0  0  0  0  0
  128.2149  140.9504  161.7851 H   0  0  0  0  0  0  0  0  0  0  0  0
  131.0571  140.8562  162.8939 H   0  0  0  0  0  0  0  0  0  0  0  0
  129.8187  142.0639  163.3135 H   0  0  0  0  0  0  0  0  0  0  0  0
  129.5864  140.3576  163.7639 H   0  0  0  0  0  0  0  0  0  0  0  0
  127.7791  138.6073  162.2478 H   0  0  0  0  0  0  0  0  0  0  0  0
  128.1603  136.2751  161.5557 H   0  0  0  0  0  0  0  0  0  0  0  0
  129.4727  133.0563  153.9410 H   0  0  0  0  0  0  0  0  0  0  0  0
  130.0337  131.7776  151.9155 H   0  0  0  0  0  0  0  0  0  0  0  0
  1  2  1  0
  1 34  1  0
  1 35  1  0
  1 36  1  0
  2  3  1  0
  2 37  1  0
  2 38  1  0
  3 33  2  0
  3  4  1  0
  4  5  2  0
  4 39  1  0
  5  6  1  0
  5 40  1  0
  6  7  1  0
  6 32  2  0
  7 30  1  0
  7  8  2  0
  8  9  1  0
  8 41  1  0
  9 10  1  0
  9 11  1  0
 11 12  1  0
 11 30  2  0
 12 13  1  0
 12 42  1  0
 13 14  1  1
 13 15  1  0
 13 22  1  0
 15 16  1  0
 15 43  1  0
 15 44  1  0
 16 20  1  0
 16 17  2  0
 17 18  1  0
 17 45  1  0
 18 19  2  0
 19 20  1  0
 20 21  1  0
 21 46  1  0
 21 47  1  0
 21 48  1  0
 22 29  1  0
 22 23  2  0
 23 24  1  0
 23 49  1  0
 24 25  2  0
 24 50  1  0
 25 26  1  0
 25 28  1  0
 26 27  1  0
 26 51  1  0
 26 52  1  0
 27 53  1  0
 27 54  1  0
 27 55  1  0
 28 29  2  0
 28 56  1  0
 29 57  1  0
 30 31  1  0
 32 33  1  0
 32 58  1  0
 33 59  1  0
M  CHG  1  30   1
M  END
>  <DOCK_score>  (1) 
-61.438358

>  <SMILES>  (1) 
CCc1ccc(-c2c[nH]c(N[C@@H](Cc3cnnn3C)c3ccc(CC)cc3)[nH+]2)cc1

$$$$
