CCc1ccc(-c2c[nH]c(Nc3cnccc3C3=CCCC3)[nH+]2)cc1
     RDKit          3D

 48 51  0  0  1  0  0  0  0  0999 V2000
  130.3785  129.9291  151.0582 C   0  0  0  0  0  0  0  0  0  0  0  0
  131.1678  129.3592  152.2384 C   0  0  0  0  0  0  0  0  0  0  0  0
  130.9048  130.1919  153.4664 C   0  0  0  0  0  0  0  0  0  0  0  0
  130.0542  131.2796  153.3927 C   0  0  0  0  0  0  0  0  0  0  0  0
  129.8058  132.0424  154.5156 C   0  0  0  0  0  0  0  0  0  0  0  0
  130.4224  131.7210  155.7234 C   0  0  0  0  0  0  0  0  0  0  0  0
  130.1637  132.5405  156.9326 C   0  0  0  0  0  0  0  0  0  0  0  0
  129.6340  132.0962  158.0995 C   0  0  0  0  0  0  0  0  0  0  0  0
  129.5689  133.1765  158.9446 N   0  0  0  0  0  0  0  0  0  0  0  0
  129.2335  133.1746  159.8548 H   0  0  0  0  0  0  0  0  0  0  0  0
  130.0614  134.2509  158.2690 C   0  0  0  0  0  0  0  0  0  0  0  0
  130.1706  135.5379  158.7694 N   0  0  0  0  0  0  0  0  0  0  0  0
  129.2639  135.9933  159.7279 C   0  0  0  0  0  0  0  0  0  0  0  0
  127.9628  135.5118  159.7538 C   0  0  0  0  0  0  0  0  0  0  0  0
  127.1050  135.9345  160.6611 N   0  0  0  0  0  0  0  0  0  0  0  0
  127.4312  136.8334  161.5706 C   0  0  0  0  0  0  0  0  0  0  0  0
  128.7004  137.3713  161.6169 C   0  0  0  0  0  0  0  0  0  0  0  0
  129.6512  136.9518  160.6802 C   0  0  0  0  0  0  0  0  0  0  0  0
  131.0222  137.5008  160.6915 C   0  0  0  0  0  0  0  0  0  0  0  0
  131.5742  138.1626  159.6883 C   0  0  0  0  0  0  0  0  0  0  0  0
  132.9843  138.5825  160.0331 C   0  0  0  0  0  0  0  0  0  0  0  0
  133.3701  137.7107  161.2499 C   0  0  0  0  0  0  0  0  0  0  0  0
  131.9820  137.3880  161.8531 C   0  0  0  0  0  0  0  0  0  0  0  0
  130.4208  133.8652  157.0689 N   0  0  0  0  0  0  0  0  0  0  0  0
  130.8067  134.4364  156.3865 H   0  0  0  0  0  0  0  0  0  0  0  0
  131.2826  130.6265  155.7912 C   0  0  0  0  0  0  0  0  0  0  0  0
  131.5191  129.8673  154.6631 C   0  0  0  0  0  0  0  0  0  0  0  0
  130.6911  130.9570  150.8743 H   0  0  0  0  0  0  0  0  0  0  0  0
  130.5683  129.3271  150.1695 H   0  0  0  0  0  0  0  0  0  0  0  0
  129.3136  129.9092  151.2898 H   0  0  0  0  0  0  0  0  0  0  0  0
  130.8553  128.3313  152.4220 H   0  0  0  0  0  0  0  0  0  0  0  0
  132.2330  129.3791  152.0067 H   0  0  0  0  0  0  0  0  0  0  0  0
  129.5804  131.5304  152.4550 H   0  0  0  0  0  0  0  0  0  0  0  0
  129.1383  132.8895  154.4576 H   0  0  0  0  0  0  0  0  0  0  0  0
  129.3222  131.0863  158.3214 H   0  0  0  0  0  0  0  0  0  0  0  0
  130.8771  136.1227  158.4537 H   0  0  0  0  0  0  0  0  0  0  0  0
  127.6506  134.7786  159.0248 H   0  0  0  0  0  0  0  0  0  0  0  0
  126.6924  137.1527  162.2908 H   0  0  0  0  0  0  0  0  0  0  0  0
  128.9567  138.1058  162.3660 H   0  0  0  0  0  0  0  0  0  0  0  0
  131.0834  138.3748  158.7499 H   0  0  0  0  0  0  0  0  0  0  0  0
  133.6543  138.3843  159.1966 H   0  0  0  0  0  0  0  0  0  0  0  0
  133.0111  139.6391  160.2996 H   0  0  0  0  0  0  0  0  0  0  0  0
  133.8826  136.8026  160.9328 H   0  0  0  0  0  0  0  0  0  0  0  0
  133.9789  138.2743  161.9567 H   0  0  0  0  0  0  0  0  0  0  0  0
  131.7256  138.1098  162.6286 H   0  0  0  0  0  0  0  0  0  0  0  0
  131.9712  136.3757  162.2574 H   0  0  0  0  0  0  0  0  0  0  0  0
  131.7634  130.3731  156.7245 H   0  0  0  0  0  0  0  0  0  0  0  0
  132.1855  129.0190  154.7143 H   0  0  0  0  0  0  0  0  0  0  0  0
  1  2  1  0
  1 28  1  0
  1 29  1  0
  1 30  1  0
  2  3  1  0
  2 31  1  0
  2 32  1  0
  3 27  2  0
  3  4  1  0
  4  5  2  0
  4 33  1  0
  5  6  1  0
  5 34  1  0
  6  7  1  0
  6 26  2  0
  7 24  1  0
  7  8  2  0
  8  9  1  0
  8 35  1  0
  9 10  1  0
  9 11  1  0
 11 12  1  0
 11 24  2  0
 12 13  1  0
 12 36  1  0
 13 18  1  0
 13 14  2  0
 14 15  1  0
 14 37  1  0
 15 16  2  0
 16 17  1  0
 16 38  1  0
 17 18  2  0
 17 39  1  0
 18 19  1  0
 19 23  1  0
 19 20  2  0
 20 21  1  0
 20 40  1  0
 21 22  1  0
 21 41  1  0
 21 42  1  0
 22 23  1  0
 22 43  1  0
 22 44  1  0
 23 45  1  0
 23 46  1  0
 24 25  1  0
 26 27  1  0
 26 47  1  0
 27 48  1  0
M  CHG  1  24   1
M  END
>  <DOCK_score>  (1) 
-56.046829

>  <SMILES>  (1) 
CCc1ccc(-c2c[nH]c(Nc3cnccc3C3=CCCC3)[nH+]2)cc1

$$$$
