O=C1CC[C@H](NC(NC2CCC=CCC2)=[NH+]C2Cc3ccc(Br)cc3C2)CN1
     RDKit          3D

 58 61  0  0  1  0  0  0  0  0999 V2000
  125.7076  135.3790  165.5088 O   0  0  0  0  0  0  0  0  0  0  0  0
  126.4621  135.6904  164.6119 C   0  0  0  0  0  0  0  0  0  0  0  0
  127.7578  134.9423  164.4811 C   0  0  0  0  0  0  0  0  0  0  0  0
  128.7332  135.7383  163.6107 C   0  0  0  0  0  0  0  0  0  0  0  0
  128.0022  136.1695  162.3335 C   0  0  2  0  0  0  0  0  0  0  0  0
  127.5415  135.3001  161.8644 H   0  0  0  0  0  0  0  0  0  0  0  0
  128.9552  136.7818  161.4046 N   0  0  0  0  0  0  0  0  0  0  0  0
  129.6170  136.0023  160.4856 C   0  0  0  0  0  0  0  0  0  0  0  0
  129.0207  134.8665  159.9913 N   0  0  0  0  0  0  0  0  0  0  0  0
  129.7258  134.0358  159.0120 C   0  0  0  0  0  0  0  0  0  0  0  0
  128.8007  132.9162  158.5692 C   0  0  0  0  0  0  0  0  0  0  0  0
  129.4174  132.1299  157.4095 C   0  0  0  0  0  0  0  0  0  0  0  0
  130.3228  131.0593  157.9799 C   0  0  0  0  0  0  0  0  0  0  0  0
  131.4543  131.3797  158.5228 C   0  0  0  0  0  0  0  0  0  0  0  0
  131.8853  132.8289  158.5942 C   0  0  0  0  0  0  0  0  0  0  0  0
  131.0210  133.5451  159.6345 C   0  0  0  0  0  0  0  0  0  0  0  0
  130.8098  136.3402  160.0829 N   0  0  0  0  0  0  0  0  0  0  0  0
  131.1047  136.1053  159.1892 H   0  0  0  0  0  0  0  0  0  0  0  0
  131.7050  137.0748  160.9802 C   0  0  1  0  0  0  0  0  0  0  0  0
  133.0690  136.3621  161.0988 C   0  0  0  0  0  0  0  0  0  0  0  0
  134.0884  137.4747  161.2174 C   0  0  0  0  0  0  0  0  0  0  0  0
  135.4017  137.4453  161.6565 C   0  0  0  0  0  0  0  0  0  0  0  0
  136.1540  138.6030  161.6769 C   0  0  0  0  0  0  0  0  0  0  0  0
  135.5945  139.7970  161.2581 C   0  0  0  0  0  0  0  0  0  0  0  0
  136.6217  141.3845  161.2848 Br  0  0  0  0  0  0  0  0  0  0  0  0
  134.2825  139.8291  160.8256 C   0  0  0  0  0  0  0  0  0  0  0  0
  133.5291  138.6674  160.7988 C   0  0  0  0  0  0  0  0  0  0  0  0
  132.0955  138.4379  160.3703 C   0  0  0  0  0  0  0  0  0  0  0  0
  126.9234  137.1871  162.7067 C   0  0  0  0  0  0  0  0  0  0  0  0
  126.0972  136.6788  163.7945 N   0  0  0  0  0  0  0  0  0  0  0  0
  127.5706  133.9720  164.0211 H   0  0  0  0  0  0  0  0  0  0  0  0
  128.1921  134.7949  165.4700 H   0  0  0  0  0  0  0  0  0  0  0  0
  129.5875  135.1131  163.3511 H   0  0  0  0  0  0  0  0  0  0  0  0
  129.0744  136.6197  164.1536 H   0  0  0  0  0  0  0  0  0  0  0  0
  129.1194  137.7372  161.4379 H   0  0  0  0  0  0  0  0  0  0  0  0
  128.1330  134.6150  160.2910 H   0  0  0  0  0  0  0  0  0  0  0  0
  129.9669  134.6501  158.1444 H   0  0  0  0  0  0  0  0  0  0  0  0
  128.6264  132.2418  159.4076 H   0  0  0  0  0  0  0  0  0  0  0  0
  127.8500  133.3420  158.2484 H   0  0  0  0  0  0  0  0  0  0  0  0
  129.9986  132.8028  156.7791 H   0  0  0  0  0  0  0  0  0  0  0  0
  128.6266  131.6648  156.8210 H   0  0  0  0  0  0  0  0  0  0  0  0
  130.0239  130.0224  157.9335 H   0  0  0  0  0  0  0  0  0  0  0  0
  132.0935  130.6088  158.9270 H   0  0  0  0  0  0  0  0  0  0  0  0
  131.7505  133.2993  157.6202 H   0  0  0  0  0  0  0  0  0  0  0  0
  132.9334  132.8849  158.8883 H   0  0  0  0  0  0  0  0  0  0  0  0
  131.5721  134.3962  160.0344 H   0  0  0  0  0  0  0  0  0  0  0  0
  130.7902  132.8547  160.4457 H   0  0  0  0  0  0  0  0  0  0  0  0
  131.2497  137.2058  161.9618 H   0  0  0  0  0  0  0  0  0  0  0  0
  133.2625  135.7651  160.2075 H   0  0  0  0  0  0  0  0  0  0  0  0
  133.0919  135.7317  161.9877 H   0  0  0  0  0  0  0  0  0  0  0  0
  135.8390  136.5135  161.9836 H   0  0  0  0  0  0  0  0  0  0  0  0
  137.1776  138.5766  162.0199 H   0  0  0  0  0  0  0  0  0  0  0  0
  133.8447  140.7621  160.5030 H   0  0  0  0  0  0  0  0  0  0  0  0
  132.0273  138.3992  159.2832 H   0  0  0  0  0  0  0  0  0  0  0  0
  131.4527  139.2259  160.7626 H   0  0  0  0  0  0  0  0  0  0  0  0
  127.3983  138.1172  163.0191 H   0  0  0  0  0  0  0  0  0  0  0  0
  126.2952  137.3813  161.8374 H   0  0  0  0  0  0  0  0  0  0  0  0
  125.2272  137.0851  163.9327 H   0  0  0  0  0  0  0  0  0  0  0  0
  1  2  2  0
  2 30  1  0
  2  3  1  0
  3  4  1  0
  3 31  1  0
  3 32  1  0
  4  5  1  0
  4 33  1  0
  4 34  1  0
  5  6  1  6
  5  7  1  0
  5 29  1  0
  7 35  1  0
  8  7  1  0
  8  9  1  0
  8 17  2  0
  9 10  1  0
  9 36  1  0
 10 16  1  0
 10 11  1  0
 10 37  1  0
 11 12  1  0
 11 38  1  0
 11 39  1  0
 12 13  1  0
 12 40  1  0
 12 41  1  0
 13 14  2  0
 13 42  1  0
 14 15  1  0
 14 43  1  0
 15 16  1  0
 15 44  1  0
 15 45  1  0
 16 46  1  0
 16 47  1  0
 17 18  1  0
 17 19  1  0
 19 28  1  0
 19 20  1  0
 19 48  1  1
 20 21  1  0
 20 49  1  0
 20 50  1  0
 21 27  2  0
 21 22  1  0
 22 23  2  0
 22 51  1  0
 23 24  1  0
 23 52  1  0
 24 25  1  0
 24 26  2  0
 26 27  1  0
 26 53  1  0
 27 28  1  0
 28 54  1  0
 28 55  1  0
 29 30  1  0
 29 56  1  0
 29 57  1  0
 30 58  1  0
M  CHG  1  17   1
M  END
>  <DOCK_score>  (1) 
-43.661003

>  <SMILES>  (1) 
O=C1CC[C@H](NC(NC2CCC=CCC2)=[NH+]C2Cc3ccc(Br)cc3C2)CN1

$$$$
