Nc1ccc(-c2c[nH]c(Nc3ccc(O)c(C4CC4)c3)[nH+]2)cc1
     RDKit          3D

 42 45  0  0  1  0  0  0  0  0999 V2000
  131.2174  129.2929  152.0455 N   0  0  0  0  0  0  0  0  0  0  0  0
  130.9651  130.0402  153.1985 C   0  0  0  0  0  0  0  0  0  0  0  0
  130.0895  131.1180  153.1488 C   0  0  0  0  0  0  0  0  0  0  0  0
  129.8390  131.8573  154.2856 C   0  0  0  0  0  0  0  0  0  0  0  0
  130.4647  131.5225  155.4854 C   0  0  0  0  0  0  0  0  0  0  0  0
  130.1967  132.3163  156.7098 C   0  0  0  0  0  0  0  0  0  0  0  0
  129.6668  131.8454  157.8659 C   0  0  0  0  0  0  0  0  0  0  0  0
  129.5910  132.9097  158.7322 N   0  0  0  0  0  0  0  0  0  0  0  0
  129.2536  132.8876  159.6414 H   0  0  0  0  0  0  0  0  0  0  0  0
  130.0773  134.0000  158.0789 C   0  0  0  0  0  0  0  0  0  0  0  0
  130.1743  135.2783  158.6035 N   0  0  0  0  0  0  0  0  0  0  0  0
  129.2576  135.7097  159.5696 C   0  0  0  0  0  0  0  0  0  0  0  0
  127.9017  135.7528  159.2710 C   0  0  0  0  0  0  0  0  0  0  0  0
  126.9985  136.1789  160.2243 C   0  0  0  0  0  0  0  0  0  0  0  0
  127.4442  136.5639  161.4798 C   0  0  0  0  0  0  0  0  0  0  0  0
  126.5535  136.9835  162.4179 O   0  0  0  0  0  0  0  0  0  0  0  0
  128.7983  136.5219  161.7791 C   0  0  0  0  0  0  0  0  0  0  0  0
  129.2818  136.9409  163.1436 C   0  0  0  0  0  0  0  0  0  0  0  0
  130.6485  136.4245  163.5980 C   0  0  0  0  0  0  0  0  0  0  0  0
  129.3716  135.8604  164.2242 C   0  0  0  0  0  0  0  0  0  0  0  0
  129.7038  136.1012  160.8250 C   0  0  0  0  0  0  0  0  0  0  0  0
  130.4335  133.6421  156.8690 N   0  0  0  0  0  0  0  0  0  0  0  0
  130.8088  134.2311  156.1959 H   0  0  0  0  0  0  0  0  0  0  0  0
  131.3471  130.4442  155.5318 C   0  0  0  0  0  0  0  0  0  0  0  0
  131.5899  129.7040  154.3941 C   0  0  0  0  0  0  0  0  0  0  0  0
  130.7816  129.5259  151.2113 H   0  0  0  0  0  0  0  0  0  0  0  0
  131.8284  128.5397  152.0798 H   0  0  0  0  0  0  0  0  0  0  0  0
  129.6052  131.3772  152.2189 H   0  0  0  0  0  0  0  0  0  0  0  0
  129.1582  132.6947  154.2465 H   0  0  0  0  0  0  0  0  0  0  0  0
  129.3624  130.8289  158.0672 H   0  0  0  0  0  0  0  0  0  0  0  0
  130.8774  135.8744  158.3015 H   0  0  0  0  0  0  0  0  0  0  0  0
  127.5543  135.4534  158.2932 H   0  0  0  0  0  0  0  0  0  0  0  0
  125.9441  136.2121  159.9922 H   0  0  0  0  0  0  0  0  0  0  0  0
  125.6349  136.9791  162.1182 H   0  0  0  0  0  0  0  0  0  0  0  0
  128.9931  137.9441  163.4573 H   0  0  0  0  0  0  0  0  0  0  0  0
  131.2589  137.0879  164.2107 H   0  0  0  0  0  0  0  0  0  0  0  0
  131.1980  135.7822  162.9100 H   0  0  0  0  0  0  0  0  0  0  0  0
  129.0806  134.8470  163.9477 H   0  0  0  0  0  0  0  0  0  0  0  0
  129.1419  136.1524  165.2489 H   0  0  0  0  0  0  0  0  0  0  0  0
  130.7583  136.0727  161.0565 H   0  0  0  0  0  0  0  0  0  0  0  0
  131.8366  130.1861  156.4593 H   0  0  0  0  0  0  0  0  0  0  0  0
  132.2696  128.8655  154.4306 H   0  0  0  0  0  0  0  0  0  0  0  0
  1  2  1  0
  1 26  1  0
  1 27  1  0
  2 25  2  0
  2  3  1  0
  3  4  2  0
  3 28  1  0
  4  5  1  0
  4 29  1  0
  5  6  1  0
  5 24  2  0
  6 22  1  0
  6  7  2  0
  7  8  1  0
  7 30  1  0
  8  9  1  0
  8 10  1  0
 10 11  1  0
 10 22  2  0
 11 12  1  0
 11 31  1  0
 12 21  1  0
 12 13  2  0
 13 14  1  0
 13 32  1  0
 14 15  2  0
 14 33  1  0
 15 16  1  0
 15 17  1  0
 16 34  1  0
 17 18  1  0
 17 21  2  0
 18 20  1  0
 18 19  1  0
 18 35  1  0
 19 20  1  0
 19 36  1  0
 19 37  1  0
 20 38  1  0
 20 39  1  0
 21 40  1  0
 22 23  1  0
 24 25  1  0
 24 41  1  0
 25 42  1  0
M  CHG  1  22   1
M  END
>  <DOCK_score>  (1) 
-51.166378

>  <SMILES>  (1) 
Nc1ccc(-c2c[nH]c(Nc3ccc(O)c(C4CC4)c3)[nH+]2)cc1

$$$$
