c1ccc(CC(Cc2ccccc2)[NH2+]Cc2cc3cccnc3[nH]2)cc1
     RDKit          3D

 50 53  0  0  0  0  0  0  0  0999 V2000
  131.1776  130.6438  154.5703 C   0  0  0  0  0  0  0  0  0  0  0  0
  130.3577  131.7458  154.4145 C   0  0  0  0  0  0  0  0  0  0  0  0
  129.6748  132.2585  155.5015 C   0  0  0  0  0  0  0  0  0  0  0  0
  129.8121  131.6694  156.7445 C   0  0  0  0  0  0  0  0  0  0  0  0
  129.0679  132.2287  157.9297 C   0  0  0  0  0  0  0  0  0  0  0  0
  129.9274  133.2926  158.6156 C   0  0  0  0  0  0  0  0  0  0  0  0
  131.2388  132.6620  159.0882 C   0  0  0  0  0  0  0  0  0  0  0  0
  131.8543  133.5257  160.1589 C   0  0  0  0  0  0  0  0  0  0  0  0
  132.7374  134.5313  159.8131 C   0  0  0  0  0  0  0  0  0  0  0  0
  133.2982  135.3265  160.7949 C   0  0  0  0  0  0  0  0  0  0  0  0
  132.9836  135.1096  162.1234 C   0  0  0  0  0  0  0  0  0  0  0  0
  132.1048  134.1004  162.4697 C   0  0  0  0  0  0  0  0  0  0  0  0
  131.5400  133.3085  161.4874 C   0  0  0  0  0  0  0  0  0  0  0  0
  130.2184  134.3742  157.6652 N   0  0  0  0  0  0  0  0  0  0  0  0
  131.0242  134.8925  157.9820 H   0  0  0  0  0  0  0  0  0  0  0  0
  130.4078  133.9809  156.7556 H   0  0  0  0  0  0  0  0  0  0  0  0
  129.0608  135.2743  157.5780 C   0  0  0  0  0  0  0  0  0  0  0  0
  128.7778  135.8619  158.9366 C   0  0  0  0  0  0  0  0  0  0  0  0
  129.7061  136.3540  159.7721 C   0  0  0  0  0  0  0  0  0  0  0  0
  128.9987  136.8198  160.9661 C   0  0  0  0  0  0  0  0  0  0  0  0
  129.3955  137.4185  162.1641 C   0  0  0  0  0  0  0  0  0  0  0  0
  128.4187  137.7229  163.0931 C   0  0  0  0  0  0  0  0  0  0  0  0
  127.0937  137.4279  162.8095 C   0  0  0  0  0  0  0  0  0  0  0  0
  126.7411  136.8636  161.6744 N   0  0  0  0  0  0  0  0  0  0  0  0
  127.6347  136.5490  160.7457 C   0  0  0  0  0  0  0  0  0  0  0  0
  127.5364  135.9675  159.5044 N   0  0  0  0  0  0  0  0  0  0  0  0
  126.7092  135.6746  159.0914 H   0  0  0  0  0  0  0  0  0  0  0  0
  130.6364  130.5709  156.9016 C   0  0  0  0  0  0  0  0  0  0  0  0
  131.3153  130.0550  155.8135 C   0  0  0  0  0  0  0  0  0  0  0  0
  131.7108  130.2430  153.7210 H   0  0  0  0  0  0  0  0  0  0  0  0
  130.2505  132.2060  153.4434 H   0  0  0  0  0  0  0  0  0  0  0  0
  129.0343  133.1195  155.3797 H   0  0  0  0  0  0  0  0  0  0  0  0
  128.8517  131.4261  158.6348 H   0  0  0  0  0  0  0  0  0  0  0  0
  128.1337  132.6781  157.5930 H   0  0  0  0  0  0  0  0  0  0  0  0
  129.3891  133.6971  159.4729 H   0  0  0  0  0  0  0  0  0  0  0  0
  131.0400  131.6692  159.4917 H   0  0  0  0  0  0  0  0  0  0  0  0
  131.9269  132.5810  158.2466 H   0  0  0  0  0  0  0  0  0  0  0  0
  132.9865  134.6980  158.7755 H   0  0  0  0  0  0  0  0  0  0  0  0
  133.9851  136.1147  160.5244 H   0  0  0  0  0  0  0  0  0  0  0  0
  133.4245  135.7286  162.8907 H   0  0  0  0  0  0  0  0  0  0  0  0
  131.8592  133.9307  163.5076 H   0  0  0  0  0  0  0  0  0  0  0  0
  130.8533  132.5199  161.7580 H   0  0  0  0  0  0  0  0  0  0  0  0
  129.2767  136.0768  156.8729 H   0  0  0  0  0  0  0  0  0  0  0  0
  128.1903  134.7144  157.2360 H   0  0  0  0  0  0  0  0  0  0  0  0
  130.7706  136.3999  159.5960 H   0  0  0  0  0  0  0  0  0  0  0  0
  130.4351  137.6376  162.3586 H   0  0  0  0  0  0  0  0  0  0  0  0
  128.6848  138.1866  164.0315 H   0  0  0  0  0  0  0  0  0  0  0  0
  126.3331  137.6667  163.5380 H   0  0  0  0  0  0  0  0  0  0  0  0
  130.7471  130.1135  157.8736 H   0  0  0  0  0  0  0  0  0  0  0  0
  131.9561  129.1943  155.9354 H   0  0  0  0  0  0  0  0  0  0  0  0
  1 29  2  0
  1  2  1  0
  1 30  1  0
  2  3  2  0
  2 31  1  0
  3  4  1  0
  3 32  1  0
  4  5  1  0
  4 28  2  0
  5  6  1  0
  5 33  1  0
  5 34  1  0
  6  7  1  0
  6 14  1  0
  6 35  1  0
  7  8  1  0
  7 36  1  0
  7 37  1  0
  8 13  1  0
  8  9  2  0
  9 10  1  0
  9 38  1  0
 10 11  2  0
 10 39  1  0
 11 12  1  0
 11 40  1  0
 12 13  2  0
 12 41  1  0
 13 42  1  0
 14 15  1  0
 14 16  1  0
 14 17  1  0
 17 18  1  0
 17 43  1  0
 17 44  1  0
 18 26  1  0
 18 19  2  0
 19 20  1  0
 19 45  1  0
 20 25  2  0
 20 21  1  0
 21 22  2  0
 21 46  1  0
 22 23  1  0
 22 47  1  0
 23 24  2  0
 23 48  1  0
 24 25  1  0
 25 26  1  0
 26 27  1  0
 28 29  1  0
 28 49  1  0
 29 50  1  0
M  CHG  1  14   1
M  END
>  <DOCK_score>  (1) 
-46.608292

>  <SMILES>  (1) 
c1ccc(CC(Cc2ccccc2)[NH2+]Cc2cc3cccnc3[nH]2)cc1

$$$$
