CCc1ccc(-c2c[nH]c(N[C@@H](Cc3ccc(-c4ccc(C)[nH]4)cc3)C3[C@H](C)[C@H]3C)[nH+]2)cc1
     RDKit          3D

 68 72  0  0  1  0  0  0  0  0999 V2000
  130.4471  129.0896  152.0544 C   0  0  0  0  0  0  0  0  0  0  0  0
  131.7133  129.7430  152.6121 C   0  0  0  0  0  0  0  0  0  0  0  0
  131.3788  130.4844  153.8807 C   0  0  0  0  0  0  0  0  0  0  0  0
  131.4550  129.8342  155.0993 C   0  0  0  0  0  0  0  0  0  0  0  0
  131.1508  130.5086  156.2645 C   0  0  0  0  0  0  0  0  0  0  0  0
  130.7658  131.8470  156.2115 C   0  0  0  0  0  0  0  0  0  0  0  0
  130.4377  132.5772  157.4604 C   0  0  0  0  0  0  0  0  0  0  0  0
  129.9130  132.0352  158.5872 C   0  0  0  0  0  0  0  0  0  0  0  0
  129.7693  133.0586  159.4922 N   0  0  0  0  0  0  0  0  0  0  0  0
  129.4180  132.9837  160.3932 H   0  0  0  0  0  0  0  0  0  0  0  0
  130.2107  134.1972  158.8913 C   0  0  0  0  0  0  0  0  0  0  0  0
  130.2348  135.4557  159.4673 N   0  0  0  0  0  0  0  0  0  0  0  0
  129.2379  135.8181  160.4778 C   0  0  1  0  0  0  0  0  0  0  0  0
  129.0655  134.9687  161.1389 H   0  0  0  0  0  0  0  0  0  0  0  0
  129.7494  137.0056  161.2959 C   0  0  0  0  0  0  0  0  0  0  0  0
  131.0400  136.6283  161.9761 C   0  0  0  0  0  0  0  0  0  0  0  0
  132.2464  136.8466  161.3346 C   0  0  0  0  0  0  0  0  0  0  0  0
  133.4311  136.4976  161.9492 C   0  0  0  0  0  0  0  0  0  0  0  0
  133.4117  135.9343  163.2260 C   0  0  0  0  0  0  0  0  0  0  0  0
  134.6780  135.5631  163.8931 C   0  0  0  0  0  0  0  0  0  0  0  0
  135.8223  135.1595  163.2738 C   0  0  0  0  0  0  0  0  0  0  0  0
  136.7748  134.9104  164.2755 C   0  0  0  0  0  0  0  0  0  0  0  0
  136.1908  135.1583  165.4677 C   0  0  0  0  0  0  0  0  0  0  0  0
  136.8479  135.0168  166.8165 C   0  0  0  0  0  0  0  0  0  0  0  0
  134.9068  135.5585  165.2453 N   0  0  0  0  0  0  0  0  0  0  0  0
  134.2626  135.7996  165.9292 H   0  0  0  0  0  0  0  0  0  0  0  0
  132.1918  135.7224  163.8703 C   0  0  0  0  0  0  0  0  0  0  0  0
  131.0139  136.0706  163.2421 C   0  0  0  0  0  0  0  0  0  0  0  0
  127.9275  136.2011  159.7873 C   0  0  0  0  0  0  0  0  0  0  0  0
  126.6240  135.9073  160.5324 C   0  0  2  0  0  0  0  0  0  0  0  0
  125.8037  136.6143  160.4096 H   0  0  0  0  0  0  0  0  0  0  0  0
  126.7307  135.2529  161.9113 C   0  0  0  0  0  0  0  0  0  0  0  0
  127.0181  135.0641  159.3171 C   0  0  1  0  0  0  0  0  0  0  0  0
  127.3534  134.0431  159.5001 H   0  0  0  0  0  0  0  0  0  0  0  0
  126.2306  135.2781  158.0229 C   0  0  0  0  0  0  0  0  0  0  0  0
  130.6041  133.9064  157.6752 N   0  0  0  0  0  0  0  0  0  0  0  0
  130.9597  134.5399  157.0326 H   0  0  0  0  0  0  0  0  0  0  0  0
  130.6847  132.4954  154.9804 C   0  0  0  0  0  0  0  0  0  0  0  0
  130.9972  131.8128  153.8223 C   0  0  0  0  0  0  0  0  0  0  0  0
  129.7051  129.8592  151.8407 H   0  0  0  0  0  0  0  0  0  0  0  0
  130.6889  128.5534  151.1369 H   0  0  0  0  0  0  0  0  0  0  0  0
  130.0452  128.3911  152.7883 H   0  0  0  0  0  0  0  0  0  0  0  0
  132.1151  130.4415  151.8782 H   0  0  0  0  0  0  0  0  0  0  0  0
  132.4551  128.9736  152.8259 H   0  0  0  0  0  0  0  0  0  0  0  0
  131.7536  128.7971  155.1391 H   0  0  0  0  0  0  0  0  0  0  0  0
  131.2114  130.0002  157.2153 H   0  0  0  0  0  0  0  0  0  0  0  0
  129.6577  130.9976  158.7435 H   0  0  0  0  0  0  0  0  0  0  0  0
  130.9118  136.0978  159.2017 H   0  0  0  0  0  0  0  0  0  0  0  0
  129.0077  137.2750  162.0478 H   0  0  0  0  0  0  0  0  0  0  0  0
  129.9218  137.8548  160.6349 H   0  0  0  0  0  0  0  0  0  0  0  0
  132.2602  137.2870  160.3486 H   0  0  0  0  0  0  0  0  0  0  0  0
  134.3717  136.6641  161.4455 H   0  0  0  0  0  0  0  0  0  0  0  0
  135.9701  135.0523  162.2094 H   0  0  0  0  0  0  0  0  0  0  0  0
  137.7902  134.5771  164.1204 H   0  0  0  0  0  0  0  0  0  0  0  0
  136.6929  134.0052  167.1917 H   0  0  0  0  0  0  0  0  0  0  0  0
  137.9166  135.2096  166.7221 H   0  0  0  0  0  0  0  0  0  0  0  0
  136.4095  135.7332  167.5112 H   0  0  0  0  0  0  0  0  0  0  0  0
  132.1701  135.2873  164.8584 H   0  0  0  0  0  0  0  0  0  0  0  0
  130.0694  135.9071  163.7395 H   0  0  0  0  0  0  0  0  0  0  0  0
  127.9649  137.1017  159.1744 H   0  0  0  0  0  0  0  0  0  0  0  0
  127.3037  135.8988  162.5766 H   0  0  0  0  0  0  0  0  0  0  0  0
  125.7316  135.1038  162.3210 H   0  0  0  0  0  0  0  0  0  0  0  0
  127.2328  134.2900  161.8186 H   0  0  0  0  0  0  0  0  0  0  0  0
  126.9243  135.4511  157.2000 H   0  0  0  0  0  0  0  0  0  0  0  0
  125.6304  134.3932  157.8122 H   0  0  0  0  0  0  0  0  0  0  0  0
  125.5764  136.1428  158.1345 H   0  0  0  0  0  0  0  0  0  0  0  0
  130.3822  133.5310  154.9331 H   0  0  0  0  0  0  0  0  0  0  0  0
  130.9393  132.3155  152.8681 H   0  0  0  0  0  0  0  0  0  0  0  0
  1  2  1  0
  1 40  1  0
  1 41  1  0
  1 42  1  0
  2  3  1  0
  2 43  1  0
  2 44  1  0
  3 39  2  0
  3  4  1  0
  4  5  2  0
  4 45  1  0
  5  6  1  0
  5 46  1  0
  6  7  1  0
  6 38  2  0
  7 36  1  0
  7  8  2  0
  8  9  1  0
  8 47  1  0
  9 10  1  0
  9 11  1  0
 11 12  1  0
 11 36  2  0
 12 13  1  0
 12 48  1  0
 13 14  1  1
 13 15  1  0
 13 29  1  0
 15 16  1  0
 15 49  1  0
 15 50  1  0
 16 28  1  0
 16 17  2  0
 17 18  1  0
 17 51  1  0
 18 19  2  0
 18 52  1  0
 19 20  1  0
 19 27  1  0
 20 25  1  0
 20 21  2  0
 21 22  1  0
 21 53  1  0
 22 23  2  0
 22 54  1  0
 23 24  1  0
 23 25  1  0
 24 55  1  0
 24 56  1  0
 24 57  1  0
 25 26  1  0
 27 28  2  0
 27 58  1  0
 28 59  1  0
 29 33  1  0
 29 30  1  0
 29 60  1  0
 30 31  1  6
 30 32  1  0
 30 33  1  0
 32 61  1  0
 32 62  1  0
 32 63  1  0
 33 34  1  1
 33 35  1  0
 35 64  1  0
 35 65  1  0
 35 66  1  0
 36 37  1  0
 38 39  1  0
 38 67  1  0
 39 68  1  0
M  CHG  1  36   1
M  END
>  <DOCK_score>  (1) 
-59.089561

>  <SMILES>  (1) 
CCc1ccc(-c2c[nH]c(N[C@@H](Cc3ccc(-c4ccc(C)[nH]4)cc3)C3[C@H](C)[C@H]3C)[nH+]2)cc1

$$$$
