CCc1ccc(-c2c[nH]c(N[C@H](Cc3cnnn3C)C(c3ccccc3)c3ccccc3)[nH+]2)cc1
     RDKit          3D

 66 70  0  0  1  0  0  0  0  0999 V2000
  130.4427  128.7042  152.1420 C   0  0  0  0  0  0  0  0  0  0  0  0
  131.5500  129.7077  152.4709 C   0  0  0  0  0  0  0  0  0  0  0  0
  131.1682  130.4921  153.6997 C   0  0  0  0  0  0  0  0  0  0  0  0
  131.5316  130.0308  154.9521 C   0  0  0  0  0  0  0  0  0  0  0  0
  131.1895  130.7479  156.0806 C   0  0  0  0  0  0  0  0  0  0  0  0
  130.4666  131.9332  155.9571 C   0  0  0  0  0  0  0  0  0  0  0  0
  130.0912  132.7055  157.1666 C   0  0  0  0  0  0  0  0  0  0  0  0
  129.3306  132.2568  158.1957 C   0  0  0  0  0  0  0  0  0  0  0  0
  129.2321  133.2880  159.0979 N   0  0  0  0  0  0  0  0  0  0  0  0
  128.7495  133.2713  159.9391 H   0  0  0  0  0  0  0  0  0  0  0  0
  129.9362  134.3378  158.5932 C   0  0  0  0  0  0  0  0  0  0  0  0
  130.0868  135.5734  159.1990 N   0  0  0  0  0  0  0  0  0  0  0  0
  129.4580  135.8349  160.4961 C   0  0  2  0  0  0  0  0  0  0  0  0
  129.5511  134.9527  161.1295 H   0  0  0  0  0  0  0  0  0  0  0  0
  127.9771  136.1594  160.2887 C   0  0  0  0  0  0  0  0  0  0  0  0
  127.2042  134.8798  160.0982 C   0  0  0  0  0  0  0  0  0  0  0  0
  126.9451  134.2534  158.9267 C   0  0  0  0  0  0  0  0  0  0  0  0
  126.2358  133.1603  159.2293 N   0  0  0  0  0  0  0  0  0  0  0  0
  126.0603  133.1171  160.5029 N   0  0  0  0  0  0  0  0  0  0  0  0
  126.6246  134.1293  161.0634 N   0  0  0  0  0  0  0  0  0  0  0  0
  126.6367  134.4189  162.4994 C   0  0  0  0  0  0  0  0  0  0  0  0
  130.1508  137.0215  161.1689 C   0  0  0  0  0  0  0  0  0  0  0  0
  129.5039  137.2904  162.5032 C   0  0  0  0  0  0  0  0  0  0  0  0
  128.4385  138.1668  162.5907 C   0  0  0  0  0  0  0  0  0  0  0  0
  127.8420  138.4097  163.8139 C   0  0  0  0  0  0  0  0  0  0  0  0
  128.3176  137.7843  164.9511 C   0  0  0  0  0  0  0  0  0  0  0  0
  129.3864  136.9119  164.8645 C   0  0  0  0  0  0  0  0  0  0  0  0
  129.9795  136.6649  163.6405 C   0  0  0  0  0  0  0  0  0  0  0  0
  131.6093  136.7017  161.3731 C   0  0  0  0  0  0  0  0  0  0  0  0
  132.5481  137.7162  161.3574 C   0  0  0  0  0  0  0  0  0  0  0  0
  133.8853  137.4233  161.5497 C   0  0  0  0  0  0  0  0  0  0  0  0
  134.2849  136.1149  161.7469 C   0  0  0  0  0  0  0  0  0  0  0  0
  133.3467  135.0997  161.7573 C   0  0  0  0  0  0  0  0  0  0  0  0
  132.0088  135.3931  161.5704 C   0  0  0  0  0  0  0  0  0  0  0  0
  130.4529  133.9838  157.4419 N   0  0  0  0  0  0  0  0  0  0  0  0
  131.0039  134.5468  156.8759 H   0  0  0  0  0  0  0  0  0  0  0  0
  130.0981  132.3902  154.6931 C   0  0  0  0  0  0  0  0  0  0  0  0
  130.4505  131.6678  153.5712 C   0  0  0  0  0  0  0  0  0  0  0  0
  130.3095  128.0220  152.9818 H   0  0  0  0  0  0  0  0  0  0  0  0
  129.5111  129.2387  151.9571 H   0  0  0  0  0  0  0  0  0  0  0  0
  130.7188  128.1368  151.2533 H   0  0  0  0  0  0  0  0  0  0  0  0
  132.4815  129.1731  152.6560 H   0  0  0  0  0  0  0  0  0  0  0  0
  131.6830  130.3898  151.6312 H   0  0  0  0  0  0  0  0  0  0  0  0
  132.0878  129.1098  155.0468 H   0  0  0  0  0  0  0  0  0  0  0  0
  131.4779  130.3894  157.0575 H   0  0  0  0  0  0  0  0  0  0  0  0
  128.8867  131.2766  158.2881 H   0  0  0  0  0  0  0  0  0  0  0  0
  130.6087  136.2661  158.7647 H   0  0  0  0  0  0  0  0  0  0  0  0
  127.5953  136.6880  161.1621 H   0  0  0  0  0  0  0  0  0  0  0  0
  127.8632  136.7877  159.4053 H   0  0  0  0  0  0  0  0  0  0  0  0
  127.2525  134.5721  157.9417 H   0  0  0  0  0  0  0  0  0  0  0  0
  125.7713  135.0308  162.7540 H   0  0  0  0  0  0  0  0  0  0  0  0
  126.5982  133.4842  163.0589 H   0  0  0  0  0  0  0  0  0  0  0  0
  127.5498  134.9573  162.7538 H   0  0  0  0  0  0  0  0  0  0  0  0
  130.0575  137.9036  160.5355 H   0  0  0  0  0  0  0  0  0  0  0  0
  128.0697  138.6589  161.7027 H   0  0  0  0  0  0  0  0  0  0  0  0
  127.0073  139.0917  163.8815 H   0  0  0  0  0  0  0  0  0  0  0  0
  127.8544  137.9775  165.9075 H   0  0  0  0  0  0  0  0  0  0  0  0
  129.7582  136.4235  165.7530 H   0  0  0  0  0  0  0  0  0  0  0  0
  130.8147  135.9836  163.5728 H   0  0  0  0  0  0  0  0  0  0  0  0
  132.2364  138.7380  161.1988 H   0  0  0  0  0  0  0  0  0  0  0  0
  134.6185  138.2164  161.5410 H   0  0  0  0  0  0  0  0  0  0  0  0
  135.3302  135.8855  161.8926 H   0  0  0  0  0  0  0  0  0  0  0  0
  133.6589  134.0774  161.9112 H   0  0  0  0  0  0  0  0  0  0  0  0
  131.2758  134.6000  161.5782 H   0  0  0  0  0  0  0  0  0  0  0  0
  129.5376  133.3078  154.5916 H   0  0  0  0  0  0  0  0  0  0  0  0
  130.1653  132.0208  152.5912 H   0  0  0  0  0  0  0  0  0  0  0  0
  1  2  1  0
  1 39  1  0
  1 40  1  0
  1 41  1  0
  2  3  1  0
  2 42  1  0
  2 43  1  0
  3 38  2  0
  3  4  1  0
  4  5  2  0
  4 44  1  0
  5  6  1  0
  5 45  1  0
  6  7  1  0
  6 37  2  0
  7 35  1  0
  7  8  2  0
  8  9  1  0
  8 46  1  0
  9 10  1  0
  9 11  1  0
 11 12  1  0
 11 35  2  0
 12 13  1  0
 12 47  1  0
 13 14  1  1
 13 15  1  0
 13 22  1  0
 15 16  1  0
 15 48  1  0
 15 49  1  0
 16 20  1  0
 16 17  2  0
 17 18  1  0
 17 50  1  0
 18 19  2  0
 19 20  1  0
 20 21  1  0
 21 51  1  0
 21 52  1  0
 21 53  1  0
 22 23  1  0
 22 29  1  0
 22 54  1  0
 23 28  1  0
 23 24  2  0
 24 25  1  0
 24 55  1  0
 25 26  2  0
 25 56  1  0
 26 27  1  0
 26 57  1  0
 27 28  2  0
 27 58  1  0
 28 59  1  0
 29 34  1  0
 29 30  2  0
 30 31  1  0
 30 60  1  0
 31 32  2  0
 31 61  1  0
 32 33  1  0
 32 62  1  0
 33 34  2  0
 33 63  1  0
 34 64  1  0
 35 36  1  0
 37 38  1  0
 37 65  1  0
 38 66  1  0
M  CHG  1  35   1
M  END
>  <DOCK_score>  (1) 
-57.455563

>  <SMILES>  (1) 
CCc1ccc(-c2c[nH]c(N[C@H](Cc3cnnn3C)C(c3ccccc3)c3ccccc3)[nH+]2)cc1

$$$$
