Cc1cc(Sc2ncc(-c3ccccc3)cn2)c(O)cc1Nc1[nH]cc(-c2ccccc2)[nH+]1
     RDKit          3D

 55 59  0  0  1  0  0  0  0  0999 V2000
  132.4283  135.1559  161.2252 C   0  0  0  0  0  0  0  0  0  0  0  0
  131.0410  135.6721  161.5079 C   0  0  0  0  0  0  0  0  0  0  0  0
  130.6620  135.9573  162.8059 C   0  0  0  0  0  0  0  0  0  0  0  0
  129.3856  136.4328  163.0682 C   0  0  0  0  0  0  0  0  0  0  0  0
  128.9033  136.7963  164.7235 S   0  0  0  0  0  0  0  0  0  0  0  0
  130.0956  138.0296  165.1259 C   0  0  0  0  0  0  0  0  0  0  0  0
  130.9922  138.3811  164.2142 N   0  0  0  0  0  0  0  0  0  0  0  0
  131.9018  139.3017  164.4782 C   0  0  0  0  0  0  0  0  0  0  0  0
  131.9099  139.9064  165.7382 C   0  0  0  0  0  0  0  0  0  0  0  0
  132.9137  140.9448  166.0771 C   0  0  0  0  0  0  0  0  0  0  0  0
  132.5989  141.9512  166.9880 C   0  0  0  0  0  0  0  0  0  0  0  0
  133.5368  142.9144  167.2997 C   0  0  0  0  0  0  0  0  0  0  0  0
  134.7872  142.8822  166.7100 C   0  0  0  0  0  0  0  0  0  0  0  0
  135.1054  141.8856  165.8046 C   0  0  0  0  0  0  0  0  0  0  0  0
  134.1752  140.9172  165.4854 C   0  0  0  0  0  0  0  0  0  0  0  0
  130.9520  139.5039  166.6729 C   0  0  0  0  0  0  0  0  0  0  0  0
  130.0710  138.5807  166.3318 N   0  0  0  0  0  0  0  0  0  0  0  0
  128.4830  136.6175  162.0224 C   0  0  0  0  0  0  0  0  0  0  0  0
  127.2296  137.0788  162.2783 O   0  0  0  0  0  0  0  0  0  0  0  0
  128.8655  136.3349  160.7225 C   0  0  0  0  0  0  0  0  0  0  0  0
  130.1449  135.8597  160.4639 C   0  0  0  0  0  0  0  0  0  0  0  0
  130.5311  135.5696  159.1499 N   0  0  0  0  0  0  0  0  0  0  0  0
  130.3306  134.3003  158.6334 C   0  0  0  0  0  0  0  0  0  0  0  0
  129.7765  133.2511  159.3006 N   0  0  0  0  0  0  0  0  0  0  0  0
  129.4532  133.2579  160.2152 H   0  0  0  0  0  0  0  0  0  0  0  0
  129.7567  132.1820  158.4388 C   0  0  0  0  0  0  0  0  0  0  0  0
  130.3061  132.6054  157.2734 C   0  0  0  0  0  0  0  0  0  0  0  0
  130.4984  131.7874  156.0510 C   0  0  0  0  0  0  0  0  0  0  0  0
  129.8855  132.1603  154.8561 C   0  0  0  0  0  0  0  0  0  0  0  0
  130.0726  131.3986  153.7206 C   0  0  0  0  0  0  0  0  0  0  0  0
  130.8571  130.2609  153.7693 C   0  0  0  0  0  0  0  0  0  0  0  0
  131.4633  129.8823  154.9542 C   0  0  0  0  0  0  0  0  0  0  0  0
  131.2883  130.6398  156.0945 C   0  0  0  0  0  0  0  0  0  0  0  0
  130.6485  133.9093  157.4233 N   0  0  0  0  0  0  0  0  0  0  0  0
  131.0629  134.4637  156.7437 H   0  0  0  0  0  0  0  0  0  0  0  0
  132.4271  134.0669  161.2711 H   0  0  0  0  0  0  0  0  0  0  0  0
  132.7400  135.4774  160.2315 H   0  0  0  0  0  0  0  0  0  0  0  0
  133.1211  135.5502  161.9688 H   0  0  0  0  0  0  0  0  0  0  0  0
  131.3602  135.8102  163.6165 H   0  0  0  0  0  0  0  0  0  0  0  0
  132.6292  139.5829  163.7311 H   0  0  0  0  0  0  0  0  0  0  0  0
  131.6212  141.9798  167.4460 H   0  0  0  0  0  0  0  0  0  0  0  0
  133.2938  143.6947  168.0058 H   0  0  0  0  0  0  0  0  0  0  0  0
  135.5180  143.6383  166.9565 H   0  0  0  0  0  0  0  0  0  0  0  0
  136.0835  141.8651  165.3471 H   0  0  0  0  0  0  0  0  0  0  0  0
  134.4245  140.1399  164.7783 H   0  0  0  0  0  0  0  0  0  0  0  0
  130.9292  139.9451  167.6585 H   0  0  0  0  0  0  0  0  0  0  0  0
  126.6771  137.1741  161.4904 H   0  0  0  0  0  0  0  0  0  0  0  0
  128.1686  136.4802  159.9104 H   0  0  0  0  0  0  0  0  0  0  0  0
  130.9391  136.2577  158.6012 H   0  0  0  0  0  0  0  0  0  0  0  0
  129.3795  131.1922  158.6501 H   0  0  0  0  0  0  0  0  0  0  0  0
  129.2688  133.0461  154.8179 H   0  0  0  0  0  0  0  0  0  0  0  0
  129.6021  131.6893  152.7930 H   0  0  0  0  0  0  0  0  0  0  0  0
  130.9971  129.6653  152.8793 H   0  0  0  0  0  0  0  0  0  0  0  0
  132.0750  128.9929  154.9868 H   0  0  0  0  0  0  0  0  0  0  0  0
  131.7624  130.3441  157.0186 H   0  0  0  0  0  0  0  0  0  0  0  0
  1  2  1  0
  1 36  1  0
  1 37  1  0
  1 38  1  0
  2 21  2  0
  2  3  1  0
  3  4  2  0
  3 39  1  0
  4  5  1  0
  4 18  1  0
  5  6  1  0
  6 17  1  0
  6  7  2  0
  7  8  1  0
  8  9  2  0
  8 40  1  0
  9 10  1  0
  9 16  1  0
 10 15  1  0
 10 11  2  0
 11 12  1  0
 11 41  1  0
 12 13  2  0
 12 42  1  0
 13 14  1  0
 13 43  1  0
 14 15  2  0
 14 44  1  0
 15 45  1  0
 16 17  2  0
 16 46  1  0
 18 19  1  0
 18 20  2  0
 19 47  1  0
 20 21  1  0
 20 48  1  0
 21 22  1  0
 22 49  1  0
 23 22  1  0
 23 34  2  0
 23 24  1  0
 24 25  1  0
 24 26  1  0
 26 27  2  0
 26 50  1  0
 27 28  1  0
 27 34  1  0
 28 33  1  0
 28 29  2  0
 29 30  1  0
 29 51  1  0
 30 31  2  0
 30 52  1  0
 31 32  1  0
 31 53  1  0
 32 33  2  0
 32 54  1  0
 33 55  1  0
 34 35  1  0
M  CHG  1  34   1
M  END
>  <DOCK_score>  (1) 
-51.348026

>  <SMILES>  (1) 
Cc1cc(Sc2ncc(-c3ccccc3)cn2)c(O)cc1Nc1[nH]cc(-c2ccccc2)[nH+]1

$$$$
