Cc1ccc([C@@H](CO)[NH2+][C@@H]2C[C@@H]2Nc2ccc(O)cc2C)cc1
     RDKit          3D

 48 50  0  0  1  0  0  0  0  0999 V2000
  136.7735  137.7288  163.5316 C   0  0  0  0  0  0  0  0  0  0  0  0
  135.4490  137.4072  162.8888 C   0  0  0  0  0  0  0  0  0  0  0  0
  134.4759  136.7388  163.6080 C   0  0  0  0  0  0  0  0  0  0  0  0
  133.2609  136.4439  163.0185 C   0  0  0  0  0  0  0  0  0  0  0  0
  133.0190  136.8171  161.7095 C   0  0  0  0  0  0  0  0  0  0  0  0
  131.6947  136.4950  161.0666 C   0  0  1  0  0  0  0  0  0  0  0  0
  131.0616  135.9702  161.7820 H   0  0  0  0  0  0  0  0  0  0  0  0
  131.0087  137.7927  160.6344 C   0  0  0  0  0  0  0  0  0  0  0  0
  131.5703  138.2397  159.3989 O   0  0  0  0  0  0  0  0  0  0  0  0
  131.9156  135.6429  159.8907 N   0  0  0  0  0  0  0  0  0  0  0  0
  132.7338  135.9613  159.3935 H   0  0  0  0  0  0  0  0  0  0  0  0
  131.1118  135.6934  159.2829 H   0  0  0  0  0  0  0  0  0  0  0  0
  132.1156  134.2534  160.3236 C   0  0  2  0  0  0  0  0  0  0  0  0
  132.7180  134.1232  161.2227 H   0  0  0  0  0  0  0  0  0  0  0  0
  132.2303  133.1839  159.2355 C   0  0  0  0  0  0  0  0  0  0  0  0
  130.9663  133.2697  160.0947 C   0  0  2  0  0  0  0  0  0  0  0  0
  130.8125  132.4924  160.8431 H   0  0  0  0  0  0  0  0  0  0  0  0
  129.7506  133.7856  159.4604 N   0  0  0  0  0  0  0  0  0  0  0  0
  128.7178  134.3067  160.2480 C   0  0  0  0  0  0  0  0  0  0  0  0
  128.5060  133.8158  161.5297 C   0  0  0  0  0  0  0  0  0  0  0  0
  127.4905  134.3347  162.3083 C   0  0  0  0  0  0  0  0  0  0  0  0
  126.6742  135.3377  161.8061 C   0  0  0  0  0  0  0  0  0  0  0  0
  125.6705  135.8441  162.5714 O   0  0  0  0  0  0  0  0  0  0  0  0
  126.8814  135.8245  160.5242 C   0  0  0  0  0  0  0  0  0  0  0  0
  127.9006  135.3108  159.7461 C   0  0  0  0  0  0  0  0  0  0  0  0
  128.1253  135.8395  158.3531 C   0  0  0  0  0  0  0  0  0  0  0  0
  133.9941  137.4808  160.9887 C   0  0  0  0  0  0  0  0  0  0  0  0
  135.2070  137.7809  161.5801 C   0  0  0  0  0  0  0  0  0  0  0  0
  137.4694  136.9075  163.3606 H   0  0  0  0  0  0  0  0  0  0  0  0
  137.1764  138.6430  163.0957 H   0  0  0  0  0  0  0  0  0  0  0  0
  136.6329  137.8687  164.6034 H   0  0  0  0  0  0  0  0  0  0  0  0
  134.6649  136.4469  164.6305 H   0  0  0  0  0  0  0  0  0  0  0  0
  132.5007  135.9213  163.5802 H   0  0  0  0  0  0  0  0  0  0  0  0
  129.9413  137.6135  160.5049 H   0  0  0  0  0  0  0  0  0  0  0  0
  131.1590  138.5551  161.3988 H   0  0  0  0  0  0  0  0  0  0  0  0
  131.4730  137.6097  158.6719 H   0  0  0  0  0  0  0  0  0  0  0  0
  132.1569  133.5113  158.1983 H   0  0  0  0  0  0  0  0  0  0  0  0
  132.9081  132.3502  159.4187 H   0  0  0  0  0  0  0  0  0  0  0  0
  129.6617  133.7662  158.4948 H   0  0  0  0  0  0  0  0  0  0  0  0
  129.1382  133.0314  161.9190 H   0  0  0  0  0  0  0  0  0  0  0  0
  127.3285  133.9562  163.3068 H   0  0  0  0  0  0  0  0  0  0  0  0
  125.1563  136.5380  162.1366 H   0  0  0  0  0  0  0  0  0  0  0  0
  126.2459  136.6057  160.1342 H   0  0  0  0  0  0  0  0  0  0  0  0
  127.5365  135.2574  157.6441 H   0  0  0  0  0  0  0  0  0  0  0  0
  127.8194  136.8847  158.3074 H   0  0  0  0  0  0  0  0  0  0  0  0
  129.1824  135.7590  158.0999 H   0  0  0  0  0  0  0  0  0  0  0  0
  133.8068  137.7686  159.9646 H   0  0  0  0  0  0  0  0  0  0  0  0
  135.9671  138.3033  161.0183 H   0  0  0  0  0  0  0  0  0  0  0  0
  1  2  1  0
  1 29  1  0
  1 30  1  0
  1 31  1  0
  2 28  2  0
  2  3  1  0
  3  4  2  0
  3 32  1  0
  4  5  1  0
  4 33  1  0
  5  6  1  0
  5 27  2  0
  6  7  1  1
  6  8  1  0
  6 10  1  0
  8  9  1  0
  8 34  1  0
  8 35  1  0
  9 36  1  0
 10 11  1  0
 10 12  1  0
 10 13  1  0
 13 14  1  1
 13 16  1  0
 13 15  1  0
 15 16  1  0
 15 37  1  0
 15 38  1  0
 16 17  1  1
 16 18  1  0
 18 19  1  0
 18 39  1  0
 19 25  1  0
 19 20  2  0
 20 21  1  0
 20 40  1  0
 21 22  2  0
 21 41  1  0
 22 23  1  0
 22 24  1  0
 23 42  1  0
 24 25  2  0
 24 43  1  0
 25 26  1  0
 26 44  1  0
 26 45  1  0
 26 46  1  0
 27 28  1  0
 27 47  1  0
 28 48  1  0
M  CHG  1  10   1
M  END
>  <DOCK_score>  (1) 
-41.143501

>  <SMILES>  (1) 
Cc1ccc([C@@H](CO)[NH2+][C@@H]2C[C@@H]2Nc2ccc(O)cc2C)cc1

$$$$
