O=C1CC[C@H](NC(NC2CCCC2)=[NH+]C2COc3ccccc3OC2)CN1
     RDKit          3D

 56 59  0  0  1  0  0  0  0  0999 V2000
  124.2499  134.0645  161.5891 O   0  0  0  0  0  0  0  0  0  0  0  0
  125.4161  134.3415  161.4045 C   0  0  0  0  0  0  0  0  0  0  0  0
  126.2908  133.3227  160.7319 C   0  0  0  0  0  0  0  0  0  0  0  0
  127.7639  133.6568  160.9789 C   0  0  0  0  0  0  0  0  0  0  0  0
  127.9850  135.1401  160.6593 C   0  0  2  0  0  0  0  0  0  0  0  0
  127.6045  135.3626  159.6623 H   0  0  0  0  0  0  0  0  0  0  0  0
  129.4161  135.4478  160.7190 N   0  0  0  0  0  0  0  0  0  0  0  0
  130.2946  134.7961  159.8862 C   0  0  0  0  0  0  0  0  0  0  0  0
  129.8302  133.8558  158.9973 N   0  0  0  0  0  0  0  0  0  0  0  0
  130.6869  132.7347  158.6027 C   0  0  0  0  0  0  0  0  0  0  0  0
  129.9170  131.7877  157.6592 C   0  0  0  0  0  0  0  0  0  0  0  0
  130.3989  130.3727  158.0651 C   0  0  0  0  0  0  0  0  0  0  0  0
  130.5231  130.4825  159.6051 C   0  0  0  0  0  0  0  0  0  0  0  0
  131.0722  131.9050  159.8400 C   0  0  0  0  0  0  0  0  0  0  0  0
  131.5679  135.0699  159.9393 N   0  0  0  0  0  0  0  0  0  0  0  0
  132.1159  134.9851  159.1435 H   0  0  0  0  0  0  0  0  0  0  0  0
  132.1713  135.5058  161.2010 C   0  0  0  0  0  0  0  0  0  0  0  0
  132.7095  136.9173  161.0258 C   0  0  0  0  0  0  0  0  0  0  0  0
  133.1933  137.4338  162.2723 O   0  0  0  0  0  0  0  0  0  0  0  0
  134.4745  137.0928  162.5950 C   0  0  0  0  0  0  0  0  0  0  0  0
  135.4699  138.0551  162.6165 C   0  0  0  0  0  0  0  0  0  0  0  0
  136.7634  137.6964  162.9514 C   0  0  0  0  0  0  0  0  0  0  0  0
  137.0629  136.3834  163.2634 C   0  0  0  0  0  0  0  0  0  0  0  0
  136.0709  135.4193  163.2427 C   0  0  0  0  0  0  0  0  0  0  0  0
  134.7753  135.7749  162.9078 C   0  0  0  0  0  0  0  0  0  0  0  0
  133.7873  134.8338  162.8840 O   0  0  0  0  0  0  0  0  0  0  0  0
  133.2574  134.5171  161.5953 C   0  0  0  0  0  0  0  0  0  0  0  0
  127.2358  135.9809  161.6938 C   0  0  0  0  0  0  0  0  0  0  0  0
  125.8530  135.5347  161.8091 N   0  0  0  0  0  0  0  0  0  0  0  0
  126.0711  132.3342  161.1354 H   0  0  0  0  0  0  0  0  0  0  0  0
  126.0933  133.3270  159.6600 H   0  0  0  0  0  0  0  0  0  0  0  0
  128.3925  133.0445  160.3324 H   0  0  0  0  0  0  0  0  0  0  0  0
  128.0134  133.4651  162.0225 H   0  0  0  0  0  0  0  0  0  0  0  0
  129.7436  136.1114  161.3460 H   0  0  0  0  0  0  0  0  0  0  0  0
  128.9355  133.9346  158.6314 H   0  0  0  0  0  0  0  0  0  0  0  0
  131.5843  133.1069  158.1086 H   0  0  0  0  0  0  0  0  0  0  0  0
  128.8425  131.8843  157.8156 H   0  0  0  0  0  0  0  0  0  0  0  0
  130.1723  131.9942  156.6199 H   0  0  0  0  0  0  0  0  0  0  0  0
  131.3662  130.1501  157.6146 H   0  0  0  0  0  0  0  0  0  0  0  0
  129.6631  129.6173  157.7898 H   0  0  0  0  0  0  0  0  0  0  0  0
  131.2206  129.7366  159.9858 H   0  0  0  0  0  0  0  0  0  0  0  0
  129.5475  130.3676  160.0776 H   0  0  0  0  0  0  0  0  0  0  0  0
  132.1567  131.8736  159.9457 H   0  0  0  0  0  0  0  0  0  0  0  0
  130.6219  132.3362  160.7339 H   0  0  0  0  0  0  0  0  0  0  0  0
  131.4037  135.5142  161.9748 H   0  0  0  0  0  0  0  0  0  0  0  0
  133.5233  136.9035  160.3006 H   0  0  0  0  0  0  0  0  0  0  0  0
  131.9117  137.5622  160.6572 H   0  0  0  0  0  0  0  0  0  0  0  0
  135.2374  139.0813  162.3731 H   0  0  0  0  0  0  0  0  0  0  0  0
  137.5419  138.4448  162.9690 H   0  0  0  0  0  0  0  0  0  0  0  0
  138.0745  136.1091  163.5238 H   0  0  0  0  0  0  0  0  0  0  0  0
  136.3060  134.3938  163.4868 H   0  0  0  0  0  0  0  0  0  0  0  0
  134.0598  134.5529  160.8585 H   0  0  0  0  0  0  0  0  0  0  0  0
  132.8357  133.5122  161.6177 H   0  0  0  0  0  0  0  0  0  0  0  0
  127.7276  135.8835  162.6617 H   0  0  0  0  0  0  0  0  0  0  0  0
  127.2525  137.0271  161.3883 H   0  0  0  0  0  0  0  0  0  0  0  0
  125.2104  136.1438  162.2052 H   0  0  0  0  0  0  0  0  0  0  0  0
  1  2  2  0
  2 29  1  0
  2  3  1  0
  3  4  1  0
  3 30  1  0
  3 31  1  0
  4  5  1  0
  4 32  1  0
  4 33  1  0
  5  6  1  6
  5  7  1  0
  5 28  1  0
  7 34  1  0
  8  7  1  0
  8  9  1  0
  8 15  2  0
  9 10  1  0
  9 35  1  0
 10 14  1  0
 10 11  1  0
 10 36  1  0
 11 12  1  0
 11 37  1  0
 11 38  1  0
 12 13  1  0
 12 39  1  0
 12 40  1  0
 13 14  1  0
 13 41  1  0
 13 42  1  0
 14 43  1  0
 14 44  1  0
 15 16  1  0
 15 17  1  0
 17 27  1  0
 17 18  1  0
 17 45  1  0
 18 19  1  0
 18 46  1  0
 18 47  1  0
 19 20  1  0
 20 25  2  0
 20 21  1  0
 21 22  2  0
 21 48  1  0
 22 23  1  0
 22 49  1  0
 23 24  2  0
 23 50  1  0
 24 25  1  0
 24 51  1  0
 25 26  1  0
 26 27  1  0
 27 52  1  0
 27 53  1  0
 28 29  1  0
 28 54  1  0
 28 55  1  0
 29 56  1  0
M  CHG  1  15   1
M  END
>  <DOCK_score>  (1) 
-44.296356

>  <SMILES>  (1) 
O=C1CC[C@H](NC(NC2CCCC2)=[NH+]C2COc3ccccc3OC2)CN1

$$$$
