[NH3+][C@H](Cc1ccc(Nc2cccc(O)c2)cc1)C(=O)Nc1cccc(Nc2ccccc2)c1
     RDKit          3D

 60 63  0  0  1  0  0  0  0  0999 V2000
  130.4863  136.8143  161.5829 N   0  0  0  0  0  0  0  0  0  0  0  0
  130.9250  136.5012  162.4358 H   0  0  0  0  0  0  0  0  0  0  0  0
  130.1906  137.7731  161.6888 H   0  0  0  0  0  0  0  0  0  0  0  0
  129.6842  136.2349  161.3850 H   0  0  0  0  0  0  0  0  0  0  0  0
  131.4456  136.7171  160.4745 C   0  0  2  0  0  0  0  0  0  0  0  0
  130.9716  137.0553  159.5531 H   0  0  0  0  0  0  0  0  0  0  0  0
  131.8938  135.2632  160.3139 C   0  0  0  0  0  0  0  0  0  0  0  0
  130.6959  134.3979  160.0185 C   0  0  0  0  0  0  0  0  0  0  0  0
  130.3076  134.1810  158.7090 C   0  0  0  0  0  0  0  0  0  0  0  0
  129.2140  133.3836  158.4344 C   0  0  0  0  0  0  0  0  0  0  0  0
  128.5001  132.8039  159.4758 C   0  0  0  0  0  0  0  0  0  0  0  0
  127.3929  131.9971  159.2017 N   0  0  0  0  0  0  0  0  0  0  0  0
  126.3382  131.9245  160.1148 C   0  0  0  0  0  0  0  0  0  0  0  0
  125.9947  130.7048  160.6859 C   0  0  0  0  0  0  0  0  0  0  0  0
  124.9525  130.6335  161.5894 C   0  0  0  0  0  0  0  0  0  0  0  0
  124.2484  131.7738  161.9277 C   0  0  0  0  0  0  0  0  0  0  0  0
  124.5865  132.9945  161.3603 C   0  0  0  0  0  0  0  0  0  0  0  0
  123.8932  134.1146  161.6942 O   0  0  0  0  0  0  0  0  0  0  0  0
  125.6354  133.0714  160.4576 C   0  0  0  0  0  0  0  0  0  0  0  0
  128.8895  133.0286  160.7903 C   0  0  0  0  0  0  0  0  0  0  0  0
  129.9841  133.8270  161.0577 C   0  0  0  0  0  0  0  0  0  0  0  0
  132.6436  137.5824  160.7700 C   0  0  0  0  0  0  0  0  0  0  0  0
  132.6934  138.2173  161.8021 O   0  0  0  0  0  0  0  0  0  0  0  0
  133.6598  137.6506  159.8871 N   0  0  0  0  0  0  0  0  0  0  0  0
  134.7720  138.4541  160.1614 C   0  0  0  0  0  0  0  0  0  0  0  0
  135.4889  139.0286  159.1190 C   0  0  0  0  0  0  0  0  0  0  0  0
  136.5844  139.8260  159.3888 C   0  0  0  0  0  0  0  0  0  0  0  0
  136.9772  140.0463  160.6949 C   0  0  0  0  0  0  0  0  0  0  0  0
  136.2679  139.4704  161.7419 C   0  0  0  0  0  0  0  0  0  0  0  0
  136.6653  139.6940  163.0625 N   0  0  0  0  0  0  0  0  0  0  0  0
  136.4318  138.7201  164.0367 C   0  0  0  0  0  0  0  0  0  0  0  0
  135.6492  139.0180  165.1454 C   0  0  0  0  0  0  0  0  0  0  0  0
  135.4161  138.0515  166.1037 C   0  0  0  0  0  0  0  0  0  0  0  0
  135.9695  136.7917  165.9664 C   0  0  0  0  0  0  0  0  0  0  0  0
  136.7535  136.4934  164.8670 C   0  0  0  0  0  0  0  0  0  0  0  0
  136.9861  137.4534  163.9019 C   0  0  0  0  0  0  0  0  0  0  0  0
  135.1635  138.6731  161.4740 C   0  0  0  0  0  0  0  0  0  0  0  0
  132.3679  134.9250  161.2353 H   0  0  0  0  0  0  0  0  0  0  0  0
  132.6057  135.1911  159.4915 H   0  0  0  0  0  0  0  0  0  0  0  0
  130.8631  134.6319  157.9000 H   0  0  0  0  0  0  0  0  0  0  0  0
  128.9142  133.2107  157.4115 H   0  0  0  0  0  0  0  0  0  0  0  0
  127.3566  131.4871  158.3772 H   0  0  0  0  0  0  0  0  0  0  0  0
  126.5433  129.8123  160.4232 H   0  0  0  0  0  0  0  0  0  0  0  0
  124.6875  129.6851  162.0327 H   0  0  0  0  0  0  0  0  0  0  0  0
  123.4336  131.7148  162.6342 H   0  0  0  0  0  0  0  0  0  0  0  0
  124.2013  134.9154  161.2484 H   0  0  0  0  0  0  0  0  0  0  0  0
  125.9027  134.0213  160.0186 H   0  0  0  0  0  0  0  0  0  0  0  0
  128.3365  132.5798  161.6022 H   0  0  0  0  0  0  0  0  0  0  0  0
  130.2875  134.0019  162.0793 H   0  0  0  0  0  0  0  0  0  0  0  0
  133.6200  137.1429  159.0616 H   0  0  0  0  0  0  0  0  0  0  0  0
  135.1871  138.8548  158.0966 H   0  0  0  0  0  0  0  0  0  0  0  0
  137.1373  140.2747  158.5768 H   0  0  0  0  0  0  0  0  0  0  0  0
  137.8367  140.6666  160.9024 H   0  0  0  0  0  0  0  0  0  0  0  0
  137.1035  140.5253  163.3029 H   0  0  0  0  0  0  0  0  0  0  0  0
  135.2204  140.0032  165.2554 H   0  0  0  0  0  0  0  0  0  0  0  0
  134.8040  138.2810  166.9635 H   0  0  0  0  0  0  0  0  0  0  0  0
  135.7892  136.0390  166.7196 H   0  0  0  0  0  0  0  0  0  0  0  0
  137.1842  135.5085  164.7628 H   0  0  0  0  0  0  0  0  0  0  0  0
  137.5986  137.2199  163.0435 H   0  0  0  0  0  0  0  0  0  0  0  0
  134.6101  138.2246  162.2858 H   0  0  0  0  0  0  0  0  0  0  0  0
  1  2  1  0
  1  3  1  0
  1  4  1  0
  1  5  1  0
  5  6  1  6
  5  7  1  0
  5 22  1  0
  7  8  1  0
  7 38  1  0
  7 39  1  0
  8 21  1  0
  8  9  2  0
  9 10  1  0
  9 40  1  0
 10 11  2  0
 10 41  1  0
 11 12  1  0
 11 20  1  0
 12 13  1  0
 12 42  1  0
 13 19  1  0
 13 14  2  0
 14 15  1  0
 14 43  1  0
 15 16  2  0
 15 44  1  0
 16 17  1  0
 16 45  1  0
 17 18  1  0
 17 19  2  0
 18 46  1  0
 19 47  1  0
 20 21  2  0
 20 48  1  0
 21 49  1  0
 22 23  2  0
 22 24  1  0
 24 25  1  0
 24 50  1  0
 25 37  1  0
 25 26  2  0
 26 27  1  0
 26 51  1  0
 27 28  2  0
 27 52  1  0
 28 29  1  0
 28 53  1  0
 29 30  1  0
 29 37  2  0
 30 31  1  0
 30 54  1  0
 31 36  1  0
 31 32  2  0
 32 33  1  0
 32 55  1  0
 33 34  2  0
 33 56  1  0
 34 35  1  0
 34 57  1  0
 35 36  2  0
 35 58  1  0
 36 59  1  0
 37 60  1  0
M  CHG  1   1   1
M  END
>  <DOCK_score>  (1) 
-52.973476

>  <SMILES>  (1) 
[NH3+][C@H](Cc1ccc(Nc2cccc(O)c2)cc1)C(=O)Nc1cccc(Nc2ccccc2)c1

$$$$
