Cc1ccc(-c2ccc(Nc3ccc(-c4n[nH]cc4C[NH2+]C[C@H]4CC5C=CC4CC5)o3)cc2)o1
     RDKit          3D

 65 70  0  0  1  0  0  0  0  0999 V2000
  130.8756  140.6533  167.9361 C   0  0  0  0  0  0  0  0  0  0  0  0
  130.3445  139.3762  167.3376 C   0  0  0  0  0  0  0  0  0  0  0  0
  130.6208  138.1312  167.7715 C   0  0  0  0  0  0  0  0  0  0  0  0
  129.9178  137.2379  166.9379 C   0  0  0  0  0  0  0  0  0  0  0  0
  129.2516  137.9953  166.0260 C   0  0  0  0  0  0  0  0  0  0  0  0
  128.3824  137.4857  164.9451 C   0  0  0  0  0  0  0  0  0  0  0  0
  127.3075  138.2532  164.4914 C   0  0  0  0  0  0  0  0  0  0  0  0
  126.4989  137.7756  163.4831 C   0  0  0  0  0  0  0  0  0  0  0  0
  126.7524  136.5306  162.9173 C   0  0  0  0  0  0  0  0  0  0  0  0
  125.9308  136.0492  161.8965 N   0  0  0  0  0  0  0  0  0  0  0  0
  126.4514  135.1983  160.9283 C   0  0  0  0  0  0  0  0  0  0  0  0
  125.7621  134.2361  160.2653 C   0  0  0  0  0  0  0  0  0  0  0  0
  126.6662  133.6207  159.3776 C   0  0  0  0  0  0  0  0  0  0  0  0
  127.8671  134.2337  159.5506 C   0  0  0  0  0  0  0  0  0  0  0  0
  129.1151  133.9117  158.8283 C   0  0  0  0  0  0  0  0  0  0  0  0
  129.2597  132.9822  157.9045 N   0  0  0  0  0  0  0  0  0  0  0  0
  130.5923  133.0011  157.4736 N   0  0  0  0  0  0  0  0  0  0  0  0
  130.9800  132.4228  156.7983 H   0  0  0  0  0  0  0  0  0  0  0  0
  131.2427  133.9678  158.1570 C   0  0  0  0  0  0  0  0  0  0  0  0
  130.3636  134.5448  159.0040 C   0  0  0  0  0  0  0  0  0  0  0  0
  130.6615  135.6694  159.9619 C   0  0  0  0  0  0  0  0  0  0  0  0
  132.0755  136.0505  159.8450 N   0  0  0  0  0  0  0  0  0  0  0  0
  132.2653  136.3532  158.9013 H   0  0  0  0  0  0  0  0  0  0  0  0
  132.6573  135.2564  160.0670 H   0  0  0  0  0  0  0  0  0  0  0  0
  132.3660  137.1467  160.7787 C   0  0  0  0  0  0  0  0  0  0  0  0
  133.8386  137.5435  160.6569 C   0  0  1  0  0  0  0  0  0  0  0  0
  134.4480  136.6470  160.5424 H   0  0  0  0  0  0  0  0  0  0  0  0
  134.0161  138.4533  159.4210 C   0  0  0  0  0  0  0  0  0  0  0  0
  134.5813  139.8046  159.8797 C   0  0  2  0  0  0  0  0  0  0  0  0
  135.8666  139.5468  160.6520 C   0  0  0  0  0  0  0  0  0  0  0  0
  135.7051  138.7625  161.7151 C   0  0  0  0  0  0  0  0  0  0  0  0
  134.2713  138.2977  161.9218 C   0  0  1  0  0  0  0  0  0  0  0  0
  133.3890  139.5445  162.0652 C   0  0  0  0  0  0  0  0  0  0  0  0
  133.5746  140.4464  160.8429 C   0  0  0  0  0  0  0  0  0  0  0  0
  127.7224  135.1907  160.4911 O   0  0  0  0  0  0  0  0  0  0  0  0
  127.8188  135.7617  163.3705 C   0  0  0  0  0  0  0  0  0  0  0  0
  128.6344  136.2362  164.3748 C   0  0  0  0  0  0  0  0  0  0  0  0
  129.5168  139.2904  166.2827 O   0  0  0  0  0  0  0  0  0  0  0  0
  130.4840  141.5054  167.3803 H   0  0  0  0  0  0  0  0  0  0  0  0
  130.5626  140.7242  168.9777 H   0  0  0  0  0  0  0  0  0  0  0  0
  131.9643  140.6543  167.8829 H   0  0  0  0  0  0  0  0  0  0  0  0
  131.2570  137.8675  168.6034 H   0  0  0  0  0  0  0  0  0  0  0  0
  129.9113  136.1603  167.0085 H   0  0  0  0  0  0  0  0  0  0  0  0
  127.1101  139.2200  164.9302 H   0  0  0  0  0  0  0  0  0  0  0  0
  125.6675  138.3686  163.1317 H   0  0  0  0  0  0  0  0  0  0  0  0
  124.9967  136.3085  161.8627 H   0  0  0  0  0  0  0  0  0  0  0  0
  124.7177  133.9916  160.3910 H   0  0  0  0  0  0  0  0  0  0  0  0
  126.4478  132.8147  158.6929 H   0  0  0  0  0  0  0  0  0  0  0  0
  132.2842  134.2314  158.0470 H   0  0  0  0  0  0  0  0  0  0  0  0
  130.4565  135.3424  160.9813 H   0  0  0  0  0  0  0  0  0  0  0  0
  130.0332  136.5270  159.7221 H   0  0  0  0  0  0  0  0  0  0  0  0
  132.1609  136.8197  161.7980 H   0  0  0  0  0  0  0  0  0  0  0  0
  131.7376  138.0043  160.5388 H   0  0  0  0  0  0  0  0  0  0  0  0
  133.0529  138.6086  158.9350 H   0  0  0  0  0  0  0  0  0  0  0  0
  134.7076  137.9906  158.7168 H   0  0  0  0  0  0  0  0  0  0  0  0
  134.7677  140.4555  159.0253 H   0  0  0  0  0  0  0  0  0  0  0  0
  136.8193  139.9707  160.3707 H   0  0  0  0  0  0  0  0  0  0  0  0
  136.5168  138.4815  162.3698 H   0  0  0  0  0  0  0  0  0  0  0  0
  134.1841  137.6595  162.8012 H   0  0  0  0  0  0  0  0  0  0  0  0
  133.6739  140.0895  162.9652 H   0  0  0  0  0  0  0  0  0  0  0  0
  132.3440  139.2434  162.1390 H   0  0  0  0  0  0  0  0  0  0  0  0
  133.9476  141.4193  161.1628 H   0  0  0  0  0  0  0  0  0  0  0  0
  132.6177  140.5732  160.3367 H   0  0  0  0  0  0  0  0  0  0  0  0
  128.0105  134.7936  162.9322 H   0  0  0  0  0  0  0  0  0  0  0  0
  129.4650  135.6405  164.7234 H   0  0  0  0  0  0  0  0  0  0  0  0
  1  2  1  0
  1 39  1  0
  1 40  1  0
  1 41  1  0
  2 38  1  0
  2  3  2  0
  3  4  1  0
  3 42  1  0
  4  5  2  0
  4 43  1  0
  5  6  1  0
  5 38  1  0
  6 37  1  0
  6  7  2  0
  7  8  1  0
  7 44  1  0
  8  9  2  0
  8 45  1  0
  9 10  1  0
  9 36  1  0
 10 11  1  0
 10 46  1  0
 11 35  1  0
 11 12  2  0
 12 13  1  0
 12 47  1  0
 13 14  2  0
 13 48  1  0
 14 15  1  0
 14 35  1  0
 15 20  1  0
 15 16  2  0
 16 17  1  0
 17 18  1  0
 17 19  1  0
 19 20  2  0
 19 49  1  0
 20 21  1  0
 21 22  1  0
 21 50  1  0
 21 51  1  0
 22 23  1  0
 22 24  1  0
 22 25  1  0
 25 26  1  0
 25 52  1  0
 25 53  1  0
 26 27  1  6
 26 32  1  0
 26 28  1  0
 28 29  1  0
 28 54  1  0
 28 55  1  0
 29 34  1  0
 29 30  1  0
 29 56  1  6
 30 31  2  0
 30 57  1  0
 31 32  1  0
 31 58  1  0
 32 33  1  0
 32 59  1  1
 33 34  1  0
 33 60  1  0
 33 61  1  0
 34 62  1  0
 34 63  1  0
 36 37  2  0
 36 64  1  0
 37 65  1  0
M  CHG  1  22   1
M  END
>  <DOCK_score>  (1) 
-49.376976

>  <SMILES>  (1) 
Cc1ccc(-c2ccc(Nc3ccc(-c4n[nH]cc4C[NH2+]C[C@H]4CC5C=CC4CC5)o3)cc2)o1

$$$$
