O=C(Nc1ccc(Nc2ccc(Nc3[nH]cc(-c4cccnc4)[nH+]3)cc2)cc1)Nc1cccnc1
     RDKit          3D

 58 62  0  0  1  0  0  0  0  0999 V2000
  129.3644  140.9914  167.2365 O   0  0  0  0  0  0  0  0  0  0  0  0
  128.7032  142.0092  167.1640 C   0  0  0  0  0  0  0  0  0  0  0  0
  127.6815  142.0880  166.2882 N   0  0  0  0  0  0  0  0  0  0  0  0
  127.3814  140.9969  165.4614 C   0  0  0  0  0  0  0  0  0  0  0  0
  126.8247  141.2088  164.2072 C   0  0  0  0  0  0  0  0  0  0  0  0
  126.5286  140.1341  163.3926 C   0  0  0  0  0  0  0  0  0  0  0  0
  126.7876  138.8407  163.8281 C   0  0  0  0  0  0  0  0  0  0  0  0
  126.4871  137.7513  163.0031 N   0  0  0  0  0  0  0  0  0  0  0  0
  127.4470  137.2665  162.1075 C   0  0  0  0  0  0  0  0  0  0  0  0
  127.1469  136.1878  161.2849 C   0  0  0  0  0  0  0  0  0  0  0  0
  128.0957  135.7055  160.4057 C   0  0  0  0  0  0  0  0  0  0  0  0
  129.3463  136.3057  160.3355 C   0  0  0  0  0  0  0  0  0  0  0  0
  130.3067  135.8199  159.4396 N   0  0  0  0  0  0  0  0  0  0  0  0
  130.3164  134.4784  159.0951 C   0  0  0  0  0  0  0  0  0  0  0  0
  129.9023  133.4529  159.8886 N   0  0  0  0  0  0  0  0  0  0  0  0
  129.5506  133.5293  160.7894 H   0  0  0  0  0  0  0  0  0  0  0  0
  130.0748  132.2900  159.1787 C   0  0  0  0  0  0  0  0  0  0  0  0
  130.5890  132.6376  157.9727 C   0  0  0  0  0  0  0  0  0  0  0  0
  130.9398  131.7068  156.8722 C   0  0  0  0  0  0  0  0  0  0  0  0
  130.8544  132.1189  155.5391 C   0  0  0  0  0  0  0  0  0  0  0  0
  131.1976  131.2142  154.5494 C   0  0  0  0  0  0  0  0  0  0  0  0
  131.5993  129.9400  154.9070 C   0  0  0  0  0  0  0  0  0  0  0  0
  131.6653  129.5783  156.1736 N   0  0  0  0  0  0  0  0  0  0  0  0
  131.3540  130.4058  157.1502 C   0  0  0  0  0  0  0  0  0  0  0  0
  130.7207  133.9873  157.9489 N   0  0  0  0  0  0  0  0  0  0  0  0
  131.0620  134.5062  157.2037 H   0  0  0  0  0  0  0  0  0  0  0  0
  129.6444  137.3872  161.1541 C   0  0  0  0  0  0  0  0  0  0  0  0
  128.6976  137.8662  162.0374 C   0  0  0  0  0  0  0  0  0  0  0  0
  127.3397  138.6287  165.0850 C   0  0  0  0  0  0  0  0  0  0  0  0
  127.6404  139.7040  165.8969 C   0  0  0  0  0  0  0  0  0  0  0  0
  128.9918  143.0585  167.9590 N   0  0  0  0  0  0  0  0  0  0  0  0
  130.0525  142.9766  168.8683 C   0  0  0  0  0  0  0  0  0  0  0  0
  130.0184  143.6957  170.0605 C   0  0  0  0  0  0  0  0  0  0  0  0
  131.0895  143.5777  170.9309 C   0  0  0  0  0  0  0  0  0  0  0  0
  132.1541  142.7658  170.5855 C   0  0  0  0  0  0  0  0  0  0  0  0
  132.1581  142.1021  169.4462 N   0  0  0  0  0  0  0  0  0  0  0  0
  131.1570  142.1815  168.5925 C   0  0  0  0  0  0  0  0  0  0  0  0
  127.1540  142.9000  166.2304 H   0  0  0  0  0  0  0  0  0  0  0  0
  126.6230  142.2144  163.8689 H   0  0  0  0  0  0  0  0  0  0  0  0
  126.0952  140.2991  162.4173 H   0  0  0  0  0  0  0  0  0  0  0  0
  125.6137  137.3324  163.0518 H   0  0  0  0  0  0  0  0  0  0  0  0
  126.1730  135.7239  161.3364 H   0  0  0  0  0  0  0  0  0  0  0  0
  127.8642  134.8640  159.7694 H   0  0  0  0  0  0  0  0  0  0  0  0
  130.9650  136.4229  159.0603 H   0  0  0  0  0  0  0  0  0  0  0  0
  129.8448  131.2901  159.5160 H   0  0  0  0  0  0  0  0  0  0  0  0
  130.5330  133.1189  155.2880 H   0  0  0  0  0  0  0  0  0  0  0  0
  131.1476  131.4989  153.5086 H   0  0  0  0  0  0  0  0  0  0  0  0
  131.8636  129.2301  154.1370 H   0  0  0  0  0  0  0  0  0  0  0  0
  131.4209  130.0729  158.1754 H   0  0  0  0  0  0  0  0  0  0  0  0
  130.6169  137.8540  161.0994 H   0  0  0  0  0  0  0  0  0  0  0  0
  128.9296  138.7070  162.6742 H   0  0  0  0  0  0  0  0  0  0  0  0
  127.5373  137.6231  165.4254 H   0  0  0  0  0  0  0  0  0  0  0  0
  128.0731  139.5395  166.8726 H   0  0  0  0  0  0  0  0  0  0  0  0
  128.4642  143.8705  167.9010 H   0  0  0  0  0  0  0  0  0  0  0  0
  129.1760  144.3268  170.3022 H   0  0  0  0  0  0  0  0  0  0  0  0
  131.0952  144.1177  171.8662 H   0  0  0  0  0  0  0  0  0  0  0  0
  132.9937  142.6737  171.2585 H   0  0  0  0  0  0  0  0  0  0  0  0
  131.1962  141.6229  167.6690 H   0  0  0  0  0  0  0  0  0  0  0  0
  1  2  2  0
  2  3  1  0
  2 31  1  0
  3  4  1  0
  3 38  1  0
  4 30  1  0
  4  5  2  0
  5  6  1  0
  5 39  1  0
  6  7  2  0
  6 40  1  0
  7  8  1  0
  7 29  1  0
  8  9  1  0
  8 41  1  0
  9 28  1  0
  9 10  2  0
 10 11  1  0
 10 42  1  0
 11 12  2  0
 11 43  1  0
 12 13  1  0
 12 27  1  0
 13 44  1  0
 14 13  1  0
 14 25  2  0
 14 15  1  0
 15 16  1  0
 15 17  1  0
 17 18  2  0
 17 45  1  0
 18 19  1  0
 18 25  1  0
 19 24  1  0
 19 20  2  0
 20 21  1  0
 20 46  1  0
 21 22  2  0
 21 47  1  0
 22 23  1  0
 22 48  1  0
 23 24  2  0
 24 49  1  0
 25 26  1  0
 27 28  2  0
 27 50  1  0
 28 51  1  0
 29 30  2  0
 29 52  1  0
 30 53  1  0
 31 32  1  0
 31 54  1  0
 32 37  1  0
 32 33  2  0
 33 34  1  0
 33 55  1  0
 34 35  2  0
 34 56  1  0
 35 36  1  0
 35 57  1  0
 36 37  2  0
 37 58  1  0
M  CHG  1  25   1
M  END
>  <DOCK_score>  (1) 
-53.367355

>  <SMILES>  (1) 
O=C(Nc1ccc(Nc2ccc(Nc3[nH]cc(-c4cccnc4)[nH+]3)cc2)cc1)Nc1cccnc1

$$$$
