Fc1ccc(-c2c[nH]c(NC(c3ccccc3)c3ccccc3)[nH+]2)cc1
     RDKit          3D

 45 48  0  0  1  0  0  0  0  0999 V2000
  131.2327  129.4888  152.1877 F   0  0  0  0  0  0  0  0  0  0  0  0
  130.9703  130.2148  153.2965 C   0  0  0  0  0  0  0  0  0  0  0  0
  130.2307  131.3824  153.1986 C   0  0  0  0  0  0  0  0  0  0  0  0
  129.9603  132.1270  154.3283 C   0  0  0  0  0  0  0  0  0  0  0  0
  130.4323  131.7029  155.5692 C   0  0  0  0  0  0  0  0  0  0  0  0
  130.1442  132.5001  156.7867 C   0  0  0  0  0  0  0  0  0  0  0  0
  129.4659  132.0710  157.8795 C   0  0  0  0  0  0  0  0  0  0  0  0
  129.4339  133.1201  158.7663 N   0  0  0  0  0  0  0  0  0  0  0  0
  129.0206  133.1183  159.6439 H   0  0  0  0  0  0  0  0  0  0  0  0
  130.0863  134.1631  158.1849 C   0  0  0  0  0  0  0  0  0  0  0  0
  130.2743  135.4128  158.7502 N   0  0  0  0  0  0  0  0  0  0  0  0
  129.7487  135.6983  160.0876 C   0  0  0  0  0  0  0  0  0  0  0  0
  130.0854  137.1172  160.4673 C   0  0  0  0  0  0  0  0  0  0  0  0
  130.2724  137.4514  161.7956 C   0  0  0  0  0  0  0  0  0  0  0  0
  130.5860  138.7520  162.1435 C   0  0  0  0  0  0  0  0  0  0  0  0
  130.7023  139.7207  161.1641 C   0  0  0  0  0  0  0  0  0  0  0  0
  130.5101  139.3876  159.8363 C   0  0  0  0  0  0  0  0  0  0  0  0
  130.2017  138.0858  159.4879 C   0  0  0  0  0  0  0  0  0  0  0  0
  128.2523  135.5198  160.0879 C   0  0  0  0  0  0  0  0  0  0  0  0
  127.6048  135.1146  161.2402 C   0  0  0  0  0  0  0  0  0  0  0  0
  126.2317  134.9554  161.2419 C   0  0  0  0  0  0  0  0  0  0  0  0
  125.5071  135.1915  160.0885 C   0  0  0  0  0  0  0  0  0  0  0  0
  126.1552  135.5916  158.9348 C   0  0  0  0  0  0  0  0  0  0  0  0
  127.5277  135.7557  158.9346 C   0  0  0  0  0  0  0  0  0  0  0  0
  130.5124  133.7878  157.0035 N   0  0  0  0  0  0  0  0  0  0  0  0
  131.0112  134.3422  156.3832 H   0  0  0  0  0  0  0  0  0  0  0  0
  131.1805  130.5307  155.6620 C   0  0  0  0  0  0  0  0  0  0  0  0
  131.4415  129.7897  154.5278 C   0  0  0  0  0  0  0  0  0  0  0  0
  129.8652  131.7101  152.2365 H   0  0  0  0  0  0  0  0  0  0  0  0
  129.3836  133.0368  154.2512 H   0  0  0  0  0  0  0  0  0  0  0  0
  129.0365  131.0910  158.0264 H   0  0  0  0  0  0  0  0  0  0  0  0
  130.7503  136.1007  158.2592 H   0  0  0  0  0  0  0  0  0  0  0  0
  130.1965  135.0135  160.8078 H   0  0  0  0  0  0  0  0  0  0  0  0
  130.1773  136.6957  162.5611 H   0  0  0  0  0  0  0  0  0  0  0  0
  130.7358  139.0123  163.1809 H   0  0  0  0  0  0  0  0  0  0  0  0
  130.9429  140.7377  161.4363 H   0  0  0  0  0  0  0  0  0  0  0  0
  130.6005  140.1443  159.0712 H   0  0  0  0  0  0  0  0  0  0  0  0
  130.0512  137.8257  158.4506 H   0  0  0  0  0  0  0  0  0  0  0  0
  128.1714  134.9260  162.1400 H   0  0  0  0  0  0  0  0  0  0  0  0
  125.7255  134.6426  162.1430 H   0  0  0  0  0  0  0  0  0  0  0  0
  124.4349  135.0629  160.0885 H   0  0  0  0  0  0  0  0  0  0  0  0
  125.5892  135.7756  158.0337 H   0  0  0  0  0  0  0  0  0  0  0  0
  128.0341  136.0679  158.0332 H   0  0  0  0  0  0  0  0  0  0  0  0
  131.5523  130.2009  156.6210 H   0  0  0  0  0  0  0  0  0  0  0  0
  132.0177  128.8792  154.5994 H   0  0  0  0  0  0  0  0  0  0  0  0
  1  2  1  0
  2 28  2  0
  2  3  1  0
  3  4  2  0
  3 29  1  0
  4  5  1  0
  4 30  1  0
  5  6  1  0
  5 27  2  0
  6 25  1  0
  6  7  2  0
  7  8  1  0
  7 31  1  0
  8  9  1  0
  8 10  1  0
 10 11  1  0
 10 25  2  0
 11 12  1  0
 11 32  1  0
 12 13  1  0
 12 19  1  0
 12 33  1  0
 13 18  1  0
 13 14  2  0
 14 15  1  0
 14 34  1  0
 15 16  2  0
 15 35  1  0
 16 17  1  0
 16 36  1  0
 17 18  2  0
 17 37  1  0
 18 38  1  0
 19 24  1  0
 19 20  2  0
 20 21  1  0
 20 39  1  0
 21 22  2  0
 21 40  1  0
 22 23  1  0
 22 41  1  0
 23 24  2  0
 23 42  1  0
 24 43  1  0
 25 26  1  0
 27 28  1  0
 27 44  1  0
 28 45  1  0
M  CHG  1  25   1
M  END
>  <DOCK_score>  (1) 
-56.761021

>  <SMILES>  (1) 
Fc1ccc(-c2c[nH]c(NC(c3ccccc3)c3ccccc3)[nH+]2)cc1

$$$$
