Oc1ccc(Sc2ccc(-c3ccccc3)cc2)c(Nc2[nH]cc(C3=CCC=CC3)[nH+]2)c1
     RDKit          3D

 56 60  0  0  1  0  0  0  0  0999 V2000
  126.5906  136.8739  162.6359 O   0  0  0  0  0  0  0  0  0  0  0  0
  127.6949  136.1557  162.2979 C   0  0  0  0  0  0  0  0  0  0  0  0
  128.4211  135.4985  163.2803 C   0  0  0  0  0  0  0  0  0  0  0  0
  129.5446  134.7681  162.9415 C   0  0  0  0  0  0  0  0  0  0  0  0
  129.9491  134.6905  161.6169 C   0  0  0  0  0  0  0  0  0  0  0  0
  131.3818  133.7604  161.1850 S   0  0  0  0  0  0  0  0  0  0  0  0
  132.6766  134.9495  161.3028 C   0  0  0  0  0  0  0  0  0  0  0  0
  133.3482  135.1283  162.5080 C   0  0  0  0  0  0  0  0  0  0  0  0
  134.3611  136.0579  162.6020 C   0  0  0  0  0  0  0  0  0  0  0  0
  134.7131  136.8192  161.4884 C   0  0  0  0  0  0  0  0  0  0  0  0
  135.8032  137.8202  161.5876 C   0  0  0  0  0  0  0  0  0  0  0  0
  135.7777  138.9635  160.7906 C   0  0  0  0  0  0  0  0  0  0  0  0
  136.7949  139.8913  160.8867 C   0  0  0  0  0  0  0  0  0  0  0  0
  137.8384  139.6881  161.7718 C   0  0  0  0  0  0  0  0  0  0  0  0
  137.8720  138.5524  162.5609 C   0  0  0  0  0  0  0  0  0  0  0  0
  136.8573  137.6207  162.4772 C   0  0  0  0  0  0  0  0  0  0  0  0
  134.0357  136.6423  160.2823 C   0  0  0  0  0  0  0  0  0  0  0  0
  133.0267  135.7081  160.1906 C   0  0  0  0  0  0  0  0  0  0  0  0
  129.2230  135.3544  160.6279 C   0  0  0  0  0  0  0  0  0  0  0  0
  129.6310  135.2829  159.2906 N   0  0  0  0  0  0  0  0  0  0  0  0
  129.7054  134.0552  158.6542 C   0  0  0  0  0  0  0  0  0  0  0  0
  129.4044  132.8519  159.2157 N   0  0  0  0  0  0  0  0  0  0  0  0
  129.1022  132.7021  160.1251 H   0  0  0  0  0  0  0  0  0  0  0  0
  129.6077  131.8897  158.2580 C   0  0  0  0  0  0  0  0  0  0  0  0
  130.0277  132.5323  157.1369 C   0  0  0  0  0  0  0  0  0  0  0  0
  130.3692  131.8982  155.8470 C   0  0  0  0  0  0  0  0  0  0  0  0
  130.1865  132.5830  154.7387 C   0  0  0  0  0  0  0  0  0  0  0  0
  130.5029  132.0263  153.3830 C   0  0  0  0  0  0  0  0  0  0  0  0
  131.4461  130.8654  153.4804 C   0  0  0  0  0  0  0  0  0  0  0  0
  131.6263  130.1900  154.5735 C   0  0  0  0  0  0  0  0  0  0  0  0
  130.9158  130.5021  155.8536 C   0  0  0  0  0  0  0  0  0  0  0  0
  130.0720  133.8613  157.4109 N   0  0  0  0  0  0  0  0  0  0  0  0
  130.3352  134.5559  156.7871 H   0  0  0  0  0  0  0  0  0  0  0  0
  128.0934  136.0818  160.9718 C   0  0  0  0  0  0  0  0  0  0  0  0
  126.1511  137.2961  161.8852 H   0  0  0  0  0  0  0  0  0  0  0  0
  128.1082  135.5580  164.3122 H   0  0  0  0  0  0  0  0  0  0  0  0
  130.1081  134.2579  163.7085 H   0  0  0  0  0  0  0  0  0  0  0  0
  133.0751  134.5384  163.3705 H   0  0  0  0  0  0  0  0  0  0  0  0
  134.8821  136.1965  163.5378 H   0  0  0  0  0  0  0  0  0  0  0  0
  134.9636  139.1229  160.0991 H   0  0  0  0  0  0  0  0  0  0  0  0
  136.7759  140.7777  160.2701 H   0  0  0  0  0  0  0  0  0  0  0  0
  138.6323  140.4168  161.8438 H   0  0  0  0  0  0  0  0  0  0  0  0
  138.6916  138.3966  163.2466 H   0  0  0  0  0  0  0  0  0  0  0  0
  136.8821  136.7365  163.0969 H   0  0  0  0  0  0  0  0  0  0  0  0
  134.3038  137.2344  159.4199 H   0  0  0  0  0  0  0  0  0  0  0  0
  132.5043  135.5680  159.2556 H   0  0  0  0  0  0  0  0  0  0  0  0
  129.8615  136.0932  158.8097 H   0  0  0  0  0  0  0  0  0  0  0  0
  129.4623  130.8258  158.3736 H   0  0  0  0  0  0  0  0  0  0  0  0
  129.7931  133.5865  154.8082 H   0  0  0  0  0  0  0  0  0  0  0  0
  129.5790  131.6969  152.9076 H   0  0  0  0  0  0  0  0  0  0  0  0
  130.9597  132.8064  152.7741 H   0  0  0  0  0  0  0  0  0  0  0  0
  132.0017  130.5781  152.6000 H   0  0  0  0  0  0  0  0  0  0  0  0
  132.3243  129.3660  154.5605 H   0  0  0  0  0  0  0  0  0  0  0  0
  131.6115  130.3947  156.6857 H   0  0  0  0  0  0  0  0  0  0  0  0
  130.0943  129.7974  155.9828 H   0  0  0  0  0  0  0  0  0  0  0  0
  127.5272  136.5939  160.2080 H   0  0  0  0  0  0  0  0  0  0  0  0
  1  2  1  0
  1 35  1  0
  2 34  2  0
  2  3  1  0
  3  4  2  0
  3 36  1  0
  4  5  1  0
  4 37  1  0
  5  6  1  0
  5 19  2  0
  6  7  1  0
  7 18  1  0
  7  8  2  0
  8  9  1  0
  8 38  1  0
  9 10  2  0
  9 39  1  0
 10 11  1  0
 10 17  1  0
 11 16  1  0
 11 12  2  0
 12 13  1  0
 12 40  1  0
 13 14  2  0
 13 41  1  0
 14 15  1  0
 14 42  1  0
 15 16  2  0
 15 43  1  0
 16 44  1  0
 17 18  2  0
 17 45  1  0
 18 46  1  0
 19 20  1  0
 19 34  1  0
 20 47  1  0
 21 20  1  0
 21 32  2  0
 21 22  1  0
 22 23  1  0
 22 24  1  0
 24 25  2  0
 24 48  1  0
 25 26  1  0
 25 32  1  0
 26 31  1  0
 26 27  2  0
 27 28  1  0
 27 49  1  0
 28 29  1  0
 28 50  1  0
 28 51  1  0
 29 30  2  0
 29 52  1  0
 30 31  1  0
 30 53  1  0
 31 54  1  0
 31 55  1  0
 32 33  1  0
 34 56  1  0
M  CHG  1  32   1
M  END
>  <DOCK_score>  (1) 
-54.775234

>  <SMILES>  (1) 
Oc1ccc(Sc2ccc(-c3ccccc3)cc2)c(Nc2[nH]cc(C3=CCC=CC3)[nH+]2)c1

$$$$
