Nc1ccc(-c2c[nH]c(N[C@@H](/C=C\Br)Cc3cccc4ccccc34)[nH+]2)cc1
     RDKit          3D

 50 53  0  0  1  0  0  0  0  0999 V2000
  130.9601  130.3703  151.8850 N   0  0  0  0  0  0  0  0  0  0  0  0
  130.8197  130.9117  153.1652 C   0  0  0  0  0  0  0  0  0  0  0  0
  130.1337  132.1071  153.3415 C   0  0  0  0  0  0  0  0  0  0  0  0
  129.9938  132.6435  154.6041 C   0  0  0  0  0  0  0  0  0  0  0  0
  130.5414  131.9854  155.7043 C   0  0  0  0  0  0  0  0  0  0  0  0
  130.3922  132.5603  157.0638 C   0  0  0  0  0  0  0  0  0  0  0  0
  129.7783  131.9680  158.1176 C   0  0  0  0  0  0  0  0  0  0  0  0
  129.8683  132.8425  159.1746 N   0  0  0  0  0  0  0  0  0  0  0  0
  129.5210  132.7006  160.0690 H   0  0  0  0  0  0  0  0  0  0  0  0
  130.5353  133.9437  158.7341 C   0  0  0  0  0  0  0  0  0  0  0  0
  130.8355  135.0619  159.4933 N   0  0  0  0  0  0  0  0  0  0  0  0
  130.4266  135.1245  160.8986 C   0  0  1  0  0  0  0  0  0  0  0  0
  129.4280  134.7007  161.0056 H   0  0  0  0  0  0  0  0  0  0  0  0
  131.3987  134.3385  161.7402 C   0  0  0  0  0  0  0  0  0  0  0  0
  130.9772  133.3188  162.4488 C   0  0  0  0  0  0  0  0  0  0  0  0
  129.1289  132.9308  162.5406 Br  0  0  0  0  0  0  0  0  0  0  0  0
  130.4141  136.5826  161.3616 C   0  0  0  0  0  0  0  0  0  0  0  0
  131.7945  137.1686  161.2137 C   0  0  0  0  0  0  0  0  0  0  0  0
  132.1557  137.7847  160.0547 C   0  0  0  0  0  0  0  0  0  0  0  0
  133.4272  138.3326  159.8997 C   0  0  0  0  0  0  0  0  0  0  0  0
  134.3455  138.2680  160.9027 C   0  0  0  0  0  0  0  0  0  0  0  0
  134.0090  137.6400  162.1136 C   0  0  0  0  0  0  0  0  0  0  0  0
  134.9299  137.5540  163.1719 C   0  0  0  0  0  0  0  0  0  0  0  0
  134.5631  136.9529  164.3365 C   0  0  0  0  0  0  0  0  0  0  0  0
  133.2912  136.4043  164.4914 C   0  0  0  0  0  0  0  0  0  0  0  0
  132.3752  136.4640  163.4868 C   0  0  0  0  0  0  0  0  0  0  0  0
  132.7136  137.0871  162.2733 C   0  0  0  0  0  0  0  0  0  0  0  0
  130.8416  133.7738  157.4710 N   0  0  0  0  0  0  0  0  0  0  0  0
  131.3161  134.4128  156.9165 H   0  0  0  0  0  0  0  0  0  0  0  0
  131.2341  130.7890  155.5246 C   0  0  0  0  0  0  0  0  0  0  0  0
  131.3660  130.2533  154.2609 C   0  0  0  0  0  0  0  0  0  0  0  0
  130.5789  130.8284  151.1201 H   0  0  0  0  0  0  0  0  0  0  0  0
  131.4388  129.5353  151.7614 H   0  0  0  0  0  0  0  0  0  0  0  0
  129.7100  132.6167  152.4888 H   0  0  0  0  0  0  0  0  0  0  0  0
  129.4603  133.5725  154.7406 H   0  0  0  0  0  0  0  0  0  0  0  0
  129.3082  130.9957  158.1251 H   0  0  0  0  0  0  0  0  0  0  0  0
  131.3166  135.8039  159.0946 H   0  0  0  0  0  0  0  0  0  0  0  0
  132.4426  134.6150  161.7596 H   0  0  0  0  0  0  0  0  0  0  0  0
  131.6859  132.7006  162.9800 H   0  0  0  0  0  0  0  0  0  0  0  0
  129.7108  137.1511  160.7528 H   0  0  0  0  0  0  0  0  0  0  0  0
  130.1096  136.6293  162.4073 H   0  0  0  0  0  0  0  0  0  0  0  0
  131.4459  137.8499  159.2435 H   0  0  0  0  0  0  0  0  0  0  0  0
  133.6886  138.8157  158.9698 H   0  0  0  0  0  0  0  0  0  0  0  0
  135.3274  138.6969  160.7682 H   0  0  0  0  0  0  0  0  0  0  0  0
  135.9193  137.9739  163.0660 H   0  0  0  0  0  0  0  0  0  0  0  0
  135.2712  136.8921  165.1497 H   0  0  0  0  0  0  0  0  0  0  0  0
  133.0285  135.9249  165.4229 H   0  0  0  0  0  0  0  0  0  0  0  0
  131.3933  136.0346  163.6213 H   0  0  0  0  0  0  0  0  0  0  0  0
  131.6628  130.2797  156.3749 H   0  0  0  0  0  0  0  0  0  0  0  0
  131.8988  129.3242  154.1216 H   0  0  0  0  0  0  0  0  0  0  0  0
  1  2  1  0
  1 32  1  0
  1 33  1  0
  2 31  2  0
  2  3  1  0
  3  4  2  0
  3 34  1  0
  4  5  1  0
  4 35  1  0
  5  6  1  0
  5 30  2  0
  6 28  1  0
  6  7  2  0
  7  8  1  0
  7 36  1  0
  8  9  1  0
  8 10  1  0
 10 11  1  0
 10 28  2  0
 11 12  1  0
 11 37  1  0
 12 13  1  6
 12 14  1  0
 12 17  1  0
 14 15  2  0
 14 38  1  0
 15 16  1  0
 15 39  1  0
 17 18  1  0
 17 40  1  0
 17 41  1  0
 18 27  1  0
 18 19  2  0
 19 20  1  0
 19 42  1  0
 20 21  2  0
 20 43  1  0
 21 22  1  0
 21 44  1  0
 22 27  2  0
 22 23  1  0
 23 24  2  0
 23 45  1  0
 24 25  1  0
 24 46  1  0
 25 26  2  0
 25 47  1  0
 26 27  1  0
 26 48  1  0
 28 29  1  0
 30 31  1  0
 30 49  1  0
 31 50  1  0
M  CHG  1  28   1
M  END
>  <DOCK_score>  (1) 
-57.67281

>  <SMILES>  (1) 
Nc1ccc(-c2c[nH]c(N[C@@H](/C=C\Br)Cc3cccc4ccccc34)[nH+]2)cc1

$$$$
