OCC1C=C[C@@H](CO)C=C1CN1CC[NH+](CCc2cccc3ccccc23)CC1
     RDKit          3D

 62 65  0  0  1  0  0  0  0  0999 V2000
  129.1482  133.0399  162.8211 O   0  0  0  0  0  0  0  0  0  0  0  0
  127.8080  133.2649  162.3791 C   0  0  0  0  0  0  0  0  0  0  0  0
  127.5137  132.3753  161.1697 C   0  0  1  0  0  0  0  0  0  0  0  0
  126.0299  132.2053  161.0409 C   0  0  0  0  0  0  0  0  0  0  0  0
  125.3173  132.8681  160.1817 C   0  0  0  0  0  0  0  0  0  0  0  0
  125.9069  133.8772  159.2428 C   0  0  1  0  0  0  0  0  0  0  0  0
  125.4276  133.7816  158.2685 H   0  0  0  0  0  0  0  0  0  0  0  0
  125.6513  135.2824  159.7915 C   0  0  0  0  0  0  0  0  0  0  0  0
  124.2437  135.4995  159.9078 O   0  0  0  0  0  0  0  0  0  0  0  0
  127.3838  133.6733  159.0860 C   0  0  0  0  0  0  0  0  0  0  0  0
  128.0972  133.0066  159.9416 C   0  0  0  0  0  0  0  0  0  0  0  0
  129.5758  132.8608  159.6891 C   0  0  0  0  0  0  0  0  0  0  0  0
  130.2925  133.9782  160.3182 N   0  0  0  0  0  0  0  0  0  0  0  0
  130.1459  135.2092  159.5288 C   0  0  0  0  0  0  0  0  0  0  0  0
  130.8549  136.3595  160.2468 C   0  0  0  0  0  0  0  0  0  0  0  0
  132.2768  136.0308  160.4133 N   0  0  0  0  0  0  0  0  0  0  0  0
  132.6945  135.8781  159.5077 H   0  0  0  0  0  0  0  0  0  0  0  0
  132.9607  137.1430  161.0865 C   0  0  0  0  0  0  0  0  0  0  0  0
  134.4653  137.0493  160.8257 C   0  0  0  0  0  0  0  0  0  0  0  0
  135.1669  138.1903  161.5163 C   0  0  0  0  0  0  0  0  0  0  0  0
  135.6065  138.0487  162.7968 C   0  0  0  0  0  0  0  0  0  0  0  0
  136.2632  139.0902  163.4492 C   0  0  0  0  0  0  0  0  0  0  0  0
  136.4727  140.2839  162.8294 C   0  0  0  0  0  0  0  0  0  0  0  0
  136.0275  140.4697  161.5098 C   0  0  0  0  0  0  0  0  0  0  0  0
  136.2259  141.6877  160.8371 C   0  0  0  0  0  0  0  0  0  0  0  0
  135.7805  141.8315  159.5594 C   0  0  0  0  0  0  0  0  0  0  0  0
  135.1289  140.7877  158.9046 C   0  0  0  0  0  0  0  0  0  0  0  0
  134.9196  139.5941  159.5240 C   0  0  0  0  0  0  0  0  0  0  0  0
  135.3655  139.4079  160.8438 C   0  0  0  0  0  0  0  0  0  0  0  0
  132.4078  134.8131  161.2243 C   0  0  0  0  0  0  0  0  0  0  0  0
  131.7116  133.6499  160.5144 C   0  0  0  0  0  0  0  0  0  0  0  0
  129.8204  133.2342  162.1537 H   0  0  0  0  0  0  0  0  0  0  0  0
  127.6890  134.3113  162.0980 H   0  0  0  0  0  0  0  0  0  0  0  0
  127.1145  133.0238  163.1847 H   0  0  0  0  0  0  0  0  0  0  0  0
  127.9748  131.3996  161.3233 H   0  0  0  0  0  0  0  0  0  0  0  0
  125.5328  131.4977  161.6878 H   0  0  0  0  0  0  0  0  0  0  0  0
  124.2531  132.6881  160.1447 H   0  0  0  0  0  0  0  0  0  0  0  0
  126.1162  135.3794  160.7727 H   0  0  0  0  0  0  0  0  0  0  0  0
  126.0780  136.0207  159.1127 H   0  0  0  0  0  0  0  0  0  0  0  0
  124.0073  136.3723  160.2504 H   0  0  0  0  0  0  0  0  0  0  0  0
  127.8757  134.0997  158.2242 H   0  0  0  0  0  0  0  0  0  0  0  0
  129.9257  131.9198  160.1134 H   0  0  0  0  0  0  0  0  0  0  0  0
  129.7634  132.8673  158.6154 H   0  0  0  0  0  0  0  0  0  0  0  0
  130.5912  135.0652  158.5444 H   0  0  0  0  0  0  0  0  0  0  0  0
  129.0878  135.4465  159.4184 H   0  0  0  0  0  0  0  0  0  0  0  0
  130.4002  136.5122  161.2256 H   0  0  0  0  0  0  0  0  0  0  0  0
  130.7595  137.2705  159.6559 H   0  0  0  0  0  0  0  0  0  0  0  0
  132.5830  138.0894  160.6994 H   0  0  0  0  0  0  0  0  0  0  0  0
  132.7737  137.0887  162.1590 H   0  0  0  0  0  0  0  0  0  0  0  0
  134.8430  136.1030  161.2127 H   0  0  0  0  0  0  0  0  0  0  0  0
  134.6522  137.1036  159.7532 H   0  0  0  0  0  0  0  0  0  0  0  0
  135.4486  137.1133  163.3130 H   0  0  0  0  0  0  0  0  0  0  0  0
  136.6063  138.9500  164.4635 H   0  0  0  0  0  0  0  0  0  0  0  0
  136.9783  141.0841  163.3493 H   0  0  0  0  0  0  0  0  0  0  0  0
  136.7294  142.5051  161.3318 H   0  0  0  0  0  0  0  0  0  0  0  0
  135.9338  142.7687  159.0450 H   0  0  0  0  0  0  0  0  0  0  0  0
  134.7854  140.9281  157.8905 H   0  0  0  0  0  0  0  0  0  0  0  0
  134.4139  138.7940  159.0039 H   0  0  0  0  0  0  0  0  0  0  0  0
  131.9451  134.9737  162.1982 H   0  0  0  0  0  0  0  0  0  0  0  0
  133.4636  134.5776  161.3581 H   0  0  0  0  0  0  0  0  0  0  0  0
  131.7959  132.7496  161.1231 H   0  0  0  0  0  0  0  0  0  0  0  0
  132.1829  133.4802  159.5464 H   0  0  0  0  0  0  0  0  0  0  0  0
  1  2  1  0
  1 32  1  0
  2  3  1  0
  2 33  1  0
  2 34  1  0
  3 11  1  0
  3  4  1  0
  3 35  1  1
  4  5  2  0
  4 36  1  0
  5  6  1  0
  5 37  1  0
  6  7  1  6
  6  8  1  0
  6 10  1  0
  8  9  1  0
  8 38  1  0
  8 39  1  0
  9 40  1  0
 10 11  2  0
 10 41  1  0
 11 12  1  0
 12 13  1  0
 12 42  1  0
 12 43  1  0
 13 31  1  0
 13 14  1  0
 14 15  1  0
 14 44  1  0
 14 45  1  0
 15 16  1  0
 15 46  1  0
 15 47  1  0
 16 17  1  0
 16 18  1  0
 16 30  1  0
 18 19  1  0
 18 48  1  0
 18 49  1  0
 19 20  1  0
 19 50  1  0
 19 51  1  0
 20 29  1  0
 20 21  2  0
 21 22  1  0
 21 52  1  0
 22 23  2  0
 22 53  1  0
 23 24  1  0
 23 54  1  0
 24 29  2  0
 24 25  1  0
 25 26  2  0
 25 55  1  0
 26 27  1  0
 26 56  1  0
 27 28  2  0
 27 57  1  0
 28 29  1  0
 28 58  1  0
 30 31  1  0
 30 59  1  0
 30 60  1  0
 31 61  1  0
 31 62  1  0
M  CHG  1  16   1
M  END
>  <DOCK_score>  (1) 
-41.443352

>  <SMILES>  (1) 
OCC1C=C[C@@H](CO)C=C1CN1CC[NH+](CCc2cccc3ccccc23)CC1

$$$$
