Brc1ccc(-c2c[nH]c(N[C@H](C3=CCOCC3)c3ccc(NC4CC=CC4)nc3)[nH+]2)cc1
     RDKit          3D

 59 63  0  0  1  0  0  0  0  0999 V2000
  131.2944  129.4395  151.5226 Br  0  0  0  0  0  0  0  0  0  0  0  0
  130.9246  130.3266  153.1512 C   0  0  0  0  0  0  0  0  0  0  0  0
  130.1401  131.4670  153.1527 C   0  0  0  0  0  0  0  0  0  0  0  0
  129.8671  132.1180  154.3383 C   0  0  0  0  0  0  0  0  0  0  0  0
  130.3829  131.6253  155.5358 C   0  0  0  0  0  0  0  0  0  0  0  0
  130.0928  132.3210  156.8133 C   0  0  0  0  0  0  0  0  0  0  0  0
  129.4523  131.7895  157.8839 C   0  0  0  0  0  0  0  0  0  0  0  0
  129.3980  132.7710  158.8437 N   0  0  0  0  0  0  0  0  0  0  0  0
  128.9992  132.6920  159.7243 H   0  0  0  0  0  0  0  0  0  0  0  0
  130.0074  133.8745  158.3309 C   0  0  0  0  0  0  0  0  0  0  0  0
  130.1640  135.0856  158.9830 N   0  0  0  0  0  0  0  0  0  0  0  0
  129.6508  135.2561  160.3445 C   0  0  2  0  0  0  0  0  0  0  0  0
  130.1315  134.5363  161.0069 H   0  0  0  0  0  0  0  0  0  0  0  0
  128.1610  135.0284  160.3520 C   0  0  0  0  0  0  0  0  0  0  0  0
  127.4797  135.3136  159.2824 C   0  0  0  0  0  0  0  0  0  0  0  0
  125.9914  135.1312  159.1911 C   0  0  0  0  0  0  0  0  0  0  0  0
  125.5318  134.2960  160.2557 O   0  0  0  0  0  0  0  0  0  0  0  0
  126.0073  134.7142  161.5412 C   0  0  0  0  0  0  0  0  0  0  0  0
  127.5204  134.4741  161.5945 C   0  0  0  0  0  0  0  0  0  0  0  0
  129.9476  136.6543  160.8219 C   0  0  0  0  0  0  0  0  0  0  0  0
  130.0192  137.7045  159.9160 C   0  0  0  0  0  0  0  0  0  0  0  0
  130.2933  138.9723  160.3956 C   0  0  0  0  0  0  0  0  0  0  0  0
  130.4872  139.1518  161.7615 C   0  0  0  0  0  0  0  0  0  0  0  0
  130.7635  140.4207  162.2572 N   0  0  0  0  0  0  0  0  0  0  0  0
  130.9691  140.6169  163.6944 C   0  0  0  0  0  0  0  0  0  0  0  0
  131.4544  142.0541  163.9945 C   0  0  0  0  0  0  0  0  0  0  0  0
  132.4514  141.8953  165.1196 C   0  0  0  0  0  0  0  0  0  0  0  0
  132.8376  140.6536  165.2340 C   0  0  0  0  0  0  0  0  0  0  0  0
  132.1635  139.7772  164.2039 C   0  0  0  0  0  0  0  0  0  0  0  0
  130.4112  138.1246  162.5934 N   0  0  0  0  0  0  0  0  0  0  0  0
  130.1454  136.9051  162.1646 C   0  0  0  0  0  0  0  0  0  0  0  0
  130.4166  133.6034  157.1156 N   0  0  0  0  0  0  0  0  0  0  0  0
  130.8793  134.2203  156.5271 H   0  0  0  0  0  0  0  0  0  0  0  0
  131.1770  130.4799  155.5281 C   0  0  0  0  0  0  0  0  0  0  0  0
  131.4388  129.8329  154.3376 C   0  0  0  0  0  0  0  0  0  0  0  0
  129.7412  131.8482  152.2242 H   0  0  0  0  0  0  0  0  0  0  0  0
  129.2547  133.0075  154.3385 H   0  0  0  0  0  0  0  0  0  0  0  0
  129.0598  130.7868  157.9662 H   0  0  0  0  0  0  0  0  0  0  0  0
  130.6099  135.8226  158.5370 H   0  0  0  0  0  0  0  0  0  0  0  0
  128.0065  135.6990  158.4220 H   0  0  0  0  0  0  0  0  0  0  0  0
  125.5032  136.1036  159.2583 H   0  0  0  0  0  0  0  0  0  0  0  0
  125.7418  134.6693  158.2359 H   0  0  0  0  0  0  0  0  0  0  0  0
  125.7949  135.7736  161.6845 H   0  0  0  0  0  0  0  0  0  0  0  0
  125.5163  134.1326  162.3213 H   0  0  0  0  0  0  0  0  0  0  0  0
  127.7194  133.4044  161.6593 H   0  0  0  0  0  0  0  0  0  0  0  0
  127.9347  134.9737  162.4703 H   0  0  0  0  0  0  0  0  0  0  0  0
  129.8645  137.5347  158.8606 H   0  0  0  0  0  0  0  0  0  0  0  0
  130.3564  139.8117  159.7188 H   0  0  0  0  0  0  0  0  0  0  0  0
  130.8201  141.1763  161.6515 H   0  0  0  0  0  0  0  0  0  0  0  0
  130.0619  140.3857  164.2525 H   0  0  0  0  0  0  0  0  0  0  0  0
  131.9379  142.4828  163.1167 H   0  0  0  0  0  0  0  0  0  0  0  0
  130.6191  142.6784  164.3118 H   0  0  0  0  0  0  0  0  0  0  0  0
  132.7984  142.7030  165.7468 H   0  0  0  0  0  0  0  0  0  0  0  0
  133.5456  140.2992  165.9683 H   0  0  0  0  0  0  0  0  0  0  0  0
  131.8101  138.8542  164.6636 H   0  0  0  0  0  0  0  0  0  0  0  0
  132.8481  139.5549  163.3854 H   0  0  0  0  0  0  0  0  0  0  0  0
  130.0867  136.0921  162.8731 H   0  0  0  0  0  0  0  0  0  0  0  0
  131.5831  130.0969  156.4525 H   0  0  0  0  0  0  0  0  0  0  0  0
  132.0501  128.9425  154.3310 H   0  0  0  0  0  0  0  0  0  0  0  0
  1  2  1  0
  2 35  2  0
  2  3  1  0
  3  4  2  0
  3 36  1  0
  4  5  1  0
  4 37  1  0
  5  6  1  0
  5 34  2  0
  6 32  1  0
  6  7  2  0
  7  8  1  0
  7 38  1  0
  8  9  1  0
  8 10  1  0
 10 11  1  0
 10 32  2  0
 11 12  1  0
 11 39  1  0
 12 13  1  1
 12 14  1  0
 12 20  1  0
 14 19  1  0
 14 15  2  0
 15 16  1  0
 15 40  1  0
 16 17  1  0
 16 41  1  0
 16 42  1  0
 17 18  1  0
 18 19  1  0
 18 43  1  0
 18 44  1  0
 19 45  1  0
 19 46  1  0
 20 31  1  0
 20 21  2  0
 21 22  1  0
 21 47  1  0
 22 23  2  0
 22 48  1  0
 23 24  1  0
 23 30  1  0
 24 25  1  0
 24 49  1  0
 25 29  1  0
 25 26  1  0
 25 50  1  0
 26 27  1  0
 26 51  1  0
 26 52  1  0
 27 28  2  0
 27 53  1  0
 28 29  1  0
 28 54  1  0
 29 55  1  0
 29 56  1  0
 30 31  2  0
 31 57  1  0
 32 33  1  0
 34 35  1  0
 34 58  1  0
 35 59  1  0
M  CHG  1  32   1
M  END
>  <DOCK_score>  (1) 
-58.975956

>  <SMILES>  (1) 
Brc1ccc(-c2c[nH]c(N[C@H](C3=CCOCC3)c3ccc(NC4CC=CC4)nc3)[nH+]2)cc1

$$$$
