CC(C)(Nc1cc(N)ccc1C1=CCN[NH2+]C1)c1nc2ccccc2[nH]1
     RDKit          3D

 51 54  0  0  0  0  0  0  0  0999 V2000
  133.0326  134.7954  159.9185 C   0  0  0  0  0  0  0  0  0  0  0  0
  131.7976  135.3566  160.6262 C   0  0  0  0  0  0  0  0  0  0  0  0
  131.2200  134.2941  161.5635 C   0  0  0  0  0  0  0  0  0  0  0  0
  130.7903  135.7281  159.6295 N   0  0  0  0  0  0  0  0  0  0  0  0
  129.4352  135.6627  159.9501 C   0  0  0  0  0  0  0  0  0  0  0  0
  128.9305  136.4205  160.9947 C   0  0  0  0  0  0  0  0  0  0  0  0
  127.5807  136.3534  161.3120 C   0  0  0  0  0  0  0  0  0  0  0  0
  127.0748  137.1169  162.3645 N   0  0  0  0  0  0  0  0  0  0  0  0
  126.7303  135.5265  160.5839 C   0  0  0  0  0  0  0  0  0  0  0  0
  127.2224  134.7696  159.5431 C   0  0  0  0  0  0  0  0  0  0  0  0
  128.5768  134.8339  159.2128 C   0  0  0  0  0  0  0  0  0  0  0  0
  129.1053  134.0284  158.0942 C   0  0  0  0  0  0  0  0  0  0  0  0
  129.5526  132.8130  158.3415 C   0  0  0  0  0  0  0  0  0  0  0  0
  130.1057  131.9291  157.2576 C   0  0  0  0  0  0  0  0  0  0  0  0
  129.7188  132.4556  155.9414 N   0  0  0  0  0  0  0  0  0  0  0  0
  130.0401  133.8733  155.8515 N   0  0  0  0  0  0  0  0  0  0  0  0
  129.9371  134.1832  154.8969 H   0  0  0  0  0  0  0  0  0  0  0  0
  130.9898  134.0246  156.1570 H   0  0  0  0  0  0  0  0  0  0  0  0
  129.1201  134.6251  156.7147 C   0  0  0  0  0  0  0  0  0  0  0  0
  132.1862  136.5737  161.4254 C   0  0  0  0  0  0  0  0  0  0  0  0
  132.1759  137.7948  160.9763 N   0  0  0  0  0  0  0  0  0  0  0  0
  132.5826  138.6443  161.9544 C   0  0  0  0  0  0  0  0  0  0  0  0
  132.7545  140.0296  162.0177 C   0  0  0  0  0  0  0  0  0  0  0  0
  133.1839  140.6100  163.1771 C   0  0  0  0  0  0  0  0  0  0  0  0
  133.4580  139.8369  164.2967 C   0  0  0  0  0  0  0  0  0  0  0  0
  133.3006  138.4680  164.2558 C   0  0  0  0  0  0  0  0  0  0  0  0
  132.8651  137.8605  163.0858 C   0  0  0  0  0  0  0  0  0  0  0  0
  132.6106  136.5545  162.7178 N   0  0  0  0  0  0  0  0  0  0  0  0
  132.7064  135.7697  163.2799 H   0  0  0  0  0  0  0  0  0  0  0  0
  133.7200  134.3850  160.6582 H   0  0  0  0  0  0  0  0  0  0  0  0
  132.7293  134.0083  159.2281 H   0  0  0  0  0  0  0  0  0  0  0  0
  133.5280  135.5931  159.3651 H   0  0  0  0  0  0  0  0  0  0  0  0
  130.4261  134.7345  162.1666 H   0  0  0  0  0  0  0  0  0  0  0  0
  130.8148  133.4714  160.9743 H   0  0  0  0  0  0  0  0  0  0  0  0
  132.0077  133.9194  162.2172 H   0  0  0  0  0  0  0  0  0  0  0  0
  131.0661  136.0197  158.7466 H   0  0  0  0  0  0  0  0  0  0  0  0
  129.5873  137.0630  161.5623 H   0  0  0  0  0  0  0  0  0  0  0  0
  127.6662  137.6935  162.8733 H   0  0  0  0  0  0  0  0  0  0  0  0
  126.1320  137.0712  162.5876 H   0  0  0  0  0  0  0  0  0  0  0  0
  125.6810  135.4785  160.8353 H   0  0  0  0  0  0  0  0  0  0  0  0
  126.5589  134.1295  158.9803 H   0  0  0  0  0  0  0  0  0  0  0  0
  129.5169  132.4387  159.3539 H   0  0  0  0  0  0  0  0  0  0  0  0
  129.7126  130.9191  157.3739 H   0  0  0  0  0  0  0  0  0  0  0  0
  131.1928  131.9061  157.3337 H   0  0  0  0  0  0  0  0  0  0  0  0
  128.7392  132.2947  155.7614 H   0  0  0  0  0  0  0  0  0  0  0  0
  128.1157  134.5865  156.2931 H   0  0  0  0  0  0  0  0  0  0  0  0
  129.4483  135.6629  156.7729 H   0  0  0  0  0  0  0  0  0  0  0  0
  132.5441  140.6408  161.1525 H   0  0  0  0  0  0  0  0  0  0  0  0
  133.3110  141.6815  163.2236 H   0  0  0  0  0  0  0  0  0  0  0  0
  133.7967  140.3109  165.2060 H   0  0  0  0  0  0  0  0  0  0  0  0
  133.5153  137.8709  165.1296 H   0  0  0  0  0  0  0  0  0  0  0  0
  1  2  1  0
  1 30  1  0
  1 31  1  0
  1 32  1  0
  2  3  1  0
  2  4  1  0
  2 20  1  0
  3 33  1  0
  3 34  1  0
  3 35  1  0
  4  5  1  0
  4 36  1  0
  5 11  1  0
  5  6  2  0
  6  7  1  0
  6 37  1  0
  7  8  1  0
  7  9  2  0
  8 38  1  0
  8 39  1  0
  9 10  1  0
  9 40  1  0
 10 11  2  0
 10 41  1  0
 11 12  1  0
 12 19  1  0
 12 13  2  0
 13 14  1  0
 13 42  1  0
 14 15  1  0
 14 43  1  0
 14 44  1  0
 15 16  1  0
 15 45  1  0
 16 17  1  0
 16 18  1  0
 16 19  1  0
 19 46  1  0
 19 47  1  0
 20 28  1  0
 20 21  2  0
 21 22  1  0
 22 27  2  0
 22 23  1  0
 23 24  2  0
 23 48  1  0
 24 25  1  0
 24 49  1  0
 25 26  2  0
 25 50  1  0
 26 27  1  0
 26 51  1  0
 27 28  1  0
 28 29  1  0
M  CHG  1  16   1
M  END
>  <DOCK_score>  (1) 
-44.614285

>  <SMILES>  (1) 
CC(C)(Nc1cc(N)ccc1C1=CCN[NH2+]C1)c1nc2ccccc2[nH]1

$$$$
