O=C1CCC(NC(NC2CC=CC2)=[NH+][C@H]2COc3cc(Cl)ccc3C2)CN1
     RDKit          3D

 53 56  0  0  1  0  0  0  0  0999 V2000
  123.7859  133.6152  161.4438 O   0  0  0  0  0  0  0  0  0  0  0  0
  124.9094  133.9792  161.1681 C   0  0  0  0  0  0  0  0  0  0  0  0
  125.7594  133.0796  160.3175 C   0  0  0  0  0  0  0  0  0  0  0  0
  127.2311  133.4808  160.4443 C   0  0  0  0  0  0  0  0  0  0  0  0
  127.3389  134.9974  160.2445 C   0  0  2  0  0  0  0  0  0  0  0  0
  128.7501  135.3866  160.1874 N   0  0  0  0  0  0  0  0  0  0  0  0
  129.5678  134.8661  159.2123 C   0  0  0  0  0  0  0  0  0  0  0  0
  129.0612  133.9806  158.2908 N   0  0  0  0  0  0  0  0  0  0  0  0
  129.9285  132.9537  157.7081 C   0  0  0  0  0  0  0  0  0  0  0  0
  129.1649  131.6218  157.5231 C   0  0  0  0  0  0  0  0  0  0  0  0
  130.1792  130.5497  157.8492 C   0  0  0  0  0  0  0  0  0  0  0  0
  131.2008  131.0482  158.4909 C   0  0  0  0  0  0  0  0  0  0  0  0
  131.0382  132.5358  158.7006 C   0  0  0  0  0  0  0  0  0  0  0  0
  130.8233  135.2125  159.1615 N   0  0  0  0  0  0  0  0  0  0  0  0
  131.2870  135.2319  158.3097 H   0  0  0  0  0  0  0  0  0  0  0  0
  131.5342  135.5724  160.3909 C   0  0  1  0  0  0  0  0  0  0  0  0
  131.1106  135.0257  161.2334 H   0  0  0  0  0  0  0  0  0  0  0  0
  133.0226  135.2297  160.2467 C   0  0  0  0  0  0  0  0  0  0  0  0
  133.6680  135.4939  161.4932 O   0  0  0  0  0  0  0  0  0  0  0  0
  133.4404  136.6963  162.0833 C   0  0  0  0  0  0  0  0  0  0  0  0
  134.3113  137.1206  163.0818 C   0  0  0  0  0  0  0  0  0  0  0  0
  134.1105  138.3342  163.7090 C   0  0  0  0  0  0  0  0  0  0  0  0
  135.1993  138.8590  164.9552 Cl  0  0  0  0  0  0  0  0  0  0  0  0
  133.0400  139.1317  163.3435 C   0  0  0  0  0  0  0  0  0  0  0  0
  132.1755  138.7137  162.3513 C   0  0  0  0  0  0  0  0  0  0  0  0
  132.3728  137.4975  161.7182 C   0  0  0  0  0  0  0  0  0  0  0  0
  131.4091  137.0779  160.6373 C   0  0  0  0  0  0  0  0  0  0  0  0
  126.6615  135.6960  161.4242 C   0  0  0  0  0  0  0  0  0  0  0  0
  125.3241  135.1567  161.6369 N   0  0  0  0  0  0  0  0  0  0  0  0
  125.4489  133.1662  159.2763 H   0  0  0  0  0  0  0  0  0  0  0  0
  125.6358  132.0477  160.6462 H   0  0  0  0  0  0  0  0  0  0  0  0
  127.8182  132.9677  159.6826 H   0  0  0  0  0  0  0  0  0  0  0  0
  127.6008  133.2138  161.4342 H   0  0  0  0  0  0  0  0  0  0  0  0
  126.8436  135.2801  159.3156 H   0  0  0  0  0  0  0  0  0  0  0  0
  129.1086  136.0082  160.8401 H   0  0  0  0  0  0  0  0  0  0  0  0
  128.1295  134.0355  158.0266 H   0  0  0  0  0  0  0  0  0  0  0  0
  130.3552  133.2943  156.7648 H   0  0  0  0  0  0  0  0  0  0  0  0
  128.3217  131.5687  158.2118 H   0  0  0  0  0  0  0  0  0  0  0  0
  128.8221  131.5206  156.4934 H   0  0  0  0  0  0  0  0  0  0  0  0
  130.0728  129.5077  157.5855 H   0  0  0  0  0  0  0  0  0  0  0  0
  132.0508  130.4731  158.8273 H   0  0  0  0  0  0  0  0  0  0  0  0
  131.9684  133.0555  158.4710 H   0  0  0  0  0  0  0  0  0  0  0  0
  130.7291  132.7431  159.7251 H   0  0  0  0  0  0  0  0  0  0  0  0
  133.1337  134.1758  159.9919 H   0  0  0  0  0  0  0  0  0  0  0  0
  133.4671  135.8459  159.4652 H   0  0  0  0  0  0  0  0  0  0  0  0
  135.1467  136.4987  163.3675 H   0  0  0  0  0  0  0  0  0  0  0  0
  132.8808  140.0806  163.8342 H   0  0  0  0  0  0  0  0  0  0  0  0
  131.3411  139.3379  162.0677 H   0  0  0  0  0  0  0  0  0  0  0  0
  131.6385  137.6162  159.7177 H   0  0  0  0  0  0  0  0  0  0  0  0
  130.3911  137.3110  160.9495 H   0  0  0  0  0  0  0  0  0  0  0  0
  127.2583  135.5445  162.3236 H   0  0  0  0  0  0  0  0  0  0  0  0
  126.5908  136.7640  161.2182 H   0  0  0  0  0  0  0  0  0  0  0  0
  124.6965  135.6877  162.1517 H   0  0  0  0  0  0  0  0  0  0  0  0
  1  2  2  0
  2 29  1  0
  2  3  1  0
  3  4  1  0
  3 30  1  0
  3 31  1  0
  4  5  1  0
  4 32  1  0
  4 33  1  0
  5  6  1  0
  5 28  1  0
  5 34  1  6
  6 35  1  0
  7  6  1  0
  7  8  1  0
  7 14  2  0
  8  9  1  0
  8 36  1  0
  9 13  1  0
  9 10  1  0
  9 37  1  0
 10 11  1  0
 10 38  1  0
 10 39  1  0
 11 12  2  0
 11 40  1  0
 12 13  1  0
 12 41  1  0
 13 42  1  0
 13 43  1  0
 14 15  1  0
 14 16  1  0
 16 17  1  1
 16 27  1  0
 16 18  1  0
 18 19  1  0
 18 44  1  0
 18 45  1  0
 19 20  1  0
 20 26  2  0
 20 21  1  0
 21 22  2  0
 21 46  1  0
 22 23  1  0
 22 24  1  0
 24 25  2  0
 24 47  1  0
 25 26  1  0
 25 48  1  0
 26 27  1  0
 27 49  1  0
 27 50  1  0
 28 29  1  0
 28 51  1  0
 28 52  1  0
 29 53  1  0
M  CHG  1  14   1
M  END
>  <DOCK_score>  (1) 
-44.72406

>  <SMILES>  (1) 
O=C1CCC(NC(NC2CC=CC2)=[NH+][C@H]2COc3cc(Cl)ccc3C2)CN1

$$$$
