O=C(CCc1c[nH+]c(NC(Cc2ccccc2)Cc2ccccc2)[nH]1)NCC1=CCCC1
     RDKit          3D

 65 68  0  0  1  0  0  0  0  0999 V2000
  127.7154  134.1452  162.3158 O   0  0  0  0  0  0  0  0  0  0  0  0
  126.8322  134.7735  161.7717 C   0  0  0  0  0  0  0  0  0  0  0  0
  126.1709  134.2261  160.5331 C   0  0  0  0  0  0  0  0  0  0  0  0
  127.1736  133.3716  159.7551 C   0  0  0  0  0  0  0  0  0  0  0  0
  128.3560  134.2186  159.3607 C   0  0  0  0  0  0  0  0  0  0  0  0
  128.4865  134.9334  158.2303 C   0  0  0  0  0  0  0  0  0  0  0  0
  129.6811  135.5483  158.2549 N   0  0  0  0  0  0  0  0  0  0  0  0
  130.0280  136.1286  157.5592 H   0  0  0  0  0  0  0  0  0  0  0  0
  130.3045  135.2407  159.3675 C   0  0  0  0  0  0  0  0  0  0  0  0
  131.5605  135.6878  159.7424 N   0  0  0  0  0  0  0  0  0  0  0  0
  132.1386  135.2623  161.0195 C   0  0  0  0  0  0  0  0  0  0  0  0
  132.9396  133.9750  160.8132 C   0  0  0  0  0  0  0  0  0  0  0  0
  132.0284  132.8951  160.2894 C   0  0  0  0  0  0  0  0  0  0  0  0
  131.3664  132.0614  161.1713 C   0  0  0  0  0  0  0  0  0  0  0  0
  130.5269  131.0738  160.6911 C   0  0  0  0  0  0  0  0  0  0  0  0
  130.3575  130.9130  159.3287 C   0  0  0  0  0  0  0  0  0  0  0  0
  131.0236  131.7432  158.4466 C   0  0  0  0  0  0  0  0  0  0  0  0
  131.8590  132.7343  158.9270 C   0  0  0  0  0  0  0  0  0  0  0  0
  133.0636  136.3589  161.5513 C   0  0  0  0  0  0  0  0  0  0  0  0
  133.2666  136.1701  163.0326 C   0  0  0  0  0  0  0  0  0  0  0  0
  132.4135  136.7833  163.9309 C   0  0  0  0  0  0  0  0  0  0  0  0
  132.5967  136.6062  165.2895 C   0  0  0  0  0  0  0  0  0  0  0  0
  133.6395  135.8244  165.7501 C   0  0  0  0  0  0  0  0  0  0  0  0
  134.4960  135.2154  164.8519 C   0  0  0  0  0  0  0  0  0  0  0  0
  134.3096  135.3883  163.4932 C   0  0  0  0  0  0  0  0  0  0  0  0
  129.5058  134.4123  160.0927 N   0  0  0  0  0  0  0  0  0  0  0  0
  129.7088  134.0288  160.9603 H   0  0  0  0  0  0  0  0  0  0  0  0
  126.4382  135.9589  162.2779 N   0  0  0  0  0  0  0  0  0  0  0  0
  127.0770  136.4883  163.4854 C   0  0  0  0  0  0  0  0  0  0  0  0
  126.4588  137.8163  163.8395 C   0  0  0  0  0  0  0  0  0  0  0  0
  126.8881  138.9699  163.4052 C   0  0  0  0  0  0  0  0  0  0  0  0
  126.0458  140.1022  163.9453 C   0  0  0  0  0  0  0  0  0  0  0  0
  124.7596  139.4222  164.4692 C   0  0  0  0  0  0  0  0  0  0  0  0
  125.2645  137.9877  164.7492 C   0  0  0  0  0  0  0  0  0  0  0  0
  125.3158  133.6134  160.8184 H   0  0  0  0  0  0  0  0  0  0  0  0
  125.8335  135.0515  159.9063 H   0  0  0  0  0  0  0  0  0  0  0  0
  127.5109  132.5462  160.3820 H   0  0  0  0  0  0  0  0  0  0  0  0
  126.6954  132.9755  158.8593 H   0  0  0  0  0  0  0  0  0  0  0  0
  127.7561  135.0018  157.4376 H   0  0  0  0  0  0  0  0  0  0  0  0
  132.0576  136.2827  159.1593 H   0  0  0  0  0  0  0  0  0  0  0  0
  131.3390  135.0814  161.7379 H   0  0  0  0  0  0  0  0  0  0  0  0
  133.7390  134.1559  160.0947 H   0  0  0  0  0  0  0  0  0  0  0  0
  133.3696  133.6585  161.7634 H   0  0  0  0  0  0  0  0  0  0  0  0
  131.5022  132.1842  162.2357 H   0  0  0  0  0  0  0  0  0  0  0  0
  130.0067  130.4250  161.3802 H   0  0  0  0  0  0  0  0  0  0  0  0
  129.7051  130.1385  158.9532 H   0  0  0  0  0  0  0  0  0  0  0  0
  130.8916  131.6173  157.3820 H   0  0  0  0  0  0  0  0  0  0  0  0
  132.3797  133.3826  158.2378 H   0  0  0  0  0  0  0  0  0  0  0  0
  134.0258  136.3009  161.0424 H   0  0  0  0  0  0  0  0  0  0  0  0
  132.6137  137.3345  161.3677 H   0  0  0  0  0  0  0  0  0  0  0  0
  131.6014  137.3977  163.5710 H   0  0  0  0  0  0  0  0  0  0  0  0
  131.9279  137.0822  165.9912 H   0  0  0  0  0  0  0  0  0  0  0  0
  133.7856  135.6897  166.8117 H   0  0  0  0  0  0  0  0  0  0  0  0
  135.3110  134.6049  165.2118 H   0  0  0  0  0  0  0  0  0  0  0  0
  134.9788  134.9128  162.7915 H   0  0  0  0  0  0  0  0  0  0  0  0
  125.7318  136.4615  161.8428 H   0  0  0  0  0  0  0  0  0  0  0  0
  126.9327  135.7893  164.3091 H   0  0  0  0  0  0  0  0  0  0  0  0
  128.1435  136.6208  163.3039 H   0  0  0  0  0  0  0  0  0  0  0  0
  127.7329  139.0980  162.7448 H   0  0  0  0  0  0  0  0  0  0  0  0
  125.8049  140.8109  163.1530 H   0  0  0  0  0  0  0  0  0  0  0  0
  126.5683  140.6046  164.7594 H   0  0  0  0  0  0  0  0  0  0  0  0
  123.9798  139.4209  163.7076 H   0  0  0  0  0  0  0  0  0  0  0  0
  124.4098  139.8995  165.3845 H   0  0  0  0  0  0  0  0  0  0  0  0
  124.4924  137.2587  164.5035 H   0  0  0  0  0  0  0  0  0  0  0  0
  125.5643  137.8875  165.7924 H   0  0  0  0  0  0  0  0  0  0  0  0
  1  2  2  0
  2  3  1  0
  2 28  1  0
  3  4  1  0
  3 35  1  0
  3 36  1  0
  4  5  1  0
  4 37  1  0
  4 38  1  0
  5 26  1  0
  5  6  2  0
  6  7  1  0
  6 39  1  0
  7  8  1  0
  7  9  2  0
  9 10  1  0
  9 26  1  0
 10 11  1  0
 10 40  1  0
 11 12  1  0
 11 19  1  0
 11 41  1  0
 12 13  1  0
 12 42  1  0
 12 43  1  0
 13 18  1  0
 13 14  2  0
 14 15  1  0
 14 44  1  0
 15 16  2  0
 15 45  1  0
 16 17  1  0
 16 46  1  0
 17 18  2  0
 17 47  1  0
 18 48  1  0
 19 20  1  0
 19 49  1  0
 19 50  1  0
 20 25  1  0
 20 21  2  0
 21 22  1  0
 21 51  1  0
 22 23  2  0
 22 52  1  0
 23 24  1  0
 23 53  1  0
 24 25  2  0
 24 54  1  0
 25 55  1  0
 26 27  1  0
 28 29  1  0
 28 56  1  0
 29 30  1  0
 29 57  1  0
 29 58  1  0
 30 34  1  0
 30 31  2  0
 31 32  1  0
 31 59  1  0
 32 33  1  0
 32 60  1  0
 32 61  1  0
 33 34  1  0
 33 62  1  0
 33 63  1  0
 34 64  1  0
 34 65  1  0
M  CHG  1   7   1
M  END
>  <DOCK_score>  (1) 
-46.898228

>  <SMILES>  (1) 
O=C(CCc1c[nH+]c(NC(Cc2ccccc2)Cc2ccccc2)[nH]1)NCC1=CCCC1

$$$$
