Cc1cc(N)ccc1Nc1[nH]cc(-c2ccncc2)[nH+]1
     RDKit          3D

 36 38  0  0  1  0  0  0  0  0999 V2000
  127.3991  135.3375  158.1616 C   0  0  0  0  0  0  0  0  0  0  0  0
  127.8963  135.7461  159.5245 C   0  0  0  0  0  0  0  0  0  0  0  0
  127.0002  136.1550  160.4924 C   0  0  0  0  0  0  0  0  0  0  0  0
  127.4589  136.5377  161.7459 C   0  0  0  0  0  0  0  0  0  0  0  0
  126.5513  136.9585  162.7247 N   0  0  0  0  0  0  0  0  0  0  0  0
  128.8186  136.5035  162.0281 C   0  0  0  0  0  0  0  0  0  0  0  0
  129.7138  136.0893  161.0622 C   0  0  0  0  0  0  0  0  0  0  0  0
  129.2551  135.7069  159.8083 C   0  0  0  0  0  0  0  0  0  0  0  0
  130.1633  135.2873  158.8283 N   0  0  0  0  0  0  0  0  0  0  0  0
  130.0623  134.0155  158.2897 C   0  0  0  0  0  0  0  0  0  0  0  0
  129.5833  132.9165  158.9353 N   0  0  0  0  0  0  0  0  0  0  0  0
  129.2571  132.8835  159.8483 H   0  0  0  0  0  0  0  0  0  0  0  0
  129.6523  131.8635  158.0589 C   0  0  0  0  0  0  0  0  0  0  0  0
  130.1714  132.3470  156.9019 C   0  0  0  0  0  0  0  0  0  0  0  0
  130.4286  131.5670  155.6681 C   0  0  0  0  0  0  0  0  0  0  0  0
  129.7989  131.8987  154.4640 C   0  0  0  0  0  0  0  0  0  0  0  0
  130.0700  131.1489  153.3389 C   0  0  0  0  0  0  0  0  0  0  0  0
  130.9021  130.1267  153.3902 N   0  0  0  0  0  0  0  0  0  0  0  0
  131.5135  129.7770  154.5071 C   0  0  0  0  0  0  0  0  0  0  0  0
  131.3031  130.4755  155.6774 C   0  0  0  0  0  0  0  0  0  0  0  0
  130.4127  133.6709  157.0748 N   0  0  0  0  0  0  0  0  0  0  0  0
  130.7854  134.2668  156.4062 H   0  0  0  0  0  0  0  0  0  0  0  0
  127.1832  134.2692  158.1591 H   0  0  0  0  0  0  0  0  0  0  0  0
  126.4913  135.8922  157.9249 H   0  0  0  0  0  0  0  0  0  0  0  0
  128.1634  135.5556  157.4158 H   0  0  0  0  0  0  0  0  0  0  0  0
  125.9432  136.1816  160.2730 H   0  0  0  0  0  0  0  0  0  0  0  0
  126.8719  137.2262  163.6003 H   0  0  0  0  0  0  0  0  0  0  0  0
  125.6020  136.9824  162.5276 H   0  0  0  0  0  0  0  0  0  0  0  0
  129.1753  136.8012  163.0030 H   0  0  0  0  0  0  0  0  0  0  0  0
  130.7709  136.0630  161.2816 H   0  0  0  0  0  0  0  0  0  0  0  0
  130.8631  135.8876  158.5267 H   0  0  0  0  0  0  0  0  0  0  0  0
  129.3514  130.8445  158.2527 H   0  0  0  0  0  0  0  0  0  0  0  0
  129.1135  132.7318  154.4155 H   0  0  0  0  0  0  0  0  0  0  0  0
  129.5915  131.3996  152.4037 H   0  0  0  0  0  0  0  0  0  0  0  0
  132.1869  128.9327  154.5042 H   0  0  0  0  0  0  0  0  0  0  0  0
  131.8065  130.1842  156.5874 H   0  0  0  0  0  0  0  0  0  0  0  0
  1  2  1  0
  1 23  1  0
  1 24  1  0
  1 25  1  0
  2  8  2  0
  2  3  1  0
  3  4  2  0
  3 26  1  0
  4  5  1  0
  4  6  1  0
  5 27  1  0
  5 28  1  0
  6  7  2  0
  6 29  1  0
  7  8  1  0
  7 30  1  0
  8  9  1  0
  9 31  1  0
 10  9  1  0
 10 21  2  0
 10 11  1  0
 11 12  1  0
 11 13  1  0
 13 14  2  0
 13 32  1  0
 14 15  1  0
 14 21  1  0
 15 20  1  0
 15 16  2  0
 16 17  1  0
 16 33  1  0
 17 18  2  0
 17 34  1  0
 18 19  1  0
 19 20  2  0
 19 35  1  0
 20 36  1  0
 21 22  1  0
M  CHG  1  21   1
M  END
>  <DOCK_score>  (1) 
-47.873379

>  <SMILES>  (1) 
Cc1cc(N)ccc1Nc1[nH]cc(-c2ccncc2)[nH+]1

$$$$
