Nc1ccc(N(c2ccc(NC3CCC3)cc2)[C@@H]2CCC[NH+](Cc3ccccc3)C2)cc1O
     RDKit          3D

 68 72  0  0  1  0  0  0  0  0999 V2000
  123.8399  131.4839  161.6753 N   0  0  0  0  0  0  0  0  0  0  0  0
  125.0539  131.8311  161.0642 C   0  0  0  0  0  0  0  0  0  0  0  0
  125.9532  130.8415  160.6960 C   0  0  0  0  0  0  0  0  0  0  0  0
  127.1495  131.1828  160.0941 C   0  0  0  0  0  0  0  0  0  0  0  0
  127.4536  132.5168  159.8564 C   0  0  0  0  0  0  0  0  0  0  0  0
  128.6682  132.8603  159.2516 N   0  0  0  0  0  0  0  0  0  0  0  0
  129.2765  134.0854  159.5492 C   0  0  0  0  0  0  0  0  0  0  0  0
  128.9851  135.2090  158.7865 C   0  0  0  0  0  0  0  0  0  0  0  0
  129.5814  136.4185  159.0831 C   0  0  0  0  0  0  0  0  0  0  0  0
  130.4805  136.5093  160.1377 C   0  0  0  0  0  0  0  0  0  0  0  0
  131.0891  137.7343  160.4350 N   0  0  0  0  0  0  0  0  0  0  0  0
  132.4296  137.7622  161.0250 C   0  0  0  0  0  0  0  0  0  0  0  0
  133.3482  138.8352  160.4170 C   0  0  0  0  0  0  0  0  0  0  0  0
  134.4800  137.7943  160.4925 C   0  0  0  0  0  0  0  0  0  0  0  0
  133.3863  136.7150  160.4306 C   0  0  0  0  0  0  0  0  0  0  0  0
  130.7759  135.3847  160.8970 C   0  0  0  0  0  0  0  0  0  0  0  0
  130.1760  134.1763  160.6036 C   0  0  0  0  0  0  0  0  0  0  0  0
  129.3030  131.9376  158.3072 C   0  0  2  0  0  0  0  0  0  0  0  0
  128.6883  131.0435  158.2028 H   0  0  0  0  0  0  0  0  0  0  0  0
  130.6899  131.5480  158.8267 C   0  0  0  0  0  0  0  0  0  0  0  0
  131.3757  130.6467  157.7959 C   0  0  0  0  0  0  0  0  0  0  0  0
  131.4437  131.3768  156.4530 C   0  0  0  0  0  0  0  0  0  0  0  0
  130.0859  131.6984  155.9975 N   0  0  2  0  0  0  0  0  0  0  0  0
  129.5427  130.8502  155.9373 H   0  0  0  0  0  0  0  0  0  0  0  0
  130.1535  132.3299  154.6730 C   0  0  0  0  0  0  0  0  0  0  0  0
  130.3273  131.2675  153.6182 C   0  0  0  0  0  0  0  0  0  0  0  0
  131.5963  130.8755  153.2347 C   0  0  0  0  0  0  0  0  0  0  0  0
  131.7556  129.8975  152.2709 C   0  0  0  0  0  0  0  0  0  0  0  0
  130.6462  129.3191  151.6829 C   0  0  0  0  0  0  0  0  0  0  0  0
  129.3774  129.7149  152.0628 C   0  0  0  0  0  0  0  0  0  0  0  0
  129.2179  130.6892  153.0304 C   0  0  0  0  0  0  0  0  0  0  0  0
  129.4478  132.6200  156.9453 C   0  0  0  0  0  0  0  0  0  0  0  0
  126.5556  133.5103  160.2237 C   0  0  0  0  0  0  0  0  0  0  0  0
  125.3568  133.1700  160.8272 C   0  0  0  0  0  0  0  0  0  0  0  0
  124.4757  134.1413  161.1872 O   0  0  0  0  0  0  0  0  0  0  0  0
  123.6294  130.5516  161.8406 H   0  0  0  0  0  0  0  0  0  0  0  0
  123.2112  132.1762  161.9328 H   0  0  0  0  0  0  0  0  0  0  0  0
  125.7181  129.8035  160.8794 H   0  0  0  0  0  0  0  0  0  0  0  0
  127.8486  130.4109  159.8082 H   0  0  0  0  0  0  0  0  0  0  0  0
  128.2890  135.1375  157.9637 H   0  0  0  0  0  0  0  0  0  0  0  0
  129.3517  137.2932  158.4927 H   0  0  0  0  0  0  0  0  0  0  0  0
  130.6230  138.5647  160.2503 H   0  0  0  0  0  0  0  0  0  0  0  0
  132.4122  137.7688  162.1150 H   0  0  0  0  0  0  0  0  0  0  0  0
  133.0788  139.1143  159.3985 H   0  0  0  0  0  0  0  0  0  0  0  0
  133.5023  139.6970  161.0665 H   0  0  0  0  0  0  0  0  0  0  0  0
  135.0243  137.8107  161.4367 H   0  0  0  0  0  0  0  0  0  0  0  0
  135.1388  137.7986  159.6241 H   0  0  0  0  0  0  0  0  0  0  0  0
  133.5711  135.8678  161.0909 H   0  0  0  0  0  0  0  0  0  0  0  0
  133.1273  136.4136  159.4157 H   0  0  0  0  0  0  0  0  0  0  0  0
  131.4754  135.4554  161.7169 H   0  0  0  0  0  0  0  0  0  0  0  0
  130.4060  133.3017  161.1940 H   0  0  0  0  0  0  0  0  0  0  0  0
  131.2874  132.4466  158.9800 H   0  0  0  0  0  0  0  0  0  0  0  0
  130.5882  131.0112  159.7700 H   0  0  0  0  0  0  0  0  0  0  0  0
  130.8046  129.7254  157.6809 H   0  0  0  0  0  0  0  0  0  0  0  0
  132.3849  130.4097  158.1329 H   0  0  0  0  0  0  0  0  0  0  0  0
  131.9315  130.7379  155.7169 H   0  0  0  0  0  0  0  0  0  0  0  0
  132.0151  132.2977  156.5692 H   0  0  0  0  0  0  0  0  0  0  0  0
  129.2318  132.8806  154.4854 H   0  0  0  0  0  0  0  0  0  0  0  0
  130.9998  133.0161  154.6404 H   0  0  0  0  0  0  0  0  0  0  0  0
  132.4630  131.3305  153.6908 H   0  0  0  0  0  0  0  0  0  0  0  0
  132.7470  129.5885  151.9738 H   0  0  0  0  0  0  0  0  0  0  0  0
  130.7708  128.5584  150.9267 H   0  0  0  0  0  0  0  0  0  0  0  0
  128.5107  129.2633  151.6032 H   0  0  0  0  0  0  0  0  0  0  0  0
  128.2267  130.9986  153.3269 H   0  0  0  0  0  0  0  0  0  0  0  0
  128.4622  132.8989  156.5725 H   0  0  0  0  0  0  0  0  0  0  0  0
  130.0617  133.5144  157.0509 H   0  0  0  0  0  0  0  0  0  0  0  0
  126.7922  134.5478  160.0391 H   0  0  0  0  0  0  0  0  0  0  0  0
  124.7738  135.0382  160.9825 H   0  0  0  0  0  0  0  0  0  0  0  0
  1  2  1  0
  1 36  1  0
  1 37  1  0
  2 34  2  0
  2  3  1  0
  3  4  2  0
  3 38  1  0
  4  5  1  0
  4 39  1  0
  5  6  1  0
  5 33  2  0
  6  7  1  0
  6 18  1  0
  7 17  1  0
  7  8  2  0
  8  9  1  0
  8 40  1  0
  9 10  2  0
  9 41  1  0
 10 11  1  0
 10 16  1  0
 11 12  1  0
 11 42  1  0
 12 15  1  0
 12 13  1  0
 12 43  1  0
 13 14  1  0
 13 44  1  0
 13 45  1  0
 14 15  1  0
 14 46  1  0
 14 47  1  0
 15 48  1  0
 15 49  1  0
 16 17  2  0
 16 50  1  0
 17 51  1  0
 18 19  1  6
 18 32  1  0
 18 20  1  0
 20 21  1  0
 20 52  1  0
 20 53  1  0
 21 22  1  0
 21 54  1  0
 21 55  1  0
 22 23  1  0
 22 56  1  0
 22 57  1  0
 23 24  1  6
 23 25  1  0
 23 32  1  0
 25 26  1  0
 25 58  1  0
 25 59  1  0
 26 31  1  0
 26 27  2  0
 27 28  1  0
 27 60  1  0
 28 29  2  0
 28 61  1  0
 29 30  1  0
 29 62  1  0
 30 31  2  0
 30 63  1  0
 31 64  1  0
 32 65  1  0
 32 66  1  0
 33 34  1  0
 33 67  1  0
 34 35  1  0
 35 68  1  0
M  CHG  1  23   1
M  END
>  <DOCK_score>  (1) 
-47.883812

>  <SMILES>  (1) 
Nc1ccc(N(c2ccc(NC3CCC3)cc2)[C@@H]2CCC[NH+](Cc3ccccc3)C2)cc1O

$$$$
