CCc1ccc(-c2c[nH]c(Nc3ccc(N4CCC(Nc5ccc(O)cc5)CC4)cc3)[nH+]2)cc1
     RDKit          3D

 66 70  0  0  1  0  0  0  0  0999 V2000
  130.1324  128.7013  151.4049 C   0  0  0  0  0  0  0  0  0  0  0  0
  131.2895  129.6336  151.7696 C   0  0  0  0  0  0  0  0  0  0  0  0
  130.9730  130.3459  153.0592 C   0  0  0  0  0  0  0  0  0  0  0  0
  131.3479  129.7856  154.2665 C   0  0  0  0  0  0  0  0  0  0  0  0
  131.0648  130.4364  155.4501 C   0  0  0  0  0  0  0  0  0  0  0  0
  130.3909  131.6561  155.4277 C   0  0  0  0  0  0  0  0  0  0  0  0
  130.0797  132.3581  156.6969 C   0  0  0  0  0  0  0  0  0  0  0  0
  129.3170  131.8759  157.7094 C   0  0  0  0  0  0  0  0  0  0  0  0
  129.2926  132.8419  158.6851 N   0  0  0  0  0  0  0  0  0  0  0  0
  128.8292  132.7881  159.5356 H   0  0  0  0  0  0  0  0  0  0  0  0
  130.0343  133.8914  158.2362 C   0  0  0  0  0  0  0  0  0  0  0  0
  130.2569  135.0740  158.9218 N   0  0  0  0  0  0  0  0  0  0  0  0
  129.6958  135.2640  160.1911 C   0  0  0  0  0  0  0  0  0  0  0  0
  130.5185  135.4848  161.2878 C   0  0  0  0  0  0  0  0  0  0  0  0
  129.9651  135.6779  162.5381 C   0  0  0  0  0  0  0  0  0  0  0  0
  128.5864  135.6401  162.7005 C   0  0  0  0  0  0  0  0  0  0  0  0
  128.0258  135.8300  163.9688 N   0  0  0  0  0  0  0  0  0  0  0  0
  128.4187  134.7513  164.8846 C   0  0  0  0  0  0  0  0  0  0  0  0
  127.6746  134.9114  166.2123 C   0  0  0  0  0  0  0  0  0  0  0  0
  128.0161  136.2738  166.8222 C   0  0  0  0  0  0  0  0  0  0  0  0
  127.2616  136.4570  168.0645 N   0  0  0  0  0  0  0  0  0  0  0  0
  127.9400  136.6507  169.2729 C   0  0  0  0  0  0  0  0  0  0  0  0
  128.7914  137.7371  169.4254 C   0  0  0  0  0  0  0  0  0  0  0  0
  129.4564  137.9304  170.6202 C   0  0  0  0  0  0  0  0  0  0  0  0
  129.2824  137.0339  171.6641 C   0  0  0  0  0  0  0  0  0  0  0  0
  129.9417  137.2222  172.8386 O   0  0  0  0  0  0  0  0  0  0  0  0
  128.4365  135.9454  171.5109 C   0  0  0  0  0  0  0  0  0  0  0  0
  127.7667  135.7534  170.3185 C   0  0  0  0  0  0  0  0  0  0  0  0
  127.6418  137.3771  165.8287 C   0  0  0  0  0  0  0  0  0  0  0  0
  128.3867  137.1456  164.5120 C   0  0  0  0  0  0  0  0  0  0  0  0
  127.7641  135.4135  161.6046 C   0  0  0  0  0  0  0  0  0  0  0  0
  128.3172  135.2258  160.3535 C   0  0  0  0  0  0  0  0  0  0  0  0
  130.5030  133.5981  157.0476 N   0  0  0  0  0  0  0  0  0  0  0  0
  131.0627  134.1757  156.5053 H   0  0  0  0  0  0  0  0  0  0  0  0
  130.0107  132.2141  154.2084 C   0  0  0  0  0  0  0  0  0  0  0  0
  130.3033  131.5567  153.0307 C   0  0  0  0  0  0  0  0  0  0  0  0
  129.2202  129.2851  151.2825 H   0  0  0  0  0  0  0  0  0  0  0  0
  130.3615  128.1856  150.4721 H   0  0  0  0  0  0  0  0  0  0  0  0
  129.9915  127.9690  152.1997 H   0  0  0  0  0  0  0  0  0  0  0  0
  132.2018  129.0497  151.8917 H   0  0  0  0  0  0  0  0  0  0  0  0
  131.4306  130.3658  150.9745 H   0  0  0  0  0  0  0  0  0  0  0  0
  131.8668  128.8385  154.2828 H   0  0  0  0  0  0  0  0  0  0  0  0
  131.3618  129.9994  156.3921 H   0  0  0  0  0  0  0  0  0  0  0  0
  128.8246  130.9153  157.7427 H   0  0  0  0  0  0  0  0  0  0  0  0
  130.8013  135.7708  158.5230 H   0  0  0  0  0  0  0  0  0  0  0  0
  131.5908  135.5102  161.1621 H   0  0  0  0  0  0  0  0  0  0  0  0
  130.6047  135.8542  163.3903 H   0  0  0  0  0  0  0  0  0  0  0  0
  128.1665  133.7884  164.4408 H   0  0  0  0  0  0  0  0  0  0  0  0
  129.4930  134.7991  165.0623 H   0  0  0  0  0  0  0  0  0  0  0  0
  127.9781  134.1197  166.8973 H   0  0  0  0  0  0  0  0  0  0  0  0
  126.6004  134.8497  166.0379 H   0  0  0  0  0  0  0  0  0  0  0  0
  129.0842  136.3216  167.0342 H   0  0  0  0  0  0  0  0  0  0  0  0
  126.2918  136.4440  168.0494 H   0  0  0  0  0  0  0  0  0  0  0  0
  128.9302  138.4329  168.6112 H   0  0  0  0  0  0  0  0  0  0  0  0
  130.1156  138.7773  170.7403 H   0  0  0  0  0  0  0  0  0  0  0  0
  130.5075  138.0063  172.8510 H   0  0  0  0  0  0  0  0  0  0  0  0
  128.3022  135.2475  172.3241 H   0  0  0  0  0  0  0  0  0  0  0  0
  127.1084  134.9056  170.1992 H   0  0  0  0  0  0  0  0  0  0  0  0
  127.9217  138.3471  166.2396 H   0  0  0  0  0  0  0  0  0  0  0  0
  126.5671  137.3544  165.6476 H   0  0  0  0  0  0  0  0  0  0  0  0
  129.4611  137.1821  164.6915 H   0  0  0  0  0  0  0  0  0  0  0  0
  128.1113  137.9216  163.7978 H   0  0  0  0  0  0  0  0  0  0  0  0
  126.6919  135.3845  161.7309 H   0  0  0  0  0  0  0  0  0  0  0  0
  127.6776  135.0495  159.5013 H   0  0  0  0  0  0  0  0  0  0  0  0
  129.4880  133.1588  154.1851 H   0  0  0  0  0  0  0  0  0  0  0  0
  130.0094  131.9881  152.0853 H   0  0  0  0  0  0  0  0  0  0  0  0
  1  2  1  0
  1 37  1  0
  1 38  1  0
  1 39  1  0
  2  3  1  0
  2 40  1  0
  2 41  1  0
  3 36  2  0
  3  4  1  0
  4  5  2  0
  4 42  1  0
  5  6  1  0
  5 43  1  0
  6  7  1  0
  6 35  2  0
  7 33  1  0
  7  8  2  0
  8  9  1  0
  8 44  1  0
  9 10  1  0
  9 11  1  0
 11 12  1  0
 11 33  2  0
 12 13  1  0
 12 45  1  0
 13 32  1  0
 13 14  2  0
 14 15  1  0
 14 46  1  0
 15 16  2  0
 15 47  1  0
 16 17  1  0
 16 31  1  0
 17 30  1  0
 17 18  1  0
 18 19  1  0
 18 48  1  0
 18 49  1  0
 19 20  1  0
 19 50  1  0
 19 51  1  0
 20 21  1  0
 20 29  1  0
 20 52  1  0
 21 22  1  0
 21 53  1  0
 22 28  1  0
 22 23  2  0
 23 24  1  0
 23 54  1  0
 24 25  2  0
 24 55  1  0
 25 26  1  0
 25 27  1  0
 26 56  1  0
 27 28  2  0
 27 57  1  0
 28 58  1  0
 29 30  1  0
 29 59  1  0
 29 60  1  0
 30 61  1  0
 30 62  1  0
 31 32  2  0
 31 63  1  0
 32 64  1  0
 33 34  1  0
 35 36  1  0
 35 65  1  0
 36 66  1  0
M  CHG  1  33   1
M  END
>  <DOCK_score>  (1) 
-56.410801

>  <SMILES>  (1) 
CCc1ccc(-c2c[nH]c(Nc3ccc(N4CCC(Nc5ccc(O)cc5)CC4)cc3)[nH+]2)cc1

$$$$
