Fc1cccc(-c2cccc(C3=CCC[N@@H+](Cc4ccc(-c5ccccc5)[nH]4)C3)c2)c1
     RDKit          3D

 57 61  0  0  1  0  0  0  0  0999 V2000
  138.2658  143.6621  164.5927 F   0  0  0  0  0  0  0  0  0  0  0  0
  137.2198  142.8072  164.6015 C   0  0  0  0  0  0  0  0  0  0  0  0
  136.5003  142.6059  165.7686 C   0  0  0  0  0  0  0  0  0  0  0  0
  135.4292  141.7318  165.7836 C   0  0  0  0  0  0  0  0  0  0  0  0
  135.0702  141.0552  164.6352 C   0  0  0  0  0  0  0  0  0  0  0  0
  135.7889  141.2533  163.4582 C   0  0  0  0  0  0  0  0  0  0  0  0
  135.4068  140.5275  162.2214 C   0  0  0  0  0  0  0  0  0  0  0  0
  135.6360  141.1059  160.9734 C   0  0  0  0  0  0  0  0  0  0  0  0
  135.2822  140.4323  159.8209 C   0  0  0  0  0  0  0  0  0  0  0  0
  134.7041  139.1805  159.8960 C   0  0  0  0  0  0  0  0  0  0  0  0
  134.4644  138.5936  161.1395 C   0  0  0  0  0  0  0  0  0  0  0  0
  133.8402  137.2559  161.2196 C   0  0  0  0  0  0  0  0  0  0  0  0
  134.5075  136.2854  161.8052 C   0  0  0  0  0  0  0  0  0  0  0  0
  133.9572  134.8913  161.9296 C   0  0  0  0  0  0  0  0  0  0  0  0
  132.4497  134.9096  161.6642 C   0  0  0  0  0  0  0  0  0  0  0  0
  132.2025  135.6405  160.4114 N   0  0  1  0  0  0  0  0  0  0  0  0
  132.8108  135.2868  159.6883 H   0  0  0  0  0  0  0  0  0  0  0  0
  130.8018  135.4619  160.0062 C   0  0  0  0  0  0  0  0  0  0  0  0
  130.6405  134.1234  159.3327 C   0  0  0  0  0  0  0  0  0  0  0  0
  130.3287  132.9625  159.9485 C   0  0  0  0  0  0  0  0  0  0  0  0
  130.2761  131.9595  158.9669 C   0  0  0  0  0  0  0  0  0  0  0  0
  130.5605  132.5467  157.7709 C   0  0  0  0  0  0  0  0  0  0  0  0
  130.6174  131.8668  156.4591 C   0  0  0  0  0  0  0  0  0  0  0  0
  130.2928  132.5631  155.2940 C   0  0  0  0  0  0  0  0  0  0  0  0
  130.3531  131.9242  154.0727 C   0  0  0  0  0  0  0  0  0  0  0  0
  130.7240  130.5932  154.0025 C   0  0  0  0  0  0  0  0  0  0  0  0
  131.0418  129.8956  155.1542 C   0  0  0  0  0  0  0  0  0  0  0  0
  130.9906  130.5242  156.3812 C   0  0  0  0  0  0  0  0  0  0  0  0
  130.7789  133.8813  157.9984 N   0  0  0  0  0  0  0  0  0  0  0  0
  130.9977  134.5423  157.3230 H   0  0  0  0  0  0  0  0  0  0  0  0
  132.4727  137.0664  160.6292 C   0  0  0  0  0  0  0  0  0  0  0  0
  134.8200  139.2694  162.3052 C   0  0  0  0  0  0  0  0  0  0  0  0
  136.8711  142.1307  163.4477 C   0  0  0  0  0  0  0  0  0  0  0  0
  136.7775  143.1330  166.6695 H   0  0  0  0  0  0  0  0  0  0  0  0
  134.8717  141.5783  166.6958 H   0  0  0  0  0  0  0  0  0  0  0  0
  134.2334  140.3725  164.6490 H   0  0  0  0  0  0  0  0  0  0  0  0
  136.0915  142.0828  160.9080 H   0  0  0  0  0  0  0  0  0  0  0  0
  135.4622  140.8846  158.8569 H   0  0  0  0  0  0  0  0  0  0  0  0
  134.4336  138.6565  158.9913 H   0  0  0  0  0  0  0  0  0  0  0  0
  135.4855  136.4974  162.2114 H   0  0  0  0  0  0  0  0  0  0  0  0
  134.1443  134.5155  162.9357 H   0  0  0  0  0  0  0  0  0  0  0  0
  134.4459  134.2419  161.2033 H   0  0  0  0  0  0  0  0  0  0  0  0
  131.9394  135.4104  162.4870 H   0  0  0  0  0  0  0  0  0  0  0  0
  132.0823  133.8877  161.5703 H   0  0  0  0  0  0  0  0  0  0  0  0
  130.1605  135.5052  160.8866 H   0  0  0  0  0  0  0  0  0  0  0  0
  130.5204  136.2540  159.3123 H   0  0  0  0  0  0  0  0  0  0  0  0
  130.1522  132.8294  161.0056 H   0  0  0  0  0  0  0  0  0  0  0  0
  130.0520  130.9158  159.1300 H   0  0  0  0  0  0  0  0  0  0  0  0
  129.9986  133.6009  155.3480 H   0  0  0  0  0  0  0  0  0  0  0  0
  130.1060  132.4632  153.1700 H   0  0  0  0  0  0  0  0  0  0  0  0
  130.7655  130.0965  153.0444 H   0  0  0  0  0  0  0  0  0  0  0  0
  131.3306  128.8568  155.0927 H   0  0  0  0  0  0  0  0  0  0  0  0
  131.2383  129.9784  157.2798 H   0  0  0  0  0  0  0  0  0  0  0  0
  132.4148  137.5939  159.6770 H   0  0  0  0  0  0  0  0  0  0  0  0
  131.7262  137.4749  161.3102 H   0  0  0  0  0  0  0  0  0  0  0  0
  134.6411  138.8177  163.2698 H   0  0  0  0  0  0  0  0  0  0  0  0
  137.4340  142.2848  162.5388 H   0  0  0  0  0  0  0  0  0  0  0  0
  1  2  1  0
  2 33  2  0
  2  3  1  0
  3  4  2  0
  3 34  1  0
  4  5  1  0
  4 35  1  0
  5  6  2  0
  5 36  1  0
  6  7  1  0
  6 33  1  0
  7 32  1  0
  7  8  2  0
  8  9  1  0
  8 37  1  0
  9 10  2  0
  9 38  1  0
 10 11  1  0
 10 39  1  0
 11 12  1  0
 11 32  2  0
 12 31  1  0
 12 13  2  0
 13 14  1  0
 13 40  1  0
 14 15  1  0
 14 41  1  0
 14 42  1  0
 15 16  1  0
 15 43  1  0
 15 44  1  0
 16 17  1  6
 16 18  1  0
 16 31  1  0
 18 19  1  0
 18 45  1  0
 18 46  1  0
 19 29  1  0
 19 20  2  0
 20 21  1  0
 20 47  1  0
 21 22  2  0
 21 48  1  0
 22 23  1  0
 22 29  1  0
 23 28  1  0
 23 24  2  0
 24 25  1  0
 24 49  1  0
 25 26  2  0
 25 50  1  0
 26 27  1  0
 26 51  1  0
 27 28  2  0
 27 52  1  0
 28 53  1  0
 29 30  1  0
 31 54  1  0
 31 55  1  0
 32 56  1  0
 33 57  1  0
M  CHG  1  16   1
M  END
>  <DOCK_score>  (1) 
-62.245014

>  <SMILES>  (1) 
Fc1cccc(-c2cccc(C3=CCC[N@@H+](Cc4ccc(-c5ccccc5)[nH]4)C3)c2)c1

$$$$
