C[C@H](CC1=CC2C=CC1CCC2)[NH2+]Cc1nc(-c2ccc3ncccc3c2)ccc1F
     RDKit          3D

 60 64  0  0  1  0  0  0  0  0999 V2000
  132.4888  139.3745  159.0831 C   0  0  0  0  0  0  0  0  0  0  0  0
  132.7954  138.2414  160.0644 C   0  0  2  0  0  0  0  0  0  0  0  0
  132.6881  138.6063  161.0859 H   0  0  0  0  0  0  0  0  0  0  0  0
  134.2282  137.7513  159.8457 C   0  0  0  0  0  0  0  0  0  0  0  0
  135.1898  138.6900  160.5277 C   0  0  0  0  0  0  0  0  0  0  0  0
  135.7168  139.7565  159.9093 C   0  0  0  0  0  0  0  0  0  0  0  0
  136.6712  140.5833  160.7570 C   0  0  2  0  0  0  0  0  0  0  0  0
  137.6106  139.7666  161.5721 C   0  0  0  0  0  0  0  0  0  0  0  0
  137.0903  138.7240  162.1825 C   0  0  0  0  0  0  0  0  0  0  0  0
  135.6351  138.4993  161.9694 C   0  0  1  0  0  0  0  0  0  0  0  0
  134.7710  139.4427  162.8400 C   0  0  0  0  0  0  0  0  0  0  0  0
  134.5338  140.7295  162.0321 C   0  0  0  0  0  0  0  0  0  0  0  0
  135.7954  141.5154  161.6381 C   0  0  0  0  0  0  0  0  0  0  0  0
  131.8589  137.1322  159.8397 N   0  0  0  0  0  0  0  0  0  0  0  0
  131.7128  137.0108  158.8486 H   0  0  0  0  0  0  0  0  0  0  0  0
  132.2423  136.2840  160.2294 H   0  0  0  0  0  0  0  0  0  0  0  0
  130.5770  137.4342  160.4903 C   0  0  0  0  0  0  0  0  0  0  0  0
  129.6161  136.2964  160.2599 C   0  0  0  0  0  0  0  0  0  0  0  0
  130.0057  135.2471  159.5648 N   0  0  0  0  0  0  0  0  0  0  0  0
  129.1942  134.2226  159.3374 C   0  0  0  0  0  0  0  0  0  0  0  0
  129.6777  133.0632  158.5493 C   0  0  0  0  0  0  0  0  0  0  0  0
  129.7038  131.7858  159.1323 C   0  0  0  0  0  0  0  0  0  0  0  0
  130.1366  130.7068  158.4307 C   0  0  0  0  0  0  0  0  0  0  0  0
  130.5781  130.8597  157.1034 C   0  0  0  0  0  0  0  0  0  0  0  0
  131.0114  129.8091  156.3996 N   0  0  0  0  0  0  0  0  0  0  0  0
  131.4253  129.9398  155.1627 C   0  0  0  0  0  0  0  0  0  0  0  0
  131.4343  131.1755  154.5190 C   0  0  0  0  0  0  0  0  0  0  0  0
  131.0043  132.2907  155.1797 C   0  0  0  0  0  0  0  0  0  0  0  0
  130.5607  132.1463  156.5088 C   0  0  0  0  0  0  0  0  0  0  0  0
  130.1049  133.2480  157.2473 C   0  0  0  0  0  0  0  0  0  0  0  0
  127.8917  134.2259  159.8331 C   0  0  0  0  0  0  0  0  0  0  0  0
  127.4538  135.3139  160.5668 C   0  0  0  0  0  0  0  0  0  0  0  0
  128.3370  136.3645  160.7863 C   0  0  0  0  0  0  0  0  0  0  0  0
  127.9501  137.4432  161.5018 F   0  0  0  0  0  0  0  0  0  0  0  0
  131.4680  139.7237  159.2390 H   0  0  0  0  0  0  0  0  0  0  0  0
  133.1837  140.1975  159.2499 H   0  0  0  0  0  0  0  0  0  0  0  0
  132.5960  139.0097  158.0616 H   0  0  0  0  0  0  0  0  0  0  0  0
  134.4436  137.7232  158.7775 H   0  0  0  0  0  0  0  0  0  0  0  0
  134.3381  136.7510  160.2650 H   0  0  0  0  0  0  0  0  0  0  0  0
  135.4847  140.0070  158.8847 H   0  0  0  0  0  0  0  0  0  0  0  0
  137.2672  141.2046  160.0887 H   0  0  0  0  0  0  0  0  0  0  0  0
  138.6580  140.0155  161.6589 H   0  0  0  0  0  0  0  0  0  0  0  0
  137.6865  138.0674  162.7988 H   0  0  0  0  0  0  0  0  0  0  0  0
  135.4129  137.4724  162.2599 H   0  0  0  0  0  0  0  0  0  0  0  0
  133.8169  138.9668  163.0667 H   0  0  0  0  0  0  0  0  0  0  0  0
  135.2972  139.6781  163.7650 H   0  0  0  0  0  0  0  0  0  0  0  0
  133.9984  140.4652  161.1201 H   0  0  0  0  0  0  0  0  0  0  0  0
  133.8953  141.3883  162.6207 H   0  0  0  0  0  0  0  0  0  0  0  0
  135.5160  142.4048  161.0731 H   0  0  0  0  0  0  0  0  0  0  0  0
  136.3465  141.8036  162.5331 H   0  0  0  0  0  0  0  0  0  0  0  0
  130.7348  137.5654  161.5607 H   0  0  0  0  0  0  0  0  0  0  0  0
  130.1628  138.3505  160.0693 H   0  0  0  0  0  0  0  0  0  0  0  0
  129.3711  131.6591  160.1520 H   0  0  0  0  0  0  0  0  0  0  0  0
  130.1458  129.7309  158.8932 H   0  0  0  0  0  0  0  0  0  0  0  0
  131.7682  129.0663  154.6281 H   0  0  0  0  0  0  0  0  0  0  0  0
  131.7813  131.2514  153.4991 H   0  0  0  0  0  0  0  0  0  0  0  0
  131.0040  133.2565  154.6965 H   0  0  0  0  0  0  0  0  0  0  0  0
  130.0883  134.2323  156.8031 H   0  0  0  0  0  0  0  0  0  0  0  0
  127.2332  133.3902  159.6472 H   0  0  0  0  0  0  0  0  0  0  0  0
  126.4497  135.3446  160.9635 H   0  0  0  0  0  0  0  0  0  0  0  0
  1  2  1  0
  1 35  1  0
  1 36  1  0
  1 37  1  0
  2  3  1  1
  2  4  1  0
  2 14  1  0
  4  5  1  0
  4 38  1  0
  4 39  1  0
  5 10  1  0
  5  6  2  0
  6  7  1  0
  6 40  1  0
  7 13  1  0
  7  8  1  0
  7 41  1  6
  8  9  2  0
  8 42  1  0
  9 10  1  0
  9 43  1  0
 10 11  1  0
 10 44  1  1
 11 12  1  0
 11 45  1  0
 11 46  1  0
 12 13  1  0
 12 47  1  0
 12 48  1  0
 13 49  1  0
 13 50  1  0
 14 15  1  0
 14 16  1  0
 14 17  1  0
 17 18  1  0
 17 51  1  0
 17 52  1  0
 18 33  1  0
 18 19  2  0
 19 20  1  0
 20 21  1  0
 20 31  2  0
 21 30  1  0
 21 22  2  0
 22 23  1  0
 22 53  1  0
 23 24  2  0
 23 54  1  0
 24 29  1  0
 24 25  1  0
 25 26  2  0
 26 27  1  0
 26 55  1  0
 27 28  2  0
 27 56  1  0
 28 29  1  0
 28 57  1  0
 29 30  2  0
 30 58  1  0
 31 32  1  0
 31 59  1  0
 32 33  2  0
 32 60  1  0
 33 34  1  0
M  CHG  1  14   1
M  END
>  <DOCK_score>  (1) 
-56.435127

>  <SMILES>  (1) 
C[C@H](CC1=CC2C=CC1CCC2)[NH2+]Cc1nc(-c2ccc3ncccc3c2)ccc1F

$$$$
