CC=C(C)C[C@@H](Nc1[nH]cc(-c2ccc(CO)cc2)[nH+]1)c1ccccc1Cl
     RDKit          3D

 52 54  0  0  1  0  0  0  0  0999 V2000
  125.8103  135.4890  160.8613 C   0  0  0  0  0  0  0  0  0  0  0  0
  127.1969  135.9503  161.2298 C   0  0  0  0  0  0  0  0  0  0  0  0
  128.1600  135.9034  160.3432 C   0  0  0  0  0  0  0  0  0  0  0  0
  127.8816  135.3880  158.9546 C   0  0  0  0  0  0  0  0  0  0  0  0
  129.5466  136.3646  160.7117 C   0  0  0  0  0  0  0  0  0  0  0  0
  130.5312  135.2058  160.5432 C   0  0  1  0  0  0  0  0  0  0  0  0
  130.0697  134.2828  160.8946 H   0  0  0  0  0  0  0  0  0  0  0  0
  130.8845  135.0670  159.1282 N   0  0  0  0  0  0  0  0  0  0  0  0
  130.6154  133.8847  158.4602 C   0  0  0  0  0  0  0  0  0  0  0  0
  130.0338  132.7813  159.0047 N   0  0  0  0  0  0  0  0  0  0  0  0
  129.7357  132.6827  159.9225 H   0  0  0  0  0  0  0  0  0  0  0  0
  129.9465  131.8331  158.0146 C   0  0  0  0  0  0  0  0  0  0  0  0
  130.4767  132.3838  156.8945 C   0  0  0  0  0  0  0  0  0  0  0  0
  130.5969  131.7253  155.5708 C   0  0  0  0  0  0  0  0  0  0  0  0
  129.9685  132.2768  154.4556 C   0  0  0  0  0  0  0  0  0  0  0  0
  130.0842  131.6601  153.2264 C   0  0  0  0  0  0  0  0  0  0  0  0
  130.8223  130.4966  153.1001 C   0  0  0  0  0  0  0  0  0  0  0  0
  130.9451  129.8277  151.7553 C   0  0  0  0  0  0  0  0  0  0  0  0
  130.2176  130.5800  150.7811 O   0  0  0  0  0  0  0  0  0  0  0  0
  131.4433  129.9421  154.2043 C   0  0  0  0  0  0  0  0  0  0  0  0
  131.3391  130.5533  155.4373 C   0  0  0  0  0  0  0  0  0  0  0  0
  130.8832  133.6416  157.2005 N   0  0  0  0  0  0  0  0  0  0  0  0
  131.3031  134.2624  156.5847 H   0  0  0  0  0  0  0  0  0  0  0  0
  131.7755  135.4829  161.3468 C   0  0  0  0  0  0  0  0  0  0  0  0
  132.8336  136.1613  160.7711 C   0  0  0  0  0  0  0  0  0  0  0  0
  133.9728  136.4202  161.5096 C   0  0  0  0  0  0  0  0  0  0  0  0
  134.0596  135.9912  162.8208 C   0  0  0  0  0  0  0  0  0  0  0  0
  133.0046  135.3080  163.3961 C   0  0  0  0  0  0  0  0  0  0  0  0
  131.8616  135.0535  162.6590 C   0  0  0  0  0  0  0  0  0  0  0  0
  130.5362  134.1953  163.3804 Cl  0  0  0  0  0  0  0  0  0  0  0  0
  125.8432  134.4410  160.5635 H   0  0  0  0  0  0  0  0  0  0  0  0
  125.1495  135.6019  161.7207 H   0  0  0  0  0  0  0  0  0  0  0  0
  125.4355  136.0905  160.0332 H   0  0  0  0  0  0  0  0  0  0  0  0
  127.3964  136.3195  162.2249 H   0  0  0  0  0  0  0  0  0  0  0  0
  128.0499  134.3116  158.9261 H   0  0  0  0  0  0  0  0  0  0  0  0
  126.8462  135.6012  158.6889 H   0  0  0  0  0  0  0  0  0  0  0  0
  128.5472  135.8790  158.2447 H   0  0  0  0  0  0  0  0  0  0  0  0
  129.5542  136.6999  161.7488 H   0  0  0  0  0  0  0  0  0  0  0  0
  129.8402  137.1884  160.0613 H   0  0  0  0  0  0  0  0  0  0  0  0
  131.3071  135.8037  158.6594 H   0  0  0  0  0  0  0  0  0  0  0  0
  129.5343  130.8395  158.1098 H   0  0  0  0  0  0  0  0  0  0  0  0
  129.3918  133.1847  154.5532 H   0  0  0  0  0  0  0  0  0  0  0  0
  129.5980  132.0868  152.3616 H   0  0  0  0  0  0  0  0  0  0  0  0
  130.5378  128.8188  151.8126 H   0  0  0  0  0  0  0  0  0  0  0  0
  131.9950  129.7808  151.4672 H   0  0  0  0  0  0  0  0  0  0  0  0
  130.5262  131.4904  150.6761 H   0  0  0  0  0  0  0  0  0  0  0  0
  132.0142  129.0313  154.1006 H   0  0  0  0  0  0  0  0  0  0  0  0
  131.8283  130.1218  156.2981 H   0  0  0  0  0  0  0  0  0  0  0  0
  132.7683  136.4926  159.7453 H   0  0  0  0  0  0  0  0  0  0  0  0
  134.7975  136.9537  161.0607 H   0  0  0  0  0  0  0  0  0  0  0  0
  134.9517  136.1902  163.3961 H   0  0  0  0  0  0  0  0  0  0  0  0
  133.0721  134.9733  164.4207 H   0  0  0  0  0  0  0  0  0  0  0  0
  1  2  1  0
  1 31  1  0
  1 32  1  0
  1 33  1  0
  2  3  2  0
  2 34  1  0
  3  4  1  0
  3  5  1  0
  4 35  1  0
  4 36  1  0
  4 37  1  0
  5  6  1  0
  5 38  1  0
  5 39  1  0
  6  7  1  1
  6  8  1  0
  6 24  1  0
  8 40  1  0
  9  8  1  0
  9 22  2  0
  9 10  1  0
 10 11  1  0
 10 12  1  0
 12 13  2  0
 12 41  1  0
 13 14  1  0
 13 22  1  0
 14 21  1  0
 14 15  2  0
 15 16  1  0
 15 42  1  0
 16 17  2  0
 16 43  1  0
 17 18  1  0
 17 20  1  0
 18 19  1  0
 18 44  1  0
 18 45  1  0
 19 46  1  0
 20 21  2  0
 20 47  1  0
 21 48  1  0
 22 23  1  0
 24 29  1  0
 24 25  2  0
 25 26  1  0
 25 49  1  0
 26 27  2  0
 26 50  1  0
 27 28  1  0
 27 51  1  0
 28 29  2  0
 28 52  1  0
 29 30  1  0
M  CHG  1  22   1
M  END
>  <DOCK_score>  (1) 
-57.568951

>  <SMILES>  (1) 
CC=C(C)C[C@@H](Nc1[nH]cc(-c2ccc(CO)cc2)[nH+]1)c1ccccc1Cl

$$$$
