O[C@H](c1ccccc1)[C@@H](c1ccccc1)N1CC[NH+](C(c2ccccc2)c2ccccc2)CC1
     RDKit          3D

 67 71  0  0  1  0  0  0  0  0999 V2000
  132.6903  139.7946  160.3532 O   0  0  0  0  0  0  0  0  0  0  0  0
  133.2211  139.2022  161.5404 C   0  0  2  0  0  0  0  0  0  0  0  0
  132.4214  139.0693  162.2689 H   0  0  0  0  0  0  0  0  0  0  0  0
  134.2833  140.1012  162.1188 C   0  0  0  0  0  0  0  0  0  0  0  0
  134.5011  140.1242  163.4836 C   0  0  0  0  0  0  0  0  0  0  0  0
  135.4783  140.9459  164.0138 C   0  0  0  0  0  0  0  0  0  0  0  0
  136.2320  141.7505  163.1799 C   0  0  0  0  0  0  0  0  0  0  0  0
  136.0107  141.7311  161.8156 C   0  0  0  0  0  0  0  0  0  0  0  0
  135.0362  140.9067  161.2850 C   0  0  0  0  0  0  0  0  0  0  0  0
  133.8335  137.8417  161.2015 C   0  0  1  0  0  0  0  0  0  0  0  0
  134.3622  137.9079  160.2506 H   0  0  0  0  0  0  0  0  0  0  0  0
  134.7997  137.4415  162.2867 C   0  0  0  0  0  0  0  0  0  0  0  0
  136.1306  137.8039  162.1951 C   0  0  0  0  0  0  0  0  0  0  0  0
  137.0180  137.4318  163.1876 C   0  0  0  0  0  0  0  0  0  0  0  0
  136.5724  136.7066  164.2769 C   0  0  0  0  0  0  0  0  0  0  0  0
  135.2416  136.3444  164.3684 C   0  0  0  0  0  0  0  0  0  0  0  0
  134.3552  136.7118  163.3733 C   0  0  0  0  0  0  0  0  0  0  0  0
  132.7673  136.8363  161.1001 N   0  0  0  0  0  0  0  0  0  0  0  0
  133.2453  135.6293  160.4109 C   0  0  0  0  0  0  0  0  0  0  0  0
  132.1256  134.5867  160.3789 C   0  0  0  0  0  0  0  0  0  0  0  0
  130.9595  135.1416  159.6790 N   0  0  0  0  0  0  0  0  0  0  0  0
  131.2218  135.3966  158.7388 H   0  0  0  0  0  0  0  0  0  0  0  0
  129.8914  134.1341  159.6328 C   0  0  0  0  0  0  0  0  0  0  0  0
  128.6949  134.7032  158.9148 C   0  0  0  0  0  0  0  0  0  0  0  0
  127.4230  134.2715  159.2415 C   0  0  0  0  0  0  0  0  0  0  0  0
  126.3251  134.7970  158.5862 C   0  0  0  0  0  0  0  0  0  0  0  0
  126.5000  135.7466  157.5968 C   0  0  0  0  0  0  0  0  0  0  0  0
  127.7721  136.1743  157.2665 C   0  0  0  0  0  0  0  0  0  0  0  0
  128.8697  135.6526  157.9255 C   0  0  0  0  0  0  0  0  0  0  0  0
  130.3837  132.9134  158.8989 C   0  0  0  0  0  0  0  0  0  0  0  0
  130.2129  132.8137  157.5309 C   0  0  0  0  0  0  0  0  0  0  0  0
  130.6689  131.6962  156.8569 C   0  0  0  0  0  0  0  0  0  0  0  0
  131.2863  130.6736  157.5527 C   0  0  0  0  0  0  0  0  0  0  0  0
  131.4526  130.7711  158.9216 C   0  0  0  0  0  0  0  0  0  0  0  0
  131.0013  131.8909  159.5947 C   0  0  0  0  0  0  0  0  0  0  0  0
  130.4787  136.3320  160.3928 C   0  0  0  0  0  0  0  0  0  0  0  0
  131.5846  137.3891  160.4249 C   0  0  0  0  0  0  0  0  0  0  0  0
  133.3579  140.0044  159.6859 H   0  0  0  0  0  0  0  0  0  0  0  0
  133.9099  139.4982  164.1355 H   0  0  0  0  0  0  0  0  0  0  0  0
  135.6509  140.9612  165.0799 H   0  0  0  0  0  0  0  0  0  0  0  0
  136.9936  142.3943  163.5944 H   0  0  0  0  0  0  0  0  0  0  0  0
  136.5994  142.3600  161.1640 H   0  0  0  0  0  0  0  0  0  0  0  0
  134.8632  140.8917  160.2190 H   0  0  0  0  0  0  0  0  0  0  0  0
  136.4779  138.3737  161.3461 H   0  0  0  0  0  0  0  0  0  0  0  0
  138.0587  137.7111  163.1140 H   0  0  0  0  0  0  0  0  0  0  0  0
  137.2651  136.4193  165.0541 H   0  0  0  0  0  0  0  0  0  0  0  0
  134.8943  135.7739  165.2172 H   0  0  0  0  0  0  0  0  0  0  0  0
  133.3155  136.4284  163.4446 H   0  0  0  0  0  0  0  0  0  0  0  0
  133.5349  135.8833  159.3913 H   0  0  0  0  0  0  0  0  0  0  0  0
  134.1053  135.2231  160.9433 H   0  0  0  0  0  0  0  0  0  0  0  0
  131.8456  134.3228  161.3989 H   0  0  0  0  0  0  0  0  0  0  0  0
  132.4734  133.6960  159.8557 H   0  0  0  0  0  0  0  0  0  0  0  0
  129.6082  133.8578  160.6484 H   0  0  0  0  0  0  0  0  0  0  0  0
  127.2867  133.5264  160.0114 H   0  0  0  0  0  0  0  0  0  0  0  0
  125.3311  134.4626  158.8440 H   0  0  0  0  0  0  0  0  0  0  0  0
  125.6425  136.1538  157.0817 H   0  0  0  0  0  0  0  0  0  0  0  0
  127.9088  136.9159  156.4933 H   0  0  0  0  0  0  0  0  0  0  0  0
  129.8637  135.9866  157.6671 H   0  0  0  0  0  0  0  0  0  0  0  0
  129.7265  133.6107  156.9879 H   0  0  0  0  0  0  0  0  0  0  0  0
  130.5387  131.6200  155.7875 H   0  0  0  0  0  0  0  0  0  0  0  0
  131.6387  129.7986  157.0268 H   0  0  0  0  0  0  0  0  0  0  0  0
  131.9348  129.9720  159.4652 H   0  0  0  0  0  0  0  0  0  0  0  0
  131.1308  131.9668  160.6642 H   0  0  0  0  0  0  0  0  0  0  0  0
  130.2071  136.0592  161.4126 H   0  0  0  0  0  0  0  0  0  0  0  0
  129.6056  136.7352  159.8798 H   0  0  0  0  0  0  0  0  0  0  0  0
  131.2332  138.2667  160.9673 H   0  0  0  0  0  0  0  0  0  0  0  0
  131.8469  137.6721  159.4055 H   0  0  0  0  0  0  0  0  0  0  0  0
  1  2  1  0
  1 38  1  0
  2  3  1  1
  2  4  1  0
  2 10  1  0
  4  9  1  0
  4  5  2  0
  5  6  1  0
  5 39  1  0
  6  7  2  0
  6 40  1  0
  7  8  1  0
  7 41  1  0
  8  9  2  0
  8 42  1  0
  9 43  1  0
 10 11  1  6
 10 12  1  0
 10 18  1  0
 12 17  1  0
 12 13  2  0
 13 14  1  0
 13 44  1  0
 14 15  2  0
 14 45  1  0
 15 16  1  0
 15 46  1  0
 16 17  2  0
 16 47  1  0
 17 48  1  0
 18 37  1  0
 18 19  1  0
 19 20  1  0
 19 49  1  0
 19 50  1  0
 20 21  1  0
 20 51  1  0
 20 52  1  0
 21 22  1  0
 21 23  1  0
 21 36  1  0
 23 24  1  0
 23 30  1  0
 23 53  1  0
 24 29  1  0
 24 25  2  0
 25 26  1  0
 25 54  1  0
 26 27  2  0
 26 55  1  0
 27 28  1  0
 27 56  1  0
 28 29  2  0
 28 57  1  0
 29 58  1  0
 30 35  1  0
 30 31  2  0
 31 32  1  0
 31 59  1  0
 32 33  2  0
 32 60  1  0
 33 34  1  0
 33 61  1  0
 34 35  2  0
 34 62  1  0
 35 63  1  0
 36 37  1  0
 36 64  1  0
 36 65  1  0
 37 66  1  0
 37 67  1  0
M  CHG  1  21   1
M  END
>  <DOCK_score>  (1) 
-63.14653

>  <SMILES>  (1) 
O[C@H](c1ccccc1)[C@@H](c1ccccc1)N1CC[NH+](C(c2ccccc2)c2ccccc2)CC1

$$$$
