Nc1ccc(-c2c[nH]c(NCCCC3=CCC=C(C[C@@H](Br)c4ccccc4)C3)[nH+]2)cc1
     RDKit          3D

 61 64  0  0  1  0  0  0  0  0999 V2000
  131.2609  129.3075  151.9241 N   0  0  0  0  0  0  0  0  0  0  0  0
  130.9546  130.0686  153.0547 C   0  0  0  0  0  0  0  0  0  0  0  0
  130.2058  131.2330  152.9255 C   0  0  0  0  0  0  0  0  0  0  0  0
  129.9019  131.9854  154.0403 C   0  0  0  0  0  0  0  0  0  0  0  0
  130.3462  131.5781  155.2973 C   0  0  0  0  0  0  0  0  0  0  0  0
  130.0210  132.3863  156.4980 C   0  0  0  0  0  0  0  0  0  0  0  0
  129.3223  131.9623  157.5799 C   0  0  0  0  0  0  0  0  0  0  0  0
  129.2492  133.0252  158.4489 N   0  0  0  0  0  0  0  0  0  0  0  0
  128.8081  133.0319  159.3128 H   0  0  0  0  0  0  0  0  0  0  0  0
  129.9106  134.0657  157.8734 C   0  0  0  0  0  0  0  0  0  0  0  0
  130.0688  135.3252  158.4261 N   0  0  0  0  0  0  0  0  0  0  0  0
  129.4976  135.6250  159.7415 C   0  0  0  0  0  0  0  0  0  0  0  0
  130.3569  136.6790  160.4424 C   0  0  0  0  0  0  0  0  0  0  0  0
  131.7803  136.1446  160.6143 C   0  0  0  0  0  0  0  0  0  0  0  0
  132.6268  137.1826  161.3047 C   0  0  0  0  0  0  0  0  0  0  0  0
  133.2628  138.0496  160.5771 C   0  0  0  0  0  0  0  0  0  0  0  0
  134.1265  139.1254  161.1632 C   0  0  0  0  0  0  0  0  0  0  0  0
  134.5378  138.7849  162.5641 C   0  0  0  0  0  0  0  0  0  0  0  0
  133.9061  137.9147  163.2914 C   0  0  0  0  0  0  0  0  0  0  0  0
  134.4029  137.6463  164.6886 C   0  0  0  0  0  0  0  0  0  0  0  0
  135.4280  136.5110  164.6562 C   0  0  1  0  0  0  0  0  0  0  0  0
  135.0979  135.7433  163.9562 H   0  0  0  0  0  0  0  0  0  0  0  0
  137.1702  137.2172  164.0807 Br  0  0  0  0  0  0  0  0  0  0  0  0
  135.5586  135.9126  166.0331 C   0  0  0  0  0  0  0  0  0  0  0  0
  135.8823  134.5766  166.1782 C   0  0  0  0  0  0  0  0  0  0  0  0
  136.0064  134.0286  167.4412 C   0  0  0  0  0  0  0  0  0  0  0  0
  135.7980  134.8147  168.5592 C   0  0  0  0  0  0  0  0  0  0  0  0
  135.4692  136.1494  168.4141 C   0  0  0  0  0  0  0  0  0  0  0  0
  135.3492  136.6983  167.1510 C   0  0  0  0  0  0  0  0  0  0  0  0
  132.7032  137.1658  162.8018 C   0  0  0  0  0  0  0  0  0  0  0  0
  130.3732  133.6792  156.7094 N   0  0  0  0  0  0  0  0  0  0  0  0
  130.8823  134.2310  156.0953 H   0  0  0  0  0  0  0  0  0  0  0  0
  131.1014  130.4133  155.4235 C   0  0  0  0  0  0  0  0  0  0  0  0
  131.3985  129.6610  154.3066 C   0  0  0  0  0  0  0  0  0  0  0  0
  130.9510  129.5919  151.0494 H   0  0  0  0  0  0  0  0  0  0  0  0
  131.7833  128.4956  152.0128 H   0  0  0  0  0  0  0  0  0  0  0  0
  129.8622  131.5484  151.9514 H   0  0  0  0  0  0  0  0  0  0  0  0
  129.3198  132.8896  153.9397 H   0  0  0  0  0  0  0  0  0  0  0  0
  128.9008  130.9792  157.7289 H   0  0  0  0  0  0  0  0  0  0  0  0
  130.5578  136.0091  157.9424 H   0  0  0  0  0  0  0  0  0  0  0  0
  128.4836  136.0058  159.6190 H   0  0  0  0  0  0  0  0  0  0  0  0
  129.4743  134.7164  160.3430 H   0  0  0  0  0  0  0  0  0  0  0  0
  130.3803  137.5876  159.8408 H   0  0  0  0  0  0  0  0  0  0  0  0
  129.9321  136.9021  161.4210 H   0  0  0  0  0  0  0  0  0  0  0  0
  131.7570  135.2359  161.2159 H   0  0  0  0  0  0  0  0  0  0  0  0
  132.2053  135.9216  159.6357 H   0  0  0  0  0  0  0  0  0  0  0  0
  133.1623  137.9957  159.5031 H   0  0  0  0  0  0  0  0  0  0  0  0
  133.5754  140.0657  161.1712 H   0  0  0  0  0  0  0  0  0  0  0  0
  135.0182  139.2401  160.5470 H   0  0  0  0  0  0  0  0  0  0  0  0
  135.3969  139.2848  162.9862 H   0  0  0  0  0  0  0  0  0  0  0  0
  134.8705  138.5467  165.0871 H   0  0  0  0  0  0  0  0  0  0  0  0
  133.5644  137.3608  165.3239 H   0  0  0  0  0  0  0  0  0  0  0  0
  136.0414  133.9615  165.3048 H   0  0  0  0  0  0  0  0  0  0  0  0
  136.2637  132.9858  167.5547 H   0  0  0  0  0  0  0  0  0  0  0  0
  135.8923  134.3860  169.5459 H   0  0  0  0  0  0  0  0  0  0  0  0
  135.3064  136.7635  169.2874 H   0  0  0  0  0  0  0  0  0  0  0  0
  135.0924  137.7412  167.0376 H   0  0  0  0  0  0  0  0  0  0  0  0
  131.8042  137.6271  163.2106 H   0  0  0  0  0  0  0  0  0  0  0  0
  132.7613  136.1329  163.1450 H   0  0  0  0  0  0  0  0  0  0  0  0
  131.4504  130.0982  156.3957 H   0  0  0  0  0  0  0  0  0  0  0  0
  131.9798  128.7561  154.4045 H   0  0  0  0  0  0  0  0  0  0  0  0
  1  2  1  0
  1 35  1  0
  1 36  1  0
  2 34  2  0
  2  3  1  0
  3  4  2  0
  3 37  1  0
  4  5  1  0
  4 38  1  0
  5  6  1  0
  5 33  2  0
  6 31  1  0
  6  7  2  0
  7  8  1  0
  7 39  1  0
  8  9  1  0
  8 10  1  0
 10 11  1  0
 10 31  2  0
 11 12  1  0
 11 40  1  0
 12 13  1  0
 12 41  1  0
 12 42  1  0
 13 14  1  0
 13 43  1  0
 13 44  1  0
 14 15  1  0
 14 45  1  0
 14 46  1  0
 15 30  1  0
 15 16  2  0
 16 17  1  0
 16 47  1  0
 17 18  1  0
 17 48  1  0
 17 49  1  0
 18 19  2  0
 18 50  1  0
 19 20  1  0
 19 30  1  0
 20 21  1  0
 20 51  1  0
 20 52  1  0
 21 22  1  6
 21 23  1  0
 21 24  1  0
 24 29  1  0
 24 25  2  0
 25 26  1  0
 25 53  1  0
 26 27  2  0
 26 54  1  0
 27 28  1  0
 27 55  1  0
 28 29  2  0
 28 56  1  0
 29 57  1  0
 30 58  1  0
 30 59  1  0
 31 32  1  0
 33 34  1  0
 33 60  1  0
 34 61  1  0
M  CHG  1  31   1
M  END
>  <DOCK_score>  (1) 
-58.922569

>  <SMILES>  (1) 
Nc1ccc(-c2c[nH]c(NCCCC3=CCC=C(C[C@@H](Br)c4ccccc4)C3)[nH+]2)cc1

$$$$
