CCCc1ccc([C@@H](CC2=CCCCC2)Nc2[nH]cc(-c3ccc(CC)cc3)[nH+]2)cc1
     RDKit          3D

 67 70  0  0  1  0  0  0  0  0999 V2000
  134.3663  140.7252  164.9862 C   0  0  0  0  0  0  0  0  0  0  0  0
  133.3949  139.7645  164.2975 C   0  0  0  0  0  0  0  0  0  0  0  0
  134.1296  139.0004  163.1943 C   0  0  0  0  0  0  0  0  0  0  0  0
  133.1727  138.0542  162.5159 C   0  0  0  0  0  0  0  0  0  0  0  0
  132.4444  138.4760  161.4193 C   0  0  0  0  0  0  0  0  0  0  0  0
  131.5667  137.6080  160.7970 C   0  0  0  0  0  0  0  0  0  0  0  0
  131.4180  136.3180  161.2709 C   0  0  0  0  0  0  0  0  0  0  0  0
  130.4612  135.3716  160.5925 C   0  0  1  0  0  0  0  0  0  0  0  0
  130.4795  134.4088  161.1028 H   0  0  0  0  0  0  0  0  0  0  0  0
  129.0461  135.9510  160.6473 C   0  0  0  0  0  0  0  0  0  0  0  0
  128.0427  134.8470  160.4342 C   0  0  0  0  0  0  0  0  0  0  0  0
  128.0361  133.8624  161.2744 C   0  0  0  0  0  0  0  0  0  0  0  0
  127.1044  132.6891  161.1875 C   0  0  0  0  0  0  0  0  0  0  0  0
  125.9275  133.0177  160.2663 C   0  0  0  0  0  0  0  0  0  0  0  0
  126.4819  133.5972  158.9587 C   0  0  0  0  0  0  0  0  0  0  0  0
  127.1093  134.9606  159.2647 C   0  0  0  0  0  0  0  0  0  0  0  0
  130.8612  135.1914  159.1948 N   0  0  0  0  0  0  0  0  0  0  0  0
  130.5964  133.9965  158.5477 C   0  0  0  0  0  0  0  0  0  0  0  0
  129.9781  132.9166  159.0987 N   0  0  0  0  0  0  0  0  0  0  0  0
  129.6468  132.8461  160.0077 H   0  0  0  0  0  0  0  0  0  0  0  0
  129.9095  131.9450  158.1301 C   0  0  0  0  0  0  0  0  0  0  0  0
  130.4872  132.4587  157.0159 C   0  0  0  0  0  0  0  0  0  0  0  0
  130.6420  131.7650  155.7138 C   0  0  0  0  0  0  0  0  0  0  0  0
  130.6518  132.4974  154.5280 C   0  0  0  0  0  0  0  0  0  0  0  0
  130.7966  131.8468  153.3195 C   0  0  0  0  0  0  0  0  0  0  0  0
  130.9311  130.4705  153.2838 C   0  0  0  0  0  0  0  0  0  0  0  0
  131.0883  129.7658  151.9609 C   0  0  0  0  0  0  0  0  0  0  0  0
  129.7086  129.3958  151.4131 C   0  0  0  0  0  0  0  0  0  0  0  0
  130.9163  129.7380  154.4572 C   0  0  0  0  0  0  0  0  0  0  0  0
  130.7783  130.3786  155.6718 C   0  0  0  0  0  0  0  0  0  0  0  0
  130.9040  133.7172  157.3046 N   0  0  0  0  0  0  0  0  0  0  0  0
  131.3550  134.3155  156.6886 H   0  0  0  0  0  0  0  0  0  0  0  0
  132.1427  135.8976  162.3703 C   0  0  0  0  0  0  0  0  0  0  0  0
  133.0236  136.7643  162.9899 C   0  0  0  0  0  0  0  0  0  0  0  0
  133.8430  141.2696  165.7722 H   0  0  0  0  0  0  0  0  0  0  0  0
  135.1894  140.1590  165.4224 H   0  0  0  0  0  0  0  0  0  0  0  0
  134.7588  141.4314  164.2547 H   0  0  0  0  0  0  0  0  0  0  0  0
  132.5719  140.3306  163.8614 H   0  0  0  0  0  0  0  0  0  0  0  0
  133.0024  139.0583  165.0292 H   0  0  0  0  0  0  0  0  0  0  0  0
  134.9525  138.4342  163.6304 H   0  0  0  0  0  0  0  0  0  0  0  0
  134.5220  139.7067  162.4626 H   0  0  0  0  0  0  0  0  0  0  0  0
  132.5609  139.4837  161.0488 H   0  0  0  0  0  0  0  0  0  0  0  0
  130.9974  137.9376  159.9405 H   0  0  0  0  0  0  0  0  0  0  0  0
  128.8791  136.4107  161.6214 H   0  0  0  0  0  0  0  0  0  0  0  0
  128.9307  136.7026  159.8663 H   0  0  0  0  0  0  0  0  0  0  0  0
  128.7447  133.8868  162.0889 H   0  0  0  0  0  0  0  0  0  0  0  0
  127.6436  131.8283  160.7917 H   0  0  0  0  0  0  0  0  0  0  0  0
  126.7290  132.4512  162.1827 H   0  0  0  0  0  0  0  0  0  0  0  0
  125.3633  132.1095  160.0545 H   0  0  0  0  0  0  0  0  0  0  0  0
  125.2781  133.7485  160.7483 H   0  0  0  0  0  0  0  0  0  0  0  0
  127.2375  132.9253  158.5514 H   0  0  0  0  0  0  0  0  0  0  0  0
  125.6722  133.7172  158.2389 H   0  0  0  0  0  0  0  0  0  0  0  0
  126.3237  135.6794  159.4978 H   0  0  0  0  0  0  0  0  0  0  0  0
  127.6639  135.3053  158.3920 H   0  0  0  0  0  0  0  0  0  0  0  0
  131.3117  135.9091  158.7228 H   0  0  0  0  0  0  0  0  0  0  0  0
  129.4780  130.9606  158.2355 H   0  0  0  0  0  0  0  0  0  0  0  0
  130.5461  133.5719  154.5547 H   0  0  0  0  0  0  0  0  0  0  0  0
  130.8043  132.4131  152.4001 H   0  0  0  0  0  0  0  0  0  0  0  0
  131.6790  128.8602  152.0997 H   0  0  0  0  0  0  0  0  0  0  0  0
  131.5945  130.4252  151.2559 H   0  0  0  0  0  0  0  0  0  0  0  0
  129.1179  130.3012  151.2744 H   0  0  0  0  0  0  0  0  0  0  0  0
  129.8223  128.8860  150.4564 H   0  0  0  0  0  0  0  0  0  0  0  0
  129.2025  128.7363  152.1183 H   0  0  0  0  0  0  0  0  0  0  0  0
  131.0172  128.6634  154.4230 H   0  0  0  0  0  0  0  0  0  0  0  0
  130.7718  129.8062  156.5876 H   0  0  0  0  0  0  0  0  0  0  0  0
  132.0233  134.8912  162.7433 H   0  0  0  0  0  0  0  0  0  0  0  0
  133.5929  136.4345  163.8465 H   0  0  0  0  0  0  0  0  0  0  0  0
  1  2  1  0
  1 35  1  0
  1 36  1  0
  1 37  1  0
  2  3  1  0
  2 38  1  0
  2 39  1  0
  3  4  1  0
  3 40  1  0
  3 41  1  0
  4 34  2  0
  4  5  1  0
  5  6  2  0
  5 42  1  0
  6  7  1  0
  6 43  1  0
  7  8  1  0
  7 33  2  0
  8  9  1  1
  8 10  1  0
  8 17  1  0
 10 11  1  0
 10 44  1  0
 10 45  1  0
 11 16  1  0
 11 12  2  0
 12 13  1  0
 12 46  1  0
 13 14  1  0
 13 47  1  0
 13 48  1  0
 14 15  1  0
 14 49  1  0
 14 50  1  0
 15 16  1  0
 15 51  1  0
 15 52  1  0
 16 53  1  0
 16 54  1  0
 17 55  1  0
 18 17  1  0
 18 31  2  0
 18 19  1  0
 19 20  1  0
 19 21  1  0
 21 22  2  0
 21 56  1  0
 22 23  1  0
 22 31  1  0
 23 30  1  0
 23 24  2  0
 24 25  1  0
 24 57  1  0
 25 26  2  0
 25 58  1  0
 26 27  1  0
 26 29  1  0
 27 28  1  0
 27 59  1  0
 27 60  1  0
 28 61  1  0
 28 62  1  0
 28 63  1  0
 29 30  2  0
 29 64  1  0
 30 65  1  0
 31 32  1  0
 33 34  1  0
 33 66  1  0
 34 67  1  0
M  CHG  1  31   1
M  END
>  <DOCK_score>  (1) 
-57.617931

>  <SMILES>  (1) 
CCCc1ccc([C@@H](CC2=CCCCC2)Nc2[nH]cc(-c3ccc(CC)cc3)[nH+]2)cc1

$$$$
