Oc1ccc(Nc2ccc(Nc3[nH]cc(-c4ccccc4)[nH+]3)nc2)cc1
     RDKit          3D

 44 47  0  0  1  0  0  0  0  0999 V2000
  127.5168  135.0836  167.0071 O   0  0  0  0  0  0  0  0  0  0  0  0
  127.2504  135.3262  165.6957 C   0  0  0  0  0  0  0  0  0  0  0  0
  127.8251  134.5331  164.7135 C   0  0  0  0  0  0  0  0  0  0  0  0
  127.5551  134.7787  163.3816 C   0  0  0  0  0  0  0  0  0  0  0  0
  126.7078  135.8201  163.0258 C   0  0  0  0  0  0  0  0  0  0  0  0
  126.4339  136.0700  161.6765 N   0  0  0  0  0  0  0  0  0  0  0  0
  127.3922  135.7708  160.7007 C   0  0  0  0  0  0  0  0  0  0  0  0
  128.3306  136.7278  160.3161 C   0  0  0  0  0  0  0  0  0  0  0  0
  129.2621  136.3867  159.3526 C   0  0  0  0  0  0  0  0  0  0  0  0
  129.2252  135.1133  158.7946 C   0  0  0  0  0  0  0  0  0  0  0  0
  130.1559  134.7616  157.8179 N   0  0  0  0  0  0  0  0  0  0  0  0
  130.1262  133.4952  157.2565 C   0  0  0  0  0  0  0  0  0  0  0  0
  129.7079  132.3605  157.8813 N   0  0  0  0  0  0  0  0  0  0  0  0
  129.3801  132.2935  158.7918 H   0  0  0  0  0  0  0  0  0  0  0  0
  129.8326  131.3288  156.9839 C   0  0  0  0  0  0  0  0  0  0  0  0
  130.3318  131.8602  155.8400 C   0  0  0  0  0  0  0  0  0  0  0  0
  130.6377  131.1171  154.5932 C   0  0  0  0  0  0  0  0  0  0  0  0
  129.9909  131.4496  153.4042 C   0  0  0  0  0  0  0  0  0  0  0  0
  130.2836  130.7586  152.2461 C   0  0  0  0  0  0  0  0  0  0  0  0
  131.2086  129.7302  152.2661 C   0  0  0  0  0  0  0  0  0  0  0  0
  131.8494  129.3922  153.4444 C   0  0  0  0  0  0  0  0  0  0  0  0
  131.5687  130.0800  154.6075 C   0  0  0  0  0  0  0  0  0  0  0  0
  130.5015  133.1911  156.0380 N   0  0  0  0  0  0  0  0  0  0  0  0
  130.8458  133.8179  155.3827 H   0  0  0  0  0  0  0  0  0  0  0  0
  128.3165  134.2316  159.1799 N   0  0  0  0  0  0  0  0  0  0  0  0
  127.4163  134.5207  160.1003 C   0  0  0  0  0  0  0  0  0  0  0  0
  126.1329  136.6135  164.0100 C   0  0  0  0  0  0  0  0  0  0  0  0
  126.4040  136.3664  165.3413 C   0  0  0  0  0  0  0  0  0  0  0  0
  127.0714  135.6872  167.6172 H   0  0  0  0  0  0  0  0  0  0  0  0
  128.4837  133.7232  164.9903 H   0  0  0  0  0  0  0  0  0  0  0  0
  127.9992  134.1583  162.6171 H   0  0  0  0  0  0  0  0  0  0  0  0
  125.5802  136.4505  161.4172 H   0  0  0  0  0  0  0  0  0  0  0  0
  128.3325  137.7109  160.7631 H   0  0  0  0  0  0  0  0  0  0  0  0
  130.0062  137.1018  159.0344 H   0  0  0  0  0  0  0  0  0  0  0  0
  130.8244  135.4036  157.5315 H   0  0  0  0  0  0  0  0  0  0  0  0
  129.5845  130.2920  157.1569 H   0  0  0  0  0  0  0  0  0  0  0  0
  129.2653  132.2494  153.3884 H   0  0  0  0  0  0  0  0  0  0  0  0
  129.7863  131.0182  151.3232 H   0  0  0  0  0  0  0  0  0  0  0  0
  131.4315  129.1890  151.3585 H   0  0  0  0  0  0  0  0  0  0  0  0
  132.5709  128.5886  153.4542 H   0  0  0  0  0  0  0  0  0  0  0  0
  132.0699  129.8154  155.5269 H   0  0  0  0  0  0  0  0  0  0  0  0
  126.6898  133.7756  160.3891 H   0  0  0  0  0  0  0  0  0  0  0  0
  125.4735  137.4233  163.7342 H   0  0  0  0  0  0  0  0  0  0  0  0
  125.9567  136.9832  166.1068 H   0  0  0  0  0  0  0  0  0  0  0  0
  1  2  1  0
  1 29  1  0
  2 28  2  0
  2  3  1  0
  3  4  2  0
  3 30  1  0
  4  5  1  0
  4 31  1  0
  5  6  1  0
  5 27  2  0
  6  7  1  0
  6 32  1  0
  7 26  1  0
  7  8  2  0
  8  9  1  0
  8 33  1  0
  9 10  2  0
  9 34  1  0
 10 11  1  0
 10 25  1  0
 11 35  1  0
 12 11  1  0
 12 23  2  0
 12 13  1  0
 13 14  1  0
 13 15  1  0
 15 16  2  0
 15 36  1  0
 16 17  1  0
 16 23  1  0
 17 22  1  0
 17 18  2  0
 18 19  1  0
 18 37  1  0
 19 20  2  0
 19 38  1  0
 20 21  1  0
 20 39  1  0
 21 22  2  0
 21 40  1  0
 22 41  1  0
 23 24  1  0
 25 26  2  0
 26 42  1  0
 27 28  1  0
 27 43  1  0
 28 44  1  0
M  CHG  1  23   1
M  END
>  <DOCK_score>  (1) 
-56.823154

>  <SMILES>  (1) 
Oc1ccc(Nc2ccc(Nc3[nH]cc(-c4ccccc4)[nH+]3)nc2)cc1

$$$$
