O[C@H]1[C@@H](O)[C@@H](O)[C@H](Nc2[nH]c3ccccc3[nH+]2)[C@@H](O)[C@@H]1O
     RDKit          3D

 39 41  0  0  1  0  0  0  0  0999 V2000
  127.4710  133.9398  158.5226 O   0  0  0  0  0  0  0  0  0  0  0  0
  128.2559  134.5787  159.5313 C   0  0  1  0  0  0  0  0  0  0  0  0
  128.0574  134.1119  160.4961 H   0  0  0  0  0  0  0  0  0  0  0  0
  129.7404  134.4340  159.1904 C   0  0  1  0  0  0  0  0  0  0  0  0
  130.0008  133.3766  159.1428 H   0  0  0  0  0  0  0  0  0  0  0  0
  130.0006  135.0460  157.9255 O   0  0  0  0  0  0  0  0  0  0  0  0
  130.5808  135.1181  160.2705 C   0  0  1  0  0  0  0  0  0  0  0  0
  130.3824  134.6512  161.2353 H   0  0  0  0  0  0  0  0  0  0  0  0
  131.9673  134.9828  159.9521 O   0  0  0  0  0  0  0  0  0  0  0  0
  130.2153  136.6022  160.3374 C   0  0  2  0  0  0  0  0  0  0  0  0
  130.4138  137.0690  159.3726 H   0  0  0  0  0  0  0  0  0  0  0  0
  131.0200  137.2572  161.3715 N   0  0  0  0  0  0  0  0  0  0  0  0
  132.2379  137.8079  161.0489 C   0  0  0  0  0  0  0  0  0  0  0  0
  132.7815  137.7973  159.8339 N   0  0  0  0  0  0  0  0  0  0  0  0
  132.3876  137.4034  159.0398 H   0  0  0  0  0  0  0  0  0  0  0  0
  133.9905  138.4393  159.8943 C   0  0  0  0  0  0  0  0  0  0  0  0
  134.9762  138.7267  158.9546 C   0  0  0  0  0  0  0  0  0  0  0  0
  136.1141  139.4016  159.3402 C   0  0  0  0  0  0  0  0  0  0  0  0
  136.2847  139.7969  160.6589 C   0  0  0  0  0  0  0  0  0  0  0  0
  135.3184  139.5207  161.6017 C   0  0  0  0  0  0  0  0  0  0  0  0
  134.1632  138.8396  161.2294 C   0  0  0  0  0  0  0  0  0  0  0  0
  133.0473  138.4243  161.9074 N   0  0  0  0  0  0  0  0  0  0  0  0
  132.8759  138.5574  162.8528 H   0  0  0  0  0  0  0  0  0  0  0  0
  128.7308  136.7470  160.6782 C   0  0  1  0  0  0  0  0  0  0  0  0
  128.5323  136.2802  161.6430 H   0  0  0  0  0  0  0  0  0  0  0  0
  128.3894  138.1333  160.7406 O   0  0  0  0  0  0  0  0  0  0  0  0
  127.8904  136.0629  159.5980 C   0  0  2  0  0  0  0  0  0  0  0  0
  128.0889  136.5297  158.6333 H   0  0  0  0  0  0  0  0  0  0  0  0
  126.5039  136.1982  159.9165 O   0  0  0  0  0  0  0  0  0  0  0  0
  127.5970  134.3049  157.6361 H   0  0  0  0  0  0  0  0  0  0  0  0
  130.9245  134.9920  157.6452 H   0  0  0  0  0  0  0  0  0  0  0  0
  132.2166  135.3766  159.1048 H   0  0  0  0  0  0  0  0  0  0  0  0
  130.6936  137.3025  162.2838 H   0  0  0  0  0  0  0  0  0  0  0  0
  134.8497  138.4214  157.9264 H   0  0  0  0  0  0  0  0  0  0  0  0
  136.8788  139.6240  158.6106 H   0  0  0  0  0  0  0  0  0  0  0  0
  137.1809  140.3255  160.9485 H   0  0  0  0  0  0  0  0  0  0  0  0
  135.4575  139.8311  162.6268 H   0  0  0  0  0  0  0  0  0  0  0  0
  128.8848  138.6308  161.4056 H   0  0  0  0  0  0  0  0  0  0  0  0
  126.2015  137.1148  159.9754 H   0  0  0  0  0  0  0  0  0  0  0  0
  1  2  1  0
  1 30  1  0
  2  3  1  1
  2 27  1  0
  2  4  1  0
  4  5  1  6
  4  6  1  0
  4  7  1  0
  6 31  1  0
  7  8  1  1
  7  9  1  0
  7 10  1  0
  9 32  1  0
 10 11  1  6
 10 12  1  0
 10 24  1  0
 12 13  1  0
 12 33  1  0
 13 22  1  0
 13 14  2  0
 14 15  1  0
 14 16  1  0
 16 21  2  0
 16 17  1  0
 17 18  2  0
 17 34  1  0
 18 19  1  0
 18 35  1  0
 19 20  2  0
 19 36  1  0
 20 21  1  0
 20 37  1  0
 21 22  1  0
 22 23  1  0
 24 25  1  1
 24 26  1  0
 24 27  1  0
 26 38  1  0
 27 28  1  6
 27 29  1  0
 29 39  1  0
M  CHG  1  14   1
M  END
>  <DOCK_score>  (1) 
-46.611748

>  <SMILES>  (1) 
O[C@H]1[C@@H](O)[C@@H](O)[C@H](Nc2[nH]c3ccccc3[nH+]2)[C@@H](O)[C@@H]1O

$$$$
