O=C1CC[C@H](NC(NC2CC2)=[NH+]CCO)CN1
     RDKit          3D

 38 39  0  0  1  0  0  0  0  0999 V2000
  123.6269  133.8057  161.2420 O   0  0  0  0  0  0  0  0  0  0  0  0
  124.8159  133.9095  161.0264 C   0  0  0  0  0  0  0  0  0  0  0  0
  125.5422  132.7223  160.4619 C   0  0  0  0  0  0  0  0  0  0  0  0
  127.0498  132.8875  160.6686 C   0  0  0  0  0  0  0  0  0  0  0  0
  127.4533  134.2888  160.1945 C   0  0  2  0  0  0  0  0  0  0  0  0
  127.0859  134.4520  159.1813 H   0  0  0  0  0  0  0  0  0  0  0  0
  128.9128  134.4143  160.2175 N   0  0  0  0  0  0  0  0  0  0  0  0
  129.6493  134.0787  159.1063 C   0  0  0  0  0  0  0  0  0  0  0  0
  129.0162  133.6252  157.9732 N   0  0  0  0  0  0  0  0  0  0  0  0
  129.8011  133.2676  156.7891 C   0  0  0  0  0  0  0  0  0  0  0  0
  129.5472  131.8957  156.1611 C   0  0  0  0  0  0  0  0  0  0  0  0
  130.8390  132.1536  156.9393 C   0  0  0  0  0  0  0  0  0  0  0  0
  130.9478  134.1904  159.1268 N   0  0  0  0  0  0  0  0  0  0  0  0
  131.4307  134.3855  158.3086 H   0  0  0  0  0  0  0  0  0  0  0  0
  131.6776  134.0213  160.3858 C   0  0  0  0  0  0  0  0  0  0  0  0
  131.8059  135.3752  161.0868 C   0  0  0  0  0  0  0  0  0  0  0  0
  132.5164  136.2833  160.2426 O   0  0  0  0  0  0  0  0  0  0  0  0
  126.8347  135.3218  161.1372 C   0  0  0  0  0  0  0  0  0  0  0  0
  125.4083  135.0718  161.3026 N   0  0  0  0  0  0  0  0  0  0  0  0
  125.3296  132.6410  159.3960 H   0  0  0  0  0  0  0  0  0  0  0  0
  125.2041  131.8183  160.9684 H   0  0  0  0  0  0  0  0  0  0  0  0
  127.5844  132.1356  160.0882 H   0  0  0  0  0  0  0  0  0  0  0  0
  127.2904  132.7744  161.7257 H   0  0  0  0  0  0  0  0  0  0  0  0
  129.3594  134.7342  161.0170 H   0  0  0  0  0  0  0  0  0  0  0  0
  128.0499  133.5421  157.9578 H   0  0  0  0  0  0  0  0  0  0  0  0
  130.0414  134.0921  156.1177 H   0  0  0  0  0  0  0  0  0  0  0  0
  128.7961  131.2592  156.6291 H   0  0  0  0  0  0  0  0  0  0  0  0
  129.6202  131.8174  155.0764 H   0  0  0  0  0  0  0  0  0  0  0  0
  131.7619  132.2449  156.3666 H   0  0  0  0  0  0  0  0  0  0  0  0
  130.9380  131.6869  157.9194 H   0  0  0  0  0  0  0  0  0  0  0  0
  131.1357  133.3287  161.0297 H   0  0  0  0  0  0  0  0  0  0  0  0
  132.6713  133.6235  160.1791 H   0  0  0  0  0  0  0  0  0  0  0  0
  130.8124  135.7730  161.2935 H   0  0  0  0  0  0  0  0  0  0  0  0
  132.3490  135.2494  162.0234 H   0  0  0  0  0  0  0  0  0  0  0  0
  132.0899  136.4429  159.3895 H   0  0  0  0  0  0  0  0  0  0  0  0
  127.3258  135.2628  162.1085 H   0  0  0  0  0  0  0  0  0  0  0  0
  126.9799  136.3197  160.7235 H   0  0  0  0  0  0  0  0  0  0  0  0
  124.8553  135.7963  161.6344 H   0  0  0  0  0  0  0  0  0  0  0  0
  1  2  2  0
  2 19  1  0
  2  3  1  0
  3  4  1  0
  3 20  1  0
  3 21  1  0
  4  5  1  0
  4 22  1  0
  4 23  1  0
  5  6  1  6
  5  7  1  0
  5 18  1  0
  7 24  1  0
  8  7  1  0
  8  9  1  0
  8 13  2  0
  9 10  1  0
  9 25  1  0
 10 12  1  0
 10 11  1  0
 10 26  1  0
 11 12  1  0
 11 27  1  0
 11 28  1  0
 12 29  1  0
 12 30  1  0
 13 14  1  0
 13 15  1  0
 15 16  1  0
 15 31  1  0
 15 32  1  0
 16 17  1  0
 16 33  1  0
 16 34  1  0
 17 35  1  0
 18 19  1  0
 18 36  1  0
 18 37  1  0
 19 38  1  0
M  CHG  1  13   1
M  END
>  <DOCK_score>  (1) 
-46.073559

>  <SMILES>  (1) 
O=C1CC[C@H](NC(NC2CC2)=[NH+]CCO)CN1

$$$$
