c1ccc(CC2CCC(Nc3ccc(-c4n[nH]cc4C[NH2+]CC4CC5C[C@H]5C4)o3)CC2)cc1
     RDKit          3D

 70 75  0  0  1  0  0  0  0  0999 V2000
  126.5803  143.1171  168.0333 C   0  0  0  0  0  0  0  0  0  0  0  0
  126.8362  143.3291  166.6913 C   0  0  0  0  0  0  0  0  0  0  0  0
  127.6038  142.4240  165.9828 C   0  0  0  0  0  0  0  0  0  0  0  0
  128.1158  141.3069  166.6158 C   0  0  0  0  0  0  0  0  0  0  0  0
  128.9523  140.3198  165.8432 C   0  0  0  0  0  0  0  0  0  0  0  0
  128.0448  139.2500  165.2328 C   0  0  1  0  0  0  0  0  0  0  0  0
  127.3960  139.7972  163.9599 C   0  0  0  0  0  0  0  0  0  0  0  0
  126.4884  138.7272  163.3495 C   0  0  0  0  0  0  0  0  0  0  0  0
  127.3193  137.4890  163.0066 C   0  0  2  0  0  0  0  0  0  0  0  0
  126.4504  136.4645  162.4221 N   0  0  0  0  0  0  0  0  0  0  0  0
  126.9633  135.5645  161.4952 C   0  0  0  0  0  0  0  0  0  0  0  0
  126.2671  134.5740  160.8836 C   0  0  0  0  0  0  0  0  0  0  0  0
  127.1665  133.9073  160.0280 C   0  0  0  0  0  0  0  0  0  0  0  0
  128.3689  134.5264  160.1614 C   0  0  0  0  0  0  0  0  0  0  0  0
  129.6129  134.1632  159.4515 C   0  0  0  0  0  0  0  0  0  0  0  0
  129.7502  133.1877  158.5753 N   0  0  0  0  0  0  0  0  0  0  0  0
  131.0812  133.1793  158.1391 N   0  0  0  0  0  0  0  0  0  0  0  0
  131.4640  132.5660  157.4924 H   0  0  0  0  0  0  0  0  0  0  0  0
  131.7393  134.1731  158.7744 C   0  0  0  0  0  0  0  0  0  0  0  0
  130.8633  134.8026  159.5864 C   0  0  0  0  0  0  0  0  0  0  0  0
  131.1678  135.9769  160.4805 C   0  0  0  0  0  0  0  0  0  0  0  0
  130.9337  137.2264  159.7446 N   0  0  0  0  0  0  0  0  0  0  0  0
  131.5334  137.2567  158.9338 H   0  0  0  0  0  0  0  0  0  0  0  0
  129.9692  137.2683  159.4512 H   0  0  0  0  0  0  0  0  0  0  0  0
  131.2305  138.3710  160.6161 C   0  0  0  0  0  0  0  0  0  0  0  0
  132.6931  138.3074  161.0610 C   0  0  2  0  0  0  0  0  0  0  0  0
  133.0848  139.5853  161.8437 C   0  0  0  0  0  0  0  0  0  0  0  0
  134.6167  139.6723  161.6836 C   0  0  1  0  0  0  0  0  0  0  0  0
  135.4279  138.3783  161.7761 C   0  0  0  0  0  0  0  0  0  0  0  0
  134.9706  138.8881  160.4079 C   0  0  1  0  0  0  0  0  0  0  0  0
  135.7065  139.2643  159.6971 H   0  0  0  0  0  0  0  0  0  0  0  0
  133.6415  138.3519  159.8371 C   0  0  0  0  0  0  0  0  0  0  0  0
  128.2308  135.5329  161.0500 O   0  0  0  0  0  0  0  0  0  0  0  0
  127.9681  136.9417  164.2795 C   0  0  0  0  0  0  0  0  0  0  0  0
  128.8756  138.0117  164.8899 C   0  0  0  0  0  0  0  0  0  0  0  0
  127.8556  141.0922  167.9564 C   0  0  0  0  0  0  0  0  0  0  0  0
  127.0922  142.0001  168.6664 C   0  0  0  0  0  0  0  0  0  0  0  0
  125.9803  143.8242  168.5869 H   0  0  0  0  0  0  0  0  0  0  0  0
  126.4358  144.2017  166.1966 H   0  0  0  0  0  0  0  0  0  0  0  0
  127.8033  142.5894  164.9342 H   0  0  0  0  0  0  0  0  0  0  0  0
  129.6699  139.8479  166.5143 H   0  0  0  0  0  0  0  0  0  0  0  0
  129.4863  140.8401  165.0480 H   0  0  0  0  0  0  0  0  0  0  0  0
  127.2688  138.9799  165.9491 H   0  0  0  0  0  0  0  0  0  0  0  0
  128.1719  140.0673  163.2437 H   0  0  0  0  0  0  0  0  0  0  0  0
  126.8041  140.6794  164.2041 H   0  0  0  0  0  0  0  0  0  0  0  0
  125.7124  138.4572  164.0657 H   0  0  0  0  0  0  0  0  0  0  0  0
  126.0262  139.1172  162.4427 H   0  0  0  0  0  0  0  0  0  0  0  0
  128.0953  137.7590  162.2904 H   0  0  0  0  0  0  0  0  0  0  0  0
  125.5172  136.4142  162.6819 H   0  0  0  0  0  0  0  0  0  0  0  0
  125.2222  134.3408  161.0252 H   0  0  0  0  0  0  0  0  0  0  0  0
  126.9430  133.0660  159.3887 H   0  0  0  0  0  0  0  0  0  0  0  0
  132.7827  134.4231  158.6512 H   0  0  0  0  0  0  0  0  0  0  0  0
  130.5198  135.9442  161.3565 H   0  0  0  0  0  0  0  0  0  0  0  0
  132.2097  135.9316  160.7974 H   0  0  0  0  0  0  0  0  0  0  0  0
  131.0568  139.2983  160.0702 H   0  0  0  0  0  0  0  0  0  0  0  0
  130.5827  138.3383  161.4921 H   0  0  0  0  0  0  0  0  0  0  0  0
  132.8752  137.4140  161.6584 H   0  0  0  0  0  0  0  0  0  0  0  0
  132.6054  140.4618  161.4075 H   0  0  0  0  0  0  0  0  0  0  0  0
  132.8162  139.4860  162.8953 H   0  0  0  0  0  0  0  0  0  0  0  0
  135.0984  140.6217  161.9173 H   0  0  0  0  0  0  0  0  0  0  0  0
  134.9261  137.4981  162.1779 H   0  0  0  0  0  0  0  0  0  0  0  0
  136.4875  138.4655  162.0164 H   0  0  0  0  0  0  0  0  0  0  0  0
  133.7790  137.3524  159.4246 H   0  0  0  0  0  0  0  0  0  0  0  0
  133.2520  139.0291  159.0770 H   0  0  0  0  0  0  0  0  0  0  0  0
  127.1922  136.6717  164.9957 H   0  0  0  0  0  0  0  0  0  0  0  0
  128.5601  136.0596  164.0353 H   0  0  0  0  0  0  0  0  0  0  0  0
  129.3379  137.6217  165.7968 H   0  0  0  0  0  0  0  0  0  0  0  0
  129.6516  138.2818  164.1737 H   0  0  0  0  0  0  0  0  0  0  0  0
  128.2520  140.2171  168.4501 H   0  0  0  0  0  0  0  0  0  0  0  0
  126.8922  141.8344  169.7147 H   0  0  0  0  0  0  0  0  0  0  0  0
  1 37  2  0
  1  2  1  0
  1 38  1  0
  2  3  2  0
  2 39  1  0
  3  4  1  0
  3 40  1  0
  4  5  1  0
  4 36  2  0
  5  6  1  0
  5 41  1  0
  5 42  1  0
  6 35  1  0
  6  7  1  0
  6 43  1  1
  7  8  1  0
  7 44  1  0
  7 45  1  0
  8  9  1  0
  8 46  1  0
  8 47  1  0
  9 10  1  0
  9 34  1  0
  9 48  1  6
 10 11  1  0
 10 49  1  0
 11 33  1  0
 11 12  2  0
 12 13  1  0
 12 50  1  0
 13 14  2  0
 13 51  1  0
 14 15  1  0
 14 33  1  0
 15 20  1  0
 15 16  2  0
 16 17  1  0
 17 18  1  0
 17 19  1  0
 19 20  2  0
 19 52  1  0
 20 21  1  0
 21 22  1  0
 21 53  1  0
 21 54  1  0
 22 23  1  0
 22 24  1  0
 22 25  1  0
 25 26  1  0
 25 55  1  0
 25 56  1  0
 26 32  1  0
 26 27  1  0
 26 57  1  1
 27 28  1  0
 27 58  1  0
 27 59  1  0
 28 30  1  0
 28 29  1  0
 28 60  1  6
 29 30  1  0
 29 61  1  0
 29 62  1  0
 30 31  1  6
 30 32  1  0
 32 63  1  0
 32 64  1  0
 34 35  1  0
 34 65  1  0
 34 66  1  0
 35 67  1  0
 35 68  1  0
 36 37  1  0
 36 69  1  0
 37 70  1  0
M  CHG  1  22   1
M  END
>  <DOCK_score>  (1) 
-47.288109

>  <SMILES>  (1) 
c1ccc(CC2CCC(Nc3ccc(-c4n[nH]cc4C[NH2+]CC4CC5C[C@H]5C4)o3)CC2)cc1

$$$$
