C1=CCC(c2c[nH]c(Nc3ccc(Nc4cccc5ccccc45)cc3)[nH+]2)=CC1
     RDKit          3D

 52 56  0  0  1  0  0  0  0  0999 V2000
  131.2021  130.6244  153.0204 C   0  0  0  0  0  0  0  0  0  0  0  0
  131.6686  130.1100  154.1165 C   0  0  0  0  0  0  0  0  0  0  0  0
  131.0921  130.4057  155.4680 C   0  0  0  0  0  0  0  0  0  0  0  0
  130.2873  131.6707  155.4473 C   0  0  0  0  0  0  0  0  0  0  0  0
  130.0148  132.3590  156.7258 C   0  0  0  0  0  0  0  0  0  0  0  0
  129.3545  131.8354  157.7916 C   0  0  0  0  0  0  0  0  0  0  0  0
  129.3266  132.8081  158.7597 N   0  0  0  0  0  0  0  0  0  0  0  0
  128.9227  132.7323  159.6383 H   0  0  0  0  0  0  0  0  0  0  0  0
  129.9700  133.8988  158.2596 C   0  0  0  0  0  0  0  0  0  0  0  0
  130.1607  135.0979  158.9256 N   0  0  0  0  0  0  0  0  0  0  0  0
  129.2259  135.5277  159.8753 C   0  0  0  0  0  0  0  0  0  0  0  0
  129.6359  136.3051  160.9509 C   0  0  0  0  0  0  0  0  0  0  0  0
  128.7134  136.7329  161.8847 C   0  0  0  0  0  0  0  0  0  0  0  0
  127.3770  136.3773  161.7542 C   0  0  0  0  0  0  0  0  0  0  0  0
  126.4427  136.8072  162.7031 N   0  0  0  0  0  0  0  0  0  0  0  0
  126.8364  137.0172  164.0229 C   0  0  0  0  0  0  0  0  0  0  0  0
  126.7788  135.9876  164.9386 C   0  0  0  0  0  0  0  0  0  0  0  0
  127.1700  136.1871  166.2587 C   0  0  0  0  0  0  0  0  0  0  0  0
  127.6193  137.4007  166.6834 C   0  0  0  0  0  0  0  0  0  0  0  0
  127.6930  138.4763  165.7822 C   0  0  0  0  0  0  0  0  0  0  0  0
  128.1532  139.7397  166.1926 C   0  0  0  0  0  0  0  0  0  0  0  0
  128.2275  140.7554  165.2895 C   0  0  0  0  0  0  0  0  0  0  0  0
  127.8392  140.5667  163.9647 C   0  0  0  0  0  0  0  0  0  0  0  0
  127.3838  139.3580  163.5334 C   0  0  0  0  0  0  0  0  0  0  0  0
  127.3035  138.2844  164.4338 C   0  0  0  0  0  0  0  0  0  0  0  0
  126.9681  135.5954  160.6815 C   0  0  0  0  0  0  0  0  0  0  0  0
  127.8897  135.1718  159.7449 C   0  0  0  0  0  0  0  0  0  0  0  0
  130.3849  133.6252  157.0469 N   0  0  0  0  0  0  0  0  0  0  0  0
  130.8758  134.2312  156.4701 H   0  0  0  0  0  0  0  0  0  0  0  0
  129.8097  132.1893  154.3366 C   0  0  0  0  0  0  0  0  0  0  0  0
  130.0383  131.5685  152.9912 C   0  0  0  0  0  0  0  0  0  0  0  0
  131.6746  130.3604  152.0858 H   0  0  0  0  0  0  0  0  0  0  0  0
  132.5112  129.4375  154.0518 H   0  0  0  0  0  0  0  0  0  0  0  0
  130.4539  129.5764  155.7733 H   0  0  0  0  0  0  0  0  0  0  0  0
  131.9043  130.5137  156.1869 H   0  0  0  0  0  0  0  0  0  0  0  0
  128.9322  130.8439  157.8632 H   0  0  0  0  0  0  0  0  0  0  0  0
  130.9419  135.6401  158.7341 H   0  0  0  0  0  0  0  0  0  0  0  0
  130.6756  136.5781  161.0544 H   0  0  0  0  0  0  0  0  0  0  0  0
  129.0315  137.3408  162.7187 H   0  0  0  0  0  0  0  0  0  0  0  0
  125.5209  136.9590  162.4420 H   0  0  0  0  0  0  0  0  0  0  0  0
  126.4263  135.0153  164.6273 H   0  0  0  0  0  0  0  0  0  0  0  0
  127.1165  135.3661  166.9585 H   0  0  0  0  0  0  0  0  0  0  0  0
  127.9182  137.5363  167.7124 H   0  0  0  0  0  0  0  0  0  0  0  0
  128.4582  139.9002  167.2161 H   0  0  0  0  0  0  0  0  0  0  0  0
  128.5849  141.7241  165.6064 H   0  0  0  0  0  0  0  0  0  0  0  0
  127.9000  141.3912  163.2697 H   0  0  0  0  0  0  0  0  0  0  0  0
  127.0861  139.2261  162.5037 H   0  0  0  0  0  0  0  0  0  0  0  0
  125.9290  135.3185  160.5800 H   0  0  0  0  0  0  0  0  0  0  0  0
  127.5718  134.5638  158.9109 H   0  0  0  0  0  0  0  0  0  0  0  0
  129.2340  133.1011  154.3958 H   0  0  0  0  0  0  0  0  0  0  0  0
  129.1432  131.0227  152.6928 H   0  0  0  0  0  0  0  0  0  0  0  0
  130.2359  132.3554  152.2634 H   0  0  0  0  0  0  0  0  0  0  0  0
  1 31  1  0
  1  2  2  0
  1 32  1  0
  2  3  1  0
  2 33  1  0
  3  4  1  0
  3 34  1  0
  3 35  1  0
  4  5  1  0
  4 30  2  0
  5 28  1  0
  5  6  2  0
  6  7  1  0
  6 36  1  0
  7  8  1  0
  7  9  1  0
  9 10  1  0
  9 28  2  0
 10 11  1  0
 10 37  1  0
 11 27  1  0
 11 12  2  0
 12 13  1  0
 12 38  1  0
 13 14  2  0
 13 39  1  0
 14 15  1  0
 14 26  1  0
 15 16  1  0
 15 40  1  0
 16 25  1  0
 16 17  2  0
 17 18  1  0
 17 41  1  0
 18 19  2  0
 18 42  1  0
 19 20  1  0
 19 43  1  0
 20 25  2  0
 20 21  1  0
 21 22  2  0
 21 44  1  0
 22 23  1  0
 22 45  1  0
 23 24  2  0
 23 46  1  0
 24 25  1  0
 24 47  1  0
 26 27  2  0
 26 48  1  0
 27 49  1  0
 28 29  1  0
 30 31  1  0
 30 50  1  0
 31 51  1  0
 31 52  1  0
M  CHG  1  28   1
M  END
>  <DOCK_score>  (1) 
-54.474014

>  <SMILES>  (1) 
C1=CCC(c2c[nH]c(Nc3ccc(Nc4cccc5ccccc45)cc3)[nH+]2)=CC1

$$$$
