NC(=O)C(Cc1ccccn1)NC1=CC[N@@H+](C(CO)Cc2ccccc2)CC1
     RDKit          3D

 57 59  0  0  1  0  0  0  0  0999 V2000
  129.8572  140.0201  162.5906 N   0  0  0  0  0  0  0  0  0  0  0  0
  128.7175  139.4366  162.1702 C   0  0  0  0  0  0  0  0  0  0  0  0
  128.0686  139.9447  161.2803 O   0  0  0  0  0  0  0  0  0  0  0  0
  128.2493  138.1529  162.8056 C   0  0  1  0  0  0  0  0  0  0  0  0
  127.3440  138.4739  163.9965 C   0  0  0  0  0  0  0  0  0  0  0  0
  128.1919  138.8320  165.1898 C   0  0  0  0  0  0  0  0  0  0  0  0
  128.5570  140.1488  165.3981 C   0  0  0  0  0  0  0  0  0  0  0  0
  129.3329  140.4683  166.5016 C   0  0  0  0  0  0  0  0  0  0  0  0
  129.7231  139.4451  167.3524 C   0  0  0  0  0  0  0  0  0  0  0  0
  129.3239  138.1512  167.0772 C   0  0  0  0  0  0  0  0  0  0  0  0
  128.5813  137.8848  166.0202 N   0  0  0  0  0  0  0  0  0  0  0  0
  127.5017  137.3655  161.8221 N   0  0  0  0  0  0  0  0  0  0  0  0
  128.1817  136.6087  160.8764 C   0  0  0  0  0  0  0  0  0  0  0  0
  127.4896  135.9140  160.0086 C   0  0  0  0  0  0  0  0  0  0  0  0
  128.1255  135.0689  158.9429 C   0  0  0  0  0  0  0  0  0  0  0  0
  129.5280  134.7937  159.2767 N   0  0  1  0  0  0  0  0  0  0  0  0
  129.5712  134.1994  160.0910 H   0  0  0  0  0  0  0  0  0  0  0  0
  130.1812  134.1259  158.1429 C   0  0  1  0  0  0  0  0  0  0  0  0
  131.4386  133.4040  158.6317 C   0  0  0  0  0  0  0  0  0  0  0  0
  131.0778  132.4310  159.6140 O   0  0  0  0  0  0  0  0  0  0  0  0
  129.2178  133.1106  157.5251 C   0  0  0  0  0  0  0  0  0  0  0  0
  129.8877  132.4255  156.3620 C   0  0  0  0  0  0  0  0  0  0  0  0
  129.7731  132.9534  155.0895 C   0  0  0  0  0  0  0  0  0  0  0  0
  130.3909  132.3271  154.0233 C   0  0  0  0  0  0  0  0  0  0  0  0
  131.1162  131.1682  154.2282 C   0  0  0  0  0  0  0  0  0  0  0  0
  131.2268  130.6377  155.4998 C   0  0  0  0  0  0  0  0  0  0  0  0
  130.6122  131.2662  156.5667 C   0  0  0  0  0  0  0  0  0  0  0  0
  130.2109  136.0662  159.5588 C   0  0  0  0  0  0  0  0  0  0  0  0
  129.6856  136.6180  160.8867 C   0  0  0  0  0  0  0  0  0  0  0  0
  130.3763  139.6139  163.3023 H   0  0  0  0  0  0  0  0  0  0  0  0
  130.1587  140.8465  162.1814 H   0  0  0  0  0  0  0  0  0  0  0  0
  129.1119  137.5816  163.1485 H   0  0  0  0  0  0  0  0  0  0  0  0
  126.6971  139.3144  163.7451 H   0  0  0  0  0  0  0  0  0  0  0  0
  126.7327  137.6031  164.2333 H   0  0  0  0  0  0  0  0  0  0  0  0
  128.2388  140.9195  164.7116 H   0  0  0  0  0  0  0  0  0  0  0  0
  129.6296  141.4891  166.6920 H   0  0  0  0  0  0  0  0  0  0  0  0
  130.3317  139.6570  168.2192 H   0  0  0  0  0  0  0  0  0  0  0  0
  129.6236  137.3487  167.7349 H   0  0  0  0  0  0  0  0  0  0  0  0
  126.5318  137.3725  161.8315 H   0  0  0  0  0  0  0  0  0  0  0  0
  126.4116  135.9469  160.0649 H   0  0  0  0  0  0  0  0  0  0  0  0
  127.5834  134.1271  158.8584 H   0  0  0  0  0  0  0  0  0  0  0  0
  128.0785  135.5953  157.9896 H   0  0  0  0  0  0  0  0  0  0  0  0
  130.4564  134.8681  157.3937 H   0  0  0  0  0  0  0  0  0  0  0  0
  131.9232  132.9085  157.7905 H   0  0  0  0  0  0  0  0  0  0  0  0
  132.1249  134.1274  159.0718 H   0  0  0  0  0  0  0  0  0  0  0  0
  130.4673  131.7539  159.2914 H   0  0  0  0  0  0  0  0  0  0  0  0
  128.9424  132.3684  158.2744 H   0  0  0  0  0  0  0  0  0  0  0  0
  128.3220  133.6249  157.1769 H   0  0  0  0  0  0  0  0  0  0  0  0
  129.2033  133.8566  154.9290 H   0  0  0  0  0  0  0  0  0  0  0  0
  130.3042  132.7413  153.0296 H   0  0  0  0  0  0  0  0  0  0  0  0
  131.5961  130.6771  153.3945 H   0  0  0  0  0  0  0  0  0  0  0  0
  131.7932  129.7322  155.6599 H   0  0  0  0  0  0  0  0  0  0  0  0
  130.6983  130.8515  157.5602 H   0  0  0  0  0  0  0  0  0  0  0  0
  130.0039  136.7777  158.7594 H   0  0  0  0  0  0  0  0  0  0  0  0
  131.2857  135.8997  159.6313 H   0  0  0  0  0  0  0  0  0  0  0  0
  130.0414  137.6394  161.0215 H   0  0  0  0  0  0  0  0  0  0  0  0
  130.0468  135.9965  161.7060 H   0  0  0  0  0  0  0  0  0  0  0  0
  1  2  1  0
  1 30  1  0
  1 31  1  0
  2  3  2  0
  2  4  1  0
  4  5  1  0
  4 12  1  0
  4 32  1  1
  5  6  1  0
  5 33  1  0
  5 34  1  0
  6 11  1  0
  6  7  2  0
  7  8  1  0
  7 35  1  0
  8  9  2  0
  8 36  1  0
  9 10  1  0
  9 37  1  0
 10 11  2  0
 10 38  1  0
 12 13  1  0
 12 39  1  0
 13 29  1  0
 13 14  2  0
 14 15  1  0
 14 40  1  0
 15 16  1  0
 15 41  1  0
 15 42  1  0
 16 17  1  1
 16 18  1  0
 16 28  1  0
 18 19  1  0
 18 21  1  0
 18 43  1  6
 19 20  1  0
 19 44  1  0
 19 45  1  0
 20 46  1  0
 21 22  1  0
 21 47  1  0
 21 48  1  0
 22 27  1  0
 22 23  2  0
 23 24  1  0
 23 49  1  0
 24 25  2  0
 24 50  1  0
 25 26  1  0
 25 51  1  0
 26 27  2  0
 26 52  1  0
 27 53  1  0
 28 29  1  0
 28 54  1  0
 28 55  1  0
 29 56  1  0
 29 57  1  0
M  CHG  1  16   1
M  END
>  <DOCK_score>  (1) 
-42.778282

>  <SMILES>  (1) 
NC(=O)C(Cc1ccccn1)NC1=CC[N@@H+](C(CO)Cc2ccccc2)CC1

$$$$
