O[C@@H]1C=C[C@@H]([NH+]=C(NC2CC=CC2)N[C@H]2[C@@H]3CC=CC[C@@H]32)[C@@H]1Cl
     RDKit          3D

 48 51  0  0  1  0  0  0  0  0999 V2000
  124.7049  135.2435  162.2150 O   0  0  0  0  0  0  0  0  0  0  0  0
  125.7861  134.5780  161.5591 C   0  0  2  0  0  0  0  0  0  0  0  0
  125.6003  134.5193  160.4867 H   0  0  0  0  0  0  0  0  0  0  0  0
  125.9807  133.1952  162.1362 C   0  0  0  0  0  0  0  0  0  0  0  0
  127.2447  132.9478  162.3481 C   0  0  0  0  0  0  0  0  0  0  0  0
  128.1038  134.1247  161.9477 C   0  0  1  0  0  0  0  0  0  0  0  0
  128.8550  134.3239  162.7120 H   0  0  0  0  0  0  0  0  0  0  0  0
  128.7465  133.8710  160.6559 N   0  0  0  0  0  0  0  0  0  0  0  0
  128.5868  133.0351  160.1904 H   0  0  0  0  0  0  0  0  0  0  0  0
  129.5333  134.7686  160.1320 C   0  0  0  0  0  0  0  0  0  0  0  0
  129.7600  135.9533  160.7917 N   0  0  0  0  0  0  0  0  0  0  0  0
  130.6443  136.9619  160.2029 C   0  0  0  0  0  0  0  0  0  0  0  0
  131.1909  137.9211  161.2856 C   0  0  0  0  0  0  0  0  0  0  0  0
  131.2255  139.2756  160.6166 C   0  0  0  0  0  0  0  0  0  0  0  0
  130.4951  139.2844  159.5349 C   0  0  0  0  0  0  0  0  0  0  0  0
  129.8515  137.9373  159.3021 C   0  0  0  0  0  0  0  0  0  0  0  0
  130.1364  134.5306  158.9196 N   0  0  0  0  0  0  0  0  0  0  0  0
  129.8947  133.2682  158.2166 C   0  0  1  0  0  0  0  0  0  0  0  0
  128.8556  133.0673  157.9558 H   0  0  0  0  0  0  0  0  0  0  0  0
  130.9719  132.7854  157.2431 C   0  0  2  0  0  0  0  0  0  0  0  0
  131.8612  133.4019  157.1120 H   0  0  0  0  0  0  0  0  0  0  0  0
  130.4988  131.9935  156.0133 C   0  0  0  0  0  0  0  0  0  0  0  0
  130.9100  130.5517  156.1845 C   0  0  0  0  0  0  0  0  0  0  0  0
  130.7396  129.9449  157.3328 C   0  0  0  0  0  0  0  0  0  0  0  0
  130.1298  130.6785  158.5021 C   0  0  0  0  0  0  0  0  0  0  0  0
  130.7715  132.0721  158.5928 C   0  0  2  0  0  0  0  0  0  0  0  0
  131.5155  132.2056  159.3782 H   0  0  0  0  0  0  0  0  0  0  0  0
  127.1181  135.3132  161.8356 C   0  0  2  0  0  0  0  0  0  0  0  0
  127.3839  135.9671  161.0051 H   0  0  0  0  0  0  0  0  0  0  0  0
  127.0393  136.2357  163.3827 Cl  0  0  0  0  0  0  0  0  0  0  0  0
  124.5636  136.1526  161.9168 H   0  0  0  0  0  0  0  0  0  0  0  0
  125.1791  132.5022  162.3456 H   0  0  0  0  0  0  0  0  0  0  0  0
  127.6264  132.0235  162.7557 H   0  0  0  0  0  0  0  0  0  0  0  0
  129.3346  136.1213  161.6471 H   0  0  0  0  0  0  0  0  0  0  0  0
  131.4572  136.4914  159.6495 H   0  0  0  0  0  0  0  0  0  0  0  0
  130.5240  137.9403  162.1475 H   0  0  0  0  0  0  0  0  0  0  0  0
  132.1944  137.6209  161.5873 H   0  0  0  0  0  0  0  0  0  0  0  0
  131.7815  140.1250  160.9853 H   0  0  0  0  0  0  0  0  0  0  0  0
  130.3677  140.1418  158.8907 H   0  0  0  0  0  0  0  0  0  0  0  0
  129.9442  137.6479  158.2552 H   0  0  0  0  0  0  0  0  0  0  0  0
  128.8029  137.9610  159.5989 H   0  0  0  0  0  0  0  0  0  0  0  0
  130.7219  135.1985  158.5297 H   0  0  0  0  0  0  0  0  0  0  0  0
  130.9612  132.4020  155.1147 H   0  0  0  0  0  0  0  0  0  0  0  0
  129.4139  132.0572  155.9280 H   0  0  0  0  0  0  0  0  0  0  0  0
  131.3475  130.0166  155.3547 H   0  0  0  0  0  0  0  0  0  0  0  0
  131.0378  128.9128  157.4435 H   0  0  0  0  0  0  0  0  0  0  0  0
  130.3227  130.1261  159.4218 H   0  0  0  0  0  0  0  0  0  0  0  0
  129.0551  130.7794  158.3509 H   0  0  0  0  0  0  0  0  0  0  0  0
  1  2  1  0
  1 31  1  0
  2  3  1  6
  2 28  1  0
  2  4  1  0
  4  5  2  0
  4 32  1  0
  5  6  1  0
  5 33  1  0
  6  7  1  1
  6  8  1  0
  6 28  1  0
  8  9  1  0
 10  8  2  0
 10 11  1  0
 10 17  1  0
 11 12  1  0
 11 34  1  0
 12 16  1  0
 12 13  1  0
 12 35  1  0
 13 14  1  0
 13 36  1  0
 13 37  1  0
 14 15  2  0
 14 38  1  0
 15 16  1  0
 15 39  1  0
 16 40  1  0
 16 41  1  0
 17 18  1  0
 17 42  1  0
 18 19  1  6
 18 26  1  0
 18 20  1  0
 20 21  1  6
 20 26  1  0
 20 22  1  0
 22 23  1  0
 22 43  1  0
 22 44  1  0
 23 24  2  0
 23 45  1  0
 24 25  1  0
 24 46  1  0
 25 26  1  0
 25 47  1  0
 25 48  1  0
 26 27  1  1
 28 29  1  6
 28 30  1  0
M  CHG  1   8   1
M  END
>  <DOCK_score>  (1) 
-44.594383

>  <SMILES>  (1) 
O[C@@H]1C=C[C@@H]([NH+]=C(NC2CC=CC2)N[C@H]2[C@@H]3CC=CC[C@@H]32)[C@@H]1Cl

$$$$
