CCCNc1ccc([NH2+][C@H](C)Cc2cccc(O)c2)cc1
     RDKit          3D

 46 47  0  0  1  0  0  0  0  0999 V2000
  130.8988  129.8366  151.4936 C   0  0  0  0  0  0  0  0  0  0  0  0
  131.5464  130.2246  152.8244 C   0  0  0  0  0  0  0  0  0  0  0  0
  130.7180  129.6579  153.9792 C   0  0  0  0  0  0  0  0  0  0  0  0
  131.3381  130.0294  155.2534 N   0  0  0  0  0  0  0  0  0  0  0  0
  130.9748  131.2206  155.8859 C   0  0  0  0  0  0  0  0  0  0  0  0
  131.2125  131.3881  157.2442 C   0  0  0  0  0  0  0  0  0  0  0  0
  130.8572  132.5693  157.8652 C   0  0  0  0  0  0  0  0  0  0  0  0
  130.2603  133.5825  157.1377 C   0  0  0  0  0  0  0  0  0  0  0  0
  129.9019  134.7770  157.7695 N   0  0  0  0  0  0  0  0  0  0  0  0
  130.5330  134.9543  158.5365 H   0  0  0  0  0  0  0  0  0  0  0  0
  129.9553  135.5367  157.1076 H   0  0  0  0  0  0  0  0  0  0  0  0
  128.5288  134.6682  158.2801 C   0  0  2  0  0  0  0  0  0  0  0  0
  127.9115  134.1407  157.5529 H   0  0  0  0  0  0  0  0  0  0  0  0
  127.9587  136.0688  158.5126 C   0  0  0  0  0  0  0  0  0  0  0  0
  128.5354  133.8946  159.6001 C   0  0  0  0  0  0  0  0  0  0  0  0
  127.1543  133.3578  159.8748 C   0  0  0  0  0  0  0  0  0  0  0  0
  126.7947  132.1060  159.4099 C   0  0  0  0  0  0  0  0  0  0  0  0
  125.5285  131.6107  159.6602 C   0  0  0  0  0  0  0  0  0  0  0  0
  124.6194  132.3653  160.3765 C   0  0  0  0  0  0  0  0  0  0  0  0
  124.9778  133.6210  160.8442 C   0  0  0  0  0  0  0  0  0  0  0  0
  124.0856  134.3650  161.5495 O   0  0  0  0  0  0  0  0  0  0  0  0
  126.2508  134.1140  160.5954 C   0  0  0  0  0  0  0  0  0  0  0  0
  130.0165  133.4167  155.7866 C   0  0  0  0  0  0  0  0  0  0  0  0
  130.3696  132.2381  155.1592 C   0  0  0  0  0  0  0  0  0  0  0  0
  129.8884  130.2425  151.4493 H   0  0  0  0  0  0  0  0  0  0  0  0
  131.4891  130.2402  150.6710 H   0  0  0  0  0  0  0  0  0  0  0  0
  130.8579  128.7503  151.4127 H   0  0  0  0  0  0  0  0  0  0  0  0
  131.5874  131.3107  152.9055 H   0  0  0  0  0  0  0  0  0  0  0  0
  132.5570  129.8185  152.8688 H   0  0  0  0  0  0  0  0  0  0  0  0
  130.6770  128.5717  153.8981 H   0  0  0  0  0  0  0  0  0  0  0  0
  129.7075  130.0640  153.9349 H   0  0  0  0  0  0  0  0  0  0  0  0
  132.0009  129.4480  155.6580 H   0  0  0  0  0  0  0  0  0  0  0  0
  131.6787  130.5972  157.8131 H   0  0  0  0  0  0  0  0  0  0  0  0
  131.0462  132.7021  158.9202 H   0  0  0  0  0  0  0  0  0  0  0  0
  127.9540  136.6199  157.5722 H   0  0  0  0  0  0  0  0  0  0  0  0
  126.9398  135.9880  158.8915 H   0  0  0  0  0  0  0  0  0  0  0  0
  128.5759  136.5962  159.2398 H   0  0  0  0  0  0  0  0  0  0  0  0
  129.2404  133.0661  159.5322 H   0  0  0  0  0  0  0  0  0  0  0  0
  128.8341  134.5603  160.4099 H   0  0  0  0  0  0  0  0  0  0  0  0
  127.5039  131.5145  158.8502 H   0  0  0  0  0  0  0  0  0  0  0  0
  125.2498  130.6330  159.2958 H   0  0  0  0  0  0  0  0  0  0  0  0
  123.6303  131.9780  160.5718 H   0  0  0  0  0  0  0  0  0  0  0  0
  124.4267  135.2244  161.8324 H   0  0  0  0  0  0  0  0  0  0  0  0
  126.5336  135.0898  160.9620 H   0  0  0  0  0  0  0  0  0  0  0  0
  129.5498  134.2098  155.2213 H   0  0  0  0  0  0  0  0  0  0  0  0
  130.1797  132.1095  154.1039 H   0  0  0  0  0  0  0  0  0  0  0  0
  1  2  1  0
  1 25  1  0
  1 26  1  0
  1 27  1  0
  2  3  1  0
  2 28  1  0
  2 29  1  0
  3  4  1  0
  3 30  1  0
  3 31  1  0
  4  5  1  0
  4 32  1  0
  5 24  2  0
  5  6  1  0
  6  7  2  0
  6 33  1  0
  7  8  1  0
  7 34  1  0
  8  9  1  0
  8 23  2  0
  9 10  1  0
  9 11  1  0
  9 12  1  0
 12 13  1  6
 12 14  1  0
 12 15  1  0
 14 35  1  0
 14 36  1  0
 14 37  1  0
 15 16  1  0
 15 38  1  0
 15 39  1  0
 16 22  1  0
 16 17  2  0
 17 18  1  0
 17 40  1  0
 18 19  2  0
 18 41  1  0
 19 20  1  0
 19 42  1  0
 20 21  1  0
 20 22  2  0
 21 43  1  0
 22 44  1  0
 23 24  1  0
 23 45  1  0
 24 46  1  0
M  CHG  1   9   1
M  END
>  <DOCK_score>  (1) 
-45.677315

>  <SMILES>  (1) 
CCCNc1ccc([NH2+][C@H](C)Cc2cccc(O)c2)cc1

$$$$
