C=C/C=C/C=C1C=CCC[C@@H](Nc2ccc(Nc3[nH]c4ccccc4[nH+]3)cc2)C1
     RDKit          3D

 56 59  0  0  1  0  0  0  0  0999 V2000
  128.3877  143.2527  168.2042 C   0  0  0  0  0  0  0  0  0  0  0  0
  128.3189  141.9311  168.0311 C   0  0  0  0  0  0  0  0  0  0  0  0
  127.6061  141.3807  166.8787 C   0  0  0  0  0  0  0  0  0  0  0  0
  127.5363  140.0398  166.7031 C   0  0  0  0  0  0  0  0  0  0  0  0
  126.8478  139.5080  165.5899 C   0  0  0  0  0  0  0  0  0  0  0  0
  126.7780  138.1671  165.4144 C   0  0  0  0  0  0  0  0  0  0  0  0
  127.4061  137.2470  166.3616 C   0  0  0  0  0  0  0  0  0  0  0  0
  128.4509  136.5154  165.9895 C   0  0  0  0  0  0  0  0  0  0  0  0
  129.0236  136.6898  164.5918 C   0  0  0  0  0  0  0  0  0  0  0  0
  128.0392  136.1492  163.5634 C   0  0  0  0  0  0  0  0  0  0  0  0
  127.0347  137.2153  163.1431 C   0  0  1  0  0  0  0  0  0  0  0  0
  127.5790  138.1167  162.8614 H   0  0  0  0  0  0  0  0  0  0  0  0
  126.2955  136.7298  161.9752 N   0  0  0  0  0  0  0  0  0  0  0  0
  126.9799  136.4104  160.7971 C   0  0  0  0  0  0  0  0  0  0  0  0
  128.1532  137.0790  160.4725 C   0  0  0  0  0  0  0  0  0  0  0  0
  128.8281  136.7641  159.3100 C   0  0  0  0  0  0  0  0  0  0  0  0
  128.3336  135.7792  158.4652 C   0  0  0  0  0  0  0  0  0  0  0  0
  129.0184  135.4600  157.2850 N   0  0  0  0  0  0  0  0  0  0  0  0
  129.4881  134.1821  157.0865 C   0  0  0  0  0  0  0  0  0  0  0  0
  129.3569  133.1784  157.9513 N   0  0  0  0  0  0  0  0  0  0  0  0
  128.9195  133.2281  158.8157 H   0  0  0  0  0  0  0  0  0  0  0  0
  129.9440  132.0635  157.4138 C   0  0  0  0  0  0  0  0  0  0  0  0
  130.1088  130.7539  157.8557 C   0  0  0  0  0  0  0  0  0  0  0  0
  130.7591  129.8383  157.0571 C   0  0  0  0  0  0  0  0  0  0  0  0
  131.2566  130.2137  155.8178 C   0  0  0  0  0  0  0  0  0  0  0  0
  131.1072  131.5074  155.3676 C   0  0  0  0  0  0  0  0  0  0  0  0
  130.4525  132.4450  156.1613 C   0  0  0  0  0  0  0  0  0  0  0  0
  130.1492  133.7718  156.0060 N   0  0  0  0  0  0  0  0  0  0  0  0
  130.3696  134.3175  155.2349 H   0  0  0  0  0  0  0  0  0  0  0  0
  127.1575  135.1146  158.7867 C   0  0  0  0  0  0  0  0  0  0  0  0
  126.4857  135.4251  159.9523 C   0  0  0  0  0  0  0  0  0  0  0  0
  126.0463  137.5690  164.2289 C   0  0  0  0  0  0  0  0  0  0  0  0
  128.9140  143.6591  169.0551 H   0  0  0  0  0  0  0  0  0  0  0  0
  127.9172  143.9156  167.4933 H   0  0  0  0  0  0  0  0  0  0  0  0
  128.7896  141.2683  168.7422 H   0  0  0  0  0  0  0  0  0  0  0  0
  127.1355  142.0436  166.1679 H   0  0  0  0  0  0  0  0  0  0  0  0
  128.0069  139.3769  167.4141 H   0  0  0  0  0  0  0  0  0  0  0  0
  126.3772  140.1709  164.8791 H   0  0  0  0  0  0  0  0  0  0  0  0
  127.0195  137.1617  167.3665 H   0  0  0  0  0  0  0  0  0  0  0  0
  128.8891  135.8033  166.6732 H   0  0  0  0  0  0  0  0  0  0  0  0
  129.9644  136.1451  164.5146 H   0  0  0  0  0  0  0  0  0  0  0  0
  129.2015  137.7484  164.4021 H   0  0  0  0  0  0  0  0  0  0  0  0
  127.5029  135.3033  163.9934 H   0  0  0  0  0  0  0  0  0  0  0  0
  128.5899  135.8121  162.6853 H   0  0  0  0  0  0  0  0  0  0  0  0
  125.3317  136.6297  162.0185 H   0  0  0  0  0  0  0  0  0  0  0  0
  128.5377  137.8450  161.1297 H   0  0  0  0  0  0  0  0  0  0  0  0
  129.7404  137.2839  159.0575 H   0  0  0  0  0  0  0  0  0  0  0  0
  129.1613  136.1399  156.6083 H   0  0  0  0  0  0  0  0  0  0  0  0
  129.7242  130.4551  158.8196 H   0  0  0  0  0  0  0  0  0  0  0  0
  130.8826  128.8212  157.3986 H   0  0  0  0  0  0  0  0  0  0  0  0
  131.7644  129.4867  155.2013 H   0  0  0  0  0  0  0  0  0  0  0  0
  131.4965  131.7932  154.4016 H   0  0  0  0  0  0  0  0  0  0  0  0
  126.7706  134.3520  158.1271 H   0  0  0  0  0  0  0  0  0  0  0  0
  125.5736  134.9049  160.2048 H   0  0  0  0  0  0  0  0  0  0  0  0
  125.3283  138.2928  163.8435 H   0  0  0  0  0  0  0  0  0  0  0  0
  125.5183  136.6695  164.5453 H   0  0  0  0  0  0  0  0  0  0  0  0
  1  2  2  0
  1 33  1  0
  1 34  1  0
  2  3  1  0
  2 35  1  0
  3  4  2  0
  3 36  1  0
  4  5  1  0
  4 37  1  0
  5  6  2  0
  5 38  1  0
  6 32  1  0
  6  7  1  0
  7  8  2  0
  7 39  1  0
  8  9  1  0
  8 40  1  0
  9 10  1  0
  9 41  1  0
  9 42  1  0
 10 11  1  0
 10 43  1  0
 10 44  1  0
 11 12  1  6
 11 13  1  0
 11 32  1  0
 13 14  1  0
 13 45  1  0
 14 31  1  0
 14 15  2  0
 15 16  1  0
 15 46  1  0
 16 17  2  0
 16 47  1  0
 17 18  1  0
 17 30  1  0
 18 19  1  0
 18 48  1  0
 19 28  1  0
 19 20  2  0
 20 21  1  0
 20 22  1  0
 22 27  2  0
 22 23  1  0
 23 24  2  0
 23 49  1  0
 24 25  1  0
 24 50  1  0
 25 26  2  0
 25 51  1  0
 26 27  1  0
 26 52  1  0
 27 28  1  0
 28 29  1  0
 30 31  2  0
 30 53  1  0
 31 54  1  0
 32 55  1  0
 32 56  1  0
M  CHG  1  20   1
M  END
>  <DOCK_score>  (1) 
-47.615635

>  <SMILES>  (1) 
C=C/C=C/C=C1C=CCC[C@@H](Nc2ccc(Nc3[nH]c4ccccc4[nH+]3)cc2)C1

$$$$
