Cc1cccc(N2CC[NH+]([C@@H](c3ccccc3)c3ccc(F)cn3)CC2)c1C
     RDKit          3D

 55 58  0  0  1  0  0  0  0  0999 V2000
  135.8662  140.9721  163.0101 C   0  0  0  0  0  0  0  0  0  0  0  0
  135.3291  140.2931  161.7767 C   0  0  0  0  0  0  0  0  0  0  0  0
  135.7699  140.6845  160.5255 C   0  0  0  0  0  0  0  0  0  0  0  0
  135.2793  140.0644  159.3912 C   0  0  0  0  0  0  0  0  0  0  0  0
  134.3474  139.0512  159.5042 C   0  0  0  0  0  0  0  0  0  0  0  0
  133.9027  138.6558  160.7592 C   0  0  0  0  0  0  0  0  0  0  0  0
  132.9600  137.6319  160.8772 N   0  0  0  0  0  0  0  0  0  0  0  0
  131.6846  138.0162  160.2561 C   0  0  0  0  0  0  0  0  0  0  0  0
  130.6636  136.8944  160.4588 C   0  0  0  0  0  0  0  0  0  0  0  0
  131.1698  135.6560  159.8524 N   0  0  0  0  0  0  0  0  0  0  0  0
  131.3293  135.8051  158.8673 H   0  0  0  0  0  0  0  0  0  0  0  0
  130.1814  134.5840  160.0314 C   0  0  1  0  0  0  0  0  0  0  0  0
  130.0084  134.4234  161.0954 H   0  0  0  0  0  0  0  0  0  0  0  0
  128.8878  134.9771  159.3657 C   0  0  0  0  0  0  0  0  0  0  0  0
  127.6853  134.5096  159.8620 C   0  0  0  0  0  0  0  0  0  0  0  0
  126.4983  134.8737  159.2539 C   0  0  0  0  0  0  0  0  0  0  0  0
  126.5142  135.6973  158.1448 C   0  0  0  0  0  0  0  0  0  0  0  0
  127.7175  136.1610  157.6448 C   0  0  0  0  0  0  0  0  0  0  0  0
  128.9042  135.8004  158.2555 C   0  0  0  0  0  0  0  0  0  0  0  0
  130.7005  133.3133  159.4095 C   0  0  0  0  0  0  0  0  0  0  0  0
  130.9917  133.2841  158.0583 C   0  0  0  0  0  0  0  0  0  0  0  0
  131.4687  132.1111  157.4949 C   0  0  0  0  0  0  0  0  0  0  0  0
  131.6361  131.0041  158.3166 C   0  0  0  0  0  0  0  0  0  0  0  0
  132.0979  129.8397  157.8107 F   0  0  0  0  0  0  0  0  0  0  0  0
  131.3230  131.1096  159.6608 C   0  0  0  0  0  0  0  0  0  0  0  0
  130.8764  132.2449  160.1615 N   0  0  0  0  0  0  0  0  0  0  0  0
  132.4310  135.2718  160.4997 C   0  0  0  0  0  0  0  0  0  0  0  0
  133.4667  136.3801  160.2974 C   0  0  0  0  0  0  0  0  0  0  0  0
  134.3934  139.2848  161.8967 C   0  0  0  0  0  0  0  0  0  0  0  0
  133.9092  138.8633  163.2600 C   0  0  0  0  0  0  0  0  0  0  0  0
  135.2375  141.8277  163.2569 H   0  0  0  0  0  0  0  0  0  0  0  0
  135.8647  140.2682  163.8423 H   0  0  0  0  0  0  0  0  0  0  0  0
  136.8851  141.3118  162.8235 H   0  0  0  0  0  0  0  0  0  0  0  0
  136.4985  141.4764  160.4342 H   0  0  0  0  0  0  0  0  0  0  0  0
  135.6254  140.3724  158.4156 H   0  0  0  0  0  0  0  0  0  0  0  0
  133.9646  138.5673  158.6178 H   0  0  0  0  0  0  0  0  0  0  0  0
  131.3158  138.9315  160.7189 H   0  0  0  0  0  0  0  0  0  0  0  0
  131.8350  138.1826  159.1894 H   0  0  0  0  0  0  0  0  0  0  0  0
  130.5032  136.7375  161.5254 H   0  0  0  0  0  0  0  0  0  0  0  0
  129.7210  137.1714  159.9865 H   0  0  0  0  0  0  0  0  0  0  0  0
  127.6728  133.8628  160.7268 H   0  0  0  0  0  0  0  0  0  0  0  0
  125.5585  134.5119  159.6442 H   0  0  0  0  0  0  0  0  0  0  0  0
  125.5876  135.9791  157.6669 H   0  0  0  0  0  0  0  0  0  0  0  0
  127.7302  136.8045  156.7775 H   0  0  0  0  0  0  0  0  0  0  0  0
  129.8439  136.1622  157.8652 H   0  0  0  0  0  0  0  0  0  0  0  0
  130.8496  134.1646  157.4493 H   0  0  0  0  0  0  0  0  0  0  0  0
  131.7048  132.0593  156.4423 H   0  0  0  0  0  0  0  0  0  0  0  0
  131.4501  130.2540  160.3075 H   0  0  0  0  0  0  0  0  0  0  0  0
  132.7988  134.3458  160.0579 H   0  0  0  0  0  0  0  0  0  0  0  0
  132.2615  135.1233  161.5662 H   0  0  0  0  0  0  0  0  0  0  0  0
  133.6465  136.5195  159.2314 H   0  0  0  0  0  0  0  0  0  0  0  0
  134.3982  136.1018  160.7904 H   0  0  0  0  0  0  0  0  0  0  0  0
  134.5507  138.0701  163.6442 H   0  0  0  0  0  0  0  0  0  0  0  0
  133.9419  139.7170  163.9372 H   0  0  0  0  0  0  0  0  0  0  0  0
  132.8850  138.4981  163.1849 H   0  0  0  0  0  0  0  0  0  0  0  0
  1  2  1  0
  1 31  1  0
  1 32  1  0
  1 33  1  0
  2 29  2  0
  2  3  1  0
  3  4  2  0
  3 34  1  0
  4  5  1  0
  4 35  1  0
  5  6  2  0
  5 36  1  0
  6  7  1  0
  6 29  1  0
  7 28  1  0
  7  8  1  0
  8  9  1  0
  8 37  1  0
  8 38  1  0
  9 10  1  0
  9 39  1  0
  9 40  1  0
 10 11  1  0
 10 12  1  0
 10 27  1  0
 12 13  1  1
 12 14  1  0
 12 20  1  0
 14 19  1  0
 14 15  2  0
 15 16  1  0
 15 41  1  0
 16 17  2  0
 16 42  1  0
 17 18  1  0
 17 43  1  0
 18 19  2  0
 18 44  1  0
 19 45  1  0
 20 26  1  0
 20 21  2  0
 21 22  1  0
 21 46  1  0
 22 23  2  0
 22 47  1  0
 23 24  1  0
 23 25  1  0
 25 26  2  0
 25 48  1  0
 27 28  1  0
 27 49  1  0
 27 50  1  0
 28 51  1  0
 28 52  1  0
 29 30  1  0
 30 53  1  0
 30 54  1  0
 30 55  1  0
M  CHG  1  10   1
M  END
>  <DOCK_score>  (1) 
-58.169235

>  <SMILES>  (1) 
Cc1cccc(N2CC[NH+]([C@@H](c3ccccc3)c3ccc(F)cn3)CC2)c1C

$$$$
