CC(C)n1ccc(CN(C(=O)c2c[nH]nc2C2CCC[NH2+]C2)[C@H]2C=C(N)CCC2)n1
     RDKit          3D

 64 67  0  0  1  0  0  0  0  0999 V2000
  135.5207  140.6558  160.7088 C   0  0  0  0  0  0  0  0  0  0  0  0
  135.6113  139.2571  160.0952 C   0  0  0  0  0  0  0  0  0  0  0  0
  135.6208  139.3692  158.5694 C   0  0  0  0  0  0  0  0  0  0  0  0
  134.4563  138.4621  160.5193 N   0  0  0  0  0  0  0  0  0  0  0  0
  133.8739  137.4693  159.8147 C   0  0  0  0  0  0  0  0  0  0  0  0
  132.8443  136.9903  160.5504 C   0  0  0  0  0  0  0  0  0  0  0  0
  132.7956  137.7151  161.7457 C   0  0  0  0  0  0  0  0  0  0  0  0
  131.8024  137.5143  162.8611 C   0  0  0  0  0  0  0  0  0  0  0  0
  130.4567  137.3782  162.2981 N   0  0  0  0  0  0  0  0  0  0  0  0
  129.9862  136.1604  161.9635 C   0  0  0  0  0  0  0  0  0  0  0  0
  130.6787  135.1746  162.1288 O   0  0  0  0  0  0  0  0  0  0  0  0
  128.6320  136.0234  161.3968 C   0  0  0  0  0  0  0  0  0  0  0  0
  127.4481  136.3873  162.0064 C   0  0  0  0  0  0  0  0  0  0  0  0
  126.4520  136.0989  161.1536 N   0  0  0  0  0  0  0  0  0  0  0  0
  125.5072  136.2495  161.3141 H   0  0  0  0  0  0  0  0  0  0  0  0
  127.0059  135.5394  159.9970 N   0  0  0  0  0  0  0  0  0  0  0  0
  128.3026  135.4897  160.1308 C   0  0  0  0  0  0  0  0  0  0  0  0
  129.2782  134.9572  159.1131 C   0  0  1  0  0  0  0  0  0  0  0  0
  129.4953  133.4595  159.3478 C   0  0  0  0  0  0  0  0  0  0  0  0
  130.4263  132.9125  158.2618 C   0  0  0  0  0  0  0  0  0  0  0  0
  129.8220  133.2024  156.8861 C   0  0  0  0  0  0  0  0  0  0  0  0
  129.6639  134.6513  156.7127 N   0  0  0  0  0  0  0  0  0  0  0  0
  130.5580  135.1030  156.8335 H   0  0  0  0  0  0  0  0  0  0  0  0
  129.3156  134.8420  155.7852 H   0  0  0  0  0  0  0  0  0  0  0  0
  128.7165  135.1714  157.7060 C   0  0  0  0  0  0  0  0  0  0  0  0
  129.6225  138.5659  162.0988 C   0  0  1  0  0  0  0  0  0  0  0  0
  128.6641  138.2672  161.6741 H   0  0  0  0  0  0  0  0  0  0  0  0
  129.3928  139.2399  163.4199 C   0  0  0  0  0  0  0  0  0  0  0  0
  129.4457  140.5315  163.5977 C   0  0  0  0  0  0  0  0  0  0  0  0
  129.2037  141.0255  164.8732 N   0  0  0  0  0  0  0  0  0  0  0  0
  129.7530  141.5155  162.5069 C   0  0  0  0  0  0  0  0  0  0  0  0
  129.5698  140.8580  161.1373 C   0  0  0  0  0  0  0  0  0  0  0  0
  130.3269  139.5248  161.1366 C   0  0  0  0  0  0  0  0  0  0  0  0
  133.7649  138.5938  161.7305 N   0  0  0  0  0  0  0  0  0  0  0  0
  136.3800  141.2473  160.3933 H   0  0  0  0  0  0  0  0  0  0  0  0
  134.6035  141.1405  160.3745 H   0  0  0  0  0  0  0  0  0  0  0  0
  135.5140  140.5758  161.7958 H   0  0  0  0  0  0  0  0  0  0  0  0
  136.5285  138.7724  160.4296 H   0  0  0  0  0  0  0  0  0  0  0  0
  134.7035  139.8539  158.2349 H   0  0  0  0  0  0  0  0  0  0  0  0
  136.4803  139.9608  158.2538 H   0  0  0  0  0  0  0  0  0  0  0  0
  135.6854  138.3728  158.1322 H   0  0  0  0  0  0  0  0  0  0  0  0
  134.1754  137.1199  158.8382 H   0  0  0  0  0  0  0  0  0  0  0  0
  132.1777  136.1898  160.2651 H   0  0  0  0  0  0  0  0  0  0  0  0
  132.0570  136.6114  163.4162 H   0  0  0  0  0  0  0  0  0  0  0  0
  131.8305  138.3732  163.5316 H   0  0  0  0  0  0  0  0  0  0  0  0
  127.3428  136.8257  162.9878 H   0  0  0  0  0  0  0  0  0  0  0  0
  130.2284  135.4824  159.2103 H   0  0  0  0  0  0  0  0  0  0  0  0
  129.9480  133.3058  160.3273 H   0  0  0  0  0  0  0  0  0  0  0  0
  128.5377  132.9408  159.3021 H   0  0  0  0  0  0  0  0  0  0  0  0
  131.4004  133.3951  158.3405 H   0  0  0  0  0  0  0  0  0  0  0  0
  130.5418  131.8361  158.3898 H   0  0  0  0  0  0  0  0  0  0  0  0
  130.4823  132.8140  156.1107 H   0  0  0  0  0  0  0  0  0  0  0  0
  128.8479  132.7196  156.8086 H   0  0  0  0  0  0  0  0  0  0  0  0
  127.7661  134.6461  157.6108 H   0  0  0  0  0  0  0  0  0  0  0  0
  128.5606  136.2366  157.5358 H   0  0  0  0  0  0  0  0  0  0  0  0
  129.1707  138.6186  164.2749 H   0  0  0  0  0  0  0  0  0  0  0  0
  129.0026  140.4150  165.5997 H   0  0  0  0  0  0  0  0  0  0  0  0
  129.2358  141.9809  165.0375 H   0  0  0  0  0  0  0  0  0  0  0  0
  129.0807  142.3693  162.5906 H   0  0  0  0  0  0  0  0  0  0  0  0
  130.7827  141.8577  162.6085 H   0  0  0  0  0  0  0  0  0  0  0  0
  128.5099  140.6795  160.9556 H   0  0  0  0  0  0  0  0  0  0  0  0
  129.9696  141.5107  160.3613 H   0  0  0  0  0  0  0  0  0  0  0  0
  131.3538  139.6846  161.4652 H   0  0  0  0  0  0  0  0  0  0  0  0
  130.3221  139.1039  160.1312 H   0  0  0  0  0  0  0  0  0  0  0  0
  1  2  1  0
  1 35  1  0
  1 36  1  0
  1 37  1  0
  2  3  1  0
  2  4  1  0
  2 38  1  0
  3 39  1  0
  3 40  1  0
  3 41  1  0
  4 34  1  0
  4  5  1  0
  5  6  2  0
  5 42  1  0
  6  7  1  0
  6 43  1  0
  7  8  1  0
  7 34  2  0
  8  9  1  0
  8 44  1  0
  8 45  1  0
  9 10  1  0
  9 26  1  0
 10 11  2  0
 10 12  1  0
 12 17  1  0
 12 13  2  0
 13 14  1  0
 13 46  1  0
 14 15  1  0
 14 16  1  0
 16 17  2  0
 17 18  1  0
 18 25  1  0
 18 19  1  0
 18 47  1  6
 19 20  1  0
 19 48  1  0
 19 49  1  0
 20 21  1  0
 20 50  1  0
 20 51  1  0
 21 22  1  0
 21 52  1  0
 21 53  1  0
 22 23  1  0
 22 24  1  0
 22 25  1  0
 25 54  1  0
 25 55  1  0
 26 27  1  6
 26 33  1  0
 26 28  1  0
 28 29  2  0
 28 56  1  0
 29 30  1  0
 29 31  1  0
 30 57  1  0
 30 58  1  0
 31 32  1  0
 31 59  1  0
 31 60  1  0
 32 33  1  0
 32 61  1  0
 32 62  1  0
 33 63  1  0
 33 64  1  0
M  CHG  1  22   1
M  END
>  <DOCK_score>  (1) 
-43.353905

>  <SMILES>  (1) 
CC(C)n1ccc(CN(C(=O)c2c[nH]nc2C2CCC[NH2+]C2)[C@H]2C=C(N)CCC2)n1

$$$$
