Fc1ccc(-c2ccc3c(C[N@H+]4CC=C(c5ccccc5)CC4)c[nH]c3c2)cc1
     RDKit          3D

 53 57  0  0  1  0  0  0  0  0999 V2000
  130.9076  128.5680  150.7640 F   0  0  0  0  0  0  0  0  0  0  0  0
  130.8177  129.2847  151.9057 C   0  0  0  0  0  0  0  0  0  0  0  0
  131.6845  129.0242  152.9548 C   0  0  0  0  0  0  0  0  0  0  0  0
  131.5964  129.7537  154.1226 C   0  0  0  0  0  0  0  0  0  0  0  0
  130.6335  130.7539  154.2460 C   0  0  0  0  0  0  0  0  0  0  0  0
  130.5346  131.5404  155.4996 C   0  0  0  0  0  0  0  0  0  0  0  0
  130.0825  132.8638  155.4564 C   0  0  0  0  0  0  0  0  0  0  0  0
  129.9873  133.5984  156.6011 C   0  0  0  0  0  0  0  0  0  0  0  0
  130.3428  133.0286  157.8271 C   0  0  0  0  0  0  0  0  0  0  0  0
  130.3611  133.5192  159.2068 C   0  0  0  0  0  0  0  0  0  0  0  0
  129.9603  134.8947  159.6741 C   0  0  0  0  0  0  0  0  0  0  0  0
  131.1323  135.7799  159.6528 N   0  0  1  0  0  0  0  0  0  0  0  0
  131.4952  135.8372  158.7131 H   0  0  0  0  0  0  0  0  0  0  0  0
  130.7450  137.1187  160.1123 C   0  0  0  0  0  0  0  0  0  0  0  0
  131.9583  137.9889  160.2719 C   0  0  0  0  0  0  0  0  0  0  0  0
  133.1781  137.5054  160.3666 C   0  0  0  0  0  0  0  0  0  0  0  0
  134.3069  138.4461  160.5276 C   0  0  0  0  0  0  0  0  0  0  0  0
  135.1210  138.3766  161.6586 C   0  0  0  0  0  0  0  0  0  0  0  0
  136.1759  139.2545  161.8007 C   0  0  0  0  0  0  0  0  0  0  0  0
  136.4209  140.2090  160.8297 C   0  0  0  0  0  0  0  0  0  0  0  0
  135.6141  140.2866  159.7085 C   0  0  0  0  0  0  0  0  0  0  0  0
  134.5593  139.4113  159.5519 C   0  0  0  0  0  0  0  0  0  0  0  0
  133.4658  136.0303  160.3108 C   0  0  0  0  0  0  0  0  0  0  0  0
  132.1703  135.2475  160.5498 C   0  0  0  0  0  0  0  0  0  0  0  0
  130.8082  132.5132  159.9759 C   0  0  0  0  0  0  0  0  0  0  0  0
  131.0700  131.4153  159.2024 N   0  0  0  0  0  0  0  0  0  0  0  0
  131.4007  130.5659  159.5342 H   0  0  0  0  0  0  0  0  0  0  0  0
  130.7989  131.6980  157.8817 C   0  0  0  0  0  0  0  0  0  0  0  0
  130.8920  130.9590  156.7095 C   0  0  0  0  0  0  0  0  0  0  0  0
  129.7603  131.0090  153.1900 C   0  0  0  0  0  0  0  0  0  0  0  0
  129.8588  130.2778  152.0241 C   0  0  0  0  0  0  0  0  0  0  0  0
  132.4300  128.2488  152.8583 H   0  0  0  0  0  0  0  0  0  0  0  0
  132.2722  129.5496  154.9399 H   0  0  0  0  0  0  0  0  0  0  0  0
  129.8076  133.3065  154.5103 H   0  0  0  0  0  0  0  0  0  0  0  0
  129.6379  134.6195  156.5608 H   0  0  0  0  0  0  0  0  0  0  0  0
  129.5694  134.8337  160.6897 H   0  0  0  0  0  0  0  0  0  0  0  0
  129.1915  135.2936  159.0123 H   0  0  0  0  0  0  0  0  0  0  0  0
  130.2316  137.0366  161.0703 H   0  0  0  0  0  0  0  0  0  0  0  0
  130.0717  137.5693  159.3831 H   0  0  0  0  0  0  0  0  0  0  0  0
  131.8233  139.0597  160.3112 H   0  0  0  0  0  0  0  0  0  0  0  0
  134.9284  137.6344  162.4193 H   0  0  0  0  0  0  0  0  0  0  0  0
  136.8092  139.1990  162.6736 H   0  0  0  0  0  0  0  0  0  0  0  0
  137.2455  140.8964  160.9473 H   0  0  0  0  0  0  0  0  0  0  0  0
  135.8108  141.0338  158.9539 H   0  0  0  0  0  0  0  0  0  0  0  0
  133.9305  139.4726  158.6760 H   0  0  0  0  0  0  0  0  0  0  0  0
  133.8722  135.7765  159.3317 H   0  0  0  0  0  0  0  0  0  0  0  0
  134.1911  135.7724  161.0826 H   0  0  0  0  0  0  0  0  0  0  0  0
  131.8534  135.3645  161.5862 H   0  0  0  0  0  0  0  0  0  0  0  0
  132.3338  134.1917  160.3342 H   0  0  0  0  0  0  0  0  0  0  0  0
  130.9392  132.5627  161.0467 H   0  0  0  0  0  0  0  0  0  0  0  0
  131.2407  129.9372  156.7383 H   0  0  0  0  0  0  0  0  0  0  0  0
  129.0099  131.7801  153.2830 H   0  0  0  0  0  0  0  0  0  0  0  0
  129.1850  130.4773  151.2040 H   0  0  0  0  0  0  0  0  0  0  0  0
  1  2  1  0
  2 31  2  0
  2  3  1  0
  3  4  2  0
  3 32  1  0
  4  5  1  0
  4 33  1  0
  5  6  1  0
  5 30  2  0
  6 29  1  0
  6  7  2  0
  7  8  1  0
  7 34  1  0
  8  9  2  0
  8 35  1  0
  9 28  1  0
  9 10  1  0
 10 11  1  0
 10 25  2  0
 11 12  1  0
 11 36  1  0
 11 37  1  0
 12 13  1  6
 12 24  1  0
 12 14  1  0
 14 15  1  0
 14 38  1  0
 14 39  1  0
 15 16  2  0
 15 40  1  0
 16 17  1  0
 16 23  1  0
 17 22  1  0
 17 18  2  0
 18 19  1  0
 18 41  1  0
 19 20  2  0
 19 42  1  0
 20 21  1  0
 20 43  1  0
 21 22  2  0
 21 44  1  0
 22 45  1  0
 23 24  1  0
 23 46  1  0
 23 47  1  0
 24 48  1  0
 24 49  1  0
 25 26  1  0
 25 50  1  0
 26 27  1  0
 26 28  1  0
 28 29  2  0
 29 51  1  0
 30 31  1  0
 30 52  1  0
 31 53  1  0
M  CHG  1  12   1
M  END
>  <DOCK_score>  (1) 
-56.640137

>  <SMILES>  (1) 
Fc1ccc(-c2ccc3c(C[N@H+]4CC=C(c5ccccc5)CC4)c[nH]c3c2)cc1

$$$$
