Cn1nccc1C[NH+]=C(NCc1ccc(Cc2ccccc2)cc1)N[C@H]1C[C@@H](O)[C@@H](O)C1
     RDKit          3D

 64 67  0  0  1  0  0  0  0  0999 V2000
  129.3071  137.5679  162.4122 C   0  0  0  0  0  0  0  0  0  0  0  0
  128.4578  136.3747  162.4456 N   0  0  0  0  0  0  0  0  0  0  0  0
  127.0787  136.3376  162.2018 N   0  0  0  0  0  0  0  0  0  0  0  0
  126.6756  135.0987  162.3225 C   0  0  0  0  0  0  0  0  0  0  0  0
  127.7841  134.3076  162.6414 C   0  0  0  0  0  0  0  0  0  0  0  0
  128.8658  135.1171  162.7160 C   0  0  0  0  0  0  0  0  0  0  0  0
  130.2749  134.6899  163.0369 C   0  0  0  0  0  0  0  0  0  0  0  0
  131.2038  135.3275  162.1004 N   0  0  0  0  0  0  0  0  0  0  0  0
  131.9020  135.9130  162.4329 H   0  0  0  0  0  0  0  0  0  0  0  0
  131.0918  135.1080  160.8205 C   0  0  0  0  0  0  0  0  0  0  0  0
  131.9635  135.7063  159.9417 N   0  0  0  0  0  0  0  0  0  0  0  0
  133.3310  136.0185  160.3647 C   0  0  0  0  0  0  0  0  0  0  0  0
  133.3701  137.4049  160.9546 C   0  0  0  0  0  0  0  0  0  0  0  0
  134.0499  137.6342  162.1361 C   0  0  0  0  0  0  0  0  0  0  0  0
  134.0894  138.9065  162.6751 C   0  0  0  0  0  0  0  0  0  0  0  0
  133.4416  139.9477  162.0369 C   0  0  0  0  0  0  0  0  0  0  0  0
  133.4816  141.3342  162.6263 C   0  0  0  0  0  0  0  0  0  0  0  0
  132.3150  141.5157  163.5629 C   0  0  0  0  0  0  0  0  0  0  0  0
  131.1155  142.0097  163.0853 C   0  0  0  0  0  0  0  0  0  0  0  0
  130.0439  142.1716  163.9434 C   0  0  0  0  0  0  0  0  0  0  0  0
  130.1751  141.8495  165.2813 C   0  0  0  0  0  0  0  0  0  0  0  0
  131.3762  141.3604  165.7600 C   0  0  0  0  0  0  0  0  0  0  0  0
  132.4461  141.1936  164.9007 C   0  0  0  0  0  0  0  0  0  0  0  0
  132.7574  139.7174  160.8581 C   0  0  0  0  0  0  0  0  0  0  0  0
  132.7215  138.4457  160.3170 C   0  0  0  0  0  0  0  0  0  0  0  0
  130.1022  134.2781  160.3492 N   0  0  0  0  0  0  0  0  0  0  0  0
  129.9764  134.0315  158.9106 C   0  0  1  0  0  0  0  0  0  0  0  0
  129.7964  134.9658  158.3787 H   0  0  0  0  0  0  0  0  0  0  0  0
  131.2468  133.3313  158.3675 C   0  0  0  0  0  0  0  0  0  0  0  0
  130.7286  132.6271  157.0889 C   0  0  1  0  0  0  0  0  0  0  0  0
  130.6716  133.3319  156.2594 H   0  0  0  0  0  0  0  0  0  0  0  0
  131.5712  131.5240  156.7492 O   0  0  0  0  0  0  0  0  0  0  0  0
  129.3196  132.1316  157.4744 C   0  0  1  0  0  0  0  0  0  0  0  0
  128.6441  132.2288  156.6245 H   0  0  0  0  0  0  0  0  0  0  0  0
  129.3792  130.7687  157.8995 O   0  0  0  0  0  0  0  0  0  0  0  0
  128.8412  133.0246  158.6327 C   0  0  0  0  0  0  0  0  0  0  0  0
  129.6982  137.7075  161.4045 H   0  0  0  0  0  0  0  0  0  0  0  0
  128.7194  138.4402  162.6980 H   0  0  0  0  0  0  0  0  0  0  0  0
  130.1356  137.4438  163.1096 H   0  0  0  0  0  0  0  0  0  0  0  0
  125.6625  134.7471  162.1940 H   0  0  0  0  0  0  0  0  0  0  0  0
  127.7774  133.2396  162.8022 H   0  0  0  0  0  0  0  0  0  0  0  0
  130.3553  133.6066  162.9474 H   0  0  0  0  0  0  0  0  0  0  0  0
  130.5226  134.9898  164.0550 H   0  0  0  0  0  0  0  0  0  0  0  0
  131.6732  135.9216  159.0416 H   0  0  0  0  0  0  0  0  0  0  0  0
  133.6534  135.2957  161.1140 H   0  0  0  0  0  0  0  0  0  0  0  0
  133.9974  135.9710  159.5036 H   0  0  0  0  0  0  0  0  0  0  0  0
  134.5529  136.8200  162.6366 H   0  0  0  0  0  0  0  0  0  0  0  0
  134.6243  139.0867  163.5958 H   0  0  0  0  0  0  0  0  0  0  0  0
  134.4131  141.4685  163.1760 H   0  0  0  0  0  0  0  0  0  0  0  0
  133.4226  142.0714  161.8255 H   0  0  0  0  0  0  0  0  0  0  0  0
  131.0145  142.2655  162.0410 H   0  0  0  0  0  0  0  0  0  0  0  0
  129.1057  142.5542  163.5695 H   0  0  0  0  0  0  0  0  0  0  0  0
  129.3392  141.9802  165.9526 H   0  0  0  0  0  0  0  0  0  0  0  0
  131.4787  141.1092  166.8053 H   0  0  0  0  0  0  0  0  0  0  0  0
  133.3846  140.8118  165.2748 H   0  0  0  0  0  0  0  0  0  0  0  0
  132.2512  140.5308  160.3597 H   0  0  0  0  0  0  0  0  0  0  0  0
  132.1869  138.2657  159.3960 H   0  0  0  0  0  0  0  0  0  0  0  0
  129.4848  133.8591  160.9690 H   0  0  0  0  0  0  0  0  0  0  0  0
  132.0158  134.0633  158.1208 H   0  0  0  0  0  0  0  0  0  0  0  0
  131.6223  132.6018  159.0850 H   0  0  0  0  0  0  0  0  0  0  0  0
  132.4761  131.7764  156.5201 H   0  0  0  0  0  0  0  0  0  0  0  0
  129.6745  130.1551  157.2128 H   0  0  0  0  0  0  0  0  0  0  0  0
  128.6546  132.4182  159.5190 H   0  0  0  0  0  0  0  0  0  0  0  0
  127.9334  133.5552  158.3457 H   0  0  0  0  0  0  0  0  0  0  0  0
  1  2  1  0
  1 37  1  0
  1 38  1  0
  1 39  1  0
  2  6  1  0
  2  3  1  0
  3  4  2  0
  4  5  1  0
  4 40  1  0
  5  6  2  0
  5 41  1  0
  6  7  1  0
  7  8  1  0
  7 42  1  0
  7 43  1  0
  8  9  1  0
 10  8  2  0
 10 11  1  0
 10 26  1  0
 11 12  1  0
 11 44  1  0
 12 13  1  0
 12 45  1  0
 12 46  1  0
 13 25  1  0
 13 14  2  0
 14 15  1  0
 14 47  1  0
 15 16  2  0
 15 48  1  0
 16 17  1  0
 16 24  1  0
 17 18  1  0
 17 49  1  0
 17 50  1  0
 18 23  1  0
 18 19  2  0
 19 20  1  0
 19 51  1  0
 20 21  2  0
 20 52  1  0
 21 22  1  0
 21 53  1  0
 22 23  2  0
 22 54  1  0
 23 55  1  0
 24 25  2  0
 24 56  1  0
 25 57  1  0
 26 27  1  0
 26 58  1  0
 27 28  1  6
 27 36  1  0
 27 29  1  0
 29 30  1  0
 29 59  1  0
 29 60  1  0
 30 31  1  6
 30 32  1  0
 30 33  1  0
 32 61  1  0
 33 34  1  6
 33 35  1  0
 33 36  1  0
 35 62  1  0
 36 63  1  0
 36 64  1  0
M  CHG  1   8   1
M  END
>  <DOCK_score>  (1) 
-44.181492

>  <SMILES>  (1) 
Cn1nccc1C[NH+]=C(NCc1ccc(Cc2ccccc2)cc1)N[C@H]1C[C@@H](O)[C@@H](O)C1

$$$$
