Fc1ccc(F)c([C@@H](Nc2cccc(O[C@@H]3CC[NH2+]C3)c2)c2ccncc2)c1
     RDKit          3D

 50 53  0  0  1  0  0  0  0  0999 V2000
  127.0316  140.4471  163.8918 F   0  0  0  0  0  0  0  0  0  0  0  0
  126.8111  139.1427  164.1655 C   0  0  0  0  0  0  0  0  0  0  0  0
  126.1944  138.7786  165.3507 C   0  0  0  0  0  0  0  0  0  0  0  0
  125.9685  137.4446  165.6305 C   0  0  0  0  0  0  0  0  0  0  0  0
  126.3548  136.4720  164.7238 C   0  0  0  0  0  0  0  0  0  0  0  0
  126.1298  135.1678  164.9953 F   0  0  0  0  0  0  0  0  0  0  0  0
  126.9757  136.8356  163.5411 C   0  0  0  0  0  0  0  0  0  0  0  0
  127.3999  135.7768  162.5564 C   0  0  1  0  0  0  0  0  0  0  0  0
  127.6440  134.8593  163.0920 H   0  0  0  0  0  0  0  0  0  0  0  0
  126.3062  135.5175  161.6167 N   0  0  0  0  0  0  0  0  0  0  0  0
  126.1592  134.2501  161.0487 C   0  0  0  0  0  0  0  0  0  0  0  0
  124.9903  133.5269  161.2541 C   0  0  0  0  0  0  0  0  0  0  0  0
  124.8453  132.2734  160.6927 C   0  0  0  0  0  0  0  0  0  0  0  0
  125.8611  131.7352  159.9252 C   0  0  0  0  0  0  0  0  0  0  0  0
  127.0303  132.4530  159.7163 C   0  0  0  0  0  0  0  0  0  0  0  0
  128.0278  131.9225  158.9610 O   0  0  0  0  0  0  0  0  0  0  0  0
  128.8548  132.8397  158.2419 C   0  0  2  0  0  0  0  0  0  0  0  0
  128.2932  133.7348  157.9741 H   0  0  0  0  0  0  0  0  0  0  0  0
  129.4525  132.1716  156.9824 C   0  0  0  0  0  0  0  0  0  0  0  0
  130.8994  132.6924  156.8993 C   0  0  0  0  0  0  0  0  0  0  0  0
  131.0908  133.6246  158.0314 N   0  0  0  0  0  0  0  0  0  0  0  0
  130.9045  134.5717  157.7377 H   0  0  0  0  0  0  0  0  0  0  0  0
  132.0309  133.5485  158.3898 H   0  0  0  0  0  0  0  0  0  0  0  0
  130.1122  133.2082  159.0686 C   0  0  0  0  0  0  0  0  0  0  0  0
  127.1823  133.7088  160.2830 C   0  0  0  0  0  0  0  0  0  0  0  0
  128.6117  136.2530  161.7976 C   0  0  0  0  0  0  0  0  0  0  0  0
  129.8904  135.9924  162.2665 C   0  0  0  0  0  0  0  0  0  0  0  0
  130.9780  136.4406  161.5411 C   0  0  0  0  0  0  0  0  0  0  0  0
  130.8096  137.1171  160.4218 N   0  0  0  0  0  0  0  0  0  0  0  0
  129.6088  137.3878  159.9489 C   0  0  0  0  0  0  0  0  0  0  0  0
  128.4746  136.9670  160.6172 C   0  0  0  0  0  0  0  0  0  0  0  0
  127.2012  138.1700  163.2611 C   0  0  0  0  0  0  0  0  0  0  0  0
  125.8897  139.5374  166.0562 H   0  0  0  0  0  0  0  0  0  0  0  0
  125.4871  137.1607  166.5548 H   0  0  0  0  0  0  0  0  0  0  0  0
  125.6841  136.2261  161.3892 H   0  0  0  0  0  0  0  0  0  0  0  0
  124.1948  133.9454  161.8528 H   0  0  0  0  0  0  0  0  0  0  0  0
  123.9363  131.7127  160.8533 H   0  0  0  0  0  0  0  0  0  0  0  0
  125.7445  130.7549  159.4872 H   0  0  0  0  0  0  0  0  0  0  0  0
  129.4464  131.0870  157.0904 H   0  0  0  0  0  0  0  0  0  0  0  0
  128.8923  132.4674  156.0953 H   0  0  0  0  0  0  0  0  0  0  0  0
  131.5987  131.8603  156.9811 H   0  0  0  0  0  0  0  0  0  0  0  0
  131.0514  133.2173  155.9563 H   0  0  0  0  0  0  0  0  0  0  0  0
  129.8978  134.0330  159.7483 H   0  0  0  0  0  0  0  0  0  0  0  0
  130.4793  132.3412  159.6178 H   0  0  0  0  0  0  0  0  0  0  0  0
  128.0936  134.2667  160.1254 H   0  0  0  0  0  0  0  0  0  0  0  0
  130.0346  135.4428  163.1850 H   0  0  0  0  0  0  0  0  0  0  0  0
  131.9773  136.2377  161.8970 H   0  0  0  0  0  0  0  0  0  0  0  0
  129.5105  137.9444  159.0286 H   0  0  0  0  0  0  0  0  0  0  0  0
  127.4938  137.1911  160.2244 H   0  0  0  0  0  0  0  0  0  0  0  0
  127.6817  138.4540  162.3364 H   0  0  0  0  0  0  0  0  0  0  0  0
  1  2  1  0
  2 32  2  0
  2  3  1  0
  3  4  2  0
  3 33  1  0
  4  5  1  0
  4 34  1  0
  5  6  1  0
  5  7  2  0
  7  8  1  0
  7 32  1  0
  8  9  1  1
  8 10  1  0
  8 26  1  0
 10 11  1  0
 10 35  1  0
 11 25  1  0
 11 12  2  0
 12 13  1  0
 12 36  1  0
 13 14  2  0
 13 37  1  0
 14 15  1  0
 14 38  1  0
 15 16  1  0
 15 25  2  0
 16 17  1  0
 17 18  1  6
 17 24  1  0
 17 19  1  0
 19 20  1  0
 19 39  1  0
 19 40  1  0
 20 21  1  0
 20 41  1  0
 20 42  1  0
 21 22  1  0
 21 23  1  0
 21 24  1  0
 24 43  1  0
 24 44  1  0
 25 45  1  0
 26 31  1  0
 26 27  2  0
 27 28  1  0
 27 46  1  0
 28 29  2  0
 28 47  1  0
 29 30  1  0
 30 31  2  0
 30 48  1  0
 31 49  1  0
 32 50  1  0
M  CHG  1  21   1
M  END
>  <DOCK_score>  (1) 
-42.246243

>  <SMILES>  (1) 
Fc1ccc(F)c([C@@H](Nc2cccc(O[C@@H]3CC[NH2+]C3)c2)c2ccncc2)c1

$$$$
