Cc1ccc2c(c1)CC(NC(NC1CCCC1)=[NH+][C@H]1CNC(=O)C1)CO2
     RDKit          3D

 55 58  0  0  1  0  0  0  0  0999 V2000
  137.1969  137.6042  163.4270 C   0  0  0  0  0  0  0  0  0  0  0  0
  136.1297  137.8495  162.3917 C   0  0  0  0  0  0  0  0  0  0  0  0
  136.4182  138.5970  161.2646 C   0  0  0  0  0  0  0  0  0  0  0  0
  135.4408  138.8196  160.3167 C   0  0  0  0  0  0  0  0  0  0  0  0
  134.1640  138.2945  160.4906 C   0  0  0  0  0  0  0  0  0  0  0  0
  133.8772  137.5500  161.6212 C   0  0  0  0  0  0  0  0  0  0  0  0
  134.8631  137.3282  162.5685 C   0  0  0  0  0  0  0  0  0  0  0  0
  132.5045  136.9711  161.8539 C   0  0  0  0  0  0  0  0  0  0  0  0
  131.7253  136.9481  160.5366 C   0  0  1  0  0  0  0  0  0  0  0  0
  130.3134  136.6622  160.8029 N   0  0  0  0  0  0  0  0  0  0  0  0
  129.7213  135.5502  160.2520 C   0  0  0  0  0  0  0  0  0  0  0  0
  130.1616  135.0645  159.0436 N   0  0  0  0  0  0  0  0  0  0  0  0
  129.5308  133.8797  158.4565 C   0  0  0  0  0  0  0  0  0  0  0  0
  129.7409  132.6619  159.3732 C   0  0  0  0  0  0  0  0  0  0  0  0
  130.5302  131.6223  158.5509 C   0  0  0  0  0  0  0  0  0  0  0  0
  130.2215  131.9894  157.0780 C   0  0  0  0  0  0  0  0  0  0  0  0
  130.1995  133.5378  157.1092 C   0  0  0  0  0  0  0  0  0  0  0  0
  128.7425  134.9567  160.8754 N   0  0  0  0  0  0  0  0  0  0  0  0
  128.3249  134.1722  160.4867 H   0  0  0  0  0  0  0  0  0  0  0  0
  128.2734  135.4743  162.1630 C   0  0  1  0  0  0  0  0  0  0  0  0
  129.0855  135.9573  162.7064 H   0  0  0  0  0  0  0  0  0  0  0  0
  127.0845  136.4418  161.9698 C   0  0  0  0  0  0  0  0  0  0  0  0
  125.8803  135.6121  162.0948 N   0  0  0  0  0  0  0  0  0  0  0  0
  126.1574  134.4346  162.6809 C   0  0  0  0  0  0  0  0  0  0  0  0
  125.3439  133.5650  162.9115 O   0  0  0  0  0  0  0  0  0  0  0  0
  127.6315  134.3513  163.0102 C   0  0  0  0  0  0  0  0  0  0  0  0
  131.8579  138.3252  159.8736 C   0  0  0  0  0  0  0  0  0  0  0  0
  133.2296  138.5312  159.5334 O   0  0  0  0  0  0  0  0  0  0  0  0
  137.7372  136.6896  163.1822 H   0  0  0  0  0  0  0  0  0  0  0  0
  137.8913  138.4443  163.4391 H   0  0  0  0  0  0  0  0  0  0  0  0
  136.7342  137.5011  164.4085 H   0  0  0  0  0  0  0  0  0  0  0  0
  137.4080  139.0065  161.1266 H   0  0  0  0  0  0  0  0  0  0  0  0
  135.6673  139.4034  159.4367 H   0  0  0  0  0  0  0  0  0  0  0  0
  134.6402  136.7445  163.4494 H   0  0  0  0  0  0  0  0  0  0  0  0
  131.9711  137.5843  162.5803 H   0  0  0  0  0  0  0  0  0  0  0  0
  132.5988  135.9552  162.2375 H   0  0  0  0  0  0  0  0  0  0  0  0
  132.1375  136.1827  159.8792 H   0  0  0  0  0  0  0  0  0  0  0  0
  129.7962  137.2574  161.3679 H   0  0  0  0  0  0  0  0  0  0  0  0
  130.8899  135.5062  158.5797 H   0  0  0  0  0  0  0  0  0  0  0  0
  128.4653  134.0575  158.3102 H   0  0  0  0  0  0  0  0  0  0  0  0
  130.3124  132.9523  160.2549 H   0  0  0  0  0  0  0  0  0  0  0  0
  128.7776  132.2484  159.6717 H   0  0  0  0  0  0  0  0  0  0  0  0
  131.5983  131.7096  158.7499 H   0  0  0  0  0  0  0  0  0  0  0  0
  130.1806  130.6143  158.7741 H   0  0  0  0  0  0  0  0  0  0  0  0
  129.2508  131.5953  156.7771 H   0  0  0  0  0  0  0  0  0  0  0  0
  131.0064  131.6274  156.4141 H   0  0  0  0  0  0  0  0  0  0  0  0
  129.6088  133.9277  156.2802 H   0  0  0  0  0  0  0  0  0  0  0  0
  131.2142  133.9345  157.0754 H   0  0  0  0  0  0  0  0  0  0  0  0
  127.0946  137.2108  162.7423 H   0  0  0  0  0  0  0  0  0  0  0  0
  127.1268  136.8987  160.9811 H   0  0  0  0  0  0  0  0  0  0  0  0
  124.9980  135.8791  161.7931 H   0  0  0  0  0  0  0  0  0  0  0  0
  128.0325  133.3797  162.7222 H   0  0  0  0  0  0  0  0  0  0  0  0
  127.7980  134.5322  164.0722 H   0  0  0  0  0  0  0  0  0  0  0  0
  131.2468  138.3587  158.9717 H   0  0  0  0  0  0  0  0  0  0  0  0
  131.5315  139.0997  160.5677 H   0  0  0  0  0  0  0  0  0  0  0  0
  1  2  1  0
  1 29  1  0
  1 30  1  0
  1 31  1  0
  2  7  2  0
  2  3  1  0
  3  4  2  0
  3 32  1  0
  4  5  1  0
  4 33  1  0
  5 28  1  0
  5  6  2  0
  6  7  1  0
  6  8  1  0
  7 34  1  0
  8  9  1  0
  8 35  1  0
  8 36  1  0
  9 10  1  0
  9 27  1  0
  9 37  1  6
 10 38  1  0
 11 10  1  0
 11 12  1  0
 11 18  2  0
 12 13  1  0
 12 39  1  0
 13 17  1  0
 13 14  1  0
 13 40  1  0
 14 15  1  0
 14 41  1  0
 14 42  1  0
 15 16  1  0
 15 43  1  0
 15 44  1  0
 16 17  1  0
 16 45  1  0
 16 46  1  0
 17 47  1  0
 17 48  1  0
 18 19  1  0
 18 20  1  0
 20 21  1  1
 20 26  1  0
 20 22  1  0
 22 23  1  0
 22 49  1  0
 22 50  1  0
 23 24  1  0
 23 51  1  0
 24 25  2  0
 24 26  1  0
 26 52  1  0
 26 53  1  0
 27 28  1  0
 27 54  1  0
 27 55  1  0
M  CHG  1  18   1
M  END
>  <DOCK_score>  (1) 
-41.5061

>  <SMILES>  (1) 
Cc1ccc2c(c1)CC(NC(NC1CCCC1)=[NH+][C@H]1CNC(=O)C1)CO2

$$$$
