Nc1ccc(-c2c[nH]c(NC(c3cccs3)[C@H](O)c3cccs3)[nH+]2)cc1
     RDKit          3D

 45 48  0  0  1  0  0  0  0  0999 V2000
  131.3372  129.5937  150.7098 N   0  0  0  0  0  0  0  0  0  0  0  0
  131.1587  130.1437  151.9815 C   0  0  0  0  0  0  0  0  0  0  0  0
  130.4094  131.3039  152.1368 C   0  0  0  0  0  0  0  0  0  0  0  0
  130.2320  131.8486  153.3911 C   0  0  0  0  0  0  0  0  0  0  0  0
  130.8047  131.2347  154.5038 C   0  0  0  0  0  0  0  0  0  0  0  0
  130.6150  131.8188  155.8543 C   0  0  0  0  0  0  0  0  0  0  0  0
  130.0287  131.2073  156.9130 C   0  0  0  0  0  0  0  0  0  0  0  0
  130.0619  132.1003  157.9577 N   0  0  0  0  0  0  0  0  0  0  0  0
  129.7169  131.9515  158.8520 H   0  0  0  0  0  0  0  0  0  0  0  0
  130.6680  133.2315  157.5053 C   0  0  0  0  0  0  0  0  0  0  0  0
  130.9037  134.3736  158.2515 N   0  0  0  0  0  0  0  0  0  0  0  0
  130.4879  134.4304  159.6550 C   0  0  1  0  0  0  0  0  0  0  0  0
  131.6947  134.6616  160.5275 C   0  0  0  0  0  0  0  0  0  0  0  0
  131.8312  134.2288  161.7818 C   0  0  0  0  0  0  0  0  0  0  0  0
  133.0318  134.5601  162.3858 C   0  0  0  0  0  0  0  0  0  0  0  0
  133.8667  135.2697  161.6251 C   0  0  0  0  0  0  0  0  0  0  0  0
  133.1356  135.5502  160.0502 S   0  0  0  0  0  0  0  0  0  0  0  0
  129.4931  135.5769  159.8464 C   0  0  2  0  0  0  0  0  0  0  0  0
  128.8131  135.6137  158.9952 H   0  0  0  0  0  0  0  0  0  0  0  0
  130.2036  136.8130  159.9423 O   0  0  0  0  0  0  0  0  0  0  0  0
  128.7039  135.3517  161.1103 C   0  0  0  0  0  0  0  0  0  0  0  0
  128.1991  136.3143  161.8835 C   0  0  0  0  0  0  0  0  0  0  0  0
  127.5086  135.8663  162.9965 C   0  0  0  0  0  0  0  0  0  0  0  0
  127.4527  134.5400  163.1271 C   0  0  0  0  0  0  0  0  0  0  0  0
  128.3011  133.7791  161.7874 S   0  0  0  0  0  0  0  0  0  0  0  0
  130.9970  133.0594  156.2482 N   0  0  0  0  0  0  0  0  0  0  0  0
  131.4429  133.7147  155.6888 H   0  0  0  0  0  0  0  0  0  0  0  0
  131.5605  130.0742  154.3451 C   0  0  0  0  0  0  0  0  0  0  0  0
  131.7302  129.5295  153.0896 C   0  0  0  0  0  0  0  0  0  0  0  0
  130.9384  130.0215  149.9361 H   0  0  0  0  0  0  0  0  0  0  0  0
  131.8600  128.7837  150.6008 H   0  0  0  0  0  0  0  0  0  0  0  0
  129.9663  131.7795  151.2742 H   0  0  0  0  0  0  0  0  0  0  0  0
  129.6496  132.7502  153.5112 H   0  0  0  0  0  0  0  0  0  0  0  0
  129.6150  130.2099  156.9318 H   0  0  0  0  0  0  0  0  0  0  0  0
  131.3441  135.1363  157.8449 H   0  0  0  0  0  0  0  0  0  0  0  0
  130.0145  133.4885  159.9321 H   0  0  0  0  0  0  0  0  0  0  0  0
  131.0642  133.6605  162.2869 H   0  0  0  0  0  0  0  0  0  0  0  0
  133.2728  134.2693  163.3976 H   0  0  0  0  0  0  0  0  0  0  0  0
  134.8424  135.6183  161.9296 H   0  0  0  0  0  0  0  0  0  0  0  0
  130.7344  137.0231  159.1619 H   0  0  0  0  0  0  0  0  0  0  0  0
  128.3198  137.3635  161.6581 H   0  0  0  0  0  0  0  0  0  0  0  0
  127.0502  136.5397  163.7056 H   0  0  0  0  0  0  0  0  0  0  0  0
  126.9587  134.0139  163.9306 H   0  0  0  0  0  0  0  0  0  0  0  0
  132.0088  129.5993  155.2053 H   0  0  0  0  0  0  0  0  0  0  0  0
  132.3114  128.6276  152.9669 H   0  0  0  0  0  0  0  0  0  0  0  0
  1  2  1  0
  1 30  1  0
  1 31  1  0
  2 29  2  0
  2  3  1  0
  3  4  2  0
  3 32  1  0
  4  5  1  0
  4 33  1  0
  5  6  1  0
  5 28  2  0
  6 26  1  0
  6  7  2  0
  7  8  1  0
  7 34  1  0
  8  9  1  0
  8 10  1  0
 10 11  1  0
 10 26  2  0
 11 12  1  0
 11 35  1  0
 12 13  1  0
 12 18  1  0
 12 36  1  1
 13 17  1  0
 13 14  2  0
 14 15  1  0
 14 37  1  0
 15 16  2  0
 15 38  1  0
 16 17  1  0
 16 39  1  0
 18 19  1  6
 18 20  1  0
 18 21  1  0
 20 40  1  0
 21 25  1  0
 21 22  2  0
 22 23  1  0
 22 41  1  0
 23 24  2  0
 23 42  1  0
 24 25  1  0
 24 43  1  0
 26 27  1  0
 28 29  1  0
 28 44  1  0
 29 45  1  0
M  CHG  1  26   1
M  END
>  <DOCK_score>  (1) 
-61.930763

>  <SMILES>  (1) 
Nc1ccc(-c2c[nH]c(NC(c3cccs3)[C@H](O)c3cccs3)[nH+]2)cc1

$$$$
