O=C1CC[C@H]([NH+]=C(NC2=CCC(=O)N2)NC2CC=CC2)CN1
     RDKit          3D

 44 46  0  0  1  0  0  0  0  0999 V2000
  123.8888  133.7138  161.1213 O   0  0  0  0  0  0  0  0  0  0  0  0
  125.0469  133.9791  160.8775 C   0  0  0  0  0  0  0  0  0  0  0  0
  125.8522  132.9876  160.0876 C   0  0  0  0  0  0  0  0  0  0  0  0
  127.3459  133.2757  160.2537 C   0  0  0  0  0  0  0  0  0  0  0  0
  127.5806  134.7723  160.0158 C   0  0  2  0  0  0  0  0  0  0  0  0
  127.1419  135.0641  159.0617 H   0  0  0  0  0  0  0  0  0  0  0  0
  129.0194  135.0476  159.9999 N   0  0  0  0  0  0  0  0  0  0  0  0
  129.4028  135.6621  160.6450 H   0  0  0  0  0  0  0  0  0  0  0  0
  129.7843  134.4668  159.1189 C   0  0  0  0  0  0  0  0  0  0  0  0
  129.2763  134.1228  157.8861 N   0  0  0  0  0  0  0  0  0  0  0  0
  129.7894  133.0225  157.2037 C   0  0  0  0  0  0  0  0  0  0  0  0
  129.8193  132.9203  155.8813 C   0  0  0  0  0  0  0  0  0  0  0  0
  130.4547  131.5813  155.5677 C   0  0  0  0  0  0  0  0  0  0  0  0
  130.7449  130.9923  156.9336 C   0  0  0  0  0  0  0  0  0  0  0  0
  131.2539  129.9179  157.1732 O   0  0  0  0  0  0  0  0  0  0  0  0
  130.3212  131.9072  157.8272 N   0  0  0  0  0  0  0  0  0  0  0  0
  131.0985  134.1976  159.4205 N   0  0  0  0  0  0  0  0  0  0  0  0
  131.6389  134.5636  160.7320 C   0  0  0  0  0  0  0  0  0  0  0  0
  132.8916  133.7225  161.0707 C   0  0  0  0  0  0  0  0  0  0  0  0
  133.8142  134.6797  161.7889 C   0  0  0  0  0  0  0  0  0  0  0  0
  133.4519  135.9182  161.5925 C   0  0  0  0  0  0  0  0  0  0  0  0
  132.2272  135.9935  160.7107 C   0  0  0  0  0  0  0  0  0  0  0  0
  126.9197  135.5609  161.1470 C   0  0  0  0  0  0  0  0  0  0  0  0
  125.5372  135.1354  161.3255 N   0  0  0  0  0  0  0  0  0  0  0  0
  125.6353  131.9802  160.4427 H   0  0  0  0  0  0  0  0  0  0  0  0
  125.5865  133.0635  159.0332 H   0  0  0  0  0  0  0  0  0  0  0  0
  127.9165  132.6949  159.5289 H   0  0  0  0  0  0  0  0  0  0  0  0
  127.6582  133.0113  161.2640 H   0  0  0  0  0  0  0  0  0  0  0  0
  128.5610  134.6469  157.4929 H   0  0  0  0  0  0  0  0  0  0  0  0
  129.4626  133.6492  155.1686 H   0  0  0  0  0  0  0  0  0  0  0  0
  131.3779  131.7143  155.0039 H   0  0  0  0  0  0  0  0  0  0  0  0
  129.7569  130.9494  155.0185 H   0  0  0  0  0  0  0  0  0  0  0  0
  130.3817  131.7979  158.7892 H   0  0  0  0  0  0  0  0  0  0  0  0
  131.6680  133.7653  158.7648 H   0  0  0  0  0  0  0  0  0  0  0  0
  130.8796  134.4644  161.5077 H   0  0  0  0  0  0  0  0  0  0  0  0
  133.3609  133.3557  160.1579 H   0  0  0  0  0  0  0  0  0  0  0  0
  132.6254  132.8906  161.7227 H   0  0  0  0  0  0  0  0  0  0  0  0
  134.6620  134.3787  162.3865 H   0  0  0  0  0  0  0  0  0  0  0  0
  133.9605  136.7765  162.0063 H   0  0  0  0  0  0  0  0  0  0  0  0
  131.5093  136.7055  161.1178 H   0  0  0  0  0  0  0  0  0  0  0  0
  132.5069  136.2758  159.6957 H   0  0  0  0  0  0  0  0  0  0  0  0
  127.4706  135.3936  162.0725 H   0  0  0  0  0  0  0  0  0  0  0  0
  126.9381  136.6234  160.9040 H   0  0  0  0  0  0  0  0  0  0  0  0
  124.9359  135.7310  161.7997 H   0  0  0  0  0  0  0  0  0  0  0  0
  1  2  2  0
  2 24  1  0
  2  3  1  0
  3  4  1  0
  3 25  1  0
  3 26  1  0
  4  5  1  0
  4 27  1  0
  4 28  1  0
  5  6  1  6
  5  7  1  0
  5 23  1  0
  7  8  1  0
  9  7  2  0
  9 10  1  0
  9 17  1  0
 10 11  1  0
 10 29  1  0
 11 16  1  0
 11 12  2  0
 12 13  1  0
 12 30  1  0
 13 14  1  0
 13 31  1  0
 13 32  1  0
 14 15  2  0
 14 16  1  0
 16 33  1  0
 17 18  1  0
 17 34  1  0
 18 22  1  0
 18 19  1  0
 18 35  1  0
 19 20  1  0
 19 36  1  0
 19 37  1  0
 20 21  2  0
 20 38  1  0
 21 22  1  0
 21 39  1  0
 22 40  1  0
 22 41  1  0
 23 24  1  0
 23 42  1  0
 23 43  1  0
 24 44  1  0
M  CHG  1   7   1
M  END
>  <DOCK_score>  (1) 
-41.680756

>  <SMILES>  (1) 
O=C1CC[C@H]([NH+]=C(NC2=CCC(=O)N2)NC2CC=CC2)CN1

$$$$
