Nc1ccc(-c2ccc(Nc3c[nH]c(N[C@H](Cc4cccc(O)c4)c4ccccc4)[nH+]3)cc2)cc1
     RDKit          3D

 63 67  0  0  1  0  0  0  0  0999 V2000
  137.1418  142.8438  166.4887 N   0  0  0  0  0  0  0  0  0  0  0  0
  136.5528  141.9730  165.5696 C   0  0  0  0  0  0  0  0  0  0  0  0
  136.6218  142.2490  164.2095 C   0  0  0  0  0  0  0  0  0  0  0  0
  136.0367  141.3931  163.3008 C   0  0  0  0  0  0  0  0  0  0  0  0
  135.3840  140.2447  163.7466 C   0  0  0  0  0  0  0  0  0  0  0  0
  134.7585  139.3197  162.7704 C   0  0  0  0  0  0  0  0  0  0  0  0
  133.6401  138.5713  163.1357 C   0  0  0  0  0  0  0  0  0  0  0  0
  133.0574  137.7154  162.2257 C   0  0  0  0  0  0  0  0  0  0  0  0
  133.5901  137.5907  160.9474 C   0  0  0  0  0  0  0  0  0  0  0  0
  133.0014  136.7198  160.0290 N   0  0  0  0  0  0  0  0  0  0  0  0
  132.3450  135.5634  160.4793 C   0  0  0  0  0  0  0  0  0  0  0  0
  132.6527  134.8604  161.5895 C   0  0  0  0  0  0  0  0  0  0  0  0
  131.7601  133.8067  161.6550 N   0  0  0  0  0  0  0  0  0  0  0  0
  131.7240  133.1230  162.3421 H   0  0  0  0  0  0  0  0  0  0  0  0
  130.9456  133.9076  160.5712 C   0  0  0  0  0  0  0  0  0  0  0  0
  129.9108  133.0436  160.2549 N   0  0  0  0  0  0  0  0  0  0  0  0
  129.1086  133.2715  159.0501 C   0  0  2  0  0  0  0  0  0  0  0  0
  128.9219  134.3392  158.9346 H   0  0  0  0  0  0  0  0  0  0  0  0
  127.7757  132.5314  159.1776 C   0  0  0  0  0  0  0  0  0  0  0  0
  126.8343  133.3362  160.0361 C   0  0  0  0  0  0  0  0  0  0  0  0
  126.8093  133.1407  161.4048 C   0  0  0  0  0  0  0  0  0  0  0  0
  125.9475  133.8779  162.1952 C   0  0  0  0  0  0  0  0  0  0  0  0
  125.1086  134.8125  161.6190 C   0  0  0  0  0  0  0  0  0  0  0  0
  125.1313  135.0102  160.2464 C   0  0  0  0  0  0  0  0  0  0  0  0
  124.3076  135.9291  159.6772 O   0  0  0  0  0  0  0  0  0  0  0  0
  126.0010  134.2726  159.4559 C   0  0  0  0  0  0  0  0  0  0  0  0
  129.8548  132.7587  157.8455 C   0  0  0  0  0  0  0  0  0  0  0  0
  129.6658  133.3520  156.6113 C   0  0  0  0  0  0  0  0  0  0  0  0
  130.3533  132.8842  155.5070 C   0  0  0  0  0  0  0  0  0  0  0  0
  131.2235  131.8177  155.6353 C   0  0  0  0  0  0  0  0  0  0  0  0
  131.4085  131.2212  156.8685 C   0  0  0  0  0  0  0  0  0  0  0  0
  130.7240  131.6915  157.9735 C   0  0  0  0  0  0  0  0  0  0  0  0
  131.3039  134.9610  159.8751 N   0  0  0  0  0  0  0  0  0  0  0  0
  130.8835  135.2592  159.0534 H   0  0  0  0  0  0  0  0  0  0  0  0
  134.7081  138.3325  160.5827 C   0  0  0  0  0  0  0  0  0  0  0  0
  135.2908  139.1932  161.4882 C   0  0  0  0  0  0  0  0  0  0  0  0
  135.3156  139.9698  165.1117 C   0  0  0  0  0  0  0  0  0  0  0  0
  135.8976  140.8313  166.0172 C   0  0  0  0  0  0  0  0  0  0  0  0
  137.5987  143.6405  166.1777 H   0  0  0  0  0  0  0  0  0  0  0  0
  137.0933  142.6519  167.4386 H   0  0  0  0  0  0  0  0  0  0  0  0
  137.1307  143.1369  163.8643 H   0  0  0  0  0  0  0  0  0  0  0  0
  136.0871  141.6102  162.2440 H   0  0  0  0  0  0  0  0  0  0  0  0
  133.2285  138.6647  164.1299 H   0  0  0  0  0  0  0  0  0  0  0  0
  132.1889  137.1385  162.5070 H   0  0  0  0  0  0  0  0  0  0  0  0
  133.0459  136.9137  159.0796 H   0  0  0  0  0  0  0  0  0  0  0  0
  133.4426  135.0798  162.2924 H   0  0  0  0  0  0  0  0  0  0  0  0
  129.7169  132.2876  160.8307 H   0  0  0  0  0  0  0  0  0  0  0  0
  127.3391  132.3961  158.1879 H   0  0  0  0  0  0  0  0  0  0  0  0
  127.9434  131.5572  159.6370 H   0  0  0  0  0  0  0  0  0  0  0  0
  127.4645  132.4109  161.8572 H   0  0  0  0  0  0  0  0  0  0  0  0
  125.9301  133.7236  163.2640 H   0  0  0  0  0  0  0  0  0  0  0  0
  124.4354  135.3883  162.2369 H   0  0  0  0  0  0  0  0  0  0  0  0
  123.7425  136.3954  160.3084 H   0  0  0  0  0  0  0  0  0  0  0  0
  126.0241  134.4282  158.3873 H   0  0  0  0  0  0  0  0  0  0  0  0
  128.9834  134.1830  156.5104 H   0  0  0  0  0  0  0  0  0  0  0  0
  130.2085  133.3501  154.5435 H   0  0  0  0  0  0  0  0  0  0  0  0
  131.7586  131.4506  154.7721 H   0  0  0  0  0  0  0  0  0  0  0  0
  132.0881  130.3878  156.9687 H   0  0  0  0  0  0  0  0  0  0  0  0
  130.8685  131.2254  158.9370 H   0  0  0  0  0  0  0  0  0  0  0  0
  135.1203  138.2342  159.5893 H   0  0  0  0  0  0  0  0  0  0  0  0
  136.1592  139.7692  161.2045 H   0  0  0  0  0  0  0  0  0  0  0  0
  134.8074  139.0826  165.4594 H   0  0  0  0  0  0  0  0  0  0  0  0
  135.8446  140.6189  167.0748 H   0  0  0  0  0  0  0  0  0  0  0  0
  1  2  1  0
  1 39  1  0
  1 40  1  0
  2 38  2  0
  2  3  1  0
  3  4  2  0
  3 41  1  0
  4  5  1  0
  4 42  1  0
  5  6  1  0
  5 37  2  0
  6 36  1  0
  6  7  2  0
  7  8  1  0
  7 43  1  0
  8  9  2  0
  8 44  1  0
  9 10  1  0
  9 35  1  0
 10 11  1  0
 10 45  1  0
 11 33  1  0
 11 12  2  0
 12 13  1  0
 12 46  1  0
 13 14  1  0
 13 15  1  0
 15 16  1  0
 15 33  2  0
 16 17  1  0
 16 47  1  0
 17 18  1  6
 17 19  1  0
 17 27  1  0
 19 20  1  0
 19 48  1  0
 19 49  1  0
 20 26  1  0
 20 21  2  0
 21 22  1  0
 21 50  1  0
 22 23  2  0
 22 51  1  0
 23 24  1  0
 23 52  1  0
 24 25  1  0
 24 26  2  0
 25 53  1  0
 26 54  1  0
 27 32  1  0
 27 28  2  0
 28 29  1  0
 28 55  1  0
 29 30  2  0
 29 56  1  0
 30 31  1  0
 30 57  1  0
 31 32  2  0
 31 58  1  0
 32 59  1  0
 33 34  1  0
 35 36  2  0
 35 60  1  0
 36 61  1  0
 37 38  1  0
 37 62  1  0
 38 63  1  0
M  CHG  1  33   1
M  END
>  <DOCK_score>  (1) 
-56.099937

>  <SMILES>  (1) 
Nc1ccc(-c2ccc(Nc3c[nH]c(N[C@H](Cc4cccc(O)c4)c4ccccc4)[nH+]3)cc2)cc1

$$$$
