COC[C@@H]1C[C@H]1[NH+]=C(N[C@@H]1CC=C(CC2CCC(=O)NC2)C1)N[C@H]1CCC(=O)NC1
     RDKit          3D

 66 69  0  0  1  0  0  0  0  0999 V2000
  130.9290  131.0013  156.5461 C   0  0  0  0  0  0  0  0  0  0  0  0
  130.3048  131.8315  157.5276 O   0  0  0  0  0  0  0  0  0  0  0  0
  129.6500  132.9804  156.9856 C   0  0  0  0  0  0  0  0  0  0  0  0
  129.0209  133.7913  158.1202 C   0  0  2  0  0  0  0  0  0  0  0  0
  128.2749  133.2659  158.7165 H   0  0  0  0  0  0  0  0  0  0  0  0
  128.8112  135.2888  157.8861 C   0  0  0  0  0  0  0  0  0  0  0  0
  129.9094  134.8096  158.8377 C   0  0  1  0  0  0  0  0  0  0  0  0
  130.9422  134.9020  158.5016 H   0  0  0  0  0  0  0  0  0  0  0  0
  129.6924  135.0036  160.2735 N   0  0  0  0  0  0  0  0  0  0  0  0
  129.0059  134.4954  160.7333 H   0  0  0  0  0  0  0  0  0  0  0  0
  130.4219  135.8589  160.9331 C   0  0  0  0  0  0  0  0  0  0  0  0
  131.3949  136.5791  160.2813 N   0  0  0  0  0  0  0  0  0  0  0  0
  132.2149  137.5405  161.0227 C   0  0  2  0  0  0  0  0  0  0  0  0
  131.6586  137.9635  161.8593 H   0  0  0  0  0  0  0  0  0  0  0  0
  132.7454  138.6535  160.0894 C   0  0  0  0  0  0  0  0  0  0  0  0
  134.1426  138.9396  160.5886 C   0  0  0  0  0  0  0  0  0  0  0  0
  134.5721  137.9785  161.3602 C   0  0  0  0  0  0  0  0  0  0  0  0
  135.9266  137.9559  162.0204 C   0  0  0  0  0  0  0  0  0  0  0  0
  135.7528  137.8980  163.5393 C   0  0  1  0  0  0  0  0  0  0  0  0
  137.0507  137.4007  164.1871 C   0  0  0  0  0  0  0  0  0  0  0  0
  136.7924  137.1786  165.6794 C   0  0  0  0  0  0  0  0  0  0  0  0
  136.1108  138.3828  166.2629 C   0  0  0  0  0  0  0  0  0  0  0  0
  136.1212  138.5204  167.4679 O   0  0  0  0  0  0  0  0  0  0  0  0
  135.4950  139.3092  165.5306 N   0  0  0  0  0  0  0  0  0  0  0  0
  135.4434  139.2968  164.0739 C   0  0  0  0  0  0  0  0  0  0  0  0
  133.5352  136.8881  161.4994 C   0  0  0  0  0  0  0  0  0  0  0  0
  130.2184  136.0410  162.2806 N   0  0  0  0  0  0  0  0  0  0  0  0
  128.8838  135.8461  162.8528 C   0  0  1  0  0  0  0  0  0  0  0  0
  128.5556  134.8221  162.6744 H   0  0  0  0  0  0  0  0  0  0  0  0
  128.9262  136.1173  164.3614 C   0  0  0  0  0  0  0  0  0  0  0  0
  127.5717  135.7312  164.9605 C   0  0  0  0  0  0  0  0  0  0  0  0
  126.4628  136.3401  164.1513 C   0  0  0  0  0  0  0  0  0  0  0  0
  125.3604  136.4134  164.6517 O   0  0  0  0  0  0  0  0  0  0  0  0
  126.6254  136.8047  162.9119 N   0  0  0  0  0  0  0  0  0  0  0  0
  127.9009  136.8234  162.2068 C   0  0  0  0  0  0  0  0  0  0  0  0
  130.1774  130.6417  155.8433 H   0  0  0  0  0  0  0  0  0  0  0  0
  131.6825  131.5775  156.0089 H   0  0  0  0  0  0  0  0  0  0  0  0
  131.4032  130.1517  157.0373 H   0  0  0  0  0  0  0  0  0  0  0  0
  128.8720  132.6617  156.2920 H   0  0  0  0  0  0  0  0  0  0  0  0
  130.3770  133.5975  156.4577 H   0  0  0  0  0  0  0  0  0  0  0  0
  127.9274  135.7484  158.3285 H   0  0  0  0  0  0  0  0  0  0  0  0
  129.1215  135.6964  156.9241 H   0  0  0  0  0  0  0  0  0  0  0  0
  131.5384  136.4508  159.3307 H   0  0  0  0  0  0  0  0  0  0  0  0
  132.1235  139.5450  160.1698 H   0  0  0  0  0  0  0  0  0  0  0  0
  132.7752  138.3021  159.0581 H   0  0  0  0  0  0  0  0  0  0  0  0
  134.7111  139.8236  160.3401 H   0  0  0  0  0  0  0  0  0  0  0  0
  136.4767  138.8578  161.7517 H   0  0  0  0  0  0  0  0  0  0  0  0
  136.4801  137.0791  161.6843 H   0  0  0  0  0  0  0  0  0  0  0  0
  134.9366  137.2199  163.7883 H   0  0  0  0  0  0  0  0  0  0  0  0
  137.8349  138.1467  164.0574 H   0  0  0  0  0  0  0  0  0  0  0  0
  137.3559  136.4624  163.7239 H   0  0  0  0  0  0  0  0  0  0  0  0
  136.1561  136.3035  165.8104 H   0  0  0  0  0  0  0  0  0  0  0  0
  137.7412  137.0163  166.1908 H   0  0  0  0  0  0  0  0  0  0  0  0
  135.0532  140.0373  165.9950 H   0  0  0  0  0  0  0  0  0  0  0  0
  136.1756  140.0026  163.6816 H   0  0  0  0  0  0  0  0  0  0  0  0
  134.4464  139.5943  163.7493 H   0  0  0  0  0  0  0  0  0  0  0  0
  133.7914  136.0377  160.8675 H   0  0  0  0  0  0  0  0  0  0  0  0
  133.4493  136.5764  162.5403 H   0  0  0  0  0  0  0  0  0  0  0  0
  130.9583  136.2986  162.8525 H   0  0  0  0  0  0  0  0  0  0  0  0
  129.7141  135.5195  164.8197 H   0  0  0  0  0  0  0  0  0  0  0  0
  129.1178  137.1756  164.5386 H   0  0  0  0  0  0  0  0  0  0  0  0
  127.4696  134.6461  164.9559 H   0  0  0  0  0  0  0  0  0  0  0  0
  127.5121  136.0961  165.9860 H   0  0  0  0  0  0  0  0  0  0  0  0
  125.8459  137.1519  162.4505 H   0  0  0  0  0  0  0  0  0  0  0  0
  128.3177  137.8300  162.2429 H   0  0  0  0  0  0  0  0  0  0  0  0
  127.7418  136.5397  161.1664 H   0  0  0  0  0  0  0  0  0  0  0  0
  1  2  1  0
  1 36  1  0
  1 37  1  0
  1 38  1  0
  2  3  1  0
  3  4  1  0
  3 39  1  0
  3 40  1  0
  4  5  1  1
  4  7  1  0
  4  6  1  0
  6  7  1  0
  6 41  1  0
  6 42  1  0
  7  8  1  6
  7  9  1  0
  9 10  1  0
 11  9  2  0
 11 12  1  0
 11 27  1  0
 12 13  1  0
 12 43  1  0
 13 14  1  1
 13 26  1  0
 13 15  1  0
 15 16  1  0
 15 44  1  0
 15 45  1  0
 16 17  2  0
 16 46  1  0
 17 18  1  0
 17 26  1  0
 18 19  1  0
 18 47  1  0
 18 48  1  0
 19 25  1  0
 19 20  1  0
 19 49  1  6
 20 21  1  0
 20 50  1  0
 20 51  1  0
 21 22  1  0
 21 52  1  0
 21 53  1  0
 22 23  2  0
 22 24  1  0
 24 25  1  0
 24 54  1  0
 25 55  1  0
 25 56  1  0
 26 57  1  0
 26 58  1  0
 27 28  1  0
 27 59  1  0
 28 29  1  1
 28 35  1  0
 28 30  1  0
 30 31  1  0
 30 60  1  0
 30 61  1  0
 31 32  1  0
 31 62  1  0
 31 63  1  0
 32 33  2  0
 32 34  1  0
 34 35  1  0
 34 64  1  0
 35 65  1  0
 35 66  1  0
M  CHG  1   9   1
M  END
>  <DOCK_score>  (1) 
-43.61298

>  <SMILES>  (1) 
COC[C@@H]1C[C@H]1[NH+]=C(N[C@@H]1CC=C(CC2CCC(=O)NC2)C1)N[C@H]1CCC(=O)NC1

$$$$
