CC(O)[C@@H](C)Nc1cc(Cl)c(Nc2[nH]cc(-c3ccc(N)cc3)[nH+]2)c(F)c1N
     RDKit          3D

 51 53  0  0  1  0  0  0  0  0999 V2000
  126.8682  139.3753  163.3577 C   0  0  0  0  0  0  0  0  0  0  0  0
  126.5420  138.4695  164.5469 C   0  0  2  0  0  0  0  0  0  0  0  0
  127.3399  138.8512  165.6693 O   0  0  0  0  0  0  0  0  0  0  0  0
  126.8431  137.0155  164.1781 C   0  0  1  0  0  0  0  0  0  0  0  0
  127.9133  136.8312  164.2706 H   0  0  0  0  0  0  0  0  0  0  0  0
  126.0815  136.0820  165.1212 C   0  0  0  0  0  0  0  0  0  0  0  0
  126.4219  136.7646  162.7975 N   0  0  0  0  0  0  0  0  0  0  0  0
  127.3622  136.3533  161.8410 C   0  0  0  0  0  0  0  0  0  0  0  0
  128.6865  136.7493  161.9551 C   0  0  0  0  0  0  0  0  0  0  0  0
  129.6136  136.3487  161.0100 C   0  0  0  0  0  0  0  0  0  0  0  0
  131.2688  136.8523  161.1523 Cl  0  0  0  0  0  0  0  0  0  0  0  0
  129.2224  135.5447  159.9470 C   0  0  0  0  0  0  0  0  0  0  0  0
  130.1646  135.1401  158.9900 N   0  0  0  0  0  0  0  0  0  0  0  0
  130.0098  133.9303  158.3344 C   0  0  0  0  0  0  0  0  0  0  0  0
  129.4046  132.8233  158.8453 N   0  0  0  0  0  0  0  0  0  0  0  0
  129.0077  132.7404  159.7265 H   0  0  0  0  0  0  0  0  0  0  0  0
  129.4602  131.8446  157.8819 C   0  0  0  0  0  0  0  0  0  0  0  0
  130.0970  132.3816  156.8118 C   0  0  0  0  0  0  0  0  0  0  0  0
  130.3869  131.6906  155.5314 C   0  0  0  0  0  0  0  0  0  0  0  0
  129.8665  132.1867  154.3372 C   0  0  0  0  0  0  0  0  0  0  0  0
  130.1413  131.5455  153.1476 C   0  0  0  0  0  0  0  0  0  0  0  0
  130.9274  130.4001  153.1399 C   0  0  0  0  0  0  0  0  0  0  0  0
  131.2003  129.7495  151.9342 N   0  0  0  0  0  0  0  0  0  0  0  0
  131.4432  129.9002  154.3303 C   0  0  0  0  0  0  0  0  0  0  0  0
  131.1754  130.5411  155.5215 C   0  0  0  0  0  0  0  0  0  0  0  0
  130.4171  133.6636  157.1170 N   0  0  0  0  0  0  0  0  0  0  0  0
  130.8761  134.2839  156.5292 H   0  0  0  0  0  0  0  0  0  0  0  0
  127.8976  135.1415  159.8311 C   0  0  0  0  0  0  0  0  0  0  0  0
  127.5165  134.3602  158.7969 F   0  0  0  0  0  0  0  0  0  0  0  0
  126.9668  135.5425  160.7786 C   0  0  0  0  0  0  0  0  0  0  0  0
  125.6287  135.1377  160.6641 N   0  0  0  0  0  0  0  0  0  0  0  0
  126.2596  139.0842  162.5015 H   0  0  0  0  0  0  0  0  0  0  0  0
  126.6536  140.4112  163.6205 H   0  0  0  0  0  0  0  0  0  0  0  0
  127.9236  139.2759  163.1039 H   0  0  0  0  0  0  0  0  0  0  0  0
  125.4867  138.5690  164.8006 H   0  0  0  0  0  0  0  0  0  0  0  0
  128.2923  138.7875  165.5147 H   0  0  0  0  0  0  0  0  0  0  0  0
  126.2959  135.0460  164.8583 H   0  0  0  0  0  0  0  0  0  0  0  0
  126.3948  136.2685  166.1483 H   0  0  0  0  0  0  0  0  0  0  0  0
  125.0111  136.2663  165.0286 H   0  0  0  0  0  0  0  0  0  0  0  0
  125.4930  136.8832  162.5448 H   0  0  0  0  0  0  0  0  0  0  0  0
  128.9934  137.3740  162.7807 H   0  0  0  0  0  0  0  0  0  0  0  0
  130.9245  135.7078  158.7874 H   0  0  0  0  0  0  0  0  0  0  0  0
  129.0709  130.8403  157.9616 H   0  0  0  0  0  0  0  0  0  0  0  0
  129.2517  133.0747  154.3430 H   0  0  0  0  0  0  0  0  0  0  0  0
  129.7420  131.9322  152.2216 H   0  0  0  0  0  0  0  0  0  0  0  0
  131.7496  128.9493  151.9283 H   0  0  0  0  0  0  0  0  0  0  0  0
  130.8412  130.0969  151.1033 H   0  0  0  0  0  0  0  0  0  0  0  0
  132.0536  129.0095  154.3221 H   0  0  0  0  0  0  0  0  0  0  0  0
  131.5765  130.1530  156.4460 H   0  0  0  0  0  0  0  0  0  0  0  0
  125.3536  134.5768  159.9222 H   0  0  0  0  0  0  0  0  0  0  0  0
  124.9786  135.4186  161.3269 H   0  0  0  0  0  0  0  0  0  0  0  0
  1  2  1  0
  1 32  1  0
  1 33  1  0
  1 34  1  0
  2  3  1  0
  2  4  1  0
  2 35  1  1
  3 36  1  0
  4  5  1  6
  4  6  1  0
  4  7  1  0
  6 37  1  0
  6 38  1  0
  6 39  1  0
  7  8  1  0
  7 40  1  0
  8 30  2  0
  8  9  1  0
  9 10  2  0
  9 41  1  0
 10 11  1  0
 10 12  1  0
 12 13  1  0
 12 28  2  0
 13 42  1  0
 14 13  1  0
 14 26  2  0
 14 15  1  0
 15 16  1  0
 15 17  1  0
 17 18  2  0
 17 43  1  0
 18 19  1  0
 18 26  1  0
 19 25  1  0
 19 20  2  0
 20 21  1  0
 20 44  1  0
 21 22  2  0
 21 45  1  0
 22 23  1  0
 22 24  1  0
 23 46  1  0
 23 47  1  0
 24 25  2  0
 24 48  1  0
 25 49  1  0
 26 27  1  0
 28 29  1  0
 28 30  1  0
 30 31  1  0
 31 50  1  0
 31 51  1  0
M  CHG  1  26   1
M  END
>  <DOCK_score>  (1) 
-58.710438

>  <SMILES>  (1) 
CC(O)[C@@H](C)Nc1cc(Cl)c(Nc2[nH]cc(-c3ccc(N)cc3)[nH+]2)c(F)c1N

$$$$
