CCc1ccc(-c2c[nH]c(N[C@@H](Cc3ccccc3OC(C)C)c3ccccc3)[nH+]2)cc1
     RDKit          3D

 64 67  0  0  1  0  0  0  0  0999 V2000
  130.4684  128.9031  151.6570 C   0  0  0  0  0  0  0  0  0  0  0  0
  131.7057  129.6355  152.1799 C   0  0  0  0  0  0  0  0  0  0  0  0
  131.3588  130.3607  153.4547 C   0  0  0  0  0  0  0  0  0  0  0  0
  131.5061  129.7218  154.6728 C   0  0  0  0  0  0  0  0  0  0  0  0
  131.1954  130.3830  155.8437 C   0  0  0  0  0  0  0  0  0  0  0  0
  130.7214  131.6928  155.7965 C   0  0  0  0  0  0  0  0  0  0  0  0
  130.3803  132.4066  157.0513 C   0  0  0  0  0  0  0  0  0  0  0  0
  129.9349  131.8362  158.1981 C   0  0  0  0  0  0  0  0  0  0  0  0
  129.7444  132.8534  159.1015 N   0  0  0  0  0  0  0  0  0  0  0  0
  129.4296  132.7597  160.0141 H   0  0  0  0  0  0  0  0  0  0  0  0
  130.0792  134.0167  158.4796 C   0  0  0  0  0  0  0  0  0  0  0  0
  130.0276  135.2783  159.0473 N   0  0  0  0  0  0  0  0  0  0  0  0
  129.5822  135.4402  160.4336 C   0  0  1  0  0  0  0  0  0  0  0  0
  129.9908  134.6339  161.0429 H   0  0  0  0  0  0  0  0  0  0  0  0
  130.0721  136.7855  160.9729 C   0  0  0  0  0  0  0  0  0  0  0  0
  131.5176  136.6663  161.3823 C   0  0  0  0  0  0  0  0  0  0  0  0
  132.5192  136.9246  160.4662 C   0  0  0  0  0  0  0  0  0  0  0  0
  133.8453  136.8206  160.8426 C   0  0  0  0  0  0  0  0  0  0  0  0
  134.1730  136.4468  162.1329 C   0  0  0  0  0  0  0  0  0  0  0  0
  133.1754  136.1823  163.0510 C   0  0  0  0  0  0  0  0  0  0  0  0
  131.8436  136.2915  162.6773 C   0  0  0  0  0  0  0  0  0  0  0  0
  130.8603  136.0323  163.5789 O   0  0  0  0  0  0  0  0  0  0  0  0
  130.8319  136.8394  164.7579 C   0  0  0  0  0  0  0  0  0  0  0  0
  129.4975  137.5839  164.8342 C   0  0  0  0  0  0  0  0  0  0  0  0
  130.9894  135.9471  165.9906 C   0  0  0  0  0  0  0  0  0  0  0  0
  128.0769  135.3960  160.4859 C   0  0  0  0  0  0  0  0  0  0  0  0
  127.4383  134.9093  161.6112 C   0  0  0  0  0  0  0  0  0  0  0  0
  126.0574  134.8730  161.6609 C   0  0  0  0  0  0  0  0  0  0  0  0
  125.3150  135.3148  160.5817 C   0  0  0  0  0  0  0  0  0  0  0  0
  125.9535  135.7966  159.4543 C   0  0  0  0  0  0  0  0  0  0  0  0
  127.3345  135.8370  159.4064 C   0  0  0  0  0  0  0  0  0  0  0  0
  130.4644  133.7451  157.2566 N   0  0  0  0  0  0  0  0  0  0  0  0
  130.7598  134.3970  156.6021 H   0  0  0  0  0  0  0  0  0  0  0  0
  130.5694  132.3295  154.5660 C   0  0  0  0  0  0  0  0  0  0  0  0
  130.8887  131.6607  153.4019 C   0  0  0  0  0  0  0  0  0  0  0  0
  130.1293  128.1844  152.4030 H   0  0  0  0  0  0  0  0  0  0  0  0
  129.6751  129.6244  151.4604 H   0  0  0  0  0  0  0  0  0  0  0  0
  130.7192  128.3787  150.7349 H   0  0  0  0  0  0  0  0  0  0  0  0
  132.4989  128.9144  152.3765 H   0  0  0  0  0  0  0  0  0  0  0  0
  132.0448  130.3544  151.4339 H   0  0  0  0  0  0  0  0  0  0  0  0
  131.8691  128.7052  154.7078 H   0  0  0  0  0  0  0  0  0  0  0  0
  131.3154  129.8849  156.7945 H   0  0  0  0  0  0  0  0  0  0  0  0
  129.7626  130.7837  158.3684 H   0  0  0  0  0  0  0  0  0  0  0  0
  130.2862  136.0551  158.5271 H   0  0  0  0  0  0  0  0  0  0  0  0
  129.9758  137.5449  160.1969 H   0  0  0  0  0  0  0  0  0  0  0  0
  129.4721  137.0708  161.8370 H   0  0  0  0  0  0  0  0  0  0  0  0
  132.2659  137.2124  159.4565 H   0  0  0  0  0  0  0  0  0  0  0  0
  134.6267  137.0276  160.1263 H   0  0  0  0  0  0  0  0  0  0  0  0
  135.2097  136.3618  162.4233 H   0  0  0  0  0  0  0  0  0  0  0  0
  133.4319  135.8903  164.0586 H   0  0  0  0  0  0  0  0  0  0  0  0
  131.6487  137.5604  164.7244 H   0  0  0  0  0  0  0  0  0  0  0  0
  128.6806  136.8630  164.8676 H   0  0  0  0  0  0  0  0  0  0  0  0
  129.4757  138.1995  165.7334 H   0  0  0  0  0  0  0  0  0  0  0  0
  129.3853  138.2196  163.9558 H   0  0  0  0  0  0  0  0  0  0  0  0
  130.1725  135.2261  166.0241 H   0  0  0  0  0  0  0  0  0  0  0  0
  131.9401  135.4167  165.9362 H   0  0  0  0  0  0  0  0  0  0  0  0
  130.9677  136.5627  166.8900 H   0  0  0  0  0  0  0  0  0  0  0  0
  128.0185  134.5607  162.4528 H   0  0  0  0  0  0  0  0  0  0  0  0
  125.5584  134.4968  162.5419 H   0  0  0  0  0  0  0  0  0  0  0  0
  124.2361  135.2839  160.6195 H   0  0  0  0  0  0  0  0  0  0  0  0
  125.3735  136.1418  158.6114 H   0  0  0  0  0  0  0  0  0  0  0  0
  127.8334  136.2135  158.5256 H   0  0  0  0  0  0  0  0  0  0  0  0
  130.2022  133.3442  154.5237 H   0  0  0  0  0  0  0  0  0  0  0  0
  130.7711  132.1529  152.4478 H   0  0  0  0  0  0  0  0  0  0  0  0
  1  2  1  0
  1 36  1  0
  1 37  1  0
  1 38  1  0
  2  3  1  0
  2 39  1  0
  2 40  1  0
  3 35  2  0
  3  4  1  0
  4  5  2  0
  4 41  1  0
  5  6  1  0
  5 42  1  0
  6  7  1  0
  6 34  2  0
  7 32  1  0
  7  8  2  0
  8  9  1  0
  8 43  1  0
  9 10  1  0
  9 11  1  0
 11 12  1  0
 11 32  2  0
 12 13  1  0
 12 44  1  0
 13 14  1  1
 13 15  1  0
 13 26  1  0
 15 16  1  0
 15 45  1  0
 15 46  1  0
 16 21  1  0
 16 17  2  0
 17 18  1  0
 17 47  1  0
 18 19  2  0
 18 48  1  0
 19 20  1  0
 19 49  1  0
 20 21  2  0
 20 50  1  0
 21 22  1  0
 22 23  1  0
 23 24  1  0
 23 25  1  0
 23 51  1  0
 24 52  1  0
 24 53  1  0
 24 54  1  0
 25 55  1  0
 25 56  1  0
 25 57  1  0
 26 31  1  0
 26 27  2  0
 27 28  1  0
 27 58  1  0
 28 29  2  0
 28 59  1  0
 29 30  1  0
 29 60  1  0
 30 31  2  0
 30 61  1  0
 31 62  1  0
 32 33  1  0
 34 35  1  0
 34 63  1  0
 35 64  1  0
M  CHG  1  32   1
M  END
>  <DOCK_score>  (1) 
-58.294201

>  <SMILES>  (1) 
CCc1ccc(-c2c[nH]c(N[C@@H](Cc3ccccc3OC(C)C)c3ccccc3)[nH+]2)cc1

$$$$
