N[C@H]1C[C@H]1NC(N[C@H]1CCC(=O)NC1)=[NH+][C@@H]1C=C[C@@H](O)[C@H]1O
     RDKit          3D

 46 48  0  0  1  0  0  0  0  0999 V2000
  133.7027  137.7730  159.4948 N   0  0  0  0  0  0  0  0  0  0  0  0
  133.6791  137.1670  160.8328 C   0  0  1  0  0  0  0  0  0  0  0  0
  134.6376  136.7996  161.1996 H   0  0  0  0  0  0  0  0  0  0  0  0
  132.7087  137.7565  161.8585 C   0  0  0  0  0  0  0  0  0  0  0  0
  132.4241  136.3892  161.2340 C   0  0  1  0  0  0  0  0  0  0  0  0
  132.5569  135.5101  161.8645 H   0  0  0  0  0  0  0  0  0  0  0  0
  131.3380  136.3058  160.2544 N   0  0  0  0  0  0  0  0  0  0  0  0
  130.0346  136.2047  160.6799 C   0  0  0  0  0  0  0  0  0  0  0  0
  129.6552  136.7718  161.8735 N   0  0  0  0  0  0  0  0  0  0  0  0
  128.5655  136.1787  162.6525 C   0  0  1  0  0  0  0  0  0  0  0  0
  128.5334  135.1035  162.4767 H   0  0  0  0  0  0  0  0  0  0  0  0
  128.7931  136.4496  164.1446 C   0  0  0  0  0  0  0  0  0  0  0  0
  127.7468  135.6685  164.9433 C   0  0  0  0  0  0  0  0  0  0  0  0
  126.3804  135.9099  164.3688 C   0  0  0  0  0  0  0  0  0  0  0  0
  125.4150  135.6432  165.0526 O   0  0  0  0  0  0  0  0  0  0  0  0
  126.1721  136.4022  163.1471 N   0  0  0  0  0  0  0  0  0  0  0  0
  127.2357  136.8096  162.2377 C   0  0  0  0  0  0  0  0  0  0  0  0
  129.1586  135.5713  159.9517 N   0  0  0  0  0  0  0  0  0  0  0  0
  128.2391  135.4999  160.2518 H   0  0  0  0  0  0  0  0  0  0  0  0
  129.5630  134.9669  158.6799 C   0  0  2  0  0  0  0  0  0  0  0  0
  129.9500  135.7294  158.0040 H   0  0  0  0  0  0  0  0  0  0  0  0
  128.3977  134.2420  158.0476 C   0  0  0  0  0  0  0  0  0  0  0  0
  128.4964  132.9521  158.2216 C   0  0  0  0  0  0  0  0  0  0  0  0
  129.7438  132.6017  158.9989 C   0  0  1  0  0  0  0  0  0  0  0  0
  129.4944  132.3775  160.0361 H   0  0  0  0  0  0  0  0  0  0  0  0
  130.4113  131.4919  158.3950 O   0  0  0  0  0  0  0  0  0  0  0  0
  130.6257  133.8693  158.9189 C   0  0  1  0  0  0  0  0  0  0  0  0
  131.1568  134.0362  159.8560 H   0  0  0  0  0  0  0  0  0  0  0  0
  131.5387  133.7916  157.8222 O   0  0  0  0  0  0  0  0  0  0  0  0
  134.5716  138.2597  159.3338 H   0  0  0  0  0  0  0  0  0  0  0  0
  133.5391  137.0793  158.7807 H   0  0  0  0  0  0  0  0  0  0  0  0
  132.0880  138.5941  161.5404 H   0  0  0  0  0  0  0  0  0  0  0  0
  133.0289  137.7774  162.9002 H   0  0  0  0  0  0  0  0  0  0  0  0
  131.5382  136.3259  159.3054 H   0  0  0  0  0  0  0  0  0  0  0  0
  130.1089  137.5647  162.1997 H   0  0  0  0  0  0  0  0  0  0  0  0
  129.7927  136.1206  164.4290 H   0  0  0  0  0  0  0  0  0  0  0  0
  128.6872  137.5159  164.3444 H   0  0  0  0  0  0  0  0  0  0  0  0
  127.9763  134.6039  164.8966 H   0  0  0  0  0  0  0  0  0  0  0  0
  127.7646  135.9973  165.9823 H   0  0  0  0  0  0  0  0  0  0  0  0
  125.2551  136.4951  162.8447 H   0  0  0  0  0  0  0  0  0  0  0  0
  127.3303  137.8954  162.2574 H   0  0  0  0  0  0  0  0  0  0  0  0
  126.9860  136.4912  161.2256 H   0  0  0  0  0  0  0  0  0  0  0  0
  127.5893  134.7274  157.5210 H   0  0  0  0  0  0  0  0  0  0  0  0
  127.7801  132.2301  157.8579 H   0  0  0  0  0  0  0  0  0  0  0  0
  130.6249  131.6221  157.4609 H   0  0  0  0  0  0  0  0  0  0  0  0
  132.0265  134.6102  157.6579 H   0  0  0  0  0  0  0  0  0  0  0  0
  1  2  1  0
  1 30  1  0
  1 31  1  0
  2  3  1  1
  2  5  1  0
  2  4  1  0
  4  5  1  0
  4 32  1  0
  4 33  1  0
  5  6  1  1
  5  7  1  0
  7 34  1  0
  8  7  1  0
  8  9  1  0
  8 18  2  0
  9 10  1  0
  9 35  1  0
 10 11  1  1
 10 17  1  0
 10 12  1  0
 12 13  1  0
 12 36  1  0
 12 37  1  0
 13 14  1  0
 13 38  1  0
 13 39  1  0
 14 15  2  0
 14 16  1  0
 16 17  1  0
 16 40  1  0
 17 41  1  0
 17 42  1  0
 18 19  1  0
 18 20  1  0
 20 21  1  6
 20 27  1  0
 20 22  1  0
 22 23  2  0
 22 43  1  0
 23 24  1  0
 23 44  1  0
 24 25  1  1
 24 26  1  0
 24 27  1  0
 26 45  1  0
 27 28  1  1
 27 29  1  0
 29 46  1  0
M  CHG  1  18   1
M  END
>  <DOCK_score>  (1) 
-42.664165

>  <SMILES>  (1) 
N[C@H]1C[C@H]1NC(N[C@H]1CCC(=O)NC1)=[NH+][C@@H]1C=C[C@@H](O)[C@H]1O

$$$$
