O=C(CC(=O)NC12CCC([NH2+]C3=CCC3)(CC1)CC2)Nc1cccc(Cl)c1
     RDKit          3D

 54 57  0  0  1  0  0  0  0  0999 V2000
  126.4116  136.9862  165.4857 O   0  0  0  0  0  0  0  0  0  0  0  0
  125.8889  136.7261  164.4225 C   0  0  0  0  0  0  0  0  0  0  0  0
  125.8154  135.2975  163.9484 C   0  0  0  0  0  0  0  0  0  0  0  0
  126.5422  135.1662  162.6348 C   0  0  0  0  0  0  0  0  0  0  0  0
  125.9444  135.3296  161.5922 O   0  0  0  0  0  0  0  0  0  0  0  0
  127.8562  134.8671  162.6185 N   0  0  0  0  0  0  0  0  0  0  0  0
  128.5626  134.7393  161.3415 C   0  0  2  0  0  0  0  0  0  0  0  0
  128.4751  136.0610  160.5757 C   0  0  0  0  0  0  0  0  0  0  0  0
  129.2130  135.9274  159.2420 C   0  0  0  0  0  0  0  0  0  0  0  0
  129.7925  134.5168  159.1188 C   0  0  2  0  0  0  0  0  0  0  0  0
  130.5009  134.3887  157.8383 N   0  0  0  0  0  0  0  0  0  0  0  0
  129.9780  134.8605  157.1159 H   0  0  0  0  0  0  0  0  0  0  0  0
  131.4165  134.8052  157.9174 H   0  0  0  0  0  0  0  0  0  0  0  0
  130.6311  133.0357  157.5112 C   0  0  0  0  0  0  0  0  0  0  0  0
  131.5248  132.1049  157.7432 C   0  0  0  0  0  0  0  0  0  0  0  0
  130.8557  130.9611  157.0239 C   0  0  0  0  0  0  0  0  0  0  0  0
  129.8063  132.0380  156.7383 C   0  0  0  0  0  0  0  0  0  0  0  0
  128.6577  133.4922  159.1786 C   0  0  0  0  0  0  0  0  0  0  0  0
  127.9199  133.6257  160.5123 C   0  0  0  0  0  0  0  0  0  0  0  0
  130.7688  134.2643  160.2694 C   0  0  0  0  0  0  0  0  0  0  0  0
  130.0309  134.3978  161.6030 C   0  0  0  0  0  0  0  0  0  0  0  0
  125.3737  137.7148  163.6650 N   0  0  0  0  0  0  0  0  0  0  0  0
  125.4419  139.0412  164.1052 C   0  0  0  0  0  0  0  0  0  0  0  0
  124.2759  139.7693  164.3040 C   0  0  0  0  0  0  0  0  0  0  0  0
  124.3459  141.0782  164.7389 C   0  0  0  0  0  0  0  0  0  0  0  0
  125.5754  141.6646  164.9773 C   0  0  0  0  0  0  0  0  0  0  0  0
  126.7392  140.9426  164.7800 C   0  0  0  0  0  0  0  0  0  0  0  0
  128.2806  141.6827  165.0804 Cl  0  0  0  0  0  0  0  0  0  0  0  0
  126.6753  139.6319  164.3446 C   0  0  0  0  0  0  0  0  0  0  0  0
  126.2802  134.6451  164.6876 H   0  0  0  0  0  0  0  0  0  0  0  0
  124.7719  135.0117  163.8166 H   0  0  0  0  0  0  0  0  0  0  0  0
  128.3341  134.7364  163.4525 H   0  0  0  0  0  0  0  0  0  0  0  0
  127.4291  136.3043  160.3894 H   0  0  0  0  0  0  0  0  0  0  0  0
  128.9330  136.8543  161.1665 H   0  0  0  0  0  0  0  0  0  0  0  0
  130.0213  136.6573  159.1994 H   0  0  0  0  0  0  0  0  0  0  0  0
  128.5174  136.1075  158.4223 H   0  0  0  0  0  0  0  0  0  0  0  0
  132.4577  132.1451  158.2858 H   0  0  0  0  0  0  0  0  0  0  0  0
  130.5109  130.1554  157.6721 H   0  0  0  0  0  0  0  0  0  0  0  0
  131.3930  130.6095  156.1432 H   0  0  0  0  0  0  0  0  0  0  0  0
  128.8414  131.8298  157.2002 H   0  0  0  0  0  0  0  0  0  0  0  0
  129.7192  132.2820  155.6795 H   0  0  0  0  0  0  0  0  0  0  0  0
  129.0705  132.4874  159.0908 H   0  0  0  0  0  0  0  0  0  0  0  0
  127.9622  133.6722  158.3589 H   0  0  0  0  0  0  0  0  0  0  0  0
  127.9823  132.6842  161.0578 H   0  0  0  0  0  0  0  0  0  0  0  0
  126.8738  133.8691  160.3260 H   0  0  0  0  0  0  0  0  0  0  0  0
  131.1817  133.2593  160.1815 H   0  0  0  0  0  0  0  0  0  0  0  0
  131.5772  134.9941  160.2267 H   0  0  0  0  0  0  0  0  0  0  0  0
  130.4889  135.1911  162.1937 H   0  0  0  0  0  0  0  0  0  0  0  0
  130.0934  133.4562  162.1486 H   0  0  0  0  0  0  0  0  0  0  0  0
  124.9557  137.5067  162.8148 H   0  0  0  0  0  0  0  0  0  0  0  0
  123.3152  139.3123  164.1180 H   0  0  0  0  0  0  0  0  0  0  0  0
  123.4392  141.6444  164.8934 H   0  0  0  0  0  0  0  0  0  0  0  0
  125.6273  142.6882  165.3177 H   0  0  0  0  0  0  0  0  0  0  0  0
  127.5835  139.0670  164.1953 H   0  0  0  0  0  0  0  0  0  0  0  0
  1  2  2  0
  2  3  1  0
  2 22  1  0
  3  4  1  0
  3 30  1  0
  3 31  1  0
  4  5  2  0
  4  6  1  0
  6 32  1  0
  7  6  1  1
  7 19  1  0
  7 21  1  0
  7  8  1  0
  8  9  1  0
  8 33  1  0
  8 34  1  0
  9 10  1  0
  9 35  1  0
  9 36  1  0
 10 11  1  6
 10 18  1  0
 10 20  1  0
 11 12  1  0
 11 13  1  0
 11 14  1  0
 14 17  1  0
 14 15  2  0
 15 16  1  0
 15 37  1  0
 16 17  1  0
 16 38  1  0
 16 39  1  0
 17 40  1  0
 17 41  1  0
 18 19  1  0
 18 42  1  0
 18 43  1  0
 19 44  1  0
 19 45  1  0
 20 21  1  0
 20 46  1  0
 20 47  1  0
 21 48  1  0
 21 49  1  0
 22 23  1  0
 22 50  1  0
 23 29  1  0
 23 24  2  0
 24 25  1  0
 24 51  1  0
 25 26  2  0
 25 52  1  0
 26 27  1  0
 26 53  1  0
 27 28  1  0
 27 29  2  0
 29 54  1  0
M  CHG  1  11   1
M  END
>  <DOCK_score>  (1) 
-42.709381

>  <SMILES>  (1) 
O=C(CC(=O)NC12CCC([NH2+]C3=CCC3)(CC1)CC2)Nc1cccc(Cl)c1

$$$$
