CCc1ccc(-c2c[nH]c(N[C@@H](C3=CCOCC3)C(c3ccccc3)C3CC3)[nH+]2)cc1
     RDKit          3D

 63 67  0  0  1  0  0  0  0  0999 V2000
  132.0737  129.5776  152.8095 C   0  0  0  0  0  0  0  0  0  0  0  0
  130.6578  129.6917  153.3777 C   0  0  0  0  0  0  0  0  0  0  0  0
  130.6841  130.5363  154.6255 C   0  0  0  0  0  0  0  0  0  0  0  0
  130.5107  131.9051  154.5364 C   0  0  0  0  0  0  0  0  0  0  0  0
  130.5280  132.6815  155.6772 C   0  0  0  0  0  0  0  0  0  0  0  0
  130.7317  132.0846  156.9201 C   0  0  0  0  0  0  0  0  0  0  0  0
  130.7570  132.9146  158.1493 C   0  0  0  0  0  0  0  0  0  0  0  0
  130.3860  132.5137  159.3905 C   0  0  0  0  0  0  0  0  0  0  0  0
  130.5663  133.5884  160.2270 N   0  0  0  0  0  0  0  0  0  0  0  0
  130.3871  133.6111  161.1799 H   0  0  0  0  0  0  0  0  0  0  0  0
  131.0427  134.6154  159.4717 C   0  0  0  0  0  0  0  0  0  0  0  0
  131.3564  135.8808  159.9373 N   0  0  0  0  0  0  0  0  0  0  0  0
  131.1821  136.2035  161.3557 C   0  0  1  0  0  0  0  0  0  0  0  0
  130.2602  135.7506  161.7207 H   0  0  0  0  0  0  0  0  0  0  0  0
  132.3509  135.6661  162.1406 C   0  0  0  0  0  0  0  0  0  0  0  0
  132.3793  135.8533  163.4266 C   0  0  0  0  0  0  0  0  0  0  0  0
  133.4998  135.3605  164.2975 C   0  0  0  0  0  0  0  0  0  0  0  0
  134.2879  134.4004  163.5911 O   0  0  0  0  0  0  0  0  0  0  0  0
  134.6886  134.8518  162.2913 C   0  0  0  0  0  0  0  0  0  0  0  0
  133.4429  134.9392  161.4052 C   0  0  0  0  0  0  0  0  0  0  0  0
  131.1072  137.7220  161.5277 C   0  0  1  0  0  0  0  0  0  0  0  0
  132.1079  138.3811  160.6138 C   0  0  0  0  0  0  0  0  0  0  0  0
  133.3919  138.6315  161.0606 C   0  0  0  0  0  0  0  0  0  0  0  0
  134.3111  139.2320  160.2209 C   0  0  0  0  0  0  0  0  0  0  0  0
  133.9436  139.5906  158.9374 C   0  0  0  0  0  0  0  0  0  0  0  0
  132.6582  139.3451  158.4924 C   0  0  0  0  0  0  0  0  0  0  0  0
  131.7402  138.7406  159.3306 C   0  0  0  0  0  0  0  0  0  0  0  0
  129.6991  138.2063  161.1763 C   0  0  0  0  0  0  0  0  0  0  0  0
  129.1682  139.4339  161.9193 C   0  0  0  0  0  0  0  0  0  0  0  0
  128.6108  138.0455  162.2397 C   0  0  0  0  0  0  0  0  0  0  0  0
  131.1608  134.2072  158.2318 N   0  0  0  0  0  0  0  0  0  0  0  0
  131.4830  134.7442  157.4911 H   0  0  0  0  0  0  0  0  0  0  0  0
  130.9111  130.7050  157.0038 C   0  0  0  0  0  0  0  0  0  0  0  0
  130.8862  129.9378  155.8569 C   0  0  0  0  0  0  0  0  0  0  0  0
  132.0547  128.9677  151.9064 H   0  0  0  0  0  0  0  0  0  0  0  0
  132.4503  130.5717  152.5689 H   0  0  0  0  0  0  0  0  0  0  0  0
  132.7248  129.1115  153.5490 H   0  0  0  0  0  0  0  0  0  0  0  0
  130.0063  130.1583  152.6377 H   0  0  0  0  0  0  0  0  0  0  0  0
  130.2809  128.6982  153.6180 H   0  0  0  0  0  0  0  0  0  0  0  0
  130.3577  132.3671  153.5722 H   0  0  0  0  0  0  0  0  0  0  0  0
  130.3881  133.7501  155.6065 H   0  0  0  0  0  0  0  0  0  0  0  0
  130.0189  131.5368  159.6682 H   0  0  0  0  0  0  0  0  0  0  0  0
  131.6918  136.5537  159.3244 H   0  0  0  0  0  0  0  0  0  0  0  0
  131.5597  136.3826  163.8896 H   0  0  0  0  0  0  0  0  0  0  0  0
  133.0872  134.8993  165.1949 H   0  0  0  0  0  0  0  0  0  0  0  0
  134.1276  136.2051  164.5814 H   0  0  0  0  0  0  0  0  0  0  0  0
  135.3974  134.1450  161.8597 H   0  0  0  0  0  0  0  0  0  0  0  0
  135.1526  135.8349  162.3704 H   0  0  0  0  0  0  0  0  0  0  0  0
  133.1046  133.9339  161.1544 H   0  0  0  0  0  0  0  0  0  0  0  0
  133.6860  135.4791  160.4902 H   0  0  0  0  0  0  0  0  0  0  0  0
  131.3333  137.9820  162.5619 H   0  0  0  0  0  0  0  0  0  0  0  0
  133.6778  138.3546  162.0645 H   0  0  0  0  0  0  0  0  0  0  0  0
  135.3156  139.4235  160.5684 H   0  0  0  0  0  0  0  0  0  0  0  0
  134.6611  140.0622  158.2821 H   0  0  0  0  0  0  0  0  0  0  0  0
  132.3710  139.6253  157.4896 H   0  0  0  0  0  0  0  0  0  0  0  0
  130.7358  138.5487  158.9830 H   0  0  0  0  0  0  0  0  0  0  0  0
  129.4061  138.0829  160.1337 H   0  0  0  0  0  0  0  0  0  0  0  0
  129.8222  139.8964  162.6585 H   0  0  0  0  0  0  0  0  0  0  0  0
  128.5259  140.1186  161.3654 H   0  0  0  0  0  0  0  0  0  0  0  0
  127.6018  137.8168  161.8965 H   0  0  0  0  0  0  0  0  0  0  0  0
  128.8979  137.5947  163.1895 H   0  0  0  0  0  0  0  0  0  0  0  0
  131.0696  130.2373  157.9643 H   0  0  0  0  0  0  0  0  0  0  0  0
  131.0254  128.8687  155.9204 H   0  0  0  0  0  0  0  0  0  0  0  0
  1  2  1  0
  1 35  1  0
  1 36  1  0
  1 37  1  0
  2  3  1  0
  2 38  1  0
  2 39  1  0
  3 34  2  0
  3  4  1  0
  4  5  2  0
  4 40  1  0
  5  6  1  0
  5 41  1  0
  6  7  1  0
  6 33  2  0
  7 31  1  0
  7  8  2  0
  8  9  1  0
  8 42  1  0
  9 10  1  0
  9 11  1  0
 11 12  1  0
 11 31  2  0
 12 13  1  0
 12 43  1  0
 13 14  1  1
 13 15  1  0
 13 21  1  0
 15 20  1  0
 15 16  2  0
 16 17  1  0
 16 44  1  0
 17 18  1  0
 17 45  1  0
 17 46  1  0
 18 19  1  0
 19 20  1  0
 19 47  1  0
 19 48  1  0
 20 49  1  0
 20 50  1  0
 21 22  1  0
 21 28  1  0
 21 51  1  1
 22 27  1  0
 22 23  2  0
 23 24  1  0
 23 52  1  0
 24 25  2  0
 24 53  1  0
 25 26  1  0
 25 54  1  0
 26 27  2  0
 26 55  1  0
 27 56  1  0
 28 30  1  0
 28 29  1  0
 28 57  1  0
 29 30  1  0
 29 58  1  0
 29 59  1  0
 30 60  1  0
 30 61  1  0
 31 32  1  0
 33 34  1  0
 33 62  1  0
 34 63  1  0
M  CHG  1  31   1
M  END
>  <DOCK_score>  (1) 
-59.475052

>  <SMILES>  (1) 
CCc1ccc(-c2c[nH]c(N[C@@H](C3=CCOCC3)C(c3ccccc3)C3CC3)[nH+]2)cc1

$$$$
