CCc1ccc(-c2c[nH]c(NC(C[C@@](C)(O)CC3=CCCC3)c3ccccc3)[nH+]2)cc1
     RDKit          3D

 65 68  0  0  1  0  0  0  0  0999 V2000
  130.2224  128.2470  151.7647 C   0  0  0  0  0  0  0  0  0  0  0  0
  131.2163  129.4020  151.9019 C   0  0  0  0  0  0  0  0  0  0  0  0
  130.9550  130.1393  153.1900 C   0  0  0  0  0  0  0  0  0  0  0  0
  131.6007  129.7502  154.3499 C   0  0  0  0  0  0  0  0  0  0  0  0
  131.3689  130.4247  155.5313 C   0  0  0  0  0  0  0  0  0  0  0  0
  130.4747  131.4935  155.5565 C   0  0  0  0  0  0  0  0  0  0  0  0
  130.2178  132.2195  156.8242 C   0  0  0  0  0  0  0  0  0  0  0  0
  129.7160  131.6827  157.9639 C   0  0  0  0  0  0  0  0  0  0  0  0
  129.6435  132.6991  158.8851 N   0  0  0  0  0  0  0  0  0  0  0  0
  129.3258  132.6250  159.7986 H   0  0  0  0  0  0  0  0  0  0  0  0
  130.0956  133.8303  158.2782 C   0  0  0  0  0  0  0  0  0  0  0  0
  130.1793  135.0816  158.8645 N   0  0  0  0  0  0  0  0  0  0  0  0
  129.7603  135.2681  160.2559 C   0  0  1  0  0  0  0  0  0  0  0  0
  129.9534  136.7325  160.6547 C   0  0  0  0  0  0  0  0  0  0  0  0
  131.4246  136.9786  160.9952 C   0  0  1  0  0  0  0  0  0  0  0  0
  131.7088  136.4850  162.4154 C   0  0  0  0  0  0  0  0  0  0  0  0
  132.2525  136.2706  160.0704 O   0  0  0  0  0  0  0  0  0  0  0  0
  131.7252  138.4761  160.9059 C   0  0  0  0  0  0  0  0  0  0  0  0
  133.2100  138.6819  160.7505 C   0  0  0  0  0  0  0  0  0  0  0  0
  133.7702  139.2786  159.7338 C   0  0  0  0  0  0  0  0  0  0  0  0
  135.2728  139.3215  159.8883 C   0  0  0  0  0  0  0  0  0  0  0  0
  135.5248  139.0073  161.3813 C   0  0  0  0  0  0  0  0  0  0  0  0
  134.2461  138.2190  161.7483 C   0  0  0  0  0  0  0  0  0  0  0  0
  128.3065  134.8966  160.3968 C   0  0  0  0  0  0  0  0  0  0  0  0
  127.8363  134.3866  161.5923 C   0  0  0  0  0  0  0  0  0  0  0  0
  126.5019  134.0501  161.7231 C   0  0  0  0  0  0  0  0  0  0  0  0
  125.6399  134.2141  160.6549 C   0  0  0  0  0  0  0  0  0  0  0  0
  126.1113  134.7192  159.4575 C   0  0  0  0  0  0  0  0  0  0  0  0
  127.4446  135.0604  159.3285 C   0  0  0  0  0  0  0  0  0  0  0  0
  130.4378  133.5397  157.0468 N   0  0  0  0  0  0  0  0  0  0  0  0
  130.7920  134.1682  156.3983 H   0  0  0  0  0  0  0  0  0  0  0  0
  129.8229  131.8778  154.3859 C   0  0  0  0  0  0  0  0  0  0  0  0
  130.0660  131.1990  153.2092 C   0  0  0  0  0  0  0  0  0  0  0  0
  129.2062  128.6409  151.7581 H   0  0  0  0  0  0  0  0  0  0  0  0
  130.4115  127.7137  150.8330 H   0  0  0  0  0  0  0  0  0  0  0  0
  130.3416  127.5633  152.6053 H   0  0  0  0  0  0  0  0  0  0  0  0
  132.2327  129.0080  151.9085 H   0  0  0  0  0  0  0  0  0  0  0  0
  131.0972  130.0857  151.0614 H   0  0  0  0  0  0  0  0  0  0  0  0
  132.2906  128.9196  154.3298 H   0  0  0  0  0  0  0  0  0  0  0  0
  131.8770  130.1229  156.4353 H   0  0  0  0  0  0  0  0  0  0  0  0
  129.4304  130.6527  158.1185 H   0  0  0  0  0  0  0  0  0  0  0  0
  130.5155  135.8348  158.3540 H   0  0  0  0  0  0  0  0  0  0  0  0
  130.3623  134.6323  160.9050 H   0  0  0  0  0  0  0  0  0  0  0  0
  129.6597  137.3766  159.8259 H   0  0  0  0  0  0  0  0  0  0  0  0
  129.3367  136.9563  161.5250 H   0  0  0  0  0  0  0  0  0  0  0  0
  131.4946  135.4182  162.4790 H   0  0  0  0  0  0  0  0  0  0  0  0
  132.7569  136.6603  162.6579 H   0  0  0  0  0  0  0  0  0  0  0  0
  131.0773  137.0252  163.1208 H   0  0  0  0  0  0  0  0  0  0  0  0
  132.1254  136.5326  159.1483 H   0  0  0  0  0  0  0  0  0  0  0  0
  131.2076  138.8999  160.0455 H   0  0  0  0  0  0  0  0  0  0  0  0
  131.3832  138.9702  161.8153 H   0  0  0  0  0  0  0  0  0  0  0  0
  133.2306  139.6896  158.8933 H   0  0  0  0  0  0  0  0  0  0  0  0
  135.6545  140.3114  159.6387 H   0  0  0  0  0  0  0  0  0  0  0  0
  135.7394  138.5652  159.2571 H   0  0  0  0  0  0  0  0  0  0  0  0
  135.6009  139.9238  161.9665 H   0  0  0  0  0  0  0  0  0  0  0  0
  136.4145  138.3901  161.5065 H   0  0  0  0  0  0  0  0  0  0  0  0
  133.9299  138.4595  162.7632 H   0  0  0  0  0  0  0  0  0  0  0  0
  134.4171  137.1472  161.6484 H   0  0  0  0  0  0  0  0  0  0  0  0
  128.5106  134.2543  162.4255 H   0  0  0  0  0  0  0  0  0  0  0  0
  126.1337  133.6551  162.6584 H   0  0  0  0  0  0  0  0  0  0  0  0
  124.5983  133.9470  160.7556 H   0  0  0  0  0  0  0  0  0  0  0  0
  125.4379  134.8469  158.6229 H   0  0  0  0  0  0  0  0  0  0  0  0
  127.8129  135.4548  158.3931 H   0  0  0  0  0  0  0  0  0  0  0  0
  129.1286  132.7050  154.3998 H   0  0  0  0  0  0  0  0  0  0  0  0
  129.5617  131.4959  152.3017 H   0  0  0  0  0  0  0  0  0  0  0  0
  1  2  1  0
  1 34  1  0
  1 35  1  0
  1 36  1  0
  2  3  1  0
  2 37  1  0
  2 38  1  0
  3 33  2  0
  3  4  1  0
  4  5  2  0
  4 39  1  0
  5  6  1  0
  5 40  1  0
  6  7  1  0
  6 32  2  0
  7 30  1  0
  7  8  2  0
  8  9  1  0
  8 41  1  0
  9 10  1  0
  9 11  1  0
 11 12  1  0
 11 30  2  0
 12 13  1  0
 12 42  1  0
 13 14  1  0
 13 24  1  0
 13 43  1  1
 14 15  1  0
 14 44  1  0
 14 45  1  0
 15 16  1  0
 15 17  1  6
 15 18  1  0
 16 46  1  0
 16 47  1  0
 16 48  1  0
 17 49  1  0
 18 19  1  0
 18 50  1  0
 18 51  1  0
 19 23  1  0
 19 20  2  0
 20 21  1  0
 20 52  1  0
 21 22  1  0
 21 53  1  0
 21 54  1  0
 22 23  1  0
 22 55  1  0
 22 56  1  0
 23 57  1  0
 23 58  1  0
 24 29  1  0
 24 25  2  0
 25 26  1  0
 25 59  1  0
 26 27  2  0
 26 60  1  0
 27 28  1  0
 27 61  1  0
 28 29  2  0
 28 62  1  0
 29 63  1  0
 30 31  1  0
 32 33  1  0
 32 64  1  0
 33 65  1  0
M  CHG  1  30   1
M  END
>  <DOCK_score>  (1) 
-68.896973

>  <SMILES>  (1) 
CCc1ccc(-c2c[nH]c(NC(C[C@@](C)(O)CC3=CCCC3)c3ccccc3)[nH+]2)cc1

$$$$
