Clc1ccccc1-c1c[nH]c(NC(c2ccccc2)c2ccccc2)[nH+]1
     RDKit          3D

 45 48  0  0  1  0  0  0  0  0999 V2000
  131.4600  130.1526  157.5000 Cl  0  0  0  0  0  0  0  0  0  0  0  0
  131.0284  130.7231  155.9182 C   0  0  0  0  0  0  0  0  0  0  0  0
  131.3275  129.9644  154.8031 C   0  0  0  0  0  0  0  0  0  0  0  0
  130.9900  130.4206  153.5427 C   0  0  0  0  0  0  0  0  0  0  0  0
  130.3447  131.6356  153.3902 C   0  0  0  0  0  0  0  0  0  0  0  0
  130.0348  132.3990  154.4971 C   0  0  0  0  0  0  0  0  0  0  0  0
  130.3729  131.9452  155.7706 C   0  0  0  0  0  0  0  0  0  0  0  0
  130.0422  132.7616  156.9642 C   0  0  0  0  0  0  0  0  0  0  0  0
  129.2533  132.3792  157.9989 C   0  0  0  0  0  0  0  0  0  0  0  0
  129.2155  133.4316  158.8814 N   0  0  0  0  0  0  0  0  0  0  0  0
  128.7341  133.4586  159.7230 H   0  0  0  0  0  0  0  0  0  0  0  0
  129.9832  134.4268  158.3595 C   0  0  0  0  0  0  0  0  0  0  0  0
  130.2077  135.6620  158.9430 N   0  0  0  0  0  0  0  0  0  0  0  0
  129.5937  135.9853  160.2332 C   0  0  0  0  0  0  0  0  0  0  0  0
  130.0625  135.0008  161.2733 C   0  0  0  0  0  0  0  0  0  0  0  0
  129.2428  134.6782  162.3387 C   0  0  0  0  0  0  0  0  0  0  0  0
  129.6710  133.7714  163.2903 C   0  0  0  0  0  0  0  0  0  0  0  0
  130.9231  133.1954  163.1821 C   0  0  0  0  0  0  0  0  0  0  0  0
  131.7447  133.5220  162.1196 C   0  0  0  0  0  0  0  0  0  0  0  0
  131.3145  134.4248  161.1653 C   0  0  0  0  0  0  0  0  0  0  0  0
  129.9932  137.3790  160.6445 C   0  0  0  0  0  0  0  0  0  0  0  0
  129.1373  138.1448  161.4135 C   0  0  0  0  0  0  0  0  0  0  0  0
  129.5059  139.4215  161.7948 C   0  0  0  0  0  0  0  0  0  0  0  0
  130.7260  139.9359  161.3982 C   0  0  0  0  0  0  0  0  0  0  0  0
  131.5799  139.1721  160.6247 C   0  0  0  0  0  0  0  0  0  0  0  0
  131.2135  137.8936  160.2479 C   0  0  0  0  0  0  0  0  0  0  0  0
  130.4754  134.0227  157.2140 N   0  0  0  0  0  0  0  0  0  0  0  0
  131.0570  134.5422  156.6371 H   0  0  0  0  0  0  0  0  0  0  0  0
  131.8306  129.0153  154.9160 H   0  0  0  0  0  0  0  0  0  0  0  0
  131.2297  129.8269  152.6729 H   0  0  0  0  0  0  0  0  0  0  0  0
  130.0830  131.9867  152.4030 H   0  0  0  0  0  0  0  0  0  0  0  0
  129.5313  133.3470  154.3766 H   0  0  0  0  0  0  0  0  0  0  0  0
  128.7513  131.4293  158.1085 H   0  0  0  0  0  0  0  0  0  0  0  0
  130.7717  136.3135  158.4973 H   0  0  0  0  0  0  0  0  0  0  0  0
  128.5089  135.9299  160.1432 H   0  0  0  0  0  0  0  0  0  0  0  0
  128.2666  135.1316  162.4256 H   0  0  0  0  0  0  0  0  0  0  0  0
  129.0292  133.5165  164.1206 H   0  0  0  0  0  0  0  0  0  0  0  0
  131.2593  132.4904  163.9280 H   0  0  0  0  0  0  0  0  0  0  0  0
  132.7230  133.0722  162.0353 H   0  0  0  0  0  0  0  0  0  0  0  0
  131.9565  134.6803  160.3353 H   0  0  0  0  0  0  0  0  0  0  0  0
  128.1821  137.7445  161.7196 H   0  0  0  0  0  0  0  0  0  0  0  0
  128.8387  140.0184  162.3988 H   0  0  0  0  0  0  0  0  0  0  0  0
  131.0121  140.9350  161.6924 H   0  0  0  0  0  0  0  0  0  0  0  0
  132.5330  139.5742  160.3146 H   0  0  0  0  0  0  0  0  0  0  0  0
  131.8803  137.2967  159.6433 H   0  0  0  0  0  0  0  0  0  0  0  0
  1  2  1  0
  2  7  2  0
  2  3  1  0
  3  4  2  0
  3 29  1  0
  4  5  1  0
  4 30  1  0
  5  6  2  0
  5 31  1  0
  6  7  1  0
  6 32  1  0
  7  8  1  0
  8 27  1  0
  8  9  2  0
  9 10  1  0
  9 33  1  0
 10 11  1  0
 10 12  1  0
 12 13  1  0
 12 27  2  0
 13 14  1  0
 13 34  1  0
 14 15  1  0
 14 21  1  0
 14 35  1  0
 15 20  1  0
 15 16  2  0
 16 17  1  0
 16 36  1  0
 17 18  2  0
 17 37  1  0
 18 19  1  0
 18 38  1  0
 19 20  2  0
 19 39  1  0
 20 40  1  0
 21 26  1  0
 21 22  2  0
 22 23  1  0
 22 41  1  0
 23 24  2  0
 23 42  1  0
 24 25  1  0
 24 43  1  0
 25 26  2  0
 25 44  1  0
 26 45  1  0
 27 28  1  0
M  CHG  1  27   1
M  END
>  <DOCK_score>  (1) 
-58.555382

>  <SMILES>  (1) 
Clc1ccccc1-c1c[nH]c(NC(c2ccccc2)c2ccccc2)[nH+]1

$$$$
