FC(F)[C@H](C/C1=C/CC/C=C\CC1)Nc1[nH]cc(-c2ccc(-c3ccccc3)cc2)[nH+]1
     RDKit          3D

 59 62  0  0  1  0  0  0  0  0999 V2000
  129.5659  134.3920  161.7855 F   0  0  0  0  0  0  0  0  0  0  0  0
  129.8627  135.7549  161.6796 C   0  0  0  0  0  0  0  0  0  0  0  0
  129.6319  136.3796  162.9099 F   0  0  0  0  0  0  0  0  0  0  0  0
  131.3314  135.9281  161.2874 C   0  0  2  0  0  0  0  0  0  0  0  0
  131.9393  135.2000  161.8247 H   0  0  0  0  0  0  0  0  0  0  0  0
  131.7922  137.3420  161.6477 C   0  0  0  0  0  0  0  0  0  0  0  0
  133.3002  137.3740  161.7317 C   0  0  0  0  0  0  0  0  0  0  0  0
  133.8472  137.1160  162.9020 C   0  0  0  0  0  0  0  0  0  0  0  0
  135.3351  137.1403  163.0656 C   0  0  0  0  0  0  0  0  0  0  0  0
  135.8910  138.5176  163.3415 C   0  0  0  0  0  0  0  0  0  0  0  0
  134.9868  139.6282  162.9430 C   0  0  0  0  0  0  0  0  0  0  0  0
  134.5852  139.7543  161.7037 C   0  0  0  0  0  0  0  0  0  0  0  0
  135.0627  138.8029  160.6422 C   0  0  0  0  0  0  0  0  0  0  0  0
  134.0527  137.6783  160.4887 C   0  0  0  0  0  0  0  0  0  0  0  0
  131.4798  135.7187  159.8451 N   0  0  0  0  0  0  0  0  0  0  0  0
  131.1240  134.5054  159.2816 C   0  0  0  0  0  0  0  0  0  0  0  0
  130.6263  133.4334  159.9567 N   0  0  0  0  0  0  0  0  0  0  0  0
  130.4588  133.3828  160.9108 H   0  0  0  0  0  0  0  0  0  0  0  0
  130.3994  132.4389  159.0370 C   0  0  0  0  0  0  0  0  0  0  0  0
  130.7734  132.9280  157.8281 C   0  0  0  0  0  0  0  0  0  0  0  0
  130.7099  132.2037  156.5362 C   0  0  0  0  0  0  0  0  0  0  0  0
  129.9343  132.7071  155.4916 C   0  0  0  0  0  0  0  0  0  0  0  0
  129.8751  132.0338  154.2915 C   0  0  0  0  0  0  0  0  0  0  0  0
  130.5897  130.8492  154.1205 C   0  0  0  0  0  0  0  0  0  0  0  0
  130.5257  130.1235  152.8287 C   0  0  0  0  0  0  0  0  0  0  0  0
  130.6651  128.7370  152.7969 C   0  0  0  0  0  0  0  0  0  0  0  0
  130.6039  128.0676  151.5917 C   0  0  0  0  0  0  0  0  0  0  0  0
  130.4042  128.7697  150.4167 C   0  0  0  0  0  0  0  0  0  0  0  0
  130.2708  130.1464  150.4416 C   0  0  0  0  0  0  0  0  0  0  0  0
  130.3250  130.8259  151.6416 C   0  0  0  0  0  0  0  0  0  0  0  0
  131.3608  130.3421  155.1671 C   0  0  0  0  0  0  0  0  0  0  0  0
  131.4252  131.0185  156.3651 C   0  0  0  0  0  0  0  0  0  0  0  0
  131.2105  134.1997  158.0101 N   0  0  0  0  0  0  0  0  0  0  0  0
  131.5351  134.7885  157.3109 H   0  0  0  0  0  0  0  0  0  0  0  0
  129.2276  136.2070  160.9177 H   0  0  0  0  0  0  0  0  0  0  0  0
  131.4561  138.0400  160.8810 H   0  0  0  0  0  0  0  0  0  0  0  0
  131.3685  137.6279  162.6103 H   0  0  0  0  0  0  0  0  0  0  0  0
  133.2167  136.8836  163.7507 H   0  0  0  0  0  0  0  0  0  0  0  0
  135.7961  136.7525  162.1593 H   0  0  0  0  0  0  0  0  0  0  0  0
  135.6036  136.4882  163.8971 H   0  0  0  0  0  0  0  0  0  0  0  0
  136.8330  138.6253  162.8077 H   0  0  0  0  0  0  0  0  0  0  0  0
  136.0865  138.6000  164.4106 H   0  0  0  0  0  0  0  0  0  0  0  0
  134.6457  140.3312  163.6886 H   0  0  0  0  0  0  0  0  0  0  0  0
  133.9039  140.5522  161.4424 H   0  0  0  0  0  0  0  0  0  0  0  0
  136.0357  138.3945  160.9165 H   0  0  0  0  0  0  0  0  0  0  0  0
  135.1598  139.3374  159.6927 H   0  0  0  0  0  0  0  0  0  0  0  0
  134.5767  136.7757  160.1651 H   0  0  0  0  0  0  0  0  0  0  0  0
  133.3388  137.9527  159.7072 H   0  0  0  0  0  0  0  0  0  0  0  0
  131.8273  136.4303  159.2849 H   0  0  0  0  0  0  0  0  0  0  0  0
  130.0016  131.4553  159.2380 H   0  0  0  0  0  0  0  0  0  0  0  0
  129.3808  133.6250  155.6238 H   0  0  0  0  0  0  0  0  0  0  0  0
  129.2748  132.4236  153.4829 H   0  0  0  0  0  0  0  0  0  0  0  0
  130.8203  128.1876  153.7137 H   0  0  0  0  0  0  0  0  0  0  0  0
  130.7118  126.9932  151.5658 H   0  0  0  0  0  0  0  0  0  0  0  0
  130.3567  128.2416  149.4758 H   0  0  0  0  0  0  0  0  0  0  0  0
  130.1198  130.6901  149.5208 H   0  0  0  0  0  0  0  0  0  0  0  0
  130.2164  131.9003  151.6604 H   0  0  0  0  0  0  0  0  0  0  0  0
  131.9106  129.4218  155.0361 H   0  0  0  0  0  0  0  0  0  0  0  0
  132.0259  130.6288  157.1736 H   0  0  0  0  0  0  0  0  0  0  0  0
  1  2  1  0
  2  3  1  0
  2  4  1  0
  2 35  1  0
  4  5  1  1
  4  6  1  0
  4 15  1  0
  6  7  1  0
  6 36  1  0
  6 37  1  0
  7 14  1  0
  7  8  2  0
  8  9  1  0
  8 38  1  0
  9 10  1  0
  9 39  1  0
  9 40  1  0
 10 11  1  0
 10 41  1  0
 10 42  1  0
 11 12  2  0
 11 43  1  0
 12 13  1  0
 12 44  1  0
 13 14  1  0
 13 45  1  0
 13 46  1  0
 14 47  1  0
 14 48  1  0
 15 49  1  0
 16 15  1  0
 16 33  2  0
 16 17  1  0
 17 18  1  0
 17 19  1  0
 19 20  2  0
 19 50  1  0
 20 21  1  0
 20 33  1  0
 21 32  1  0
 21 22  2  0
 22 23  1  0
 22 51  1  0
 23 24  2  0
 23 52  1  0
 24 25  1  0
 24 31  1  0
 25 30  1  0
 25 26  2  0
 26 27  1  0
 26 53  1  0
 27 28  2  0
 27 54  1  0
 28 29  1  0
 28 55  1  0
 29 30  2  0
 29 56  1  0
 30 57  1  0
 31 32  2  0
 31 58  1  0
 32 59  1  0
 33 34  1  0
M  CHG  1  33   1
M  END
>  <DOCK_score>  (1) 
-62.189354

>  <SMILES>  (1) 
FC(F)[C@H](C/C1=C/CC/C=C\CC1)Nc1[nH]cc(-c2ccc(-c3ccccc3)cc2)[nH+]1

$$$$
