Cc1c(N2CCC(Cc3ccccc3)CC2)cccc1N1CC[NH+]([C@@H](C(N)=O)c2ccccc2)CC1
     RDKit          3D

 75 79  0  0  1  0  0  0  0  0999 V2000
  134.0300  135.2375  163.6497 C   0  0  0  0  0  0  0  0  0  0  0  0
  134.6000  136.2491  162.6891 C   0  0  0  0  0  0  0  0  0  0  0  0
  135.7067  137.0048  163.0505 C   0  0  0  0  0  0  0  0  0  0  0  0
  136.2939  136.8286  164.3053 N   0  0  0  0  0  0  0  0  0  0  0  0
  137.6640  136.3154  164.1780 C   0  0  0  0  0  0  0  0  0  0  0  0
  138.2222  135.9978  165.5670 C   0  0  0  0  0  0  0  0  0  0  0  0
  138.2112  137.2698  166.4193 C   0  0  0  0  0  0  0  0  0  0  0  0
  138.7115  136.9456  167.8283 C   0  0  0  0  0  0  0  0  0  0  0  0
  138.6963  138.1973  168.6673 C   0  0  0  0  0  0  0  0  0  0  0  0
  139.8125  139.0115  168.7142 C   0  0  0  0  0  0  0  0  0  0  0  0
  139.7969  140.1622  169.4798 C   0  0  0  0  0  0  0  0  0  0  0  0
  138.6688  140.4935  170.2069 C   0  0  0  0  0  0  0  0  0  0  0  0
  137.5545  139.6766  170.1642 C   0  0  0  0  0  0  0  0  0  0  0  0
  137.5682  138.5285  169.3943 C   0  0  0  0  0  0  0  0  0  0  0  0
  136.7807  137.8107  166.4960 C   0  0  0  0  0  0  0  0  0  0  0  0
  136.2641  138.0757  165.0801 C   0  0  0  0  0  0  0  0  0  0  0  0
  136.2301  137.9364  162.1622 C   0  0  0  0  0  0  0  0  0  0  0  0
  135.6497  138.1112  160.9205 C   0  0  0  0  0  0  0  0  0  0  0  0
  134.5518  137.3564  160.5554 C   0  0  0  0  0  0  0  0  0  0  0  0
  134.0199  136.4269  161.4412 C   0  0  0  0  0  0  0  0  0  0  0  0
  132.9061  135.6686  161.0736 N   0  0  0  0  0  0  0  0  0  0  0  0
  131.7311  136.5262  160.8637 C   0  0  0  0  0  0  0  0  0  0  0  0
  130.5212  135.6538  160.5217 C   0  0  0  0  0  0  0  0  0  0  0  0
  130.8049  134.8769  159.3078 N   0  0  0  0  0  0  0  0  0  0  0  0
  131.0046  135.5064  158.5450 H   0  0  0  0  0  0  0  0  0  0  0  0
  129.6366  134.0533  158.9697 C   0  0  1  0  0  0  0  0  0  0  0  0
  129.4203  133.3736  159.7940 H   0  0  0  0  0  0  0  0  0  0  0  0
  128.4459  134.9451  158.7286 C   0  0  0  0  0  0  0  0  0  0  0  0
  128.6238  136.1904  158.2448 N   0  0  0  0  0  0  0  0  0  0  0  0
  127.3278  134.5422  158.9698 O   0  0  0  0  0  0  0  0  0  0  0  0
  129.9275  133.2561  157.7243 C   0  0  0  0  0  0  0  0  0  0  0  0
  129.6219  133.7791  156.4818 C   0  0  0  0  0  0  0  0  0  0  0  0
  129.8925  133.0494  155.3393 C   0  0  0  0  0  0  0  0  0  0  0  0
  130.4608  131.7933  155.4397 C   0  0  0  0  0  0  0  0  0  0  0  0
  130.7616  131.2682  156.6826 C   0  0  0  0  0  0  0  0  0  0  0  0
  130.4947  131.9995  157.8249 C   0  0  0  0  0  0  0  0  0  0  0  0
  131.9656  134.0076  159.5410 C   0  0  0  0  0  0  0  0  0  0  0  0
  133.1875  134.8662  159.8748 C   0  0  0  0  0  0  0  0  0  0  0  0
  134.5482  134.2865  163.5257 H   0  0  0  0  0  0  0  0  0  0  0  0
  134.1617  135.5925  164.6718 H   0  0  0  0  0  0  0  0  0  0  0  0
  132.9678  135.1017  163.4464 H   0  0  0  0  0  0  0  0  0  0  0  0
  137.6572  135.4085  163.5732 H   0  0  0  0  0  0  0  0  0  0  0  0
  138.2902  137.0673  163.6979 H   0  0  0  0  0  0  0  0  0  0  0  0
  139.2447  135.6316  165.4731 H   0  0  0  0  0  0  0  0  0  0  0  0
  137.6044  135.2359  166.0422 H   0  0  0  0  0  0  0  0  0  0  0  0
  138.8599  138.0186  165.9647 H   0  0  0  0  0  0  0  0  0  0  0  0
  138.0615  136.1967  168.2812 H   0  0  0  0  0  0  0  0  0  0  0  0
  139.7286  136.5578  167.7724 H   0  0  0  0  0  0  0  0  0  0  0  0
  140.6954  138.7503  168.1497 H   0  0  0  0  0  0  0  0  0  0  0  0
  140.6677  140.8003  169.5136 H   0  0  0  0  0  0  0  0  0  0  0  0
  138.6581  141.3903  170.8087 H   0  0  0  0  0  0  0  0  0  0  0  0
  136.6733  139.9351  170.7324 H   0  0  0  0  0  0  0  0  0  0  0  0
  136.6978  137.8902  169.3611 H   0  0  0  0  0  0  0  0  0  0  0  0
  136.7731  138.7397  167.0661 H   0  0  0  0  0  0  0  0  0  0  0  0
  136.1401  137.0774  166.9858 H   0  0  0  0  0  0  0  0  0  0  0  0
  136.8970  138.8194  164.5959 H   0  0  0  0  0  0  0  0  0  0  0  0
  135.2406  138.4475  165.1305 H   0  0  0  0  0  0  0  0  0  0  0  0
  137.0911  138.5247  162.4427 H   0  0  0  0  0  0  0  0  0  0  0  0
  136.0578  138.8365  160.2322 H   0  0  0  0  0  0  0  0  0  0  0  0
  134.1034  137.4921  159.5822 H   0  0  0  0  0  0  0  0  0  0  0  0
  131.9261  137.2157  160.0424 H   0  0  0  0  0  0  0  0  0  0  0  0
  131.5264  137.0916  161.7728 H   0  0  0  0  0  0  0  0  0  0  0  0
  129.6518  136.2890  160.3517 H   0  0  0  0  0  0  0  0  0  0  0  0
  130.3181  134.9737  161.3491 H   0  0  0  0  0  0  0  0  0  0  0  0
  129.5181  136.5126  158.0519 H   0  0  0  0  0  0  0  0  0  0  0  0
  127.8574  136.7644  158.0895 H   0  0  0  0  0  0  0  0  0  0  0  0
  129.1747  134.7590  156.4034 H   0  0  0  0  0  0  0  0  0  0  0  0
  129.6571  133.4595  154.3683 H   0  0  0  0  0  0  0  0  0  0  0  0
  130.6697  131.2222  154.5473 H   0  0  0  0  0  0  0  0  0  0  0  0
  131.2054  130.2867  156.7611 H   0  0  0  0  0  0  0  0  0  0  0  0
  130.7296  131.5891  158.7959 H   0  0  0  0  0  0  0  0  0  0  0  0
  131.7551  133.3360  160.3734 H   0  0  0  0  0  0  0  0  0  0  0  0
  132.1671  133.4222  158.6439 H   0  0  0  0  0  0  0  0  0  0  0  0
  133.4066  135.5284  159.0372 H   0  0  0  0  0  0  0  0  0  0  0  0
  134.0455  134.2207  160.0626 H   0  0  0  0  0  0  0  0  0  0  0  0
  1  2  1  0
  1 39  1  0
  1 40  1  0
  1 41  1  0
  2 20  2  0
  2  3  1  0
  3  4  1  0
  3 17  2  0
  4 16  1  0
  4  5  1  0
  5  6  1  0
  5 42  1  0
  5 43  1  0
  6  7  1  0
  6 44  1  0
  6 45  1  0
  7  8  1  0
  7 15  1  0
  7 46  1  0
  8  9  1  0
  8 47  1  0
  8 48  1  0
  9 14  1  0
  9 10  2  0
 10 11  1  0
 10 49  1  0
 11 12  2  0
 11 50  1  0
 12 13  1  0
 12 51  1  0
 13 14  2  0
 13 52  1  0
 14 53  1  0
 15 16  1  0
 15 54  1  0
 15 55  1  0
 16 56  1  0
 16 57  1  0
 17 18  1  0
 17 58  1  0
 18 19  2  0
 18 59  1  0
 19 20  1  0
 19 60  1  0
 20 21  1  0
 21 38  1  0
 21 22  1  0
 22 23  1  0
 22 61  1  0
 22 62  1  0
 23 24  1  0
 23 63  1  0
 23 64  1  0
 24 25  1  0
 24 26  1  0
 24 37  1  0
 26 27  1  1
 26 28  1  0
 26 31  1  0
 28 29  1  0
 28 30  2  0
 29 65  1  0
 29 66  1  0
 31 36  1  0
 31 32  2  0
 32 33  1  0
 32 67  1  0
 33 34  2  0
 33 68  1  0
 34 35  1  0
 34 69  1  0
 35 36  2  0
 35 70  1  0
 36 71  1  0
 37 38  1  0
 37 72  1  0
 37 73  1  0
 38 74  1  0
 38 75  1  0
M  CHG  1  24   1
M  END
>  <DOCK_score>  (1) 
-57.952675

>  <SMILES>  (1) 
Cc1c(N2CCC(Cc3ccccc3)CC2)cccc1N1CC[NH+]([C@@H](C(N)=O)c2ccccc2)CC1

$$$$
