CCc1ccc(-c2c[nH]c(N[C@H](CCc3ccccc3)CC3=CCCC3)[nH+]2)cc1
     RDKit          3D

 61 64  0  0  1  0  0  0  0  0999 V2000
  130.0725  128.7650  150.7581 C   0  0  0  0  0  0  0  0  0  0  0  0
  131.2383  129.6752  151.1498 C   0  0  0  0  0  0  0  0  0  0  0  0
  130.9175  130.3726  152.4466 C   0  0  0  0  0  0  0  0  0  0  0  0
  131.2721  129.7884  153.6488 C   0  0  0  0  0  0  0  0  0  0  0  0
  130.9860  130.4250  154.8394 C   0  0  0  0  0  0  0  0  0  0  0  0
  130.3283  131.6537  154.8290 C   0  0  0  0  0  0  0  0  0  0  0  0
  130.0131  132.3403  156.1056 C   0  0  0  0  0  0  0  0  0  0  0  0
  129.2432  131.8480  157.1076 C   0  0  0  0  0  0  0  0  0  0  0  0
  129.2148  132.8032  158.0945 N   0  0  0  0  0  0  0  0  0  0  0  0
  128.7439  132.7415  158.9402 H   0  0  0  0  0  0  0  0  0  0  0  0
  129.9689  133.8521  157.6664 C   0  0  0  0  0  0  0  0  0  0  0  0
  130.1962  135.0222  158.3703 N   0  0  0  0  0  0  0  0  0  0  0  0
  129.1835  135.5253  159.3017 C   0  0  2  0  0  0  0  0  0  0  0  0
  129.0026  134.7818  160.0780 H   0  0  0  0  0  0  0  0  0  0  0  0
  127.8830  135.7971  158.5430 C   0  0  0  0  0  0  0  0  0  0  0  0
  126.7146  135.8341  159.5301 C   0  0  0  0  0  0  0  0  0  0  0  0
  126.6145  134.5085  160.2398 C   0  0  0  0  0  0  0  0  0  0  0  0
  125.8287  133.5004  159.7133 C   0  0  0  0  0  0  0  0  0  0  0  0
  125.7406  132.2826  160.3617 C   0  0  0  0  0  0  0  0  0  0  0  0
  126.4299  132.0767  161.5421 C   0  0  0  0  0  0  0  0  0  0  0  0
  127.2114  133.0865  162.0714 C   0  0  0  0  0  0  0  0  0  0  0  0
  127.3036  134.3025  161.4203 C   0  0  0  0  0  0  0  0  0  0  0  0
  129.6801  136.8224  159.9434 C   0  0  0  0  0  0  0  0  0  0  0  0
  130.9610  136.5546  160.6908 C   0  0  0  0  0  0  0  0  0  0  0  0
  132.1016  137.1345  160.4326 C   0  0  0  0  0  0  0  0  0  0  0  0
  133.1849  136.6433  161.3644 C   0  0  0  0  0  0  0  0  0  0  0  0
  132.6153  135.3437  161.9790 C   0  0  0  0  0  0  0  0  0  0  0  0
  131.0922  135.5844  161.8418 C   0  0  0  0  0  0  0  0  0  0  0  0
  130.4490  133.5693  156.4800 N   0  0  0  0  0  0  0  0  0  0  0  0
  131.0224  134.1475  155.9528 H   0  0  0  0  0  0  0  0  0  0  0  0
  129.9683  132.2354  153.6147 C   0  0  0  0  0  0  0  0  0  0  0  0
  130.2645  131.5924  152.4299 C   0  0  0  0  0  0  0  0  0  0  0  0
  129.1695  129.3630  150.6356 H   0  0  0  0  0  0  0  0  0  0  0  0
  130.3044  128.2607  149.8201 H   0  0  0  0  0  0  0  0  0  0  0  0
  129.9133  128.0226  151.5401 H   0  0  0  0  0  0  0  0  0  0  0  0
  132.1411  129.0778  151.2718 H   0  0  0  0  0  0  0  0  0  0  0  0
  131.3972  130.4183  150.3673 H   0  0  0  0  0  0  0  0  0  0  0  0
  131.7774  128.8340  153.6558 H   0  0  0  0  0  0  0  0  0  0  0  0
  131.2675  129.9700  155.7776 H   0  0  0  0  0  0  0  0  0  0  0  0
  128.7471  130.8889  157.1260 H   0  0  0  0  0  0  0  0  0  0  0  0
  131.0262  135.5089  158.2471 H   0  0  0  0  0  0  0  0  0  0  0  0
  127.9554  136.7559  158.0297 H   0  0  0  0  0  0  0  0  0  0  0  0
  127.7163  135.0056  157.8123 H   0  0  0  0  0  0  0  0  0  0  0  0
  126.8813  136.6257  160.2608 H   0  0  0  0  0  0  0  0  0  0  0  0
  125.7882  136.0278  158.9896 H   0  0  0  0  0  0  0  0  0  0  0  0
  125.2867  133.6628  158.7934 H   0  0  0  0  0  0  0  0  0  0  0  0
  125.1298  131.4937  159.9484 H   0  0  0  0  0  0  0  0  0  0  0  0
  126.3575  131.1269  162.0510 H   0  0  0  0  0  0  0  0  0  0  0  0
  127.7496  132.9258  162.9938 H   0  0  0  0  0  0  0  0  0  0  0  0
  127.9140  135.0917  161.8340 H   0  0  0  0  0  0  0  0  0  0  0  0
  129.8610  137.5657  159.1671 H   0  0  0  0  0  0  0  0  0  0  0  0
  128.9265  137.1966  160.6363 H   0  0  0  0  0  0  0  0  0  0  0  0
  132.2513  137.8687  159.6548 H   0  0  0  0  0  0  0  0  0  0  0  0
  134.0976  136.4316  160.8074 H   0  0  0  0  0  0  0  0  0  0  0  0
  133.3774  137.3798  162.1445 H   0  0  0  0  0  0  0  0  0  0  0  0
  132.9302  134.4701  161.4083 H   0  0  0  0  0  0  0  0  0  0  0  0
  132.9016  135.2480  163.0264 H   0  0  0  0  0  0  0  0  0  0  0  0
  130.6907  136.0226  162.7554 H   0  0  0  0  0  0  0  0  0  0  0  0
  130.5807  134.6500  161.6110 H   0  0  0  0  0  0  0  0  0  0  0  0
  129.4583  133.1873  153.6008 H   0  0  0  0  0  0  0  0  0  0  0  0
  129.9857  132.0420  151.4884 H   0  0  0  0  0  0  0  0  0  0  0  0
  1  2  1  0
  1 33  1  0
  1 34  1  0
  1 35  1  0
  2  3  1  0
  2 36  1  0
  2 37  1  0
  3 32  2  0
  3  4  1  0
  4  5  2  0
  4 38  1  0
  5  6  1  0
  5 39  1  0
  6  7  1  0
  6 31  2  0
  7 29  1  0
  7  8  2  0
  8  9  1  0
  8 40  1  0
  9 10  1  0
  9 11  1  0
 11 12  1  0
 11 29  2  0
 12 13  1  0
 12 41  1  0
 13 14  1  1
 13 15  1  0
 13 23  1  0
 15 16  1  0
 15 42  1  0
 15 43  1  0
 16 17  1  0
 16 44  1  0
 16 45  1  0
 17 22  1  0
 17 18  2  0
 18 19  1  0
 18 46  1  0
 19 20  2  0
 19 47  1  0
 20 21  1  0
 20 48  1  0
 21 22  2  0
 21 49  1  0
 22 50  1  0
 23 24  1  0
 23 51  1  0
 23 52  1  0
 24 28  1  0
 24 25  2  0
 25 26  1  0
 25 53  1  0
 26 27  1  0
 26 54  1  0
 26 55  1  0
 27 28  1  0
 27 56  1  0
 27 57  1  0
 28 58  1  0
 28 59  1  0
 29 30  1  0
 31 32  1  0
 31 60  1  0
 32 61  1  0
M  CHG  1  29   1
M  END
>  <DOCK_score>  (1) 
-62.063843

>  <SMILES>  (1) 
CCc1ccc(-c2c[nH]c(N[C@H](CCc3ccccc3)CC3=CCCC3)[nH+]2)cc1

$$$$
