CC(C)n1ccc(CN(C(=O)c2c[nH]nc2C2CCC[NH2+]C2)[C@H]2C=C(c3ccccc3)CCC2)n1
     RDKit          3D

 72 76  0  0  1  0  0  0  0  0999 V2000
  135.1180  140.2188  160.6244 C   0  0  0  0  0  0  0  0  0  0  0  0
  135.4158  138.7187  160.6689 C   0  0  0  0  0  0  0  0  0  0  0  0
  136.3681  138.4220  161.8291 C   0  0  0  0  0  0  0  0  0  0  0  0
  134.1664  137.9781  160.8608 N   0  0  0  0  0  0  0  0  0  0  0  0
  133.6525  137.0565  160.0196 C   0  0  0  0  0  0  0  0  0  0  0  0
  132.4962  136.6056  160.5585 C   0  0  0  0  0  0  0  0  0  0  0  0
  132.2920  137.2809  161.7661 C   0  0  0  0  0  0  0  0  0  0  0  0
  131.1226  137.0916  162.6977 C   0  0  0  0  0  0  0  0  0  0  0  0
  129.8805  137.0581  161.9216 N   0  0  0  0  0  0  0  0  0  0  0  0
  129.4091  135.8850  161.4547 C   0  0  0  0  0  0  0  0  0  0  0  0
  130.0146  134.8544  161.6776 O   0  0  0  0  0  0  0  0  0  0  0  0
  128.1590  135.8514  160.6737 C   0  0  0  0  0  0  0  0  0  0  0  0
  126.9122  136.2576  161.1051 C   0  0  0  0  0  0  0  0  0  0  0  0
  126.0536  136.0643  160.0911 N   0  0  0  0  0  0  0  0  0  0  0  0
  125.1042  136.2628  160.1067 H   0  0  0  0  0  0  0  0  0  0  0  0
  126.7580  135.5225  159.0101 N   0  0  0  0  0  0  0  0  0  0  0  0
  128.0117  135.3916  159.3459 C   0  0  0  0  0  0  0  0  0  0  0  0
  129.1106  134.8464  158.4705 C   0  0  1  0  0  0  0  0  0  0  0  0
  129.2105  133.3301  158.6599 C   0  0  0  0  0  0  0  0  0  0  0  0
  130.2755  132.7758  157.7093 C   0  0  0  0  0  0  0  0  0  0  0  0
  129.9172  133.1584  156.2718 C   0  0  0  0  0  0  0  0  0  0  0  0
  129.8631  134.6201  156.1496 N   0  0  0  0  0  0  0  0  0  0  0  0
  130.7478  135.0133  156.4338 H   0  0  0  0  0  0  0  0  0  0  0  0
  129.6795  134.8697  155.1893 H   0  0  0  0  0  0  0  0  0  0  0  0
  128.7954  135.1522  157.0047 C   0  0  0  0  0  0  0  0  0  0  0  0
  129.1509  138.2998  161.6529 C   0  0  1  0  0  0  0  0  0  0  0  0
  128.2598  138.0755  161.0664 H   0  0  0  0  0  0  0  0  0  0  0  0
  128.7469  138.9276  162.9550 C   0  0  0  0  0  0  0  0  0  0  0  0
  128.8314  140.2120  163.2035 C   0  0  0  0  0  0  0  0  0  0  0  0
  128.3831  140.6953  164.5265 C   0  0  0  0  0  0  0  0  0  0  0  0
  129.2789  141.3477  165.3746 C   0  0  0  0  0  0  0  0  0  0  0  0
  128.8526  141.8015  166.6058 C   0  0  0  0  0  0  0  0  0  0  0  0
  127.5416  141.6067  167.0023 C   0  0  0  0  0  0  0  0  0  0  0  0
  126.6500  140.9556  166.1685 C   0  0  0  0  0  0  0  0  0  0  0  0
  127.0638  140.4961  164.9351 C   0  0  0  0  0  0  0  0  0  0  0  0
  129.3620  141.2197  162.2260 C   0  0  0  0  0  0  0  0  0  0  0  0
  129.3708  140.6301  160.8142 C   0  0  0  0  0  0  0  0  0  0  0  0
  130.0493  139.2556  160.8650 C   0  0  0  0  0  0  0  0  0  0  0  0
  133.2942  138.1016  161.9500 N   0  0  0  0  0  0  0  0  0  0  0  0
  134.6546  140.5251  161.5622 H   0  0  0  0  0  0  0  0  0  0  0  0
  136.0476  140.7697  160.4814 H   0  0  0  0  0  0  0  0  0  0  0  0
  134.4397  140.4301  159.7978 H   0  0  0  0  0  0  0  0  0  0  0  0
  135.8793  138.4123  159.7309 H   0  0  0  0  0  0  0  0  0  0  0  0
  136.5803  137.3533  161.8608 H   0  0  0  0  0  0  0  0  0  0  0  0
  137.2977  138.9729  161.6861 H   0  0  0  0  0  0  0  0  0  0  0  0
  135.9047  138.7284  162.7669 H   0  0  0  0  0  0  0  0  0  0  0  0
  134.0884  136.7336  159.0856 H   0  0  0  0  0  0  0  0  0  0  0  0
  131.8450  135.8577  160.1306 H   0  0  0  0  0  0  0  0  0  0  0  0
  131.0856  137.9184  163.4069 H   0  0  0  0  0  0  0  0  0  0  0  0
  131.2380  136.1530  163.2395 H   0  0  0  0  0  0  0  0  0  0  0  0
  126.6720  136.6597  162.0782 H   0  0  0  0  0  0  0  0  0  0  0  0
  130.0581  135.3106  158.7442 H   0  0  0  0  0  0  0  0  0  0  0  0
  129.4905  133.1090  159.6899 H   0  0  0  0  0  0  0  0  0  0  0  0
  128.2476  132.8706  158.4361 H   0  0  0  0  0  0  0  0  0  0  0  0
  131.2475  133.1969  157.9666 H   0  0  0  0  0  0  0  0  0  0  0  0
  130.3140  131.6902  157.7990 H   0  0  0  0  0  0  0  0  0  0  0  0
  130.6734  132.7652  155.5924 H   0  0  0  0  0  0  0  0  0  0  0  0
  128.9451  132.7370  156.0157 H   0  0  0  0  0  0  0  0  0  0  0  0
  127.8474  134.6880  156.7329 H   0  0  0  0  0  0  0  0  0  0  0  0
  128.7235  136.2311  156.8664 H   0  0  0  0  0  0  0  0  0  0  0  0
  128.3605  138.2839  163.7313 H   0  0  0  0  0  0  0  0  0  0  0  0
  130.3024  141.5009  165.0659 H   0  0  0  0  0  0  0  0  0  0  0  0
  129.5440  142.3102  167.2614 H   0  0  0  0  0  0  0  0  0  0  0  0
  127.2128  141.9641  167.9670 H   0  0  0  0  0  0  0  0  0  0  0  0
  125.6280  140.8064  166.4839 H   0  0  0  0  0  0  0  0  0  0  0  0
  126.3668  139.9881  164.2851 H   0  0  0  0  0  0  0  0  0  0  0  0
  128.7299  142.1074  162.2430 H   0  0  0  0  0  0  0  0  0  0  0  0
  130.3788  141.4948  162.5067 H   0  0  0  0  0  0  0  0  0  0  0  0
  128.3468  140.5200  160.4569 H   0  0  0  0  0  0  0  0  0  0  0  0
  129.9231  141.2899  160.1451 H   0  0  0  0  0  0  0  0  0  0  0  0
  130.1871  138.8775  159.8521 H   0  0  0  0  0  0  0  0  0  0  0  0
  131.0173  139.3431  161.3582 H   0  0  0  0  0  0  0  0  0  0  0  0
  1  2  1  0
  1 40  1  0
  1 41  1  0
  1 42  1  0
  2  3  1  0
  2  4  1  0
  2 43  1  0
  3 44  1  0
  3 45  1  0
  3 46  1  0
  4 39  1  0
  4  5  1  0
  5  6  2  0
  5 47  1  0
  6  7  1  0
  6 48  1  0
  7  8  1  0
  7 39  2  0
  8  9  1  0
  8 49  1  0
  8 50  1  0
  9 10  1  0
  9 26  1  0
 10 11  2  0
 10 12  1  0
 12 17  1  0
 12 13  2  0
 13 14  1  0
 13 51  1  0
 14 15  1  0
 14 16  1  0
 16 17  2  0
 17 18  1  0
 18 25  1  0
 18 19  1  0
 18 52  1  1
 19 20  1  0
 19 53  1  0
 19 54  1  0
 20 21  1  0
 20 55  1  0
 20 56  1  0
 21 22  1  0
 21 57  1  0
 21 58  1  0
 22 23  1  0
 22 24  1  0
 22 25  1  0
 25 59  1  0
 25 60  1  0
 26 27  1  6
 26 38  1  0
 26 28  1  0
 28 29  2  0
 28 61  1  0
 29 30  1  0
 29 36  1  0
 30 35  1  0
 30 31  2  0
 31 32  1  0
 31 62  1  0
 32 33  2  0
 32 63  1  0
 33 34  1  0
 33 64  1  0
 34 35  2  0
 34 65  1  0
 35 66  1  0
 36 37  1  0
 36 67  1  0
 36 68  1  0
 37 38  1  0
 37 69  1  0
 37 70  1  0
 38 71  1  0
 38 72  1  0
M  CHG  1  22   1
M  END
>  <DOCK_score>  (1) 
-47.250908

>  <SMILES>  (1) 
CC(C)n1ccc(CN(C(=O)c2c[nH]nc2C2CCC[NH2+]C2)[C@H]2C=C(c3ccccc3)CCC2)n1

$$$$
