O=C1CC[C@@H]([NH+]=C(NC2CC=CC2)NC2CC(F)(CF)C2)CN1
     RDKit          3D

 48 50  0  0  1  0  0  0  0  0999 V2000
  123.7977  133.9538  161.7607 O   0  0  0  0  0  0  0  0  0  0  0  0
  124.8465  133.6424  161.2371 C   0  0  0  0  0  0  0  0  0  0  0  0
  125.3670  132.2516  161.4607 C   0  0  0  0  0  0  0  0  0  0  0  0
  126.4231  131.9148  160.4052 C   0  0  0  0  0  0  0  0  0  0  0  0
  127.4266  133.0724  160.3370 C   0  0  1  0  0  0  0  0  0  0  0  0
  127.8014  133.2908  161.3370 H   0  0  0  0  0  0  0  0  0  0  0  0
  128.5432  132.7042  159.4631 N   0  0  0  0  0  0  0  0  0  0  0  0
  128.5574  131.8338  159.0350 H   0  0  0  0  0  0  0  0  0  0  0  0
  129.5149  133.5479  159.2567 C   0  0  0  0  0  0  0  0  0  0  0  0
  130.1983  133.5309  158.0639 N   0  0  0  0  0  0  0  0  0  0  0  0
  129.8342  132.5645  157.0248 C   0  0  0  0  0  0  0  0  0  0  0  0
  130.1777  131.1220  157.4634 C   0  0  0  0  0  0  0  0  0  0  0  0
  130.6610  130.4426  156.2025 C   0  0  0  0  0  0  0  0  0  0  0  0
  130.9626  131.3181  155.2826 C   0  0  0  0  0  0  0  0  0  0  0  0
  130.7318  132.7275  155.7761 C   0  0  0  0  0  0  0  0  0  0  0  0
  129.8566  134.4549  160.2318 N   0  0  0  0  0  0  0  0  0  0  0  0
  130.9489  135.4032  159.9997 C   0  0  2  0  0  0  0  0  0  0  0  0
  132.3437  134.8142  160.2686 C   0  0  0  0  0  0  0  0  0  0  0  0
  132.1749  135.2827  161.7236 C   0  0  1  0  0  0  0  0  0  0  0  0
  131.5620  134.3347  162.5500 F   0  0  0  0  0  0  0  0  0  0  0  0
  133.4517  135.8663  162.3316 C   0  0  0  0  0  0  0  0  0  0  0  0
  133.1221  136.6598  163.4357 F   0  0  0  0  0  0  0  0  0  0  0  0
  131.2061  136.3487  161.1850 C   0  0  0  0  0  0  0  0  0  0  0  0
  126.7166  134.3031  159.7714 C   0  0  0  0  0  0  0  0  0  0  0  0
  125.4759  134.5535  160.4942 N   0  0  0  0  0  0  0  0  0  0  0  0
  124.5436  131.5410  161.3887 H   0  0  0  0  0  0  0  0  0  0  0  0
  125.8137  132.1888  162.4529 H   0  0  0  0  0  0  0  0  0  0  0  0
  125.9440  131.7869  159.4345 H   0  0  0  0  0  0  0  0  0  0  0  0
  126.9404  130.9967  160.6835 H   0  0  0  0  0  0  0  0  0  0  0  0
  130.9216  134.1588  157.9102 H   0  0  0  0  0  0  0  0  0  0  0  0
  128.7799  132.6533  156.7631 H   0  0  0  0  0  0  0  0  0  0  0  0
  130.9665  131.1315  158.2157 H   0  0  0  0  0  0  0  0  0  0  0  0
  129.2900  130.6209  157.8492 H   0  0  0  0  0  0  0  0  0  0  0  0
  130.7449  129.3730  156.0788 H   0  0  0  0  0  0  0  0  0  0  0  0
  131.3293  131.0680  154.2980 H   0  0  0  0  0  0  0  0  0  0  0  0
  130.2203  133.3172  155.0154 H   0  0  0  0  0  0  0  0  0  0  0  0
  131.6776  133.1965  156.0470 H   0  0  0  0  0  0  0  0  0  0  0  0
  129.3745  134.4668  161.0734 H   0  0  0  0  0  0  0  0  0  0  0  0
  130.8674  135.9164  159.0416 H   0  0  0  0  0  0  0  0  0  0  0  0
  132.3881  133.7304  160.1613 H   0  0  0  0  0  0  0  0  0  0  0  0
  133.1443  135.3264  159.7351 H   0  0  0  0  0  0  0  0  0  0  0  0
  134.1063  135.0549  162.6500 H   0  0  0  0  0  0  0  0  0  0  0  0
  133.9638  136.4751  161.5865 H   0  0  0  0  0  0  0  0  0  0  0  0
  131.6955  137.2805  160.9019 H   0  0  0  0  0  0  0  0  0  0  0  0
  130.3319  136.5038  161.8176 H   0  0  0  0  0  0  0  0  0  0  0  0
  127.3698  135.1707  159.8654 H   0  0  0  0  0  0  0  0  0  0  0  0
  126.4926  134.1372  158.7177 H   0  0  0  0  0  0  0  0  0  0  0  0
  125.0835  135.4383  160.4307 H   0  0  0  0  0  0  0  0  0  0  0  0
  1  2  2  0
  2 25  1  0
  2  3  1  0
  3  4  1  0
  3 26  1  0
  3 27  1  0
  4  5  1  0
  4 28  1  0
  4 29  1  0
  5  6  1  1
  5  7  1  0
  5 24  1  0
  7  8  1  0
  9  7  2  0
  9 10  1  0
  9 16  1  0
 10 11  1  0
 10 30  1  0
 11 15  1  0
 11 12  1  0
 11 31  1  0
 12 13  1  0
 12 32  1  0
 12 33  1  0
 13 14  2  0
 13 34  1  0
 14 15  1  0
 14 35  1  0
 15 36  1  0
 15 37  1  0
 16 17  1  0
 16 38  1  0
 17 23  1  0
 17 18  1  0
 17 39  1  6
 18 19  1  0
 18 40  1  0
 18 41  1  0
 19 20  1  1
 19 21  1  0
 19 23  1  0
 21 22  1  0
 21 42  1  0
 21 43  1  0
 23 44  1  0
 23 45  1  0
 24 25  1  0
 24 46  1  0
 24 47  1  0
 25 48  1  0
M  CHG  1   7   1
M  END
>  <DOCK_score>  (1) 
-41.622395

>  <SMILES>  (1) 
O=C1CC[C@@H]([NH+]=C(NC2CC=CC2)NC2CC(F)(CF)C2)CN1

$$$$
