O[C@H]1C=CCC[C@H]1Nc1ccc(-c2n[nH]cc2C[NH2+]CC2CC(C3CC3)C2)o1
     RDKit          3D

 59 63  0  0  1  0  0  0  0  0999 V2000
  126.6445  138.2028  162.4535 O   0  0  0  0  0  0  0  0  0  0  0  0
  128.0730  138.2386  162.4656 C   0  0  1  0  0  0  0  0  0  0  0  0
  128.4508  137.8186  161.5333 H   0  0  0  0  0  0  0  0  0  0  0  0
  128.5303  139.6628  162.5971 C   0  0  0  0  0  0  0  0  0  0  0  0
  128.9810  140.1830  163.6935 C   0  0  0  0  0  0  0  0  0  0  0  0
  129.1147  139.4335  164.9867 C   0  0  0  0  0  0  0  0  0  0  0  0
  128.2743  138.1554  164.9446 C   0  0  0  0  0  0  0  0  0  0  0  0
  128.5913  137.4091  163.6425 C   0  0  1  0  0  0  0  0  0  0  0  0
  129.6690  137.2753  163.5499 H   0  0  0  0  0  0  0  0  0  0  0  0
  127.9315  136.1011  163.6515 N   0  0  0  0  0  0  0  0  0  0  0  0
  128.4920  135.0353  162.9572 C   0  0  0  0  0  0  0  0  0  0  0  0
  127.9828  133.7802  162.8867 C   0  0  0  0  0  0  0  0  0  0  0  0
  128.8592  133.0255  162.0820 C   0  0  0  0  0  0  0  0  0  0  0  0
  129.8663  133.8582  161.7088 C   0  0  0  0  0  0  0  0  0  0  0  0
  131.0190  133.4955  160.8585 C   0  0  0  0  0  0  0  0  0  0  0  0
  131.2515  132.3102  160.3300 N   0  0  0  0  0  0  0  0  0  0  0  0
  132.4426  132.3871  159.5970 N   0  0  0  0  0  0  0  0  0  0  0  0
  132.8520  131.6622  159.0994 H   0  0  0  0  0  0  0  0  0  0  0  0
  132.9194  133.6469  159.6982 C   0  0  0  0  0  0  0  0  0  0  0  0
  132.0667  134.3561  160.4683 C   0  0  0  0  0  0  0  0  0  0  0  0
  132.2089  135.8086  160.8438 C   0  0  0  0  0  0  0  0  0  0  0  0
  131.5377  136.6425  159.8378 N   0  0  0  0  0  0  0  0  0  0  0  0
  131.9600  136.4857  158.9350 H   0  0  0  0  0  0  0  0  0  0  0  0
  130.5592  136.3994  159.7982 H   0  0  0  0  0  0  0  0  0  0  0  0
  131.6761  138.0584  160.2039 C   0  0  0  0  0  0  0  0  0  0  0  0
  133.1599  138.4268  160.2642 C   0  0  2  0  0  0  0  0  0  0  0  0
  133.7160  138.5112  161.6954 C   0  0  0  0  0  0  0  0  0  0  0  0
  134.5069  139.7470  161.2292 C   0  0  1  0  0  0  0  0  0  0  0  0
  135.8858  139.4102  160.6578 C   0  0  0  0  0  0  0  0  0  0  0  0
  137.0701  139.4062  161.6263 C   0  0  0  0  0  0  0  0  0  0  0  0
  136.9219  140.5346  160.6037 C   0  0  0  0  0  0  0  0  0  0  0  0
  133.4244  139.9377  160.1539 C   0  0  0  0  0  0  0  0  0  0  0  0
  129.6299  135.0748  162.2432 O   0  0  0  0  0  0  0  0  0  0  0  0
  126.2741  137.3141  162.3628 H   0  0  0  0  0  0  0  0  0  0  0  0
  128.4835  140.2915  161.7202 H   0  0  0  0  0  0  0  0  0  0  0  0
  129.2790  141.2209  163.6765 H   0  0  0  0  0  0  0  0  0  0  0  0
  128.7720  140.0645  165.8070 H   0  0  0  0  0  0  0  0  0  0  0  0
  130.1610  139.1730  165.1467 H   0  0  0  0  0  0  0  0  0  0  0  0
  127.2154  138.4122  164.9714 H   0  0  0  0  0  0  0  0  0  0  0  0
  128.5233  137.5248  165.7982 H   0  0  0  0  0  0  0  0  0  0  0  0
  127.1036  135.9789  164.1419 H   0  0  0  0  0  0  0  0  0  0  0  0
  127.0753  133.4275  163.3543 H   0  0  0  0  0  0  0  0  0  0  0  0
  128.7524  131.9845  161.8150 H   0  0  0  0  0  0  0  0  0  0  0  0
  133.8244  134.0211  159.2431 H   0  0  0  0  0  0  0  0  0  0  0  0
  131.7527  135.9780  161.8192 H   0  0  0  0  0  0  0  0  0  0  0  0
  133.2659  136.0711  160.8867 H   0  0  0  0  0  0  0  0  0  0  0  0
  131.1781  138.6771  159.4574 H   0  0  0  0  0  0  0  0  0  0  0  0
  131.2198  138.2278  161.1792 H   0  0  0  0  0  0  0  0  0  0  0  0
  133.7728  137.8262  159.5922 H   0  0  0  0  0  0  0  0  0  0  0  0
  132.9581  138.7354  162.4458 H   0  0  0  0  0  0  0  0  0  0  0  0
  134.3469  137.6656  161.9692 H   0  0  0  0  0  0  0  0  0  0  0  0
  134.5384  140.5510  161.9645 H   0  0  0  0  0  0  0  0  0  0  0  0
  135.8938  138.6790  159.8494 H   0  0  0  0  0  0  0  0  0  0  0  0
  136.8671  139.6435  162.6706 H   0  0  0  0  0  0  0  0  0  0  0  0
  137.8577  138.6723  161.4553 H   0  0  0  0  0  0  0  0  0  0  0  0
  137.6119  140.5431  159.7599 H   0  0  0  0  0  0  0  0  0  0  0  0
  136.6214  141.5143  160.9753 H   0  0  0  0  0  0  0  0  0  0  0  0
  133.8201  140.2421  159.1849 H   0  0  0  0  0  0  0  0  0  0  0  0
  132.5865  140.5528  160.4821 H   0  0  0  0  0  0  0  0  0  0  0  0
  1  2  1  0
  1 34  1  0
  2  3  1  6
  2  8  1  0
  2  4  1  0
  4  5  2  0
  4 35  1  0
  5  6  1  0
  5 36  1  0
  6  7  1  0
  6 37  1  0
  6 38  1  0
  7  8  1  0
  7 39  1  0
  7 40  1  0
  8  9  1  6
  8 10  1  0
 10 11  1  0
 10 41  1  0
 11 33  1  0
 11 12  2  0
 12 13  1  0
 12 42  1  0
 13 14  2  0
 13 43  1  0
 14 15  1  0
 14 33  1  0
 15 20  1  0
 15 16  2  0
 16 17  1  0
 17 18  1  0
 17 19  1  0
 19 20  2  0
 19 44  1  0
 20 21  1  0
 21 22  1  0
 21 45  1  0
 21 46  1  0
 22 23  1  0
 22 24  1  0
 22 25  1  0
 25 26  1  0
 25 47  1  0
 25 48  1  0
 26 32  1  0
 26 27  1  0
 26 49  1  6
 27 28  1  0
 27 50  1  0
 27 51  1  0
 28 29  1  0
 28 32  1  0
 28 52  1  1
 29 31  1  0
 29 30  1  0
 29 53  1  0
 30 31  1  0
 30 54  1  0
 30 55  1  0
 31 56  1  0
 31 57  1  0
 32 58  1  0
 32 59  1  0
M  CHG  1  22   1
M  END
>  <DOCK_score>  (1) 
-41.037613

>  <SMILES>  (1) 
O[C@H]1C=CCC[C@H]1Nc1ccc(-c2n[nH]cc2C[NH2+]CC2CC(C3CC3)C2)o1

$$$$
