Brc1ccc(-c2c[nH]c(N[C@@H](C=Cc3ccccc3)c3ccccc3)[nH+]2)cc1
     RDKit          3D

 49 52  0  0  1  0  0  0  0  0999 V2000
  131.8647  129.1783  152.2558 Br  0  0  0  0  0  0  0  0  0  0  0  0
  131.2909  130.1868  153.7490 C   0  0  0  0  0  0  0  0  0  0  0  0
  130.4594  131.2786  153.5647 C   0  0  0  0  0  0  0  0  0  0  0  0
  130.0379  132.0185  154.6505 C   0  0  0  0  0  0  0  0  0  0  0  0
  130.4503  131.6650  155.9342 C   0  0  0  0  0  0  0  0  0  0  0  0
  130.0008  132.4571  157.1051 C   0  0  0  0  0  0  0  0  0  0  0  0
  129.2832  131.9899  158.1566 C   0  0  0  0  0  0  0  0  0  0  0  0
  129.0858  133.0506  159.0072 N   0  0  0  0  0  0  0  0  0  0  0  0
  128.6048  133.0299  159.8493 H   0  0  0  0  0  0  0  0  0  0  0  0
  129.6890  134.1357  158.4499 C   0  0  0  0  0  0  0  0  0  0  0  0
  129.7212  135.4084  158.9937 N   0  0  0  0  0  0  0  0  0  0  0  0
  128.6190  135.8711  159.8408 C   0  0  1  0  0  0  0  0  0  0  0  0
  128.5275  135.2165  160.7075 H   0  0  0  0  0  0  0  0  0  0  0  0
  128.8963  137.2789  160.3012 C   0  0  0  0  0  0  0  0  0  0  0  0
  128.9907  137.5461  161.5963 C   0  0  0  0  0  0  0  0  0  0  0  0
  129.2627  138.9270  162.0480 C   0  0  0  0  0  0  0  0  0  0  0  0
  129.8243  139.8539  161.1692 C   0  0  0  0  0  0  0  0  0  0  0  0
  130.0713  141.1427  161.5957 C   0  0  0  0  0  0  0  0  0  0  0  0
  129.7725  141.5138  162.8945 C   0  0  0  0  0  0  0  0  0  0  0  0
  129.2203  140.5981  163.7723 C   0  0  0  0  0  0  0  0  0  0  0  0
  128.9641  139.3076  163.3569 C   0  0  0  0  0  0  0  0  0  0  0  0
  127.3345  135.8440  159.0530 C   0  0  0  0  0  0  0  0  0  0  0  0
  126.1330  135.6173  159.6979 C   0  0  0  0  0  0  0  0  0  0  0  0
  124.9543  135.5968  158.9760 C   0  0  0  0  0  0  0  0  0  0  0  0
  124.9781  135.7940  157.6079 C   0  0  0  0  0  0  0  0  0  0  0  0
  126.1803  136.0155  156.9624 C   0  0  0  0  0  0  0  0  0  0  0  0
  127.3585  136.0403  157.6849 C   0  0  0  0  0  0  0  0  0  0  0  0
  130.2347  133.7771  157.3134 N   0  0  0  0  0  0  0  0  0  0  0  0
  130.7276  134.3620  156.7167 H   0  0  0  0  0  0  0  0  0  0  0  0
  131.2915  130.5680  156.1132 C   0  0  0  0  0  0  0  0  0  0  0  0
  131.7029  129.8318  155.0211 C   0  0  0  0  0  0  0  0  0  0  0  0
  130.1402  131.5517  152.5698 H   0  0  0  0  0  0  0  0  0  0  0  0
  129.3891  132.8699  154.5062 H   0  0  0  0  0  0  0  0  0  0  0  0
  128.9372  130.9769  158.3001 H   0  0  0  0  0  0  0  0  0  0  0  0
  130.4735  135.9938  158.8138 H   0  0  0  0  0  0  0  0  0  0  0  0
  129.0181  138.0701  159.5764 H   0  0  0  0  0  0  0  0  0  0  0  0
  128.8690  136.7549  162.3212 H   0  0  0  0  0  0  0  0  0  0  0  0
  130.0623  139.5640  160.1563 H   0  0  0  0  0  0  0  0  0  0  0  0
  130.5025  141.8621  160.9153 H   0  0  0  0  0  0  0  0  0  0  0  0
  129.9715  142.5227  163.2246 H   0  0  0  0  0  0  0  0  0  0  0  0
  128.9896  140.8941  164.7851 H   0  0  0  0  0  0  0  0  0  0  0  0
  128.5337  138.5936  164.0433 H   0  0  0  0  0  0  0  0  0  0  0  0
  126.1147  135.4595  160.7661 H   0  0  0  0  0  0  0  0  0  0  0  0
  124.0150  135.4241  159.4803 H   0  0  0  0  0  0  0  0  0  0  0  0
  124.0575  135.7753  157.0434 H   0  0  0  0  0  0  0  0  0  0  0  0
  126.1989  136.1696  155.8936 H   0  0  0  0  0  0  0  0  0  0  0  0
  128.2977  136.2133  157.1806 H   0  0  0  0  0  0  0  0  0  0  0  0
  131.6173  130.2924  157.1053 H   0  0  0  0  0  0  0  0  0  0  0  0
  132.3510  128.9789  155.1592 H   0  0  0  0  0  0  0  0  0  0  0  0
  1  2  1  0
  2 31  2  0
  2  3  1  0
  3  4  2  0
  3 32  1  0
  4  5  1  0
  4 33  1  0
  5  6  1  0
  5 30  2  0
  6 28  1  0
  6  7  2  0
  7  8  1  0
  7 34  1  0
  8  9  1  0
  8 10  1  0
 10 11  1  0
 10 28  2  0
 11 12  1  0
 11 35  1  0
 12 13  1  1
 12 14  1  0
 12 22  1  0
 14 15  2  0
 14 36  1  0
 15 16  1  0
 15 37  1  0
 16 21  1  0
 16 17  2  0
 17 18  1  0
 17 38  1  0
 18 19  2  0
 18 39  1  0
 19 20  1  0
 19 40  1  0
 20 21  2  0
 20 41  1  0
 21 42  1  0
 22 27  1  0
 22 23  2  0
 23 24  1  0
 23 43  1  0
 24 25  2  0
 24 44  1  0
 25 26  1  0
 25 45  1  0
 26 27  2  0
 26 46  1  0
 27 47  1  0
 28 29  1  0
 30 31  1  0
 30 48  1  0
 31 49  1  0
M  CHG  1  28   1
M  END
>  <DOCK_score>  (1) 
-57.701633

>  <SMILES>  (1) 
Brc1ccc(-c2c[nH]c(N[C@@H](C=Cc3ccccc3)c3ccccc3)[nH+]2)cc1

$$$$
