Cn1nccc1[C@H](C=Cc1ccc(F)cc1)Nc1[nH]cc(-c2ccc(N)cc2)[nH+]1
     RDKit          3D

 51 54  0  0  1  0  0  0  0  0999 V2000
  126.5084  135.1208  161.4007 C   0  0  0  0  0  0  0  0  0  0  0  0
  126.5786  135.3479  159.9551 N   0  0  0  0  0  0  0  0  0  0  0  0
  125.4952  135.3472  159.0672 N   0  0  0  0  0  0  0  0  0  0  0  0
  125.9520  135.5863  157.8647 C   0  0  0  0  0  0  0  0  0  0  0  0
  127.3383  135.7517  157.9489 C   0  0  0  0  0  0  0  0  0  0  0  0
  127.6985  135.5953  159.2439 C   0  0  0  0  0  0  0  0  0  0  0  0
  129.0984  135.6876  159.7942 C   0  0  2  0  0  0  0  0  0  0  0  0
  129.1881  135.0434  160.6688 H   0  0  0  0  0  0  0  0  0  0  0  0
  129.3904  137.1126  160.1879 C   0  0  0  0  0  0  0  0  0  0  0  0
  129.6979  137.4034  161.4444 C   0  0  0  0  0  0  0  0  0  0  0  0
  129.9845  138.8010  161.8306 C   0  0  0  0  0  0  0  0  0  0  0  0
  130.3433  139.7363  160.8591 C   0  0  0  0  0  0  0  0  0  0  0  0
  130.6059  141.0402  161.2243 C   0  0  0  0  0  0  0  0  0  0  0  0
  130.5227  141.4198  162.5546 C   0  0  0  0  0  0  0  0  0  0  0  0
  130.7855  142.6971  162.9077 F   0  0  0  0  0  0  0  0  0  0  0  0
  130.1715  140.4938  163.5238 C   0  0  0  0  0  0  0  0  0  0  0  0
  129.9026  139.1884  163.1687 C   0  0  0  0  0  0  0  0  0  0  0  0
  130.0547  135.2580  158.7709 N   0  0  0  0  0  0  0  0  0  0  0  0
  129.9833  133.9767  158.2512 C   0  0  0  0  0  0  0  0  0  0  0  0
  129.5288  132.8775  158.9121 N   0  0  0  0  0  0  0  0  0  0  0  0
  129.2001  132.8506  159.8243 H   0  0  0  0  0  0  0  0  0  0  0  0
  129.6224  131.8122  158.0482 C   0  0  0  0  0  0  0  0  0  0  0  0
  130.1306  132.2917  156.8862 C   0  0  0  0  0  0  0  0  0  0  0  0
  130.4061  131.5007  155.6617 C   0  0  0  0  0  0  0  0  0  0  0  0
  129.7618  131.8170  154.4666 C   0  0  0  0  0  0  0  0  0  0  0  0
  130.0237  131.0841  153.3284 C   0  0  0  0  0  0  0  0  0  0  0  0
  130.9207  130.0233  153.3747 C   0  0  0  0  0  0  0  0  0  0  0  0
  131.1806  129.2783  152.2220 N   0  0  0  0  0  0  0  0  0  0  0  0
  131.5598  129.7026  154.5665 C   0  0  0  0  0  0  0  0  0  0  0  0
  131.3054  130.4365  155.7058 C   0  0  0  0  0  0  0  0  0  0  0  0
  130.3370  133.6236  157.0394 N   0  0  0  0  0  0  0  0  0  0  0  0
  130.6917  134.2194  156.3610 H   0  0  0  0  0  0  0  0  0  0  0  0
  126.3649  136.0730  161.9116 H   0  0  0  0  0  0  0  0  0  0  0  0
  125.6717  134.4589  161.6243 H   0  0  0  0  0  0  0  0  0  0  0  0
  127.4363  134.6616  161.7419 H   0  0  0  0  0  0  0  0  0  0  0  0
  125.3604  135.6489  156.9634 H   0  0  0  0  0  0  0  0  0  0  0  0
  128.0041  135.9643  157.1256 H   0  0  0  0  0  0  0  0  0  0  0  0
  129.3493  137.8969  159.4468 H   0  0  0  0  0  0  0  0  0  0  0  0
  129.7391  136.6190  162.1857 H   0  0  0  0  0  0  0  0  0  0  0  0
  130.4121  139.4405  159.8226 H   0  0  0  0  0  0  0  0  0  0  0  0
  130.8807  141.7655  160.4729 H   0  0  0  0  0  0  0  0  0  0  0  0
  130.1083  140.7947  164.5591 H   0  0  0  0  0  0  0  0  0  0  0  0
  129.6297  138.4674  163.9249 H   0  0  0  0  0  0  0  0  0  0  0  0
  130.7352  135.8725  158.4545 H   0  0  0  0  0  0  0  0  0  0  0  0
  129.3443  130.7893  158.2555 H   0  0  0  0  0  0  0  0  0  0  0  0
  129.0611  132.6381  154.4315 H   0  0  0  0  0  0  0  0  0  0  0  0
  129.5278  131.3313  152.4014 H   0  0  0  0  0  0  0  0  0  0  0  0
  131.8065  128.5388  152.2530 H   0  0  0  0  0  0  0  0  0  0  0  0
  130.7347  129.5022  151.3895 H   0  0  0  0  0  0  0  0  0  0  0  0
  132.2563  128.8778  154.6001 H   0  0  0  0  0  0  0  0  0  0  0  0
  131.8026  130.1870  156.6315 H   0  0  0  0  0  0  0  0  0  0  0  0
  1  2  1  0
  1 33  1  0
  1 34  1  0
  1 35  1  0
  2  6  1  0
  2  3  1  0
  3  4  2  0
  4  5  1  0
  4 36  1  0
  5  6  2  0
  5 37  1  0
  6  7  1  0
  7  8  1  1
  7  9  1  0
  7 18  1  0
  9 10  2  0
  9 38  1  0
 10 11  1  0
 10 39  1  0
 11 17  1  0
 11 12  2  0
 12 13  1  0
 12 40  1  0
 13 14  2  0
 13 41  1  0
 14 15  1  0
 14 16  1  0
 16 17  2  0
 16 42  1  0
 17 43  1  0
 18 44  1  0
 19 18  1  0
 19 31  2  0
 19 20  1  0
 20 21  1  0
 20 22  1  0
 22 23  2  0
 22 45  1  0
 23 24  1  0
 23 31  1  0
 24 30  1  0
 24 25  2  0
 25 26  1  0
 25 46  1  0
 26 27  2  0
 26 47  1  0
 27 28  1  0
 27 29  1  0
 28 48  1  0
 28 49  1  0
 29 30  2  0
 29 50  1  0
 30 51  1  0
 31 32  1  0
M  CHG  1  31   1
M  END
>  <DOCK_score>  (1) 
-59.278477

>  <SMILES>  (1) 
Cn1nccc1[C@H](C=Cc1ccc(F)cc1)Nc1[nH]cc(-c2ccc(N)cc2)[nH+]1

$$$$
