O=C1CC[C@H](NC(NC2CC=CC2)=[NH+]CCc2nc3ccccc3n2CC2CCCCC2)CN1
     RDKit          3D

 73 77  0  0  1  0  0  0  0  0999 V2000
  123.8472  133.7357  161.8502 O   0  0  0  0  0  0  0  0  0  0  0  0
  125.0280  133.9509  161.6765 C   0  0  0  0  0  0  0  0  0  0  0  0
  125.8855  132.8323  161.1581 C   0  0  0  0  0  0  0  0  0  0  0  0
  127.3614  133.1444  161.4171 C   0  0  0  0  0  0  0  0  0  0  0  0
  127.6468  134.5722  160.9361 C   0  0  2  0  0  0  0  0  0  0  0  0
  127.3065  134.6889  159.9072 H   0  0  0  0  0  0  0  0  0  0  0  0
  129.0857  134.8376  161.0109 N   0  0  0  0  0  0  0  0  0  0  0  0
  129.8927  134.5607  159.9329 C   0  0  0  0  0  0  0  0  0  0  0  0
  129.3495  134.0347  158.7846 N   0  0  0  0  0  0  0  0  0  0  0  0
  130.2095  133.7397  157.6359 C   0  0  0  0  0  0  0  0  0  0  0  0
  131.1673  132.5661  157.9464 C   0  0  0  0  0  0  0  0  0  0  0  0
  131.2584  131.7890  156.6538 C   0  0  0  0  0  0  0  0  0  0  0  0
  130.2881  132.1111  155.8424 C   0  0  0  0  0  0  0  0  0  0  0  0
  129.3880  133.1569  156.4585 C   0  0  0  0  0  0  0  0  0  0  0  0
  131.1729  134.7968  159.9994 N   0  0  0  0  0  0  0  0  0  0  0  0
  131.7422  134.6014  159.2388 H   0  0  0  0  0  0  0  0  0  0  0  0
  131.7517  135.3574  161.2229 C   0  0  0  0  0  0  0  0  0  0  0  0
  133.2600  135.5357  161.0383 C   0  0  0  0  0  0  0  0  0  0  0  0
  133.8554  136.1123  162.2968 C   0  0  0  0  0  0  0  0  0  0  0  0
  134.3172  135.4123  163.2916 N   0  0  0  0  0  0  0  0  0  0  0  0
  134.7784  136.2446  164.2603 C   0  0  0  0  0  0  0  0  0  0  0  0
  135.3644  136.0359  165.5116 C   0  0  0  0  0  0  0  0  0  0  0  0
  135.7328  137.1053  166.2777 C   0  0  0  0  0  0  0  0  0  0  0  0
  135.5305  138.4021  165.8268 C   0  0  0  0  0  0  0  0  0  0  0  0
  134.9542  138.6320  164.5959 C   0  0  0  0  0  0  0  0  0  0  0  0
  134.5738  137.5574  163.8032 C   0  0  0  0  0  0  0  0  0  0  0  0
  133.9937  137.4407  162.5560 N   0  0  0  0  0  0  0  0  0  0  0  0
  133.5969  138.5429  161.6762 C   0  0  0  0  0  0  0  0  0  0  0  0
  134.7656  138.9096  160.7594 C   0  0  0  0  0  0  0  0  0  0  0  0
  135.7572  139.7889  161.5240 C   0  0  0  0  0  0  0  0  0  0  0  0
  136.9258  140.1556  160.6070 C   0  0  0  0  0  0  0  0  0  0  0  0
  136.3993  140.9197  159.3906 C   0  0  0  0  0  0  0  0  0  0  0  0
  135.4079  140.0404  158.6260 C   0  0  0  0  0  0  0  0  0  0  0  0
  134.2391  139.6738  159.5428 C   0  0  0  0  0  0  0  0  0  0  0  0
  126.8967  135.5523  161.8390 C   0  0  0  0  0  0  0  0  0  0  0  0
  125.4955  135.1682  161.9557 N   0  0  0  0  0  0  0  0  0  0  0  0
  125.6171  131.9055  161.6650 H   0  0  0  0  0  0  0  0  0  0  0  0
  125.7223  132.7177  160.0865 H   0  0  0  0  0  0  0  0  0  0  0  0
  127.9872  132.4404  160.8687 H   0  0  0  0  0  0  0  0  0  0  0  0
  127.5705  133.0679  162.4842 H   0  0  0  0  0  0  0  0  0  0  0  0
  129.4689  135.2087  161.8210 H   0  0  0  0  0  0  0  0  0  0  0  0
  128.3969  133.8590  158.7351 H   0  0  0  0  0  0  0  0  0  0  0  0
  130.7637  134.6257  157.3262 H   0  0  0  0  0  0  0  0  0  0  0  0
  130.7560  131.9396  158.7380 H   0  0  0  0  0  0  0  0  0  0  0  0
  132.1491  132.9430  158.2329 H   0  0  0  0  0  0  0  0  0  0  0  0
  132.0254  131.0621  156.4307 H   0  0  0  0  0  0  0  0  0  0  0  0
  130.1469  131.6859  154.8596 H   0  0  0  0  0  0  0  0  0  0  0  0
  129.1598  133.9370  155.7323 H   0  0  0  0  0  0  0  0  0  0  0  0
  128.4690  132.6990  156.8243 H   0  0  0  0  0  0  0  0  0  0  0  0
  131.2942  136.3246  161.4312 H   0  0  0  0  0  0  0  0  0  0  0  0
  131.5651  134.6803  162.0564 H   0  0  0  0  0  0  0  0  0  0  0  0
  133.7173  134.5684  160.8300 H   0  0  0  0  0  0  0  0  0  0  0  0
  133.4464  136.2129  160.2047 H   0  0  0  0  0  0  0  0  0  0  0  0
  135.5262  135.0308  165.8722 H   0  0  0  0  0  0  0  0  0  0  0  0
  136.1857  136.9398  167.2440 H   0  0  0  0  0  0  0  0  0  0  0  0
  135.8268  139.2369  166.4445 H   0  0  0  0  0  0  0  0  0  0  0  0
  134.7995  139.6432  164.2495 H   0  0  0  0  0  0  0  0  0  0  0  0
  132.7434  138.2361  161.0717 H   0  0  0  0  0  0  0  0  0  0  0  0
  133.3227  139.4084  162.2793 H   0  0  0  0  0  0  0  0  0  0  0  0
  135.2668  138.0002  160.4282 H   0  0  0  0  0  0  0  0  0  0  0  0
  135.2559  140.6983  161.8551 H   0  0  0  0  0  0  0  0  0  0  0  0
  136.1321  139.2446  162.3906 H   0  0  0  0  0  0  0  0  0  0  0  0
  137.4271  139.2461  160.2759 H   0  0  0  0  0  0  0  0  0  0  0  0
  137.6322  140.7821  161.1518 H   0  0  0  0  0  0  0  0  0  0  0  0
  137.2320  141.1811  158.7375 H   0  0  0  0  0  0  0  0  0  0  0  0
  135.8981  141.8293  159.7218 H   0  0  0  0  0  0  0  0  0  0  0  0
  135.9091  139.1309  158.2949 H   0  0  0  0  0  0  0  0  0  0  0  0
  135.0327  140.5847  157.7593 H   0  0  0  0  0  0  0  0  0  0  0  0
  133.5327  139.0473  158.9981 H   0  0  0  0  0  0  0  0  0  0  0  0
  133.7379  140.5831  159.8740 H   0  0  0  0  0  0  0  0  0  0  0  0
  127.3538  135.5526  162.8285 H   0  0  0  0  0  0  0  0  0  0  0  0
  126.9616  136.5544  161.4152 H   0  0  0  0  0  0  0  0  0  0  0  0
  124.8635  135.8402  162.2554 H   0  0  0  0  0  0  0  0  0  0  0  0
  1  2  2  0
  2 36  1  0
  2  3  1  0
  3  4  1  0
  3 37  1  0
  3 38  1  0
  4  5  1  0
  4 39  1  0
  4 40  1  0
  5  6  1  6
  5  7  1  0
  5 35  1  0
  7 41  1  0
  8  7  1  0
  8  9  1  0
  8 15  2  0
  9 10  1  0
  9 42  1  0
 10 14  1  0
 10 11  1  0
 10 43  1  0
 11 12  1  0
 11 44  1  0
 11 45  1  0
 12 13  2  0
 12 46  1  0
 13 14  1  0
 13 47  1  0
 14 48  1  0
 14 49  1  0
 15 16  1  0
 15 17  1  0
 17 18  1  0
 17 50  1  0
 17 51  1  0
 18 19  1  0
 18 52  1  0
 18 53  1  0
 19 27  1  0
 19 20  2  0
 20 21  1  0
 21 26  2  0
 21 22  1  0
 22 23  2  0
 22 54  1  0
 23 24  1  0
 23 55  1  0
 24 25  2  0
 24 56  1  0
 25 26  1  0
 25 57  1  0
 26 27  1  0
 27 28  1  0
 28 29  1  0
 28 58  1  0
 28 59  1  0
 29 34  1  0
 29 30  1  0
 29 60  1  0
 30 31  1  0
 30 61  1  0
 30 62  1  0
 31 32  1  0
 31 63  1  0
 31 64  1  0
 32 33  1  0
 32 65  1  0
 32 66  1  0
 33 34  1  0
 33 67  1  0
 33 68  1  0
 34 69  1  0
 34 70  1  0
 35 36  1  0
 35 71  1  0
 35 72  1  0
 36 73  1  0
M  CHG  1  15   1
M  END
>  <DOCK_score>  (1) 
-50.573956

>  <SMILES>  (1) 
O=C1CC[C@H](NC(NC2CC=CC2)=[NH+]CCc2nc3ccccc3n2CC2CCCCC2)CN1

$$$$
