CCc1ccc(-c2c[nH]c(N[C@@H](Cc3ccc(-c4ccc(N)cc4)cc3)C3CC3)[nH+]2)cc1
     RDKit          3D

 63 67  0  0  1  0  0  0  0  0999 V2000
  130.6526  128.8665  151.9025 C   0  0  0  0  0  0  0  0  0  0  0  0
  131.8434  129.6544  152.4523 C   0  0  0  0  0  0  0  0  0  0  0  0
  131.4170  130.4178  153.6797 C   0  0  0  0  0  0  0  0  0  0  0  0
  131.5243  129.8310  154.9277 C   0  0  0  0  0  0  0  0  0  0  0  0
  131.1407  130.5274  156.0558 C   0  0  0  0  0  0  0  0  0  0  0  0
  130.6339  131.8201  155.9346 C   0  0  0  0  0  0  0  0  0  0  0  0
  130.2148  132.5717  157.1429 C   0  0  0  0  0  0  0  0  0  0  0  0
  129.7317  132.0334  158.2900 C   0  0  0  0  0  0  0  0  0  0  0  0
  129.4713  133.0789  159.1421 N   0  0  0  0  0  0  0  0  0  0  0  0
  129.1165  133.0116  160.0424 H   0  0  0  0  0  0  0  0  0  0  0  0
  129.8033  134.2265  158.4903 C   0  0  0  0  0  0  0  0  0  0  0  0
  129.6905  135.5071  159.0040 N   0  0  0  0  0  0  0  0  0  0  0  0
  128.6470  135.8134  159.9855 C   0  0  1  0  0  0  0  0  0  0  0  0
  128.5522  134.9835  160.6858 H   0  0  0  0  0  0  0  0  0  0  0  0
  129.0226  137.0849  160.7492 C   0  0  0  0  0  0  0  0  0  0  0  0
  130.3349  136.8749  161.4599 C   0  0  0  0  0  0  0  0  0  0  0  0
  131.5218  137.1845  160.8208 C   0  0  0  0  0  0  0  0  0  0  0  0
  132.7262  136.9989  161.4687 C   0  0  0  0  0  0  0  0  0  0  0  0
  132.7454  136.4879  162.7652 C   0  0  0  0  0  0  0  0  0  0  0  0
  134.0372  136.2799  163.4643 C   0  0  0  0  0  0  0  0  0  0  0  0
  134.1054  136.3901  164.8522 C   0  0  0  0  0  0  0  0  0  0  0  0
  135.3056  136.1912  165.5003 C   0  0  0  0  0  0  0  0  0  0  0  0
  136.4497  135.8915  164.7703 C   0  0  0  0  0  0  0  0  0  0  0  0
  137.6650  135.6958  165.4279 N   0  0  0  0  0  0  0  0  0  0  0  0
  136.3852  135.7864  163.3851 C   0  0  0  0  0  0  0  0  0  0  0  0
  135.1858  135.9794  162.7336 C   0  0  0  0  0  0  0  0  0  0  0  0
  131.5467  136.1728  163.4022 C   0  0  0  0  0  0  0  0  0  0  0  0
  130.3479  136.3680  162.7469 C   0  0  0  0  0  0  0  0  0  0  0  0
  127.3148  136.0266  159.2639 C   0  0  0  0  0  0  0  0  0  0  0  0
  126.0371  135.6367  160.0098 C   0  0  0  0  0  0  0  0  0  0  0  0
  126.5330  134.7811  158.8413 C   0  0  0  0  0  0  0  0  0  0  0  0
  130.2526  133.9190  157.2980 N   0  0  0  0  0  0  0  0  0  0  0  0
  130.5607  134.5535  156.6321 H   0  0  0  0  0  0  0  0  0  0  0  0
  130.5229  132.4042  154.6740 C   0  0  0  0  0  0  0  0  0  0  0  0
  130.9148  131.7005  153.5534 C   0  0  0  0  0  0  0  0  0  0  0  0
  130.9610  128.3143  151.0148 H   0  0  0  0  0  0  0  0  0  0  0  0
  130.2984  128.1676  152.6603 H   0  0  0  0  0  0  0  0  0  0  0  0
  129.8501  129.5561  151.6410 H   0  0  0  0  0  0  0  0  0  0  0  0
  132.6459  128.9647  152.7138 H   0  0  0  0  0  0  0  0  0  0  0  0
  132.1976  130.3533  151.6945 H   0  0  0  0  0  0  0  0  0  0  0  0
  131.9126  128.8275  155.0200 H   0  0  0  0  0  0  0  0  0  0  0  0
  131.2292  130.0701  157.0302 H   0  0  0  0  0  0  0  0  0  0  0  0
  129.5810  130.9838  158.4945 H   0  0  0  0  0  0  0  0  0  0  0  0
  130.3025  136.2016  158.7140 H   0  0  0  0  0  0  0  0  0  0  0  0
  129.1173  137.9147  160.0490 H   0  0  0  0  0  0  0  0  0  0  0  0
  128.2462  137.3127  161.4797 H   0  0  0  0  0  0  0  0  0  0  0  0
  131.5060  137.5762  159.8144 H   0  0  0  0  0  0  0  0  0  0  0  0
  133.6522  137.2444  160.9700 H   0  0  0  0  0  0  0  0  0  0  0  0
  133.2176  136.6272  165.4196 H   0  0  0  0  0  0  0  0  0  0  0  0
  135.3581  136.2725  166.5760 H   0  0  0  0  0  0  0  0  0  0  0  0
  138.4639  135.4864  164.9185 H   0  0  0  0  0  0  0  0  0  0  0  0
  137.7110  135.7691  166.3937 H   0  0  0  0  0  0  0  0  0  0  0  0
  137.2753  135.5535  162.8194 H   0  0  0  0  0  0  0  0  0  0  0  0
  135.1361  135.8982  161.6578 H   0  0  0  0  0  0  0  0  0  0  0  0
  131.5559  135.7768  164.4069 H   0  0  0  0  0  0  0  0  0  0  0  0
  129.4183  136.1240  163.2395 H   0  0  0  0  0  0  0  0  0  0  0  0
  127.2693  136.8960  158.6080 H   0  0  0  0  0  0  0  0  0  0  0  0
  126.1455  135.2283  161.0145 H   0  0  0  0  0  0  0  0  0  0  0  0
  125.1508  136.2493  159.8443 H   0  0  0  0  0  0  0  0  0  0  0  0
  125.9729  134.8314  157.9076 H   0  0  0  0  0  0  0  0  0  0  0  0
  126.9680  133.8099  159.0771 H   0  0  0  0  0  0  0  0  0  0  0  0
  130.1307  133.4056  154.5743 H   0  0  0  0  0  0  0  0  0  0  0  0
  130.8296  132.1522  152.5762 H   0  0  0  0  0  0  0  0  0  0  0  0
  1  2  1  0
  1 36  1  0
  1 37  1  0
  1 38  1  0
  2  3  1  0
  2 39  1  0
  2 40  1  0
  3 35  2  0
  3  4  1  0
  4  5  2  0
  4 41  1  0
  5  6  1  0
  5 42  1  0
  6  7  1  0
  6 34  2  0
  7 32  1  0
  7  8  2  0
  8  9  1  0
  8 43  1  0
  9 10  1  0
  9 11  1  0
 11 12  1  0
 11 32  2  0
 12 13  1  0
 12 44  1  0
 13 14  1  1
 13 15  1  0
 13 29  1  0
 15 16  1  0
 15 45  1  0
 15 46  1  0
 16 28  1  0
 16 17  2  0
 17 18  1  0
 17 47  1  0
 18 19  2  0
 18 48  1  0
 19 20  1  0
 19 27  1  0
 20 26  1  0
 20 21  2  0
 21 22  1  0
 21 49  1  0
 22 23  2  0
 22 50  1  0
 23 24  1  0
 23 25  1  0
 24 51  1  0
 24 52  1  0
 25 26  2  0
 25 53  1  0
 26 54  1  0
 27 28  2  0
 27 55  1  0
 28 56  1  0
 29 31  1  0
 29 30  1  0
 29 57  1  0
 30 31  1  0
 30 58  1  0
 30 59  1  0
 31 60  1  0
 31 61  1  0
 32 33  1  0
 34 35  1  0
 34 62  1  0
 35 63  1  0
M  CHG  1  32   1
M  END
>  <DOCK_score>  (1) 
-57.936543

>  <SMILES>  (1) 
CCc1ccc(-c2c[nH]c(N[C@@H](Cc3ccc(-c4ccc(N)cc4)cc3)C3CC3)[nH+]2)cc1

$$$$
