Oc1ccc(Sc2ccc(-c3ccccc3)cc2)c(Nc2[nH]cc(-c3ccccc3)[nH+]2)c1
     RDKit          3D

 54 58  0  0  1  0  0  0  0  0999 V2000
  126.4156  136.0498  162.5769 O   0  0  0  0  0  0  0  0  0  0  0  0
  127.5671  135.4299  162.2037 C   0  0  0  0  0  0  0  0  0  0  0  0
  128.3395  134.7743  163.1516 C   0  0  0  0  0  0  0  0  0  0  0  0
  129.5107  134.1432  162.7768 C   0  0  0  0  0  0  0  0  0  0  0  0
  129.9173  134.1644  161.4508 C   0  0  0  0  0  0  0  0  0  0  0  0
  131.4111  133.3610  160.9731 S   0  0  0  0  0  0  0  0  0  0  0  0
  132.6197  134.6299  161.1564 C   0  0  0  0  0  0  0  0  0  0  0  0
  133.2790  134.7911  162.3705 C   0  0  0  0  0  0  0  0  0  0  0  0
  134.2247  135.7831  162.5159 C   0  0  0  0  0  0  0  0  0  0  0  0
  134.5205  136.6254  161.4447 C   0  0  0  0  0  0  0  0  0  0  0  0
  135.5376  137.6939  161.5989 C   0  0  0  0  0  0  0  0  0  0  0  0
  135.4301  138.8732  160.8643 C   0  0  0  0  0  0  0  0  0  0  0  0
  136.3797  139.8638  161.0118 C   0  0  0  0  0  0  0  0  0  0  0  0
  137.4364  139.6878  161.8874 C   0  0  0  0  0  0  0  0  0  0  0  0
  137.5510  138.5172  162.6147 C   0  0  0  0  0  0  0  0  0  0  0  0
  136.6044  137.5220  162.4793 C   0  0  0  0  0  0  0  0  0  0  0  0
  133.8547  136.4656  160.2300 C   0  0  0  0  0  0  0  0  0  0  0  0
  132.9137  135.4690  160.0866 C   0  0  0  0  0  0  0  0  0  0  0  0
  129.1450  134.8276  160.4969 C   0  0  0  0  0  0  0  0  0  0  0  0
  129.5550  134.8562  159.1586 N   0  0  0  0  0  0  0  0  0  0  0  0
  129.7144  133.6722  158.4579 C   0  0  0  0  0  0  0  0  0  0  0  0
  129.5107  132.4221  158.9564 N   0  0  0  0  0  0  0  0  0  0  0  0
  129.2301  132.2020  159.8585 H   0  0  0  0  0  0  0  0  0  0  0  0
  129.7722  131.5302  157.9454 C   0  0  0  0  0  0  0  0  0  0  0  0
  130.1369  132.2595  156.8616 C   0  0  0  0  0  0  0  0  0  0  0  0
  130.5180  131.7190  155.5338 C   0  0  0  0  0  0  0  0  0  0  0  0
  130.2688  132.4592  154.3795 C   0  0  0  0  0  0  0  0  0  0  0  0
  130.6312  131.9541  153.1474 C   0  0  0  0  0  0  0  0  0  0  0  0
  131.2294  130.7103  153.0557 C   0  0  0  0  0  0  0  0  0  0  0  0
  131.4740  129.9688  154.1976 C   0  0  0  0  0  0  0  0  0  0  0  0
  131.1217  130.4665  155.4355 C   0  0  0  0  0  0  0  0  0  0  0  0
  130.0919  133.5704  157.2066 N   0  0  0  0  0  0  0  0  0  0  0  0
  130.3054  134.3138  156.6213 H   0  0  0  0  0  0  0  0  0  0  0  0
  127.9677  135.4544  160.8765 C   0  0  0  0  0  0  0  0  0  0  0  0
  125.9462  136.4791  161.8486 H   0  0  0  0  0  0  0  0  0  0  0  0
  128.0250  134.7572  164.1847 H   0  0  0  0  0  0  0  0  0  0  0  0
  130.1098  133.6337  163.5169 H   0  0  0  0  0  0  0  0  0  0  0  0
  133.0494  134.1388  163.2002 H   0  0  0  0  0  0  0  0  0  0  0  0
  134.7366  135.9078  163.4585 H   0  0  0  0  0  0  0  0  0  0  0  0
  134.6056  139.0115  160.1805 H   0  0  0  0  0  0  0  0  0  0  0  0
  136.2974  140.7783  160.4431 H   0  0  0  0  0  0  0  0  0  0  0  0
  138.1778  140.4653  161.9986 H   0  0  0  0  0  0  0  0  0  0  0  0
  138.3805  138.3832  163.2932 H   0  0  0  0  0  0  0  0  0  0  0  0
  136.6927  136.6098  163.0510 H   0  0  0  0  0  0  0  0  0  0  0  0
  134.0797  137.1197  159.4004 H   0  0  0  0  0  0  0  0  0  0  0  0
  132.4012  135.3421  159.1444 H   0  0  0  0  0  0  0  0  0  0  0  0
  129.7274  135.7051  158.7223 H   0  0  0  0  0  0  0  0  0  0  0  0
  129.7048  130.4539  158.0036 H   0  0  0  0  0  0  0  0  0  0  0  0
  129.7972  133.4283  154.4495 H   0  0  0  0  0  0  0  0  0  0  0  0
  130.4431  132.5290  152.2526 H   0  0  0  0  0  0  0  0  0  0  0  0
  131.5070  130.3167  152.0889 H   0  0  0  0  0  0  0  0  0  0  0  0
  131.9422  128.9985  154.1201 H   0  0  0  0  0  0  0  0  0  0  0  0
  131.3135  129.8868  156.3262 H   0  0  0  0  0  0  0  0  0  0  0  0
  127.3655  135.9652  160.1396 H   0  0  0  0  0  0  0  0  0  0  0  0
  1  2  1  0
  1 35  1  0
  2 34  2  0
  2  3  1  0
  3  4  2  0
  3 36  1  0
  4  5  1  0
  4 37  1  0
  5  6  1  0
  5 19  2  0
  6  7  1  0
  7 18  1  0
  7  8  2  0
  8  9  1  0
  8 38  1  0
  9 10  2  0
  9 39  1  0
 10 11  1  0
 10 17  1  0
 11 16  1  0
 11 12  2  0
 12 13  1  0
 12 40  1  0
 13 14  2  0
 13 41  1  0
 14 15  1  0
 14 42  1  0
 15 16  2  0
 15 43  1  0
 16 44  1  0
 17 18  2  0
 17 45  1  0
 18 46  1  0
 19 20  1  0
 19 34  1  0
 20 47  1  0
 21 20  1  0
 21 32  2  0
 21 22  1  0
 22 23  1  0
 22 24  1  0
 24 25  2  0
 24 48  1  0
 25 26  1  0
 25 32  1  0
 26 31  1  0
 26 27  2  0
 27 28  1  0
 27 49  1  0
 28 29  2  0
 28 50  1  0
 29 30  1  0
 29 51  1  0
 30 31  2  0
 30 52  1  0
 31 53  1  0
 32 33  1  0
 34 54  1  0
M  CHG  1  32   1
M  END
>  <DOCK_score>  (1) 
-58.266449

>  <SMILES>  (1) 
Oc1ccc(Sc2ccc(-c3ccccc3)cc2)c(Nc2[nH]cc(-c3ccccc3)[nH+]2)c1

$$$$
