[NH3+][C@H](Cc1ccccc1-c1ccc(CO)cc1)C(=O)Nc1cccc(O)c1
     RDKit          3D

 50 52  0  0  1  0  0  0  0  0999 V2000
  131.3630  134.0287  157.9977 N   0  0  0  0  0  0  0  0  0  0  0  0
  130.7293  134.2130  157.2345 H   0  0  0  0  0  0  0  0  0  0  0  0
  132.2321  134.5158  157.8384 H   0  0  0  0  0  0  0  0  0  0  0  0
  131.5392  133.0370  158.0565 H   0  0  0  0  0  0  0  0  0  0  0  0
  130.7636  134.4950  159.2552 C   0  0  2  0  0  0  0  0  0  0  0  0
  130.5733  135.5663  159.1917 H   0  0  0  0  0  0  0  0  0  0  0  0
  131.7246  134.2156  160.4125 C   0  0  0  0  0  0  0  0  0  0  0  0
  131.1100  134.6939  161.7027 C   0  0  0  0  0  0  0  0  0  0  0  0
  130.3301  133.8394  162.4557 C   0  0  0  0  0  0  0  0  0  0  0  0
  129.7653  134.2771  163.6399 C   0  0  0  0  0  0  0  0  0  0  0  0
  129.9783  135.5725  164.0763 C   0  0  0  0  0  0  0  0  0  0  0  0
  130.7562  136.4352  163.3315 C   0  0  0  0  0  0  0  0  0  0  0  0
  131.3323  135.9978  162.1404 C   0  0  0  0  0  0  0  0  0  0  0  0
  132.1749  136.9190  161.3383 C   0  0  0  0  0  0  0  0  0  0  0  0
  133.5477  136.9885  161.5662 C   0  0  0  0  0  0  0  0  0  0  0  0
  134.3274  137.8426  160.8130 C   0  0  0  0  0  0  0  0  0  0  0  0
  133.7466  138.6378  159.8416 C   0  0  0  0  0  0  0  0  0  0  0  0
  134.6021  139.5734  159.0269 C   0  0  0  0  0  0  0  0  0  0  0  0
  134.2381  139.4736  157.6487 O   0  0  0  0  0  0  0  0  0  0  0  0
  132.3835  138.5771  159.6150 C   0  0  0  0  0  0  0  0  0  0  0  0
  131.5952  137.7220  160.3581 C   0  0  0  0  0  0  0  0  0  0  0  0
  129.4657  133.7675  159.4931 C   0  0  0  0  0  0  0  0  0  0  0  0
  129.4577  132.5589  159.5952 O   0  0  0  0  0  0  0  0  0  0  0  0
  128.3135  134.4596  159.5925 N   0  0  0  0  0  0  0  0  0  0  0  0
  127.1083  133.7841  159.8134 C   0  0  0  0  0  0  0  0  0  0  0  0
  126.9383  132.4905  159.3360 C   0  0  0  0  0  0  0  0  0  0  0  0
  125.7488  131.8234  159.5549 C   0  0  0  0  0  0  0  0  0  0  0  0
  124.7268  132.4385  160.2530 C   0  0  0  0  0  0  0  0  0  0  0  0
  124.8889  133.7325  160.7272 C   0  0  0  0  0  0  0  0  0  0  0  0
  123.8811  134.3380  161.4089 O   0  0  0  0  0  0  0  0  0  0  0  0
  126.0814  134.4051  160.5099 C   0  0  0  0  0  0  0  0  0  0  0  0
  131.9150  133.1442  160.4761 H   0  0  0  0  0  0  0  0  0  0  0  0
  132.6635  134.7418  160.2403 H   0  0  0  0  0  0  0  0  0  0  0  0
  130.1603  132.8272  162.1193 H   0  0  0  0  0  0  0  0  0  0  0  0
  129.1555  133.6053  164.2256 H   0  0  0  0  0  0  0  0  0  0  0  0
  129.5347  135.9092  165.0016 H   0  0  0  0  0  0  0  0  0  0  0  0
  130.9216  137.4463  163.6731 H   0  0  0  0  0  0  0  0  0  0  0  0
  134.0015  136.3716  162.3277 H   0  0  0  0  0  0  0  0  0  0  0  0
  135.3922  137.8940  160.9859 H   0  0  0  0  0  0  0  0  0  0  0  0
  134.4496  140.5968  159.3698 H   0  0  0  0  0  0  0  0  0  0  0  0
  135.6513  139.3028  159.1461 H   0  0  0  0  0  0  0  0  0  0  0  0
  134.3485  138.5883  157.2758 H   0  0  0  0  0  0  0  0  0  0  0  0
  131.9351  139.2002  158.8553 H   0  0  0  0  0  0  0  0  0  0  0  0
  130.5309  137.6751  160.1800 H   0  0  0  0  0  0  0  0  0  0  0  0
  128.3198  135.4262  159.5109 H   0  0  0  0  0  0  0  0  0  0  0  0
  127.7369  132.0061  158.7938 H   0  0  0  0  0  0  0  0  0  0  0  0
  125.6187  130.8177  159.1834 H   0  0  0  0  0  0  0  0  0  0  0  0
  123.7996  131.9127  160.4265 H   0  0  0  0  0  0  0  0  0  0  0  0
  124.0871  135.2372  161.6988 H   0  0  0  0  0  0  0  0  0  0  0  0
  126.2107  135.4108  160.8818 H   0  0  0  0  0  0  0  0  0  0  0  0
  1  2  1  0
  1  3  1  0
  1  4  1  0
  1  5  1  0
  5  6  1  6
  5  7  1  0
  5 22  1  0
  7  8  1  0
  7 32  1  0
  7 33  1  0
  8 13  1  0
  8  9  2  0
  9 10  1  0
  9 34  1  0
 10 11  2  0
 10 35  1  0
 11 12  1  0
 11 36  1  0
 12 13  2  0
 12 37  1  0
 13 14  1  0
 14 21  1  0
 14 15  2  0
 15 16  1  0
 15 38  1  0
 16 17  2  0
 16 39  1  0
 17 18  1  0
 17 20  1  0
 18 19  1  0
 18 40  1  0
 18 41  1  0
 19 42  1  0
 20 21  2  0
 20 43  1  0
 21 44  1  0
 22 23  2  0
 22 24  1  0
 24 25  1  0
 24 45  1  0
 25 31  1  0
 25 26  2  0
 26 27  1  0
 26 46  1  0
 27 28  2  0
 27 47  1  0
 28 29  1  0
 28 48  1  0
 29 30  1  0
 29 31  2  0
 30 49  1  0
 31 50  1  0
M  CHG  1   1   1
M  END
>  <DOCK_score>  (1) 
-45.761311

>  <SMILES>  (1) 
[NH3+][C@H](Cc1ccccc1-c1ccc(CO)cc1)C(=O)Nc1cccc(O)c1

$$$$
