O[C@@H]1[C@H](O)C=C[C@H]1[NH+]=C(NC1CC1)N[C@@H]1COc2cc(Cl)ccc2C1
     RDKit          3D

 48 51  0  0  1  0  0  0  0  0999 V2000
  127.3414  136.0260  161.1544 O   0  0  0  0  0  0  0  0  0  0  0  0
  126.8906  134.7875  160.6023 C   0  0  2  0  0  0  0  0  0  0  0  0
  126.8721  134.8300  159.5133 H   0  0  0  0  0  0  0  0  0  0  0  0
  125.5037  134.4005  161.1663 C   0  0  2  0  0  0  0  0  0  0  0  0
  124.7173  134.6791  160.4648 H   0  0  0  0  0  0  0  0  0  0  0  0
  125.2883  135.0276  162.4321 O   0  0  0  0  0  0  0  0  0  0  0  0
  125.5592  132.8989  161.3255 C   0  0  0  0  0  0  0  0  0  0  0  0
  126.7906  132.4675  161.2878 C   0  0  0  0  0  0  0  0  0  0  0  0
  127.7616  133.6094  161.0972 C   0  0  1  0  0  0  0  0  0  0  0  0
  128.2421  133.8611  162.0425 H   0  0  0  0  0  0  0  0  0  0  0  0
  128.7679  133.2610  160.0911 N   0  0  0  0  0  0  0  0  0  0  0  0
  128.7811  132.3707  159.7063 H   0  0  0  0  0  0  0  0  0  0  0  0
  129.6453  134.1475  159.7129 C   0  0  0  0  0  0  0  0  0  0  0  0
  130.1567  134.1080  158.4373 N   0  0  0  0  0  0  0  0  0  0  0  0
  129.7153  133.0693  157.5031 C   0  0  0  0  0  0  0  0  0  0  0  0
  130.7678  132.4610  156.5741 C   0  0  0  0  0  0  0  0  0  0  0  0
  129.7106  133.4153  156.0128 C   0  0  0  0  0  0  0  0  0  0  0  0
  130.0595  135.1222  160.5895 N   0  0  0  0  0  0  0  0  0  0  0  0
  131.4116  135.6762  160.4835 C   0  0  2  0  0  0  0  0  0  0  0  0
  131.9404  135.1991  159.6585 H   0  0  0  0  0  0  0  0  0  0  0  0
  132.1731  135.4357  161.7935 C   0  0  0  0  0  0  0  0  0  0  0  0
  133.5156  135.8927  161.6241 O   0  0  0  0  0  0  0  0  0  0  0  0
  133.7026  137.1346  161.1065 C   0  0  0  0  0  0  0  0  0  0  0  0
  134.9447  137.7405  161.2675 C   0  0  0  0  0  0  0  0  0  0  0  0
  135.1751  139.0005  160.7517 C   0  0  0  0  0  0  0  0  0  0  0  0
  136.7284  139.7498  160.9501 Cl  0  0  0  0  0  0  0  0  0  0  0  0
  134.1680  139.6629  160.0716 C   0  0  0  0  0  0  0  0  0  0  0  0
  132.9342  139.0641  159.9113 C   0  0  0  0  0  0  0  0  0  0  0  0
  132.6970  137.8015  160.4292 C   0  0  0  0  0  0  0  0  0  0  0  0
  131.3331  137.1859  160.2432 C   0  0  0  0  0  0  0  0  0  0  0  0
  127.3172  136.0580  162.1206 H   0  0  0  0  0  0  0  0  0  0  0  0
  125.2660  135.9935  162.3939 H   0  0  0  0  0  0  0  0  0  0  0  0
  124.6937  132.2657  161.4534 H   0  0  0  0  0  0  0  0  0  0  0  0
  127.0776  131.4305  161.3804 H   0  0  0  0  0  0  0  0  0  0  0  0
  130.8098  134.7676  158.1559 H   0  0  0  0  0  0  0  0  0  0  0  0
  128.9270  132.4115  157.8696 H   0  0  0  0  0  0  0  0  0  0  0  0
  131.7887  132.8336  156.6579 H   0  0  0  0  0  0  0  0  0  0  0  0
  130.6719  131.4032  156.3291 H   0  0  0  0  0  0  0  0  0  0  0  0
  128.9196  132.9847  155.3986 H   0  0  0  0  0  0  0  0  0  0  0  0
  130.0360  134.4156  155.7273 H   0  0  0  0  0  0  0  0  0  0  0  0
  129.4566  135.4432  161.2783 H   0  0  0  0  0  0  0  0  0  0  0  0
  132.1743  134.3711  162.0273 H   0  0  0  0  0  0  0  0  0  0  0  0
  131.6963  135.9888  162.6028 H   0  0  0  0  0  0  0  0  0  0  0  0
  135.7310  137.2236  161.7976 H   0  0  0  0  0  0  0  0  0  0  0  0
  134.3473  140.6478  159.6660 H   0  0  0  0  0  0  0  0  0  0  0  0
  132.1501  139.5829  159.3799 H   0  0  0  0  0  0  0  0  0  0  0  0
  130.6348  137.6302  160.9525 H   0  0  0  0  0  0  0  0  0  0  0  0
  130.9858  137.3738  159.2272 H   0  0  0  0  0  0  0  0  0  0  0  0
  1  2  1  0
  1 31  1  0
  2  3  1  6
  2  9  1  0
  2  4  1  0
  4  5  1  6
  4  6  1  0
  4  7  1  0
  6 32  1  0
  7  8  2  0
  7 33  1  0
  8  9  1  0
  8 34  1  0
  9 10  1  1
  9 11  1  0
 11 12  1  0
 13 11  2  0
 13 14  1  0
 13 18  1  0
 14 15  1  0
 14 35  1  0
 15 17  1  0
 15 16  1  0
 15 36  1  0
 16 17  1  0
 16 37  1  0
 16 38  1  0
 17 39  1  0
 17 40  1  0
 18 19  1  0
 18 41  1  0
 19 20  1  6
 19 30  1  0
 19 21  1  0
 21 22  1  0
 21 42  1  0
 21 43  1  0
 22 23  1  0
 23 29  2  0
 23 24  1  0
 24 25  2  0
 24 44  1  0
 25 26  1  0
 25 27  1  0
 27 28  2  0
 27 45  1  0
 28 29  1  0
 28 46  1  0
 29 30  1  0
 30 47  1  0
 30 48  1  0
M  CHG  1  11   1
M  END
>  <DOCK_score>  (1) 
-43.581032

>  <SMILES>  (1) 
O[C@@H]1[C@H](O)C=C[C@H]1[NH+]=C(NC1CC1)N[C@@H]1COc2cc(Cl)ccc2C1

$$$$
