Oc1ccc(-c2ccc(Nc3ccc(Nc4[nH]cc(-c5ccc(Br)cc5)[nH+]4)cn3)cc2)cc1
     RDKit          3D

 54 58  0  0  1  0  0  0  0  0999 V2000
  128.6454  139.3907  171.6450 O   0  0  0  0  0  0  0  0  0  0  0  0
  128.2926  139.0424  170.3797 C   0  0  0  0  0  0  0  0  0  0  0  0
  128.6184  137.7846  169.8915 C   0  0  0  0  0  0  0  0  0  0  0  0
  128.2620  137.4280  168.6078 C   0  0  0  0  0  0  0  0  0  0  0  0
  127.5739  138.3322  167.8003 C   0  0  0  0  0  0  0  0  0  0  0  0
  127.1893  137.9517  166.4191 C   0  0  0  0  0  0  0  0  0  0  0  0
  127.0940  138.9269  165.4275 C   0  0  0  0  0  0  0  0  0  0  0  0
  126.7368  138.5712  164.1443 C   0  0  0  0  0  0  0  0  0  0  0  0
  126.4715  137.2411  163.8391 C   0  0  0  0  0  0  0  0  0  0  0  0
  126.1093  136.8829  162.5387 N   0  0  0  0  0  0  0  0  0  0  0  0
  127.0908  136.5361  161.6125 C   0  0  0  0  0  0  0  0  0  0  0  0
  128.4292  136.5486  161.9918 C   0  0  0  0  0  0  0  0  0  0  0  0
  129.3953  136.2026  161.0654 C   0  0  0  0  0  0  0  0  0  0  0  0
  128.9864  135.8475  159.7803 C   0  0  0  0  0  0  0  0  0  0  0  0
  129.9301  135.4845  158.8111 N   0  0  0  0  0  0  0  0  0  0  0  0
  129.8802  134.2269  158.2328 C   0  0  0  0  0  0  0  0  0  0  0  0
  129.4129  133.0970  158.8311 N   0  0  0  0  0  0  0  0  0  0  0  0
  129.0584  133.0281  159.7314 H   0  0  0  0  0  0  0  0  0  0  0  0
  129.5366  132.0724  157.9248 C   0  0  0  0  0  0  0  0  0  0  0  0
  130.0753  132.6048  156.7997 C   0  0  0  0  0  0  0  0  0  0  0  0
  130.3904  131.8697  155.5505 C   0  0  0  0  0  0  0  0  0  0  0  0
  130.3318  132.5232  154.3208 C   0  0  0  0  0  0  0  0  0  0  0  0
  130.6309  131.8360  153.1620 C   0  0  0  0  0  0  0  0  0  0  0  0
  130.9776  130.4972  153.2185 C   0  0  0  0  0  0  0  0  0  0  0  0
  131.3786  129.5598  151.6258 Br  0  0  0  0  0  0  0  0  0  0  0  0
  131.0322  129.8422  154.4367 C   0  0  0  0  0  0  0  0  0  0  0  0
  130.7404  130.5216  155.6018 C   0  0  0  0  0  0  0  0  0  0  0  0
  130.2698  133.9295  157.0170 N   0  0  0  0  0  0  0  0  0  0  0  0
  130.6401  134.5562  156.3759 H   0  0  0  0  0  0  0  0  0  0  0  0
  127.6343  135.8622  159.4729 C   0  0  0  0  0  0  0  0  0  0  0  0
  126.7391  136.1979  160.3823 N   0  0  0  0  0  0  0  0  0  0  0  0
  126.5607  136.2679  164.8278 C   0  0  0  0  0  0  0  0  0  0  0  0
  126.9228  136.6185  166.1109 C   0  0  0  0  0  0  0  0  0  0  0  0
  127.2532  139.5968  168.2915 C   0  0  0  0  0  0  0  0  0  0  0  0
  127.6079  139.9456  169.5777 C   0  0  0  0  0  0  0  0  0  0  0  0
  128.3768  140.2858  171.8957 H   0  0  0  0  0  0  0  0  0  0  0  0
  129.1515  137.0845  170.5175 H   0  0  0  0  0  0  0  0  0  0  0  0
  128.5163  136.4493  168.2284 H   0  0  0  0  0  0  0  0  0  0  0  0
  127.2997  139.9604  165.6642 H   0  0  0  0  0  0  0  0  0  0  0  0
  126.6633  139.3263  163.3757 H   0  0  0  0  0  0  0  0  0  0  0  0
  125.1744  136.8756  162.2801 H   0  0  0  0  0  0  0  0  0  0  0  0
  128.7100  136.8254  162.9973 H   0  0  0  0  0  0  0  0  0  0  0  0
  130.4419  136.2033  161.3319 H   0  0  0  0  0  0  0  0  0  0  0  0
  130.6187  136.1137  158.5448 H   0  0  0  0  0  0  0  0  0  0  0  0
  129.2581  131.0403  158.0786 H   0  0  0  0  0  0  0  0  0  0  0  0
  130.0566  133.5666  154.2753 H   0  0  0  0  0  0  0  0  0  0  0  0
  130.5900  132.3427  152.2092 H   0  0  0  0  0  0  0  0  0  0  0  0
  131.3031  128.7974  154.4752 H   0  0  0  0  0  0  0  0  0  0  0  0
  130.7837  130.0096  156.5517 H   0  0  0  0  0  0  0  0  0  0  0  0
  127.3100  135.5916  158.4788 H   0  0  0  0  0  0  0  0  0  0  0  0
  126.3499  135.2357  164.5896 H   0  0  0  0  0  0  0  0  0  0  0  0
  126.9964  135.8615  166.8777 H   0  0  0  0  0  0  0  0  0  0  0  0
  126.7244  140.3011  167.6665 H   0  0  0  0  0  0  0  0  0  0  0  0
  127.3563  140.9239  169.9601 H   0  0  0  0  0  0  0  0  0  0  0  0
  1  2  1  0
  1 36  1  0
  2 35  2  0
  2  3  1  0
  3  4  2  0
  3 37  1  0
  4  5  1  0
  4 38  1  0
  5  6  1  0
  5 34  2  0
  6 33  1  0
  6  7  2  0
  7  8  1  0
  7 39  1  0
  8  9  2  0
  8 40  1  0
  9 10  1  0
  9 32  1  0
 10 11  1  0
 10 41  1  0
 11 31  1  0
 11 12  2  0
 12 13  1  0
 12 42  1  0
 13 14  2  0
 13 43  1  0
 14 15  1  0
 14 30  1  0
 15 44  1  0
 16 15  1  0
 16 28  2  0
 16 17  1  0
 17 18  1  0
 17 19  1  0
 19 20  2  0
 19 45  1  0
 20 21  1  0
 20 28  1  0
 21 27  1  0
 21 22  2  0
 22 23  1  0
 22 46  1  0
 23 24  2  0
 23 47  1  0
 24 25  1  0
 24 26  1  0
 26 27  2  0
 26 48  1  0
 27 49  1  0
 28 29  1  0
 30 31  2  0
 30 50  1  0
 32 33  2  0
 32 51  1  0
 33 52  1  0
 34 35  1  0
 34 53  1  0
 35 54  1  0
M  CHG  1  28   1
M  END
>  <DOCK_score>  (1) 
-55.665989

>  <SMILES>  (1) 
Oc1ccc(-c2ccc(Nc3ccc(Nc4[nH]cc(-c5ccc(Br)cc5)[nH+]4)cn3)cc2)cc1

$$$$
