Cc1ccccc1C(c1ccccc1)[N@@H+]1CC=C(c2c(C)cccc2O)CC1
     RDKit          3D

 56 59  0  0  1  0  0  0  0  0999 V2000
  127.4958  133.3629  160.5000 C   0  0  0  0  0  0  0  0  0  0  0  0
  127.4969  134.3396  159.3523 C   0  0  0  0  0  0  0  0  0  0  0  0
  126.3096  134.6737  158.7277 C   0  0  0  0  0  0  0  0  0  0  0  0
  126.3107  135.5694  157.6750 C   0  0  0  0  0  0  0  0  0  0  0  0
  127.4989  136.1320  157.2473 C   0  0  0  0  0  0  0  0  0  0  0  0
  128.6854  135.8009  157.8742 C   0  0  0  0  0  0  0  0  0  0  0  0
  128.6850  134.9009  158.9237 C   0  0  0  0  0  0  0  0  0  0  0  0
  129.9792  134.5367  159.6045 C   0  0  1  0  0  0  0  0  0  0  0  0
  130.5887  133.3414  158.9184 C   0  0  0  0  0  0  0  0  0  0  0  0
  130.3647  133.1293  157.5709 C   0  0  0  0  0  0  0  0  0  0  0  0
  130.9274  132.0351  156.9406 C   0  0  0  0  0  0  0  0  0  0  0  0
  131.7061  131.1479  157.6599 C   0  0  0  0  0  0  0  0  0  0  0  0
  131.9261  131.3575  159.0085 C   0  0  0  0  0  0  0  0  0  0  0  0
  131.3670  132.4539  159.6378 C   0  0  0  0  0  0  0  0  0  0  0  0
  130.9088  135.6717  159.5286 N   0  0  2  0  0  0  0  0  0  0  0  0
  131.0896  135.8957  158.5615 H   0  0  0  0  0  0  0  0  0  0  0  0
  132.1685  135.3227  160.1956 C   0  0  0  0  0  0  0  0  0  0  0  0
  133.0628  136.5257  160.2846 C   0  0  0  0  0  0  0  0  0  0  0  0
  132.6195  137.7581  160.1554 C   0  0  0  0  0  0  0  0  0  0  0  0
  133.5785  138.8758  160.2708 C   0  0  0  0  0  0  0  0  0  0  0  0
  133.8311  139.4575  161.5135 C   0  0  0  0  0  0  0  0  0  0  0  0
  133.1247  138.9471  162.7429 C   0  0  0  0  0  0  0  0  0  0  0  0
  134.7282  140.5005  161.6153 C   0  0  0  0  0  0  0  0  0  0  0  0
  135.3831  140.9696  160.4897 C   0  0  0  0  0  0  0  0  0  0  0  0
  135.1372  140.4047  159.2525 C   0  0  0  0  0  0  0  0  0  0  0  0
  134.2390  139.3564  159.1339 C   0  0  0  0  0  0  0  0  0  0  0  0
  134.0001  138.7976  157.9192 O   0  0  0  0  0  0  0  0  0  0  0  0
  131.1724  138.0689  159.8884 C   0  0  0  0  0  0  0  0  0  0  0  0
  130.3174  136.8386  160.2021 C   0  0  0  0  0  0  0  0  0  0  0  0
  127.3327  133.9003  161.4342 H   0  0  0  0  0  0  0  0  0  0  0  0
  126.6983  132.6341  160.3560 H   0  0  0  0  0  0  0  0  0  0  0  0
  128.4556  132.8480  160.5398 H   0  0  0  0  0  0  0  0  0  0  0  0
  125.3813  134.2344  159.0620 H   0  0  0  0  0  0  0  0  0  0  0  0
  125.3832  135.8301  157.1870 H   0  0  0  0  0  0  0  0  0  0  0  0
  127.4997  136.8322  156.4251 H   0  0  0  0  0  0  0  0  0  0  0  0
  129.6132  136.2430  157.5423 H   0  0  0  0  0  0  0  0  0  0  0  0
  129.7848  134.2958  160.6497 H   0  0  0  0  0  0  0  0  0  0  0  0
  129.7529  133.8201  157.0099 H   0  0  0  0  0  0  0  0  0  0  0  0
  130.7558  131.8716  155.8870 H   0  0  0  0  0  0  0  0  0  0  0  0
  132.1429  130.2913  157.1683 H   0  0  0  0  0  0  0  0  0  0  0  0
  132.5344  130.6643  159.5705 H   0  0  0  0  0  0  0  0  0  0  0  0
  131.5385  132.6174  160.6915 H   0  0  0  0  0  0  0  0  0  0  0  0
  131.9549  134.9530  161.1985 H   0  0  0  0  0  0  0  0  0  0  0  0
  132.6753  134.5447  159.6249 H   0  0  0  0  0  0  0  0  0  0  0  0
  134.1162  136.3729  160.4668 H   0  0  0  0  0  0  0  0  0  0  0  0
  133.7162  138.1531  163.1986 H   0  0  0  0  0  0  0  0  0  0  0  0
  133.0008  139.7626  163.4555 H   0  0  0  0  0  0  0  0  0  0  0  0
  132.1459  138.5567  162.4639 H   0  0  0  0  0  0  0  0  0  0  0  0
  134.9232  140.9504  162.5776 H   0  0  0  0  0  0  0  0  0  0  0  0
  136.0873  141.7836  160.5781 H   0  0  0  0  0  0  0  0  0  0  0  0
  135.6488  140.7782  158.3778 H   0  0  0  0  0  0  0  0  0  0  0  0
  133.3587  138.0740  157.9385 H   0  0  0  0  0  0  0  0  0  0  0  0
  130.8573  138.9003  160.5188 H   0  0  0  0  0  0  0  0  0  0  0  0
  131.0468  138.3407  158.8403 H   0  0  0  0  0  0  0  0  0  0  0  0
  130.3002  136.6698  161.2787 H   0  0  0  0  0  0  0  0  0  0  0  0
  129.3023  136.9958  159.8376 H   0  0  0  0  0  0  0  0  0  0  0  0
  1  2  1  0
  1 30  1  0
  1 31  1  0
  1 32  1  0
  2  7  2  0
  2  3  1  0
  3  4  2  0
  3 33  1  0
  4  5  1  0
  4 34  1  0
  5  6  2  0
  5 35  1  0
  6  7  1  0
  6 36  1  0
  7  8  1  0
  8  9  1  0
  8 15  1  0
  8 37  1  1
  9 14  1  0
  9 10  2  0
 10 11  1  0
 10 38  1  0
 11 12  2  0
 11 39  1  0
 12 13  1  0
 12 40  1  0
 13 14  2  0
 13 41  1  0
 14 42  1  0
 15 16  1  6
 15 29  1  0
 15 17  1  0
 17 18  1  0
 17 43  1  0
 17 44  1  0
 18 19  2  0
 18 45  1  0
 19 20  1  0
 19 28  1  0
 20 26  1  0
 20 21  2  0
 21 22  1  0
 21 23  1  0
 22 46  1  0
 22 47  1  0
 22 48  1  0
 23 24  2  0
 23 49  1  0
 24 25  1  0
 24 50  1  0
 25 26  2  0
 25 51  1  0
 26 27  1  0
 27 52  1  0
 28 29  1  0
 28 53  1  0
 28 54  1  0
 29 55  1  0
 29 56  1  0
M  CHG  1  15   1
M  END
>  <DOCK_score>  (1) 
-58.715862

>  <SMILES>  (1) 
Cc1ccccc1C(c1ccccc1)[N@@H+]1CC=C(c2c(C)cccc2O)CC1

$$$$
