CCc1ccc(-c2c[nH]c(Nc3ccc(N)c(O)c3)[nH+]2)cc1
     RDKit          3D

 41 43  0  0  1  0  0  0  0  0999 V2000
  130.2028  128.6986  151.4837 C   0  0  0  0  0  0  0  0  0  0  0  0
  131.3598  129.6366  151.8326 C   0  0  0  0  0  0  0  0  0  0  0  0
  131.0413  130.3747  153.1073 C   0  0  0  0  0  0  0  0  0  0  0  0
  131.4140  129.8375  154.3259 C   0  0  0  0  0  0  0  0  0  0  0  0
  131.1299  130.5115  155.4962 C   0  0  0  0  0  0  0  0  0  0  0  0
  130.4562  131.7307  155.4491 C   0  0  0  0  0  0  0  0  0  0  0  0
  130.1432  132.4572  156.7039 C   0  0  0  0  0  0  0  0  0  0  0  0
  129.3883  131.9903  157.7294 C   0  0  0  0  0  0  0  0  0  0  0  0
  129.3563  132.9783  158.6829 N   0  0  0  0  0  0  0  0  0  0  0  0
  128.8937  132.9399  159.5347 H   0  0  0  0  0  0  0  0  0  0  0  0
  130.0932  134.0213  158.2118 C   0  0  0  0  0  0  0  0  0  0  0  0
  130.3119  135.2185  158.8732 N   0  0  0  0  0  0  0  0  0  0  0  0
  129.7520  135.4316  160.1390 C   0  0  0  0  0  0  0  0  0  0  0  0
  130.5753  135.6774  161.2298 C   0  0  0  0  0  0  0  0  0  0  0  0
  130.0245  135.8935  162.4786 C   0  0  0  0  0  0  0  0  0  0  0  0
  128.6484  135.8539  162.6472 C   0  0  0  0  0  0  0  0  0  0  0  0
  128.0906  136.0671  163.9161 N   0  0  0  0  0  0  0  0  0  0  0  0
  127.8206  135.6018  161.5556 C   0  0  0  0  0  0  0  0  0  0  0  0
  126.4710  135.5631  161.7190 O   0  0  0  0  0  0  0  0  0  0  0  0
  128.3736  135.3910  160.3037 C   0  0  0  0  0  0  0  0  0  0  0  0
  130.5662  133.7037  157.0312 N   0  0  0  0  0  0  0  0  0  0  0  0
  131.1269  134.2706  156.4788 H   0  0  0  0  0  0  0  0  0  0  0  0
  130.0780  132.2648  154.2186 C   0  0  0  0  0  0  0  0  0  0  0  0
  130.3721  131.5848  153.0544 C   0  0  0  0  0  0  0  0  0  0  0  0
  129.2909  129.2801  151.3489 H   0  0  0  0  0  0  0  0  0  0  0  0
  130.4332  128.1649  150.5615 H   0  0  0  0  0  0  0  0  0  0  0  0
  130.0603  127.9816  152.2924 H   0  0  0  0  0  0  0  0  0  0  0  0
  132.2715  129.0557  151.9670 H   0  0  0  0  0  0  0  0  0  0  0  0
  131.5020  130.3542  151.0235 H   0  0  0  0  0  0  0  0  0  0  0  0
  131.9321  128.8906  154.3614 H   0  0  0  0  0  0  0  0  0  0  0  0
  131.4255  130.0930  156.4470 H   0  0  0  0  0  0  0  0  0  0  0  0
  128.9047  131.0263  157.7854 H   0  0  0  0  0  0  0  0  0  0  0  0
  130.8530  135.9093  158.4596 H   0  0  0  0  0  0  0  0  0  0  0  0
  131.6472  135.7042  161.1010 H   0  0  0  0  0  0  0  0  0  0  0  0
  130.6664  136.0889  163.3249 H   0  0  0  0  0  0  0  0  0  0  0  0
  127.1281  136.0391  164.0338 H   0  0  0  0  0  0  0  0  0  0  0  0
  128.6673  136.2426  164.6761 H   0  0  0  0  0  0  0  0  0  0  0  0
  125.9814  135.3817  160.9051 H   0  0  0  0  0  0  0  0  0  0  0  0
  127.7336  135.1959  159.4561 H   0  0  0  0  0  0  0  0  0  0  0  0
  129.5553  133.2090  154.1763 H   0  0  0  0  0  0  0  0  0  0  0  0
  130.0799  131.9979  152.1003 H   0  0  0  0  0  0  0  0  0  0  0  0
  1  2  1  0
  1 25  1  0
  1 26  1  0
  1 27  1  0
  2  3  1  0
  2 28  1  0
  2 29  1  0
  3 24  2  0
  3  4  1  0
  4  5  2  0
  4 30  1  0
  5  6  1  0
  5 31  1  0
  6  7  1  0
  6 23  2  0
  7 21  1  0
  7  8  2  0
  8  9  1  0
  8 32  1  0
  9 10  1  0
  9 11  1  0
 11 12  1  0
 11 21  2  0
 12 13  1  0
 12 33  1  0
 13 20  1  0
 13 14  2  0
 14 15  1  0
 14 34  1  0
 15 16  2  0
 15 35  1  0
 16 17  1  0
 16 18  1  0
 17 36  1  0
 17 37  1  0
 18 19  1  0
 18 20  2  0
 19 38  1  0
 20 39  1  0
 21 22  1  0
 23 24  1  0
 23 40  1  0
 24 41  1  0
M  CHG  1  21   1
M  END
>  <DOCK_score>  (1) 
-50.405098

>  <SMILES>  (1) 
CCc1ccc(-c2c[nH]c(Nc3ccc(N)c(O)c3)[nH+]2)cc1

$$$$
