CCOc1ccccc1[C@H](Nc1[nH]cc(-c2ccc(CC)cc2)[nH+]1)c1ccccc1
     RDKit          3D

 58 61  0  0  1  0  0  0  0  0999 V2000
  133.1442  134.9163  162.2184 C   0  0  0  0  0  0  0  0  0  0  0  0
  133.5175  136.1615  161.4116 C   0  0  0  0  0  0  0  0  0  0  0  0
  132.4971  136.4279  160.4472 O   0  0  0  0  0  0  0  0  0  0  0  0
  131.4774  137.2379  160.8356 C   0  0  0  0  0  0  0  0  0  0  0  0
  131.7393  138.5383  161.2429 C   0  0  0  0  0  0  0  0  0  0  0  0
  130.7018  139.3574  161.6434 C   0  0  0  0  0  0  0  0  0  0  0  0
  129.4022  138.8848  161.6322 C   0  0  0  0  0  0  0  0  0  0  0  0
  129.1380  137.5916  161.2211 C   0  0  0  0  0  0  0  0  0  0  0  0
  130.1724  136.7679  160.8204 C   0  0  0  0  0  0  0  0  0  0  0  0
  129.8837  135.3580  160.3732 C   0  0  2  0  0  0  0  0  0  0  0  0
  130.4085  134.6565  161.0219 H   0  0  0  0  0  0  0  0  0  0  0  0
  130.3393  135.1808  158.9923 N   0  0  0  0  0  0  0  0  0  0  0  0
  130.1792  133.9586  158.3621 C   0  0  0  0  0  0  0  0  0  0  0  0
  129.6207  132.8482  158.9161 N   0  0  0  0  0  0  0  0  0  0  0  0
  129.2664  132.7712  159.8159 H   0  0  0  0  0  0  0  0  0  0  0  0
  129.6506  131.8566  157.9660 C   0  0  0  0  0  0  0  0  0  0  0  0
  130.2261  132.3890  156.8595 C   0  0  0  0  0  0  0  0  0  0  0  0
  130.4700  131.6842  155.5774 C   0  0  0  0  0  0  0  0  0  0  0  0
  129.8907  132.1537  154.3998 C   0  0  0  0  0  0  0  0  0  0  0  0
  130.1213  131.4942  153.2097 C   0  0  0  0  0  0  0  0  0  0  0  0
  130.9264  130.3689  153.1843 C   0  0  0  0  0  0  0  0  0  0  0  0
  131.1747  129.6539  151.8812 C   0  0  0  0  0  0  0  0  0  0  0  0
  130.1002  128.5847  151.6735 C   0  0  0  0  0  0  0  0  0  0  0  0
  131.4992  129.8956  154.3504 C   0  0  0  0  0  0  0  0  0  0  0  0
  131.2796  130.5501  155.5455 C   0  0  0  0  0  0  0  0  0  0  0  0
  130.5447  133.6788  157.1348 N   0  0  0  0  0  0  0  0  0  0  0  0
  130.9722  134.2959  156.5207 H   0  0  0  0  0  0  0  0  0  0  0  0
  128.4010  135.1003  160.4501 C   0  0  0  0  0  0  0  0  0  0  0  0
  127.8468  134.5937  161.6106 C   0  0  0  0  0  0  0  0  0  0  0  0
  126.4859  134.3609  161.6823 C   0  0  0  0  0  0  0  0  0  0  0  0
  125.6808  134.6267  160.5907 C   0  0  0  0  0  0  0  0  0  0  0  0
  126.2357  135.1288  159.4285 C   0  0  0  0  0  0  0  0  0  0  0  0
  127.5958  135.3652  159.3580 C   0  0  0  0  0  0  0  0  0  0  0  0
  133.0478  134.0635  161.5465 H   0  0  0  0  0  0  0  0  0  0  0  0
  133.9225  134.7133  162.9539 H   0  0  0  0  0  0  0  0  0  0  0  0
  132.1964  135.0852  162.7296 H   0  0  0  0  0  0  0  0  0  0  0  0
  134.4653  135.9927  160.9004 H   0  0  0  0  0  0  0  0  0  0  0  0
  133.6140  137.0145  162.0834 H   0  0  0  0  0  0  0  0  0  0  0  0
  132.7541  138.9079  161.2512 H   0  0  0  0  0  0  0  0  0  0  0  0
  130.9057  140.3680  161.9651 H   0  0  0  0  0  0  0  0  0  0  0  0
  128.5923  139.5271  161.9451 H   0  0  0  0  0  0  0  0  0  0  0  0
  128.1222  137.2248  161.2133 H   0  0  0  0  0  0  0  0  0  0  0  0
  130.7533  135.9196  158.5195 H   0  0  0  0  0  0  0  0  0  0  0  0
  129.2857  130.8463  158.0786 H   0  0  0  0  0  0  0  0  0  0  0  0
  129.2622  133.0318  154.4187 H   0  0  0  0  0  0  0  0  0  0  0  0
  129.6731  131.8572  152.2967 H   0  0  0  0  0  0  0  0  0  0  0  0
  132.1568  129.1817  151.9075 H   0  0  0  0  0  0  0  0  0  0  0  0
  131.1379  130.3703  151.0605 H   0  0  0  0  0  0  0  0  0  0  0  0
  130.2800  128.0671  150.7312 H   0  0  0  0  0  0  0  0  0  0  0  0
  130.1370  127.8683  152.4942 H   0  0  0  0  0  0  0  0  0  0  0  0
  129.1182  129.0568  151.6471 H   0  0  0  0  0  0  0  0  0  0  0  0
  132.1228  129.0142  154.3253 H   0  0  0  0  0  0  0  0  0  0  0  0
  131.7312  130.1821  156.4549 H   0  0  0  0  0  0  0  0  0  0  0  0
  128.4764  134.3825  162.4624 H   0  0  0  0  0  0  0  0  0  0  0  0
  126.0525  133.9682  162.5902 H   0  0  0  0  0  0  0  0  0  0  0  0
  124.6182  134.4416  160.6455 H   0  0  0  0  0  0  0  0  0  0  0  0
  125.6067  135.3361  158.5753 H   0  0  0  0  0  0  0  0  0  0  0  0
  128.0295  135.7572  158.4498 H   0  0  0  0  0  0  0  0  0  0  0  0
  1  2  1  0
  1 34  1  0
  1 35  1  0
  1 36  1  0
  2  3  1  0
  2 37  1  0
  2 38  1  0
  3  4  1  0
  4  9  2  0
  4  5  1  0
  5  6  2  0
  5 39  1  0
  6  7  1  0
  6 40  1  0
  7  8  2  0
  7 41  1  0
  8  9  1  0
  8 42  1  0
  9 10  1  0
 10 11  1  1
 10 12  1  0
 10 28  1  0
 12 43  1  0
 13 12  1  0
 13 26  2  0
 13 14  1  0
 14 15  1  0
 14 16  1  0
 16 17  2  0
 16 44  1  0
 17 18  1  0
 17 26  1  0
 18 25  1  0
 18 19  2  0
 19 20  1  0
 19 45  1  0
 20 21  2  0
 20 46  1  0
 21 22  1  0
 21 24  1  0
 22 23  1  0
 22 47  1  0
 22 48  1  0
 23 49  1  0
 23 50  1  0
 23 51  1  0
 24 25  2  0
 24 52  1  0
 25 53  1  0
 26 27  1  0
 28 33  1  0
 28 29  2  0
 29 30  1  0
 29 54  1  0
 30 31  2  0
 30 55  1  0
 31 32  1  0
 31 56  1  0
 32 33  2  0
 32 57  1  0
 33 58  1  0
M  CHG  1  26   1
M  END
>  <DOCK_score>  (1) 
-58.729687

>  <SMILES>  (1) 
CCOc1ccccc1[C@H](Nc1[nH]cc(-c2ccc(CC)cc2)[nH+]1)c1ccccc1

$$$$
