O=C1CC[C@@H](Cc2c[nH]c(N[C@@H](c3ccccc3)C(F)F)[nH+]2)CCN1
     RDKit          3D

 48 50  0  0  1  0  0  0  0  0999 V2000
  123.5975  134.1261  161.8160 O   0  0  0  0  0  0  0  0  0  0  0  0
  124.8023  134.2566  161.7650 C   0  0  0  0  0  0  0  0  0  0  0  0
  125.7034  133.1293  162.2236 C   0  0  0  0  0  0  0  0  0  0  0  0
  126.3693  132.5089  160.9929 C   0  0  0  0  0  0  0  0  0  0  0  0
  127.6170  133.2825  160.6105 C   0  0  1  0  0  0  0  0  0  0  0  0
  128.2700  133.3426  161.4812 H   0  0  0  0  0  0  0  0  0  0  0  0
  128.3484  132.5127  159.5090 C   0  0  0  0  0  0  0  0  0  0  0  0
  129.6204  133.2368  159.1498 C   0  0  0  0  0  0  0  0  0  0  0  0
  130.2090  133.2410  157.9418 C   0  0  0  0  0  0  0  0  0  0  0  0
  131.3391  134.0198  158.0489 N   0  0  0  0  0  0  0  0  0  0  0  0
  131.9744  134.2148  157.3424 H   0  0  0  0  0  0  0  0  0  0  0  0
  131.3955  134.4649  159.3330 C   0  0  0  0  0  0  0  0  0  0  0  0
  132.3793  135.2820  159.8646 N   0  0  0  0  0  0  0  0  0  0  0  0
  132.3147  135.6862  161.2713 C   0  0  1  0  0  0  0  0  0  0  0  0
  132.3375  134.8000  161.9054 H   0  0  0  0  0  0  0  0  0  0  0  0
  133.4941  136.5666  161.5957 C   0  0  0  0  0  0  0  0  0  0  0  0
  134.0143  136.5808  162.8763 C   0  0  0  0  0  0  0  0  0  0  0  0
  135.0990  137.3847  163.1728 C   0  0  0  0  0  0  0  0  0  0  0  0
  135.6570  138.1823  162.1913 C   0  0  0  0  0  0  0  0  0  0  0  0
  135.1335  138.1720  160.9119 C   0  0  0  0  0  0  0  0  0  0  0  0
  134.0520  137.3641  160.6141 C   0  0  0  0  0  0  0  0  0  0  0  0
  131.0178  136.4587  161.5208 C   0  0  0  0  0  0  0  0  0  0  0  0
  130.7624  137.3042  160.4359 F   0  0  0  0  0  0  0  0  0  0  0  0
  129.9588  135.5565  161.6683 F   0  0  0  0  0  0  0  0  0  0  0  0
  130.3568  133.9934  159.9812 N   0  0  0  0  0  0  0  0  0  0  0  0
  130.1538  134.1622  160.9146 H   0  0  0  0  0  0  0  0  0  0  0  0
  127.3390  134.6901  160.1154 C   0  0  0  0  0  0  0  0  0  0  0  0
  126.7894  135.5654  161.2434 C   0  0  0  0  0  0  0  0  0  0  0  0
  125.3290  135.3921  161.3049 N   0  0  0  0  0  0  0  0  0  0  0  0
  126.4674  133.5212  162.8949 H   0  0  0  0  0  0  0  0  0  0  0  0
  125.1115  132.3753  162.7426 H   0  0  0  0  0  0  0  0  0  0  0  0
  126.6403  131.4765  161.2137 H   0  0  0  0  0  0  0  0  0  0  0  0
  125.6675  132.5244  160.1589 H   0  0  0  0  0  0  0  0  0  0  0  0
  128.5887  131.5107  159.8641 H   0  0  0  0  0  0  0  0  0  0  0  0
  127.7092  132.4428  158.6289 H   0  0  0  0  0  0  0  0  0  0  0  0
  129.8617  132.7305  157.0557 H   0  0  0  0  0  0  0  0  0  0  0  0
  133.1111  135.5868  159.3056 H   0  0  0  0  0  0  0  0  0  0  0  0
  133.5756  135.9610  163.6443 H   0  0  0  0  0  0  0  0  0  0  0  0
  135.5078  137.3930  164.1725 H   0  0  0  0  0  0  0  0  0  0  0  0
  136.5018  138.8138  162.4240 H   0  0  0  0  0  0  0  0  0  0  0  0
  135.5691  138.7955  160.1452 H   0  0  0  0  0  0  0  0  0  0  0  0
  133.6427  137.3564  159.6147 H   0  0  0  0  0  0  0  0  0  0  0  0
  131.1180  137.0530  162.4289 H   0  0  0  0  0  0  0  0  0  0  0  0
  126.6096  134.6480  159.3065 H   0  0  0  0  0  0  0  0  0  0  0  0
  128.2645  135.1275  159.7408 H   0  0  0  0  0  0  0  0  0  0  0  0
  127.2340  135.2621  162.1913 H   0  0  0  0  0  0  0  0  0  0  0  0
  127.0257  136.6105  161.0435 H   0  0  0  0  0  0  0  0  0  0  0  0
  124.7458  136.1086  161.0087 H   0  0  0  0  0  0  0  0  0  0  0  0
  1  2  2  0
  2 29  1  0
  2  3  1  0
  3  4  1  0
  3 30  1  0
  3 31  1  0
  4  5  1  0
  4 32  1  0
  4 33  1  0
  5  6  1  1
  5  7  1  0
  5 27  1  0
  7  8  1  0
  7 34  1  0
  7 35  1  0
  8 25  1  0
  8  9  2  0
  9 10  1  0
  9 36  1  0
 10 11  1  0
 10 12  1  0
 12 13  1  0
 12 25  2  0
 13 14  1  0
 13 37  1  0
 14 15  1  1
 14 16  1  0
 14 22  1  0
 16 21  1  0
 16 17  2  0
 17 18  1  0
 17 38  1  0
 18 19  2  0
 18 39  1  0
 19 20  1  0
 19 40  1  0
 20 21  2  0
 20 41  1  0
 21 42  1  0
 22 23  1  0
 22 24  1  0
 22 43  1  0
 25 26  1  0
 27 28  1  0
 27 44  1  0
 27 45  1  0
 28 29  1  0
 28 46  1  0
 28 47  1  0
 29 48  1  0
M  CHG  1  25   1
M  END
>  <DOCK_score>  (1) 
-44.088596

>  <SMILES>  (1) 
O=C1CC[C@@H](Cc2c[nH]c(N[C@@H](c3ccccc3)C(F)F)[nH+]2)CCN1

$$$$
