Cc1c(N)cccc1Nc1[nH]cc(-c2ccc(N)cc2)[nH+]1
     RDKit          3D

 39 41  0  0  1  0  0  0  0  0999 V2000
  127.5064  135.3685  158.0381 C   0  0  0  0  0  0  0  0  0  0  0  0
  127.8974  135.6140  159.4727 C   0  0  0  0  0  0  0  0  0  0  0  0
  126.9376  135.9963  160.3994 C   0  0  0  0  0  0  0  0  0  0  0  0
  125.6075  136.1547  160.0036 N   0  0  0  0  0  0  0  0  0  0  0  0
  127.3023  136.2271  161.7202 C   0  0  0  0  0  0  0  0  0  0  0  0
  128.6182  136.0715  162.1125 C   0  0  0  0  0  0  0  0  0  0  0  0
  129.5750  135.6865  161.1937 C   0  0  0  0  0  0  0  0  0  0  0  0
  129.2169  135.4541  159.8710 C   0  0  0  0  0  0  0  0  0  0  0  0
  130.1860  135.0654  158.9418 N   0  0  0  0  0  0  0  0  0  0  0  0
  130.0600  133.8585  158.2733 C   0  0  0  0  0  0  0  0  0  0  0  0
  129.4541  132.7417  158.7609 N   0  0  0  0  0  0  0  0  0  0  0  0
  129.0371  132.6478  159.6317 H   0  0  0  0  0  0  0  0  0  0  0  0
  129.5428  131.7713  157.7919 C   0  0  0  0  0  0  0  0  0  0  0  0
  130.1945  132.3249  156.7392 C   0  0  0  0  0  0  0  0  0  0  0  0
  130.5153  131.6496  155.4578 C   0  0  0  0  0  0  0  0  0  0  0  0
  130.0126  132.1525  154.2588 C   0  0  0  0  0  0  0  0  0  0  0  0
  130.3159  131.5258  153.0685 C   0  0  0  0  0  0  0  0  0  0  0  0
  131.1132  130.3880  153.0643 C   0  0  0  0  0  0  0  0  0  0  0  0
  131.4152  129.7520  151.8579 N   0  0  0  0  0  0  0  0  0  0  0  0
  131.6114  129.8814  154.2595 C   0  0  0  0  0  0  0  0  0  0  0  0
  131.3150  130.5077  155.4516 C   0  0  0  0  0  0  0  0  0  0  0  0
  130.5042  133.6041  157.0664 N   0  0  0  0  0  0  0  0  0  0  0  0
  130.9754  134.2319  156.4966 H   0  0  0  0  0  0  0  0  0  0  0  0
  127.2266  134.3227  157.9117 H   0  0  0  0  0  0  0  0  0  0  0  0
  126.6608  136.0052  157.7780 H   0  0  0  0  0  0  0  0  0  0  0  0
  128.3494  135.6002  157.3871 H   0  0  0  0  0  0  0  0  0  0  0  0
  124.9378  136.4258  160.6509 H   0  0  0  0  0  0  0  0  0  0  0  0
  125.3534  135.9935  159.0815 H   0  0  0  0  0  0  0  0  0  0  0  0
  126.5567  136.5285  162.4409 H   0  0  0  0  0  0  0  0  0  0  0  0
  128.8991  136.2518  163.1395 H   0  0  0  0  0  0  0  0  0  0  0  0
  130.6027  135.5663  161.5035 H   0  0  0  0  0  0  0  0  0  0  0  0
  130.9468  135.6406  158.7651 H   0  0  0  0  0  0  0  0  0  0  0  0
  129.1618  130.7626  157.8544 H   0  0  0  0  0  0  0  0  0  0  0  0
  129.3891  133.0343  154.2617 H   0  0  0  0  0  0  0  0  0  0  0  0
  129.9303  131.9176  152.1389 H   0  0  0  0  0  0  0  0  0  0  0  0
  131.9721  128.9573  151.8546 H   0  0  0  0  0  0  0  0  0  0  0  0
  131.0682  130.1042  151.0239 H   0  0  0  0  0  0  0  0  0  0  0  0
  132.2306  128.9966  154.2542 H   0  0  0  0  0  0  0  0  0  0  0  0
  131.7024  130.1143  156.3798 H   0  0  0  0  0  0  0  0  0  0  0  0
  1  2  1  0
  1 24  1  0
  1 25  1  0
  1 26  1  0
  2  8  2  0
  2  3  1  0
  3  4  1  0
  3  5  2  0
  4 27  1  0
  4 28  1  0
  5  6  1  0
  5 29  1  0
  6  7  2  0
  6 30  1  0
  7  8  1  0
  7 31  1  0
  8  9  1  0
  9 32  1  0
 10  9  1  0
 10 22  2  0
 10 11  1  0
 11 12  1  0
 11 13  1  0
 13 14  2  0
 13 33  1  0
 14 15  1  0
 14 22  1  0
 15 21  1  0
 15 16  2  0
 16 17  1  0
 16 34  1  0
 17 18  2  0
 17 35  1  0
 18 19  1  0
 18 20  1  0
 19 36  1  0
 19 37  1  0
 20 21  2  0
 20 38  1  0
 21 39  1  0
 22 23  1  0
M  CHG  1  22   1
M  END
>  <DOCK_score>  (1) 
-52.680023

>  <SMILES>  (1) 
Cc1c(N)cccc1Nc1[nH]cc(-c2ccc(N)cc2)[nH+]1

$$$$
