Oc1cccc(-c2ccccc2N2CC[NH+]([C@@H](c3ccccc3)c3ccc(F)cn3)CC2)c1
     RDKit          3D

 60 64  0  0  1  0  0  0  0  0999 V2000
  135.4604  136.6285  165.5194 O   0  0  0  0  0  0  0  0  0  0  0  0
  134.6816  137.5743  164.9313 C   0  0  0  0  0  0  0  0  0  0  0  0
  133.6060  138.1158  165.6225 C   0  0  0  0  0  0  0  0  0  0  0  0
  132.8116  139.0784  165.0285 C   0  0  0  0  0  0  0  0  0  0  0  0
  133.0865  139.5111  163.7466 C   0  0  0  0  0  0  0  0  0  0  0  0
  134.1609  138.9684  163.0436 C   0  0  0  0  0  0  0  0  0  0  0  0
  134.4547  139.4268  161.6642 C   0  0  0  0  0  0  0  0  0  0  0  0
  135.3187  140.4985  161.4521 C   0  0  0  0  0  0  0  0  0  0  0  0
  135.5846  140.9251  160.1668 C   0  0  0  0  0  0  0  0  0  0  0  0
  135.0007  140.2885  159.0853 C   0  0  0  0  0  0  0  0  0  0  0  0
  134.1467  139.2210  159.2821 C   0  0  0  0  0  0  0  0  0  0  0  0
  133.8696  138.7811  160.5690 C   0  0  0  0  0  0  0  0  0  0  0  0
  133.0072  137.7036  160.7701 N   0  0  0  0  0  0  0  0  0  0  0  0
  131.6513  138.0191  160.2985 C   0  0  0  0  0  0  0  0  0  0  0  0
  130.7248  136.8367  160.5909 C   0  0  0  0  0  0  0  0  0  0  0  0
  131.2316  135.6376  159.9108 N   0  0  0  0  0  0  0  0  0  0  0  0
  131.2736  135.8070  158.9171 H   0  0  0  0  0  0  0  0  0  0  0  0
  130.3321  134.5071  160.1770 C   0  0  1  0  0  0  0  0  0  0  0  0
  130.2864  134.3241  161.2505 H   0  0  0  0  0  0  0  0  0  0  0  0
  128.9528  134.8309  159.6634 C   0  0  0  0  0  0  0  0  0  0  0  0
  127.8409  134.2877  160.2792 C   0  0  0  0  0  0  0  0  0  0  0  0
  126.5754  134.5881  159.8109 C   0  0  0  0  0  0  0  0  0  0  0  0
  126.4225  135.4242  158.7206 C   0  0  0  0  0  0  0  0  0  0  0  0
  127.5346  135.9637  158.1019 C   0  0  0  0  0  0  0  0  0  0  0  0
  128.7999  135.6665  158.5730 C   0  0  0  0  0  0  0  0  0  0  0  0
  130.8518  133.2766  159.4794 C   0  0  0  0  0  0  0  0  0  0  0  0
  130.9942  133.2802  158.1044 C   0  0  0  0  0  0  0  0  0  0  0  0
  131.4675  132.1421  157.4708 C   0  0  0  0  0  0  0  0  0  0  0  0
  131.7930  131.0395  158.2499 C   0  0  0  0  0  0  0  0  0  0  0  0
  132.2629  129.9104  157.6759 F   0  0  0  0  0  0  0  0  0  0  0  0
  131.6292  131.1127  159.6224 C   0  0  0  0  0  0  0  0  0  0  0  0
  131.1705  132.2117  160.1886 N   0  0  0  0  0  0  0  0  0  0  0  0
  132.5763  135.3211  160.4104 C   0  0  0  0  0  0  0  0  0  0  0  0
  133.5181  136.4907  160.1161 C   0  0  0  0  0  0  0  0  0  0  0  0
  134.9613  137.9982  163.6429 C   0  0  0  0  0  0  0  0  0  0  0  0
  136.1839  136.3121  164.9615 H   0  0  0  0  0  0  0  0  0  0  0  0
  133.3898  137.7842  166.6273 H   0  0  0  0  0  0  0  0  0  0  0  0
  131.9764  139.4966  165.5704 H   0  0  0  0  0  0  0  0  0  0  0  0
  132.4665  140.2664  163.2869 H   0  0  0  0  0  0  0  0  0  0  0  0
  135.7765  140.9982  162.2929 H   0  0  0  0  0  0  0  0  0  0  0  0
  136.2513  141.7591  160.0042 H   0  0  0  0  0  0  0  0  0  0  0  0
  135.2137  140.6284  158.0825 H   0  0  0  0  0  0  0  0  0  0  0  0
  133.6940  138.7286  158.4343 H   0  0  0  0  0  0  0  0  0  0  0  0
  131.6741  138.2065  159.2250 H   0  0  0  0  0  0  0  0  0  0  0  0
  131.2837  138.9057  160.8151 H   0  0  0  0  0  0  0  0  0  0  0  0
  129.7219  137.0630  160.2291 H   0  0  0  0  0  0  0  0  0  0  0  0
  130.6917  136.6584  161.6656 H   0  0  0  0  0  0  0  0  0  0  0  0
  127.9604  133.6311  161.1284 H   0  0  0  0  0  0  0  0  0  0  0  0
  125.7064  134.1671  160.2944 H   0  0  0  0  0  0  0  0  0  0  0  0
  125.4340  135.6564  158.3526 H   0  0  0  0  0  0  0  0  0  0  0  0
  127.4152  136.6169  157.2502 H   0  0  0  0  0  0  0  0  0  0  0  0
  129.6689  136.0878  158.0893 H   0  0  0  0  0  0  0  0  0  0  0  0
  130.7357  134.1578  157.5304 H   0  0  0  0  0  0  0  0  0  0  0  0
  131.5847  132.1149  156.3975 H   0  0  0  0  0  0  0  0  0  0  0  0
  131.8800  130.2603  160.2364 H   0  0  0  0  0  0  0  0  0  0  0  0
  132.5334  135.1505  161.4859 H   0  0  0  0  0  0  0  0  0  0  0  0
  132.9460  134.4236  159.9146 H   0  0  0  0  0  0  0  0  0  0  0  0
  133.5716  136.6530  159.0396 H   0  0  0  0  0  0  0  0  0  0  0  0
  134.5125  136.2620  160.4997 H   0  0  0  0  0  0  0  0  0  0  0  0
  135.7978  137.5782  163.1043 H   0  0  0  0  0  0  0  0  0  0  0  0
  1  2  1  0
  1 36  1  0
  2 35  2  0
  2  3  1  0
  3  4  2  0
  3 37  1  0
  4  5  1  0
  4 38  1  0
  5  6  2  0
  5 39  1  0
  6  7  1  0
  6 35  1  0
  7 12  1  0
  7  8  2  0
  8  9  1  0
  8 40  1  0
  9 10  2  0
  9 41  1  0
 10 11  1  0
 10 42  1  0
 11 12  2  0
 11 43  1  0
 12 13  1  0
 13 34  1  0
 13 14  1  0
 14 15  1  0
 14 44  1  0
 14 45  1  0
 15 16  1  0
 15 46  1  0
 15 47  1  0
 16 17  1  0
 16 18  1  0
 16 33  1  0
 18 19  1  1
 18 20  1  0
 18 26  1  0
 20 25  1  0
 20 21  2  0
 21 22  1  0
 21 48  1  0
 22 23  2  0
 22 49  1  0
 23 24  1  0
 23 50  1  0
 24 25  2  0
 24 51  1  0
 25 52  1  0
 26 32  1  0
 26 27  2  0
 27 28  1  0
 27 53  1  0
 28 29  2  0
 28 54  1  0
 29 30  1  0
 29 31  1  0
 31 32  2  0
 31 55  1  0
 33 34  1  0
 33 56  1  0
 33 57  1  0
 34 58  1  0
 34 59  1  0
 35 60  1  0
M  CHG  1  16   1
M  END
>  <DOCK_score>  (1) 
-56.614433

>  <SMILES>  (1) 
Oc1cccc(-c2ccccc2N2CC[NH+]([C@@H](c3ccccc3)c3ccc(F)cn3)CC2)c1

$$$$
