Nn1c(=[NH+]C2=C[C@@H](Nc3cccc(O)c3)CCC2)[nH]c2ccccc21
     RDKit          3D

 47 50  0  0  1  0  0  0  0  0999 V2000
  133.0181  138.7784  159.8358 N   0  0  0  0  0  0  0  0  0  0  0  0
  132.3804  138.2983  160.9443 N   0  0  0  0  0  0  0  0  0  0  0  0
  132.1033  136.9839  161.2039 C   0  0  0  0  0  0  0  0  0  0  0  0
  132.4089  135.9672  160.4225 N   0  0  0  0  0  0  0  0  0  0  0  0
  133.1926  136.0120  159.8527 H   0  0  0  0  0  0  0  0  0  0  0  0
  131.6258  134.8560  160.4153 C   0  0  0  0  0  0  0  0  0  0  0  0
  130.3421  134.9996  160.6727 C   0  0  0  0  0  0  0  0  0  0  0  0
  129.3655  133.8605  160.7069 C   0  0  1  0  0  0  0  0  0  0  0  0
  129.1411  133.6078  161.7432 H   0  0  0  0  0  0  0  0  0  0  0  0
  128.1298  134.2595  160.0287 N   0  0  0  0  0  0  0  0  0  0  0  0
  126.9075  133.7121  160.4252 C   0  0  0  0  0  0  0  0  0  0  0  0
  126.7058  132.3388  160.3586 C   0  0  0  0  0  0  0  0  0  0  0  0
  125.4986  131.7973  160.7554 C   0  0  0  0  0  0  0  0  0  0  0  0
  124.4851  132.6200  161.2095 C   0  0  0  0  0  0  0  0  0  0  0  0
  124.6790  133.9927  161.2732 C   0  0  0  0  0  0  0  0  0  0  0  0
  123.6813  134.8002  161.7195 O   0  0  0  0  0  0  0  0  0  0  0  0
  125.8907  134.5397  160.8810 C   0  0  0  0  0  0  0  0  0  0  0  0
  129.9579  132.6375  160.0036 C   0  0  0  0  0  0  0  0  0  0  0  0
  131.3648  132.3891  160.5613 C   0  0  0  0  0  0  0  0  0  0  0  0
  132.2738  133.5360  160.1148 C   0  0  0  0  0  0  0  0  0  0  0  0
  131.4521  136.8971  162.4041 N   0  0  0  0  0  0  0  0  0  0  0  0
  131.1380  136.0806  162.8230 H   0  0  0  0  0  0  0  0  0  0  0  0
  131.3213  138.1835  162.9223 C   0  0  0  0  0  0  0  0  0  0  0  0
  130.7563  138.6772  164.0896 C   0  0  0  0  0  0  0  0  0  0  0  0
  130.7688  140.0353  164.3396 C   0  0  0  0  0  0  0  0  0  0  0  0
  131.3428  140.9069  163.4302 C   0  0  0  0  0  0  0  0  0  0  0  0
  131.9075  140.4253  162.2655 C   0  0  0  0  0  0  0  0  0  0  0  0
  131.9001  139.0622  162.0053 C   0  0  0  0  0  0  0  0  0  0  0  0
  132.3580  138.9940  159.1037 H   0  0  0  0  0  0  0  0  0  0  0  0
  133.5816  139.5838  160.0633 H   0  0  0  0  0  0  0  0  0  0  0  0
  129.9710  135.9945  160.8705 H   0  0  0  0  0  0  0  0  0  0  0  0
  128.1605  134.9038  159.3043 H   0  0  0  0  0  0  0  0  0  0  0  0
  127.4947  131.6941  160.0003 H   0  0  0  0  0  0  0  0  0  0  0  0
  125.3449  130.7295  160.7065 H   0  0  0  0  0  0  0  0  0  0  0  0
  123.5410  132.1940  161.5154 H   0  0  0  0  0  0  0  0  0  0  0  0
  123.9098  135.7398  161.7279 H   0  0  0  0  0  0  0  0  0  0  0  0
  126.0433  135.6077  160.9296 H   0  0  0  0  0  0  0  0  0  0  0  0
  129.3301  131.7667  160.1924 H   0  0  0  0  0  0  0  0  0  0  0  0
  130.0134  132.8232  158.9310 H   0  0  0  0  0  0  0  0  0  0  0  0
  131.3264  132.3550  161.6500 H   0  0  0  0  0  0  0  0  0  0  0  0
  131.7486  131.4435  160.1787 H   0  0  0  0  0  0  0  0  0  0  0  0
  133.2243  133.4710  160.6445 H   0  0  0  0  0  0  0  0  0  0  0  0
  132.4540  133.4577  159.0426 H   0  0  0  0  0  0  0  0  0  0  0  0
  130.3080  138.0003  164.8018 H   0  0  0  0  0  0  0  0  0  0  0  0
  130.3287  140.4190  165.2481 H   0  0  0  0  0  0  0  0  0  0  0  0
  131.3486  141.9678  163.6320 H   0  0  0  0  0  0  0  0  0  0  0  0
  132.3547  141.1082  161.5585 H   0  0  0  0  0  0  0  0  0  0  0  0
  1  2  1  0
  1 29  1  0
  1 30  1  0
  2 28  1  0
  2  3  1  0
  3  4  2  0
  3 21  1  0
  4  5  1  0
  4  6  1  0
  6 20  1  0
  6  7  2  0
  7  8  1  0
  7 31  1  0
  8  9  1  1
  8 10  1  0
  8 18  1  0
 10 11  1  0
 10 32  1  0
 11 17  1  0
 11 12  2  0
 12 13  1  0
 12 33  1  0
 13 14  2  0
 13 34  1  0
 14 15  1  0
 14 35  1  0
 15 16  1  0
 15 17  2  0
 16 36  1  0
 17 37  1  0
 18 19  1  0
 18 38  1  0
 18 39  1  0
 19 20  1  0
 19 40  1  0
 19 41  1  0
 20 42  1  0
 20 43  1  0
 21 22  1  0
 21 23  1  0
 23 28  2  0
 23 24  1  0
 24 25  2  0
 24 44  1  0
 25 26  1  0
 25 45  1  0
 26 27  2  0
 26 46  1  0
 27 28  1  0
 27 47  1  0
M  CHG  1   4   1
M  END
>  <DOCK_score>  (1) 
-42.829502

>  <SMILES>  (1) 
Nn1c(=[NH+]C2=C[C@@H](Nc3cccc(O)c3)CCC2)[nH]c2ccccc21

$$$$
