Fc1ccccc1C[C@@H](Nc1[nH]cc(-c2ccc(-c3ccccc3)cc2)[nH+]1)c1ccccc1
     RDKit          3D

 58 62  0  0  1  0  0  0  0  0999 V2000
  131.2068  138.8134  159.5229 F   0  0  0  0  0  0  0  0  0  0  0  0
  132.2558  139.0741  160.3333 C   0  0  0  0  0  0  0  0  0  0  0  0
  133.3244  139.8204  159.8652 C   0  0  0  0  0  0  0  0  0  0  0  0
  134.3939  140.0917  160.6970 C   0  0  0  0  0  0  0  0  0  0  0  0
  134.4005  139.6130  161.9941 C   0  0  0  0  0  0  0  0  0  0  0  0
  133.3373  138.8627  162.4604 C   0  0  0  0  0  0  0  0  0  0  0  0
  132.2662  138.5906  161.6305 C   0  0  0  0  0  0  0  0  0  0  0  0
  131.1075  137.7721  162.1391 C   0  0  0  0  0  0  0  0  0  0  0  0
  131.3667  136.2907  161.8570 C   0  0  1  0  0  0  0  0  0  0  0  0
  130.5287  135.6987  162.2249 H   0  0  0  0  0  0  0  0  0  0  0  0
  131.5125  136.0867  160.4136 N   0  0  0  0  0  0  0  0  0  0  0  0
  131.1414  134.8808  159.8441 C   0  0  0  0  0  0  0  0  0  0  0  0
  130.6250  133.8139  160.5131 N   0  0  0  0  0  0  0  0  0  0  0  0
  130.4530  133.7619  161.4663 H   0  0  0  0  0  0  0  0  0  0  0  0
  130.3931  132.8240  159.5896 C   0  0  0  0  0  0  0  0  0  0  0  0
  130.7740  133.3141  158.3832 C   0  0  0  0  0  0  0  0  0  0  0  0
  130.7061  132.5952  157.0885 C   0  0  0  0  0  0  0  0  0  0  0  0
  129.9332  133.1069  156.0462 C   0  0  0  0  0  0  0  0  0  0  0  0
  129.8737  132.4411  154.8418 C   0  0  0  0  0  0  0  0  0  0  0  0
  130.5778  131.2507  154.6676 C   0  0  0  0  0  0  0  0  0  0  0  0
  130.5090  130.5301  153.3733 C   0  0  0  0  0  0  0  0  0  0  0  0
  130.6424  129.1432  153.3361 C   0  0  0  0  0  0  0  0  0  0  0  0
  130.5730  128.4780  152.1289 C   0  0  0  0  0  0  0  0  0  0  0  0
  130.3815  129.1861  150.9561 C   0  0  0  0  0  0  0  0  0  0  0  0
  130.2533  130.5632  150.9864 C   0  0  0  0  0  0  0  0  0  0  0  0
  130.3163  131.2384  152.1884 C   0  0  0  0  0  0  0  0  0  0  0  0
  131.3470  130.7358  155.7116 C   0  0  0  0  0  0  0  0  0  0  0  0
  131.4105  131.4038  156.9145 C   0  0  0  0  0  0  0  0  0  0  0  0
  131.2241  134.5803  158.5710 N   0  0  0  0  0  0  0  0  0  0  0  0
  131.5559  135.1684  157.8747 H   0  0  0  0  0  0  0  0  0  0  0  0
  132.6309  135.8602  162.5553 C   0  0  0  0  0  0  0  0  0  0  0  0
  133.8464  135.9535  161.9040 C   0  0  0  0  0  0  0  0  0  0  0  0
  135.0065  135.5627  162.5461 C   0  0  0  0  0  0  0  0  0  0  0  0
  134.9498  135.0700  163.8365 C   0  0  0  0  0  0  0  0  0  0  0  0
  133.7335  134.9719  164.4861 C   0  0  0  0  0  0  0  0  0  0  0  0
  132.5741  135.3667  163.8454 C   0  0  0  0  0  0  0  0  0  0  0  0
  133.3196  140.1941  158.8520 H   0  0  0  0  0  0  0  0  0  0  0  0
  135.2254  140.6774  160.3336 H   0  0  0  0  0  0  0  0  0  0  0  0
  135.2371  139.8252  162.6433 H   0  0  0  0  0  0  0  0  0  0  0  0
  133.3436  138.4893  163.4739 H   0  0  0  0  0  0  0  0  0  0  0  0
  130.9990  137.9239  163.2130 H   0  0  0  0  0  0  0  0  0  0  0  0
  130.1932  138.0835  161.6339 H   0  0  0  0  0  0  0  0  0  0  0  0
  131.8690  136.7966  159.8569 H   0  0  0  0  0  0  0  0  0  0  0  0
  129.9850  131.8435  159.7861 H   0  0  0  0  0  0  0  0  0  0  0  0
  129.3845  134.0271  156.1821 H   0  0  0  0  0  0  0  0  0  0  0  0
  129.2783  132.8393  154.0336 H   0  0  0  0  0  0  0  0  0  0  0  0
  130.7963  128.5896  154.2508 H   0  0  0  0  0  0  0  0  0  0  0  0
  130.6720  127.4030  152.0994 H   0  0  0  0  0  0  0  0  0  0  0  0
  130.3323  128.6620  150.0132 H   0  0  0  0  0  0  0  0  0  0  0  0
  130.1040  131.1109  150.0677 H   0  0  0  0  0  0  0  0  0  0  0  0
  130.2167  132.3136  152.2108 H   0  0  0  0  0  0  0  0  0  0  0  0
  131.8925  129.8133  155.5768 H   0  0  0  0  0  0  0  0  0  0  0  0
  132.0061  131.0055  157.7225 H   0  0  0  0  0  0  0  0  0  0  0  0
  133.8903  136.3349  160.8945 H   0  0  0  0  0  0  0  0  0  0  0  0
  135.9569  135.6397  162.0388 H   0  0  0  0  0  0  0  0  0  0  0  0
  135.8558  134.7622  164.3373 H   0  0  0  0  0  0  0  0  0  0  0  0
  133.6892  134.5870  165.4941 H   0  0  0  0  0  0  0  0  0  0  0  0
  131.6237  135.2900  164.3528 H   0  0  0  0  0  0  0  0  0  0  0  0
  1  2  1  0
  2  7  2  0
  2  3  1  0
  3  4  2  0
  3 37  1  0
  4  5  1  0
  4 38  1  0
  5  6  2  0
  5 39  1  0
  6  7  1  0
  6 40  1  0
  7  8  1  0
  8  9  1  0
  8 41  1  0
  8 42  1  0
  9 10  1  1
  9 11  1  0
  9 31  1  0
 11 43  1  0
 12 11  1  0
 12 29  2  0
 12 13  1  0
 13 14  1  0
 13 15  1  0
 15 16  2  0
 15 44  1  0
 16 17  1  0
 16 29  1  0
 17 28  1  0
 17 18  2  0
 18 19  1  0
 18 45  1  0
 19 20  2  0
 19 46  1  0
 20 21  1  0
 20 27  1  0
 21 26  1  0
 21 22  2  0
 22 23  1  0
 22 47  1  0
 23 24  2  0
 23 48  1  0
 24 25  1  0
 24 49  1  0
 25 26  2  0
 25 50  1  0
 26 51  1  0
 27 28  2  0
 27 52  1  0
 28 53  1  0
 29 30  1  0
 31 36  1  0
 31 32  2  0
 32 33  1  0
 32 54  1  0
 33 34  2  0
 33 55  1  0
 34 35  1  0
 34 56  1  0
 35 36  2  0
 35 57  1  0
 36 58  1  0
M  CHG  1  29   1
M  END
>  <DOCK_score>  (1) 
-61.46442

>  <SMILES>  (1) 
Fc1ccccc1C[C@@H](Nc1[nH]cc(-c2ccc(-c3ccccc3)cc2)[nH+]1)c1ccccc1

$$$$
