CCN1CC[NH+]=C1NCc1ccc(Nc2cccc(OC3CCCC3)c2)cc1
     RDKit          3D

 59 62  0  0  1  0  0  0  0  0999 V2000
  131.5214  130.4493  158.6637 C   0  0  0  0  0  0  0  0  0  0  0  0
  130.2759  130.3198  157.7844 C   0  0  0  0  0  0  0  0  0  0  0  0
  130.4303  131.1576  156.5926 N   0  0  0  0  0  0  0  0  0  0  0  0
  131.0244  130.7349  155.3133 C   0  0  0  0  0  0  0  0  0  0  0  0
  130.9253  132.0023  154.4413 C   0  0  0  0  0  0  0  0  0  0  0  0
  130.2851  132.9902  155.3209 N   0  0  0  0  0  0  0  0  0  0  0  0
  130.0737  133.9030  155.0703 H   0  0  0  0  0  0  0  0  0  0  0  0
  130.0470  132.4656  156.4786 C   0  0  0  0  0  0  0  0  0  0  0  0
  129.4540  133.1616  157.5054 N   0  0  0  0  0  0  0  0  0  0  0  0
  129.0685  134.5620  157.3143 C   0  0  0  0  0  0  0  0  0  0  0  0
  128.4445  135.0885  158.5809 C   0  0  0  0  0  0  0  0  0  0  0  0
  128.8138  136.3290  159.0680 C   0  0  0  0  0  0  0  0  0  0  0  0
  128.2405  136.8166  160.2258 C   0  0  0  0  0  0  0  0  0  0  0  0
  127.2996  136.0548  160.9074 C   0  0  0  0  0  0  0  0  0  0  0  0
  126.7211  136.5428  162.0816 N   0  0  0  0  0  0  0  0  0  0  0  0
  127.5259  136.8492  163.1818 C   0  0  0  0  0  0  0  0  0  0  0  0
  127.1424  137.8490  164.0678 C   0  0  0  0  0  0  0  0  0  0  0  0
  127.9382  138.1515  165.1552 C   0  0  0  0  0  0  0  0  0  0  0  0
  129.1169  137.4609  165.3660 C   0  0  0  0  0  0  0  0  0  0  0  0
  129.5045  136.4610  164.4853 C   0  0  0  0  0  0  0  0  0  0  0  0
  130.6633  135.7825  164.6943 O   0  0  0  0  0  0  0  0  0  0  0  0
  131.6530  135.8564  163.6661 C   0  0  0  0  0  0  0  0  0  0  0  0
  132.5370  134.5925  163.6917 C   0  0  0  0  0  0  0  0  0  0  0  0
  133.9549  135.1137  163.3492 C   0  0  0  0  0  0  0  0  0  0  0  0
  134.0075  136.4730  164.0898 C   0  0  0  0  0  0  0  0  0  0  0  0
  132.5879  137.0520  163.9193 C   0  0  0  0  0  0  0  0  0  0  0  0
  128.7069  136.1514  163.3948 C   0  0  0  0  0  0  0  0  0  0  0  0
  126.9347  134.8067  160.4180 C   0  0  0  0  0  0  0  0  0  0  0  0
  127.5081  134.3275  159.2567 C   0  0  0  0  0  0  0  0  0  0  0  0
  131.4064  129.8259  159.5504 H   0  0  0  0  0  0  0  0  0  0  0  0
  132.3976  130.1246  158.1024 H   0  0  0  0  0  0  0  0  0  0  0  0
  131.6473  131.4892  158.9644 H   0  0  0  0  0  0  0  0  0  0  0  0
  129.3997  130.6444  158.3457 H   0  0  0  0  0  0  0  0  0  0  0  0
  130.1499  129.2797  157.4836 H   0  0  0  0  0  0  0  0  0  0  0  0
  132.0656  130.4430  155.4507 H   0  0  0  0  0  0  0  0  0  0  0  0
  130.4519  129.9176  154.8749 H   0  0  0  0  0  0  0  0  0  0  0  0
  131.9180  132.3390  154.1422 H   0  0  0  0  0  0  0  0  0  0  0  0
  130.3060  131.8151  153.5641 H   0  0  0  0  0  0  0  0  0  0  0  0
  129.2910  132.7254  158.3562 H   0  0  0  0  0  0  0  0  0  0  0  0
  129.9520  135.1524  157.0718 H   0  0  0  0  0  0  0  0  0  0  0  0
  128.3491  134.6326  156.4983 H   0  0  0  0  0  0  0  0  0  0  0  0
  129.5486  136.9188  158.5401 H   0  0  0  0  0  0  0  0  0  0  0  0
  128.5266  137.7871  160.6037 H   0  0  0  0  0  0  0  0  0  0  0  0
  125.7608  136.6690  162.1332 H   0  0  0  0  0  0  0  0  0  0  0  0
  126.2217  138.3899  163.9055 H   0  0  0  0  0  0  0  0  0  0  0  0
  127.6389  138.9290  165.8424 H   0  0  0  0  0  0  0  0  0  0  0  0
  129.7369  137.6996  166.2175 H   0  0  0  0  0  0  0  0  0  0  0  0
  131.1727  135.9574  162.6928 H   0  0  0  0  0  0  0  0  0  0  0  0
  132.5264  134.1395  164.6832 H   0  0  0  0  0  0  0  0  0  0  0  0
  132.2019  133.8771  162.9409 H   0  0  0  0  0  0  0  0  0  0  0  0
  134.0651  135.2551  162.2740 H   0  0  0  0  0  0  0  0  0  0  0  0
  134.7183  134.4357  163.7311 H   0  0  0  0  0  0  0  0  0  0  0  0
  134.7454  137.1299  163.6293 H   0  0  0  0  0  0  0  0  0  0  0  0
  134.2351  136.3260  165.1457 H   0  0  0  0  0  0  0  0  0  0  0  0
  132.5622  137.7328  163.0683 H   0  0  0  0  0  0  0  0  0  0  0  0
  132.2862  137.5764  164.8259 H   0  0  0  0  0  0  0  0  0  0  0  0
  129.0051  135.3708  162.7105 H   0  0  0  0  0  0  0  0  0  0  0  0
  126.2033  134.2121  160.9451 H   0  0  0  0  0  0  0  0  0  0  0  0
  127.2253  133.3572  158.8760 H   0  0  0  0  0  0  0  0  0  0  0  0
  1  2  1  0
  1 30  1  0
  1 31  1  0
  1 32  1  0
  2  3  1  0
  2 33  1  0
  2 34  1  0
  3  8  1  0
  3  4  1  0
  4  5  1  0
  4 35  1  0
  4 36  1  0
  5  6  1  0
  5 37  1  0
  5 38  1  0
  6  7  1  0
  6  8  2  0
  8  9  1  0
  9 10  1  0
  9 39  1  0
 10 11  1  0
 10 40  1  0
 10 41  1  0
 11 29  1  0
 11 12  2  0
 12 13  1  0
 12 42  1  0
 13 14  2  0
 13 43  1  0
 14 15  1  0
 14 28  1  0
 15 16  1  0
 15 44  1  0
 16 27  1  0
 16 17  2  0
 17 18  1  0
 17 45  1  0
 18 19  2  0
 18 46  1  0
 19 20  1  0
 19 47  1  0
 20 21  1  0
 20 27  2  0
 21 22  1  0
 22 26  1  0
 22 23  1  0
 22 48  1  0
 23 24  1  0
 23 49  1  0
 23 50  1  0
 24 25  1  0
 24 51  1  0
 24 52  1  0
 25 26  1  0
 25 53  1  0
 25 54  1  0
 26 55  1  0
 26 56  1  0
 27 57  1  0
 28 29  2  0
 28 58  1  0
 29 59  1  0
M  CHG  1   6   1
M  END
>  <DOCK_score>  (1) 
-42.471668

>  <SMILES>  (1) 
CCN1CC[NH+]=C1NCc1ccc(Nc2cccc(OC3CCCC3)c2)cc1

$$$$
