O=C1C=C(Nc2ccc(-c3n[nH]cc3C[NH2+]CC3CC4C[C@H]4C3)o2)CC1
     RDKit          3D

 51 55  0  0  1  0  0  0  0  0999 V2000
  127.4747  139.7256  164.8682 O   0  0  0  0  0  0  0  0  0  0  0  0
  127.5387  138.6238  164.3589 C   0  0  0  0  0  0  0  0  0  0  0  0
  126.6904  138.1358  163.3648 C   0  0  0  0  0  0  0  0  0  0  0  0
  126.9881  136.8772  162.9854 C   0  0  0  0  0  0  0  0  0  0  0  0
  126.3175  136.1631  162.0376 N   0  0  0  0  0  0  0  0  0  0  0  0
  126.9886  135.2080  161.2827 C   0  0  0  0  0  0  0  0  0  0  0  0
  126.4423  134.0787  160.7663 C   0  0  0  0  0  0  0  0  0  0  0  0
  127.4685  133.4032  160.0787 C   0  0  0  0  0  0  0  0  0  0  0  0
  128.5930  134.1563  160.2101 C   0  0  0  0  0  0  0  0  0  0  0  0
  129.9210  133.8340  159.6482 C   0  0  0  0  0  0  0  0  0  0  0  0
  130.2233  132.7688  158.9322 N   0  0  0  0  0  0  0  0  0  0  0  0
  131.5810  132.8425  158.5959 N   0  0  0  0  0  0  0  0  0  0  0  0
  132.0735  132.1911  158.0721 H   0  0  0  0  0  0  0  0  0  0  0  0
  132.0875  133.9744  159.1314 C   0  0  0  0  0  0  0  0  0  0  0  0
  131.0905  134.6117  159.7818 C   0  0  0  0  0  0  0  0  0  0  0  0
  131.2076  135.9182  160.5235 C   0  0  0  0  0  0  0  0  0  0  0  0
  130.9214  137.0294  159.6064 N   0  0  0  0  0  0  0  0  0  0  0  0
  131.5822  137.0152  158.8439 H   0  0  0  0  0  0  0  0  0  0  0  0
  129.9854  136.9322  159.2422 H   0  0  0  0  0  0  0  0  0  0  0  0
  131.0357  138.3031  160.3295 C   0  0  0  0  0  0  0  0  0  0  0  0
  132.4549  138.4503  160.8819 C   0  0  2  0  0  0  0  0  0  0  0  0
  132.6583  139.8535  161.5054 C   0  0  0  0  0  0  0  0  0  0  0  0
  134.1834  140.0770  161.4444 C   0  0  1  0  0  0  0  0  0  0  0  0
  135.1007  138.8976  161.7733 C   0  0  0  0  0  0  0  0  0  0  0  0
  134.7155  139.1733  160.3184 C   0  0  1  0  0  0  0  0  0  0  0  0
  135.4707  139.5273  159.6166 H   0  0  0  0  0  0  0  0  0  0  0  0
  133.4951  138.4321  159.7346 C   0  0  0  0  0  0  0  0  0  0  0  0
  128.2897  135.2450  160.9464 O   0  0  0  0  0  0  0  0  0  0  0  0
  128.1825  136.3812  163.7661 C   0  0  0  0  0  0  0  0  0  0  0  0
  128.5555  137.5544  164.6916 C   0  0  0  0  0  0  0  0  0  0  0  0
  125.8760  138.7071  162.9444 H   0  0  0  0  0  0  0  0  0  0  0  0
  125.3720  136.3214  161.8897 H   0  0  0  0  0  0  0  0  0  0  0  0
  125.4155  133.7586  160.8644 H   0  0  0  0  0  0  0  0  0  0  0  0
  127.3796  132.4663  159.5489 H   0  0  0  0  0  0  0  0  0  0  0  0
  133.1102  134.3118  159.0512 H   0  0  0  0  0  0  0  0  0  0  0  0
  130.4938  135.9338  161.3471 H   0  0  0  0  0  0  0  0  0  0  0  0
  132.2188  136.0231  160.9170 H   0  0  0  0  0  0  0  0  0  0  0  0
  130.8232  139.1276  159.6490 H   0  0  0  0  0  0  0  0  0  0  0  0
  130.3219  138.3186  161.1531 H   0  0  0  0  0  0  0  0  0  0  0  0
  132.6680  137.6669  161.6091 H   0  0  0  0  0  0  0  0  0  0  0  0
  132.1380  140.6107  160.9188 H   0  0  0  0  0  0  0  0  0  0  0  0
  132.3120  139.8656  162.5388 H   0  0  0  0  0  0  0  0  0  0  0  0
  134.5533  141.0937  161.5777 H   0  0  0  0  0  0  0  0  0  0  0  0
  134.6508  138.0304  162.2567 H   0  0  0  0  0  0  0  0  0  0  0  0
  136.1234  139.1248  162.0742 H   0  0  0  0  0  0  0  0  0  0  0  0
  133.7596  137.4069  159.4756 H   0  0  0  0  0  0  0  0  0  0  0  0
  133.1099  138.9597  158.8620 H   0  0  0  0  0  0  0  0  0  0  0  0
  127.9144  135.5035  164.3544 H   0  0  0  0  0  0  0  0  0  0  0  0
  129.0074  136.1488  163.0925 H   0  0  0  0  0  0  0  0  0  0  0  0
  128.4698  137.2584  165.7370 H   0  0  0  0  0  0  0  0  0  0  0  0
  129.5641  137.9061  164.4746 H   0  0  0  0  0  0  0  0  0  0  0  0
  1  2  2  0
  2 30  1  0
  2  3  1  0
  3  4  2  0
  3 31  1  0
  4  5  1  0
  4 29  1  0
  5  6  1  0
  5 32  1  0
  6 28  1  0
  6  7  2  0
  7  8  1  0
  7 33  1  0
  8  9  2  0
  8 34  1  0
  9 10  1  0
  9 28  1  0
 10 15  1  0
 10 11  2  0
 11 12  1  0
 12 13  1  0
 12 14  1  0
 14 15  2  0
 14 35  1  0
 15 16  1  0
 16 17  1  0
 16 36  1  0
 16 37  1  0
 17 18  1  0
 17 19  1  0
 17 20  1  0
 20 21  1  0
 20 38  1  0
 20 39  1  0
 21 27  1  0
 21 22  1  0
 21 40  1  1
 22 23  1  0
 22 41  1  0
 22 42  1  0
 23 25  1  0
 23 24  1  0
 23 43  1  6
 24 25  1  0
 24 44  1  0
 24 45  1  0
 25 26  1  6
 25 27  1  0
 27 46  1  0
 27 47  1  0
 29 30  1  0
 29 48  1  0
 29 49  1  0
 30 50  1  0
 30 51  1  0
M  CHG  1  17   1
M  END
>  <DOCK_score>  (1) 
-43.906647

>  <SMILES>  (1) 
O=C1C=C(Nc2ccc(-c3n[nH]cc3C[NH2+]CC3CC4C[C@H]4C3)o2)CC1

$$$$
