C=C/C=C/CNC(N[C@H]1[C@@H]2CC=CC[C@@H]21)=[NH+][C@@H]1CCC(=O)NC1
     RDKit          3D

 50 52  0  0  1  0  0  0  0  0999 V2000
  132.0179  140.8768  161.9645 C   0  0  0  0  0  0  0  0  0  0  0  0
  130.9263  140.2841  161.4933 C   0  0  0  0  0  0  0  0  0  0  0  0
  131.0389  139.0217  160.7461 C   0  0  0  0  0  0  0  0  0  0  0  0
  129.9472  138.4289  160.2750 C   0  0  0  0  0  0  0  0  0  0  0  0
  130.0627  137.1358  159.5097 C   0  0  0  0  0  0  0  0  0  0  0  0
  129.3069  136.0892  160.2023 N   0  0  0  0  0  0  0  0  0  0  0  0
  129.2661  134.8154  159.6870 C   0  0  0  0  0  0  0  0  0  0  0  0
  129.9346  134.5235  158.5217 N   0  0  0  0  0  0  0  0  0  0  0  0
  129.8912  133.1661  157.9725 C   0  0  1  0  0  0  0  0  0  0  0  0
  128.8984  132.7922  157.7220 H   0  0  0  0  0  0  0  0  0  0  0  0
  131.0549  132.7281  157.0810 C   0  0  2  0  0  0  0  0  0  0  0  0
  131.8549  133.4434  156.8898 H   0  0  0  0  0  0  0  0  0  0  0  0
  130.7349  131.7391  155.9488 C   0  0  0  0  0  0  0  0  0  0  0  0
  131.3341  130.3991  156.2989 C   0  0  0  0  0  0  0  0  0  0  0  0
  131.2125  129.9136  157.5093 C   0  0  0  0  0  0  0  0  0  0  0  0
  130.4705  130.6864  158.5721 C   0  0  0  0  0  0  0  0  0  0  0  0
  130.9115  132.1572  158.5037 C   0  0  2  0  0  0  0  0  0  0  0  0
  131.6153  132.4895  159.2668 H   0  0  0  0  0  0  0  0  0  0  0  0
  128.5936  133.8843  160.3032 N   0  0  0  0  0  0  0  0  0  0  0  0
  128.8775  132.9588  160.2407 H   0  0  0  0  0  0  0  0  0  0  0  0
  127.4089  134.2353  161.0903 C   0  0  2  0  0  0  0  0  0  0  0  0
  127.6900  134.9254  161.8859 H   0  0  0  0  0  0  0  0  0  0  0  0
  126.8020  132.9662  161.7006 C   0  0  0  0  0  0  0  0  0  0  0  0
  125.6801  133.3769  162.6566 C   0  0  0  0  0  0  0  0  0  0  0  0
  124.7677  134.3622  161.9845 C   0  0  0  0  0  0  0  0  0  0  0  0
  123.6680  134.5447  162.4625 O   0  0  0  0  0  0  0  0  0  0  0  0
  125.1017  135.0471  160.8901 N   0  0  0  0  0  0  0  0  0  0  0  0
  126.3675  134.8933  160.1843 C   0  0  0  0  0  0  0  0  0  0  0  0
  131.9353  141.8036  162.5129 H   0  0  0  0  0  0  0  0  0  0  0  0
  132.9881  140.4321  161.7990 H   0  0  0  0  0  0  0  0  0  0  0  0
  129.9562  140.7290  161.6586 H   0  0  0  0  0  0  0  0  0  0  0  0
  132.0091  138.5768  160.5808 H   0  0  0  0  0  0  0  0  0  0  0  0
  128.9772  138.8737  160.4403 H   0  0  0  0  0  0  0  0  0  0  0  0
  131.1110  136.8444  159.4447 H   0  0  0  0  0  0  0  0  0  0  0  0
  129.6602  137.2705  158.5057 H   0  0  0  0  0  0  0  0  0  0  0  0
  128.8352  136.2952  161.0246 H   0  0  0  0  0  0  0  0  0  0  0  0
  130.4350  135.2165  158.0630 H   0  0  0  0  0  0  0  0  0  0  0  0
  129.6545  131.6407  155.8431 H   0  0  0  0  0  0  0  0  0  0  0  0
  131.1626  132.1018  155.0141 H   0  0  0  0  0  0  0  0  0  0  0  0
  131.8671  129.8368  155.5465 H   0  0  0  0  0  0  0  0  0  0  0  0
  131.6459  128.9538  157.7483 H   0  0  0  0  0  0  0  0  0  0  0  0
  130.7080  130.2783  159.5545 H   0  0  0  0  0  0  0  0  0  0  0  0
  129.3974  130.6172  158.3935 H   0  0  0  0  0  0  0  0  0  0  0  0
  126.3942  132.3373  160.9093 H   0  0  0  0  0  0  0  0  0  0  0  0
  127.5700  132.4181  162.2465 H   0  0  0  0  0  0  0  0  0  0  0  0
  126.1146  133.8339  163.5456 H   0  0  0  0  0  0  0  0  0  0  0  0
  125.1100  132.4939  162.9452 H   0  0  0  0  0  0  0  0  0  0  0  0
  124.4617  135.6877  160.5418 H   0  0  0  0  0  0  0  0  0  0  0  0
  126.7283  135.8740  159.8738 H   0  0  0  0  0  0  0  0  0  0  0  0
  126.2119  134.2710  159.3031 H   0  0  0  0  0  0  0  0  0  0  0  0
  1  2  2  0
  1 29  1  0
  1 30  1  0
  2  3  1  0
  2 31  1  0
  3  4  2  0
  3 32  1  0
  4  5  1  0
  4 33  1  0
  5  6  1  0
  5 34  1  0
  5 35  1  0
  6 36  1  0
  7  6  1  0
  7  8  1  0
  7 19  2  0
  8  9  1  0
  8 37  1  0
  9 10  1  6
  9 17  1  0
  9 11  1  0
 11 12  1  6
 11 17  1  0
 11 13  1  0
 13 14  1  0
 13 38  1  0
 13 39  1  0
 14 15  2  0
 14 40  1  0
 15 16  1  0
 15 41  1  0
 16 17  1  0
 16 42  1  0
 16 43  1  0
 17 18  1  1
 19 20  1  0
 19 21  1  0
 21 22  1  1
 21 28  1  0
 21 23  1  0
 23 24  1  0
 23 44  1  0
 23 45  1  0
 24 25  1  0
 24 46  1  0
 24 47  1  0
 25 26  2  0
 25 27  1  0
 27 28  1  0
 27 48  1  0
 28 49  1  0
 28 50  1  0
M  CHG  1  19   1
M  END
>  <DOCK_score>  (1) 
-45.220879

>  <SMILES>  (1) 
C=C/C=C/CNC(N[C@H]1[C@@H]2CC=CC[C@@H]21)=[NH+][C@@H]1CCC(=O)NC1

$$$$
