CC(C)n1ccc(CN(C(=O)c2c[nH]nc2[C@H]2CCC[NH2+]C2)c2ccc3ccccc3n2)n1
     RDKit          3D

 63 67  0  0  1  0  0  0  0  0999 V2000
  135.4186  137.6624  164.9713 C   0  0  0  0  0  0  0  0  0  0  0  0
  135.7752  136.4949  164.0491 C   0  0  0  0  0  0  0  0  0  0  0  0
  136.5105  135.4185  164.8499 C   0  0  0  0  0  0  0  0  0  0  0  0
  134.5490  135.9289  163.4813 N   0  0  0  0  0  0  0  0  0  0  0  0
  134.2440  135.8514  162.1689 C   0  0  0  0  0  0  0  0  0  0  0  0
  133.0287  135.2660  162.0618 C   0  0  0  0  0  0  0  0  0  0  0  0
  132.5757  134.9756  163.3529 C   0  0  0  0  0  0  0  0  0  0  0  0
  131.2650  134.3190  163.7025 C   0  0  0  0  0  0  0  0  0  0  0  0
  130.1894  134.9258  162.9144 N   0  0  0  0  0  0  0  0  0  0  0  0
  129.2119  134.1530  162.4010 C   0  0  0  0  0  0  0  0  0  0  0  0
  129.2227  132.9521  162.5917 O   0  0  0  0  0  0  0  0  0  0  0  0
  128.1297  134.7635  161.6083 C   0  0  0  0  0  0  0  0  0  0  0  0
  126.9295  135.2442  162.0930 C   0  0  0  0  0  0  0  0  0  0  0  0
  126.2326  135.7141  161.0461 N   0  0  0  0  0  0  0  0  0  0  0  0
  125.3494  136.1133  161.0863 H   0  0  0  0  0  0  0  0  0  0  0  0
  126.9970  135.5354  159.8877 N   0  0  0  0  0  0  0  0  0  0  0  0
  128.1257  134.9662  160.2099 C   0  0  0  0  0  0  0  0  0  0  0  0
  129.2339  134.5956  159.2582 C   0  0  1  0  0  0  0  0  0  0  0  0
  130.1452  135.1252  159.5358 H   0  0  0  0  0  0  0  0  0  0  0  0
  129.4802  133.0855  159.3232 C   0  0  0  0  0  0  0  0  0  0  0  0
  130.5527  132.7085  158.2971 C   0  0  0  0  0  0  0  0  0  0  0  0
  130.1031  133.1635  156.9070 C   0  0  0  0  0  0  0  0  0  0  0  0
  129.9100  134.6185  156.9031 N   0  0  0  0  0  0  0  0  0  0  0  0
  130.7656  135.0711  157.1884 H   0  0  0  0  0  0  0  0  0  0  0  0
  129.6645  134.9217  155.9725 H   0  0  0  0  0  0  0  0  0  0  0  0
  128.8332  134.9806  157.8325 C   0  0  0  0  0  0  0  0  0  0  0  0
  130.1769  136.2992  162.6964 C   0  0  0  0  0  0  0  0  0  0  0  0
  130.1098  137.1660  163.7958 C   0  0  0  0  0  0  0  0  0  0  0  0
  130.1022  138.5142  163.5979 C   0  0  0  0  0  0  0  0  0  0  0  0
  130.1513  138.9950  162.2737 C   0  0  0  0  0  0  0  0  0  0  0  0
  130.1404  140.3710  161.9973 C   0  0  0  0  0  0  0  0  0  0  0  0
  130.1884  140.7990  160.7052 C   0  0  0  0  0  0  0  0  0  0  0  0
  130.2491  139.8882  159.6527 C   0  0  0  0  0  0  0  0  0  0  0  0
  130.2613  138.5469  159.8852 C   0  0  0  0  0  0  0  0  0  0  0  0
  130.2125  138.0672  161.2055 C   0  0  0  0  0  0  0  0  0  0  0  0
  130.2228  136.7544  161.4619 N   0  0  0  0  0  0  0  0  0  0  0  0
  133.4836  135.3777  164.2048 N   0  0  0  0  0  0  0  0  0  0  0  0
  136.3310  138.0835  165.3937 H   0  0  0  0  0  0  0  0  0  0  0  0
  134.8948  138.4293  164.4006 H   0  0  0  0  0  0  0  0  0  0  0  0
  134.7760  137.3062  165.7765 H   0  0  0  0  0  0  0  0  0  0  0  0
  136.4177  136.8510  163.2438 H   0  0  0  0  0  0  0  0  0  0  0  0
  136.7645  134.5867  164.1929 H   0  0  0  0  0  0  0  0  0  0  0  0
  137.4229  135.8396  165.2723 H   0  0  0  0  0  0  0  0  0  0  0  0
  135.8680  135.0622  165.6551 H   0  0  0  0  0  0  0  0  0  0  0  0
  134.8593  136.1957  161.3509 H   0  0  0  0  0  0  0  0  0  0  0  0
  132.5020  135.0591  161.1419 H   0  0  0  0  0  0  0  0  0  0  0  0
  131.0606  134.4582  164.7641 H   0  0  0  0  0  0  0  0  0  0  0  0
  131.3217  133.2534  163.4801 H   0  0  0  0  0  0  0  0  0  0  0  0
  126.6098  135.2422  163.1246 H   0  0  0  0  0  0  0  0  0  0  0  0
  128.5555  132.5553  159.0956 H   0  0  0  0  0  0  0  0  0  0  0  0
  129.8206  132.8144  160.3226 H   0  0  0  0  0  0  0  0  0  0  0  0
  131.4913  133.1991  158.5547 H   0  0  0  0  0  0  0  0  0  0  0  0
  130.6942  131.6278  158.2990 H   0  0  0  0  0  0  0  0  0  0  0  0
  130.8643  132.8964  156.1740 H   0  0  0  0  0  0  0  0  0  0  0  0
  129.1642  132.6726  156.6505 H   0  0  0  0  0  0  0  0  0  0  0  0
  128.6569  136.0552  157.7827 H   0  0  0  0  0  0  0  0  0  0  0  0
  127.9218  134.4507  157.5561 H   0  0  0  0  0  0  0  0  0  0  0  0
  130.0689  136.7662  164.7984 H   0  0  0  0  0  0  0  0  0  0  0  0
  130.0545  139.1966  164.4337 H   0  0  0  0  0  0  0  0  0  0  0  0
  130.0935  141.0866  162.8048 H   0  0  0  0  0  0  0  0  0  0  0  0
  130.1797  141.8580  160.4937 H   0  0  0  0  0  0  0  0  0  0  0  0
  130.2867  140.2519  158.6366 H   0  0  0  0  0  0  0  0  0  0  0  0
  130.3087  137.8540  159.0581 H   0  0  0  0  0  0  0  0  0  0  0  0
  1  2  1  0
  1 38  1  0
  1 39  1  0
  1 40  1  0
  2  3  1  0
  2  4  1  0
  2 41  1  0
  3 42  1  0
  3 43  1  0
  3 44  1  0
  4 37  1  0
  4  5  1  0
  5  6  2  0
  5 45  1  0
  6  7  1  0
  6 46  1  0
  7  8  1  0
  7 37  2  0
  8  9  1  0
  8 47  1  0
  8 48  1  0
  9 10  1  0
  9 27  1  0
 10 11  2  0
 10 12  1  0
 12 17  1  0
 12 13  2  0
 13 14  1  0
 13 49  1  0
 14 15  1  0
 14 16  1  0
 16 17  2  0
 17 18  1  0
 18 19  1  1
 18 26  1  0
 18 20  1  0
 20 21  1  0
 20 50  1  0
 20 51  1  0
 21 22  1  0
 21 52  1  0
 21 53  1  0
 22 23  1  0
 22 54  1  0
 22 55  1  0
 23 24  1  0
 23 25  1  0
 23 26  1  0
 26 56  1  0
 26 57  1  0
 27 36  1  0
 27 28  2  0
 28 29  1  0
 28 58  1  0
 29 30  2  0
 29 59  1  0
 30 35  1  0
 30 31  1  0
 31 32  2  0
 31 60  1  0
 32 33  1  0
 32 61  1  0
 33 34  2  0
 33 62  1  0
 34 35  1  0
 34 63  1  0
 35 36  2  0
M  CHG  1  23   1
M  END
>  <DOCK_score>  (1) 
-42.513966

>  <SMILES>  (1) 
CC(C)n1ccc(CN(C(=O)c2c[nH]nc2[C@H]2CCC[NH2+]C2)c2ccc3ccccc3n2)n1

$$$$
