Nc1ccc(-c2c[nH]c(N[C@@H](C=Cc3ccc(-c4ccccc4)cc3)Cc3ccccc3)[nH+]2)cc1
     RDKit          3D

 64 68  0  0  1  0  0  0  0  0999 V2000
  130.6772  130.1192  152.3601 N   0  0  0  0  0  0  0  0  0  0  0  0
  130.7371  130.6864  153.6354 C   0  0  0  0  0  0  0  0  0  0  0  0
  130.2260  131.9604  153.8528 C   0  0  0  0  0  0  0  0  0  0  0  0
  130.2839  132.5224  155.1106 C   0  0  0  0  0  0  0  0  0  0  0  0
  130.8557  131.8115  156.1647 C   0  0  0  0  0  0  0  0  0  0  0  0
  130.9193  132.4139  157.5189 C   0  0  0  0  0  0  0  0  0  0  0  0
  130.8857  131.7392  158.6946 C   0  0  0  0  0  0  0  0  0  0  0  0
  130.9701  132.6779  159.6955 N   0  0  0  0  0  0  0  0  0  0  0  0
  130.9710  132.5024  160.6495 H   0  0  0  0  0  0  0  0  0  0  0  0
  131.0527  133.8990  159.1005 C   0  0  0  0  0  0  0  0  0  0  0  0
  131.1527  135.1121  159.7599 N   0  0  0  0  0  0  0  0  0  0  0  0
  130.5479  135.2784  161.0838 C   0  0  1  0  0  0  0  0  0  0  0  0
  130.7074  134.3747  161.6721 H   0  0  0  0  0  0  0  0  0  0  0  0
  131.1842  136.4519  161.7830 C   0  0  0  0  0  0  0  0  0  0  0  0
  132.2575  136.2700  162.5409 C   0  0  0  0  0  0  0  0  0  0  0  0
  132.8812  137.4203  163.2264 C   0  0  0  0  0  0  0  0  0  0  0  0
  132.1486  138.5909  163.4339 C   0  0  0  0  0  0  0  0  0  0  0  0
  132.7290  139.6606  164.0780 C   0  0  0  0  0  0  0  0  0  0  0  0
  134.0517  139.5794  164.5130 C   0  0  0  0  0  0  0  0  0  0  0  0
  134.6780  140.7343  165.2006 C   0  0  0  0  0  0  0  0  0  0  0  0
  136.0510  140.9509  165.0951 C   0  0  0  0  0  0  0  0  0  0  0  0
  136.6277  142.0300  165.7337 C   0  0  0  0  0  0  0  0  0  0  0  0
  135.8475  142.8898  166.4858 C   0  0  0  0  0  0  0  0  0  0  0  0
  134.4852  142.6770  166.5979 C   0  0  0  0  0  0  0  0  0  0  0  0
  133.8969  141.6041  165.9597 C   0  0  0  0  0  0  0  0  0  0  0  0
  134.7860  138.4125  164.3010 C   0  0  0  0  0  0  0  0  0  0  0  0
  134.2055  137.3398  163.6621 C   0  0  0  0  0  0  0  0  0  0  0  0
  129.0463  135.5288  160.9307 C   0  0  0  0  0  0  0  0  0  0  0  0
  128.3394  134.2180  160.7001 C   0  0  0  0  0  0  0  0  0  0  0  0
  128.1525  133.7506  159.4127 C   0  0  0  0  0  0  0  0  0  0  0  0
  127.5082  132.5460  159.2014 C   0  0  0  0  0  0  0  0  0  0  0  0
  127.0416  131.8137  160.2771 C   0  0  0  0  0  0  0  0  0  0  0  0
  127.2239  132.2837  161.5643 C   0  0  0  0  0  0  0  0  0  0  0  0
  127.8728  133.4858  161.7758 C   0  0  0  0  0  0  0  0  0  0  0  0
  131.0163  133.7374  157.8002 N   0  0  0  0  0  0  0  0  0  0  0  0
  131.0550  134.4505  157.1437 H   0  0  0  0  0  0  0  0  0  0  0  0
  131.3729  130.5361  155.9430 C   0  0  0  0  0  0  0  0  0  0  0  0
  131.3072  129.9758  154.6848 C   0  0  0  0  0  0  0  0  0  0  0  0
  130.2793  130.6145  151.6271 H   0  0  0  0  0  0  0  0  0  0  0  0
  131.0338  129.2301  152.2077 H   0  0  0  0  0  0  0  0  0  0  0  0
  129.7834  132.5110  153.0358 H   0  0  0  0  0  0  0  0  0  0  0  0
  129.8864  133.5122  155.2791 H   0  0  0  0  0  0  0  0  0  0  0  0
  130.8074  130.6695  158.8207 H   0  0  0  0  0  0  0  0  0  0  0  0
  131.6233  135.8522  159.3452 H   0  0  0  0  0  0  0  0  0  0  0  0
  130.7664  137.4410  161.6670 H   0  0  0  0  0  0  0  0  0  0  0  0
  132.6754  135.2809  162.6570 H   0  0  0  0  0  0  0  0  0  0  0  0
  131.1257  138.6557  163.0933 H   0  0  0  0  0  0  0  0  0  0  0  0
  132.1614  140.5646  164.2424 H   0  0  0  0  0  0  0  0  0  0  0  0
  136.6616  140.2779  164.5117 H   0  0  0  0  0  0  0  0  0  0  0  0
  137.6907  142.2011  165.6494 H   0  0  0  0  0  0  0  0  0  0  0  0
  136.3038  143.7303  166.9875 H   0  0  0  0  0  0  0  0  0  0  0  0
  133.8810  143.3516  167.1863 H   0  0  0  0  0  0  0  0  0  0  0  0
  132.8334  141.4386  166.0487 H   0  0  0  0  0  0  0  0  0  0  0  0
  135.8101  138.3504  164.6384 H   0  0  0  0  0  0  0  0  0  0  0  0
  134.7743  136.4365  163.4978 H   0  0  0  0  0  0  0  0  0  0  0  0
  128.8729  136.1895  160.0812 H   0  0  0  0  0  0  0  0  0  0  0  0
  128.6613  135.9946  161.8379 H   0  0  0  0  0  0  0  0  0  0  0  0
  128.5130  134.3250  158.5721 H   0  0  0  0  0  0  0  0  0  0  0  0
  127.3654  132.1790  158.1958 H   0  0  0  0  0  0  0  0  0  0  0  0
  126.5344  130.8747  160.1118 H   0  0  0  0  0  0  0  0  0  0  0  0
  126.8591  131.7117  162.4046 H   0  0  0  0  0  0  0  0  0  0  0  0
  128.0149  133.8531  162.7814 H   0  0  0  0  0  0  0  0  0  0  0  0
  131.8202  129.9854  156.7572 H   0  0  0  0  0  0  0  0  0  0  0  0
  131.7038  128.9858  154.5137 H   0  0  0  0  0  0  0  0  0  0  0  0
  1  2  1  0
  1 39  1  0
  1 40  1  0
  2 38  2  0
  2  3  1  0
  3  4  2  0
  3 41  1  0
  4  5  1  0
  4 42  1  0
  5  6  1  0
  5 37  2  0
  6 35  1  0
  6  7  2  0
  7  8  1  0
  7 43  1  0
  8  9  1  0
  8 10  1  0
 10 11  1  0
 10 35  2  0
 11 12  1  0
 11 44  1  0
 12 13  1  1
 12 14  1  0
 12 28  1  0
 14 15  2  0
 14 45  1  0
 15 16  1  0
 15 46  1  0
 16 27  1  0
 16 17  2  0
 17 18  1  0
 17 47  1  0
 18 19  2  0
 18 48  1  0
 19 20  1  0
 19 26  1  0
 20 25  1  0
 20 21  2  0
 21 22  1  0
 21 49  1  0
 22 23  2  0
 22 50  1  0
 23 24  1  0
 23 51  1  0
 24 25  2  0
 24 52  1  0
 25 53  1  0
 26 27  2  0
 26 54  1  0
 27 55  1  0
 28 29  1  0
 28 56  1  0
 28 57  1  0
 29 34  1  0
 29 30  2  0
 30 31  1  0
 30 58  1  0
 31 32  2  0
 31 59  1  0
 32 33  1  0
 32 60  1  0
 33 34  2  0
 33 61  1  0
 34 62  1  0
 35 36  1  0
 37 38  1  0
 37 63  1  0
 38 64  1  0
M  CHG  1  35   1
M  END
>  <DOCK_score>  (1) 
-59.953636

>  <SMILES>  (1) 
Nc1ccc(-c2c[nH]c(N[C@@H](C=Cc3ccc(-c4ccccc4)cc3)Cc3ccccc3)[nH+]2)cc1

$$$$
