O=C[C@H](CNc1[nH]cc(-c2ccc(-c3ccccc3)cc2)[nH+]1)C1=C(CC2=CCCCC2)[C@H](O)CCC1
     RDKit          3D

 72 76  0  0  1  0  0  0  0  0999 V2000
  130.3533  138.2719  160.3132 O   0  0  0  0  0  0  0  0  0  0  0  0
  129.7694  138.1109  161.3580 C   0  0  0  0  0  0  0  0  0  0  0  0
  129.9069  136.8094  162.1052 C   0  0  2  0  0  0  0  0  0  0  0  0
  129.8004  136.9915  163.1746 H   0  0  0  0  0  0  0  0  0  0  0  0
  131.2839  136.2038  161.8256 C   0  0  0  0  0  0  0  0  0  0  0  0
  131.4270  135.9592  160.3884 N   0  0  0  0  0  0  0  0  0  0  0  0
  131.0396  134.7435  159.8512 C   0  0  0  0  0  0  0  0  0  0  0  0
  130.5198  133.6977  160.5501 N   0  0  0  0  0  0  0  0  0  0  0  0
  130.3556  133.6703  161.5058 H   0  0  0  0  0  0  0  0  0  0  0  0
  130.2681  132.6892  159.6525 C   0  0  0  0  0  0  0  0  0  0  0  0
  130.6490  133.1441  158.4323 C   0  0  0  0  0  0  0  0  0  0  0  0
  130.5678  132.3933  157.1567 C   0  0  0  0  0  0  0  0  0  0  0  0
  130.3731  133.0766  155.9562 C   0  0  0  0  0  0  0  0  0  0  0  0
  130.3030  132.3792  154.7706 C   0  0  0  0  0  0  0  0  0  0  0  0
  130.4159  130.9892  154.7714 C   0  0  0  0  0  0  0  0  0  0  0  0
  130.3345  130.2380  153.4952 C   0  0  0  0  0  0  0  0  0  0  0  0
  131.0291  129.0389  153.3439 C   0  0  0  0  0  0  0  0  0  0  0  0
  130.9460  128.3418  152.1556 C   0  0  0  0  0  0  0  0  0  0  0  0
  130.1839  128.8363  151.1125 C   0  0  0  0  0  0  0  0  0  0  0  0
  129.4970  130.0285  151.2552 C   0  0  0  0  0  0  0  0  0  0  0  0
  129.5686  130.7315  152.4405 C   0  0  0  0  0  0  0  0  0  0  0  0
  130.6049  130.3055  155.9721 C   0  0  0  0  0  0  0  0  0  0  0  0
  130.6804  131.0029  157.1573 C   0  0  0  0  0  0  0  0  0  0  0  0
  131.1184  134.4079  158.5867 N   0  0  0  0  0  0  0  0  0  0  0  0
  131.4577  134.9729  157.8750 H   0  0  0  0  0  0  0  0  0  0  0  0
  128.8353  135.8528  161.6493 C   0  0  0  0  0  0  0  0  0  0  0  0
  128.3992  134.9799  162.4997 C   0  0  0  0  0  0  0  0  0  0  0  0
  129.0022  134.9762  163.8809 C   0  0  0  0  0  0  0  0  0  0  0  0
  128.2115  135.8945  164.7766 C   0  0  0  0  0  0  0  0  0  0  0  0
  128.8297  136.8945  165.3183 C   0  0  0  0  0  0  0  0  0  0  0  0
  128.1801  137.8863  166.2382 C   0  0  0  0  0  0  0  0  0  0  0  0
  126.6575  137.8100  166.1049 C   0  0  0  0  0  0  0  0  0  0  0  0
  126.2340  136.3398  166.2142 C   0  0  0  0  0  0  0  0  0  0  0  0
  126.7549  135.5961  164.9806 C   0  0  0  0  0  0  0  0  0  0  0  0
  127.3330  133.9669  162.1962 C   0  0  2  0  0  0  0  0  0  0  0  0
  126.3949  134.2868  162.6495 H   0  0  0  0  0  0  0  0  0  0  0  0
  127.7096  132.6991  162.7374 O   0  0  0  0  0  0  0  0  0  0  0  0
  127.1468  133.8371  160.6827 C   0  0  0  0  0  0  0  0  0  0  0  0
  127.0035  135.2424  160.0848 C   0  0  0  0  0  0  0  0  0  0  0  0
  128.3399  135.9721  160.2378 C   0  0  0  0  0  0  0  0  0  0  0  0
  129.1486  138.8995  161.7568 H   0  0  0  0  0  0  0  0  0  0  0  0
  132.0588  136.8957  162.1554 H   0  0  0  0  0  0  0  0  0  0  0  0
  131.3832  135.2624  162.3661 H   0  0  0  0  0  0  0  0  0  0  0  0
  131.7931  136.6490  159.8131 H   0  0  0  0  0  0  0  0  0  0  0  0
  129.8507  131.7184  159.8756 H   0  0  0  0  0  0  0  0  0  0  0  0
  130.2816  134.1528  155.9561 H   0  0  0  0  0  0  0  0  0  0  0  0
  130.1561  132.9086  153.8407 H   0  0  0  0  0  0  0  0  0  0  0  0
  131.6276  128.6540  154.1562 H   0  0  0  0  0  0  0  0  0  0  0  0
  131.4802  127.4105  152.0387 H   0  0  0  0  0  0  0  0  0  0  0  0
  130.1254  128.2897  150.1828 H   0  0  0  0  0  0  0  0  0  0  0  0
  128.9040  130.4100  150.4371 H   0  0  0  0  0  0  0  0  0  0  0  0
  129.0322  131.6624  152.5507 H   0  0  0  0  0  0  0  0  0  0  0  0
  130.6917  129.2289  155.9725 H   0  0  0  0  0  0  0  0  0  0  0  0
  130.8270  130.4734  158.0871 H   0  0  0  0  0  0  0  0  0  0  0  0
  128.9779  133.9644  164.2853 H   0  0  0  0  0  0  0  0  0  0  0  0
  130.0348  135.3214  163.8273 H   0  0  0  0  0  0  0  0  0  0  0  0
  129.8785  137.0228  165.0944 H   0  0  0  0  0  0  0  0  0  0  0  0
  128.4642  137.6650  167.2669 H   0  0  0  0  0  0  0  0  0  0  0  0
  128.5134  138.8913  165.9794 H   0  0  0  0  0  0  0  0  0  0  0  0
  126.1905  138.3863  166.9037 H   0  0  0  0  0  0  0  0  0  0  0  0
  126.3537  138.2112  165.1381 H   0  0  0  0  0  0  0  0  0  0  0  0
  126.6597  135.9020  167.1172 H   0  0  0  0  0  0  0  0  0  0  0  0
  125.1466  136.2733  166.2488 H   0  0  0  0  0  0  0  0  0  0  0  0
  126.1947  135.9124  164.1007 H   0  0  0  0  0  0  0  0  0  0  0  0
  126.6225  134.5238  165.1246 H   0  0  0  0  0  0  0  0  0  0  0  0
  128.5346  132.3467  162.3764 H   0  0  0  0  0  0  0  0  0  0  0  0
  126.2488  133.2562  160.4727 H   0  0  0  0  0  0  0  0  0  0  0  0
  128.0144  133.3407  160.2480 H   0  0  0  0  0  0  0  0  0  0  0  0
  126.7463  135.1666  159.0285 H   0  0  0  0  0  0  0  0  0  0  0  0
  126.2221  135.7879  160.6140 H   0  0  0  0  0  0  0  0  0  0  0  0
  129.0713  135.5321  159.5598 H   0  0  0  0  0  0  0  0  0  0  0  0
  128.2068  137.0255  159.9915 H   0  0  0  0  0  0  0  0  0  0  0  0
  1  2  2  0
  2  3  1  0
  2 41  1  0
  3  4  1  1
  3  5  1  0
  3 26  1  0
  5  6  1  0
  5 42  1  0
  5 43  1  0
  6 44  1  0
  7  6  1  0
  7 24  2  0
  7  8  1  0
  8  9  1  0
  8 10  1  0
 10 11  2  0
 10 45  1  0
 11 12  1  0
 11 24  1  0
 12 23  1  0
 12 13  2  0
 13 14  1  0
 13 46  1  0
 14 15  2  0
 14 47  1  0
 15 16  1  0
 15 22  1  0
 16 21  1  0
 16 17  2  0
 17 18  1  0
 17 48  1  0
 18 19  2  0
 18 49  1  0
 19 20  1  0
 19 50  1  0
 20 21  2  0
 20 51  1  0
 21 52  1  0
 22 23  2  0
 22 53  1  0
 23 54  1  0
 24 25  1  0
 26 40  1  0
 26 27  2  0
 27 28  1  0
 27 35  1  0
 28 29  1  0
 28 55  1  0
 28 56  1  0
 29 34  1  0
 29 30  2  0
 30 31  1  0
 30 57  1  0
 31 32  1  0
 31 58  1  0
 31 59  1  0
 32 33  1  0
 32 60  1  0
 32 61  1  0
 33 34  1  0
 33 62  1  0
 33 63  1  0
 34 64  1  0
 34 65  1  0
 35 36  1  1
 35 37  1  0
 35 38  1  0
 37 66  1  0
 38 39  1  0
 38 67  1  0
 38 68  1  0
 39 40  1  0
 39 69  1  0
 39 70  1  0
 40 71  1  0
 40 72  1  0
M  CHG  1  24   1
M  END
>  <DOCK_score>  (1) 
-57.48922

>  <SMILES>  (1) 
O=C[C@H](CNc1[nH]cc(-c2ccc(-c3ccccc3)cc2)[nH+]1)C1=C(CC2=CCCCC2)[C@H](O)CCC1

$$$$
