Cn1cnc(-c2ccc(-c3ccc(F)c(O)c3)cc2)c1NC(=O)C1C[C@@H]2CCCC[NH+]2C1
     RDKit          3D

 60 64  0  0  1  0  0  0  0  0999 V2000
  127.5226  136.9268  164.6275 C   0  0  0  0  0  0  0  0  0  0  0  0
  127.2573  136.1733  163.3991 N   0  0  0  0  0  0  0  0  0  0  0  0
  126.0396  135.7624  162.9512 C   0  0  0  0  0  0  0  0  0  0  0  0
  126.1947  135.1170  161.8304 N   0  0  0  0  0  0  0  0  0  0  0  0
  127.5055  135.0889  161.5087 C   0  0  0  0  0  0  0  0  0  0  0  0
  128.0965  134.4510  160.3103 C   0  0  0  0  0  0  0  0  0  0  0  0
  128.8094  135.2209  159.3896 C   0  0  0  0  0  0  0  0  0  0  0  0
  129.3634  134.6262  158.2779 C   0  0  0  0  0  0  0  0  0  0  0  0
  129.2031  133.2569  158.0664 C   0  0  0  0  0  0  0  0  0  0  0  0
  129.7951  132.6180  156.8661 C   0  0  0  0  0  0  0  0  0  0  0  0
  130.2079  131.2873  156.9147 C   0  0  0  0  0  0  0  0  0  0  0  0
  130.7545  130.6931  155.7953 C   0  0  0  0  0  0  0  0  0  0  0  0
  130.9034  131.4182  154.6256 C   0  0  0  0  0  0  0  0  0  0  0  0
  131.4434  130.8331  153.5341 F   0  0  0  0  0  0  0  0  0  0  0  0
  130.4989  132.7470  154.5714 C   0  0  0  0  0  0  0  0  0  0  0  0
  130.6465  133.4561  153.4209 O   0  0  0  0  0  0  0  0  0  0  0  0
  129.9453  133.3481  155.6888 C   0  0  0  0  0  0  0  0  0  0  0  0
  128.4859  132.4881  158.9832 C   0  0  0  0  0  0  0  0  0  0  0  0
  127.9361  133.0809  160.0979 C   0  0  0  0  0  0  0  0  0  0  0  0
  128.1890  135.7546  162.4879 C   0  0  0  0  0  0  0  0  0  0  0  0
  129.5648  135.9610  162.5492 N   0  0  0  0  0  0  0  0  0  0  0  0
  130.1071  137.0620  161.9919 C   0  0  0  0  0  0  0  0  0  0  0  0
  129.3963  137.8732  161.4368 O   0  0  0  0  0  0  0  0  0  0  0  0
  131.5960  137.2855  162.0582 C   0  0  1  0  0  0  0  0  0  0  0  0
  132.2860  136.6999  160.7993 C   0  0  0  0  0  0  0  0  0  0  0  0
  132.8904  137.9212  160.0996 C   0  0  2  0  0  0  0  0  0  0  0  0
  132.1722  138.3470  159.3990 H   0  0  0  0  0  0  0  0  0  0  0  0
  134.2111  137.6478  159.3954 C   0  0  0  0  0  0  0  0  0  0  0  0
  134.6945  138.9759  158.7909 C   0  0  0  0  0  0  0  0  0  0  0  0
  134.7838  140.0557  159.8687 C   0  0  0  0  0  0  0  0  0  0  0  0
  133.4576  140.1716  160.6352 C   0  0  0  0  0  0  0  0  0  0  0  0
  133.1498  138.8732  161.2127 N   0  0  1  0  0  0  0  0  0  0  0  0
  133.9366  138.5558  161.7586 H   0  0  0  0  0  0  0  0  0  0  0  0
  131.9181  138.8067  162.0151 C   0  0  0  0  0  0  0  0  0  0  0  0
  127.4611  137.9949  164.4189 H   0  0  0  0  0  0  0  0  0  0  0  0
  126.7834  136.6612  165.3831 H   0  0  0  0  0  0  0  0  0  0  0  0
  128.5192  136.6851  164.9944 H   0  0  0  0  0  0  0  0  0  0  0  0
  125.0967  135.9391  163.4474 H   0  0  0  0  0  0  0  0  0  0  0  0
  128.9301  136.2817  159.5511 H   0  0  0  0  0  0  0  0  0  0  0  0
  129.9185  135.2210  157.5676 H   0  0  0  0  0  0  0  0  0  0  0  0
  130.0968  130.7204  157.8272 H   0  0  0  0  0  0  0  0  0  0  0  0
  131.0705  129.6610  155.8333 H   0  0  0  0  0  0  0  0  0  0  0  0
  130.3370  134.3703  153.4799 H   0  0  0  0  0  0  0  0  0  0  0  0
  129.6302  134.3803  155.6480 H   0  0  0  0  0  0  0  0  0  0  0  0
  128.3616  131.4281  158.8185 H   0  0  0  0  0  0  0  0  0  0  0  0
  127.3805  132.4857  160.8074 H   0  0  0  0  0  0  0  0  0  0  0  0
  130.1339  135.3123  162.9929 H   0  0  0  0  0  0  0  0  0  0  0  0
  132.0080  136.8343  162.9609 H   0  0  0  0  0  0  0  0  0  0  0  0
  131.5541  136.2136  160.1544 H   0  0  0  0  0  0  0  0  0  0  0  0
  133.0687  135.9972  161.0849 H   0  0  0  0  0  0  0  0  0  0  0  0
  134.9441  137.2793  160.1132 H   0  0  0  0  0  0  0  0  0  0  0  0
  134.0639  136.9126  158.6044 H   0  0  0  0  0  0  0  0  0  0  0  0
  135.6785  138.8308  158.3450 H   0  0  0  0  0  0  0  0  0  0  0  0
  133.9939  139.2958  158.0195 H   0  0  0  0  0  0  0  0  0  0  0  0
  135.5806  139.8003  160.5673 H   0  0  0  0  0  0  0  0  0  0  0  0
  135.0121  141.0128  159.3998 H   0  0  0  0  0  0  0  0  0  0  0  0
  133.5527  140.9142  161.4274 H   0  0  0  0  0  0  0  0  0  0  0  0
  132.6598  140.4608  159.9511 H   0  0  0  0  0  0  0  0  0  0  0  0
  132.0937  139.1893  163.0204 H   0  0  0  0  0  0  0  0  0  0  0  0
  131.1136  139.3595  161.5302 H   0  0  0  0  0  0  0  0  0  0  0  0
  1  2  1  0
  1 35  1  0
  1 36  1  0
  1 37  1  0
  2 20  1  0
  2  3  1  0
  3  4  2  0
  3 38  1  0
  4  5  1  0
  5  6  1  0
  5 20  2  0
  6 19  1  0
  6  7  2  0
  7  8  1  0
  7 39  1  0
  8  9  2  0
  8 40  1  0
  9 10  1  0
  9 18  1  0
 10 17  1  0
 10 11  2  0
 11 12  1  0
 11 41  1  0
 12 13  2  0
 12 42  1  0
 13 14  1  0
 13 15  1  0
 15 16  1  0
 15 17  2  0
 16 43  1  0
 17 44  1  0
 18 19  2  0
 18 45  1  0
 19 46  1  0
 20 21  1  0
 21 22  1  0
 21 47  1  0
 22 23  2  0
 22 24  1  0
 24 34  1  0
 24 25  1  0
 24 48  1  1
 25 26  1  0
 25 49  1  0
 25 50  1  0
 26 27  1  6
 26 32  1  0
 26 28  1  0
 28 29  1  0
 28 51  1  0
 28 52  1  0
 29 30  1  0
 29 53  1  0
 29 54  1  0
 30 31  1  0
 30 55  1  0
 30 56  1  0
 31 32  1  0
 31 57  1  0
 31 58  1  0
 32 33  1  1
 32 34  1  0
 34 59  1  0
 34 60  1  0
M  CHG  1  32   1
M  END
>  <DOCK_score>  (1) 
-41.194191

>  <SMILES>  (1) 
Cn1cnc(-c2ccc(-c3ccc(F)c(O)c3)cc2)c1NC(=O)C1C[C@@H]2CCCC[NH+]2C1

$$$$
