CCc1ccc(-c2c[nH]c(N[C@H](/C=C/C(=O)OCc3cccc4ccccc34)c3ccccc3)[nH+]2)cc1
     RDKit          3D

 67 71  0  0  1  0  0  0  0  0999 V2000
  130.2135  129.1838  151.5508 C   0  0  0  0  0  0  0  0  0  0  0  0
  131.4864  129.5754  152.3040 C   0  0  0  0  0  0  0  0  0  0  0  0
  131.1215  130.3944  153.5153 C   0  0  0  0  0  0  0  0  0  0  0  0
  130.8761  129.7664  154.7231 C   0  0  0  0  0  0  0  0  0  0  0  0
  130.5470  130.5118  155.8370 C   0  0  0  0  0  0  0  0  0  0  0  0
  130.4511  131.8989  155.7405 C   0  0  0  0  0  0  0  0  0  0  0  0
  130.0925  132.7051  156.9329 C   0  0  0  0  0  0  0  0  0  0  0  0
  129.3159  132.2981  157.9674 C   0  0  0  0  0  0  0  0  0  0  0  0
  129.2425  133.3493  158.8485 N   0  0  0  0  0  0  0  0  0  0  0  0
  128.7566  133.3626  159.6879 H   0  0  0  0  0  0  0  0  0  0  0  0
  129.9772  134.3690  158.3263 C   0  0  0  0  0  0  0  0  0  0  0  0
  130.1595  135.6118  158.9082 N   0  0  0  0  0  0  0  0  0  0  0  0
  129.5331  135.9163  160.1971 C   0  0  2  0  0  0  0  0  0  0  0  0
  128.4508  135.8245  160.1056 H   0  0  0  0  0  0  0  0  0  0  0  0
  129.8850  137.3232  160.6067 C   0  0  0  0  0  0  0  0  0  0  0  0
  128.9218  138.2219  160.7960 C   0  0  0  0  0  0  0  0  0  0  0  0
  129.2650  139.5937  161.1955 C   0  0  0  0  0  0  0  0  0  0  0  0
  128.3854  140.4144  161.3684 O   0  0  0  0  0  0  0  0  0  0  0  0
  130.5555  139.9418  161.3705 O   0  0  0  0  0  0  0  0  0  0  0  0
  130.8204  141.3138  161.7654 C   0  0  0  0  0  0  0  0  0  0  0  0
  130.8287  141.4109  163.2691 C   0  0  0  0  0  0  0  0  0  0  0  0
  129.6786  141.6859  163.9434 C   0  0  0  0  0  0  0  0  0  0  0  0
  129.6657  141.7751  165.3338 C   0  0  0  0  0  0  0  0  0  0  0  0
  130.8049  141.5992  166.0579 C   0  0  0  0  0  0  0  0  0  0  0  0
  132.0126  141.3189  165.3966 C   0  0  0  0  0  0  0  0  0  0  0  0
  133.2086  141.1307  166.1101 C   0  0  0  0  0  0  0  0  0  0  0  0
  134.3594  140.8604  165.4360 C   0  0  0  0  0  0  0  0  0  0  0  0
  134.3716  140.7672  164.0454 C   0  0  0  0  0  0  0  0  0  0  0  0
  133.2328  140.9430  163.3212 C   0  0  0  0  0  0  0  0  0  0  0  0
  132.0247  141.2237  163.9824 C   0  0  0  0  0  0  0  0  0  0  0  0
  130.0332  134.9496  161.2394 C   0  0  0  0  0  0  0  0  0  0  0  0
  129.2231  134.6013  162.3040 C   0  0  0  0  0  0  0  0  0  0  0  0
  129.6801  133.7112  163.2578 C   0  0  0  0  0  0  0  0  0  0  0  0
  130.9505  133.1765  163.1519 C   0  0  0  0  0  0  0  0  0  0  0  0
  131.7625  133.5289  162.0901 C   0  0  0  0  0  0  0  0  0  0  0  0
  131.3038  134.4157  161.1339 C   0  0  0  0  0  0  0  0  0  0  0  0
  130.4883  133.9782  157.1844 N   0  0  0  0  0  0  0  0  0  0  0  0
  131.0567  134.5145  156.6097 H   0  0  0  0  0  0  0  0  0  0  0  0
  130.6940  132.5258  154.5196 C   0  0  0  0  0  0  0  0  0  0  0  0
  131.0277  131.7708  153.4136 C   0  0  0  0  0  0  0  0  0  0  0  0
  129.5698  128.5966  152.2060 H   0  0  0  0  0  0  0  0  0  0  0  0
  129.6864  130.0840  151.2353 H   0  0  0  0  0  0  0  0  0  0  0  0
  130.4775  128.5913  150.6748 H   0  0  0  0  0  0  0  0  0  0  0  0
  132.0135  128.6750  152.6196 H   0  0  0  0  0  0  0  0  0  0  0  0
  132.1301  130.1624  151.6489 H   0  0  0  0  0  0  0  0  0  0  0  0
  130.9460  128.6911  154.7956 H   0  0  0  0  0  0  0  0  0  0  0  0
  130.3602  130.0210  156.7808 H   0  0  0  0  0  0  0  0  0  0  0  0
  128.8449  131.3324  158.0772 H   0  0  0  0  0  0  0  0  0  0  0  0
  130.7022  136.2811  158.4625 H   0  0  0  0  0  0  0  0  0  0  0  0
  130.9191  137.6023  160.7466 H   0  0  0  0  0  0  0  0  0  0  0  0
  127.8880  137.9427  160.6561 H   0  0  0  0  0  0  0  0  0  0  0  0
  131.7905  141.6231  161.3760 H   0  0  0  0  0  0  0  0  0  0  0  0
  130.0435  141.9641  161.3634 H   0  0  0  0  0  0  0  0  0  0  0  0
  128.7614  141.8337  163.3925 H   0  0  0  0  0  0  0  0  0  0  0  0
  128.7388  141.9905  165.8446 H   0  0  0  0  0  0  0  0  0  0  0  0
  130.7805  141.6744  167.1350 H   0  0  0  0  0  0  0  0  0  0  0  0
  133.2145  141.2007  167.1880 H   0  0  0  0  0  0  0  0  0  0  0  0
  135.2772  140.7162  165.9867 H   0  0  0  0  0  0  0  0  0  0  0  0
  135.2985  140.5519  163.5348 H   0  0  0  0  0  0  0  0  0  0  0  0
  133.2571  140.8672  162.2442 H   0  0  0  0  0  0  0  0  0  0  0  0
  128.2320  135.0218  162.3888 H   0  0  0  0  0  0  0  0  0  0  0  0
  129.0457  133.4355  164.0872 H   0  0  0  0  0  0  0  0  0  0  0  0
  131.3085  132.4832  163.8985 H   0  0  0  0  0  0  0  0  0  0  0  0
  132.7549  133.1112  162.0073 H   0  0  0  0  0  0  0  0  0  0  0  0
  131.9381  134.6910  160.3043 H   0  0  0  0  0  0  0  0  0  0  0  0
  130.6208  133.6004  154.4391 H   0  0  0  0  0  0  0  0  0  0  0  0
  131.2159  132.2554  152.4670 H   0  0  0  0  0  0  0  0  0  0  0  0
  1  2  1  0
  1 41  1  0
  1 42  1  0
  1 43  1  0
  2  3  1  0
  2 44  1  0
  2 45  1  0
  3 40  2  0
  3  4  1  0
  4  5  2  0
  4 46  1  0
  5  6  1  0
  5 47  1  0
  6  7  1  0
  6 39  2  0
  7 37  1  0
  7  8  2  0
  8  9  1  0
  8 48  1  0
  9 10  1  0
  9 11  1  0
 11 12  1  0
 11 37  2  0
 12 13  1  0
 12 49  1  0
 13 14  1  6
 13 15  1  0
 13 31  1  0
 15 16  2  0
 15 50  1  0
 16 17  1  0
 16 51  1  0
 17 18  2  0
 17 19  1  0
 19 20  1  0
 20 21  1  0
 20 52  1  0
 20 53  1  0
 21 30  1  0
 21 22  2  0
 22 23  1  0
 22 54  1  0
 23 24  2  0
 23 55  1  0
 24 25  1  0
 24 56  1  0
 25 30  2  0
 25 26  1  0
 26 27  2  0
 26 57  1  0
 27 28  1  0
 27 58  1  0
 28 29  2  0
 28 59  1  0
 29 30  1  0
 29 60  1  0
 31 36  1  0
 31 32  2  0
 32 33  1  0
 32 61  1  0
 33 34  2  0
 33 62  1  0
 34 35  1  0
 34 63  1  0
 35 36  2  0
 35 64  1  0
 36 65  1  0
 37 38  1  0
 39 40  1  0
 39 66  1  0
 40 67  1  0
M  CHG  1  37   1
M  END
>  <DOCK_score>  (1) 
-63.034199

>  <SMILES>  (1) 
CCc1ccc(-c2c[nH]c(N[C@H](/C=C/C(=O)OCc3cccc4ccccc34)c3ccccc3)[nH+]2)cc1

$$$$
