OCC[NH2+]Cc1c[nH]nc1-c1ccc(NCC2CC=CC2)o1
     RDKit          3D

 45 47  0  0  1  0  0  0  0  0999 V2000
  132.2499  139.3183  158.6623 O   0  0  0  0  0  0  0  0  0  0  0  0
  131.3173  139.3604  159.7443 C   0  0  0  0  0  0  0  0  0  0  0  0
  131.5117  138.1304  160.6332 C   0  0  0  0  0  0  0  0  0  0  0  0
  131.2882  136.9136  159.8411 N   0  0  0  0  0  0  0  0  0  0  0  0
  131.9466  136.8839  159.0771 H   0  0  0  0  0  0  0  0  0  0  0  0
  130.3480  136.9187  159.4749 H   0  0  0  0  0  0  0  0  0  0  0  0
  131.4747  135.7326  160.6946 C   0  0  0  0  0  0  0  0  0  0  0  0
  131.2454  134.4843  159.8820 C   0  0  0  0  0  0  0  0  0  0  0  0
  132.1820  133.8059  159.1852 C   0  0  0  0  0  0  0  0  0  0  0  0
  131.5817  132.7481  158.5979 N   0  0  0  0  0  0  0  0  0  0  0  0
  132.0161  132.0869  158.0367 H   0  0  0  0  0  0  0  0  0  0  0  0
  130.2223  132.7744  158.9342 N   0  0  0  0  0  0  0  0  0  0  0  0
  130.0127  133.8202  159.7093 C   0  0  0  0  0  0  0  0  0  0  0  0
  128.7174  134.2242  160.2939 C   0  0  0  0  0  0  0  0  0  0  0  0
  127.5332  133.5776  160.1291 C   0  0  0  0  0  0  0  0  0  0  0  0
  126.5681  134.3022  160.8560 C   0  0  0  0  0  0  0  0  0  0  0  0
  127.2088  135.3524  161.4271 C   0  0  0  0  0  0  0  0  0  0  0  0
  126.6216  136.3215  162.2323 N   0  0  0  0  0  0  0  0  0  0  0  0
  127.4514  137.1298  163.1290 C   0  0  0  0  0  0  0  0  0  0  0  0
  128.1736  136.2141  164.1195 C   0  0  0  0  0  0  0  0  0  0  0  0
  127.1934  135.2005  164.7543 C   0  0  0  0  0  0  0  0  0  0  0  0
  127.6510  135.0703  166.1885 C   0  0  0  0  0  0  0  0  0  0  0  0
  128.4428  136.0535  166.5203 C   0  0  0  0  0  0  0  0  0  0  0  0
  128.6452  137.0034  165.3628 C   0  0  0  0  0  0  0  0  0  0  0  0
  128.5079  135.2954  161.0878 O   0  0  0  0  0  0  0  0  0  0  0  0
  132.1602  138.5398  158.0958 H   0  0  0  0  0  0  0  0  0  0  0  0
  130.3017  139.3659  159.3485 H   0  0  0  0  0  0  0  0  0  0  0  0
  131.4832  140.2633  160.3318 H   0  0  0  0  0  0  0  0  0  0  0  0
  130.8006  138.1625  161.4585 H   0  0  0  0  0  0  0  0  0  0  0  0
  132.5273  138.1250  161.0287 H   0  0  0  0  0  0  0  0  0  0  0  0
  130.7634  135.7647  161.5199 H   0  0  0  0  0  0  0  0  0  0  0  0
  132.4904  135.7272  161.0904 H   0  0  0  0  0  0  0  0  0  0  0  0
  133.2284  134.0629  159.1120 H   0  0  0  0  0  0  0  0  0  0  0  0
  127.3645  132.6810  159.5513 H   0  0  0  0  0  0  0  0  0  0  0  0
  125.5177  134.0661  160.9421 H   0  0  0  0  0  0  0  0  0  0  0  0
  125.6625  136.4624  162.2006 H   0  0  0  0  0  0  0  0  0  0  0  0
  128.1860  137.6833  162.5440 H   0  0  0  0  0  0  0  0  0  0  0  0
  126.8199  137.8301  163.6756 H   0  0  0  0  0  0  0  0  0  0  0  0
  129.0089  135.7039  163.6400 H   0  0  0  0  0  0  0  0  0  0  0  0
  126.1733  135.5826  164.7146 H   0  0  0  0  0  0  0  0  0  0  0  0
  127.2596  134.2386  164.2458 H   0  0  0  0  0  0  0  0  0  0  0  0
  127.3614  134.2686  166.8518 H   0  0  0  0  0  0  0  0  0  0  0  0
  128.8942  136.1723  167.4942 H   0  0  0  0  0  0  0  0  0  0  0  0
  129.6984  137.2674  165.2680 H   0  0  0  0  0  0  0  0  0  0  0  0
  128.0400  137.9005  165.4953 H   0  0  0  0  0  0  0  0  0  0  0  0
  1  2  1  0
  1 26  1  0
  2  3  1  0
  2 27  1  0
  2 28  1  0
  3  4  1  0
  3 29  1  0
  3 30  1  0
  4  5  1  0
  4  6  1  0
  4  7  1  0
  7  8  1  0
  7 31  1  0
  7 32  1  0
  8 13  1  0
  8  9  2  0
  9 10  1  0
  9 33  1  0
 10 11  1  0
 10 12  1  0
 12 13  2  0
 13 14  1  0
 14 25  1  0
 14 15  2  0
 15 16  1  0
 15 34  1  0
 16 17  2  0
 16 35  1  0
 17 18  1  0
 17 25  1  0
 18 19  1  0
 18 36  1  0
 19 20  1  0
 19 37  1  0
 19 38  1  0
 20 24  1  0
 20 21  1  0
 20 39  1  0
 21 22  1  0
 21 40  1  0
 21 41  1  0
 22 23  2  0
 22 42  1  0
 23 24  1  0
 23 43  1  0
 24 44  1  0
 24 45  1  0
M  CHG  1   4   1
M  END
>  <DOCK_score>  (1) 
-43.582066

>  <SMILES>  (1) 
OCC[NH2+]Cc1c[nH]nc1-c1ccc(NCC2CC=CC2)o1

$$$$
