Brc1ccc(-c2c[nH]c(NC(CCC3=C[C@H]4C=CC3CC4)c3ccccc3)[nH+]2)cc1
     RDKit          3D

 57 61  0  0  1  0  0  0  0  0999 V2000
  131.0461  129.7461  151.2148 Br  0  0  0  0  0  0  0  0  0  0  0  0
  130.8448  130.5560  152.9117 C   0  0  0  0  0  0  0  0  0  0  0  0
  130.7140  131.9305  153.0087 C   0  0  0  0  0  0  0  0  0  0  0  0
  130.5673  132.5265  154.2446 C   0  0  0  0  0  0  0  0  0  0  0  0
  130.5506  131.7418  155.3964 C   0  0  0  0  0  0  0  0  0  0  0  0
  130.3937  132.3771  156.7276 C   0  0  0  0  0  0  0  0  0  0  0  0
  129.8045  131.8188  157.8139 C   0  0  0  0  0  0  0  0  0  0  0  0
  129.8769  132.7443  158.8266 N   0  0  0  0  0  0  0  0  0  0  0  0
  129.5415  132.6348  159.7301 H   0  0  0  0  0  0  0  0  0  0  0  0
  130.5016  133.8452  158.3266 C   0  0  0  0  0  0  0  0  0  0  0  0
  130.7684  135.0089  159.0273 N   0  0  0  0  0  0  0  0  0  0  0  0
  130.3684  135.1263  160.4318 C   0  0  2  0  0  0  0  0  0  0  0  0
  129.3995  136.2997  160.5898 C   0  0  0  0  0  0  0  0  0  0  0  0
  128.1605  136.0582  159.7252 C   0  0  0  0  0  0  0  0  0  0  0  0
  127.4830  134.7852  160.1626 C   0  0  0  0  0  0  0  0  0  0  0  0
  127.3008  133.7410  159.3540 C   0  0  0  0  0  0  0  0  0  0  0  0
  126.5911  132.5661  160.0209 C   0  0  1  0  0  0  0  0  0  0  0  0
  126.5017  131.7085  159.3540 H   0  0  0  0  0  0  0  0  0  0  0  0
  127.3986  132.2378  161.2737 C   0  0  0  0  0  0  0  0  0  0  0  0
  127.5808  133.2815  162.0818 C   0  0  0  0  0  0  0  0  0  0  0  0
  126.9465  134.5676  161.5746 C   0  0  2  0  0  0  0  0  0  0  0  0
  125.4391  134.2887  161.4366 C   0  0  0  0  0  0  0  0  0  0  0  0
  125.2251  133.0890  160.5001 C   0  0  0  0  0  0  0  0  0  0  0  0
  131.5887  135.3641  161.2835 C   0  0  0  0  0  0  0  0  0  0  0  0
  131.6165  134.9176  162.5914 C   0  0  0  0  0  0  0  0  0  0  0  0
  132.7378  135.1310  163.3710 C   0  0  0  0  0  0  0  0  0  0  0  0
  133.8273  135.8005  162.8462 C   0  0  0  0  0  0  0  0  0  0  0  0
  133.7973  136.2523  161.5398 C   0  0  0  0  0  0  0  0  0  0  0  0
  132.6781  136.0338  160.7586 C   0  0  0  0  0  0  0  0  0  0  0  0
  130.8088  133.6220  157.0721 N   0  0  0  0  0  0  0  0  0  0  0  0
  131.2608  134.2470  156.4839 H   0  0  0  0  0  0  0  0  0  0  0  0
  130.6876  130.3586  155.2935 C   0  0  0  0  0  0  0  0  0  0  0  0
  130.8285  129.7721  154.0524 C   0  0  0  0  0  0  0  0  0  0  0  0
  130.7271  132.5377  152.1155 H   0  0  0  0  0  0  0  0  0  0  0  0
  130.4652  133.5991  154.3193 H   0  0  0  0  0  0  0  0  0  0  0  0
  129.3643  130.8343  157.8722 H   0  0  0  0  0  0  0  0  0  0  0  0
  131.2202  135.7466  158.5885 H   0  0  0  0  0  0  0  0  0  0  0  0
  129.8785  134.2054  160.7481 H   0  0  0  0  0  0  0  0  0  0  0  0
  129.1019  136.3871  161.6348 H   0  0  0  0  0  0  0  0  0  0  0  0
  129.8894  137.2206  160.2734 H   0  0  0  0  0  0  0  0  0  0  0  0
  127.4704  136.8943  159.8379 H   0  0  0  0  0  0  0  0  0  0  0  0
  128.4581  135.9711  158.6802 H   0  0  0  0  0  0  0  0  0  0  0  0
  127.6255  133.7276  158.3240 H   0  0  0  0  0  0  0  0  0  0  0  0
  127.7861  131.2521  161.4852 H   0  0  0  0  0  0  0  0  0  0  0  0
  128.1301  133.2213  163.0098 H   0  0  0  0  0  0  0  0  0  0  0  0
  127.1587  135.4132  162.2289 H   0  0  0  0  0  0  0  0  0  0  0  0
  125.0196  134.0661  162.4177 H   0  0  0  0  0  0  0  0  0  0  0  0
  124.9440  135.1659  161.0205 H   0  0  0  0  0  0  0  0  0  0  0  0
  124.6312  133.3956  159.6391 H   0  0  0  0  0  0  0  0  0  0  0  0
  124.7024  132.2990  161.0391 H   0  0  0  0  0  0  0  0  0  0  0  0
  130.7636  134.3983  163.0029 H   0  0  0  0  0  0  0  0  0  0  0  0
  132.7614  134.7779  164.3914 H   0  0  0  0  0  0  0  0  0  0  0  0
  134.7021  135.9710  163.4562 H   0  0  0  0  0  0  0  0  0  0  0  0
  134.6485  136.7757  161.1298 H   0  0  0  0  0  0  0  0  0  0  0  0
  132.6548  136.3866  159.7380 H   0  0  0  0  0  0  0  0  0  0  0  0
  130.6793  129.7465  156.1833 H   0  0  0  0  0  0  0  0  0  0  0  0
  130.9302  128.7000  153.9712 H   0  0  0  0  0  0  0  0  0  0  0  0
  1  2  1  0
  2 33  2  0
  2  3  1  0
  3  4  2  0
  3 34  1  0
  4  5  1  0
  4 35  1  0
  5  6  1  0
  5 32  2  0
  6 30  1  0
  6  7  2  0
  7  8  1  0
  7 36  1  0
  8  9  1  0
  8 10  1  0
 10 11  1  0
 10 30  2  0
 11 12  1  0
 11 37  1  0
 12 13  1  0
 12 24  1  0
 12 38  1  1
 13 14  1  0
 13 39  1  0
 13 40  1  0
 14 15  1  0
 14 41  1  0
 14 42  1  0
 15 21  1  0
 15 16  2  0
 16 17  1  0
 16 43  1  0
 17 18  1  6
 17 23  1  0
 17 19  1  0
 19 20  2  0
 19 44  1  0
 20 21  1  0
 20 45  1  0
 21 22  1  0
 21 46  1  1
 22 23  1  0
 22 47  1  0
 22 48  1  0
 23 49  1  0
 23 50  1  0
 24 29  1  0
 24 25  2  0
 25 26  1  0
 25 51  1  0
 26 27  2  0
 26 52  1  0
 27 28  1  0
 27 53  1  0
 28 29  2  0
 28 54  1  0
 29 55  1  0
 30 31  1  0
 32 33  1  0
 32 56  1  0
 33 57  1  0
M  CHG  1  30   1
M  END
>  <DOCK_score>  (1) 
-61.442924

>  <SMILES>  (1) 
Brc1ccc(-c2c[nH]c(NC(CCC3=C[C@H]4C=CC3CC4)c3ccccc3)[nH+]2)cc1

$$$$
