O=C1CC[C@H](NC(NC2CC2)=[NH+][C@H]2C[C@H]2N[C@@H]2CC[C@H]2F)CN1
     RDKit          3D

 50 53  0  0  1  0  0  0  0  0999 V2000
  123.7933  133.8426  161.8288 O   0  0  0  0  0  0  0  0  0  0  0  0
  124.9520  134.0800  161.5604 C   0  0  0  0  0  0  0  0  0  0  0  0
  125.8070  132.9574  161.0469 C   0  0  0  0  0  0  0  0  0  0  0  0
  127.2866  133.3251  161.1832 C   0  0  0  0  0  0  0  0  0  0  0  0
  127.4926  134.7297  160.6035 C   0  0  2  0  0  0  0  0  0  0  0  0
  127.0788  134.7764  159.5962 H   0  0  0  0  0  0  0  0  0  0  0  0
  128.9240  135.0391  160.5617 N   0  0  0  0  0  0  0  0  0  0  0  0
  129.6635  134.7222  159.4468 C   0  0  0  0  0  0  0  0  0  0  0  0
  129.0597  134.1150  158.3712 N   0  0  0  0  0  0  0  0  0  0  0  0
  129.8477  133.7774  157.1832 C   0  0  0  0  0  0  0  0  0  0  0  0
  130.6697  132.4876  157.2235 C   0  0  0  0  0  0  0  0  0  0  0  0
  129.4061  132.5628  156.3643 C   0  0  0  0  0  0  0  0  0  0  0  0
  130.9371  134.9975  159.4095 N   0  0  0  0  0  0  0  0  0  0  0  0
  131.3660  135.1943  158.5621 H   0  0  0  0  0  0  0  0  0  0  0  0
  131.7203  135.0095  160.6474 C   0  0  1  0  0  0  0  0  0  0  0  0
  131.3753  134.3322  161.4287 H   0  0  0  0  0  0  0  0  0  0  0  0
  133.2281  135.2393  160.5271 C   0  0  0  0  0  0  0  0  0  0  0  0
  132.3282  136.3433  161.0858 C   0  0  1  0  0  0  0  0  0  0  0  0
  132.3830  136.5440  162.1558 H   0  0  0  0  0  0  0  0  0  0  0  0
  132.0817  137.5140  160.2333 N   0  0  0  0  0  0  0  0  0  0  0  0
  130.7479  138.0761  160.4836 C   0  0  2  0  0  0  0  0  0  0  0  0
  129.9548  137.5261  159.9770 H   0  0  0  0  0  0  0  0  0  0  0  0
  130.6719  139.5979  160.2759 C   0  0  0  0  0  0  0  0  0  0  0  0
  129.7730  139.6440  161.5231 C   0  0  0  0  0  0  0  0  0  0  0  0
  130.4615  138.3438  161.9707 C   0  0  1  0  0  0  0  0  0  0  0  0
  131.3598  138.5079  162.5657 H   0  0  0  0  0  0  0  0  0  0  0  0
  129.5871  137.4171  162.5487 F   0  0  0  0  0  0  0  0  0  0  0  0
  126.7754  135.7396  161.5002 C   0  0  0  0  0  0  0  0  0  0  0  0
  125.3985  135.3242  161.7368 N   0  0  0  0  0  0  0  0  0  0  0  0
  125.6038  132.0547  161.6230 H   0  0  0  0  0  0  0  0  0  0  0  0
  125.5743  132.7758  159.9976 H   0  0  0  0  0  0  0  0  0  0  0  0
  127.8954  132.6079  160.6327 H   0  0  0  0  0  0  0  0  0  0  0  0
  127.5709  133.3171  162.2355 H   0  0  0  0  0  0  0  0  0  0  0  0
  129.3499  135.4675  161.3205 H   0  0  0  0  0  0  0  0  0  0  0  0
  128.1121  133.9103  158.3988 H   0  0  0  0  0  0  0  0  0  0  0  0
  130.2670  134.6246  156.6407 H   0  0  0  0  0  0  0  0  0  0  0  0
  131.6299  132.4863  156.7074 H   0  0  0  0  0  0  0  0  0  0  0  0
  130.6245  131.8900  158.1341 H   0  0  0  0  0  0  0  0  0  0  0  0
  128.5294  132.0147  156.7095 H   0  0  0  0  0  0  0  0  0  0  0  0
  129.5347  132.6110  155.2829 H   0  0  0  0  0  0  0  0  0  0  0  0
  133.8750  134.7138  161.2293 H   0  0  0  0  0  0  0  0  0  0  0  0
  133.6373  135.3817  159.5268 H   0  0  0  0  0  0  0  0  0  0  0  0
  132.1992  137.2822  159.2582 H   0  0  0  0  0  0  0  0  0  0  0  0
  131.6278  140.1049  160.4078 H   0  0  0  0  0  0  0  0  0  0  0  0
  130.1618  139.8884  159.3576 H   0  0  0  0  0  0  0  0  0  0  0  0
  129.9759  140.4927  162.1763 H   0  0  0  0  0  0  0  0  0  0  0  0
  128.7127  139.5229  161.3017 H   0  0  0  0  0  0  0  0  0  0  0  0
  127.2992  135.8106  162.4535 H   0  0  0  0  0  0  0  0  0  0  0  0
  126.7758  136.7159  161.0154 H   0  0  0  0  0  0  0  0  0  0  0  0
  124.7675  135.9947  162.0419 H   0  0  0  0  0  0  0  0  0  0  0  0
  1  2  2  0
  2 29  1  0
  2  3  1  0
  3  4  1  0
  3 30  1  0
  3 31  1  0
  4  5  1  0
  4 32  1  0
  4 33  1  0
  5  6  1  6
  5  7  1  0
  5 28  1  0
  7 34  1  0
  8  7  1  0
  8  9  1  0
  8 13  2  0
  9 10  1  0
  9 35  1  0
 10 12  1  0
 10 11  1  0
 10 36  1  0
 11 12  1  0
 11 37  1  0
 11 38  1  0
 12 39  1  0
 12 40  1  0
 13 14  1  0
 13 15  1  0
 15 16  1  1
 15 18  1  0
 15 17  1  0
 17 18  1  0
 17 41  1  0
 17 42  1  0
 18 19  1  1
 18 20  1  0
 20 21  1  0
 20 43  1  0
 21 22  1  6
 21 25  1  0
 21 23  1  0
 23 24  1  0
 23 44  1  0
 23 45  1  0
 24 25  1  0
 24 46  1  0
 24 47  1  0
 25 26  1  1
 25 27  1  0
 28 29  1  0
 28 48  1  0
 28 49  1  0
 29 50  1  0
M  CHG  1  13   1
M  END
>  <DOCK_score>  (1) 
-53.123268

>  <SMILES>  (1) 
O=C1CC[C@H](NC(NC2CC2)=[NH+][C@H]2C[C@H]2N[C@@H]2CC[C@H]2F)CN1

$$$$
