Nc1ccc(N(Cc2ccnc3c2CCCC3)[C@H]2CCC[NH+](Cc3ccccc3)C2)cc1O
     RDKit          3D

 68 72  0  0  1  0  0  0  0  0999 V2000
  126.7998  136.1207  165.6628 N   0  0  0  0  0  0  0  0  0  0  0  0
  127.7114  136.4106  164.6366 C   0  0  0  0  0  0  0  0  0  0  0  0
  129.0743  136.3829  164.8911 C   0  0  0  0  0  0  0  0  0  0  0  0
  129.9730  136.6682  163.8807 C   0  0  0  0  0  0  0  0  0  0  0  0
  129.5135  136.9822  162.6086 C   0  0  0  0  0  0  0  0  0  0  0  0
  130.4256  137.2704  161.5867 N   0  0  0  0  0  0  0  0  0  0  0  0
  130.8683  138.6497  161.3676 C   0  0  0  0  0  0  0  0  0  0  0  0
  132.2698  138.6454  160.8136 C   0  0  0  0  0  0  0  0  0  0  0  0
  132.4866  138.6136  159.4466 C   0  0  0  0  0  0  0  0  0  0  0  0
  133.7865  138.6113  158.9774 C   0  0  0  0  0  0  0  0  0  0  0  0
  134.8009  138.6358  159.8145 N   0  0  0  0  0  0  0  0  0  0  0  0
  134.6358  138.6628  161.1307 C   0  0  0  0  0  0  0  0  0  0  0  0
  133.3683  138.6790  161.6671 C   0  0  0  0  0  0  0  0  0  0  0  0
  133.1098  138.7327  163.1488 C   0  0  0  0  0  0  0  0  0  0  0  0
  134.3618  138.3306  163.9263 C   0  0  0  0  0  0  0  0  0  0  0  0
  135.5421  139.1571  163.4025 C   0  0  0  0  0  0  0  0  0  0  0  0
  135.8746  138.6722  161.9892 C   0  0  0  0  0  0  0  0  0  0  0  0
  130.9375  136.1931  160.7362 C   0  0  1  0  0  0  0  0  0  0  0  0
  131.6305  136.6060  160.0031 H   0  0  0  0  0  0  0  0  0  0  0  0
  131.6645  135.1599  161.6018 C   0  0  0  0  0  0  0  0  0  0  0  0
  132.1261  133.9996  160.7151 C   0  0  0  0  0  0  0  0  0  0  0  0
  130.9163  133.4036  159.9920 C   0  0  0  0  0  0  0  0  0  0  0  0
  130.2817  134.4340  159.1614 N   0  0  1  0  0  0  0  0  0  0  0  0
  130.9598  134.8077  158.5143 H   0  0  0  0  0  0  0  0  0  0  0  0
  129.1689  133.8383  158.4098 C   0  0  0  0  0  0  0  0  0  0  0  0
  129.7088  133.1078  157.2074 C   0  0  0  0  0  0  0  0  0  0  0  0
  129.8551  133.7715  156.0037 C   0  0  0  0  0  0  0  0  0  0  0  0
  130.3541  133.1026  154.9017 C   0  0  0  0  0  0  0  0  0  0  0  0
  130.6988  131.7676  155.0011 C   0  0  0  0  0  0  0  0  0  0  0  0
  130.5479  131.1025  156.2036 C   0  0  0  0  0  0  0  0  0  0  0  0
  130.0526  131.7726  157.3065 C   0  0  0  0  0  0  0  0  0  0  0  0
  129.7717  135.5157  160.0125 C   0  0  0  0  0  0  0  0  0  0  0  0
  128.1496  137.0108  162.3499 C   0  0  0  0  0  0  0  0  0  0  0  0
  127.2480  136.7256  163.3615 C   0  0  0  0  0  0  0  0  0  0  0  0
  125.9116  136.7534  163.1103 O   0  0  0  0  0  0  0  0  0  0  0  0
  125.8465  136.1397  165.4844 H   0  0  0  0  0  0  0  0  0  0  0  0
  127.1227  135.9014  166.5508 H   0  0  0  0  0  0  0  0  0  0  0  0
  129.4337  136.1386  165.8798 H   0  0  0  0  0  0  0  0  0  0  0  0
  131.0341  136.6468  164.0808 H   0  0  0  0  0  0  0  0  0  0  0  0
  130.1991  139.1379  160.6590 H   0  0  0  0  0  0  0  0  0  0  0  0
  130.8533  139.1908  162.3137 H   0  0  0  0  0  0  0  0  0  0  0  0
  131.6542  138.5915  158.7588 H   0  0  0  0  0  0  0  0  0  0  0  0
  133.9713  138.5890  157.9135 H   0  0  0  0  0  0  0  0  0  0  0  0
  132.8238  139.7469  163.4274 H   0  0  0  0  0  0  0  0  0  0  0  0
  132.2978  138.0490  163.3972 H   0  0  0  0  0  0  0  0  0  0  0  0
  134.2151  138.5315  164.9877 H   0  0  0  0  0  0  0  0  0  0  0  0
  134.5617  137.2696  163.7772 H   0  0  0  0  0  0  0  0  0  0  0  0
  135.2695  140.2123  163.3811 H   0  0  0  0  0  0  0  0  0  0  0  0
  136.4057  139.0150  164.0522 H   0  0  0  0  0  0  0  0  0  0  0  0
  136.2904  137.6657  162.0312 H   0  0  0  0  0  0  0  0  0  0  0  0
  136.6103  139.3467  161.5512 H   0  0  0  0  0  0  0  0  0  0  0  0
  132.5296  135.6246  162.0748 H   0  0  0  0  0  0  0  0  0  0  0  0
  130.9864  134.7846  162.3682 H   0  0  0  0  0  0  0  0  0  0  0  0
  132.5948  133.2336  161.3327 H   0  0  0  0  0  0  0  0  0  0  0  0
  132.8444  134.3657  159.9815 H   0  0  0  0  0  0  0  0  0  0  0  0
  130.1989  133.0370  160.7264 H   0  0  0  0  0  0  0  0  0  0  0  0
  131.2426  132.5779  159.3599 H   0  0  0  0  0  0  0  0  0  0  0  0
  128.6322  133.1378  159.0497 H   0  0  0  0  0  0  0  0  0  0  0  0
  128.4893  134.6250  158.0822 H   0  0  0  0  0  0  0  0  0  0  0  0
  129.5824  134.8136  155.9249 H   0  0  0  0  0  0  0  0  0  0  0  0
  130.4716  133.6220  153.9621 H   0  0  0  0  0  0  0  0  0  0  0  0
  131.0854  131.2441  154.1393 H   0  0  0  0  0  0  0  0  0  0  0  0
  130.8168  130.0594  156.2812 H   0  0  0  0  0  0  0  0  0  0  0  0
  129.9344  131.2529  158.2460 H   0  0  0  0  0  0  0  0  0  0  0  0
  129.0789  135.1041  160.7463 H   0  0  0  0  0  0  0  0  0  0  0  0
  129.2529  136.2488  159.3947 H   0  0  0  0  0  0  0  0  0  0  0  0
  127.7925  137.2510  161.3593 H   0  0  0  0  0  0  0  0  0  0  0  0
  125.6875  136.9818  162.1977 H   0  0  0  0  0  0  0  0  0  0  0  0
  1  2  1  0
  1 36  1  0
  1 37  1  0
  2 34  2  0
  2  3  1  0
  3  4  2  0
  3 38  1  0
  4  5  1  0
  4 39  1  0
  5  6  1  0
  5 33  2  0
  6  7  1  0
  6 18  1  0
  7  8  1  0
  7 40  1  0
  7 41  1  0
  8 13  1  0
  8  9  2  0
  9 10  1  0
  9 42  1  0
 10 11  2  0
 10 43  1  0
 11 12  1  0
 12 17  1  0
 12 13  2  0
 13 14  1  0
 14 15  1  0
 14 44  1  0
 14 45  1  0
 15 16  1  0
 15 46  1  0
 15 47  1  0
 16 17  1  0
 16 48  1  0
 16 49  1  0
 17 50  1  0
 17 51  1  0
 18 19  1  6
 18 32  1  0
 18 20  1  0
 20 21  1  0
 20 52  1  0
 20 53  1  0
 21 22  1  0
 21 54  1  0
 21 55  1  0
 22 23  1  0
 22 56  1  0
 22 57  1  0
 23 24  1  6
 23 25  1  0
 23 32  1  0
 25 26  1  0
 25 58  1  0
 25 59  1  0
 26 31  1  0
 26 27  2  0
 27 28  1  0
 27 60  1  0
 28 29  2  0
 28 61  1  0
 29 30  1  0
 29 62  1  0
 30 31  2  0
 30 63  1  0
 31 64  1  0
 32 65  1  0
 32 66  1  0
 33 34  1  0
 33 67  1  0
 34 35  1  0
 35 68  1  0
M  CHG  1  23   1
M  END
>  <DOCK_score>  (1) 
-43.906456

>  <SMILES>  (1) 
Nc1ccc(N(Cc2ccnc3c2CCCC3)[C@H]2CCC[NH+](Cc3ccccc3)C2)cc1O

$$$$
