CC1C[C@H]1[NH+]=C(NC1CC=CCC1)N[C@H]1CCC(=O)NC1
     RDKit          3D

 48 50  0  0  1  0  0  0  0  0999 V2000
  133.4037  136.9136  160.1094 C   0  0  0  0  0  0  0  0  0  0  0  0
  133.0256  135.9970  161.2746 C   0  0  1  0  0  0  0  0  0  0  0  0
  131.6922  136.2609  161.9770 C   0  0  0  0  0  0  0  0  0  0  0  0
  131.8497  135.0403  161.0680 C   0  0  1  0  0  0  0  0  0  0  0  0
  131.9075  134.0616  161.5445 H   0  0  0  0  0  0  0  0  0  0  0  0
  131.1721  135.0719  159.7695 N   0  0  0  0  0  0  0  0  0  0  0  0
  131.6667  135.3104  158.9700 H   0  0  0  0  0  0  0  0  0  0  0  0
  129.9044  134.7795  159.6886 C   0  0  0  0  0  0  0  0  0  0  0  0
  129.4016  134.2117  158.5420 N   0  0  0  0  0  0  0  0  0  0  0  0
  130.2537  133.3542  157.7147 C   0  0  1  0  0  0  0  0  0  0  0  0
  130.7127  132.1440  158.5308 C   0  0  0  0  0  0  0  0  0  0  0  0
  131.3646  131.1328  157.6339 C   0  0  0  0  0  0  0  0  0  0  0  0
  131.2394  131.1185  156.3456 C   0  0  0  0  0  0  0  0  0  0  0  0
  130.4243  132.1106  155.5690 C   0  0  0  0  0  0  0  0  0  0  0  0
  129.4620  132.8494  156.5017 C   0  0  0  0  0  0  0  0  0  0  0  0
  129.0701  135.0388  160.7502 N   0  0  0  0  0  0  0  0  0  0  0  0
  127.6454  134.7103  160.6596 C   0  0  1  0  0  0  0  0  0  0  0  0
  127.3177  134.7869  159.6228 H   0  0  0  0  0  0  0  0  0  0  0  0
  127.4131  133.2825  161.1684 C   0  0  0  0  0  0  0  0  0  0  0  0
  125.9562  132.9019  160.8935 C   0  0  0  0  0  0  0  0  0  0  0  0
  125.0436  133.9938  161.3735 C   0  0  0  0  0  0  0  0  0  0  0  0
  123.8704  133.7320  161.5344 O   0  0  0  0  0  0  0  0  0  0  0  0
  125.4544  135.2358  161.6325 N   0  0  0  0  0  0  0  0  0  0  0  0
  126.8397  135.6769  161.5285 C   0  0  0  0  0  0  0  0  0  0  0  0
  132.5555  137.5501  159.8576 H   0  0  0  0  0  0  0  0  0  0  0  0
  134.2518  137.5354  160.3966 H   0  0  0  0  0  0  0  0  0  0  0  0
  133.6735  136.3086  159.2439 H   0  0  0  0  0  0  0  0  0  0  0  0
  133.8569  135.6479  161.8871 H   0  0  0  0  0  0  0  0  0  0  0  0
  131.0842  137.0873  161.6089 H   0  0  0  0  0  0  0  0  0  0  0  0
  131.6460  136.0853  163.0518 H   0  0  0  0  0  0  0  0  0  0  0  0
  128.4823  134.3790  158.2808 H   0  0  0  0  0  0  0  0  0  0  0  0
  131.1225  133.9187  157.3759 H   0  0  0  0  0  0  0  0  0  0  0  0
  129.8509  131.6904  159.0203 H   0  0  0  0  0  0  0  0  0  0  0  0
  131.4264  132.4686  159.2881 H   0  0  0  0  0  0  0  0  0  0  0  0
  131.9798  130.3722  158.0914 H   0  0  0  0  0  0  0  0  0  0  0  0
  131.7507  130.3421  155.7958 H   0  0  0  0  0  0  0  0  0  0  0  0
  129.8537  131.5898  154.8000 H   0  0  0  0  0  0  0  0  0  0  0  0
  131.0921  132.8302  155.0953 H   0  0  0  0  0  0  0  0  0  0  0  0
  128.6781  132.1684  156.8334 H   0  0  0  0  0  0  0  0  0  0  0  0
  129.0156  133.6945  155.9779 H   0  0  0  0  0  0  0  0  0  0  0  0
  129.4249  135.4391  161.5594 H   0  0  0  0  0  0  0  0  0  0  0  0
  128.0770  132.5941  160.6456 H   0  0  0  0  0  0  0  0  0  0  0  0
  127.6080  133.2386  162.2400 H   0  0  0  0  0  0  0  0  0  0  0  0
  125.8156  132.7572  159.8224 H   0  0  0  0  0  0  0  0  0  0  0  0
  125.7190  131.9758  161.4169 H   0  0  0  0  0  0  0  0  0  0  0  0
  124.7895  135.8865  161.9073 H   0  0  0  0  0  0  0  0  0  0  0  0
  127.2802  135.7186  162.5246 H   0  0  0  0  0  0  0  0  0  0  0  0
  126.8687  136.6714  161.0832 H   0  0  0  0  0  0  0  0  0  0  0  0
  1  2  1  0
  1 25  1  0
  1 26  1  0
  1 27  1  0
  2  4  1  0
  2  3  1  0
  2 28  1  1
  3  4  1  0
  3 29  1  0
  3 30  1  0
  4  5  1  1
  4  6  1  0
  6  7  1  0
  8  6  2  0
  8  9  1  0
  8 16  1  0
  9 10  1  0
  9 31  1  0
 10 15  1  0
 10 11  1  0
 10 32  1  6
 11 12  1  0
 11 33  1  0
 11 34  1  0
 12 13  2  0
 12 35  1  0
 13 14  1  0
 13 36  1  0
 14 15  1  0
 14 37  1  0
 14 38  1  0
 15 39  1  0
 15 40  1  0
 16 17  1  0
 16 41  1  0
 17 18  1  6
 17 24  1  0
 17 19  1  0
 19 20  1  0
 19 42  1  0
 19 43  1  0
 20 21  1  0
 20 44  1  0
 20 45  1  0
 21 22  2  0
 21 23  1  0
 23 24  1  0
 23 46  1  0
 24 47  1  0
 24 48  1  0
M  CHG  1   6   1
M  END
>  <DOCK_score>  (1) 
-46.33416

>  <SMILES>  (1) 
CC1C[C@H]1[NH+]=C(NC1CC=CCC1)N[C@H]1CCC(=O)NC1

$$$$
