CCc1ccc(-c2c[nH]c(N[C@H](C=CCc3ccccc3)Cc3ccccc3)[nH+]2)cc1
     RDKit          3D

 61 64  0  0  1  0  0  0  0  0999 V2000
  132.0992  129.6020  152.4819 C   0  0  0  0  0  0  0  0  0  0  0  0
  130.6808  129.6470  153.0549 C   0  0  0  0  0  0  0  0  0  0  0  0
  130.6722  130.4834  154.3085 C   0  0  0  0  0  0  0  0  0  0  0  0
  130.4356  131.8442  154.2275 C   0  0  0  0  0  0  0  0  0  0  0  0
  130.4269  132.6148  155.3724 C   0  0  0  0  0  0  0  0  0  0  0  0
  130.6567  132.0197  156.6116 C   0  0  0  0  0  0  0  0  0  0  0  0
  130.6485  132.8427  157.8457 C   0  0  0  0  0  0  0  0  0  0  0  0
  130.2857  132.4222  159.0828 C   0  0  0  0  0  0  0  0  0  0  0  0
  130.4259  133.4974  159.9263 N   0  0  0  0  0  0  0  0  0  0  0  0
  130.2424  133.5083  160.8787 H   0  0  0  0  0  0  0  0  0  0  0  0
  130.8708  134.5443  159.1792 C   0  0  0  0  0  0  0  0  0  0  0  0
  131.1392  135.8170  159.6535 N   0  0  0  0  0  0  0  0  0  0  0  0
  130.9471  136.1254  161.0726 C   0  0  2  0  0  0  0  0  0  0  0  0
  131.5867  135.4798  161.6745 H   0  0  0  0  0  0  0  0  0  0  0  0
  129.5056  135.8941  161.4464 C   0  0  0  0  0  0  0  0  0  0  0  0
  129.2015  135.0193  162.3727 C   0  0  0  0  0  0  0  0  0  0  0  0
  127.7600  134.7878  162.7464 C   0  0  0  0  0  0  0  0  0  0  0  0
  127.1860  133.6954  161.8814 C   0  0  0  0  0  0  0  0  0  0  0  0
  126.5830  134.0114  160.6782 C   0  0  0  0  0  0  0  0  0  0  0  0
  126.0570  133.0092  159.8846 C   0  0  0  0  0  0  0  0  0  0  0  0
  126.1326  131.6913  160.2948 C   0  0  0  0  0  0  0  0  0  0  0  0
  126.7359  131.3754  161.4976 C   0  0  0  0  0  0  0  0  0  0  0  0
  127.2628  132.3773  162.2908 C   0  0  0  0  0  0  0  0  0  0  0  0
  131.3123  137.5887  161.3306 C   0  0  0  0  0  0  0  0  0  0  0  0
  132.8096  137.7214  161.4370 C   0  0  0  0  0  0  0  0  0  0  0  0
  133.4289  137.5968  162.6667 C   0  0  0  0  0  0  0  0  0  0  0  0
  134.8028  137.7138  162.7636 C   0  0  0  0  0  0  0  0  0  0  0  0
  135.5565  137.9658  161.6326 C   0  0  0  0  0  0  0  0  0  0  0  0
  134.9368  138.0957  160.4038 C   0  0  0  0  0  0  0  0  0  0  0  0
  133.5633  137.9735  160.3060 C   0  0  0  0  0  0  0  0  0  0  0  0
  130.9979  134.1506  157.9355 N   0  0  0  0  0  0  0  0  0  0  0  0
  131.2959  134.7052  157.1976 H   0  0  0  0  0  0  0  0  0  0  0  0
  130.8999  130.6494  156.6864 C   0  0  0  0  0  0  0  0  0  0  0  0
  130.9006  129.8876  155.5355 C   0  0  0  0  0  0  0  0  0  0  0  0
  132.1055  128.9972  151.5749 H   0  0  0  0  0  0  0  0  0  0  0  0
  132.4285  130.6139  152.2461 H   0  0  0  0  0  0  0  0  0  0  0  0
  132.7738  129.1623  153.2164 H   0  0  0  0  0  0  0  0  0  0  0  0
  130.3518  128.6355  153.2903 H   0  0  0  0  0  0  0  0  0  0  0  0
  130.0065  130.0872  152.3199 H   0  0  0  0  0  0  0  0  0  0  0  0
  130.2577  132.3042  153.2668 H   0  0  0  0  0  0  0  0  0  0  0  0
  130.2420  133.6768  155.3082 H   0  0  0  0  0  0  0  0  0  0  0  0
  129.9500  131.4320  159.3531 H   0  0  0  0  0  0  0  0  0  0  0  0
  131.4544  136.5046  159.0460 H   0  0  0  0  0  0  0  0  0  0  0  0
  128.7233  136.4495  160.9505 H   0  0  0  0  0  0  0  0  0  0  0  0
  129.9837  134.4637  162.8685 H   0  0  0  0  0  0  0  0  0  0  0  0
  127.1934  135.7065  162.5952 H   0  0  0  0  0  0  0  0  0  0  0  0
  127.6991  134.4916  163.7936 H   0  0  0  0  0  0  0  0  0  0  0  0
  126.5190  135.0416  160.3604 H   0  0  0  0  0  0  0  0  0  0  0  0
  125.5856  133.2562  158.9447 H   0  0  0  0  0  0  0  0  0  0  0  0
  125.7214  130.9084  159.6747 H   0  0  0  0  0  0  0  0  0  0  0  0
  126.7960  130.3456  161.8175 H   0  0  0  0  0  0  0  0  0  0  0  0
  127.7342  132.1305  163.2307 H   0  0  0  0  0  0  0  0  0  0  0  0
  130.9507  138.2040  160.5068 H   0  0  0  0  0  0  0  0  0  0  0  0
  130.8511  137.9196  162.2610 H   0  0  0  0  0  0  0  0  0  0  0  0
  132.8395  137.4042  163.5510 H   0  0  0  0  0  0  0  0  0  0  0  0
  135.2869  137.6126  163.7237 H   0  0  0  0  0  0  0  0  0  0  0  0
  136.6296  138.0616  161.7090 H   0  0  0  0  0  0  0  0  0  0  0  0
  135.5257  138.2930  159.5202 H   0  0  0  0  0  0  0  0  0  0  0  0
  133.0791  138.0752  159.3459 H   0  0  0  0  0  0  0  0  0  0  0  0
  131.0834  130.1838  157.6435 H   0  0  0  0  0  0  0  0  0  0  0  0
  131.0845  128.8249  155.5928 H   0  0  0  0  0  0  0  0  0  0  0  0
  1  2  1  0
  1 35  1  0
  1 36  1  0
  1 37  1  0
  2  3  1  0
  2 38  1  0
  2 39  1  0
  3 34  2  0
  3  4  1  0
  4  5  2  0
  4 40  1  0
  5  6  1  0
  5 41  1  0
  6  7  1  0
  6 33  2  0
  7 31  1  0
  7  8  2  0
  8  9  1  0
  8 42  1  0
  9 10  1  0
  9 11  1  0
 11 12  1  0
 11 31  2  0
 12 13  1  0
 12 43  1  0
 13 14  1  1
 13 15  1  0
 13 24  1  0
 15 16  2  0
 15 44  1  0
 16 17  1  0
 16 45  1  0
 17 18  1  0
 17 46  1  0
 17 47  1  0
 18 23  1  0
 18 19  2  0
 19 20  1  0
 19 48  1  0
 20 21  2  0
 20 49  1  0
 21 22  1  0
 21 50  1  0
 22 23  2  0
 22 51  1  0
 23 52  1  0
 24 25  1  0
 24 53  1  0
 24 54  1  0
 25 30  1  0
 25 26  2  0
 26 27  1  0
 26 55  1  0
 27 28  2  0
 27 56  1  0
 28 29  1  0
 28 57  1  0
 29 30  2  0
 29 58  1  0
 30 59  1  0
 31 32  1  0
 33 34  1  0
 33 60  1  0
 34 61  1  0
M  CHG  1  31   1
M  END
>  <DOCK_score>  (1) 
-58.248413

>  <SMILES>  (1) 
CCc1ccc(-c2c[nH]c(N[C@H](C=CCc3ccccc3)Cc3ccccc3)[nH+]2)cc1

$$$$
