Cc1ccc(-n2cc(C(O)[C@@H]3C(=O)CCC3[NH2+]Cc3ccccc3)c(C)n2)cc1
     RDKit          3D

 57 60  0  0  1  0  0  0  0  0999 V2000
  131.0361  129.5646  150.7409 C   0  0  0  0  0  0  0  0  0  0  0  0
  130.8282  130.0424  152.1549 C   0  0  0  0  0  0  0  0  0  0  0  0
  131.0534  129.1831  153.2138 C   0  0  0  0  0  0  0  0  0  0  0  0
  130.8683  129.6196  154.5112 C   0  0  0  0  0  0  0  0  0  0  0  0
  130.4452  130.9201  154.7508 C   0  0  0  0  0  0  0  0  0  0  0  0
  130.2518  131.3646  156.0660 N   0  0  0  0  0  0  0  0  0  0  0  0
  130.4106  132.6323  156.5091 C   0  0  0  0  0  0  0  0  0  0  0  0
  130.1266  132.6446  157.8321 C   0  0  0  0  0  0  0  0  0  0  0  0
  130.1696  133.8490  158.7369 C   0  0  2  0  0  0  0  0  0  0  0  0
  129.8638  135.0231  157.9819 O   0  0  0  0  0  0  0  0  0  0  0  0
  131.5683  133.9822  159.3426 C   0  0  2  0  0  0  0  0  0  0  0  0
  132.3073  134.1021  158.5505 H   0  0  0  0  0  0  0  0  0  0  0  0
  131.8930  132.7538  160.1744 C   0  0  0  0  0  0  0  0  0  0  0  0
  132.3475  131.7029  159.7905 O   0  0  0  0  0  0  0  0  0  0  0  0
  131.5183  133.1396  161.6012 C   0  0  0  0  0  0  0  0  0  0  0  0
  131.9635  134.6208  161.6883 C   0  0  0  0  0  0  0  0  0  0  0  0
  131.6163  135.1897  160.2958 C   0  0  1  0  0  0  0  0  0  0  0  0
  132.6540  136.1349  159.8625 N   0  0  0  0  0  0  0  0  0  0  0  0
  133.5574  135.8065  160.1695 H   0  0  0  0  0  0  0  0  0  0  0  0
  132.6459  136.2052  158.8560 H   0  0  0  0  0  0  0  0  0  0  0  0
  132.3884  137.4559  160.4479 C   0  0  0  0  0  0  0  0  0  0  0  0
  133.4529  138.4255  160.0034 C   0  0  0  0  0  0  0  0  0  0  0  0
  134.6010  138.5847  160.7567 C   0  0  0  0  0  0  0  0  0  0  0  0
  135.5794  139.4711  160.3465 C   0  0  0  0  0  0  0  0  0  0  0  0
  135.4055  140.2048  159.1880 C   0  0  0  0  0  0  0  0  0  0  0  0
  134.2552  140.0494  158.4374 C   0  0  0  0  0  0  0  0  0  0  0  0
  133.2788  139.1599  158.8453 C   0  0  0  0  0  0  0  0  0  0  0  0
  129.7910  131.3406  158.2129 C   0  0  0  0  0  0  0  0  0  0  0  0
  129.4088  130.8967  159.6013 C   0  0  0  0  0  0  0  0  0  0  0  0
  129.8657  130.5731  157.1555 N   0  0  0  0  0  0  0  0  0  0  0  0
  130.2147  131.7795  153.6849 C   0  0  0  0  0  0  0  0  0  0  0  0
  130.4067  131.3388  152.3902 C   0  0  0  0  0  0  0  0  0  0  0  0
  132.0649  129.7611  150.4386 H   0  0  0  0  0  0  0  0  0  0  0  0
  130.3546  130.0942  150.0745 H   0  0  0  0  0  0  0  0  0  0  0  0
  130.8392  128.4944  150.6863 H   0  0  0  0  0  0  0  0  0  0  0  0
  131.3787  128.1703  153.0267 H   0  0  0  0  0  0  0  0  0  0  0  0
  131.0488  128.9489  155.3382 H   0  0  0  0  0  0  0  0  0  0  0  0
  130.7086  133.4826  155.9136 H   0  0  0  0  0  0  0  0  0  0  0  0
  129.4375  133.7297  159.5356 H   0  0  0  0  0  0  0  0  0  0  0  0
  130.4756  135.1922  157.2525 H   0  0  0  0  0  0  0  0  0  0  0  0
  130.4429  133.0504  161.7551 H   0  0  0  0  0  0  0  0  0  0  0  0
  132.0616  132.5279  162.3215 H   0  0  0  0  0  0  0  0  0  0  0  0
  131.4058  135.1434  162.4656 H   0  0  0  0  0  0  0  0  0  0  0  0
  133.0351  134.6883  161.8760 H   0  0  0  0  0  0  0  0  0  0  0  0
  130.6454  135.6844  160.3238 H   0  0  0  0  0  0  0  0  0  0  0  0
  131.4126  137.8105  160.1165 H   0  0  0  0  0  0  0  0  0  0  0  0
  132.3974  137.3798  161.5352 H   0  0  0  0  0  0  0  0  0  0  0  0
  134.7351  138.0142  161.6639 H   0  0  0  0  0  0  0  0  0  0  0  0
  136.4783  139.5921  160.9328 H   0  0  0  0  0  0  0  0  0  0  0  0
  136.1687  140.8992  158.8690 H   0  0  0  0  0  0  0  0  0  0  0  0
  134.1195  140.6226  157.5323 H   0  0  0  0  0  0  0  0  0  0  0  0
  132.3800  139.0385  158.2589 H   0  0  0  0  0  0  0  0  0  0  0  0
  130.3040  130.5970  160.1462 H   0  0  0  0  0  0  0  0  0  0  0  0
  128.9232  131.7200  160.1252 H   0  0  0  0  0  0  0  0  0  0  0  0
  128.7228  130.0521  159.5368 H   0  0  0  0  0  0  0  0  0  0  0  0
  129.8859  132.7918  153.8683 H   0  0  0  0  0  0  0  0  0  0  0  0
  130.2278  132.0070  151.5608 H   0  0  0  0  0  0  0  0  0  0  0  0
  1  2  1  0
  1 33  1  0
  1 34  1  0
  1 35  1  0
  2 32  2  0
  2  3  1  0
  3  4  2  0
  3 36  1  0
  4  5  1  0
  4 37  1  0
  5  6  1  0
  5 31  2  0
  6 30  1  0
  6  7  1  0
  7  8  2  0
  7 38  1  0
  8  9  1  0
  8 28  1  0
  9 10  1  0
  9 11  1  0
  9 39  1  1
 10 40  1  0
 11 12  1  6
 11 17  1  0
 11 13  1  0
 13 14  2  0
 13 15  1  0
 15 16  1  0
 15 41  1  0
 15 42  1  0
 16 17  1  0
 16 43  1  0
 16 44  1  0
 17 18  1  0
 17 45  1  1
 18 19  1  0
 18 20  1  0
 18 21  1  0
 21 22  1  0
 21 46  1  0
 21 47  1  0
 22 27  1  0
 22 23  2  0
 23 24  1  0
 23 48  1  0
 24 25  2  0
 24 49  1  0
 25 26  1  0
 25 50  1  0
 26 27  2  0
 26 51  1  0
 27 52  1  0
 28 29  1  0
 28 30  2  0
 29 53  1  0
 29 54  1  0
 29 55  1  0
 31 32  1  0
 31 56  1  0
 32 57  1  0
M  CHG  1  18   1
M  END
>  <DOCK_score>  (1) 
-59.644299

>  <SMILES>  (1) 
Cc1ccc(-n2cc(C(O)[C@@H]3C(=O)CCC3[NH2+]Cc3ccccc3)c(C)n2)cc1

$$$$
