CC(C)C1=CC[C@H](C[NH2+]C(C#CCc2cc(C(F)F)on2)c2ccccc2)CC1
     RDKit          3D

 58 60  0  0  1  0  0  0  0  0999 V2000
  134.7701  141.3677  162.3972 C   0  0  0  0  0  0  0  0  0  0  0  0
  135.3408  140.0370  161.9028 C   0  0  0  0  0  0  0  0  0  0  0  0
  136.2010  139.4110  163.0025 C   0  0  0  0  0  0  0  0  0  0  0  0
  134.2100  139.1029  161.5566 C   0  0  0  0  0  0  0  0  0  0  0  0
  134.1320  138.6692  160.3396 C   0  0  0  0  0  0  0  0  0  0  0  0
  133.0594  137.7439  159.8439 C   0  0  0  0  0  0  0  0  0  0  0  0
  132.3588  137.0685  161.0247 C   0  0  2  0  0  0  0  0  0  0  0  0
  133.0336  136.3531  161.4949 H   0  0  0  0  0  0  0  0  0  0  0  0
  131.1037  136.3450  160.5328 C   0  0  0  0  0  0  0  0  0  0  0  0
  131.4827  135.0554  159.9398 N   0  0  0  0  0  0  0  0  0  0  0  0
  131.9469  134.4894  160.6344 H   0  0  0  0  0  0  0  0  0  0  0  0
  132.1067  135.2129  159.1627 H   0  0  0  0  0  0  0  0  0  0  0  0
  130.2779  134.3607  159.4674 C   0  0  2  0  0  0  0  0  0  0  0  0
  129.3676  134.1309  160.6011 C   0  0  0  0  0  0  0  0  0  0  0  0
  128.6415  133.9475  161.5053 C   0  0  0  0  0  0  0  0  0  0  0  0
  127.7314  133.7177  162.6391 C   0  0  0  0  0  0  0  0  0  0  0  0
  127.3425  135.0405  163.2474 C   0  0  0  0  0  0  0  0  0  0  0  0
  128.0079  135.7198  164.2937 C   0  0  0  0  0  0  0  0  0  0  0  0
  127.2771  136.8466  164.4690 C   0  0  0  0  0  0  0  0  0  0  0  0
  127.5390  137.9459  165.4662 C   0  0  0  0  0  0  0  0  0  0  0  0
  126.4399  138.0702  166.3226 F   0  0  0  0  0  0  0  0  0  0  0  0
  128.6799  137.6350  166.2137 F   0  0  0  0  0  0  0  0  0  0  0  0
  126.2712  136.7883  163.5849 O   0  0  0  0  0  0  0  0  0  0  0  0
  126.3242  135.7812  162.9174 N   0  0  0  0  0  0  0  0  0  0  0  0
  130.6665  133.0378  158.8591 C   0  0  0  0  0  0  0  0  0  0  0  0
  130.9614  132.9570  157.5110 C   0  0  0  0  0  0  0  0  0  0  0  0
  131.3186  131.7436  156.9532 C   0  0  0  0  0  0  0  0  0  0  0  0
  131.3789  130.6108  157.7430 C   0  0  0  0  0  0  0  0  0  0  0  0
  131.0848  130.6919  159.0913 C   0  0  0  0  0  0  0  0  0  0  0  0
  130.7287  131.9054  159.6493 C   0  0  0  0  0  0  0  0  0  0  0  0
  131.9661  138.1503  162.0390 C   0  0  0  0  0  0  0  0  0  0  0  0
  133.2448  138.7330  162.6446 C   0  0  0  0  0  0  0  0  0  0  0  0
  134.1582  141.1940  163.2824 H   0  0  0  0  0  0  0  0  0  0  0  0
  135.5880  142.0432  162.6474 H   0  0  0  0  0  0  0  0  0  0  0  0
  134.1572  141.8136  161.6137 H   0  0  0  0  0  0  0  0  0  0  0  0
  135.9526  140.2105  161.0176 H   0  0  0  0  0  0  0  0  0  0  0  0
  136.6077  138.4629  162.6503 H   0  0  0  0  0  0  0  0  0  0  0  0
  137.0189  140.0866  163.2528 H   0  0  0  0  0  0  0  0  0  0  0  0
  135.5892  139.2375  163.8876 H   0  0  0  0  0  0  0  0  0  0  0  0
  134.8857  138.9931  159.6372 H   0  0  0  0  0  0  0  0  0  0  0  0
  133.5064  136.9820  159.2052 H   0  0  0  0  0  0  0  0  0  0  0  0
  132.3295  138.3126  159.2678 H   0  0  0  0  0  0  0  0  0  0  0  0
  130.6024  136.9564  159.7825 H   0  0  0  0  0  0  0  0  0  0  0  0
  130.4298  136.1747  161.3723 H   0  0  0  0  0  0  0  0  0  0  0  0
  129.7765  134.9723  158.7171 H   0  0  0  0  0  0  0  0  0  0  0  0
  126.8372  133.2021  162.2884 H   0  0  0  0  0  0  0  0  0  0  0  0
  128.2325  133.1061  163.3893 H   0  0  0  0  0  0  0  0  0  0  0  0
  128.8949  135.4125  164.8276 H   0  0  0  0  0  0  0  0  0  0  0  0
  127.6960  138.8861  164.9375 H   0  0  0  0  0  0  0  0  0  0  0  0
  130.9087  133.8409  156.8926 H   0  0  0  0  0  0  0  0  0  0  0  0
  131.5486  131.6804  155.8998 H   0  0  0  0  0  0  0  0  0  0  0  0
  131.6572  129.6628  157.3071 H   0  0  0  0  0  0  0  0  0  0  0  0
  131.1330  129.8070  159.7086 H   0  0  0  0  0  0  0  0  0  0  0  0
  130.4986  131.9686  160.7027 H   0  0  0  0  0  0  0  0  0  0  0  0
  131.4067  138.9387  161.5356 H   0  0  0  0  0  0  0  0  0  0  0  0
  131.3523  137.7101  162.8249 H   0  0  0  0  0  0  0  0  0  0  0  0
  132.9972  139.6216  163.2254 H   0  0  0  0  0  0  0  0  0  0  0  0
  133.7047  137.9926  163.2992 H   0  0  0  0  0  0  0  0  0  0  0  0
  1  2  1  0
  1 33  1  0
  1 34  1  0
  1 35  1  0
  2  3  1  0
  2  4  1  0
  2 36  1  0
  3 37  1  0
  3 38  1  0
  3 39  1  0
  4 32  1  0
  4  5  2  0
  5  6  1  0
  5 40  1  0
  6  7  1  0
  6 41  1  0
  6 42  1  0
  7  8  1  1
  7  9  1  0
  7 31  1  0
  9 10  1  0
  9 43  1  0
  9 44  1  0
 10 11  1  0
 10 12  1  0
 10 13  1  0
 13 14  1  0
 13 25  1  0
 13 45  1  6
 14 15  3  0
 15 16  1  0
 16 17  1  0
 16 46  1  0
 16 47  1  0
 17 24  2  0
 17 18  1  0
 18 19  2  0
 18 48  1  0
 19 20  1  0
 19 23  1  0
 20 21  1  0
 20 22  1  0
 20 49  1  0
 23 24  1  0
 25 30  1  0
 25 26  2  0
 26 27  1  0
 26 50  1  0
 27 28  2  0
 27 51  1  0
 28 29  1  0
 28 52  1  0
 29 30  2  0
 29 53  1  0
 30 54  1  0
 31 32  1  0
 31 55  1  0
 31 56  1  0
 32 57  1  0
 32 58  1  0
M  CHG  1  10   1
M  END
>  <DOCK_score>  (1) 
-41.429455

>  <SMILES>  (1) 
CC(C)C1=CC[C@H](C[NH2+]C(C#CCc2cc(C(F)F)on2)c2ccccc2)CC1

$$$$
