CCc1ccc(-c2c[nH]c(NCC(=CCCBr)c3ccc[nH]3)[nH+]2)cc1
     RDKit          3D

 49 51  0  0  1  0  0  0  0  0999 V2000
  130.2479  128.5996  151.5506 C   0  0  0  0  0  0  0  0  0  0  0  0
  131.3313  129.6364  151.8544 C   0  0  0  0  0  0  0  0  0  0  0  0
  131.0757  130.2473  153.2082 C   0  0  0  0  0  0  0  0  0  0  0  0
  131.6319  129.6742  154.3383 C   0  0  0  0  0  0  0  0  0  0  0  0
  131.4058  130.2320  155.5803 C   0  0  0  0  0  0  0  0  0  0  0  0
  130.6077  131.3687  155.6959 C   0  0  0  0  0  0  0  0  0  0  0  0
  130.3572  131.9702  157.0284 C   0  0  0  0  0  0  0  0  0  0  0  0
  129.1453  132.1377  157.6134 C   0  0  0  0  0  0  0  0  0  0  0  0
  129.3699  132.7257  158.8344 N   0  0  0  0  0  0  0  0  0  0  0  0
  128.6954  132.9688  159.4877 H   0  0  0  0  0  0  0  0  0  0  0  0
  130.7131  132.9082  158.9564 C   0  0  0  0  0  0  0  0  0  0  0  0
  131.3539  133.4785  160.0428 N   0  0  0  0  0  0  0  0  0  0  0  0
  130.5735  133.9456  161.1914 C   0  0  0  0  0  0  0  0  0  0  0  0
  130.1866  135.3871  160.9830 C   0  0  0  0  0  0  0  0  0  0  0  0
  130.5825  136.3137  161.8502 C   0  0  0  0  0  0  0  0  0  0  0  0
  130.1955  137.7551  161.6417 C   0  0  0  0  0  0  0  0  0  0  0  0
  128.8646  138.0324  162.3439 C   0  0  0  0  0  0  0  0  0  0  0  0
  128.3597  139.9129  162.0720 Br  0  0  0  0  0  0  0  0  0  0  0  0
  129.3702  135.7690  159.8196 C   0  0  0  0  0  0  0  0  0  0  0  0
  128.0071  135.8225  159.7765 C   0  0  0  0  0  0  0  0  0  0  0  0
  127.6454  136.2313  158.4837 C   0  0  0  0  0  0  0  0  0  0  0  0
  128.7824  136.4153  157.7771 C   0  0  0  0  0  0  0  0  0  0  0  0
  129.8445  136.1407  158.5861 N   0  0  0  0  0  0  0  0  0  0  0  0
  130.7789  136.1961  158.3319 H   0  0  0  0  0  0  0  0  0  0  0  0
  131.2997  132.4554  157.8753 N   0  0  0  0  0  0  0  0  0  0  0  0
  132.2550  132.4656  157.7075 H   0  0  0  0  0  0  0  0  0  0  0  0
  130.0461  131.9386  154.5545 C   0  0  0  0  0  0  0  0  0  0  0  0
  130.2830  131.3750  153.3172 C   0  0  0  0  0  0  0  0  0  0  0  0
  129.2711  129.0833  151.5529 H   0  0  0  0  0  0  0  0  0  0  0  0
  130.4322  128.1579  150.5712 H   0  0  0  0  0  0  0  0  0  0  0  0
  130.2685  127.8189  152.3110 H   0  0  0  0  0  0  0  0  0  0  0  0
  132.3081  129.1526  151.8522 H   0  0  0  0  0  0  0  0  0  0  0  0
  131.3107  130.4171  151.0940 H   0  0  0  0  0  0  0  0  0  0  0  0
  132.2471  128.7912  154.2480 H   0  0  0  0  0  0  0  0  0  0  0  0
  131.8437  129.7866  156.4612 H   0  0  0  0  0  0  0  0  0  0  0  0
  128.1873  131.8599  157.1995 H   0  0  0  0  0  0  0  0  0  0  0  0
  132.3197  133.5690  160.0436 H   0  0  0  0  0  0  0  0  0  0  0  0
  129.6737  133.3384  161.2903 H   0  0  0  0  0  0  0  0  0  0  0  0
  131.1727  133.8576  162.0977 H   0  0  0  0  0  0  0  0  0  0  0  0
  131.1815  136.0334  162.7041 H   0  0  0  0  0  0  0  0  0  0  0  0
  130.9675  138.4024  162.0576 H   0  0  0  0  0  0  0  0  0  0  0  0
  130.0915  137.9529  160.5748 H   0  0  0  0  0  0  0  0  0  0  0  0
  128.0925  137.3852  161.9279 H   0  0  0  0  0  0  0  0  0  0  0  0
  128.9686  137.8348  163.4108 H   0  0  0  0  0  0  0  0  0  0  0  0
  127.3316  135.5930  160.5876 H   0  0  0  0  0  0  0  0  0  0  0  0
  126.6390  136.3731  158.1188 H   0  0  0  0  0  0  0  0  0  0  0  0
  128.8400  136.7312  156.7460 H   0  0  0  0  0  0  0  0  0  0  0  0
  129.4266  132.8193  154.6384 H   0  0  0  0  0  0  0  0  0  0  0  0
  129.8484  131.8158  152.4322 H   0  0  0  0  0  0  0  0  0  0  0  0
  1  2  1  0
  1 29  1  0
  1 30  1  0
  1 31  1  0
  2  3  1  0
  2 32  1  0
  2 33  1  0
  3 28  2  0
  3  4  1  0
  4  5  2  0
  4 34  1  0
  5  6  1  0
  5 35  1  0
  6  7  1  0
  6 27  2  0
  7 25  1  0
  7  8  2  0
  8  9  1  0
  8 36  1  0
  9 10  1  0
  9 11  1  0
 11 12  1  0
 11 25  2  0
 12 13  1  0
 12 37  1  0
 13 14  1  0
 13 38  1  0
 13 39  1  0
 14 15  2  0
 14 19  1  0
 15 16  1  0
 15 40  1  0
 16 17  1  0
 16 41  1  0
 16 42  1  0
 17 18  1  0
 17 43  1  0
 17 44  1  0
 19 23  1  0
 19 20  2  0
 20 21  1  0
 20 45  1  0
 21 22  2  0
 21 46  1  0
 22 23  1  0
 22 47  1  0
 23 24  1  0
 25 26  1  0
 27 28  1  0
 27 48  1  0
 28 49  1  0
M  CHG  1  25   1
M  END
>  <DOCK_score>  (1) 
-55.963608

>  <SMILES>  (1) 
CCc1ccc(-c2c[nH]c(NCC(=CCCBr)c3ccc[nH]3)[nH+]2)cc1

$$$$
