Nc1ccc(Oc2ccccc2C[C@@H]([NH3+])C(=O)Nc2cccc(O)c2)cc1
     RDKit          3D

 49 51  0  0  1  0  0  0  0  0999 V2000
  136.1108  140.8494  162.1676 N   0  0  0  0  0  0  0  0  0  0  0  0
  134.9955  140.1738  161.6602 C   0  0  0  0  0  0  0  0  0  0  0  0
  134.3446  139.2252  162.4380 C   0  0  0  0  0  0  0  0  0  0  0  0
  133.2444  138.5584  161.9363 C   0  0  0  0  0  0  0  0  0  0  0  0
  132.7890  138.8362  160.6556 C   0  0  0  0  0  0  0  0  0  0  0  0
  131.7056  138.1789  160.1621 O   0  0  0  0  0  0  0  0  0  0  0  0
  130.6209  138.0417  160.9686 C   0  0  0  0  0  0  0  0  0  0  0  0
  129.9719  139.1665  161.4583 C   0  0  0  0  0  0  0  0  0  0  0  0
  128.8698  139.0242  162.2784 C   0  0  0  0  0  0  0  0  0  0  0  0
  128.4126  137.7623  162.6117 C   0  0  0  0  0  0  0  0  0  0  0  0
  129.0538  136.6401  162.1207 C   0  0  0  0  0  0  0  0  0  0  0  0
  130.1602  136.7768  161.3046 C   0  0  0  0  0  0  0  0  0  0  0  0
  130.8624  135.5532  160.7748 C   0  0  0  0  0  0  0  0  0  0  0  0
  130.2387  135.1455  159.4386 C   0  0  1  0  0  0  0  0  0  0  0  0
  130.0191  136.0381  158.8528 H   0  0  0  0  0  0  0  0  0  0  0  0
  131.1791  134.2933  158.6988 N   0  0  0  0  0  0  0  0  0  0  0  0
  130.7677  134.0244  157.8177 H   0  0  0  0  0  0  0  0  0  0  0  0
  132.0332  134.8031  158.5297 H   0  0  0  0  0  0  0  0  0  0  0  0
  131.3824  133.4671  159.2412 H   0  0  0  0  0  0  0  0  0  0  0  0
  128.9628  134.3842  159.6913 C   0  0  0  0  0  0  0  0  0  0  0  0
  128.9908  133.1780  159.8148 O   0  0  0  0  0  0  0  0  0  0  0  0
  127.7909  135.0437  159.7801 N   0  0  0  0  0  0  0  0  0  0  0  0
  126.6063  134.3369  160.0146 C   0  0  0  0  0  0  0  0  0  0  0  0
  126.4744  133.0305  159.5607 C   0  0  0  0  0  0  0  0  0  0  0  0
  125.3051  132.3327  159.7923 C   0  0  0  0  0  0  0  0  0  0  0  0
  124.2662  132.9294  160.4816 C   0  0  0  0  0  0  0  0  0  0  0  0
  124.3903  134.2359  160.9324 C   0  0  0  0  0  0  0  0  0  0  0  0
  123.3657  134.8233  161.6046 O   0  0  0  0  0  0  0  0  0  0  0  0
  125.5621  134.9396  160.7014 C   0  0  0  0  0  0  0  0  0  0  0  0
  133.4418  139.7798  159.8761 C   0  0  0  0  0  0  0  0  0  0  0  0
  134.5392  140.4513  160.3783 C   0  0  0  0  0  0  0  0  0  0  0  0
  136.4295  140.6552  163.0629 H   0  0  0  0  0  0  0  0  0  0  0  0
  136.5652  141.5120  161.6241 H   0  0  0  0  0  0  0  0  0  0  0  0
  134.6993  139.0087  163.4350 H   0  0  0  0  0  0  0  0  0  0  0  0
  132.7382  137.8204  162.5410 H   0  0  0  0  0  0  0  0  0  0  0  0
  130.3283  140.1522  161.1980 H   0  0  0  0  0  0  0  0  0  0  0  0
  128.3646  139.8992  162.6599 H   0  0  0  0  0  0  0  0  0  0  0  0
  127.5506  137.6532  163.2531 H   0  0  0  0  0  0  0  0  0  0  0  0
  128.6922  135.6557  162.3789 H   0  0  0  0  0  0  0  0  0  0  0  0
  130.7578  134.7365  161.4890 H   0  0  0  0  0  0  0  0  0  0  0  0
  131.9197  135.7755  160.6295 H   0  0  0  0  0  0  0  0  0  0  0  0
  127.7685  136.0084  159.6813 H   0  0  0  0  0  0  0  0  0  0  0  0
  127.2865  132.5603  159.0259 H   0  0  0  0  0  0  0  0  0  0  0  0
  125.2042  131.3174  159.4382 H   0  0  0  0  0  0  0  0  0  0  0  0
  123.3552  132.3796  160.6657 H   0  0  0  0  0  0  0  0  0  0  0  0
  123.5451  135.7332  161.8781 H   0  0  0  0  0  0  0  0  0  0  0  0
  125.6623  135.9549  161.0558 H   0  0  0  0  0  0  0  0  0  0  0  0
  133.0894  139.9926  158.8777 H   0  0  0  0  0  0  0  0  0  0  0  0
  135.0448  141.1888  159.7728 H   0  0  0  0  0  0  0  0  0  0  0  0
  1  2  1  0
  1 32  1  0
  1 33  1  0
  2 31  2  0
  2  3  1  0
  3  4  2  0
  3 34  1  0
  4  5  1  0
  4 35  1  0
  5  6  1  0
  5 30  2  0
  6  7  1  0
  7 12  1  0
  7  8  2  0
  8  9  1  0
  8 36  1  0
  9 10  2  0
  9 37  1  0
 10 11  1  0
 10 38  1  0
 11 12  2  0
 11 39  1  0
 12 13  1  0
 13 14  1  0
 13 40  1  0
 13 41  1  0
 14 15  1  6
 14 16  1  0
 14 20  1  0
 16 17  1  0
 16 18  1  0
 16 19  1  0
 20 21  2  0
 20 22  1  0
 22 23  1  0
 22 42  1  0
 23 29  1  0
 23 24  2  0
 24 25  1  0
 24 43  1  0
 25 26  2  0
 25 44  1  0
 26 27  1  0
 26 45  1  0
 27 28  1  0
 27 29  2  0
 28 46  1  0
 29 47  1  0
 30 31  1  0
 30 48  1  0
 31 49  1  0
M  CHG  1  16   1
M  END
>  <DOCK_score>  (1) 
-42.654308

>  <SMILES>  (1) 
Nc1ccc(Oc2ccccc2C[C@@H]([NH3+])C(=O)Nc2cccc(O)c2)cc1

$$$$
