NCC(=O)OCc1ccccc1Nc1[nH+]c2c(n1C1CC1)CCOC2
     RDKit          3D

 48 51  0  0  1  0  0  0  0  0999 V2000
  125.8176  136.1127  160.0120 N   0  0  0  0  0  0  0  0  0  0  0  0
  125.4787  135.3621  158.7956 C   0  0  0  0  0  0  0  0  0  0  0  0
  126.6259  135.4398  157.8213 C   0  0  0  0  0  0  0  0  0  0  0  0
  126.6717  136.3361  157.0124 O   0  0  0  0  0  0  0  0  0  0  0  0
  127.5965  134.5134  157.8523 O   0  0  0  0  0  0  0  0  0  0  0  0
  128.6703  134.6510  156.8845 C   0  0  0  0  0  0  0  0  0  0  0  0
  129.6597  133.5294  157.0689 C   0  0  0  0  0  0  0  0  0  0  0  0
  130.1467  132.8494  155.9697 C   0  0  0  0  0  0  0  0  0  0  0  0
  131.0548  131.8203  156.1379 C   0  0  0  0  0  0  0  0  0  0  0  0
  131.4785  131.4682  157.4065 C   0  0  0  0  0  0  0  0  0  0  0  0
  130.9961  132.1442  158.5098 C   0  0  0  0  0  0  0  0  0  0  0  0
  130.0838  133.1789  158.3442 C   0  0  0  0  0  0  0  0  0  0  0  0
  129.5931  133.8650  159.4587 N   0  0  0  0  0  0  0  0  0  0  0  0
  130.4666  134.5391  160.2972 C   0  0  0  0  0  0  0  0  0  0  0  0
  131.6036  135.0941  159.9369 N   0  0  0  0  0  0  0  0  0  0  0  0
  131.9673  135.0970  159.0377 H   0  0  0  0  0  0  0  0  0  0  0  0
  132.1777  135.6522  161.0056 C   0  0  0  0  0  0  0  0  0  0  0  0
  131.3775  135.4414  162.0736 C   0  0  0  0  0  0  0  0  0  0  0  0
  130.2894  134.7439  161.6343 N   0  0  0  0  0  0  0  0  0  0  0  0
  129.1525  134.2979  162.4433 C   0  0  0  0  0  0  0  0  0  0  0  0
  129.4592  133.5228  163.7264 C   0  0  0  0  0  0  0  0  0  0  0  0
  128.8810  132.7937  162.5120 C   0  0  0  0  0  0  0  0  0  0  0  0
  131.7059  135.9308  163.4610 C   0  0  0  0  0  0  0  0  0  0  0  0
  133.1949  136.3076  163.4836 C   0  0  0  0  0  0  0  0  0  0  0  0
  133.5023  137.1125  162.3421 O   0  0  0  0  0  0  0  0  0  0  0  0
  133.4831  136.4046  161.0954 C   0  0  0  0  0  0  0  0  0  0  0  0
  126.0596  137.0672  159.7923 H   0  0  0  0  0  0  0  0  0  0  0  0
  125.0637  136.0757  160.6816 H   0  0  0  0  0  0  0  0  0  0  0  0
  124.5860  135.7913  158.3408 H   0  0  0  0  0  0  0  0  0  0  0  0
  125.2903  134.3198  159.0524 H   0  0  0  0  0  0  0  0  0  0  0  0
  129.1728  135.6069  157.0328 H   0  0  0  0  0  0  0  0  0  0  0  0
  128.2581  134.6098  155.8763 H   0  0  0  0  0  0  0  0  0  0  0  0
  129.8211  133.1246  154.9774 H   0  0  0  0  0  0  0  0  0  0  0  0
  131.4341  131.2903  155.2768 H   0  0  0  0  0  0  0  0  0  0  0  0
  132.1877  130.6637  157.5345 H   0  0  0  0  0  0  0  0  0  0  0  0
  131.3278  131.8691  159.5000 H   0  0  0  0  0  0  0  0  0  0  0  0
  128.6412  133.8693  159.6452 H   0  0  0  0  0  0  0  0  0  0  0  0
  128.2911  134.9657  162.4523 H   0  0  0  0  0  0  0  0  0  0  0  0
  130.5070  133.3446  163.9684 H   0  0  0  0  0  0  0  0  0  0  0  0
  128.7997  133.6808  164.5796 H   0  0  0  0  0  0  0  0  0  0  0  0
  127.8409  132.4721  162.5662 H   0  0  0  0  0  0  0  0  0  0  0  0
  129.5480  132.1360  161.9546 H   0  0  0  0  0  0  0  0  0  0  0  0
  131.5137  135.1405  164.1865 H   0  0  0  0  0  0  0  0  0  0  0  0
  131.0999  136.8055  163.6972 H   0  0  0  0  0  0  0  0  0  0  0  0
  133.7992  135.4007  163.4618 H   0  0  0  0  0  0  0  0  0  0  0  0
  133.4136  136.8678  164.3926 H   0  0  0  0  0  0  0  0  0  0  0  0
  134.3160  135.7027  161.0575 H   0  0  0  0  0  0  0  0  0  0  0  0
  133.5583  137.1115  160.2692 H   0  0  0  0  0  0  0  0  0  0  0  0
  1  2  1  0
  1 27  1  0
  1 28  1  0
  2  3  1  0
  2 29  1  0
  2 30  1  0
  3  4  2  0
  3  5  1  0
  5  6  1  0
  6  7  1  0
  6 31  1  0
  6 32  1  0
  7 12  2  0
  7  8  1  0
  8  9  2  0
  8 33  1  0
  9 10  1  0
  9 34  1  0
 10 11  2  0
 10 35  1  0
 11 12  1  0
 11 36  1  0
 12 13  1  0
 13 37  1  0
 14 13  1  0
 14 19  1  0
 14 15  2  0
 15 16  1  0
 15 17  1  0
 17 26  1  0
 17 18  2  0
 18 19  1  0
 18 23  1  0
 19 20  1  0
 20 22  1  0
 20 21  1  0
 20 38  1  0
 21 22  1  0
 21 39  1  0
 21 40  1  0
 22 41  1  0
 22 42  1  0
 23 24  1  0
 23 43  1  0
 23 44  1  0
 24 25  1  0
 24 45  1  0
 24 46  1  0
 25 26  1  0
 26 47  1  0
 26 48  1  0
M  CHG  1  15   1
M  END
>  <DOCK_score>  (1) 
-41.154259

>  <SMILES>  (1) 
NCC(=O)OCc1ccccc1Nc1[nH+]c2c(n1C1CC1)CCOC2

$$$$
