N#Cc1nc(C2=CCC(NC(NC3CC3)=[NH+][C@@H]3CCC(=O)NC3)CC2)c[nH]1
     RDKit          3D

 53 56  0  0  1  0  0  0  0  0999 V2000
  136.5479  142.2592  161.4333 N   0  0  0  0  0  0  0  0  0  0  0  0
  136.0049  141.4047  160.9180 C   0  0  0  0  0  0  0  0  0  0  0  0
  135.3204  140.3276  160.2685 C   0  0  0  0  0  0  0  0  0  0  0  0
  134.2733  139.6877  160.7416 N   0  0  0  0  0  0  0  0  0  0  0  0
  133.9040  138.7410  159.8658 C   0  0  0  0  0  0  0  0  0  0  0  0
  132.7735  137.8024  160.0267 C   0  0  0  0  0  0  0  0  0  0  0  0
  133.0344  136.5175  160.0335 C   0  0  0  0  0  0  0  0  0  0  0  0
  131.9892  135.4529  160.1970 C   0  0  0  0  0  0  0  0  0  0  0  0
  130.5994  136.0331  159.9265 C   0  0  1  0  0  0  0  0  0  0  0  0
  129.5753  135.0668  160.3311 N   0  0  0  0  0  0  0  0  0  0  0  0
  129.1098  134.1401  159.4284 C   0  0  0  0  0  0  0  0  0  0  0  0
  129.6054  134.1202  158.1463 N   0  0  0  0  0  0  0  0  0  0  0  0
  129.1094  133.1327  157.1845 C   0  0  0  0  0  0  0  0  0  0  0  0
  130.0764  132.0345  156.7372 C   0  0  0  0  0  0  0  0  0  0  0  0
  129.7005  133.1619  155.7735 C   0  0  0  0  0  0  0  0  0  0  0  0
  128.1987  133.2803  159.7885 N   0  0  0  0  0  0  0  0  0  0  0  0
  128.1692  132.4033  159.3752 H   0  0  0  0  0  0  0  0  0  0  0  0
  127.2191  133.6388  160.8172 C   0  0  2  0  0  0  0  0  0  0  0  0
  127.7358  133.8774  161.7469 H   0  0  0  0  0  0  0  0  0  0  0  0
  126.2593  132.4648  161.0449 C   0  0  0  0  0  0  0  0  0  0  0  0
  125.3671  132.7944  162.2440 C   0  0  0  0  0  0  0  0  0  0  0  0
  124.7929  134.1735  162.0898 C   0  0  0  0  0  0  0  0  0  0  0  0
  123.8288  134.4723  162.7621 O   0  0  0  0  0  0  0  0  0  0  0  0
  125.2867  135.0874  161.2535 N   0  0  0  0  0  0  0  0  0  0  0  0
  126.4093  134.8507  160.3546 C   0  0  0  0  0  0  0  0  0  0  0  0
  130.4430  137.3220  160.7429 C   0  0  0  0  0  0  0  0  0  0  0  0
  131.3943  138.3762  160.1729 C   0  0  0  0  0  0  0  0  0  0  0  0
  134.7530  138.8004  158.7955 C   0  0  0  0  0  0  0  0  0  0  0  0
  135.6422  139.7973  159.0498 N   0  0  0  0  0  0  0  0  0  0  0  0
  136.3693  140.0801  158.4736 H   0  0  0  0  0  0  0  0  0  0  0  0
  134.0620  136.2069  159.9143 H   0  0  0  0  0  0  0  0  0  0  0  0
  132.0264  135.0635  161.2145 H   0  0  0  0  0  0  0  0  0  0  0  0
  132.1854  134.6427  159.4948 H   0  0  0  0  0  0  0  0  0  0  0  0
  130.4930  136.2568  158.8650 H   0  0  0  0  0  0  0  0  0  0  0  0
  129.2228  135.0835  161.2346 H   0  0  0  0  0  0  0  0  0  0  0  0
  130.2836  134.7599  157.8784 H   0  0  0  0  0  0  0  0  0  0  0  0
  128.0569  132.8670  157.2838 H   0  0  0  0  0  0  0  0  0  0  0  0
  131.0815  132.0468  157.1586 H   0  0  0  0  0  0  0  0  0  0  0  0
  129.6602  131.0461  156.5423 H   0  0  0  0  0  0  0  0  0  0  0  0
  129.0370  132.9153  154.9446 H   0  0  0  0  0  0  0  0  0  0  0  0
  130.4581  133.9162  155.5608 H   0  0  0  0  0  0  0  0  0  0  0  0
  125.6424  132.3178  160.1582 H   0  0  0  0  0  0  0  0  0  0  0  0
  126.8296  131.5588  161.2499 H   0  0  0  0  0  0  0  0  0  0  0  0
  125.9583  132.7486  163.1586 H   0  0  0  0  0  0  0  0  0  0  0  0
  124.5558  132.0687  162.3005 H   0  0  0  0  0  0  0  0  0  0  0  0
  124.8728  135.9645  161.2426 H   0  0  0  0  0  0  0  0  0  0  0  0
  127.0528  135.7305  160.3423 H   0  0  0  0  0  0  0  0  0  0  0  0
  126.0298  134.6679  159.3494 H   0  0  0  0  0  0  0  0  0  0  0  0
  129.4155  137.6787  160.6710 H   0  0  0  0  0  0  0  0  0  0  0  0
  130.6940  137.1277  161.7857 H   0  0  0  0  0  0  0  0  0  0  0  0
  131.0322  138.6998  159.1971 H   0  0  0  0  0  0  0  0  0  0  0  0
  131.4309  139.2321  160.8468 H   0  0  0  0  0  0  0  0  0  0  0  0
  134.7229  138.1747  157.9157 H   0  0  0  0  0  0  0  0  0  0  0  0
  1  2  3  0
  2  3  1  0
  3 29  1  0
  3  4  2  0
  4  5  1  0
  5  6  1  0
  5 28  2  0
  6 27  1  0
  6  7  2  0
  7  8  1  0
  7 31  1  0
  8  9  1  0
  8 32  1  0
  8 33  1  0
  9 10  1  0
  9 26  1  0
  9 34  1  6
 10 35  1  0
 11 10  1  0
 11 12  1  0
 11 16  2  0
 12 13  1  0
 12 36  1  0
 13 15  1  0
 13 14  1  0
 13 37  1  0
 14 15  1  0
 14 38  1  0
 14 39  1  0
 15 40  1  0
 15 41  1  0
 16 17  1  0
 16 18  1  0
 18 19  1  1
 18 25  1  0
 18 20  1  0
 20 21  1  0
 20 42  1  0
 20 43  1  0
 21 22  1  0
 21 44  1  0
 21 45  1  0
 22 23  2  0
 22 24  1  0
 24 25  1  0
 24 46  1  0
 25 47  1  0
 25 48  1  0
 26 27  1  0
 26 49  1  0
 26 50  1  0
 27 51  1  0
 27 52  1  0
 28 29  1  0
 28 53  1  0
 29 30  1  0
M  CHG  1  16   1
M  END
>  <DOCK_score>  (1) 
-44.135094

>  <SMILES>  (1) 
N#Cc1nc(C2=CCC(NC(NC3CC3)=[NH+][C@@H]3CCC(=O)NC3)CC2)c[nH]1

$$$$
