Nc1ccc(-c2c[nH]c(N[C@@H](C3=CC(=O)CC3)c3ccccc3-c3ccncc3)[nH+]2)cc1
     RDKit          3D

 56 60  0  0  1  0  0  0  0  0999 V2000
  131.2724  130.0140  151.6703 N   0  0  0  0  0  0  0  0  0  0  0  0
  131.0306  130.5972  152.9165 C   0  0  0  0  0  0  0  0  0  0  0  0
  130.6546  131.9328  152.9964 C   0  0  0  0  0  0  0  0  0  0  0  0
  130.4155  132.5104  154.2254 C   0  0  0  0  0  0  0  0  0  0  0  0
  130.5510  131.7536  155.3883 C   0  0  0  0  0  0  0  0  0  0  0  0
  130.2942  132.3730  156.7118 C   0  0  0  0  0  0  0  0  0  0  0  0
  129.8259  131.7361  157.8133 C   0  0  0  0  0  0  0  0  0  0  0  0
  129.7381  132.6778  158.8111 N   0  0  0  0  0  0  0  0  0  0  0  0
  129.4347  132.5256  159.7198 H   0  0  0  0  0  0  0  0  0  0  0  0
  130.1556  133.8627  158.2885 C   0  0  0  0  0  0  0  0  0  0  0  0
  130.2199  135.0665  158.9693 N   0  0  0  0  0  0  0  0  0  0  0  0
  129.8170  135.1346  160.3762 C   0  0  1  0  0  0  0  0  0  0  0  0
  130.1694  134.2451  160.8984 H   0  0  0  0  0  0  0  0  0  0  0  0
  130.4180  136.3616  161.0120 C   0  0  0  0  0  0  0  0  0  0  0  0
  129.8387  137.5529  161.0506 C   0  0  0  0  0  0  0  0  0  0  0  0
  130.6627  138.5490  161.7329 C   0  0  0  0  0  0  0  0  0  0  0  0
  130.3817  139.7157  161.9115 O   0  0  0  0  0  0  0  0  0  0  0  0
  131.9330  137.8560  162.1779 C   0  0  0  0  0  0  0  0  0  0  0  0
  131.7623  136.4051  161.6943 C   0  0  0  0  0  0  0  0  0  0  0  0
  128.3144  135.2074  160.4654 C   0  0  0  0  0  0  0  0  0  0  0  0
  127.5523  135.2021  159.3144 C   0  0  0  0  0  0  0  0  0  0  0  0
  126.1731  135.2646  159.3952 C   0  0  0  0  0  0  0  0  0  0  0  0
  125.5499  135.3421  160.6279 C   0  0  0  0  0  0  0  0  0  0  0  0
  126.3022  135.3533  161.7847 C   0  0  0  0  0  0  0  0  0  0  0  0
  127.6921  135.2857  161.7095 C   0  0  0  0  0  0  0  0  0  0  0  0
  128.5062  135.2968  162.9499 C   0  0  0  0  0  0  0  0  0  0  0  0
  128.4525  136.3777  163.8343 C   0  0  0  0  0  0  0  0  0  0  0  0
  129.2218  136.3448  164.9792 C   0  0  0  0  0  0  0  0  0  0  0  0
  130.0078  135.3170  165.2375 N   0  0  0  0  0  0  0  0  0  0  0  0
  130.0918  134.2799  164.4265 C   0  0  0  0  0  0  0  0  0  0  0  0
  129.3522  134.2292  163.2629 C   0  0  0  0  0  0  0  0  0  0  0  0
  130.4817  133.6777  157.0323 N   0  0  0  0  0  0  0  0  0  0  0  0
  130.8074  134.3639  156.4290 H   0  0  0  0  0  0  0  0  0  0  0  0
  130.9338  130.4157  155.3060 C   0  0  0  0  0  0  0  0  0  0  0  0
  131.1659  129.8406  154.0744 C   0  0  0  0  0  0  0  0  0  0  0  0
  131.1777  130.5412  150.8616 H   0  0  0  0  0  0  0  0  0  0  0  0
  131.5347  129.0818  151.6136 H   0  0  0  0  0  0  0  0  0  0  0  0
  130.5500  132.5187  152.0952 H   0  0  0  0  0  0  0  0  0  0  0  0
  130.1229  133.5483  154.2870 H   0  0  0  0  0  0  0  0  0  0  0  0
  129.5706  130.6896  157.8919 H   0  0  0  0  0  0  0  0  0  0  0  0
  130.5317  135.8647  158.5149 H   0  0  0  0  0  0  0  0  0  0  0  0
  128.8688  137.7645  160.6252 H   0  0  0  0  0  0  0  0  0  0  0  0
  132.0251  137.8882  163.2635 H   0  0  0  0  0  0  0  0  0  0  0  0
  132.8027  138.3152  161.7082 H   0  0  0  0  0  0  0  0  0  0  0  0
  132.5519  136.1480  160.9880 H   0  0  0  0  0  0  0  0  0  0  0  0
  131.7784  135.7207  162.5423 H   0  0  0  0  0  0  0  0  0  0  0  0
  128.0338  135.1459  158.3495 H   0  0  0  0  0  0  0  0  0  0  0  0
  125.5804  135.2565  158.4922 H   0  0  0  0  0  0  0  0  0  0  0  0
  124.4727  135.3943  160.6849 H   0  0  0  0  0  0  0  0  0  0  0  0
  125.8147  135.4145  162.7465 H   0  0  0  0  0  0  0  0  0  0  0  0
  127.8148  137.2243  163.6267 H   0  0  0  0  0  0  0  0  0  0  0  0
  129.1840  137.1735  165.6706 H   0  0  0  0  0  0  0  0  0  0  0  0
  130.7485  133.4598  164.6768 H   0  0  0  0  0  0  0  0  0  0  0  0
  129.4262  133.3770  162.6034 H   0  0  0  0  0  0  0  0  0  0  0  0
  131.0437  129.8289  156.2060 H   0  0  0  0  0  0  0  0  0  0  0  0
  131.4581  128.8029  154.0100 H   0  0  0  0  0  0  0  0  0  0  0  0
  1  2  1  0
  1 36  1  0
  1 37  1  0
  2 35  2  0
  2  3  1  0
  3  4  2  0
  3 38  1  0
  4  5  1  0
  4 39  1  0
  5  6  1  0
  5 34  2  0
  6 32  1  0
  6  7  2  0
  7  8  1  0
  7 40  1  0
  8  9  1  0
  8 10  1  0
 10 11  1  0
 10 32  2  0
 11 12  1  0
 11 41  1  0
 12 13  1  1
 12 14  1  0
 12 20  1  0
 14 19  1  0
 14 15  2  0
 15 16  1  0
 15 42  1  0
 16 17  2  0
 16 18  1  0
 18 19  1  0
 18 43  1  0
 18 44  1  0
 19 45  1  0
 19 46  1  0
 20 25  1  0
 20 21  2  0
 21 22  1  0
 21 47  1  0
 22 23  2  0
 22 48  1  0
 23 24  1  0
 23 49  1  0
 24 25  2  0
 24 50  1  0
 25 26  1  0
 26 31  1  0
 26 27  2  0
 27 28  1  0
 27 51  1  0
 28 29  2  0
 28 52  1  0
 29 30  1  0
 30 31  2  0
 30 53  1  0
 31 54  1  0
 32 33  1  0
 34 35  1  0
 34 55  1  0
 35 56  1  0
M  CHG  1  32   1
M  END
>  <DOCK_score>  (1) 
-56.819881

>  <SMILES>  (1) 
Nc1ccc(-c2c[nH]c(N[C@@H](C3=CC(=O)CC3)c3ccccc3-c3ccncc3)[nH+]2)cc1

$$$$
