c1ccc(-c2ccc(-c3c[nH]c(N[C@@H](c4ccccc4)c4ccccn4)[nH+]3)cc2)cc1
     RDKit          3D

 54 58  0  0  1  0  0  0  0  0999 V2000
  130.3223  128.7607  151.3702 C   0  0  0  0  0  0  0  0  0  0  0  0
  129.6042  129.9392  151.4649 C   0  0  0  0  0  0  0  0  0  0  0  0
  129.6483  130.6859  152.6246 C   0  0  0  0  0  0  0  0  0  0  0  0
  130.4179  130.2504  153.7020 C   0  0  0  0  0  0  0  0  0  0  0  0
  130.4698  131.0487  154.9506 C   0  0  0  0  0  0  0  0  0  0  0  0
  130.3165  132.4341  154.8994 C   0  0  0  0  0  0  0  0  0  0  0  0
  130.3652  133.1758  156.0589 C   0  0  0  0  0  0  0  0  0  0  0  0
  130.5677  132.5413  157.2846 C   0  0  0  0  0  0  0  0  0  0  0  0
  130.6207  133.3394  158.5327 C   0  0  0  0  0  0  0  0  0  0  0  0
  130.2522  132.9157  159.7678 C   0  0  0  0  0  0  0  0  0  0  0  0
  130.4627  133.9652  160.6284 N   0  0  0  0  0  0  0  0  0  0  0  0
  130.2921  133.9681  161.5833 H   0  0  0  0  0  0  0  0  0  0  0  0
  130.9539  135.0005  159.8942 C   0  0  0  0  0  0  0  0  0  0  0  0
  131.2989  136.2469  160.3880 N   0  0  0  0  0  0  0  0  0  0  0  0
  131.1448  136.5374  161.8155 C   0  0  1  0  0  0  0  0  0  0  0  0
  130.2169  136.0951  162.1783 H   0  0  0  0  0  0  0  0  0  0  0  0
  132.3091  135.9557  162.5752 C   0  0  0  0  0  0  0  0  0  0  0  0
  132.1432  135.5422  163.8838 C   0  0  0  0  0  0  0  0  0  0  0  0
  133.2102  135.0045  164.5792 C   0  0  0  0  0  0  0  0  0  0  0  0
  134.4454  134.8894  163.9692 C   0  0  0  0  0  0  0  0  0  0  0  0
  134.6124  135.3075  162.6622 C   0  0  0  0  0  0  0  0  0  0  0  0
  133.5443  135.8411  161.9654 C   0  0  0  0  0  0  0  0  0  0  0  0
  131.1046  138.0296  162.0231 C   0  0  0  0  0  0  0  0  0  0  0  0
  130.3827  138.5532  163.0791 C   0  0  0  0  0  0  0  0  0  0  0  0
  130.3564  139.9269  163.2643 C   0  0  0  0  0  0  0  0  0  0  0  0
  131.0516  140.7267  162.3698 C   0  0  0  0  0  0  0  0  0  0  0  0
  131.7473  140.1319  161.3346 C   0  0  0  0  0  0  0  0  0  0  0  0
  131.7542  138.8207  161.1922 N   0  0  0  0  0  0  0  0  0  0  0  0
  131.0517  134.6214  158.6433 N   0  0  0  0  0  0  0  0  0  0  0  0
  131.3777  135.1701  157.9131 H   0  0  0  0  0  0  0  0  0  0  0  0
  130.7205  131.1557  157.3358 C   0  0  0  0  0  0  0  0  0  0  0  0
  130.6724  130.4143  156.1759 C   0  0  0  0  0  0  0  0  0  0  0  0
  131.1432  129.0645  153.5992 C   0  0  0  0  0  0  0  0  0  0  0  0
  131.0878  128.3235  152.4363 C   0  0  0  0  0  0  0  0  0  0  0  0
  130.2854  128.1798  150.4605 H   0  0  0  0  0  0  0  0  0  0  0  0
  129.0083  130.2757  150.6295 H   0  0  0  0  0  0  0  0  0  0  0  0
  129.0878  131.6063  152.6971 H   0  0  0  0  0  0  0  0  0  0  0  0
  130.1602  132.9252  153.9505 H   0  0  0  0  0  0  0  0  0  0  0  0
  130.2510  134.2489  156.0187 H   0  0  0  0  0  0  0  0  0  0  0  0
  129.8666  131.9402  160.0249 H   0  0  0  0  0  0  0  0  0  0  0  0
  131.6428  136.9278  159.7889 H   0  0  0  0  0  0  0  0  0  0  0  0
  131.1793  135.6359  164.3617 H   0  0  0  0  0  0  0  0  0  0  0  0
  133.0796  134.6775  165.6003 H   0  0  0  0  0  0  0  0  0  0  0  0
  135.2796  134.4725  164.5136 H   0  0  0  0  0  0  0  0  0  0  0  0
  135.5773  135.2175  162.1856 H   0  0  0  0  0  0  0  0  0  0  0  0
  133.6749  136.1679  160.9443 H   0  0  0  0  0  0  0  0  0  0  0  0
  129.8487  137.9002  163.7537 H   0  0  0  0  0  0  0  0  0  0  0  0
  129.8043  140.3639  164.0831 H   0  0  0  0  0  0  0  0  0  0  0  0
  131.0492  141.8009  162.4809 H   0  0  0  0  0  0  0  0  0  0  0  0
  132.2912  140.7478  160.6338 H   0  0  0  0  0  0  0  0  0  0  0  0
  130.8774  130.6643  158.2847 H   0  0  0  0  0  0  0  0  0  0  0  0
  130.7909  129.3415  156.2155 H   0  0  0  0  0  0  0  0  0  0  0  0
  131.7448  128.7246  154.4293 H   0  0  0  0  0  0  0  0  0  0  0  0
  131.6465  127.4025  152.3569 H   0  0  0  0  0  0  0  0  0  0  0  0
  1 34  2  0
  1  2  1  0
  1 35  1  0
  2  3  2  0
  2 36  1  0
  3  4  1  0
  3 37  1  0
  4  5  1  0
  4 33  2  0
  5 32  1  0
  5  6  2  0
  6  7  1  0
  6 38  1  0
  7  8  2  0
  7 39  1  0
  8  9  1  0
  8 31  1  0
  9 29  1  0
  9 10  2  0
 10 11  1  0
 10 40  1  0
 11 12  1  0
 11 13  1  0
 13 14  1  0
 13 29  2  0
 14 15  1  0
 14 41  1  0
 15 16  1  1
 15 17  1  0
 15 23  1  0
 17 22  1  0
 17 18  2  0
 18 19  1  0
 18 42  1  0
 19 20  2  0
 19 43  1  0
 20 21  1  0
 20 44  1  0
 21 22  2  0
 21 45  1  0
 22 46  1  0
 23 28  1  0
 23 24  2  0
 24 25  1  0
 24 47  1  0
 25 26  2  0
 25 48  1  0
 26 27  1  0
 26 49  1  0
 27 28  2  0
 27 50  1  0
 29 30  1  0
 31 32  2  0
 31 51  1  0
 32 52  1  0
 33 34  1  0
 33 53  1  0
 34 54  1  0
M  CHG  1  29   1
M  END
>  <DOCK_score>  (1) 
-57.693615

>  <SMILES>  (1) 
c1ccc(-c2ccc(-c3c[nH]c(N[C@@H](c4ccccc4)c4ccccn4)[nH+]3)cc2)cc1

$$$$
