Cc1cc(O)cc(C[NH+]=C(NCc2cncs2)NC2CC=CC2)c1
     RDKit          3D

 47 49  0  0  1  0  0  0  0  0999 V2000
  127.4340  135.6191  167.2837 C   0  0  0  0  0  0  0  0  0  0  0  0
  127.1924  135.8712  165.8177 C   0  0  0  0  0  0  0  0  0  0  0  0
  125.9452  135.6331  165.2727 C   0  0  0  0  0  0  0  0  0  0  0  0
  125.7235  135.8652  163.9233 C   0  0  0  0  0  0  0  0  0  0  0  0
  124.4978  135.6314  163.3849 O   0  0  0  0  0  0  0  0  0  0  0  0
  126.7542  136.3407  163.1251 C   0  0  0  0  0  0  0  0  0  0  0  0
  128.0005  136.5716  163.6734 C   0  0  0  0  0  0  0  0  0  0  0  0
  129.1218  137.0826  162.8058 C   0  0  0  0  0  0  0  0  0  0  0  0
  129.1470  136.3318  161.5481 N   0  0  0  0  0  0  0  0  0  0  0  0
  128.4976  135.6289  161.3897 H   0  0  0  0  0  0  0  0  0  0  0  0
  130.0422  136.6084  160.6419 C   0  0  0  0  0  0  0  0  0  0  0  0
  130.9627  137.6047  160.8664 N   0  0  0  0  0  0  0  0  0  0  0  0
  131.9686  137.9155  159.8478 C   0  0  0  0  0  0  0  0  0  0  0  0
  132.8487  139.0370  160.3367 C   0  0  0  0  0  0  0  0  0  0  0  0
  133.8754  139.5770  159.6734 C   0  0  0  0  0  0  0  0  0  0  0  0
  134.4882  140.5518  160.3145 N   0  0  0  0  0  0  0  0  0  0  0  0
  134.0419  140.8571  161.4861 C   0  0  0  0  0  0  0  0  0  0  0  0
  132.7103  139.8625  161.8872 S   0  0  0  0  0  0  0  0  0  0  0  0
  130.0659  135.9038  159.4616 N   0  0  0  0  0  0  0  0  0  0  0  0
  129.0851  134.8422  159.2224 C   0  0  0  0  0  0  0  0  0  0  0  0
  129.3253  133.6415  160.1666 C   0  0  0  0  0  0  0  0  0  0  0  0
  129.0226  132.4240  159.3244 C   0  0  0  0  0  0  0  0  0  0  0  0
  129.0089  132.7229  158.0540 C   0  0  0  0  0  0  0  0  0  0  0  0
  129.3001  134.1897  157.8370 C   0  0  0  0  0  0  0  0  0  0  0  0
  128.2189  136.3399  165.0192 C   0  0  0  0  0  0  0  0  0  0  0  0
  127.2155  136.5252  167.8489 H   0  0  0  0  0  0  0  0  0  0  0  0
  126.7855  134.8125  167.6255 H   0  0  0  0  0  0  0  0  0  0  0  0
  128.4758  135.3376  167.4372 H   0  0  0  0  0  0  0  0  0  0  0  0
  125.1438  135.2663  165.8969 H   0  0  0  0  0  0  0  0  0  0  0  0
  124.4409  135.8225  162.4386 H   0  0  0  0  0  0  0  0  0  0  0  0
  126.5828  136.5260  162.0750 H   0  0  0  0  0  0  0  0  0  0  0  0
  130.0711  136.9531  163.3254 H   0  0  0  0  0  0  0  0  0  0  0  0
  128.9646  138.1403  162.5945 H   0  0  0  0  0  0  0  0  0  0  0  0
  130.9433  138.1045  161.6974 H   0  0  0  0  0  0  0  0  0  0  0  0
  132.5781  137.0321  159.6576 H   0  0  0  0  0  0  0  0  0  0  0  0
  131.4713  138.2191  158.9266 H   0  0  0  0  0  0  0  0  0  0  0  0
  134.1763  139.2441  158.6911 H   0  0  0  0  0  0  0  0  0  0  0  0
  134.4508  141.6285  162.1216 H   0  0  0  0  0  0  0  0  0  0  0  0
  130.7321  136.1097  158.7872 H   0  0  0  0  0  0  0  0  0  0  0  0
  128.0683  135.2220  159.3224 H   0  0  0  0  0  0  0  0  0  0  0  0
  130.3625  133.6233  160.5015 H   0  0  0  0  0  0  0  0  0  0  0  0
  128.6504  133.6894  161.0212 H   0  0  0  0  0  0  0  0  0  0  0  0
  128.8412  131.4361  159.7215 H   0  0  0  0  0  0  0  0  0  0  0  0
  128.8145  132.0150  157.2618 H   0  0  0  0  0  0  0  0  0  0  0  0
  128.6079  134.6104  157.1076 H   0  0  0  0  0  0  0  0  0  0  0  0
  130.3294  134.3295  157.5071 H   0  0  0  0  0  0  0  0  0  0  0  0
  129.1932  136.5250  165.4469 H   0  0  0  0  0  0  0  0  0  0  0  0
  1  2  1  0
  1 26  1  0
  1 27  1  0
  1 28  1  0
  2 25  2  0
  2  3  1  0
  3  4  2  0
  3 29  1  0
  4  5  1  0
  4  6  1  0
  5 30  1  0
  6  7  2  0
  6 31  1  0
  7  8  1  0
  7 25  1  0
  8  9  1  0
  8 32  1  0
  8 33  1  0
  9 10  1  0
 11  9  2  0
 11 12  1  0
 11 19  1  0
 12 13  1  0
 12 34  1  0
 13 14  1  0
 13 35  1  0
 13 36  1  0
 14 18  1  0
 14 15  2  0
 15 16  1  0
 15 37  1  0
 16 17  2  0
 17 18  1  0
 17 38  1  0
 19 20  1  0
 19 39  1  0
 20 24  1  0
 20 21  1  0
 20 40  1  0
 21 22  1  0
 21 41  1  0
 21 42  1  0
 22 23  2  0
 22 43  1  0
 23 24  1  0
 23 44  1  0
 24 45  1  0
 24 46  1  0
 25 47  1  0
M  CHG  1   9   1
M  END
>  <DOCK_score>  (1) 
-41.503021

>  <SMILES>  (1) 
Cc1cc(O)cc(C[NH+]=C(NCc2cncs2)NC2CC=CC2)c1

$$$$
