CCCC=C(C[C@H](Nc1[nH]cc(-c2ccc(N)cc2)[nH+]1)c1ccccc1)C(F)F
     RDKit          3D

 56 58  0  0  1  0  0  0  0  0999 V2000
  135.2476  139.4821  158.9432 C   0  0  0  0  0  0  0  0  0  0  0  0
  133.7315  139.2957  159.0311 C   0  0  0  0  0  0  0  0  0  0  0  0
  133.4150  138.1231  159.9615 C   0  0  0  0  0  0  0  0  0  0  0  0
  131.9217  137.9395  160.0480 C   0  0  0  0  0  0  0  0  0  0  0  0
  131.4211  136.9864  160.7945 C   0  0  0  0  0  0  0  0  0  0  0  0
  129.9345  136.7391  160.8040 C   0  0  0  0  0  0  0  0  0  0  0  0
  129.6522  135.3106  160.3343 C   0  0  2  0  0  0  0  0  0  0  0  0
  130.1423  134.6042  161.0042 H   0  0  0  0  0  0  0  0  0  0  0  0
  130.1680  135.1328  158.9747 N   0  0  0  0  0  0  0  0  0  0  0  0
  130.0278  133.9129  158.3352 C   0  0  0  0  0  0  0  0  0  0  0  0
  129.4279  132.8087  158.8573 N   0  0  0  0  0  0  0  0  0  0  0  0
  129.0257  132.7350  159.7368 H   0  0  0  0  0  0  0  0  0  0  0  0
  129.4979  131.8167  157.9079 C   0  0  0  0  0  0  0  0  0  0  0  0
  130.1378  132.3438  156.8350 C   0  0  0  0  0  0  0  0  0  0  0  0
  130.4414  131.6379  155.5659 C   0  0  0  0  0  0  0  0  0  0  0  0
  129.9255  132.1141  154.3616 C   0  0  0  0  0  0  0  0  0  0  0  0
  130.2137  131.4596  153.1826 C   0  0  0  0  0  0  0  0  0  0  0  0
  131.0083  130.3193  153.1958 C   0  0  0  0  0  0  0  0  0  0  0  0
  131.2949  129.6551  152.0007 N   0  0  0  0  0  0  0  0  0  0  0  0
  131.5192  129.8398  154.3960 C   0  0  0  0  0  0  0  0  0  0  0  0
  131.2384  130.4943  155.5768 C   0  0  0  0  0  0  0  0  0  0  0  0
  130.4460  133.6327  157.1249 N   0  0  0  0  0  0  0  0  0  0  0  0
  130.9046  134.2483  156.5318 H   0  0  0  0  0  0  0  0  0  0  0  0
  128.1656  135.0632  160.3438 C   0  0  0  0  0  0  0  0  0  0  0  0
  127.5557  134.5610  161.4781 C   0  0  0  0  0  0  0  0  0  0  0  0
  126.1922  134.3335  161.4865 C   0  0  0  0  0  0  0  0  0  0  0  0
  125.4389  134.6071  160.3603 C   0  0  0  0  0  0  0  0  0  0  0  0
  126.0489  135.1080  159.2254 C   0  0  0  0  0  0  0  0  0  0  0  0
  127.4124  135.3358  159.2171 C   0  0  0  0  0  0  0  0  0  0  0  0
  132.3317  136.1373  161.6434 C   0  0  0  0  0  0  0  0  0  0  0  0
  131.6432  135.7126  162.7848 F   0  0  0  0  0  0  0  0  0  0  0  0
  132.7488  135.0223  160.9086 F   0  0  0  0  0  0  0  0  0  0  0  0
  135.6465  139.6884  159.9364 H   0  0  0  0  0  0  0  0  0  0  0  0
  135.7032  138.5731  158.5502 H   0  0  0  0  0  0  0  0  0  0  0  0
  135.4731  140.3174  158.2804 H   0  0  0  0  0  0  0  0  0  0  0  0
  133.3326  139.0893  158.0379 H   0  0  0  0  0  0  0  0  0  0  0  0
  133.2760  140.2046  159.4240 H   0  0  0  0  0  0  0  0  0  0  0  0
  133.8138  138.3295  160.9547 H   0  0  0  0  0  0  0  0  0  0  0  0
  133.8706  137.2142  159.5687 H   0  0  0  0  0  0  0  0  0  0  0  0
  131.2641  138.5939  159.4948 H   0  0  0  0  0  0  0  0  0  0  0  0
  129.4443  137.4455  160.1341 H   0  0  0  0  0  0  0  0  0  0  0  0
  129.5507  136.8714  161.8156 H   0  0  0  0  0  0  0  0  0  0  0  0
  130.6078  135.8696  158.5225 H   0  0  0  0  0  0  0  0  0  0  0  0
  129.1163  130.8106  157.9992 H   0  0  0  0  0  0  0  0  0  0  0  0
  129.3039  132.9971  154.3515 H   0  0  0  0  0  0  0  0  0  0  0  0
  129.8175  131.8304  152.2488 H   0  0  0  0  0  0  0  0  0  0  0  0
  131.8497  128.8595  152.0091 H   0  0  0  0  0  0  0  0  0  0  0  0
  130.9387  129.9893  151.1626 H   0  0  0  0  0  0  0  0  0  0  0  0
  132.1363  128.9534  154.4040 H   0  0  0  0  0  0  0  0  0  0  0  0
  131.6357  130.1213  156.5092 H   0  0  0  0  0  0  0  0  0  0  0  0
  128.1443  134.3476  162.3581 H   0  0  0  0  0  0  0  0  0  0  0  0
  125.7148  133.9465  162.3747 H   0  0  0  0  0  0  0  0  0  0  0  0
  124.3736  134.4292  160.3668 H   0  0  0  0  0  0  0  0  0  0  0  0
  125.4605  135.3211  158.3454 H   0  0  0  0  0  0  0  0  0  0  0  0
  127.8892  135.7265  158.3304 H   0  0  0  0  0  0  0  0  0  0  0  0
  133.2018  136.7227  161.9406 H   0  0  0  0  0  0  0  0  0  0  0  0
  1  2  1  0
  1 33  1  0
  1 34  1  0
  1 35  1  0
  2  3  1  0
  2 36  1  0
  2 37  1  0
  3  4  1  0
  3 38  1  0
  3 39  1  0
  4  5  2  0
  4 40  1  0
  5  6  1  0
  5 30  1  0
  6  7  1  0
  6 41  1  0
  6 42  1  0
  7  8  1  1
  7  9  1  0
  7 24  1  0
  9 43  1  0
 10  9  1  0
 10 22  2  0
 10 11  1  0
 11 12  1  0
 11 13  1  0
 13 14  2  0
 13 44  1  0
 14 15  1  0
 14 22  1  0
 15 21  1  0
 15 16  2  0
 16 17  1  0
 16 45  1  0
 17 18  2  0
 17 46  1  0
 18 19  1  0
 18 20  1  0
 19 47  1  0
 19 48  1  0
 20 21  2  0
 20 49  1  0
 21 50  1  0
 22 23  1  0
 24 29  1  0
 24 25  2  0
 25 26  1  0
 25 51  1  0
 26 27  2  0
 26 52  1  0
 27 28  1  0
 27 53  1  0
 28 29  2  0
 28 54  1  0
 29 55  1  0
 30 31  1  0
 30 32  1  0
 30 56  1  0
M  CHG  1  22   1
M  END
>  <DOCK_score>  (1) 
-60.894608

>  <SMILES>  (1) 
CCCC=C(C[C@H](Nc1[nH]cc(-c2ccc(N)cc2)[nH+]1)c1ccccc1)C(F)F

$$$$
