CCn1c(Nc2ccc(-c3n[nH]cc3C[NH2+]CC3=CCOCC3)o2)nc2ccccc21
     RDKit          3D

 58 62  0  0  0  0  0  0  0  0999 V2000
  125.2532  139.5491  163.6471 C   0  0  0  0  0  0  0  0  0  0  0  0
  125.4074  138.2583  164.4538 C   0  0  0  0  0  0  0  0  0  0  0  0
  126.7647  137.7346  164.2828 N   0  0  0  0  0  0  0  0  0  0  0  0
  127.1807  136.8615  163.3181 C   0  0  0  0  0  0  0  0  0  0  0  0
  126.3754  136.3237  162.3349 N   0  0  0  0  0  0  0  0  0  0  0  0
  126.9100  135.4363  161.4059 C   0  0  0  0  0  0  0  0  0  0  0  0
  126.2384  134.4286  160.7953 C   0  0  0  0  0  0  0  0  0  0  0  0
  127.1525  133.7856  159.9381 C   0  0  0  0  0  0  0  0  0  0  0  0
  128.3393  134.4352  160.0692 C   0  0  0  0  0  0  0  0  0  0  0  0
  129.5907  134.1041  159.3566 C   0  0  0  0  0  0  0  0  0  0  0  0
  129.7525  133.1288  158.4842 N   0  0  0  0  0  0  0  0  0  0  0  0
  131.0820  133.1555  158.0443 N   0  0  0  0  0  0  0  0  0  0  0  0
  131.4801  132.5499  157.3996 H   0  0  0  0  0  0  0  0  0  0  0  0
  131.7142  134.1698  158.6736 C   0  0  0  0  0  0  0  0  0  0  0  0
  130.8246  134.7751  159.4892 C   0  0  0  0  0  0  0  0  0  0  0  0
  131.1009  135.9568  160.3827 C   0  0  0  0  0  0  0  0  0  0  0  0
  130.8336  137.2000  159.6472 N   0  0  0  0  0  0  0  0  0  0  0  0
  131.4309  137.2453  158.8353 H   0  0  0  0  0  0  0  0  0  0  0  0
  129.8678  137.2172  159.3556 H   0  0  0  0  0  0  0  0  0  0  0  0
  131.1029  138.3518  160.5183 C   0  0  0  0  0  0  0  0  0  0  0  0
  132.5453  138.3260  160.9539 C   0  0  0  0  0  0  0  0  0  0  0  0
  132.8136  138.2540  162.2236 C   0  0  0  0  0  0  0  0  0  0  0  0
  134.2166  138.2256  162.7601 C   0  0  0  0  0  0  0  0  0  0  0  0
  135.1407  137.9369  161.7091 O   0  0  0  0  0  0  0  0  0  0  0  0
  134.9534  138.7651  160.5547 C   0  0  0  0  0  0  0  0  0  0  0  0
  133.6192  138.3908  159.9032 C   0  0  0  0  0  0  0  0  0  0  0  0
  128.1801  135.4306  160.9661 O   0  0  0  0  0  0  0  0  0  0  0  0
  128.4567  136.6067  163.4689 N   0  0  0  0  0  0  0  0  0  0  0  0
  128.9389  137.3040  164.5306 C   0  0  0  0  0  0  0  0  0  0  0  0
  130.2016  137.4025  165.1207 C   0  0  0  0  0  0  0  0  0  0  0  0
  130.3809  138.2102  166.2212 C   0  0  0  0  0  0  0  0  0  0  0  0
  129.3173  138.9272  166.7489 C   0  0  0  0  0  0  0  0  0  0  0  0
  128.0645  138.8412  166.1777 C   0  0  0  0  0  0  0  0  0  0  0  0
  127.8654  138.0326  165.0689 C   0  0  0  0  0  0  0  0  0  0  0  0
  125.4325  139.3419  162.5921 H   0  0  0  0  0  0  0  0  0  0  0  0
  124.2433  139.9389  163.7743 H   0  0  0  0  0  0  0  0  0  0  0  0
  125.9744  140.2864  164.0000 H   0  0  0  0  0  0  0  0  0  0  0  0
  124.6863  137.5211  164.1008 H   0  0  0  0  0  0  0  0  0  0  0  0
  125.2282  138.4657  165.5088 H   0  0  0  0  0  0  0  0  0  0  0  0
  125.4367  136.5643  162.2912 H   0  0  0  0  0  0  0  0  0  0  0  0
  125.2001  134.1685  160.9392 H   0  0  0  0  0  0  0  0  0  0  0  0
  126.9494  132.9389  159.2992 H   0  0  0  0  0  0  0  0  0  0  0  0
  132.7499  134.4480  158.5464 H   0  0  0  0  0  0  0  0  0  0  0  0
  130.4556  135.9077  161.2599 H   0  0  0  0  0  0  0  0  0  0  0  0
  132.1442  135.9380  160.6978 H   0  0  0  0  0  0  0  0  0  0  0  0
  130.9045  139.2742  159.9725 H   0  0  0  0  0  0  0  0  0  0  0  0
  130.4576  138.3027  161.3954 H   0  0  0  0  0  0  0  0  0  0  0  0
  131.9922  138.2086  162.9232 H   0  0  0  0  0  0  0  0  0  0  0  0
  134.2957  137.4598  163.5316 H   0  0  0  0  0  0  0  0  0  0  0  0
  134.4523  139.1986  163.1913 H   0  0  0  0  0  0  0  0  0  0  0  0
  135.7665  138.5993  159.8481 H   0  0  0  0  0  0  0  0  0  0  0  0
  134.9344  139.8130  160.8541 H   0  0  0  0  0  0  0  0  0  0  0  0
  133.7121  137.4186  159.4187 H   0  0  0  0  0  0  0  0  0  0  0  0
  133.3548  139.1427  159.1596 H   0  0  0  0  0  0  0  0  0  0  0  0
  131.0343  136.8473  164.7147 H   0  0  0  0  0  0  0  0  0  0  0  0
  131.3572  138.2863  166.6768 H   0  0  0  0  0  0  0  0  0  0  0  0
  129.4710  139.5573  167.6125 H   0  0  0  0  0  0  0  0  0  0  0  0
  127.2404  139.4021  166.5935 H   0  0  0  0  0  0  0  0  0  0  0  0
  1  2  1  0
  1 35  1  0
  1 36  1  0
  1 37  1  0
  2  3  1  0
  2 38  1  0
  2 39  1  0
  3 34  1  0
  3  4  1  0
  4  5  1  0
  4 28  2  0
  5  6  1  0
  5 40  1  0
  6 27  1  0
  6  7  2  0
  7  8  1  0
  7 41  1  0
  8  9  2  0
  8 42  1  0
  9 10  1  0
  9 27  1  0
 10 15  1  0
 10 11  2  0
 11 12  1  0
 12 13  1  0
 12 14  1  0
 14 15  2  0
 14 43  1  0
 15 16  1  0
 16 17  1  0
 16 44  1  0
 16 45  1  0
 17 18  1  0
 17 19  1  0
 17 20  1  0
 20 21  1  0
 20 46  1  0
 20 47  1  0
 21 26  1  0
 21 22  2  0
 22 23  1  0
 22 48  1  0
 23 24  1  0
 23 49  1  0
 23 50  1  0
 24 25  1  0
 25 26  1  0
 25 51  1  0
 25 52  1  0
 26 53  1  0
 26 54  1  0
 28 29  1  0
 29 34  2  0
 29 30  1  0
 30 31  2  0
 30 55  1  0
 31 32  1  0
 31 56  1  0
 32 33  2  0
 32 57  1  0
 33 34  1  0
 33 58  1  0
M  CHG  1  17   1
M  END
>  <DOCK_score>  (1) 
-43.172081

>  <SMILES>  (1) 
CCn1c(Nc2ccc(-c3n[nH]cc3C[NH2+]CC3=CCOCC3)o2)nc2ccccc21

$$$$
