O[C@H]1C[C@@H]([NH2+]Cc2c[nH]nc2-c2ccc(N[C@H]3C[C@H](c4ccc(F)cc4F)C3)o2)C1
     RDKit          3D

 55 59  0  0  1  0  0  0  0  0999 V2000
  129.0961  140.8952  160.3017 O   0  0  0  0  0  0  0  0  0  0  0  0
  130.2659  140.1606  160.6677 C   0  0  1  0  0  0  0  0  0  0  0  0
  130.9268  140.7196  161.3302 H   0  0  0  0  0  0  0  0  0  0  0  0
  129.9704  138.7303  161.1545 C   0  0  0  0  0  0  0  0  0  0  0  0
  131.2163  138.2910  160.3675 C   0  0  1  0  0  0  0  0  0  0  0  0
  132.1380  138.3370  160.9478 H   0  0  0  0  0  0  0  0  0  0  0  0
  131.0479  137.0120  159.6648 N   0  0  0  0  0  0  0  0  0  0  0  0
  131.7350  136.9393  158.9294 H   0  0  0  0  0  0  0  0  0  0  0  0
  130.1222  136.9669  159.2659 H   0  0  0  0  0  0  0  0  0  0  0  0
  131.2269  135.9048  160.6135 C   0  0  0  0  0  0  0  0  0  0  0  0
  131.0542  134.5928  159.8926 C   0  0  0  0  0  0  0  0  0  0  0  0
  132.0314  133.8808  159.2918 C   0  0  0  0  0  0  0  0  0  0  0  0
  131.4736  132.7728  158.7573 N   0  0  0  0  0  0  0  0  0  0  0  0
  131.9420  132.0818  158.2633 H   0  0  0  0  0  0  0  0  0  0  0  0
  130.1019  132.7938  159.0402 N   0  0  0  0  0  0  0  0  0  0  0  0
  129.8428  133.8885  159.7281 C   0  0  0  0  0  0  0  0  0  0  0  0
  128.5181  134.3064  160.2316 C   0  0  0  0  0  0  0  0  0  0  0  0
  127.3538  133.6238  160.0710 C   0  0  0  0  0  0  0  0  0  0  0  0
  126.3483  134.3761  160.7098 C   0  0  0  0  0  0  0  0  0  0  0  0
  126.9455  135.4817  161.2206 C   0  0  0  0  0  0  0  0  0  0  0  0
  126.3094  136.4937  161.9301 N   0  0  0  0  0  0  0  0  0  0  0  0
  127.0430  137.2443  162.9523 C   0  0  1  0  0  0  0  0  0  0  0  0
  127.5410  138.1281  162.5537 H   0  0  0  0  0  0  0  0  0  0  0  0
  126.2211  137.5204  164.2224 C   0  0  0  0  0  0  0  0  0  0  0  0
  126.7437  136.1768  164.7577 C   0  0  2  0  0  0  0  0  0  0  0  0
  126.1153  135.3267  164.4921 H   0  0  0  0  0  0  0  0  0  0  0  0
  127.0984  136.2073  166.2222 C   0  0  0  0  0  0  0  0  0  0  0  0
  126.4238  137.0570  167.0788 C   0  0  0  0  0  0  0  0  0  0  0  0
  126.7515  137.0898  168.4208 C   0  0  0  0  0  0  0  0  0  0  0  0
  127.7486  136.2631  168.9111 C   0  0  0  0  0  0  0  0  0  0  0  0
  128.0649  136.2912  170.2243 F   0  0  0  0  0  0  0  0  0  0  0  0
  128.4246  135.4119  168.0544 C   0  0  0  0  0  0  0  0  0  0  0  0
  128.0994  135.3841  166.7090 C   0  0  0  0  0  0  0  0  0  0  0  0
  128.7588  134.5540  165.8715 F   0  0  0  0  0  0  0  0  0  0  0  0
  127.9530  136.3658  163.8269 C   0  0  0  0  0  0  0  0  0  0  0  0
  128.2567  135.4309  160.9305 O   0  0  0  0  0  0  0  0  0  0  0  0
  130.9904  139.5205  159.4718 C   0  0  0  0  0  0  0  0  0  0  0  0
  129.2661  141.6283  159.6945 H   0  0  0  0  0  0  0  0  0  0  0  0
  129.0396  138.3195  160.7633 H   0  0  0  0  0  0  0  0  0  0  0  0
  130.0689  138.6061  162.2329 H   0  0  0  0  0  0  0  0  0  0  0  0
  130.4848  135.9835  161.4078 H   0  0  0  0  0  0  0  0  0  0  0  0
  132.2269  135.9538  161.0445 H   0  0  0  0  0  0  0  0  0  0  0  0
  133.0758  134.1517  159.2435 H   0  0  0  0  0  0  0  0  0  0  0  0
  127.2248  132.6832  159.5563 H   0  0  0  0  0  0  0  0  0  0  0  0
  125.3009  134.1218  160.7781 H   0  0  0  0  0  0  0  0  0  0  0  0
  125.3799  136.7030  161.7485 H   0  0  0  0  0  0  0  0  0  0  0  0
  125.1446  137.5332  164.0516 H   0  0  0  0  0  0  0  0  0  0  0  0
  126.5698  138.3823  164.7910 H   0  0  0  0  0  0  0  0  0  0  0  0
  125.6431  137.6988  166.6980 H   0  0  0  0  0  0  0  0  0  0  0  0
  126.2271  137.7575  169.0884 H   0  0  0  0  0  0  0  0  0  0  0  0
  129.2051  134.7698  168.4351 H   0  0  0  0  0  0  0  0  0  0  0  0
  128.7766  136.9125  164.2866 H   0  0  0  0  0  0  0  0  0  0  0  0
  128.2749  135.4469  163.3369 H   0  0  0  0  0  0  0  0  0  0  0  0
  131.9112  140.0332  159.1937 H   0  0  0  0  0  0  0  0  0  0  0  0
  130.3402  139.3257  158.6190 H   0  0  0  0  0  0  0  0  0  0  0  0
  1  2  1  0
  1 38  1  0
  2  3  1  1
  2 37  1  0
  2  4  1  0
  4  5  1  0
  4 39  1  0
  4 40  1  0
  5  6  1  1
  5  7  1  0
  5 37  1  0
  7  8  1  0
  7  9  1  0
  7 10  1  0
 10 11  1  0
 10 41  1  0
 10 42  1  0
 11 16  1  0
 11 12  2  0
 12 13  1  0
 12 43  1  0
 13 14  1  0
 13 15  1  0
 15 16  2  0
 16 17  1  0
 17 36  1  0
 17 18  2  0
 18 19  1  0
 18 44  1  0
 19 20  2  0
 19 45  1  0
 20 21  1  0
 20 36  1  0
 21 22  1  0
 21 46  1  0
 22 23  1  6
 22 35  1  0
 22 24  1  0
 24 25  1  0
 24 47  1  0
 24 48  1  0
 25 26  1  6
 25 27  1  0
 25 35  1  0
 27 33  1  0
 27 28  2  0
 28 29  1  0
 28 49  1  0
 29 30  2  0
 29 50  1  0
 30 31  1  0
 30 32  1  0
 32 33  2  0
 32 51  1  0
 33 34  1  0
 35 52  1  0
 35 53  1  0
 37 54  1  0
 37 55  1  0
M  CHG  1   7   1
M  END
>  <DOCK_score>  (1) 
-41.685581

>  <SMILES>  (1) 
O[C@H]1C[C@@H]([NH2+]Cc2c[nH]nc2-c2ccc(N[C@H]3C[C@H](c4ccc(F)cc4F)C3)o2)C1

$$$$
