Cn1nccc1-c1ccc(C[NH+]2CCN([C@@H](Cc3ccc(Cl)cc3)C(F)F)CC2)cc1
     RDKit          3D

 59 62  0  0  1  0  0  0  0  0999 V2000
  135.6364  139.7601  163.0553 C   0  0  0  0  0  0  0  0  0  0  0  0
  136.2074  139.7543  161.7063 N   0  0  0  0  0  0  0  0  0  0  0  0
  137.4363  140.3093  161.3270 N   0  0  0  0  0  0  0  0  0  0  0  0
  137.6020  140.1141  160.0433 C   0  0  0  0  0  0  0  0  0  0  0  0
  136.4936  139.4243  159.5517 C   0  0  0  0  0  0  0  0  0  0  0  0
  135.6397  139.2052  160.5954 C   0  0  0  0  0  0  0  0  0  0  0  0
  134.3367  138.5069  160.5307 C   0  0  0  0  0  0  0  0  0  0  0  0
  133.3229  138.9910  159.7036 C   0  0  0  0  0  0  0  0  0  0  0  0
  132.1103  138.3351  159.6474 C   0  0  0  0  0  0  0  0  0  0  0  0
  131.8988  137.1995  160.4088 C   0  0  0  0  0  0  0  0  0  0  0  0
  130.5719  136.4883  160.3427 C   0  0  0  0  0  0  0  0  0  0  0  0
  130.6128  135.4727  159.2823 N   0  0  0  0  0  0  0  0  0  0  0  0
  131.1087  135.8400  158.4839 H   0  0  0  0  0  0  0  0  0  0  0  0
  129.2423  135.1216  158.8878 C   0  0  0  0  0  0  0  0  0  0  0  0
  129.2842  134.0775  157.7701 C   0  0  0  0  0  0  0  0  0  0  0  0
  129.9964  132.8831  158.2461 N   0  0  0  0  0  0  0  0  0  0  0  0
  130.0088  131.8333  157.2188 C   0  0  1  0  0  0  0  0  0  0  0  0
  129.0399  131.8012  156.7204 H   0  0  0  0  0  0  0  0  0  0  0  0
  131.1009  132.1379  156.1914 C   0  0  0  0  0  0  0  0  0  0  0  0
  130.8155  131.3863  154.9169 C   0  0  0  0  0  0  0  0  0  0  0  0
  131.3284  130.1155  154.7345 C   0  0  0  0  0  0  0  0  0  0  0  0
  131.0622  129.4235  153.5680 C   0  0  0  0  0  0  0  0  0  0  0  0
  130.2916  130.0071  152.5783 C   0  0  0  0  0  0  0  0  0  0  0  0
  129.9632  129.1415  151.1098 Cl  0  0  0  0  0  0  0  0  0  0  0  0
  129.7832  131.2811  152.7590 C   0  0  0  0  0  0  0  0  0  0  0  0
  130.0454  131.9700  153.9283 C   0  0  0  0  0  0  0  0  0  0  0  0
  130.2894  130.4802  157.8755 C   0  0  0  0  0  0  0  0  0  0  0  0
  131.6627  130.3517  158.1100 F   0  0  0  0  0  0  0  0  0  0  0  0
  129.5994  130.3992  159.0898 F   0  0  0  0  0  0  0  0  0  0  0  0
  131.3625  133.2235  158.6681 C   0  0  0  0  0  0  0  0  0  0  0  0
  131.3032  134.2748  159.7783 C   0  0  0  0  0  0  0  0  0  0  0  0
  132.8984  136.7175  161.2348 C   0  0  0  0  0  0  0  0  0  0  0  0
  134.1172  137.3614  161.2960 C   0  0  0  0  0  0  0  0  0  0  0  0
  135.8761  138.8218  163.5554 H   0  0  0  0  0  0  0  0  0  0  0  0
  136.0541  140.5916  163.6231 H   0  0  0  0  0  0  0  0  0  0  0  0
  134.5538  139.8713  162.9912 H   0  0  0  0  0  0  0  0  0  0  0  0
  138.4538  140.4343  159.4619 H   0  0  0  0  0  0  0  0  0  0  0  0
  136.3382  139.1178  158.5277 H   0  0  0  0  0  0  0  0  0  0  0  0
  133.4869  139.8771  159.1085 H   0  0  0  0  0  0  0  0  0  0  0  0
  131.3248  138.7088  159.0072 H   0  0  0  0  0  0  0  0  0  0  0  0
  129.7837  137.2092  160.1254 H   0  0  0  0  0  0  0  0  0  0  0  0
  130.3698  136.0068  161.2994 H   0  0  0  0  0  0  0  0  0  0  0  0
  128.7102  134.7129  159.7470 H   0  0  0  0  0  0  0  0  0  0  0  0
  128.7268  136.0135  158.5319 H   0  0  0  0  0  0  0  0  0  0  0  0
  129.8042  134.4906  156.9058 H   0  0  0  0  0  0  0  0  0  0  0  0
  128.2672  133.8060  157.4872 H   0  0  0  0  0  0  0  0  0  0  0  0
  131.1182  133.2083  155.9860 H   0  0  0  0  0  0  0  0  0  0  0  0
  132.0683  131.8283  156.5870 H   0  0  0  0  0  0  0  0  0  0  0  0
  131.9335  129.6618  155.5053 H   0  0  0  0  0  0  0  0  0  0  0  0
  131.4594  128.4291  153.4274 H   0  0  0  0  0  0  0  0  0  0  0  0
  129.1819  131.7374  151.9866 H   0  0  0  0  0  0  0  0  0  0  0  0
  129.6489  132.9646  154.0694 H   0  0  0  0  0  0  0  0  0  0  0  0
  129.9572  129.6796  157.2147 H   0  0  0  0  0  0  0  0  0  0  0  0
  131.9167  133.6225  157.8185 H   0  0  0  0  0  0  0  0  0  0  0  0
  131.8615  132.3289  159.0405 H   0  0  0  0  0  0  0  0  0  0  0  0
  132.3159  134.5392  160.0829 H   0  0  0  0  0  0  0  0  0  0  0  0
  130.7607  133.8706  160.6329 H   0  0  0  0  0  0  0  0  0  0  0  0
  132.7258  135.8329  161.8299 H   0  0  0  0  0  0  0  0  0  0  0  0
  134.8983  136.9816  161.9379 H   0  0  0  0  0  0  0  0  0  0  0  0
  1  2  1  0
  1 34  1  0
  1 35  1  0
  1 36  1  0
  2  6  1  0
  2  3  1  0
  3  4  2  0
  4  5  1  0
  4 37  1  0
  5  6  2  0
  5 38  1  0
  6  7  1  0
  7 33  1  0
  7  8  2  0
  8  9  1  0
  8 39  1  0
  9 10  2  0
  9 40  1  0
 10 11  1  0
 10 32  1  0
 11 12  1  0
 11 41  1  0
 11 42  1  0
 12 13  1  0
 12 31  1  0
 12 14  1  0
 14 15  1  0
 14 43  1  0
 14 44  1  0
 15 16  1  0
 15 45  1  0
 15 46  1  0
 16 17  1  0
 16 30  1  0
 17 18  1  6
 17 19  1  0
 17 27  1  0
 19 20  1  0
 19 47  1  0
 19 48  1  0
 20 26  1  0
 20 21  2  0
 21 22  1  0
 21 49  1  0
 22 23  2  0
 22 50  1  0
 23 24  1  0
 23 25  1  0
 25 26  2  0
 25 51  1  0
 26 52  1  0
 27 28  1  0
 27 29  1  0
 27 53  1  0
 30 31  1  0
 30 54  1  0
 30 55  1  0
 31 56  1  0
 31 57  1  0
 32 33  2  0
 32 58  1  0
 33 59  1  0
M  CHG  1  12   1
M  END
>  <DOCK_score>  (1) 
-58.79808

>  <SMILES>  (1) 
Cn1nccc1-c1ccc(C[NH+]2CCN([C@@H](Cc3ccc(Cl)cc3)C(F)F)CC2)cc1

$$$$
