Cc1c(Cl)cccc1N1CC[NH+]([C@H](c2ccccc2Cl)c2cccc3ccccc23)CC1
     RDKit          3D

 59 63  0  0  1  0  0  0  0  0999 V2000
  134.0280  139.1670  163.1213 C   0  0  0  0  0  0  0  0  0  0  0  0
  134.4637  139.5357  161.7266 C   0  0  0  0  0  0  0  0  0  0  0  0
  135.3846  140.5486  161.5342 C   0  0  0  0  0  0  0  0  0  0  0  0
  136.0394  141.3965  162.9002 Cl  0  0  0  0  0  0  0  0  0  0  0  0
  135.7804  140.8909  160.2531 C   0  0  0  0  0  0  0  0  0  0  0  0
  135.2605  140.2182  159.1627 C   0  0  0  0  0  0  0  0  0  0  0  0
  134.3446  139.2015  159.3487 C   0  0  0  0  0  0  0  0  0  0  0  0
  133.9446  138.8547  160.6332 C   0  0  0  0  0  0  0  0  0  0  0  0
  133.0180  137.8273  160.8243 N   0  0  0  0  0  0  0  0  0  0  0  0
  131.7211  138.1692  160.2235 C   0  0  0  0  0  0  0  0  0  0  0  0
  130.7198  137.0470  160.5056 C   0  0  0  0  0  0  0  0  0  0  0  0
  131.2234  135.7879  159.9412 N   0  0  0  0  0  0  0  0  0  0  0  0
  131.3533  135.8938  158.9463 H   0  0  0  0  0  0  0  0  0  0  0  0
  130.2536  134.7146  160.1966 C   0  0  2  0  0  0  0  0  0  0  0  0
  130.1126  134.6004  161.2714 H   0  0  0  0  0  0  0  0  0  0  0  0
  130.7700  133.4227  159.6176 C   0  0  0  0  0  0  0  0  0  0  0  0
  131.0260  133.3258  158.2627 C   0  0  0  0  0  0  0  0  0  0  0  0
  131.5047  132.1426  157.7323 C   0  0  0  0  0  0  0  0  0  0  0  0
  131.7171  131.0518  158.5545 C   0  0  0  0  0  0  0  0  0  0  0  0
  131.4563  131.1456  159.9088 C   0  0  0  0  0  0  0  0  0  0  0  0
  130.9826  132.3317  160.4411 C   0  0  0  0  0  0  0  0  0  0  0  0
  130.6545  132.4503  162.1417 Cl  0  0  0  0  0  0  0  0  0  0  0  0
  128.9370  135.0633  159.5516 C   0  0  0  0  0  0  0  0  0  0  0  0
  128.9082  135.8236  158.4228 C   0  0  0  0  0  0  0  0  0  0  0  0
  127.7008  136.1558  157.8121 C   0  0  0  0  0  0  0  0  0  0  0  0
  126.5146  135.7296  158.3264 C   0  0  0  0  0  0  0  0  0  0  0  0
  126.5043  134.9428  159.4905 C   0  0  0  0  0  0  0  0  0  0  0  0
  125.2997  134.4847  160.0512 C   0  0  0  0  0  0  0  0  0  0  0  0
  125.3285  133.7250  161.1798 C   0  0  0  0  0  0  0  0  0  0  0  0
  126.5364  133.3931  161.7910 C   0  0  0  0  0  0  0  0  0  0  0  0
  127.7221  133.8183  161.2764 C   0  0  0  0  0  0  0  0  0  0  0  0
  127.7327  134.6051  160.1117 C   0  0  0  0  0  0  0  0  0  0  0  0
  132.5071  135.4469  160.5686 C   0  0  0  0  0  0  0  0  0  0  0  0
  133.5232  136.5560  160.2869 C   0  0  0  0  0  0  0  0  0  0  0  0
  134.6903  138.3972  163.5173 H   0  0  0  0  0  0  0  0  0  0  0  0
  134.0723  140.0486  163.7608 H   0  0  0  0  0  0  0  0  0  0  0  0
  133.0062  138.7885  163.0947 H   0  0  0  0  0  0  0  0  0  0  0  0
  136.4971  141.6852  160.1047 H   0  0  0  0  0  0  0  0  0  0  0  0
  135.5715  140.4877  158.1641 H   0  0  0  0  0  0  0  0  0  0  0  0
  133.9399  138.6762  158.4963 H   0  0  0  0  0  0  0  0  0  0  0  0
  131.8393  138.2889  159.1466 H   0  0  0  0  0  0  0  0  0  0  0  0
  131.3544  139.1007  160.6548 H   0  0  0  0  0  0  0  0  0  0  0  0
  129.7610  137.2921  160.0488 H   0  0  0  0  0  0  0  0  0  0  0  0
  130.5916  136.9368  161.5825 H   0  0  0  0  0  0  0  0  0  0  0  0
  130.8559  134.1762  157.6190 H   0  0  0  0  0  0  0  0  0  0  0  0
  131.7085  132.0686  156.6743 H   0  0  0  0  0  0  0  0  0  0  0  0
  132.0874  130.1264  158.1388 H   0  0  0  0  0  0  0  0  0  0  0  0
  131.6229  130.2935  160.5511 H   0  0  0  0  0  0  0  0  0  0  0  0
  129.8353  136.1744  157.9940 H   0  0  0  0  0  0  0  0  0  0  0  0
  127.7058  136.7608  156.9173 H   0  0  0  0  0  0  0  0  0  0  0  0
  125.5862  135.9986  157.8447 H   0  0  0  0  0  0  0  0  0  0  0  0
  124.3562  134.7346  159.5889 H   0  0  0  0  0  0  0  0  0  0  0  0
  124.4013  133.3743  161.6086 H   0  0  0  0  0  0  0  0  0  0  0  0
  126.5311  132.7891  162.6863 H   0  0  0  0  0  0  0  0  0  0  0  0
  128.6505  133.5527  161.7604 H   0  0  0  0  0  0  0  0  0  0  0  0
  132.3696  135.3449  161.6451 H   0  0  0  0  0  0  0  0  0  0  0  0
  132.8733  134.5058  160.1583 H   0  0  0  0  0  0  0  0  0  0  0  0
  133.6711  136.6490  159.2111 H   0  0  0  0  0  0  0  0  0  0  0  0
  134.4715  136.3102  160.7649 H   0  0  0  0  0  0  0  0  0  0  0  0
  1  2  1  0
  1 35  1  0
  1 36  1  0
  1 37  1  0
  2  8  2  0
  2  3  1  0
  3  4  1  0
  3  5  2  0
  5  6  1  0
  5 38  1  0
  6  7  2  0
  6 39  1  0
  7  8  1  0
  7 40  1  0
  8  9  1  0
  9 34  1  0
  9 10  1  0
 10 11  1  0
 10 41  1  0
 10 42  1  0
 11 12  1  0
 11 43  1  0
 11 44  1  0
 12 13  1  0
 12 14  1  0
 12 33  1  0
 14 15  1  1
 14 16  1  0
 14 23  1  0
 16 21  1  0
 16 17  2  0
 17 18  1  0
 17 45  1  0
 18 19  2  0
 18 46  1  0
 19 20  1  0
 19 47  1  0
 20 21  2  0
 20 48  1  0
 21 22  1  0
 23 32  1  0
 23 24  2  0
 24 25  1  0
 24 49  1  0
 25 26  2  0
 25 50  1  0
 26 27  1  0
 26 51  1  0
 27 32  2  0
 27 28  1  0
 28 29  2  0
 28 52  1  0
 29 30  1  0
 29 53  1  0
 30 31  2  0
 30 54  1  0
 31 32  1  0
 31 55  1  0
 33 34  1  0
 33 56  1  0
 33 57  1  0
 34 58  1  0
 34 59  1  0
M  CHG  1  12   1
M  END
>  <DOCK_score>  (1) 
-57.249809

>  <SMILES>  (1) 
Cc1c(Cl)cccc1N1CC[NH+]([C@H](c2ccccc2Cl)c2cccc3ccccc23)CC1

$$$$
