CCc1ccc(-c2c[nH]c(Nc3ccccc3C3=CCN(c4cccc5cc[nH]c45)C3)[nH+]2)cc1
     RDKit          3D

 62 67  0  0  1  0  0  0  0  0999 V2000
  130.4392  128.9043  151.8928 C   0  0  0  0  0  0  0  0  0  0  0  0
  131.6924  129.5940  152.4350 C   0  0  0  0  0  0  0  0  0  0  0  0
  131.3323  130.4056  153.6526 C   0  0  0  0  0  0  0  0  0  0  0  0
  131.3889  129.8268  154.9076 C   0  0  0  0  0  0  0  0  0  0  0  0
  131.0607  130.5651  156.0264 C   0  0  0  0  0  0  0  0  0  0  0  0
  130.6716  131.8964  155.8901 C   0  0  0  0  0  0  0  0  0  0  0  0
  130.3176  132.6951  157.0889 C   0  0  0  0  0  0  0  0  0  0  0  0
  129.7803  132.2147  158.2379 C   0  0  0  0  0  0  0  0  0  0  0  0
  129.6144  133.2871  159.0793 N   0  0  0  0  0  0  0  0  0  0  0  0
  129.2504  133.2614  159.9780 H   0  0  0  0  0  0  0  0  0  0  0  0
  130.0556  134.3930  158.4194 C   0  0  0  0  0  0  0  0  0  0  0  0
  130.0557  135.6848  158.9198 N   0  0  0  0  0  0  0  0  0  0  0  0
  129.5741  135.9350  160.2051 C   0  0  0  0  0  0  0  0  0  0  0  0
  128.2593  135.6312  160.5281 C   0  0  0  0  0  0  0  0  0  0  0  0
  127.7860  135.8742  161.8028 C   0  0  0  0  0  0  0  0  0  0  0  0
  128.6138  136.4321  162.7623 C   0  0  0  0  0  0  0  0  0  0  0  0
  129.9219  136.7454  162.4561 C   0  0  0  0  0  0  0  0  0  0  0  0
  130.4146  136.4999  161.1743 C   0  0  0  0  0  0  0  0  0  0  0  0
  131.8140  136.8336  160.8403 C   0  0  0  0  0  0  0  0  0  0  0  0
  132.2322  137.9946  160.3528 C   0  0  0  0  0  0  0  0  0  0  0  0
  133.7288  137.9374  160.1496 C   0  0  0  0  0  0  0  0  0  0  0  0
  134.1927  136.7777  160.9469 N   0  0  0  0  0  0  0  0  0  0  0  0
  134.5740  137.1739  162.2325 C   0  0  0  0  0  0  0  0  0  0  0  0
  133.9661  138.2619  162.8342 C   0  0  0  0  0  0  0  0  0  0  0  0
  134.3378  138.6619  164.1098 C   0  0  0  0  0  0  0  0  0  0  0  0
  135.3107  137.9891  164.7937 C   0  0  0  0  0  0  0  0  0  0  0  0
  135.9398  136.8873  164.2069 C   0  0  0  0  0  0  0  0  0  0  0  0
  136.9904  135.9645  164.6429 C   0  0  0  0  0  0  0  0  0  0  0  0
  137.1749  135.0809  163.6488 C   0  0  0  0  0  0  0  0  0  0  0  0
  136.3385  135.3714  162.6066 N   0  0  0  0  0  0  0  0  0  0  0  0
  136.2946  134.8778  161.7728 H   0  0  0  0  0  0  0  0  0  0  0  0
  135.5667  136.4701  162.9184 C   0  0  0  0  0  0  0  0  0  0  0  0
  132.9963  135.9046  160.9932 C   0  0  0  0  0  0  0  0  0  0  0  0
  130.4749  134.0348  157.2303 N   0  0  0  0  0  0  0  0  0  0  0  0
  130.8391  134.6324  156.5587 H   0  0  0  0  0  0  0  0  0  0  0  0
  130.6109  132.4729  154.6227 C   0  0  0  0  0  0  0  0  0  0  0  0
  130.9469  131.7268  153.5113 C   0  0  0  0  0  0  0  0  0  0  0  0
  130.0268  128.2470  152.6582 H   0  0  0  0  0  0  0  0  0  0  0  0
  129.6983  129.6565  151.6222 H   0  0  0  0  0  0  0  0  0  0  0  0
  130.6997  128.3175  151.0119 H   0  0  0  0  0  0  0  0  0  0  0  0
  132.1049  130.2518  151.6693 H   0  0  0  0  0  0  0  0  0  0  0  0
  132.4333  128.8423  152.7053 H   0  0  0  0  0  0  0  0  0  0  0  0
  131.6903  128.7949  155.0121 H   0  0  0  0  0  0  0  0  0  0  0  0
  131.1055  130.1121  157.0059 H   0  0  0  0  0  0  0  0  0  0  0  0
  129.5308  131.1856  158.4504 H   0  0  0  0  0  0  0  0  0  0  0  0
  130.3906  136.4154  158.3767 H   0  0  0  0  0  0  0  0  0  0  0  0
  127.6065  135.2003  159.7833 H   0  0  0  0  0  0  0  0  0  0  0  0
  126.7632  135.6320  162.0512 H   0  0  0  0  0  0  0  0  0  0  0  0
  128.2337  136.6224  163.7552 H   0  0  0  0  0  0  0  0  0  0  0  0
  130.5637  137.1806  163.2077 H   0  0  0  0  0  0  0  0  0  0  0  0
  131.6035  138.8458  160.1373 H   0  0  0  0  0  0  0  0  0  0  0  0
  134.1962  138.8540  160.5095 H   0  0  0  0  0  0  0  0  0  0  0  0
  133.9586  137.7865  159.0948 H   0  0  0  0  0  0  0  0  0  0  0  0
  133.1954  138.8041  162.3067 H   0  0  0  0  0  0  0  0  0  0  0  0
  133.8537  139.5126  164.5663 H   0  0  0  0  0  0  0  0  0  0  0  0
  135.5934  138.3081  165.7860 H   0  0  0  0  0  0  0  0  0  0  0  0
  137.5094  135.9833  165.5898 H   0  0  0  0  0  0  0  0  0  0  0  0
  137.8858  134.2681  163.6655 H   0  0  0  0  0  0  0  0  0  0  0  0
  132.9459  135.3840  161.9496 H   0  0  0  0  0  0  0  0  0  0  0  0
  133.0209  135.1871  160.1731 H   0  0  0  0  0  0  0  0  0  0  0  0
  130.3057  133.5029  154.5107 H   0  0  0  0  0  0  0  0  0  0  0  0
  130.9045  132.1737  152.5290 H   0  0  0  0  0  0  0  0  0  0  0  0
  1  2  1  0
  1 38  1  0
  1 39  1  0
  1 40  1  0
  2  3  1  0
  2 41  1  0
  2 42  1  0
  3 37  2  0
  3  4  1  0
  4  5  2  0
  4 43  1  0
  5  6  1  0
  5 44  1  0
  6  7  1  0
  6 36  2  0
  7 34  1  0
  7  8  2  0
  8  9  1  0
  8 45  1  0
  9 10  1  0
  9 11  1  0
 11 12  1  0
 11 34  2  0
 12 13  1  0
 12 46  1  0
 13 18  1  0
 13 14  2  0
 14 15  1  0
 14 47  1  0
 15 16  2  0
 15 48  1  0
 16 17  1  0
 16 49  1  0
 17 18  2  0
 17 50  1  0
 18 19  1  0
 19 33  1  0
 19 20  2  0
 20 21  1  0
 20 51  1  0
 21 22  1  0
 21 52  1  0
 21 53  1  0
 22 23  1  0
 22 33  1  0
 23 32  1  0
 23 24  2  0
 24 25  1  0
 24 54  1  0
 25 26  2  0
 25 55  1  0
 26 27  1  0
 26 56  1  0
 27 32  2  0
 27 28  1  0
 28 29  2  0
 28 57  1  0
 29 30  1  0
 29 58  1  0
 30 31  1  0
 30 32  1  0
 33 59  1  0
 33 60  1  0
 34 35  1  0
 36 37  1  0
 36 61  1  0
 37 62  1  0
M  CHG  1  34   1
M  END
>  <DOCK_score>  (1) 
-61.237301

>  <SMILES>  (1) 
CCc1ccc(-c2c[nH]c(Nc3ccccc3C3=CCN(c4cccc5cc[nH]c45)C3)[nH+]2)cc1

$$$$
