Fc1ccc([C@H]2C[C@H](Nc3ccc(-c4n[nH]cc4C[NH2+]C[C@H]4C[C@H]5CC[C@H]5C4)o3)C2)c(F)c1
     RDKit          3D

 64 69  0  0  1  0  0  0  0  0999 V2000
  128.0820  139.2911  169.9307 F   0  0  0  0  0  0  0  0  0  0  0  0
  127.8027  138.7514  168.7241 C   0  0  0  0  0  0  0  0  0  0  0  0
  128.5109  137.6481  168.2780 C   0  0  0  0  0  0  0  0  0  0  0  0
  128.2250  137.0955  167.0441 C   0  0  0  0  0  0  0  0  0  0  0  0
  127.2320  137.6432  166.2537 C   0  0  0  0  0  0  0  0  0  0  0  0
  126.9214  137.0395  164.9082 C   0  0  1  0  0  0  0  0  0  0  0  0
  126.1584  136.2627  164.9587 H   0  0  0  0  0  0  0  0  0  0  0  0
  126.6656  138.0838  163.8087 C   0  0  0  0  0  0  0  0  0  0  0  0
  127.4636  137.1667  162.8641 C   0  0  2  0  0  0  0  0  0  0  0  0
  128.1262  137.7050  162.1862 H   0  0  0  0  0  0  0  0  0  0  0  0
  126.6365  136.1702  162.1792 N   0  0  0  0  0  0  0  0  0  0  0  0
  127.2207  135.2720  161.2938 C   0  0  0  0  0  0  0  0  0  0  0  0
  126.5689  134.3061  160.5997 C   0  0  0  0  0  0  0  0  0  0  0  0
  127.5350  133.6325  159.8263 C   0  0  0  0  0  0  0  0  0  0  0  0
  128.7318  134.2180  160.0944 C   0  0  0  0  0  0  0  0  0  0  0  0
  130.0334  133.8337  159.5103 C   0  0  0  0  0  0  0  0  0  0  0  0
  130.2390  132.8615  158.6439 N   0  0  0  0  0  0  0  0  0  0  0  0
  131.6062  132.8301  158.3419 N   0  0  0  0  0  0  0  0  0  0  0  0
  132.0397  132.2148  157.7299 H   0  0  0  0  0  0  0  0  0  0  0  0
  132.2180  133.8006  159.0548 C   0  0  0  0  0  0  0  0  0  0  0  0
  131.2783  134.4382  159.7853 C   0  0  0  0  0  0  0  0  0  0  0  0
  131.5169  135.5899  160.7275 C   0  0  0  0  0  0  0  0  0  0  0  0
  132.4066  136.5689  160.0887 N   0  0  0  0  0  0  0  0  0  0  0  0
  133.2868  136.1286  159.8661 H   0  0  0  0  0  0  0  0  0  0  0  0
  131.9778  136.9105  159.2415 H   0  0  0  0  0  0  0  0  0  0  0  0
  132.6391  137.6916  161.0069 C   0  0  0  0  0  0  0  0  0  0  0  0
  133.5659  138.7112  160.3415 C   0  0  1  0  0  0  0  0  0  0  0  0
  133.3033  138.8194  159.2892 H   0  0  0  0  0  0  0  0  0  0  0  0
  133.4496  140.0663  161.0549 C   0  0  0  0  0  0  0  0  0  0  0  0
  134.8874  140.6020  161.1928 C   0  0  1  0  0  0  0  0  0  0  0  0
  135.1755  141.3762  160.4816 H   0  0  0  0  0  0  0  0  0  0  0  0
  135.2947  140.8423  162.6575 C   0  0  0  0  0  0  0  0  0  0  0  0
  135.5319  139.3264  162.7603 C   0  0  0  0  0  0  0  0  0  0  0  0
  135.7803  139.3413  161.2454 C   0  0  1  0  0  0  0  0  0  0  0  0
  136.8159  139.4796  160.9348 H   0  0  0  0  0  0  0  0  0  0  0  0
  135.0253  138.2534  160.4715 C   0  0  0  0  0  0  0  0  0  0  0  0
  128.5274  135.2108  160.9856 O   0  0  0  0  0  0  0  0  0  0  0  0
  128.1723  136.6237  164.1162 C   0  0  0  0  0  0  0  0  0  0  0  0
  126.5262  138.7494  166.6953 C   0  0  0  0  0  0  0  0  0  0  0  0
  125.5592  139.2876  165.9205 F   0  0  0  0  0  0  0  0  0  0  0  0
  126.8085  139.3008  167.9334 C   0  0  0  0  0  0  0  0  0  0  0  0
  129.2865  137.2190  168.8949 H   0  0  0  0  0  0  0  0  0  0  0  0
  128.7778  136.2351  166.6969 H   0  0  0  0  0  0  0  0  0  0  0  0
  125.6145  138.1833  163.5373 H   0  0  0  0  0  0  0  0  0  0  0  0
  127.1478  139.0430  163.9967 H   0  0  0  0  0  0  0  0  0  0  0  0
  125.6810  136.1373  162.3437 H   0  0  0  0  0  0  0  0  0  0  0  0
  125.5102  134.0948  160.6319 H   0  0  0  0  0  0  0  0  0  0  0  0
  127.3590  132.8066  159.1530 H   0  0  0  0  0  0  0  0  0  0  0  0
  133.2739  134.0270  159.0426 H   0  0  0  0  0  0  0  0  0  0  0  0
  130.5662  136.0657  160.9679 H   0  0  0  0  0  0  0  0  0  0  0  0
  131.9802  135.2208  161.6425 H   0  0  0  0  0  0  0  0  0  0  0  0
  131.6883  138.1672  161.2473 H   0  0  0  0  0  0  0  0  0  0  0  0
  133.1024  137.3226  161.9219 H   0  0  0  0  0  0  0  0  0  0  0  0
  132.8490  140.7535  160.4589 H   0  0  0  0  0  0  0  0  0  0  0  0
  133.0026  139.9344  162.0402 H   0  0  0  0  0  0  0  0  0  0  0  0
  136.2032  141.4345  162.7662 H   0  0  0  0  0  0  0  0  0  0  0  0
  134.4783  141.2010  163.2842 H   0  0  0  0  0  0  0  0  0  0  0  0
  134.6444  138.7644  163.0517 H   0  0  0  0  0  0  0  0  0  0  0  0
  136.4129  139.0610  163.3445 H   0  0  0  0  0  0  0  0  0  0  0  0
  135.0706  137.3113  161.0176 H   0  0  0  0  0  0  0  0  0  0  0  0
  135.4644  138.1310  159.4814 H   0  0  0  0  0  0  0  0  0  0  0  0
  129.0674  137.1830  164.3883 H   0  0  0  0  0  0  0  0  0  0  0  0
  128.3368  135.5464  164.0937 H   0  0  0  0  0  0  0  0  0  0  0  0
  126.2558  140.1614  168.2805 H   0  0  0  0  0  0  0  0  0  0  0  0
  1  2  1  0
  2 41  2  0
  2  3  1  0
  3  4  2  0
  3 42  1  0
  4  5  1  0
  4 43  1  0
  5  6  1  0
  5 39  2  0
  6  7  1  1
  6 38  1  0
  6  8  1  0
  8  9  1  0
  8 44  1  0
  8 45  1  0
  9 10  1  6
  9 11  1  0
  9 38  1  0
 11 12  1  0
 11 46  1  0
 12 37  1  0
 12 13  2  0
 13 14  1  0
 13 47  1  0
 14 15  2  0
 14 48  1  0
 15 16  1  0
 15 37  1  0
 16 21  1  0
 16 17  2  0
 17 18  1  0
 18 19  1  0
 18 20  1  0
 20 21  2  0
 20 49  1  0
 21 22  1  0
 22 23  1  0
 22 50  1  0
 22 51  1  0
 23 24  1  0
 23 25  1  0
 23 26  1  0
 26 27  1  0
 26 52  1  0
 26 53  1  0
 27 28  1  6
 27 36  1  0
 27 29  1  0
 29 30  1  0
 29 54  1  0
 29 55  1  0
 30 31  1  6
 30 34  1  0
 30 32  1  0
 32 33  1  0
 32 56  1  0
 32 57  1  0
 33 34  1  0
 33 58  1  0
 33 59  1  0
 34 35  1  1
 34 36  1  0
 36 60  1  0
 36 61  1  0
 38 62  1  0
 38 63  1  0
 39 40  1  0
 39 41  1  0
 41 64  1  0
M  CHG  1  23   1
M  END
>  <DOCK_score>  (1) 
-46.465485

>  <SMILES>  (1) 
Fc1ccc([C@H]2C[C@H](Nc3ccc(-c4n[nH]cc4C[NH2+]C[C@H]4C[C@H]5CC[C@H]5C4)o3)C2)c(F)c1

$$$$
