Cc1nn(-c2ccc(F)cc2)cc1CNC1=C([NH2+]CC2=CCCCC2)CCC1
     RDKit          3D

 58 61  0  0  0  0  0  0  0  0999 V2000
  125.8152  133.1196  159.8675 C   0  0  0  0  0  0  0  0  0  0  0  0
  126.4912  134.4033  160.2757 C   0  0  0  0  0  0  0  0  0  0  0  0
  126.1824  135.1357  161.3155 N   0  0  0  0  0  0  0  0  0  0  0  0
  127.0384  136.2446  161.3398 N   0  0  0  0  0  0  0  0  0  0  0  0
  127.0295  137.2733  162.2929 C   0  0  0  0  0  0  0  0  0  0  0  0
  127.9425  138.3149  162.1996 C   0  0  0  0  0  0  0  0  0  0  0  0
  127.9291  139.3297  163.1363 C   0  0  0  0  0  0  0  0  0  0  0  0
  127.0127  139.3030  164.1742 C   0  0  0  0  0  0  0  0  0  0  0  0
  127.0048  140.2938  165.0928 F   0  0  0  0  0  0  0  0  0  0  0  0
  126.1047  138.2621  164.2718 C   0  0  0  0  0  0  0  0  0  0  0  0
  126.1115  137.2484  163.3340 C   0  0  0  0  0  0  0  0  0  0  0  0
  127.8746  136.1471  160.2817 C   0  0  0  0  0  0  0  0  0  0  0  0
  127.5589  135.0153  159.6103 C   0  0  0  0  0  0  0  0  0  0  0  0
  128.2341  134.5073  158.3624 C   0  0  0  0  0  0  0  0  0  0  0  0
  129.6875  134.6046  158.5195 N   0  0  0  0  0  0  0  0  0  0  0  0
  130.3224  133.9192  159.5474 C   0  0  0  0  0  0  0  0  0  0  0  0
  131.4269  134.3194  160.1397 C   0  0  0  0  0  0  0  0  0  0  0  0
  132.1184  135.4911  159.8189 N   0  0  0  0  0  0  0  0  0  0  0  0
  133.0549  135.2589  159.5235 H   0  0  0  0  0  0  0  0  0  0  0  0
  131.6392  135.9706  159.0715 H   0  0  0  0  0  0  0  0  0  0  0  0
  132.1795  136.3626  160.9999 C   0  0  0  0  0  0  0  0  0  0  0  0
  132.9249  137.6258  160.6541 C   0  0  0  0  0  0  0  0  0  0  0  0
  132.2431  138.6285  160.2011 C   0  0  0  0  0  0  0  0  0  0  0  0
  132.8446  139.9465  159.8101 C   0  0  0  0  0  0  0  0  0  0  0  0
  134.2518  140.0797  160.3958 C   0  0  0  0  0  0  0  0  0  0  0  0
  135.0354  138.8016  160.0713 C   0  0  0  0  0  0  0  0  0  0  0  0
  134.4127  137.6411  160.8505 C   0  0  0  0  0  0  0  0  0  0  0  0
  131.8467  133.3441  161.2149 C   0  0  0  0  0  0  0  0  0  0  0  0
  130.5930  132.4772  161.4744 C   0  0  0  0  0  0  0  0  0  0  0  0
  129.8406  132.6111  160.1304 C   0  0  0  0  0  0  0  0  0  0  0  0
  126.3164  132.2775  160.3446 H   0  0  0  0  0  0  0  0  0  0  0  0
  124.7707  133.1444  160.1780 H   0  0  0  0  0  0  0  0  0  0  0  0
  125.8698  133.0089  158.7844 H   0  0  0  0  0  0  0  0  0  0  0  0
  128.6602  138.3338  161.3929 H   0  0  0  0  0  0  0  0  0  0  0  0
  128.6368  140.1422  163.0619 H   0  0  0  0  0  0  0  0  0  0  0  0
  125.3908  138.2428  165.0822 H   0  0  0  0  0  0  0  0  0  0  0  0
  125.4030  136.4368  163.4103 H   0  0  0  0  0  0  0  0  0  0  0  0
  128.6540  136.8472  160.0193 H   0  0  0  0  0  0  0  0  0  0  0  0
  127.9198  135.1081  157.5090 H   0  0  0  0  0  0  0  0  0  0  0  0
  127.9554  133.4666  158.1965 H   0  0  0  0  0  0  0  0  0  0  0  0
  130.2062  135.1478  157.9057 H   0  0  0  0  0  0  0  0  0  0  0  0
  131.1679  136.6136  161.3190 H   0  0  0  0  0  0  0  0  0  0  0  0
  132.6972  135.8447  161.8072 H   0  0  0  0  0  0  0  0  0  0  0  0
  131.1741  138.5103  160.1018 H   0  0  0  0  0  0  0  0  0  0  0  0
  132.2191  140.7569  160.1845 H   0  0  0  0  0  0  0  0  0  0  0  0
  132.8983  140.0071  158.7231 H   0  0  0  0  0  0  0  0  0  0  0  0
  134.1884  140.2061  161.4766 H   0  0  0  0  0  0  0  0  0  0  0  0
  134.7556  140.9400  159.9554 H   0  0  0  0  0  0  0  0  0  0  0  0
  136.0770  138.9250  160.3679 H   0  0  0  0  0  0  0  0  0  0  0  0
  134.9775  138.5978  159.0021 H   0  0  0  0  0  0  0  0  0  0  0  0
  134.6359  137.7571  161.9111 H   0  0  0  0  0  0  0  0  0  0  0  0
  134.8340  136.7014  160.4933 H   0  0  0  0  0  0  0  0  0  0  0  0
  132.1346  133.8760  162.1217 H   0  0  0  0  0  0  0  0  0  0  0  0
  132.6699  132.7242  160.8599 H   0  0  0  0  0  0  0  0  0  0  0  0
  130.0013  132.8817  162.2955 H   0  0  0  0  0  0  0  0  0  0  0  0
  130.8674  131.4401  161.6670 H   0  0  0  0  0  0  0  0  0  0  0  0
  128.7643  132.6445  160.2997 H   0  0  0  0  0  0  0  0  0  0  0  0
  130.0960  131.7836  159.4684 H   0  0  0  0  0  0  0  0  0  0  0  0
  1  2  1  0
  1 31  1  0
  1 32  1  0
  1 33  1  0
  2 13  1  0
  2  3  2  0
  3  4  1  0
  4  5  1  0
  4 12  1  0
  5 11  1  0
  5  6  2  0
  6  7  1  0
  6 34  1  0
  7  8  2  0
  7 35  1  0
  8  9  1  0
  8 10  1  0
 10 11  2  0
 10 36  1  0
 11 37  1  0
 12 13  2  0
 12 38  1  0
 13 14  1  0
 14 15  1  0
 14 39  1  0
 14 40  1  0
 15 16  1  0
 15 41  1  0
 16 30  1  0
 16 17  2  0
 17 18  1  0
 17 28  1  0
 18 19  1  0
 18 20  1  0
 18 21  1  0
 21 22  1  0
 21 42  1  0
 21 43  1  0
 22 27  1  0
 22 23  2  0
 23 24  1  0
 23 44  1  0
 24 25  1  0
 24 45  1  0
 24 46  1  0
 25 26  1  0
 25 47  1  0
 25 48  1  0
 26 27  1  0
 26 49  1  0
 26 50  1  0
 27 51  1  0
 27 52  1  0
 28 29  1  0
 28 53  1  0
 28 54  1  0
 29 30  1  0
 29 55  1  0
 29 56  1  0
 30 57  1  0
 30 58  1  0
M  CHG  1  18   1
M  END
>  <DOCK_score>  (1) 
-47.312859

>  <SMILES>  (1) 
Cc1nn(-c2ccc(F)cc2)cc1CNC1=C([NH2+]CC2=CCCCC2)CCC1

$$$$
