Fc1ccc(C=CC[C@H]2C=CCC(CNc3[nH]cc(-c4cccnc4)[nH+]3)=C2)cc1
     RDKit          3D

 53 56  0  0  1  0  0  0  0  0999 V2000
  139.1149  133.9328  164.9431 F   0  0  0  0  0  0  0  0  0  0  0  0
  138.3292  134.8567  164.3478 C   0  0  0  0  0  0  0  0  0  0  0  0
  137.3731  134.4610  163.4272 C   0  0  0  0  0  0  0  0  0  0  0  0
  136.5688  135.4006  162.8168 C   0  0  0  0  0  0  0  0  0  0  0  0
  136.7197  136.7526  163.1282 C   0  0  0  0  0  0  0  0  0  0  0  0
  135.8611  137.7639  162.4768 C   0  0  0  0  0  0  0  0  0  0  0  0
  134.7144  137.4004  161.9195 C   0  0  0  0  0  0  0  0  0  0  0  0
  133.8391  138.4317  161.2553 C   0  0  0  0  0  0  0  0  0  0  0  0
  132.4750  138.4650  161.9477 C   0  0  1  0  0  0  0  0  0  0  0  0
  132.6182  138.3667  163.0237 H   0  0  0  0  0  0  0  0  0  0  0  0
  131.8096  139.7771  161.6595 C   0  0  0  0  0  0  0  0  0  0  0  0
  130.5405  139.8823  161.4074 C   0  0  0  0  0  0  0  0  0  0  0  0
  129.6175  138.7038  161.3752 C   0  0  0  0  0  0  0  0  0  0  0  0
  130.3767  137.4225  161.2037 C   0  0  0  0  0  0  0  0  0  0  0  0
  129.6357  136.2057  160.7122 C   0  0  0  0  0  0  0  0  0  0  0  0
  130.2327  135.7446  159.4563 N   0  0  0  0  0  0  0  0  0  0  0  0
  130.1985  134.4006  159.1260 C   0  0  0  0  0  0  0  0  0  0  0  0
  129.6417  133.4132  159.8792 N   0  0  0  0  0  0  0  0  0  0  0  0
  129.2019  133.5233  160.7366 H   0  0  0  0  0  0  0  0  0  0  0  0
  129.8126  132.2325  159.1980 C   0  0  0  0  0  0  0  0  0  0  0  0
  130.4764  132.5307  158.0537 C   0  0  0  0  0  0  0  0  0  0  0  0
  130.8842  131.5652  157.0042 C   0  0  0  0  0  0  0  0  0  0  0  0
  130.9777  131.9657  155.6681 C   0  0  0  0  0  0  0  0  0  0  0  0
  131.3630  131.0269  154.7268 C   0  0  0  0  0  0  0  0  0  0  0  0
  131.6349  129.7332  155.1335 C   0  0  0  0  0  0  0  0  0  0  0  0
  131.5440  129.3860  156.4027 N   0  0  0  0  0  0  0  0  0  0  0  0
  131.1808  130.2442  157.3340 C   0  0  0  0  0  0  0  0  0  0  0  0
  130.6962  133.8694  158.0360 N   0  0  0  0  0  0  0  0  0  0  0  0
  131.1497  134.3557  157.3298 H   0  0  0  0  0  0  0  0  0  0  0  0
  131.6459  137.3172  161.4553 C   0  0  0  0  0  0  0  0  0  0  0  0
  137.6880  137.1468  164.0526 C   0  0  0  0  0  0  0  0  0  0  0  0
  138.4837  136.1985  164.6609 C   0  0  0  0  0  0  0  0  0  0  0  0
  137.2572  133.4145  163.1869 H   0  0  0  0  0  0  0  0  0  0  0  0
  135.8235  135.0907  162.0993 H   0  0  0  0  0  0  0  0  0  0  0  0
  136.1679  138.7993  162.4548 H   0  0  0  0  0  0  0  0  0  0  0  0
  134.4077  136.3651  161.9416 H   0  0  0  0  0  0  0  0  0  0  0  0
  133.7071  138.1739  160.2046 H   0  0  0  0  0  0  0  0  0  0  0  0
  134.3099  139.4118  161.3326 H   0  0  0  0  0  0  0  0  0  0  0  0
  132.4121  140.6734  161.6612 H   0  0  0  0  0  0  0  0  0  0  0  0
  130.1326  140.8624  161.2086 H   0  0  0  0  0  0  0  0  0  0  0  0
  128.9179  138.8182  160.5472 H   0  0  0  0  0  0  0  0  0  0  0  0
  129.0592  138.6658  162.3105 H   0  0  0  0  0  0  0  0  0  0  0  0
  128.5892  136.4607  160.5449 H   0  0  0  0  0  0  0  0  0  0  0  0
  129.7020  135.4139  161.4584 H   0  0  0  0  0  0  0  0  0  0  0  0
  130.6521  136.3810  158.8562 H   0  0  0  0  0  0  0  0  0  0  0  0
  129.4832  131.2538  159.5143 H   0  0  0  0  0  0  0  0  0  0  0  0
  130.7547  132.9818  155.3777 H   0  0  0  0  0  0  0  0  0  0  0  0
  131.4460  131.3006  153.6854 H   0  0  0  0  0  0  0  0  0  0  0  0
  131.9311  128.9969  154.4011 H   0  0  0  0  0  0  0  0  0  0  0  0
  131.1128  129.9211  158.3622 H   0  0  0  0  0  0  0  0  0  0  0  0
  132.1252  136.3614  161.3030 H   0  0  0  0  0  0  0  0  0  0  0  0
  137.8115  138.1922  164.2941 H   0  0  0  0  0  0  0  0  0  0  0  0
  139.2309  136.5021  165.3792 H   0  0  0  0  0  0  0  0  0  0  0  0
  1  2  1  0
  2 32  2  0
  2  3  1  0
  3  4  2  0
  3 33  1  0
  4  5  1  0
  4 34  1  0
  5  6  1  0
  5 31  2  0
  6  7  2  0
  6 35  1  0
  7  8  1  0
  7 36  1  0
  8  9  1  0
  8 37  1  0
  8 38  1  0
  9 10  1  1
  9 30  1  0
  9 11  1  0
 11 12  2  0
 11 39  1  0
 12 13  1  0
 12 40  1  0
 13 14  1  0
 13 41  1  0
 13 42  1  0
 14 15  1  0
 14 30  2  0
 15 16  1  0
 15 43  1  0
 15 44  1  0
 16 45  1  0
 17 16  1  0
 17 28  2  0
 17 18  1  0
 18 19  1  0
 18 20  1  0
 20 21  2  0
 20 46  1  0
 21 22  1  0
 21 28  1  0
 22 27  1  0
 22 23  2  0
 23 24  1  0
 23 47  1  0
 24 25  2  0
 24 48  1  0
 25 26  1  0
 25 49  1  0
 26 27  2  0
 27 50  1  0
 28 29  1  0
 30 51  1  0
 31 32  1  0
 31 52  1  0
 32 53  1  0
M  CHG  1  28   1
M  END
>  <DOCK_score>  (1) 
-56.946312

>  <SMILES>  (1) 
Fc1ccc(C=CC[C@H]2C=CCC(CNc3[nH]cc(-c4cccnc4)[nH+]3)=C2)cc1

$$$$
