CC=C(C[C@H](Nc1[nH]cc(-c2ccc(N)cc2)[nH+]1)c1ccccc1)C(F)F
     RDKit          3D

 50 52  0  0  1  0  0  0  0  0999 V2000
  133.6291  136.8819  160.9379 C   0  0  0  0  0  0  0  0  0  0  0  0
  132.2925  137.0757  160.2693 C   0  0  0  0  0  0  0  0  0  0  0  0
  131.2556  136.3793  160.6639 C   0  0  0  0  0  0  0  0  0  0  0  0
  129.9190  136.5732  159.9951 C   0  0  0  0  0  0  0  0  0  0  0  0
  129.4611  135.2504  159.3776 C   0  0  2  0  0  0  0  0  0  0  0  0
  129.3702  134.4966  160.1595 H   0  0  0  0  0  0  0  0  0  0  0  0
  130.4442  134.8087  158.3853 N   0  0  0  0  0  0  0  0  0  0  0  0
  130.2436  133.6282  157.6902 C   0  0  0  0  0  0  0  0  0  0  0  0
  129.5736  132.5389  158.1548 N   0  0  0  0  0  0  0  0  0  0  0  0
  129.1546  132.4500  159.0251 H   0  0  0  0  0  0  0  0  0  0  0  0
  129.6006  131.5872  157.1630 C   0  0  0  0  0  0  0  0  0  0  0  0
  130.2857  132.1229  156.1227 C   0  0  0  0  0  0  0  0  0  0  0  0
  130.5672  131.4570  154.8273 C   0  0  0  0  0  0  0  0  0  0  0  0
  130.0974  132.0145  153.6391 C   0  0  0  0  0  0  0  0  0  0  0  0
  130.3652  131.3969  152.4357 C   0  0  0  0  0  0  0  0  0  0  0  0
  131.0929  130.2132  152.4077 C   0  0  0  0  0  0  0  0  0  0  0  0
  131.3582  129.5858  151.1881 N   0  0  0  0  0  0  0  0  0  0  0  0
  131.5574  129.6524  153.5916 C   0  0  0  0  0  0  0  0  0  0  0  0
  131.2971  130.2697  154.7968 C   0  0  0  0  0  0  0  0  0  0  0  0
  130.6632  133.3779  156.4738 N   0  0  0  0  0  0  0  0  0  0  0  0
  131.1652  133.9912  155.9146 H   0  0  0  0  0  0  0  0  0  0  0  0
  128.1246  135.4444  158.7087 C   0  0  0  0  0  0  0  0  0  0  0  0
  126.9585  135.2447  159.4238 C   0  0  0  0  0  0  0  0  0  0  0  0
  125.7326  135.4222  158.8102 C   0  0  0  0  0  0  0  0  0  0  0  0
  125.6727  135.7979  157.4812 C   0  0  0  0  0  0  0  0  0  0  0  0
  126.8387  135.9962  156.7659 C   0  0  0  0  0  0  0  0  0  0  0  0
  128.0647  135.8192  157.3796 C   0  0  0  0  0  0  0  0  0  0  0  0
  131.3990  135.3842  161.7866 C   0  0  0  0  0  0  0  0  0  0  0  0
  130.1653  134.7695  162.0254 F   0  0  0  0  0  0  0  0  0  0  0  0
  132.3426  134.4141  161.4319 F   0  0  0  0  0  0  0  0  0  0  0  0
  134.3643  137.5424  160.4785 H   0  0  0  0  0  0  0  0  0  0  0  0
  133.5421  137.1171  161.9987 H   0  0  0  0  0  0  0  0  0  0  0  0
  133.9473  135.8460  160.8204 H   0  0  0  0  0  0  0  0  0  0  0  0
  132.1897  137.7889  159.4647 H   0  0  0  0  0  0  0  0  0  0  0  0
  130.0099  137.3272  159.2131 H   0  0  0  0  0  0  0  0  0  0  0  0
  129.1876  136.9019  160.7335 H   0  0  0  0  0  0  0  0  0  0  0  0
  131.2356  135.3431  158.2153 H   0  0  0  0  0  0  0  0  0  0  0  0
  129.1605  130.6019  157.2043 H   0  0  0  0  0  0  0  0  0  0  0  0
  129.5277  132.9318  153.6609 H   0  0  0  0  0  0  0  0  0  0  0  0
  130.0050  131.8306  151.5146 H   0  0  0  0  0  0  0  0  0  0  0  0
  131.8667  128.7603  151.1675 H   0  0  0  0  0  0  0  0  0  0  0  0
  131.0346  129.9769  150.3612 H   0  0  0  0  0  0  0  0  0  0  0  0
  132.1226  128.7323  153.5677 H   0  0  0  0  0  0  0  0  0  0  0  0
  131.6585  129.8338  155.7165 H   0  0  0  0  0  0  0  0  0  0  0  0
  127.0053  134.9514  160.4621 H   0  0  0  0  0  0  0  0  0  0  0  0
  124.8216  135.2715  159.3704 H   0  0  0  0  0  0  0  0  0  0  0  0
  124.7149  135.9361  157.0019 H   0  0  0  0  0  0  0  0  0  0  0  0
  126.7920  136.2891  155.7274 H   0  0  0  0  0  0  0  0  0  0  0  0
  128.9758  135.9735  156.8205 H   0  0  0  0  0  0  0  0  0  0  0  0
  131.7291  135.8995  162.6887 H   0  0  0  0  0  0  0  0  0  0  0  0
  1  2  1  0
  1 31  1  0
  1 32  1  0
  1 33  1  0
  2  3  2  0
  2 34  1  0
  3  4  1  0
  3 28  1  0
  4  5  1  0
  4 35  1  0
  4 36  1  0
  5  6  1  1
  5  7  1  0
  5 22  1  0
  7 37  1  0
  8  7  1  0
  8 20  2  0
  8  9  1  0
  9 10  1  0
  9 11  1  0
 11 12  2  0
 11 38  1  0
 12 13  1  0
 12 20  1  0
 13 19  1  0
 13 14  2  0
 14 15  1  0
 14 39  1  0
 15 16  2  0
 15 40  1  0
 16 17  1  0
 16 18  1  0
 17 41  1  0
 17 42  1  0
 18 19  2  0
 18 43  1  0
 19 44  1  0
 20 21  1  0
 22 27  1  0
 22 23  2  0
 23 24  1  0
 23 45  1  0
 24 25  2  0
 24 46  1  0
 25 26  1  0
 25 47  1  0
 26 27  2  0
 26 48  1  0
 27 49  1  0
 28 29  1  0
 28 30  1  0
 28 50  1  0
M  CHG  1  20   1
M  END
>  <DOCK_score>  (1) 
-62.613846

>  <SMILES>  (1) 
CC=C(C[C@H](Nc1[nH]cc(-c2ccc(N)cc2)[nH+]1)c1ccccc1)C(F)F

$$$$
