O=C1COc2cccc(C[NH2+][C@H](Cc3ccccc3)Cc3cccnc3)c2N1
     RDKit          3D

 52 55  0  0  1  0  0  0  0  0999 V2000
  131.2248  138.5065  164.4262 O   0  0  0  0  0  0  0  0  0  0  0  0
  131.8857  138.8371  163.4641 C   0  0  0  0  0  0  0  0  0  0  0  0
  132.1627  140.2955  163.2012 C   0  0  0  0  0  0  0  0  0  0  0  0
  133.4356  140.4356  162.5649 O   0  0  0  0  0  0  0  0  0  0  0  0
  133.6967  139.5957  161.5278 C   0  0  0  0  0  0  0  0  0  0  0  0
  134.4804  140.0089  160.4647 C   0  0  0  0  0  0  0  0  0  0  0  0
  134.7339  139.1414  159.4176 C   0  0  0  0  0  0  0  0  0  0  0  0
  134.2071  137.8630  159.4287 C   0  0  0  0  0  0  0  0  0  0  0  0
  133.4237  137.4426  160.4879 C   0  0  0  0  0  0  0  0  0  0  0  0
  132.8507  136.0488  160.4976 C   0  0  0  0  0  0  0  0  0  0  0  0
  131.5336  136.0563  159.8470 N   0  0  0  0  0  0  0  0  0  0  0  0
  131.6310  136.3732  158.8940 H   0  0  0  0  0  0  0  0  0  0  0  0
  130.9153  136.6776  160.3465 H   0  0  0  0  0  0  0  0  0  0  0  0
  130.9751  134.6976  159.8565 C   0  0  2  0  0  0  0  0  0  0  0  0
  131.1928  134.2220  160.8128 H   0  0  0  0  0  0  0  0  0  0  0  0
  131.6030  133.8803  158.7256 C   0  0  0  0  0  0  0  0  0  0  0  0
  131.0302  132.4864  158.7355 C   0  0  0  0  0  0  0  0  0  0  0  0
  131.6431  131.4924  159.4750 C   0  0  0  0  0  0  0  0  0  0  0  0
  131.1149  130.2150  159.4878 C   0  0  0  0  0  0  0  0  0  0  0  0
  129.9797  129.9292  158.7525 C   0  0  0  0  0  0  0  0  0  0  0  0
  129.3697  130.9219  158.0087 C   0  0  0  0  0  0  0  0  0  0  0  0
  129.8950  132.2005  158.0001 C   0  0  0  0  0  0  0  0  0  0  0  0
  129.4601  134.7677  159.6547 C   0  0  0  0  0  0  0  0  0  0  0  0
  128.8417  135.5729  160.7684 C   0  0  0  0  0  0  0  0  0  0  0  0
  129.4249  135.5948  162.0263 C   0  0  0  0  0  0  0  0  0  0  0  0
  128.8212  136.3492  163.0204 C   0  0  0  0  0  0  0  0  0  0  0  0
  127.6661  137.0494  162.7268 C   0  0  0  0  0  0  0  0  0  0  0  0
  127.1393  137.0053  161.5189 N   0  0  0  0  0  0  0  0  0  0  0  0
  127.6894  136.3029  160.5476 C   0  0  0  0  0  0  0  0  0  0  0  0
  133.1624  138.3082  161.5372 C   0  0  0  0  0  0  0  0  0  0  0  0
  132.3759  137.9000  162.6239 N   0  0  0  0  0  0  0  0  0  0  0  0
  132.1671  140.8399  164.1454 H   0  0  0  0  0  0  0  0  0  0  0  0
  131.3862  140.7005  162.5524 H   0  0  0  0  0  0  0  0  0  0  0  0
  134.8929  141.0070  160.4526 H   0  0  0  0  0  0  0  0  0  0  0  0
  135.3454  139.4641  158.5880 H   0  0  0  0  0  0  0  0  0  0  0  0
  134.4082  137.1906  158.6078 H   0  0  0  0  0  0  0  0  0  0  0  0
  132.7456  135.7063  161.5271 H   0  0  0  0  0  0  0  0  0  0  0  0
  133.5188  135.3777  159.9577 H   0  0  0  0  0  0  0  0  0  0  0  0
  131.3852  134.3560  157.7693 H   0  0  0  0  0  0  0  0  0  0  0  0
  132.6823  133.8305  158.8693 H   0  0  0  0  0  0  0  0  0  0  0  0
  132.5325  131.7146  160.0459 H   0  0  0  0  0  0  0  0  0  0  0  0
  131.5916  129.4393  160.0685 H   0  0  0  0  0  0  0  0  0  0  0  0
  129.5695  128.9301  158.7589 H   0  0  0  0  0  0  0  0  0  0  0  0
  128.4831  130.6984  157.4340 H   0  0  0  0  0  0  0  0  0  0  0  0
  129.4186  132.9761  157.4187 H   0  0  0  0  0  0  0  0  0  0  0  0
  129.2425  135.2432  158.6984 H   0  0  0  0  0  0  0  0  0  0  0  0
  129.0457  133.7595  159.6619 H   0  0  0  0  0  0  0  0  0  0  0  0
  130.3279  135.0372  162.2269 H   0  0  0  0  0  0  0  0  0  0  0  0
  129.2482  136.3896  164.0116 H   0  0  0  0  0  0  0  0  0  0  0  0
  127.1895  137.6392  163.4958 H   0  0  0  0  0  0  0  0  0  0  0  0
  127.2318  136.2949  159.5694 H   0  0  0  0  0  0  0  0  0  0  0  0
  132.1840  136.9601  162.7683 H   0  0  0  0  0  0  0  0  0  0  0  0
  1  2  2  0
  2 31  1  0
  2  3  1  0
  3  4  1  0
  3 32  1  0
  3 33  1  0
  4  5  1  0
  5 30  2  0
  5  6  1  0
  6  7  2  0
  6 34  1  0
  7  8  1  0
  7 35  1  0
  8  9  2  0
  8 36  1  0
  9 10  1  0
  9 30  1  0
 10 11  1  0
 10 37  1  0
 10 38  1  0
 11 12  1  0
 11 13  1  0
 11 14  1  0
 14 15  1  1
 14 16  1  0
 14 23  1  0
 16 17  1  0
 16 39  1  0
 16 40  1  0
 17 22  1  0
 17 18  2  0
 18 19  1  0
 18 41  1  0
 19 20  2  0
 19 42  1  0
 20 21  1  0
 20 43  1  0
 21 22  2  0
 21 44  1  0
 22 45  1  0
 23 24  1  0
 23 46  1  0
 23 47  1  0
 24 29  1  0
 24 25  2  0
 25 26  1  0
 25 48  1  0
 26 27  2  0
 26 49  1  0
 27 28  1  0
 27 50  1  0
 28 29  2  0
 29 51  1  0
 30 31  1  0
 31 52  1  0
M  CHG  1  11   1
M  END
>  <DOCK_score>  (1) 
-42.750168

>  <SMILES>  (1) 
O=C1COc2cccc(C[NH2+][C@H](Cc3ccccc3)Cc3cccnc3)c2N1

$$$$
