Cc1ccc(-c2c[nH]c(NC3(c4ccccc4Br)CCCCC3)[nH+]2)cc1
     RDKit          3D

 51 54  0  0  1  0  0  0  0  0999 V2000
  131.2229  129.7976  151.7047 C   0  0  0  0  0  0  0  0  0  0  0  0
  131.0131  130.4652  153.0394 C   0  0  0  0  0  0  0  0  0  0  0  0
  130.6662  131.8033  153.0935 C   0  0  0  0  0  0  0  0  0  0  0  0
  130.4728  132.4199  154.3129 C   0  0  0  0  0  0  0  0  0  0  0  0
  130.6279  131.6919  155.4913 C   0  0  0  0  0  0  0  0  0  0  0  0
  130.4213  132.3490  156.8049 C   0  0  0  0  0  0  0  0  0  0  0  0
  129.9785  131.7479  157.9370 C   0  0  0  0  0  0  0  0  0  0  0  0
  129.9391  132.7145  158.9124 N   0  0  0  0  0  0  0  0  0  0  0  0
  129.6657  132.5894  159.8346 H   0  0  0  0  0  0  0  0  0  0  0  0
  130.3517  133.8808  158.3451 C   0  0  0  0  0  0  0  0  0  0  0  0
  130.4538  135.1003  158.9923 N   0  0  0  0  0  0  0  0  0  0  0  0
  129.5570  135.4154  160.1070 C   0  0  0  0  0  0  0  0  0  0  0  0
  128.2424  134.7054  159.9103 C   0  0  0  0  0  0  0  0  0  0  0  0
  127.7987  133.7982  160.8542 C   0  0  0  0  0  0  0  0  0  0  0  0
  126.5902  133.1512  160.6767 C   0  0  0  0  0  0  0  0  0  0  0  0
  125.8302  133.4025  159.5495 C   0  0  0  0  0  0  0  0  0  0  0  0
  126.2756  134.3050  158.6024 C   0  0  0  0  0  0  0  0  0  0  0  0
  127.4824  134.9570  158.7825 C   0  0  0  0  0  0  0  0  0  0  0  0
  128.0923  136.1925  157.4874 Br  0  0  0  0  0  0  0  0  0  0  0  0
  130.1939  134.9550  161.4197 C   0  0  0  0  0  0  0  0  0  0  0  0
  131.5285  135.6759  161.6196 C   0  0  0  0  0  0  0  0  0  0  0  0
  131.2898  137.1862  161.6707 C   0  0  0  0  0  0  0  0  0  0  0  0
  130.6529  137.6467  160.3580 C   0  0  0  0  0  0  0  0  0  0  0  0
  129.3183  136.9258  160.1582 C   0  0  0  0  0  0  0  0  0  0  0  0
  130.6418  133.6577  157.0866 N   0  0  0  0  0  0  0  0  0  0  0  0
  130.9630  134.3222  156.4572 H   0  0  0  0  0  0  0  0  0  0  0  0
  130.9835  130.3457  155.4308 C   0  0  0  0  0  0  0  0  0  0  0  0
  131.1684  129.7378  154.2057 C   0  0  0  0  0  0  0  0  0  0  0  0
  132.2682  129.8934  151.4109 H   0  0  0  0  0  0  0  0  0  0  0  0
  130.9623  128.7421  151.7815 H   0  0  0  0  0  0  0  0  0  0  0  0
  130.5901  130.2747  150.9564 H   0  0  0  0  0  0  0  0  0  0  0  0
  130.5462  132.3664  152.1797 H   0  0  0  0  0  0  0  0  0  0  0  0
  130.2019  133.4646  154.3540 H   0  0  0  0  0  0  0  0  0  0  0  0
  129.7114  130.7077  158.0510 H   0  0  0  0  0  0  0  0  0  0  0  0
  131.1193  135.7462  158.7076 H   0  0  0  0  0  0  0  0  0  0  0  0
  128.3944  133.5981  161.7326 H   0  0  0  0  0  0  0  0  0  0  0  0
  126.2419  132.4456  161.4164 H   0  0  0  0  0  0  0  0  0  0  0  0
  124.8878  132.8937  159.4091 H   0  0  0  0  0  0  0  0  0  0  0  0
  125.6817  134.5014  157.7221 H   0  0  0  0  0  0  0  0  0  0  0  0
  129.5267  135.1894  162.2493 H   0  0  0  0  0  0  0  0  0  0  0  0
  130.3641  133.8790  161.3833 H   0  0  0  0  0  0  0  0  0  0  0  0
  132.1959  135.4414  160.7901 H   0  0  0  0  0  0  0  0  0  0  0  0
  131.9822  135.3479  162.5547 H   0  0  0  0  0  0  0  0  0  0  0  0
  132.2406  137.6998  161.8131 H   0  0  0  0  0  0  0  0  0  0  0  0
  130.6224  137.4206  162.5001 H   0  0  0  0  0  0  0  0  0  0  0  0
  131.3202  137.4123  159.5287 H   0  0  0  0  0  0  0  0  0  0  0  0
  130.4827  138.7227  160.3945 H   0  0  0  0  0  0  0  0  0  0  0  0
  128.8645  137.2538  159.2230 H   0  0  0  0  0  0  0  0  0  0  0  0
  128.6509  137.1602  160.9876 H   0  0  0  0  0  0  0  0  0  0  0  0
  131.1098  129.7780  156.3409 H   0  0  0  0  0  0  0  0  0  0  0  0
  131.4393  128.6935  154.1575 H   0  0  0  0  0  0  0  0  0  0  0  0
  1  2  1  0
  1 29  1  0
  1 30  1  0
  1 31  1  0
  2 28  2  0
  2  3  1  0
  3  4  2  0
  3 32  1  0
  4  5  1  0
  4 33  1  0
  5  6  1  0
  5 27  2  0
  6 25  1  0
  6  7  2  0
  7  8  1  0
  7 34  1  0
  8  9  1  0
  8 10  1  0
 10 11  1  0
 10 25  2  0
 11 12  1  0
 11 35  1  0
 12 24  1  0
 12 13  1  0
 12 20  1  0
 13 18  1  0
 13 14  2  0
 14 15  1  0
 14 36  1  0
 15 16  2  0
 15 37  1  0
 16 17  1  0
 16 38  1  0
 17 18  2  0
 17 39  1  0
 18 19  1  0
 20 21  1  0
 20 40  1  0
 20 41  1  0
 21 22  1  0
 21 42  1  0
 21 43  1  0
 22 23  1  0
 22 44  1  0
 22 45  1  0
 23 24  1  0
 23 46  1  0
 23 47  1  0
 24 48  1  0
 24 49  1  0
 25 26  1  0
 27 28  1  0
 27 50  1  0
 28 51  1  0
M  CHG  1  25   1
M  END
>  <DOCK_score>  (1) 
-59.883602

>  <SMILES>  (1) 
Cc1ccc(-c2c[nH]c(NC3(c4ccccc4Br)CCCCC3)[nH+]2)cc1

$$$$
