CC1=CC(=O)C(=CC[C@H](Nc2[nH]cc(-c3ccc(N)cc3)[nH+]2)c2ccccc2)C1
     RDKit          3D

 54 57  0  0  1  0  0  0  0  0999 V2000
  136.0417  136.6799  163.6346 C   0  0  0  0  0  0  0  0  0  0  0  0
  134.6254  136.6614  163.1200 C   0  0  0  0  0  0  0  0  0  0  0  0
  133.5669  136.2765  163.8164 C   0  0  0  0  0  0  0  0  0  0  0  0
  132.3360  136.3848  163.0255 C   0  0  0  0  0  0  0  0  0  0  0  0
  131.2141  136.1066  163.4057 O   0  0  0  0  0  0  0  0  0  0  0  0
  132.6988  136.8881  161.6865 C   0  0  0  0  0  0  0  0  0  0  0  0
  131.8831  137.1278  160.6618 C   0  0  0  0  0  0  0  0  0  0  0  0
  130.4038  136.8761  160.8013 C   0  0  0  0  0  0  0  0  0  0  0  0
  130.0897  135.4382  160.3834 C   0  0  2  0  0  0  0  0  0  0  0  0
  130.6380  134.7461  161.0226 H   0  0  0  0  0  0  0  0  0  0  0  0
  130.4900  135.2364  158.9887 N   0  0  0  0  0  0  0  0  0  0  0  0
  130.3022  134.0042  158.3860 C   0  0  0  0  0  0  0  0  0  0  0  0
  129.7536  132.9082  158.9771 N   0  0  0  0  0  0  0  0  0  0  0  0
  129.4270  132.8498  159.8886 H   0  0  0  0  0  0  0  0  0  0  0  0
  129.7486  131.8987  158.0438 C   0  0  0  0  0  0  0  0  0  0  0  0
  130.2935  132.4075  156.9113 C   0  0  0  0  0  0  0  0  0  0  0  0
  130.4943  131.6781  155.6352 C   0  0  0  0  0  0  0  0  0  0  0  0
  129.8767  132.1281  154.4693 C   0  0  0  0  0  0  0  0  0  0  0  0
  130.0689  131.4516  153.2832 C   0  0  0  0  0  0  0  0  0  0  0  0
  130.8684  130.3157  153.2516 C   0  0  0  0  0  0  0  0  0  0  0  0
  131.0569  129.6289  152.0499 N   0  0  0  0  0  0  0  0  0  0  0  0
  131.4812  129.8617  154.4141 C   0  0  0  0  0  0  0  0  0  0  0  0
  131.2964  130.5383  155.6013 C   0  0  0  0  0  0  0  0  0  0  0  0
  130.6182  133.7028  157.1501 N   0  0  0  0  0  0  0  0  0  0  0  0
  131.0220  134.3086  156.5091 H   0  0  0  0  0  0  0  0  0  0  0  0
  128.6105  135.1863  160.5230 C   0  0  0  0  0  0  0  0  0  0  0  0
  128.1013  134.7007  161.7131 C   0  0  0  0  0  0  0  0  0  0  0  0
  126.7439  134.4738  161.8425 C   0  0  0  0  0  0  0  0  0  0  0  0
  125.8968  134.7237  160.7791 C   0  0  0  0  0  0  0  0  0  0  0  0
  126.4066  135.2042  159.5874 C   0  0  0  0  0  0  0  0  0  0  0  0
  127.7634  135.4352  159.4594 C   0  0  0  0  0  0  0  0  0  0  0  0
  134.2001  137.0785  161.7345 C   0  0  0  0  0  0  0  0  0  0  0  0
  136.2505  137.6482  164.0895 H   0  0  0  0  0  0  0  0  0  0  0  0
  136.1682  135.8938  164.3790 H   0  0  0  0  0  0  0  0  0  0  0  0
  136.7312  136.5111  162.8071 H   0  0  0  0  0  0  0  0  0  0  0  0
  133.6043  135.9310  164.8389 H   0  0  0  0  0  0  0  0  0  0  0  0
  132.2816  137.5029  159.7307 H   0  0  0  0  0  0  0  0  0  0  0  0
  129.8556  137.5682  160.1621 H   0  0  0  0  0  0  0  0  0  0  0  0
  130.1059  137.0262  161.8389 H   0  0  0  0  0  0  0  0  0  0  0  0
  130.8828  135.9673  158.4863 H   0  0  0  0  0  0  0  0  0  0  0  0
  129.3809  130.8931  158.1857 H   0  0  0  0  0  0  0  0  0  0  0  0
  129.2513  133.0083  154.4942 H   0  0  0  0  0  0  0  0  0  0  0  0
  129.5941  131.8024  152.3788 H   0  0  0  0  0  0  0  0  0  0  0  0
  131.6154  128.8352  152.0275 H   0  0  0  0  0  0  0  0  0  0  0  0
  130.6301  129.9441  151.2387 H   0  0  0  0  0  0  0  0  0  0  0  0
  132.1021  128.9784  154.3874 H   0  0  0  0  0  0  0  0  0  0  0  0
  131.7729  130.1858  156.5040 H   0  0  0  0  0  0  0  0  0  0  0  0
  128.7636  134.5020  162.5426 H   0  0  0  0  0  0  0  0  0  0  0  0
  126.3455  134.0987  162.7737 H   0  0  0  0  0  0  0  0  0  0  0  0
  124.8366  134.5438  160.8795 H   0  0  0  0  0  0  0  0  0  0  0  0
  125.7447  135.3996  158.7566 H   0  0  0  0  0  0  0  0  0  0  0  0
  128.1617  135.8108  158.5283 H   0  0  0  0  0  0  0  0  0  0  0  0
  134.6829  136.4482  160.9875 H   0  0  0  0  0  0  0  0  0  0  0  0
  134.4518  138.1249  161.5619 H   0  0  0  0  0  0  0  0  0  0  0  0
  1  2  1  0
  1 33  1  0
  1 34  1  0
  1 35  1  0
  2 32  1  0
  2  3  2  0
  3  4  1  0
  3 36  1  0
  4  5  2  0
  4  6  1  0
  6  7  2  0
  6 32  1  0
  7  8  1  0
  7 37  1  0
  8  9  1  0
  8 38  1  0
  8 39  1  0
  9 10  1  1
  9 11  1  0
  9 26  1  0
 11 40  1  0
 12 11  1  0
 12 24  2  0
 12 13  1  0
 13 14  1  0
 13 15  1  0
 15 16  2  0
 15 41  1  0
 16 17  1  0
 16 24  1  0
 17 23  1  0
 17 18  2  0
 18 19  1  0
 18 42  1  0
 19 20  2  0
 19 43  1  0
 20 21  1  0
 20 22  1  0
 21 44  1  0
 21 45  1  0
 22 23  2  0
 22 46  1  0
 23 47  1  0
 24 25  1  0
 26 31  1  0
 26 27  2  0
 27 28  1  0
 27 48  1  0
 28 29  2  0
 28 49  1  0
 29 30  1  0
 29 50  1  0
 30 31  2  0
 30 51  1  0
 31 52  1  0
 32 53  1  0
 32 54  1  0
M  CHG  1  24   1
M  END
>  <DOCK_score>  (1) 
-56.331181

>  <SMILES>  (1) 
CC1=CC(=O)C(=CC[C@H](Nc2[nH]cc(-c3ccc(N)cc3)[nH+]2)c2ccccc2)C1

$$$$
