Cc1cccc(N2CC[NH+](C(c3ccccc3)c3ccccc3)CC2)c1NCC1=CCOCC1
     RDKit          3D

 70 74  0  0  1  0  0  0  0  0999 V2000
  135.9204  141.4735  162.3193 C   0  0  0  0  0  0  0  0  0  0  0  0
  135.3072  140.6558  161.2119 C   0  0  0  0  0  0  0  0  0  0  0  0
  135.7032  140.8578  159.9023 C   0  0  0  0  0  0  0  0  0  0  0  0
  135.1475  140.1061  158.8842 C   0  0  0  0  0  0  0  0  0  0  0  0
  134.1839  139.1554  159.1680 C   0  0  0  0  0  0  0  0  0  0  0  0
  133.7768  138.9503  160.4770 C   0  0  0  0  0  0  0  0  0  0  0  0
  132.8017  137.9882  160.7666 N   0  0  0  0  0  0  0  0  0  0  0  0
  133.2749  136.6393  160.4251 C   0  0  0  0  0  0  0  0  0  0  0  0
  132.2065  135.6141  160.8111 C   0  0  0  0  0  0  0  0  0  0  0  0
  130.9604  135.9110  160.0920 N   0  0  0  0  0  0  0  0  0  0  0  0
  131.1297  135.8768  159.0979 H   0  0  0  0  0  0  0  0  0  0  0  0
  129.9404  134.9160  160.4490 C   0  0  0  0  0  0  0  0  0  0  0  0
  128.6620  135.2204  159.7114 C   0  0  0  0  0  0  0  0  0  0  0  0
  127.4439  134.8827  160.2713 C   0  0  0  0  0  0  0  0  0  0  0  0
  126.2711  135.1662  159.5969 C   0  0  0  0  0  0  0  0  0  0  0  0
  126.3166  135.7781  158.3582 C   0  0  0  0  0  0  0  0  0  0  0  0
  127.5348  136.1110  157.7960 C   0  0  0  0  0  0  0  0  0  0  0  0
  128.7075  135.8322  158.4727 C   0  0  0  0  0  0  0  0  0  0  0  0
  130.4250  133.5409  160.0680 C   0  0  0  0  0  0  0  0  0  0  0  0
  130.0198  132.4386  160.7972 C   0  0  0  0  0  0  0  0  0  0  0  0
  130.4606  131.1767  160.4447 C   0  0  0  0  0  0  0  0  0  0  0  0
  131.3149  131.0182  159.3695 C   0  0  0  0  0  0  0  0  0  0  0  0
  131.7243  132.1210  158.6436 C   0  0  0  0  0  0  0  0  0  0  0  0
  131.2793  133.3824  158.9927 C   0  0  0  0  0  0  0  0  0  0  0  0
  130.4872  137.2514  160.4621 C   0  0  0  0  0  0  0  0  0  0  0  0
  131.5415  138.2901  160.0733 C   0  0  0  0  0  0  0  0  0  0  0  0
  134.3419  139.7052  161.5052 C   0  0  0  0  0  0  0  0  0  0  0  0
  133.9355  139.5027  162.8298 N   0  0  0  0  0  0  0  0  0  0  0  0
  132.8030  140.3735  163.1719 C   0  0  0  0  0  0  0  0  0  0  0  0
  132.8495  140.7043  164.6414 C   0  0  0  0  0  0  0  0  0  0  0  0
  131.9244  141.4696  165.1395 C   0  0  0  0  0  0  0  0  0  0  0  0
  131.8831  141.8606  166.5894 C   0  0  0  0  0  0  0  0  0  0  0  0
  132.7485  141.0175  167.3525 O   0  0  0  0  0  0  0  0  0  0  0  0
  134.0641  140.9125  166.7938 C   0  0  0  0  0  0  0  0  0  0  0  0
  133.9680  140.1414  165.4743 C   0  0  0  0  0  0  0  0  0  0  0  0
  136.7468  140.9199  162.7648 H   0  0  0  0  0  0  0  0  0  0  0  0
  135.1672  141.6773  163.0803 H   0  0  0  0  0  0  0  0  0  0  0  0
  136.2907  142.4151  161.9134 H   0  0  0  0  0  0  0  0  0  0  0  0
  136.4519  141.6022  159.6749 H   0  0  0  0  0  0  0  0  0  0  0  0
  135.4635  140.2645  157.8637 H   0  0  0  0  0  0  0  0  0  0  0  0
  133.7482  138.5730  158.3694 H   0  0  0  0  0  0  0  0  0  0  0  0
  133.4648  136.5809  159.3533 H   0  0  0  0  0  0  0  0  0  0  0  0
  134.1952  136.4280  160.9698 H   0  0  0  0  0  0  0  0  0  0  0  0
  132.0268  135.6634  161.8849 H   0  0  0  0  0  0  0  0  0  0  0  0
  132.5496  134.6141  160.5456 H   0  0  0  0  0  0  0  0  0  0  0  0
  129.7577  134.9522  161.5230 H   0  0  0  0  0  0  0  0  0  0  0  0
  127.4086  134.4007  161.2370 H   0  0  0  0  0  0  0  0  0  0  0  0
  125.3193  134.9058  160.0358 H   0  0  0  0  0  0  0  0  0  0  0  0
  125.4004  135.9955  157.8293 H   0  0  0  0  0  0  0  0  0  0  0  0
  127.5704  136.5886  156.8280 H   0  0  0  0  0  0  0  0  0  0  0  0
  129.6593  136.0919  158.0334 H   0  0  0  0  0  0  0  0  0  0  0  0
  129.3559  132.5629  161.6400 H   0  0  0  0  0  0  0  0  0  0  0  0
  130.1411  130.3151  161.0122 H   0  0  0  0  0  0  0  0  0  0  0  0
  131.6628  130.0329  159.0970 H   0  0  0  0  0  0  0  0  0  0  0  0
  132.3920  131.9973  157.8038 H   0  0  0  0  0  0  0  0  0  0  0  0
  131.5993  134.2441  158.4258 H   0  0  0  0  0  0  0  0  0  0  0  0
  130.3163  137.2923  161.5378 H   0  0  0  0  0  0  0  0  0  0  0  0
  129.5558  137.4654  159.9379 H   0  0  0  0  0  0  0  0  0  0  0  0
  131.1970  139.2834  160.3612 H   0  0  0  0  0  0  0  0  0  0  0  0
  131.7026  138.2591  158.9957 H   0  0  0  0  0  0  0  0  0  0  0  0
  133.7089  138.5333  162.9944 H   0  0  0  0  0  0  0  0  0  0  0  0
  132.8632  141.2933  162.5903 H   0  0  0  0  0  0  0  0  0  0  0  0
  131.8685  139.8604  162.9444 H   0  0  0  0  0  0  0  0  0  0  0  0
  131.1494  141.8372  164.4832 H   0  0  0  0  0  0  0  0  0  0  0  0
  130.8636  141.7650  166.9632 H   0  0  0  0  0  0  0  0  0  0  0  0
  132.2083  142.8962  166.6881 H   0  0  0  0  0  0  0  0  0  0  0  0
  134.7148  140.3772  167.4852 H   0  0  0  0  0  0  0  0  0  0  0  0
  134.4647  141.9091  166.6084 H   0  0  0  0  0  0  0  0  0  0  0  0
  133.7721  139.0896  165.6821 H   0  0  0  0  0  0  0  0  0  0  0  0
  134.9080  140.2346  164.9303 H   0  0  0  0  0  0  0  0  0  0  0  0
  1  2  1  0
  1 36  1  0
  1 37  1  0
  1 38  1  0
  2 27  2  0
  2  3  1  0
  3  4  2  0
  3 39  1  0
  4  5  1  0
  4 40  1  0
  5  6  2  0
  5 41  1  0
  6  7  1  0
  6 27  1  0
  7 26  1  0
  7  8  1  0
  8  9  1  0
  8 42  1  0
  8 43  1  0
  9 10  1  0
  9 44  1  0
  9 45  1  0
 10 11  1  0
 10 12  1  0
 10 25  1  0
 12 13  1  0
 12 19  1  0
 12 46  1  0
 13 18  1  0
 13 14  2  0
 14 15  1  0
 14 47  1  0
 15 16  2  0
 15 48  1  0
 16 17  1  0
 16 49  1  0
 17 18  2  0
 17 50  1  0
 18 51  1  0
 19 24  1  0
 19 20  2  0
 20 21  1  0
 20 52  1  0
 21 22  2  0
 21 53  1  0
 22 23  1  0
 22 54  1  0
 23 24  2  0
 23 55  1  0
 24 56  1  0
 25 26  1  0
 25 57  1  0
 25 58  1  0
 26 59  1  0
 26 60  1  0
 27 28  1  0
 28 29  1  0
 28 61  1  0
 29 30  1  0
 29 62  1  0
 29 63  1  0
 30 35  1  0
 30 31  2  0
 31 32  1  0
 31 64  1  0
 32 33  1  0
 32 65  1  0
 32 66  1  0
 33 34  1  0
 34 35  1  0
 34 67  1  0
 34 68  1  0
 35 69  1  0
 35 70  1  0
M  CHG  1  10   1
M  END
>  <DOCK_score>  (1) 
-56.099293

>  <SMILES>  (1) 
Cc1cccc(N2CC[NH+](C(c3ccccc3)c3ccccc3)CC2)c1NCC1=CCOCC1

$$$$
