O[C@H]1CC=C(c2c[nH]c(Nc3ccc(Nc4ccccc4)cc3)[nH+]2)C1
     RDKit          3D

 46 49  0  0  1  0  0  0  0  0999 V2000
  131.3536  130.7719  152.0454 O   0  0  0  0  0  0  0  0  0  0  0  0
  130.5950  130.6033  153.2447 C   0  0  1  0  0  0  0  0  0  0  0  0
  129.5792  130.2788  153.0194 H   0  0  0  0  0  0  0  0  0  0  0  0
  131.2926  129.6146  154.2068 C   0  0  0  0  0  0  0  0  0  0  0  0
  131.0416  130.1746  155.5876 C   0  0  0  0  0  0  0  0  0  0  0  0
  130.6483  131.4355  155.5192 C   0  0  0  0  0  0  0  0  0  0  0  0
  130.3184  132.2758  156.6885 C   0  0  0  0  0  0  0  0  0  0  0  0
  129.8166  131.8376  157.8727 C   0  0  0  0  0  0  0  0  0  0  0  0
  129.6547  132.9433  158.6699 N   0  0  0  0  0  0  0  0  0  0  0  0
  129.3105  132.9520  159.5767 H   0  0  0  0  0  0  0  0  0  0  0  0
  130.0667  134.0255  157.9537 C   0  0  0  0  0  0  0  0  0  0  0  0
  130.0650  135.3362  158.4008 N   0  0  0  0  0  0  0  0  0  0  0  0
  129.1100  135.7561  159.3347 C   0  0  0  0  0  0  0  0  0  0  0  0
  129.4182  136.7663  160.2368 C   0  0  0  0  0  0  0  0  0  0  0  0
  128.4749  137.1837  161.1544 C   0  0  0  0  0  0  0  0  0  0  0  0
  127.2214  136.5861  161.1826 C   0  0  0  0  0  0  0  0  0  0  0  0
  126.2669  137.0056  162.1164 N   0  0  0  0  0  0  0  0  0  0  0  0
  126.6745  137.5059  163.3554 C   0  0  0  0  0  0  0  0  0  0  0  0
  126.3400  138.8022  163.7268 C   0  0  0  0  0  0  0  0  0  0  0  0
  126.7405  139.2920  164.9544 C   0  0  0  0  0  0  0  0  0  0  0  0
  127.4820  138.4972  165.8093 C   0  0  0  0  0  0  0  0  0  0  0  0
  127.8212  137.2083  165.4404 C   0  0  0  0  0  0  0  0  0  0  0  0
  127.4200  136.7104  164.2164 C   0  0  0  0  0  0  0  0  0  0  0  0
  126.9150  135.5723  160.2839 C   0  0  0  0  0  0  0  0  0  0  0  0
  127.8563  135.1588  159.3626 C   0  0  0  0  0  0  0  0  0  0  0  0
  130.4655  133.6229  156.7720 N   0  0  0  0  0  0  0  0  0  0  0  0
  130.8071  134.1962  156.0680 H   0  0  0  0  0  0  0  0  0  0  0  0
  130.5883  131.9021  154.0831 C   0  0  0  0  0  0  0  0  0  0  0  0
  131.0202  131.4688  151.4638 H   0  0  0  0  0  0  0  0  0  0  0  0
  130.8548  128.6208  154.1126 H   0  0  0  0  0  0  0  0  0  0  0  0
  132.3627  129.5778  154.0028 H   0  0  0  0  0  0  0  0  0  0  0  0
  131.1651  129.6199  156.5061 H   0  0  0  0  0  0  0  0  0  0  0  0
  129.5857  130.8158  158.1350 H   0  0  0  0  0  0  0  0  0  0  0  0
  130.7256  135.9633  158.0670 H   0  0  0  0  0  0  0  0  0  0  0  0
  130.3944  137.2277  160.2180 H   0  0  0  0  0  0  0  0  0  0  0  0
  128.7132  137.9720  161.8532 H   0  0  0  0  0  0  0  0  0  0  0  0
  125.3222  136.9488  161.9034 H   0  0  0  0  0  0  0  0  0  0  0  0
  125.7643  139.4249  163.0580 H   0  0  0  0  0  0  0  0  0  0  0  0
  126.4776  140.2982  165.2455 H   0  0  0  0  0  0  0  0  0  0  0  0
  127.7974  138.8841  166.7670 H   0  0  0  0  0  0  0  0  0  0  0  0
  128.4008  136.5903  166.1104 H   0  0  0  0  0  0  0  0  0  0  0  0
  127.6857  135.7039  163.9287 H   0  0  0  0  0  0  0  0  0  0  0  0
  125.9402  135.1077  160.3056 H   0  0  0  0  0  0  0  0  0  0  0  0
  127.6182  134.3706  158.6638 H   0  0  0  0  0  0  0  0  0  0  0  0
  129.6716  132.4641  153.9048 H   0  0  0  0  0  0  0  0  0  0  0  0
  131.4593  132.5131  153.8461 H   0  0  0  0  0  0  0  0  0  0  0  0
  1  2  1  0
  1 29  1  0
  2  3  1  6
  2 28  1  0
  2  4  1  0
  4  5  1  0
  4 30  1  0
  4 31  1  0
  5  6  2  0
  5 32  1  0
  6  7  1  0
  6 28  1  0
  7 26  1  0
  7  8  2  0
  8  9  1  0
  8 33  1  0
  9 10  1  0
  9 11  1  0
 11 12  1  0
 11 26  2  0
 12 13  1  0
 12 34  1  0
 13 25  1  0
 13 14  2  0
 14 15  1  0
 14 35  1  0
 15 16  2  0
 15 36  1  0
 16 17  1  0
 16 24  1  0
 17 18  1  0
 17 37  1  0
 18 23  1  0
 18 19  2  0
 19 20  1  0
 19 38  1  0
 20 21  2  0
 20 39  1  0
 21 22  1  0
 21 40  1  0
 22 23  2  0
 22 41  1  0
 23 42  1  0
 24 25  2  0
 24 43  1  0
 25 44  1  0
 26 27  1  0
 28 45  1  0
 28 46  1  0
M  CHG  1  26   1
M  END
>  <DOCK_score>  (1) 
-49.532509

>  <SMILES>  (1) 
O[C@H]1CC=C(c2c[nH]c(Nc3ccc(Nc4ccccc4)cc3)[nH+]2)C1

$$$$
