C[C@@H](CCc1ccccc1)[C@H](Nc1[nH]cc(-c2ccc(N)cc2)[nH+]1)c1ccnn1C
     RDKit          3D

 59 62  0  0  1  0  0  0  0  0999 V2000
  129.9656  137.0905  162.2455 C   0  0  0  0  0  0  0  0  0  0  0  0
  130.3798  136.8630  160.7904 C   0  0  1  0  0  0  0  0  0  0  0  0
  129.8248  137.5429  160.1440 H   0  0  0  0  0  0  0  0  0  0  0  0
  131.8794  137.1267  160.6398 C   0  0  0  0  0  0  0  0  0  0  0  0
  132.1251  138.6338  160.5439 C   0  0  0  0  0  0  0  0  0  0  0  0
  133.6021  138.8934  160.3956 C   0  0  0  0  0  0  0  0  0  0  0  0
  134.3878  139.0764  161.5181 C   0  0  0  0  0  0  0  0  0  0  0  0
  135.7436  139.3097  161.3823 C   0  0  0  0  0  0  0  0  0  0  0  0
  136.3118  139.3708  160.1236 C   0  0  0  0  0  0  0  0  0  0  0  0
  135.5250  139.1931  159.0009 C   0  0  0  0  0  0  0  0  0  0  0  0
  134.1703  138.9545  159.1369 C   0  0  0  0  0  0  0  0  0  0  0  0
  130.0738  135.4176  160.3929 C   0  0  2  0  0  0  0  0  0  0  0  0
  130.6289  134.7377  161.0391 H   0  0  0  0  0  0  0  0  0  0  0  0
  130.4704  135.2000  158.9995 N   0  0  0  0  0  0  0  0  0  0  0  0
  130.2887  133.9588  158.4138 C   0  0  0  0  0  0  0  0  0  0  0  0
  129.7497  132.8671  159.0213 N   0  0  0  0  0  0  0  0  0  0  0  0
  129.4266  132.8186  159.9348 H   0  0  0  0  0  0  0  0  0  0  0  0
  129.7478  131.8452  158.1015 C   0  0  0  0  0  0  0  0  0  0  0  0
  130.2854  132.3425  156.9604 C   0  0  0  0  0  0  0  0  0  0  0  0
  130.4865  131.5977  155.6933 C   0  0  0  0  0  0  0  0  0  0  0  0
  129.8617  132.0282  154.5238 C   0  0  0  0  0  0  0  0  0  0  0  0
  130.0543  131.3374  153.3461 C   0  0  0  0  0  0  0  0  0  0  0  0
  130.8612  130.2059  153.3269 C   0  0  0  0  0  0  0  0  0  0  0  0
  131.0502  129.5043  152.1337 N   0  0  0  0  0  0  0  0  0  0  0  0
  131.4809  129.7717  154.4927 C   0  0  0  0  0  0  0  0  0  0  0  0
  131.2957  130.4628  155.6715 C   0  0  0  0  0  0  0  0  0  0  0  0
  130.6023  133.6430  157.1809 N   0  0  0  0  0  0  0  0  0  0  0  0
  130.9999  134.2430  156.5305 H   0  0  0  0  0  0  0  0  0  0  0  0
  128.5967  135.1579  160.5411 C   0  0  0  0  0  0  0  0  0  0  0  0
  127.9746  134.7023  161.6530 C   0  0  0  0  0  0  0  0  0  0  0  0
  126.6080  134.6026  161.3713 C   0  0  0  0  0  0  0  0  0  0  0  0
  126.4180  134.9770  160.1320 N   0  0  0  0  0  0  0  0  0  0  0  0
  127.6586  135.3322  159.5870 N   0  0  0  0  0  0  0  0  0  0  0  0
  127.8955  135.8085  158.2220 C   0  0  0  0  0  0  0  0  0  0  0  0
  130.5206  136.4106  162.8918 H   0  0  0  0  0  0  0  0  0  0  0  0
  130.1836  138.1202  162.5287 H   0  0  0  0  0  0  0  0  0  0  0  0
  128.8972  136.9026  162.3528 H   0  0  0  0  0  0  0  0  0  0  0  0
  132.4073  136.7269  161.5058 H   0  0  0  0  0  0  0  0  0  0  0  0
  132.2448  136.6407  159.7353 H   0  0  0  0  0  0  0  0  0  0  0  0
  131.5972  139.0336  159.6781 H   0  0  0  0  0  0  0  0  0  0  0  0
  131.7598  139.1198  161.4485 H   0  0  0  0  0  0  0  0  0  0  0  0
  133.9432  139.0331  162.5014 H   0  0  0  0  0  0  0  0  0  0  0  0
  136.3581  139.4489  162.2594 H   0  0  0  0  0  0  0  0  0  0  0  0
  137.3702  139.5575  160.0173 H   0  0  0  0  0  0  0  0  0  0  0  0
  135.9688  139.2412  158.0175 H   0  0  0  0  0  0  0  0  0  0  0  0
  133.5556  138.8162  158.2597 H   0  0  0  0  0  0  0  0  0  0  0  0
  130.8604  135.9255  158.4871 H   0  0  0  0  0  0  0  0  0  0  0  0
  129.3874  130.8392  158.2580 H   0  0  0  0  0  0  0  0  0  0  0  0
  129.2307  132.9046  154.5392 H   0  0  0  0  0  0  0  0  0  0  0  0
  129.5741  131.6730  152.4388 H   0  0  0  0  0  0  0  0  0  0  0  0
  131.6134  128.7147  152.1194 H   0  0  0  0  0  0  0  0  0  0  0  0
  130.6181  129.8065  151.3196 H   0  0  0  0  0  0  0  0  0  0  0  0
  132.1075  128.8923  154.4754 H   0  0  0  0  0  0  0  0  0  0  0  0
  131.7777  130.1254  156.5772 H   0  0  0  0  0  0  0  0  0  0  0  0
  128.4488  134.4608  162.5928 H   0  0  0  0  0  0  0  0  0  0  0  0
  125.8428  134.2701  162.0568 H   0  0  0  0  0  0  0  0  0  0  0  0
  128.0935  134.9580  157.5695 H   0  0  0  0  0  0  0  0  0  0  0  0
  127.0149  136.3427  157.8654 H   0  0  0  0  0  0  0  0  0  0  0  0
  128.7548  136.4792  158.2153 H   0  0  0  0  0  0  0  0  0  0  0  0
  1  2  1  0
  1 35  1  0
  1 36  1  0
  1 37  1  0
  2  3  1  6
  2  4  1  0
  2 12  1  0
  4  5  1  0
  4 38  1  0
  4 39  1  0
  5  6  1  0
  5 40  1  0
  5 41  1  0
  6 11  1  0
  6  7  2  0
  7  8  1  0
  7 42  1  0
  8  9  2  0
  8 43  1  0
  9 10  1  0
  9 44  1  0
 10 11  2  0
 10 45  1  0
 11 46  1  0
 12 13  1  1
 12 14  1  0
 12 29  1  0
 14 47  1  0
 15 14  1  0
 15 27  2  0
 15 16  1  0
 16 17  1  0
 16 18  1  0
 18 19  2  0
 18 48  1  0
 19 20  1  0
 19 27  1  0
 20 26  1  0
 20 21  2  0
 21 22  1  0
 21 49  1  0
 22 23  2  0
 22 50  1  0
 23 24  1  0
 23 25  1  0
 24 51  1  0
 24 52  1  0
 25 26  2  0
 25 53  1  0
 26 54  1  0
 27 28  1  0
 29 33  1  0
 29 30  2  0
 30 31  1  0
 30 55  1  0
 31 32  2  0
 31 56  1  0
 32 33  1  0
 33 34  1  0
 34 57  1  0
 34 58  1  0
 34 59  1  0
M  CHG  1  27   1
M  END
>  <DOCK_score>  (1) 
-61.877682

>  <SMILES>  (1) 
C[C@@H](CCc1ccccc1)[C@H](Nc1[nH]cc(-c2ccc(N)cc2)[nH+]1)c1ccnn1C

$$$$
