C/C=C/C[NH2+]Cc1c[nH]nc1-c1ccc(N[C@H]2C[C@H](c3ccccc3C)C2)o1
     RDKit          3D

 57 60  0  0  1  0  0  0  0  0999 V2000
  134.8331  138.4470  160.2592 C   0  0  0  0  0  0  0  0  0  0  0  0
  133.3905  138.4155  159.8241 C   0  0  0  0  0  0  0  0  0  0  0  0
  132.4363  138.3855  160.7213 C   0  0  0  0  0  0  0  0  0  0  0  0
  130.9939  138.3541  160.2863 C   0  0  0  0  0  0  0  0  0  0  0  0
  130.7538  137.1546  159.4727 N   0  0  0  0  0  0  0  0  0  0  0  0
  131.3502  137.1754  158.6590 H   0  0  0  0  0  0  0  0  0  0  0  0
  129.7881  137.1336  159.1814 H   0  0  0  0  0  0  0  0  0  0  0  0
  131.0519  135.9560  160.2678 C   0  0  0  0  0  0  0  0  0  0  0  0
  130.8056  134.7256  159.4331 C   0  0  0  0  0  0  0  0  0  0  0  0
  131.7102  134.1040  158.6469 C   0  0  0  0  0  0  0  0  0  0  0  0
  131.1040  133.0446  158.0685 N   0  0  0  0  0  0  0  0  0  0  0  0
  131.5170  132.4191  157.4529 H   0  0  0  0  0  0  0  0  0  0  0  0
  129.7769  133.0028  158.5147 N   0  0  0  0  0  0  0  0  0  0  0  0
  129.5889  134.0183  159.3344 C   0  0  0  0  0  0  0  0  0  0  0  0
  128.3293  134.3526  160.0309 C   0  0  0  0  0  0  0  0  0  0  0  0
  127.1593  133.6681  159.9323 C   0  0  0  0  0  0  0  0  0  0  0  0
  126.2302  134.3266  160.7618 C   0  0  0  0  0  0  0  0  0  0  0  0
  126.8747  135.3830  161.3174 C   0  0  0  0  0  0  0  0  0  0  0  0
  126.3183  136.3002  162.2012 N   0  0  0  0  0  0  0  0  0  0  0  0
  127.1608  136.9517  163.2073 C   0  0  1  0  0  0  0  0  0  0  0  0
  127.8886  136.2746  163.6542 H   0  0  0  0  0  0  0  0  0  0  0  0
  127.7677  138.2831  162.7340 C   0  0  0  0  0  0  0  0  0  0  0  0
  126.5002  138.9636  163.2773 C   0  0  2  0  0  0  0  0  0  0  0  0
  125.6928  139.0288  162.5480 H   0  0  0  0  0  0  0  0  0  0  0  0
  126.7671  140.2731  163.9736 C   0  0  0  0  0  0  0  0  0  0  0  0
  127.8364  141.0580  163.5837 C   0  0  0  0  0  0  0  0  0  0  0  0
  128.0786  142.2611  164.2194 C   0  0  0  0  0  0  0  0  0  0  0  0
  127.2572  142.6752  165.2516 C   0  0  0  0  0  0  0  0  0  0  0  0
  126.1911  141.8884  165.6445 C   0  0  0  0  0  0  0  0  0  0  0  0
  125.9463  140.6868  165.0058 C   0  0  0  0  0  0  0  0  0  0  0  0
  124.7841  139.8286  165.4345 C   0  0  0  0  0  0  0  0  0  0  0  0
  126.3669  137.7707  164.2387 C   0  0  0  0  0  0  0  0  0  0  0  0
  128.1432  135.3900  160.8738 O   0  0  0  0  0  0  0  0  0  0  0  0
  135.0112  139.3368  160.8628 H   0  0  0  0  0  0  0  0  0  0  0  0
  135.0540  137.5574  160.8492 H   0  0  0  0  0  0  0  0  0  0  0  0
  135.4771  138.4692  159.3801 H   0  0  0  0  0  0  0  0  0  0  0  0
  133.1434  138.4176  158.7729 H   0  0  0  0  0  0  0  0  0  0  0  0
  132.6836  138.3834  161.7726 H   0  0  0  0  0  0  0  0  0  0  0  0
  130.7728  139.2436  159.6964 H   0  0  0  0  0  0  0  0  0  0  0  0
  130.3497  138.3318  161.1654 H   0  0  0  0  0  0  0  0  0  0  0  0
  130.4076  135.9336  161.1468 H   0  0  0  0  0  0  0  0  0  0  0  0
  132.0952  135.9788  160.5824 H   0  0  0  0  0  0  0  0  0  0  0  0
  132.7389  134.4013  158.5057 H   0  0  0  0  0  0  0  0  0  0  0  0
  126.9778  132.7861  159.3359 H   0  0  0  0  0  0  0  0  0  0  0  0
  125.2001  134.0449  160.9232 H   0  0  0  0  0  0  0  0  0  0  0  0
  125.3723  136.5090  162.1519 H   0  0  0  0  0  0  0  0  0  0  0  0
  127.8719  138.3550  161.6514 H   0  0  0  0  0  0  0  0  0  0  0  0
  128.6764  138.5640  163.2663 H   0  0  0  0  0  0  0  0  0  0  0  0
  128.4805  140.7327  162.7801 H   0  0  0  0  0  0  0  0  0  0  0  0
  128.9113  142.8763  163.9121 H   0  0  0  0  0  0  0  0  0  0  0  0
  127.4484  143.6138  165.7505 H   0  0  0  0  0  0  0  0  0  0  0  0
  125.5494  142.2117  166.4508 H   0  0  0  0  0  0  0  0  0  0  0  0
  125.1097  139.1389  166.2132 H   0  0  0  0  0  0  0  0  0  0  0  0
  123.9870  140.4633  165.8216 H   0  0  0  0  0  0  0  0  0  0  0  0
  124.4151  139.2628  164.5791 H   0  0  0  0  0  0  0  0  0  0  0  0
  126.8926  137.9104  165.1833 H   0  0  0  0  0  0  0  0  0  0  0  0
  125.3404  137.4291  164.3708 H   0  0  0  0  0  0  0  0  0  0  0  0
  1  2  1  0
  1 34  1  0
  1 35  1  0
  1 36  1  0
  2  3  2  0
  2 37  1  0
  3  4  1  0
  3 38  1  0
  4  5  1  0
  4 39  1  0
  4 40  1  0
  5  6  1  0
  5  7  1  0
  5  8  1  0
  8  9  1  0
  8 41  1  0
  8 42  1  0
  9 14  1  0
  9 10  2  0
 10 11  1  0
 10 43  1  0
 11 12  1  0
 11 13  1  0
 13 14  2  0
 14 15  1  0
 15 33  1  0
 15 16  2  0
 16 17  1  0
 16 44  1  0
 17 18  2  0
 17 45  1  0
 18 19  1  0
 18 33  1  0
 19 20  1  0
 19 46  1  0
 20 21  1  1
 20 32  1  0
 20 22  1  0
 22 23  1  0
 22 47  1  0
 22 48  1  0
 23 24  1  6
 23 25  1  0
 23 32  1  0
 25 30  1  0
 25 26  2  0
 26 27  1  0
 26 49  1  0
 27 28  2  0
 27 50  1  0
 28 29  1  0
 28 51  1  0
 29 30  2  0
 29 52  1  0
 30 31  1  0
 31 53  1  0
 31 54  1  0
 31 55  1  0
 32 56  1  0
 32 57  1  0
M  CHG  1   5   1
M  END
>  <DOCK_score>  (1) 
-49.613945

>  <SMILES>  (1) 
C/C=C/C[NH2+]Cc1c[nH]nc1-c1ccc(N[C@H]2C[C@H](c3ccccc3C)C2)o1

$$$$
