Cc1cccc(N2CC[NH+](C(c3ccccc3)c3ccccc3)CC2)c1CSc1ccc(N)c(O)c1
     RDKit          3D

 70 74  0  0  0  0  0  0  0  0999 V2000
  135.8173  141.6458  162.2824 C   0  0  0  0  0  0  0  0  0  0  0  0
  135.2227  140.8053  161.1821 C   0  0  0  0  0  0  0  0  0  0  0  0
  135.6317  140.9902  159.8738 C   0  0  0  0  0  0  0  0  0  0  0  0
  135.0891  140.2210  158.8612 C   0  0  0  0  0  0  0  0  0  0  0  0
  134.1358  139.2649  159.1532 C   0  0  0  0  0  0  0  0  0  0  0  0
  133.7262  139.0735  160.4664 C   0  0  0  0  0  0  0  0  0  0  0  0
  132.7660  138.1043  160.7659 N   0  0  0  0  0  0  0  0  0  0  0  0
  133.2598  136.7574  160.4462 C   0  0  0  0  0  0  0  0  0  0  0  0
  132.2044  135.7229  160.8433 C   0  0  0  0  0  0  0  0  0  0  0  0
  130.9571  135.9915  160.1154 N   0  0  0  0  0  0  0  0  0  0  0  0
  131.1306  135.9451  159.1226 H   0  0  0  0  0  0  0  0  0  0  0  0
  129.9499  134.9874  160.4834 C   0  0  0  0  0  0  0  0  0  0  0  0
  128.6701  135.2627  159.7368 C   0  0  0  0  0  0  0  0  0  0  0  0
  127.4548  134.9158  160.2970 C   0  0  0  0  0  0  0  0  0  0  0  0
  126.2807  135.1729  159.6143 C   0  0  0  0  0  0  0  0  0  0  0  0
  126.3219  135.7672  158.3674 C   0  0  0  0  0  0  0  0  0  0  0  0
  127.5377  136.1089  157.8043 C   0  0  0  0  0  0  0  0  0  0  0  0
  128.7117  135.8568  158.4892 C   0  0  0  0  0  0  0  0  0  0  0  0
  130.4554  133.6138  160.1245 C   0  0  0  0  0  0  0  0  0  0  0  0
  130.0631  132.5168  160.8684 C   0  0  0  0  0  0  0  0  0  0  0  0
  130.5229  131.2562  160.5364 C   0  0  0  0  0  0  0  0  0  0  0  0
  131.3835  131.0940  159.4668 C   0  0  0  0  0  0  0  0  0  0  0  0
  131.7800  132.1917  158.7261 C   0  0  0  0  0  0  0  0  0  0  0  0
  131.3159  133.4517  159.0549 C   0  0  0  0  0  0  0  0  0  0  0  0
  130.4634  137.3303  160.4638 C   0  0  0  0  0  0  0  0  0  0  0  0
  131.5043  138.3781  160.0635 C   0  0  0  0  0  0  0  0  0  0  0  0
  134.2699  139.8516  161.4809 C   0  0  0  0  0  0  0  0  0  0  0  0
  133.8251  139.6506  162.9067 C   0  0  0  0  0  0  0  0  0  0  0  0
  132.4127  140.7335  163.2576 S   0  0  0  0  0  0  0  0  0  0  0  0
  132.4108  140.8247  165.0172 C   0  0  0  0  0  0  0  0  0  0  0  0
  131.3026  140.3914  165.7338 C   0  0  0  0  0  0  0  0  0  0  0  0
  131.2988  140.4629  167.1138 C   0  0  0  0  0  0  0  0  0  0  0  0
  132.3999  140.9722  167.7860 C   0  0  0  0  0  0  0  0  0  0  0  0
  132.3927  141.0497  169.1867 N   0  0  0  0  0  0  0  0  0  0  0  0
  133.5147  141.4022  167.0701 C   0  0  0  0  0  0  0  0  0  0  0  0
  134.5973  141.8966  167.7284 O   0  0  0  0  0  0  0  0  0  0  0  0
  133.5174  141.3306  165.6874 C   0  0  0  0  0  0  0  0  0  0  0  0
  136.7021  141.1495  162.6811 H   0  0  0  0  0  0  0  0  0  0  0  0
  136.0965  142.6213  161.8842 H   0  0  0  0  0  0  0  0  0  0  0  0
  135.0836  141.7746  163.0781 H   0  0  0  0  0  0  0  0  0  0  0  0
  136.3768  141.7371  159.6427 H   0  0  0  0  0  0  0  0  0  0  0  0
  135.4106  140.3680  157.8407 H   0  0  0  0  0  0  0  0  0  0  0  0
  133.7124  138.6642  158.3618 H   0  0  0  0  0  0  0  0  0  0  0  0
  133.4544  136.6859  159.3762 H   0  0  0  0  0  0  0  0  0  0  0  0
  134.1807  136.5672  160.9974 H   0  0  0  0  0  0  0  0  0  0  0  0
  132.0198  135.7854  161.9158 H   0  0  0  0  0  0  0  0  0  0  0  0
  132.5626  134.7241  160.5940 H   0  0  0  0  0  0  0  0  0  0  0  0
  129.7625  135.0368  161.5561 H   0  0  0  0  0  0  0  0  0  0  0  0
  127.4227  134.4477  161.2698 H   0  0  0  0  0  0  0  0  0  0  0  0
  125.3310  134.9053  160.0536 H   0  0  0  0  0  0  0  0  0  0  0  0
  125.4050  135.9636  157.8316 H   0  0  0  0  0  0  0  0  0  0  0  0
  127.5703  136.5728  156.8295 H   0  0  0  0  0  0  0  0  0  0  0  0
  129.6613  136.1236  158.0496 H   0  0  0  0  0  0  0  0  0  0  0  0
  129.3942  132.6441  161.7069 H   0  0  0  0  0  0  0  0  0  0  0  0
  130.2135  130.3986  161.1154 H   0  0  0  0  0  0  0  0  0  0  0  0
  131.7464  130.1096  159.2101 H   0  0  0  0  0  0  0  0  0  0  0  0
  132.4526  132.0651  157.8907 H   0  0  0  0  0  0  0  0  0  0  0  0
  131.6260  134.3093  158.4765 H   0  0  0  0  0  0  0  0  0  0  0  0
  130.2878  137.3845  161.5382 H   0  0  0  0  0  0  0  0  0  0  0  0
  129.5311  137.5232  159.9331 H   0  0  0  0  0  0  0  0  0  0  0  0
  131.1446  139.3704  160.3355 H   0  0  0  0  0  0  0  0  0  0  0  0
  131.6702  138.3334  158.9872 H   0  0  0  0  0  0  0  0  0  0  0  0
  134.6459  139.8941  163.5812 H   0  0  0  0  0  0  0  0  0  0  0  0
  133.5309  138.6112  163.0524 H   0  0  0  0  0  0  0  0  0  0  0  0
  130.4428  139.9984  165.2117 H   0  0  0  0  0  0  0  0  0  0  0  0
  130.4360  140.1261  167.6692 H   0  0  0  0  0  0  0  0  0  0  0  0
  131.6176  140.7472  169.6853 H   0  0  0  0  0  0  0  0  0  0  0  0
  133.1627  141.4061  169.6567 H   0  0  0  0  0  0  0  0  0  0  0  0
  135.3205  142.1689  167.1471 H   0  0  0  0  0  0  0  0  0  0  0  0
  134.3793  141.6672  165.1305 H   0  0  0  0  0  0  0  0  0  0  0  0
  1  2  1  0
  1 38  1  0
  1 39  1  0
  1 40  1  0
  2 27  2  0
  2  3  1  0
  3  4  2  0
  3 41  1  0
  4  5  1  0
  4 42  1  0
  5  6  2  0
  5 43  1  0
  6  7  1  0
  6 27  1  0
  7 26  1  0
  7  8  1  0
  8  9  1  0
  8 44  1  0
  8 45  1  0
  9 10  1  0
  9 46  1  0
  9 47  1  0
 10 11  1  0
 10 12  1  0
 10 25  1  0
 12 13  1  0
 12 19  1  0
 12 48  1  0
 13 18  1  0
 13 14  2  0
 14 15  1  0
 14 49  1  0
 15 16  2  0
 15 50  1  0
 16 17  1  0
 16 51  1  0
 17 18  2  0
 17 52  1  0
 18 53  1  0
 19 24  1  0
 19 20  2  0
 20 21  1  0
 20 54  1  0
 21 22  2  0
 21 55  1  0
 22 23  1  0
 22 56  1  0
 23 24  2  0
 23 57  1  0
 24 58  1  0
 25 26  1  0
 25 59  1  0
 25 60  1  0
 26 61  1  0
 26 62  1  0
 27 28  1  0
 28 29  1  0
 28 63  1  0
 28 64  1  0
 29 30  1  0
 30 37  1  0
 30 31  2  0
 31 32  1  0
 31 65  1  0
 32 33  2  0
 32 66  1  0
 33 34  1  0
 33 35  1  0
 34 67  1  0
 34 68  1  0
 35 36  1  0
 35 37  2  0
 36 69  1  0
 37 70  1  0
M  CHG  1  10   1
M  END
>  <DOCK_score>  (1) 
-56.148582

>  <SMILES>  (1) 
Cc1cccc(N2CC[NH+](C(c3ccccc3)c3ccccc3)CC2)c1CSc1ccc(N)c(O)c1

$$$$
