Fc1cccc([C@H](Nc2[nH]cc(-c3ccc(Br)cc3)[nH+]2)c2cccc(C3CC3)c2)c1
     RDKit          3D

 52 56  0  0  1  0  0  0  0  0999 V2000
  130.5193  139.9572  159.6153 F   0  0  0  0  0  0  0  0  0  0  0  0
  130.3701  138.9214  160.4699 C   0  0  0  0  0  0  0  0  0  0  0  0
  130.5136  139.1214  161.8327 C   0  0  0  0  0  0  0  0  0  0  0  0
  130.3674  138.0601  162.7053 C   0  0  0  0  0  0  0  0  0  0  0  0
  130.0659  136.8012  162.2192 C   0  0  0  0  0  0  0  0  0  0  0  0
  129.9167  136.6017  160.8596 C   0  0  0  0  0  0  0  0  0  0  0  0
  129.5886  135.2290  160.3313 C   0  0  2  0  0  0  0  0  0  0  0  0
  130.0101  134.4740  160.9949 H   0  0  0  0  0  0  0  0  0  0  0  0
  130.1577  135.0729  158.9904 N   0  0  0  0  0  0  0  0  0  0  0  0
  129.9850  133.8860  158.2991 C   0  0  0  0  0  0  0  0  0  0  0  0
  129.3053  132.7970  158.7510 N   0  0  0  0  0  0  0  0  0  0  0  0
  128.8588  132.7134  159.6080 H   0  0  0  0  0  0  0  0  0  0  0  0
  129.3687  131.8378  157.7695 C   0  0  0  0  0  0  0  0  0  0  0  0
  130.0847  132.3678  156.7470 C   0  0  0  0  0  0  0  0  0  0  0  0
  130.4120  131.6916  155.4680 C   0  0  0  0  0  0  0  0  0  0  0  0
  129.9793  132.2343  154.2593 C   0  0  0  0  0  0  0  0  0  0  0  0
  130.2914  131.6046  153.0719 C   0  0  0  0  0  0  0  0  0  0  0  0
  131.0229  130.4296  153.0804 C   0  0  0  0  0  0  0  0  0  0  0  0
  131.4396  129.5670  151.4499 Br  0  0  0  0  0  0  0  0  0  0  0  0
  131.4503  129.8834  154.2783 C   0  0  0  0  0  0  0  0  0  0  0  0
  131.1485  130.5084  155.4711 C   0  0  0  0  0  0  0  0  0  0  0  0
  130.4444  133.6277  157.0989 N   0  0  0  0  0  0  0  0  0  0  0  0
  130.9612  134.2389  156.5510 H   0  0  0  0  0  0  0  0  0  0  0  0
  128.0925  135.0606  160.2648 C   0  0  0  0  0  0  0  0  0  0  0  0
  127.3356  135.9103  159.4798 C   0  0  0  0  0  0  0  0  0  0  0  0
  125.9639  135.7527  159.4150 C   0  0  0  0  0  0  0  0  0  0  0  0
  125.3478  134.7526  160.1431 C   0  0  0  0  0  0  0  0  0  0  0  0
  126.1040  133.9063  160.9325 C   0  0  0  0  0  0  0  0  0  0  0  0
  125.4324  132.8159  161.7271 C   0  0  0  0  0  0  0  0  0  0  0  0
  125.9814  131.3952  161.5813 C   0  0  0  0  0  0  0  0  0  0  0  0
  124.6368  131.7642  160.9513 C   0  0  0  0  0  0  0  0  0  0  0  0
  127.4767  134.0603  160.9931 C   0  0  0  0  0  0  0  0  0  0  0  0
  130.0688  137.6607  159.9844 C   0  0  0  0  0  0  0  0  0  0  0  0
  130.7444  140.1056  162.2130 H   0  0  0  0  0  0  0  0  0  0  0  0
  130.4840  138.2148  163.7678 H   0  0  0  0  0  0  0  0  0  0  0  0
  129.9473  135.9732  162.9023 H   0  0  0  0  0  0  0  0  0  0  0  0
  130.6554  135.8011  158.5870 H   0  0  0  0  0  0  0  0  0  0  0  0
  128.9316  130.8508  157.8051 H   0  0  0  0  0  0  0  0  0  0  0  0
  129.4046  133.1488  154.2520 H   0  0  0  0  0  0  0  0  0  0  0  0
  129.9602  132.0264  152.1345 H   0  0  0  0  0  0  0  0  0  0  0  0
  132.0210  128.9664  154.2795 H   0  0  0  0  0  0  0  0  0  0  0  0
  131.4826  130.0815  156.4052 H   0  0  0  0  0  0  0  0  0  0  0  0
  127.8163  136.6947  158.9141 H   0  0  0  0  0  0  0  0  0  0  0  0
  125.3729  136.4142  158.7988 H   0  0  0  0  0  0  0  0  0  0  0  0
  124.2755  134.6325  160.0957 H   0  0  0  0  0  0  0  0  0  0  0  0
  125.0548  133.1120  162.7058 H   0  0  0  0  0  0  0  0  0  0  0  0
  126.8281  131.2492  160.9107 H   0  0  0  0  0  0  0  0  0  0  0  0
  125.9650  130.7563  162.4642 H   0  0  0  0  0  0  0  0  0  0  0  0
  123.7358  131.3681  161.4198 H   0  0  0  0  0  0  0  0  0  0  0  0
  124.5990  131.8610  159.8663 H   0  0  0  0  0  0  0  0  0  0  0  0
  128.0676  133.3994  161.6100 H   0  0  0  0  0  0  0  0  0  0  0  0
  129.9520  137.5045  158.9221 H   0  0  0  0  0  0  0  0  0  0  0  0
  1  2  1  0
  2 33  2  0
  2  3  1  0
  3  4  2  0
  3 34  1  0
  4  5  1  0
  4 35  1  0
  5  6  2  0
  5 36  1  0
  6  7  1  0
  6 33  1  0
  7  8  1  1
  7  9  1  0
  7 24  1  0
  9 37  1  0
 10  9  1  0
 10 22  2  0
 10 11  1  0
 11 12  1  0
 11 13  1  0
 13 14  2  0
 13 38  1  0
 14 15  1  0
 14 22  1  0
 15 21  1  0
 15 16  2  0
 16 17  1  0
 16 39  1  0
 17 18  2  0
 17 40  1  0
 18 19  1  0
 18 20  1  0
 20 21  2  0
 20 41  1  0
 21 42  1  0
 22 23  1  0
 24 32  1  0
 24 25  2  0
 25 26  1  0
 25 43  1  0
 26 27  2  0
 26 44  1  0
 27 28  1  0
 27 45  1  0
 28 29  1  0
 28 32  2  0
 29 31  1  0
 29 30  1  0
 29 46  1  0
 30 31  1  0
 30 47  1  0
 30 48  1  0
 31 49  1  0
 31 50  1  0
 32 51  1  0
 33 52  1  0
M  CHG  1  22   1
M  END
>  <DOCK_score>  (1) 
-62.988316

>  <SMILES>  (1) 
Fc1cccc([C@H](Nc2[nH]cc(-c3ccc(Br)cc3)[nH+]2)c2cccc(C3CC3)c2)c1

$$$$
