Nc1ccc(-c2c[nH]c(N[C@@H](c3ccc(N4C(=O)C=CC4=O)cc3)c3ccccn3)[nH+]2)cc1
     RDKit          3D

 54 58  0  0  1  0  0  0  0  0999 V2000
  131.2848  129.8549  151.5993 N   0  0  0  0  0  0  0  0  0  0  0  0
  130.9872  130.4292  152.8375 C   0  0  0  0  0  0  0  0  0  0  0  0
  130.2317  131.5942  152.8985 C   0  0  0  0  0  0  0  0  0  0  0  0
  129.9368  132.1627  154.1196 C   0  0  0  0  0  0  0  0  0  0  0  0
  130.3971  131.5683  155.2934 C   0  0  0  0  0  0  0  0  0  0  0  0
  130.0811  132.1782  156.6085 C   0  0  0  0  0  0  0  0  0  0  0  0
  129.3895  131.5897  157.6153 C   0  0  0  0  0  0  0  0  0  0  0  0
  129.3287  132.5009  158.6430 N   0  0  0  0  0  0  0  0  0  0  0  0
  128.8974  132.3703  159.5020 H   0  0  0  0  0  0  0  0  0  0  0  0
  129.9856  133.6195  158.2326 C   0  0  0  0  0  0  0  0  0  0  0  0
  130.1532  134.7750  158.9767 N   0  0  0  0  0  0  0  0  0  0  0  0
  129.5983  134.8618  160.3298 C   0  0  1  0  0  0  0  0  0  0  0  0
  130.0359  134.0816  160.9526 H   0  0  0  0  0  0  0  0  0  0  0  0
  129.9173  136.2120  160.9179 C   0  0  0  0  0  0  0  0  0  0  0  0
  130.0466  137.3121  160.0900 C   0  0  0  0  0  0  0  0  0  0  0  0
  130.3384  138.5512  160.6263 C   0  0  0  0  0  0  0  0  0  0  0  0
  130.5070  138.6904  161.9972 C   0  0  0  0  0  0  0  0  0  0  0  0
  130.8084  139.9454  162.5438 N   0  0  0  0  0  0  0  0  0  0  0  0
  130.4485  140.3636  163.7706 C   0  0  0  0  0  0  0  0  0  0  0  0
  129.8137  139.7215  164.5820 O   0  0  0  0  0  0  0  0  0  0  0  0
  130.9609  141.7381  163.9648 C   0  0  0  0  0  0  0  0  0  0  0  0
  131.5985  142.0782  162.8321 C   0  0  0  0  0  0  0  0  0  0  0  0
  131.4966  140.9180  161.9196 C   0  0  0  0  0  0  0  0  0  0  0  0
  131.9563  140.8546  160.7976 O   0  0  0  0  0  0  0  0  0  0  0  0
  130.3713  137.5851  162.8263 C   0  0  0  0  0  0  0  0  0  0  0  0
  130.0794  136.3487  162.2843 C   0  0  0  0  0  0  0  0  0  0  0  0
  128.1035  134.6792  160.2723 C   0  0  0  0  0  0  0  0  0  0  0  0
  127.3356  135.5603  159.5341 C   0  0  0  0  0  0  0  0  0  0  0  0
  125.9620  135.3805  159.4837 C   0  0  0  0  0  0  0  0  0  0  0  0
  125.4083  134.3229  160.1895 C   0  0  0  0  0  0  0  0  0  0  0  0
  126.2390  133.4859  160.9098 C   0  0  0  0  0  0  0  0  0  0  0  0
  127.5426  133.6842  160.9310 N   0  0  0  0  0  0  0  0  0  0  0  0
  130.4290  133.4250  157.0144 N   0  0  0  0  0  0  0  0  0  0  0  0
  130.9280  134.0690  156.4881 H   0  0  0  0  0  0  0  0  0  0  0  0
  131.1597  130.4032  155.2296 C   0  0  0  0  0  0  0  0  0  0  0  0
  131.4470  129.8346  154.0066 C   0  0  0  0  0  0  0  0  0  0  0  0
  130.9641  130.2692  150.7830 H   0  0  0  0  0  0  0  0  0  0  0  0
  131.8121  129.0420  151.5559 H   0  0  0  0  0  0  0  0  0  0  0  0
  129.8755  132.0545  151.9887 H   0  0  0  0  0  0  0  0  0  0  0  0
  129.3493  133.0678  154.1665 H   0  0  0  0  0  0  0  0  0  0  0  0
  128.9670  130.5958  157.6107 H   0  0  0  0  0  0  0  0  0  0  0  0
  130.6379  135.5270  158.6022 H   0  0  0  0  0  0  0  0  0  0  0  0
  129.9191  137.2024  159.0232 H   0  0  0  0  0  0  0  0  0  0  0  0
  130.4397  139.4099  159.9791 H   0  0  0  0  0  0  0  0  0  0  0  0
  130.8415  142.3515  164.8456 H   0  0  0  0  0  0  0  0  0  0  0  0
  132.0908  143.0173  162.6273 H   0  0  0  0  0  0  0  0  0  0  0  0
  130.4978  137.6912  163.8936 H   0  0  0  0  0  0  0  0  0  0  0  0
  129.9774  135.4878  162.9284 H   0  0  0  0  0  0  0  0  0  0  0  0
  127.8003  136.3762  159.0005 H   0  0  0  0  0  0  0  0  0  0  0  0
  125.3374  136.0507  158.9117 H   0  0  0  0  0  0  0  0  0  0  0  0
  124.3415  134.1556  160.1765 H   0  0  0  0  0  0  0  0  0  0  0  0
  125.8157  132.6600  161.4619 H   0  0  0  0  0  0  0  0  0  0  0  0
  131.5211  129.9434  156.1376 H   0  0  0  0  0  0  0  0  0  0  0  0
  132.0334  128.9290  153.9570 H   0  0  0  0  0  0  0  0  0  0  0  0
  1  2  1  0
  1 37  1  0
  1 38  1  0
  2 36  2  0
  2  3  1  0
  3  4  2  0
  3 39  1  0
  4  5  1  0
  4 40  1  0
  5  6  1  0
  5 35  2  0
  6 33  1  0
  6  7  2  0
  7  8  1  0
  7 41  1  0
  8  9  1  0
  8 10  1  0
 10 11  1  0
 10 33  2  0
 11 12  1  0
 11 42  1  0
 12 13  1  1
 12 14  1  0
 12 27  1  0
 14 26  1  0
 14 15  2  0
 15 16  1  0
 15 43  1  0
 16 17  2  0
 16 44  1  0
 17 18  1  0
 17 25  1  0
 18 23  1  0
 18 19  1  0
 19 20  2  0
 19 21  1  0
 21 22  2  0
 21 45  1  0
 22 23  1  0
 22 46  1  0
 23 24  2  0
 25 26  2  0
 25 47  1  0
 26 48  1  0
 27 32  1  0
 27 28  2  0
 28 29  1  0
 28 49  1  0
 29 30  2  0
 29 50  1  0
 30 31  1  0
 30 51  1  0
 31 32  2  0
 31 52  1  0
 33 34  1  0
 35 36  1  0
 35 53  1  0
 36 54  1  0
M  CHG  1  33   1
M  END
>  <DOCK_score>  (1) 
-56.376617

>  <SMILES>  (1) 
Nc1ccc(-c2c[nH]c(N[C@@H](c3ccc(N4C(=O)C=CC4=O)cc3)c3ccccn3)[nH+]2)cc1

$$$$
