Cn1nccc1[C@H](CSCc1cc(F)ccc1F)Nc1[nH]cc(-c2cccnc2)[nH+]1
     RDKit          3D

 51 54  0  0  1  0  0  0  0  0999 V2000
  127.5780  134.6694  162.4780 C   0  0  0  0  0  0  0  0  0  0  0  0
  127.1965  134.9712  161.0960 N   0  0  0  0  0  0  0  0  0  0  0  0
  125.8995  134.9195  160.5692 N   0  0  0  0  0  0  0  0  0  0  0  0
  125.9587  135.2493  159.3044 C   0  0  0  0  0  0  0  0  0  0  0  0
  127.2926  135.5260  158.9871 C   0  0  0  0  0  0  0  0  0  0  0  0
  128.0320  135.3505  160.1065 C   0  0  0  0  0  0  0  0  0  0  0  0
  129.5225  135.5385  160.2256 C   0  0  2  0  0  0  0  0  0  0  0  0
  129.9145  134.8628  160.9857 H   0  0  0  0  0  0  0  0  0  0  0  0
  129.8238  136.9845  160.6243 C   0  0  0  0  0  0  0  0  0  0  0  0
  131.6180  137.2110  160.7676 S   0  0  0  0  0  0  0  0  0  0  0  0
  131.8148  139.0089  160.6290 C   0  0  0  0  0  0  0  0  0  0  0  0
  133.2348  139.3302  160.2402 C   0  0  0  0  0  0  0  0  0  0  0  0
  134.1887  139.5391  161.2183 C   0  0  0  0  0  0  0  0  0  0  0  0
  135.4941  139.8297  160.8613 C   0  0  0  0  0  0  0  0  0  0  0  0
  136.4277  140.0284  161.8174 F   0  0  0  0  0  0  0  0  0  0  0  0
  135.8419  139.9218  159.5241 C   0  0  0  0  0  0  0  0  0  0  0  0
  134.8874  139.7182  158.5463 C   0  0  0  0  0  0  0  0  0  0  0  0
  133.5827  139.4219  158.9035 C   0  0  0  0  0  0  0  0  0  0  0  0
  132.6493  139.2228  157.9474 F   0  0  0  0  0  0  0  0  0  0  0  0
  130.1561  135.2449  158.9377 N   0  0  0  0  0  0  0  0  0  0  0  0
  130.0217  133.9894  158.3704 C   0  0  0  0  0  0  0  0  0  0  0  0
  129.3351  132.9452  158.9095 N   0  0  0  0  0  0  0  0  0  0  0  0
  128.8559  132.9469  159.7530 H   0  0  0  0  0  0  0  0  0  0  0  0
  129.4437  131.8893  158.0376 C   0  0  0  0  0  0  0  0  0  0  0  0
  130.1994  132.3155  156.9955 C   0  0  0  0  0  0  0  0  0  0  0  0
  130.5859  131.5110  155.8107 C   0  0  0  0  0  0  0  0  0  0  0  0
  130.2053  131.9103  154.5262 C   0  0  0  0  0  0  0  0  0  0  0  0
  130.5947  131.1276  153.4530 C   0  0  0  0  0  0  0  0  0  0  0  0
  131.3320  129.9805  153.6847 C   0  0  0  0  0  0  0  0  0  0  0  0
  131.6721  129.6263  154.9087 N   0  0  0  0  0  0  0  0  0  0  0  0
  131.3289  130.3418  155.9603 C   0  0  0  0  0  0  0  0  0  0  0  0
  130.5392  133.6082  157.2281 N   0  0  0  0  0  0  0  0  0  0  0  0
  131.0793  134.1619  156.6427 H   0  0  0  0  0  0  0  0  0  0  0  0
  127.5274  135.5796  163.0758 H   0  0  0  0  0  0  0  0  0  0  0  0
  126.8951  133.9262  162.8895 H   0  0  0  0  0  0  0  0  0  0  0  0
  128.5952  134.2783  162.4970 H   0  0  0  0  0  0  0  0  0  0  0  0
  125.1221  135.2998  158.6232 H   0  0  0  0  0  0  0  0  0  0  0  0
  127.6662  135.8269  158.0194 H   0  0  0  0  0  0  0  0  0  0  0  0
  129.4319  137.6603  159.8641 H   0  0  0  0  0  0  0  0  0  0  0  0
  129.3524  137.2030  161.5825 H   0  0  0  0  0  0  0  0  0  0  0  0
  131.1344  139.3912  159.8680 H   0  0  0  0  0  0  0  0  0  0  0  0
  131.5863  139.4745  161.5877 H   0  0  0  0  0  0  0  0  0  0  0  0
  133.9163  139.4717  162.2613 H   0  0  0  0  0  0  0  0  0  0  0  0
  136.8595  140.1533  159.2456 H   0  0  0  0  0  0  0  0  0  0  0  0
  135.1586  139.7904  157.5034 H   0  0  0  0  0  0  0  0  0  0  0  0
  130.6698  135.9303  158.4824 H   0  0  0  0  0  0  0  0  0  0  0  0
  129.0129  130.9065  158.1604 H   0  0  0  0  0  0  0  0  0  0  0  0
  129.6255  132.8089  154.3745 H   0  0  0  0  0  0  0  0  0  0  0  0
  130.3219  131.4071  152.4462 H   0  0  0  0  0  0  0  0  0  0  0  0
  131.6344  129.3654  152.8500 H   0  0  0  0  0  0  0  0  0  0  0  0
  131.6265  130.0195  156.9472 H   0  0  0  0  0  0  0  0  0  0  0  0
  1  2  1  0
  1 34  1  0
  1 35  1  0
  1 36  1  0
  2  6  1  0
  2  3  1  0
  3  4  2  0
  4  5  1  0
  4 37  1  0
  5  6  2  0
  5 38  1  0
  6  7  1  0
  7  8  1  1
  7  9  1  0
  7 20  1  0
  9 10  1  0
  9 39  1  0
  9 40  1  0
 10 11  1  0
 11 12  1  0
 11 41  1  0
 11 42  1  0
 12 18  1  0
 12 13  2  0
 13 14  1  0
 13 43  1  0
 14 15  1  0
 14 16  2  0
 16 17  1  0
 16 44  1  0
 17 18  2  0
 17 45  1  0
 18 19  1  0
 20 46  1  0
 21 20  1  0
 21 32  2  0
 21 22  1  0
 22 23  1  0
 22 24  1  0
 24 25  2  0
 24 47  1  0
 25 26  1  0
 25 32  1  0
 26 31  1  0
 26 27  2  0
 27 28  1  0
 27 48  1  0
 28 29  2  0
 28 49  1  0
 29 30  1  0
 29 50  1  0
 30 31  2  0
 31 51  1  0
 32 33  1  0
M  CHG  1  32   1
M  END
>  <DOCK_score>  (1) 
-59.173504

>  <SMILES>  (1) 
Cn1nccc1[C@H](CSCc1cc(F)ccc1F)Nc1[nH]cc(-c2cccnc2)[nH+]1

$$$$
