Nc1cccc(Nc2ccccc2N[C@H]2C=CC(O)CC2)c1C[NH3+]
     RDKit          3D

 49 51  0  0  1  0  0  0  0  0999 V2000
  132.6354  136.9599  160.4034 N   0  0  0  0  0  0  0  0  0  0  0  0
  132.3260  135.8862  161.2415 C   0  0  0  0  0  0  0  0  0  0  0  0
  133.0813  135.6567  162.3856 C   0  0  0  0  0  0  0  0  0  0  0  0
  132.7763  134.5947  163.2149 C   0  0  0  0  0  0  0  0  0  0  0  0
  131.7198  133.7579  162.9107 C   0  0  0  0  0  0  0  0  0  0  0  0
  130.9608  133.9813  161.7682 C   0  0  0  0  0  0  0  0  0  0  0  0
  129.8933  133.1348  161.4613 N   0  0  0  0  0  0  0  0  0  0  0  0
  130.1058  131.9983  160.6713 C   0  0  0  0  0  0  0  0  0  0  0  0
  131.3766  131.7082  160.1976 C   0  0  0  0  0  0  0  0  0  0  0  0
  131.5830  130.5885  159.4134 C   0  0  0  0  0  0  0  0  0  0  0  0
  130.5266  129.7521  159.1036 C   0  0  0  0  0  0  0  0  0  0  0  0
  129.2574  130.0303  159.5763 C   0  0  0  0  0  0  0  0  0  0  0  0
  129.0410  131.1513  160.3635 C   0  0  0  0  0  0  0  0  0  0  0  0
  127.7569  131.4353  160.8428 N   0  0  0  0  0  0  0  0  0  0  0  0
  126.6554  131.6532  159.9017 C   0  0  1  0  0  0  0  0  0  0  0  0
  126.7397  130.9429  159.0793 H   0  0  0  0  0  0  0  0  0  0  0  0
  125.3442  131.4499  160.6130 C   0  0  0  0  0  0  0  0  0  0  0  0
  124.5743  132.4129  161.0072 C   0  0  0  0  0  0  0  0  0  0  0  0
  124.8766  133.8685  160.8027 C   0  0  1  0  0  0  0  0  0  0  0  0
  124.5627  134.5897  161.9958 O   0  0  0  0  0  0  0  0  0  0  0  0
  126.3584  134.0576  160.4708 C   0  0  0  0  0  0  0  0  0  0  0  0
  126.7334  133.0787  159.3509 C   0  0  0  0  0  0  0  0  0  0  0  0
  131.2684  135.0440  160.9294 C   0  0  0  0  0  0  0  0  0  0  0  0
  130.4517  135.2859  159.6864 C   0  0  0  0  0  0  0  0  0  0  0  0
  131.0455  134.5534  158.5600 N   0  0  0  0  0  0  0  0  0  0  0  0
  131.9898  134.8752  158.4098 H   0  0  0  0  0  0  0  0  0  0  0  0
  131.0558  133.5662  158.7688 H   0  0  0  0  0  0  0  0  0  0  0  0
  130.4986  134.7152  157.7276 H   0  0  0  0  0  0  0  0  0  0  0  0
  133.3777  137.5457  160.6197 H   0  0  0  0  0  0  0  0  0  0  0  0
  132.1080  137.1198  159.6051 H   0  0  0  0  0  0  0  0  0  0  0  0
  133.9076  136.3088  162.6262 H   0  0  0  0  0  0  0  0  0  0  0  0
  133.3647  134.4186  164.1031 H   0  0  0  0  0  0  0  0  0  0  0  0
  131.4838  132.9288  163.5615 H   0  0  0  0  0  0  0  0  0  0  0  0
  129.0046  133.3340  161.7952 H   0  0  0  0  0  0  0  0  0  0  0  0
  132.2041  132.3592  160.4380 H   0  0  0  0  0  0  0  0  0  0  0  0
  132.5725  130.3663  159.0421 H   0  0  0  0  0  0  0  0  0  0  0  0
  130.6932  128.8786  158.4906 H   0  0  0  0  0  0  0  0  0  0  0  0
  128.4346  129.3745  159.3329 H   0  0  0  0  0  0  0  0  0  0  0  0
  127.5963  131.4877  161.7979 H   0  0  0  0  0  0  0  0  0  0  0  0
  125.0257  130.4360  160.8049 H   0  0  0  0  0  0  0  0  0  0  0  0
  123.6575  132.1525  161.5153 H   0  0  0  0  0  0  0  0  0  0  0  0
  124.2707  134.2515  159.9815 H   0  0  0  0  0  0  0  0  0  0  0  0
  124.7231  135.5413  161.9339 H   0  0  0  0  0  0  0  0  0  0  0  0
  126.9611  133.8509  161.3551 H   0  0  0  0  0  0  0  0  0  0  0  0
  126.5349  135.0804  160.1378 H   0  0  0  0  0  0  0  0  0  0  0  0
  126.0372  133.1889  158.5196 H   0  0  0  0  0  0  0  0  0  0  0  0
  127.7478  133.2844  159.0090 H   0  0  0  0  0  0  0  0  0  0  0  0
  129.4314  134.9381  159.8486 H   0  0  0  0  0  0  0  0  0  0  0  0
  130.4404  136.3522  159.4608 H   0  0  0  0  0  0  0  0  0  0  0  0
  1  2  1  0
  1 29  1  0
  1 30  1  0
  2 23  2  0
  2  3  1  0
  3  4  2  0
  3 31  1  0
  4  5  1  0
  4 32  1  0
  5  6  2  0
  5 33  1  0
  6  7  1  0
  6 23  1  0
  7  8  1  0
  7 34  1  0
  8 13  1  0
  8  9  2  0
  9 10  1  0
  9 35  1  0
 10 11  2  0
 10 36  1  0
 11 12  1  0
 11 37  1  0
 12 13  2  0
 12 38  1  0
 13 14  1  0
 14 15  1  0
 14 39  1  0
 15 16  1  6
 15 22  1  0
 15 17  1  0
 17 18  2  0
 17 40  1  0
 18 19  1  0
 18 41  1  0
 19 20  1  0
 19 21  1  0
 19 42  1  6
 20 43  1  0
 21 22  1  0
 21 44  1  0
 21 45  1  0
 22 46  1  0
 22 47  1  0
 23 24  1  0
 24 25  1  0
 24 48  1  0
 24 49  1  0
 25 26  1  0
 25 27  1  0
 25 28  1  0
M  CHG  1  25   1
M  END
>  <DOCK_score>  (1) 
-48.745193

>  <SMILES>  (1) 
Nc1cccc(Nc2ccccc2N[C@H]2C=CC(O)CC2)c1C[NH3+]

$$$$
