c1cc(NC2CCCC2)cc([C@@H]2CCCC(NC3=[NH+]CCN3)C2)c1
     RDKit          3D

 55 58  0  0  1  0  0  0  0  0999 V2000
  124.8479  132.6643  160.6453 C   0  0  0  0  0  0  0  0  0  0  0  0
  125.1976  133.9422  161.0358 C   0  0  0  0  0  0  0  0  0  0  0  0
  126.4676  134.4293  160.7555 C   0  0  0  0  0  0  0  0  0  0  0  0
  126.8247  135.7209  161.1493 N   0  0  0  0  0  0  0  0  0  0  0  0
  128.2199  136.0281  161.4743 C   0  0  0  0  0  0  0  0  0  0  0  0
  128.6742  135.1971  162.6918 C   0  0  0  0  0  0  0  0  0  0  0  0
  129.5965  136.1568  163.4840 C   0  0  0  0  0  0  0  0  0  0  0  0
  128.8850  137.5234  163.3251 C   0  0  0  0  0  0  0  0  0  0  0  0
  128.3539  137.5072  161.8768 C   0  0  0  0  0  0  0  0  0  0  0  0
  127.3824  133.6287  160.0827 C   0  0  0  0  0  0  0  0  0  0  0  0
  127.0243  132.3542  159.6900 C   0  0  0  0  0  0  0  0  0  0  0  0
  128.0137  131.4874  158.9546 C   0  0  2  0  0  0  0  0  0  0  0  0
  127.4790  130.8112  158.2876 H   0  0  0  0  0  0  0  0  0  0  0  0
  128.8261  130.6726  159.9630 C   0  0  0  0  0  0  0  0  0  0  0  0
  129.8307  129.7926  159.2166 C   0  0  0  0  0  0  0  0  0  0  0  0
  130.7735  130.6768  158.3977 C   0  0  0  0  0  0  0  0  0  0  0  0
  129.9611  131.4916  157.3893 C   0  0  2  0  0  0  0  0  0  0  0  0
  130.8638  132.3382  156.6053 N   0  0  0  0  0  0  0  0  0  0  0  0
  130.9269  132.1959  155.2463 C   0  0  0  0  0  0  0  0  0  0  0  0
  131.2100  133.2016  154.4347 N   0  0  0  0  0  0  0  0  0  0  0  0
  131.3950  134.1124  154.7125 H   0  0  0  0  0  0  0  0  0  0  0  0
  131.2030  132.7197  153.0446 C   0  0  0  0  0  0  0  0  0  0  0  0
  130.8491  131.2253  153.1848 C   0  0  0  0  0  0  0  0  0  0  0  0
  130.7044  131.0425  154.6375 N   0  0  0  0  0  0  0  0  0  0  0  0
  128.9565  132.3716  158.1359 C   0  0  0  0  0  0  0  0  0  0  0  0
  125.7606  131.8702  159.9759 C   0  0  0  0  0  0  0  0  0  0  0  0
  123.8605  132.2848  160.8634 H   0  0  0  0  0  0  0  0  0  0  0  0
  124.4840  134.5621  161.5584 H   0  0  0  0  0  0  0  0  0  0  0  0
  126.1492  136.4144  161.2078 H   0  0  0  0  0  0  0  0  0  0  0  0
  128.8583  135.8153  160.6169 H   0  0  0  0  0  0  0  0  0  0  0  0
  127.8156  134.9068  163.2974 H   0  0  0  0  0  0  0  0  0  0  0  0
  129.2286  134.3165  162.3674 H   0  0  0  0  0  0  0  0  0  0  0  0
  130.5930  136.1865  163.0432 H   0  0  0  0  0  0  0  0  0  0  0  0
  129.6457  135.8666  164.5336 H   0  0  0  0  0  0  0  0  0  0  0  0
  129.5931  138.3405  163.4626 H   0  0  0  0  0  0  0  0  0  0  0  0
  128.0606  137.6111  164.0327 H   0  0  0  0  0  0  0  0  0  0  0  0
  129.0579  138.0119  161.2152 H   0  0  0  0  0  0  0  0  0  0  0  0
  127.3810  137.9967  161.8295 H   0  0  0  0  0  0  0  0  0  0  0  0
  128.3708  134.0044  159.8631 H   0  0  0  0  0  0  0  0  0  0  0  0
  129.3608  131.3490  160.6301 H   0  0  0  0  0  0  0  0  0  0  0  0
  128.1546  130.0428  160.5464 H   0  0  0  0  0  0  0  0  0  0  0  0
  130.4094  129.2122  159.9350 H   0  0  0  0  0  0  0  0  0  0  0  0
  129.2960  129.1163  158.5496 H   0  0  0  0  0  0  0  0  0  0  0  0
  131.3082  131.3531  159.0647 H   0  0  0  0  0  0  0  0  0  0  0  0
  131.4892  130.0499  157.8659 H   0  0  0  0  0  0  0  0  0  0  0  0
  129.4264  130.8153  156.7224 H   0  0  0  0  0  0  0  0  0  0  0  0
  131.4166  132.9997  157.0499 H   0  0  0  0  0  0  0  0  0  0  0  0
  132.1852  132.8404  152.5877 H   0  0  0  0  0  0  0  0  0  0  0  0
  130.4433  133.2413  152.4624 H   0  0  0  0  0  0  0  0  0  0  0  0
  131.6549  130.6020  152.7977 H   0  0  0  0  0  0  0  0  0  0  0  0
  129.9125  131.0007  152.6744 H   0  0  0  0  0  0  0  0  0  0  0  0
  130.4814  130.2082  155.0791 H   0  0  0  0  0  0  0  0  0  0  0  0
  128.3778  132.9522  157.4173 H   0  0  0  0  0  0  0  0  0  0  0  0
  129.4912  133.0480  158.8027 H   0  0  0  0  0  0  0  0  0  0  0  0
  125.4847  130.8714  159.6717 H   0  0  0  0  0  0  0  0  0  0  0  0
  1 26  2  0
  1  2  1  0
  1 27  1  0
  2  3  2  0
  2 28  1  0
  3  4  1  0
  3 10  1  0
  4  5  1  0
  4 29  1  0
  5  9  1  0
  5  6  1  0
  5 30  1  0
  6  7  1  0
  6 31  1  0
  6 32  1  0
  7  8  1  0
  7 33  1  0
  7 34  1  0
  8  9  1  0
  8 35  1  0
  8 36  1  0
  9 37  1  0
  9 38  1  0
 10 11  2  0
 10 39  1  0
 11 12  1  0
 11 26  1  0
 12 13  1  6
 12 25  1  0
 12 14  1  0
 14 15  1  0
 14 40  1  0
 14 41  1  0
 15 16  1  0
 15 42  1  0
 15 43  1  0
 16 17  1  0
 16 44  1  0
 16 45  1  0
 17 18  1  0
 17 25  1  0
 17 46  1  6
 18 19  1  0
 18 47  1  0
 19 24  2  0
 19 20  1  0
 20 21  1  0
 20 22  1  0
 22 23  1  0
 22 48  1  0
 22 49  1  0
 23 24  1  0
 23 50  1  0
 23 51  1  0
 24 52  1  0
 25 53  1  0
 25 54  1  0
 26 55  1  0
M  CHG  1  24   1
M  END
>  <DOCK_score>  (1) 
-42.673386

>  <SMILES>  (1) 
c1cc(NC2CCCC2)cc([C@@H]2CCCC(NC3=[NH+]CCN3)C2)c1

$$$$
