O=C1CCC(NC(NC[C@H]2CCCc3nccn32)=[NH+]C2COc3cc(Cl)ccc3C2)CN1
     RDKit          3D

 62 66  0  0  1  0  0  0  0  0999 V2000
  123.9254  133.5478  161.8221 O   0  0  0  0  0  0  0  0  0  0  0  0
  125.0985  133.8142  161.6684 C   0  0  0  0  0  0  0  0  0  0  0  0
  125.9910  132.7697  161.0620 C   0  0  0  0  0  0  0  0  0  0  0  0
  127.4564  133.1069  161.3480 C   0  0  0  0  0  0  0  0  0  0  0  0
  127.6951  134.5775  160.9847 C   0  0  2  0  0  0  0  0  0  0  0  0
  129.1247  134.8823  161.0827 N   0  0  0  0  0  0  0  0  0  0  0  0
  129.9389  134.7199  159.9870 C   0  0  0  0  0  0  0  0  0  0  0  0
  129.4114  134.2715  158.7991 N   0  0  0  0  0  0  0  0  0  0  0  0
  130.2789  134.0984  157.6314 C   0  0  0  0  0  0  0  0  0  0  0  0
  129.7321  132.9722  156.7521 C   0  0  1  0  0  0  0  0  0  0  0  0
  128.6445  133.0347  156.7125 H   0  0  0  0  0  0  0  0  0  0  0  0
  130.3059  133.1005  155.3368 C   0  0  0  0  0  0  0  0  0  0  0  0
  129.9583  131.8468  154.5287 C   0  0  0  0  0  0  0  0  0  0  0  0
  130.7527  130.6550  155.0781 C   0  0  0  0  0  0  0  0  0  0  0  0
  130.5908  130.6317  156.5796 C   0  0  0  0  0  0  0  0  0  0  0  0
  130.8537  129.6464  157.3874 N   0  0  0  0  0  0  0  0  0  0  0  0
  130.5742  130.0205  158.6465 C   0  0  0  0  0  0  0  0  0  0  0  0
  130.1208  131.2901  158.6148 C   0  0  0  0  0  0  0  0  0  0  0  0
  130.1320  131.6772  157.3078 N   0  0  0  0  0  0  0  0  0  0  0  0
  131.2107  134.9912  160.0741 N   0  0  0  0  0  0  0  0  0  0  0  0
  131.6950  135.3019  159.2932 H   0  0  0  0  0  0  0  0  0  0  0  0
  131.9102  134.8211  161.3501 C   0  0  2  0  0  0  0  0  0  0  0  0
  131.8659  136.1335  162.1431 C   0  0  0  0  0  0  0  0  0  0  0  0
  132.4639  135.9085  163.4202 O   0  0  0  0  0  0  0  0  0  0  0  0
  133.6732  135.2908  163.4557 C   0  0  0  0  0  0  0  0  0  0  0  0
  134.4291  135.3781  164.6204 C   0  0  0  0  0  0  0  0  0  0  0  0
  135.6597  134.7568  164.6983 C   0  0  0  0  0  0  0  0  0  0  0  0
  136.5997  134.8695  166.1535 Cl  0  0  0  0  0  0  0  0  0  0  0  0
  136.1433  134.0442  163.6147 C   0  0  0  0  0  0  0  0  0  0  0  0
  135.3954  133.9570  162.4573 C   0  0  0  0  0  0  0  0  0  0  0  0
  134.1610  134.5795  162.3734 C   0  0  0  0  0  0  0  0  0  0  0  0
  133.3760  134.4642  161.0912 C   0  0  0  0  0  0  0  0  0  0  0  0
  126.9149  135.4564  161.9631 C   0  0  0  0  0  0  0  0  0  0  0  0
  125.5269  135.0192  162.0463 N   0  0  0  0  0  0  0  0  0  0  0  0
  125.8305  132.7374  159.9845 H   0  0  0  0  0  0  0  0  0  0  0  0
  125.7527  131.7972  161.4929 H   0  0  0  0  0  0  0  0  0  0  0  0
  128.1040  132.4702  160.7451 H   0  0  0  0  0  0  0  0  0  0  0  0
  127.6693  132.9510  162.4055 H   0  0  0  0  0  0  0  0  0  0  0  0
  127.3504  134.7635  159.9675 H   0  0  0  0  0  0  0  0  0  0  0  0
  129.4967  135.1986  161.9208 H   0  0  0  0  0  0  0  0  0  0  0  0
  128.4649  134.0698  158.7341 H   0  0  0  0  0  0  0  0  0  0  0  0
  130.3067  135.0256  157.0587 H   0  0  0  0  0  0  0  0  0  0  0  0
  131.2864  133.8452  157.9616 H   0  0  0  0  0  0  0  0  0  0  0  0
  129.8783  133.9769  154.8496 H   0  0  0  0  0  0  0  0  0  0  0  0
  131.3891  133.2082  155.3923 H   0  0  0  0  0  0  0  0  0  0  0  0
  128.8909  131.6431  154.6139 H   0  0  0  0  0  0  0  0  0  0  0  0
  130.2170  132.0052  153.4818 H   0  0  0  0  0  0  0  0  0  0  0  0
  130.3673  129.7286  154.6523 H   0  0  0  0  0  0  0  0  0  0  0  0
  131.8065  130.7665  154.8229 H   0  0  0  0  0  0  0  0  0  0  0  0
  130.6918  129.4108  159.5301 H   0  0  0  0  0  0  0  0  0  0  0  0
  129.8089  131.8848  159.4606 H   0  0  0  0  0  0  0  0  0  0  0  0
  131.4351  134.0273  161.9264 H   0  0  0  0  0  0  0  0  0  0  0  0
  132.4217  136.9042  161.6090 H   0  0  0  0  0  0  0  0  0  0  0  0
  130.8307  136.4497  162.2722 H   0  0  0  0  0  0  0  0  0  0  0  0
  134.0523  135.9342  165.4662 H   0  0  0  0  0  0  0  0  0  0  0  0
  137.1054  133.5571  163.6743 H   0  0  0  0  0  0  0  0  0  0  0  0
  135.7751  133.4006  161.6130 H   0  0  0  0  0  0  0  0  0  0  0  0
  133.4401  133.4424  160.7174 H   0  0  0  0  0  0  0  0  0  0  0  0
  133.7905  135.1480  160.3503 H   0  0  0  0  0  0  0  0  0  0  0  0
  127.3729  135.3913  162.9501 H   0  0  0  0  0  0  0  0  0  0  0  0
  126.9467  136.4911  161.6221 H   0  0  0  0  0  0  0  0  0  0  0  0
  124.8738  135.6439  162.3988 H   0  0  0  0  0  0  0  0  0  0  0  0
  1  2  2  0
  2 34  1  0
  2  3  1  0
  3  4  1  0
  3 35  1  0
  3 36  1  0
  4  5  1  0
  4 37  1  0
  4 38  1  0
  5  6  1  0
  5 33  1  0
  5 39  1  6
  6 40  1  0
  7  6  1  0
  7  8  1  0
  7 20  2  0
  8  9  1  0
  8 41  1  0
  9 10  1  0
  9 42  1  0
  9 43  1  0
 10 11  1  6
 10 19  1  0
 10 12  1  0
 12 13  1  0
 12 44  1  0
 12 45  1  0
 13 14  1  0
 13 46  1  0
 13 47  1  0
 14 15  1  0
 14 48  1  0
 14 49  1  0
 15 19  1  0
 15 16  2  0
 16 17  1  0
 17 18  2  0
 17 50  1  0
 18 19  1  0
 18 51  1  0
 20 21  1  0
 20 22  1  0
 22 32  1  0
 22 23  1  0
 22 52  1  1
 23 24  1  0
 23 53  1  0
 23 54  1  0
 24 25  1  0
 25 31  2  0
 25 26  1  0
 26 27  2  0
 26 55  1  0
 27 28  1  0
 27 29  1  0
 29 30  2  0
 29 56  1  0
 30 31  1  0
 30 57  1  0
 31 32  1  0
 32 58  1  0
 32 59  1  0
 33 34  1  0
 33 60  1  0
 33 61  1  0
 34 62  1  0
M  CHG  1  20   1
M  END
>  <DOCK_score>  (1) 
-52.154373

>  <SMILES>  (1) 
O=C1CCC(NC(NC[C@H]2CCCc3nccn32)=[NH+]C2COc3cc(Cl)ccc3C2)CN1

$$$$
