c1ccc(C[C@H](Nc2[nH]cc(-c3ccc(NCc4cccc5ccccc45)cc3)[nH+]2)c2ccccc2)cc1
     RDKit          3D

 69 74  0  0  1  0  0  0  0  0999 V2000
  125.3333  134.1108  161.8244 C   0  0  0  0  0  0  0  0  0  0  0  0
  125.5784  132.7720  161.5821 C   0  0  0  0  0  0  0  0  0  0  0  0
  126.3453  132.3954  160.4953 C   0  0  0  0  0  0  0  0  0  0  0  0
  126.8668  133.3574  159.6508 C   0  0  0  0  0  0  0  0  0  0  0  0
  127.7032  132.9468  158.4662 C   0  0  0  0  0  0  0  0  0  0  0  0
  129.1738  132.8720  158.8817 C   0  0  2  0  0  0  0  0  0  0  0  0
  129.2486  132.4333  159.8765 H   0  0  0  0  0  0  0  0  0  0  0  0
  129.7457  134.2207  158.8986 N   0  0  0  0  0  0  0  0  0  0  0  0
  130.7719  134.5266  159.7761 C   0  0  0  0  0  0  0  0  0  0  0  0
  131.3299  133.6686  160.6728 N   0  0  0  0  0  0  0  0  0  0  0  0
  131.0827  132.7410  160.8112 H   0  0  0  0  0  0  0  0  0  0  0  0
  132.3090  134.3597  161.3467 C   0  0  0  0  0  0  0  0  0  0  0  0
  132.3200  135.6182  160.8420 C   0  0  0  0  0  0  0  0  0  0  0  0
  133.2168  136.7212  161.2667 C   0  0  0  0  0  0  0  0  0  0  0  0
  132.7848  138.0438  161.1823 C   0  0  0  0  0  0  0  0  0  0  0  0
  133.6199  139.0673  161.5780 C   0  0  0  0  0  0  0  0  0  0  0  0
  134.8912  138.7808  162.0609 C   0  0  0  0  0  0  0  0  0  0  0  0
  135.7354  139.8193  162.4617 N   0  0  0  0  0  0  0  0  0  0  0  0
  135.1756  141.1318  162.7935 C   0  0  0  0  0  0  0  0  0  0  0  0
  136.0410  141.7994  163.8310 C   0  0  0  0  0  0  0  0  0  0  0  0
  137.0780  142.5939  163.4485 C   0  0  0  0  0  0  0  0  0  0  0  0
  137.8889  143.2194  164.3933 C   0  0  0  0  0  0  0  0  0  0  0  0
  137.6678  143.0540  165.7261 C   0  0  0  0  0  0  0  0  0  0  0  0
  136.6065  142.2415  166.1593 C   0  0  0  0  0  0  0  0  0  0  0  0
  136.3505  142.0424  167.5268 C   0  0  0  0  0  0  0  0  0  0  0  0
  135.3105  141.2521  167.9090 C   0  0  0  0  0  0  0  0  0  0  0  0
  134.4992  140.6268  166.9639 C   0  0  0  0  0  0  0  0  0  0  0  0
  134.7199  140.7923  165.6313 C   0  0  0  0  0  0  0  0  0  0  0  0
  135.7812  141.6056  165.1981 C   0  0  0  0  0  0  0  0  0  0  0  0
  135.3262  137.4633  162.1405 C   0  0  0  0  0  0  0  0  0  0  0  0
  134.4926  136.4362  161.7509 C   0  0  0  0  0  0  0  0  0  0  0  0
  131.3620  135.6920  159.8844 N   0  0  0  0  0  0  0  0  0  0  0  0
  131.1495  136.4807  159.3611 H   0  0  0  0  0  0  0  0  0  0  0  0
  129.9309  132.0178  157.8977 C   0  0  0  0  0  0  0  0  0  0  0  0
  130.0469  130.6568  158.1100 C   0  0  0  0  0  0  0  0  0  0  0  0
  130.7380  129.8726  157.2053 C   0  0  0  0  0  0  0  0  0  0  0  0
  131.3201  130.4507  156.0927 C   0  0  0  0  0  0  0  0  0  0  0  0
  131.2085  131.8126  155.8832 C   0  0  0  0  0  0  0  0  0  0  0  0
  130.5140  132.5961  156.7859 C   0  0  0  0  0  0  0  0  0  0  0  0
  126.6261  134.6963  159.8960 C   0  0  0  0  0  0  0  0  0  0  0  0
  125.8549  135.0729  160.9798 C   0  0  0  0  0  0  0  0  0  0  0  0
  124.7345  134.4051  162.6736 H   0  0  0  0  0  0  0  0  0  0  0  0
  125.1712  132.0205  162.2422 H   0  0  0  0  0  0  0  0  0  0  0  0
  126.5370  131.3495  160.3063 H   0  0  0  0  0  0  0  0  0  0  0  0
  127.5879  133.6804  157.6683 H   0  0  0  0  0  0  0  0  0  0  0  0
  127.3757  131.9696  158.1115 H   0  0  0  0  0  0  0  0  0  0  0  0
  129.4054  134.8995  158.2950 H   0  0  0  0  0  0  0  0  0  0  0  0
  132.9474  133.9740  162.1277 H   0  0  0  0  0  0  0  0  0  0  0  0
  131.7969  138.2668  160.8072 H   0  0  0  0  0  0  0  0  0  0  0  0
  133.2856  140.0921  161.5129 H   0  0  0  0  0  0  0  0  0  0  0  0
  136.6923  139.6714  162.5200 H   0  0  0  0  0  0  0  0  0  0  0  0
  134.1668  141.0074  163.1872 H   0  0  0  0  0  0  0  0  0  0  0  0
  135.1417  141.7497  161.8963 H   0  0  0  0  0  0  0  0  0  0  0  0
  137.2754  142.7415  162.3971 H   0  0  0  0  0  0  0  0  0  0  0  0
  138.7055  143.8444  164.0630 H   0  0  0  0  0  0  0  0  0  0  0  0
  138.3046  143.5450  166.4471 H   0  0  0  0  0  0  0  0  0  0  0  0
  136.9736  142.5169  168.2703 H   0  0  0  0  0  0  0  0  0  0  0  0
  135.1134  141.1040  168.9605 H   0  0  0  0  0  0  0  0  0  0  0  0
  133.6826  140.0016  167.2941 H   0  0  0  0  0  0  0  0  0  0  0  0
  134.0826  140.3017  164.9104 H   0  0  0  0  0  0  0  0  0  0  0  0
  136.3163  137.2433  162.5116 H   0  0  0  0  0  0  0  0  0  0  0  0
  134.8293  135.4122  161.8170 H   0  0  0  0  0  0  0  0  0  0  0  0
  129.5951  130.2056  158.9810 H   0  0  0  0  0  0  0  0  0  0  0  0
  130.8256  128.8088  157.3692 H   0  0  0  0  0  0  0  0  0  0  0  0
  131.8623  129.8385  155.3873 H   0  0  0  0  0  0  0  0  0  0  0  0
  131.6635  132.2642  155.0141 H   0  0  0  0  0  0  0  0  0  0  0  0
  130.4268  133.6600  156.6221 H   0  0  0  0  0  0  0  0  0  0  0  0
  127.0373  135.4482  159.2386 H   0  0  0  0  0  0  0  0  0  0  0  0
  125.6637  136.1186  161.1692 H   0  0  0  0  0  0  0  0  0  0  0  0
  1 41  2  0
  1  2  1  0
  1 42  1  0
  2  3  2  0
  2 43  1  0
  3  4  1  0
  3 44  1  0
  4  5  1  0
  4 40  2  0
  5  6  1  0
  5 45  1  0
  5 46  1  0
  6  7  1  1
  6  8  1  0
  6 34  1  0
  8 47  1  0
  9  8  1  0
  9 32  2  0
  9 10  1  0
 10 11  1  0
 10 12  1  0
 12 13  2  0
 12 48  1  0
 13 14  1  0
 13 32  1  0
 14 31  1  0
 14 15  2  0
 15 16  1  0
 15 49  1  0
 16 17  2  0
 16 50  1  0
 17 18  1  0
 17 30  1  0
 18 19  1  0
 18 51  1  0
 19 20  1  0
 19 52  1  0
 19 53  1  0
 20 29  1  0
 20 21  2  0
 21 22  1  0
 21 54  1  0
 22 23  2  0
 22 55  1  0
 23 24  1  0
 23 56  1  0
 24 29  2  0
 24 25  1  0
 25 26  2  0
 25 57  1  0
 26 27  1  0
 26 58  1  0
 27 28  2  0
 27 59  1  0
 28 29  1  0
 28 60  1  0
 30 31  2  0
 30 61  1  0
 31 62  1  0
 32 33  1  0
 34 39  1  0
 34 35  2  0
 35 36  1  0
 35 63  1  0
 36 37  2  0
 36 64  1  0
 37 38  1  0
 37 65  1  0
 38 39  2  0
 38 66  1  0
 39 67  1  0
 40 41  1  0
 40 68  1  0
 41 69  1  0
M  CHG  1  32   1
M  END
>  <DOCK_score>  (1) 
-58.459606

>  <SMILES>  (1) 
c1ccc(C[C@H](Nc2[nH]cc(-c3ccc(NCc4cccc5ccccc45)cc3)[nH+]2)c2ccccc2)cc1

$$$$
