CCc1ccc(C=C[C@@H](CCCCl)Nc2[nH]cc(-c3ccc(CC)cc3)[nH+]2)cc1
     RDKit          3D

 60 62  0  0  1  0  0  0  0  0999 V2000
  135.6812  139.9830  164.6544 C   0  0  0  0  0  0  0  0  0  0  0  0
  135.0860  140.4746  163.3335 C   0  0  0  0  0  0  0  0  0  0  0  0
  134.2680  139.3729  162.7103 C   0  0  0  0  0  0  0  0  0  0  0  0
  132.9220  139.2611  163.0093 C   0  0  0  0  0  0  0  0  0  0  0  0
  132.1666  138.2576  162.4382 C   0  0  0  0  0  0  0  0  0  0  0  0
  132.7654  137.3480  161.5658 C   0  0  0  0  0  0  0  0  0  0  0  0
  131.9634  136.2670  160.9552 C   0  0  0  0  0  0  0  0  0  0  0  0
  130.6430  136.3716  160.8996 C   0  0  0  0  0  0  0  0  0  0  0  0
  129.8253  135.2695  160.2771 C   0  0  1  0  0  0  0  0  0  0  0  0
  129.9931  134.3405  160.8220 H   0  0  0  0  0  0  0  0  0  0  0  0
  128.3414  135.6371  160.3404 C   0  0  0  0  0  0  0  0  0  0  0  0
  127.8012  135.3379  161.7402 C   0  0  0  0  0  0  0  0  0  0  0  0
  126.3173  135.7055  161.8035 C   0  0  0  0  0  0  0  0  0  0  0  0
  125.4056  134.7357  160.5872 Cl  0  0  0  0  0  0  0  0  0  0  0  0
  130.2258  135.0943  158.8787 N   0  0  0  0  0  0  0  0  0  0  0  0
  130.1296  133.8490  158.2819 C   0  0  0  0  0  0  0  0  0  0  0  0
  129.6756  132.7151  158.8823 N   0  0  0  0  0  0  0  0  0  0  0  0
  129.3639  132.6349  159.7973 H   0  0  0  0  0  0  0  0  0  0  0  0
  129.7403  131.7053  157.9533 C   0  0  0  0  0  0  0  0  0  0  0  0
  130.2316  132.2505  156.8129 C   0  0  0  0  0  0  0  0  0  0  0  0
  130.4755  131.5339  155.5374 C   0  0  0  0  0  0  0  0  0  0  0  0
  129.8131  131.9277  154.3761 C   0  0  0  0  0  0  0  0  0  0  0  0
  130.0482  131.2610  153.1908 C   0  0  0  0  0  0  0  0  0  0  0  0
  130.9304  130.1962  153.1564 C   0  0  0  0  0  0  0  0  0  0  0  0
  131.1778  129.4681  151.8604 C   0  0  0  0  0  0  0  0  0  0  0  0
  130.1807  128.3152  151.7248 C   0  0  0  0  0  0  0  0  0  0  0  0
  131.5867  129.7974  154.3072 C   0  0  0  0  0  0  0  0  0  0  0  0
  131.3636  130.4605  155.4968 C   0  0  0  0  0  0  0  0  0  0  0  0
  130.4556  133.5686  157.0437 N   0  0  0  0  0  0  0  0  0  0  0  0
  130.8039  134.2018  156.3966 H   0  0  0  0  0  0  0  0  0  0  0  0
  134.1247  137.4633  161.2724 C   0  0  0  0  0  0  0  0  0  0  0  0
  134.8679  138.4744  161.8460 C   0  0  0  0  0  0  0  0  0  0  0  0
  134.8763  139.7000  165.3327 H   0  0  0  0  0  0  0  0  0  0  0  0
  136.3186  139.1189  164.4665 H   0  0  0  0  0  0  0  0  0  0  0  0
  136.2729  140.7797  165.1051 H   0  0  0  0  0  0  0  0  0  0  0  0
  135.8910  140.7575  162.6553 H   0  0  0  0  0  0  0  0  0  0  0  0
  134.4486  141.3386  163.5215 H   0  0  0  0  0  0  0  0  0  0  0  0
  132.4606  139.9631  163.6879 H   0  0  0  0  0  0  0  0  0  0  0  0
  131.1148  138.1737  162.6692 H   0  0  0  0  0  0  0  0  0  0  0  0
  132.4531  135.3917  160.5546 H   0  0  0  0  0  0  0  0  0  0  0  0
  130.1534  137.2470  161.3002 H   0  0  0  0  0  0  0  0  0  0  0  0
  128.2206  136.6985  160.1235 H   0  0  0  0  0  0  0  0  0  0  0  0
  127.7902  135.0509  159.6051 H   0  0  0  0  0  0  0  0  0  0  0  0
  127.9221  134.2765  161.9570 H   0  0  0  0  0  0  0  0  0  0  0  0
  128.3524  135.9240  162.4754 H   0  0  0  0  0  0  0  0  0  0  0  0
  125.9324  135.4923  162.8005 H   0  0  0  0  0  0  0  0  0  0  0  0
  126.1965  136.7668  161.5865 H   0  0  0  0  0  0  0  0  0  0  0  0
  130.5582  135.8511  158.3712 H   0  0  0  0  0  0  0  0  0  0  0  0
  129.4544  130.6746  158.1024 H   0  0  0  0  0  0  0  0  0  0  0  0
  129.1202  132.7557  154.4027 H   0  0  0  0  0  0  0  0  0  0  0  0
  129.5387  131.5680  152.2894 H   0  0  0  0  0  0  0  0  0  0  0  0
  131.0516  130.1576  151.0262 H   0  0  0  0  0  0  0  0  0  0  0  0
  132.1935  129.0719  151.8544 H   0  0  0  0  0  0  0  0  0  0  0  0
  130.3068  127.6253  152.5593 H   0  0  0  0  0  0  0  0  0  0  0  0
  129.1650  128.7110  151.7311 H   0  0  0  0  0  0  0  0  0  0  0  0
  130.3596  127.7884  150.7876 H   0  0  0  0  0  0  0  0  0  0  0  0
  132.2747  128.9655  154.2746 H   0  0  0  0  0  0  0  0  0  0  0  0
  131.8766  130.1484  156.3945 H   0  0  0  0  0  0  0  0  0  0  0  0
  134.5942  136.7623  160.5982 H   0  0  0  0  0  0  0  0  0  0  0  0
  135.9202  138.5645  161.6201 H   0  0  0  0  0  0  0  0  0  0  0  0
  1  2  1  0
  1 33  1  0
  1 34  1  0
  1 35  1  0
  2  3  1  0
  2 36  1  0
  2 37  1  0
  3 32  2  0
  3  4  1  0
  4  5  2  0
  4 38  1  0
  5  6  1  0
  5 39  1  0
  6  7  1  0
  6 31  2  0
  7  8  2  0
  7 40  1  0
  8  9  1  0
  8 41  1  0
  9 10  1  1
  9 11  1  0
  9 15  1  0
 11 12  1  0
 11 42  1  0
 11 43  1  0
 12 13  1  0
 12 44  1  0
 12 45  1  0
 13 14  1  0
 13 46  1  0
 13 47  1  0
 15 48  1  0
 16 15  1  0
 16 29  2  0
 16 17  1  0
 17 18  1  0
 17 19  1  0
 19 20  2  0
 19 49  1  0
 20 21  1  0
 20 29  1  0
 21 28  1  0
 21 22  2  0
 22 23  1  0
 22 50  1  0
 23 24  2  0
 23 51  1  0
 24 25  1  0
 24 27  1  0
 25 26  1  0
 25 52  1  0
 25 53  1  0
 26 54  1  0
 26 55  1  0
 26 56  1  0
 27 28  2  0
 27 57  1  0
 28 58  1  0
 29 30  1  0
 31 32  1  0
 31 59  1  0
 32 60  1  0
M  CHG  1  29   1
M  END
>  <DOCK_score>  (1) 
-58.822472

>  <SMILES>  (1) 
CCc1ccc(C=C[C@@H](CCCCl)Nc2[nH]cc(-c3ccc(CC)cc3)[nH+]2)cc1

$$$$
