O=C(NC1CCC=C(Cc2ccccn2)C1)C(=O)N[C@H]1CC[NH2+]C2(CCC2)C1
     RDKit          3D

 59 62  0  0  1  0  0  0  0  0999 V2000
  128.4734  137.5378  163.0610 O   0  0  0  0  0  0  0  0  0  0  0  0
  127.4587  137.2242  162.4738 C   0  0  0  0  0  0  0  0  0  0  0  0
  126.2640  137.6754  162.9046 N   0  0  0  0  0  0  0  0  0  0  0  0
  126.1904  138.5446  164.0818 C   0  0  1  0  0  0  0  0  0  0  0  0
  126.7826  137.8188  165.2964 C   0  0  0  0  0  0  0  0  0  0  0  0
  126.5318  138.6735  166.5405 C   0  0  0  0  0  0  0  0  0  0  0  0
  126.9573  140.0904  166.2888 C   0  0  0  0  0  0  0  0  0  0  0  0
  127.1585  140.5887  165.1111 C   0  0  0  0  0  0  0  0  0  0  0  0
  127.5739  142.0343  165.0171 C   0  0  0  0  0  0  0  0  0  0  0  0
  128.9157  142.1282  164.3375 C   0  0  0  0  0  0  0  0  0  0  0  0
  130.0704  142.0774  165.0957 C   0  0  0  0  0  0  0  0  0  0  0  0
  131.2997  142.1641  164.4607 C   0  0  0  0  0  0  0  0  0  0  0  0
  131.3217  142.2993  163.0808 C   0  0  0  0  0  0  0  0  0  0  0  0
  130.1261  142.3428  162.3893 C   0  0  0  0  0  0  0  0  0  0  0  0
  128.9747  142.2523  163.0262 N   0  0  0  0  0  0  0  0  0  0  0  0
  127.0042  139.8165  163.8337 C   0  0  0  0  0  0  0  0  0  0  0  0
  127.5339  136.3376  161.2732 C   0  0  0  0  0  0  0  0  0  0  0  0
  126.5192  136.0240  160.6861 O   0  0  0  0  0  0  0  0  0  0  0  0
  128.7286  135.8864  160.8424 N   0  0  0  0  0  0  0  0  0  0  0  0
  128.8023  135.0174  159.6652 C   0  0  1  0  0  0  0  0  0  0  0  0
  127.8888  134.4274  159.5897 H   0  0  0  0  0  0  0  0  0  0  0  0
  128.9672  135.8731  158.4062 C   0  0  0  0  0  0  0  0  0  0  0  0
  129.0823  134.9624  157.1825 C   0  0  0  0  0  0  0  0  0  0  0  0
  130.2719  134.1102  157.3109 N   0  0  0  0  0  0  0  0  0  0  0  0
  131.0937  134.6904  157.3894 H   0  0  0  0  0  0  0  0  0  0  0  0
  130.3526  133.5223  156.4949 H   0  0  0  0  0  0  0  0  0  0  0  0
  130.1511  133.2716  158.5061 C   0  0  0  0  0  0  0  0  0  0  0  0
  129.1068  132.1558  158.3684 C   0  0  0  0  0  0  0  0  0  0  0  0
  130.2382  131.2771  157.8078 C   0  0  0  0  0  0  0  0  0  0  0  0
  131.2153  132.1697  158.5921 C   0  0  0  0  0  0  0  0  0  0  0  0
  130.0085  134.0806  159.7941 C   0  0  0  0  0  0  0  0  0  0  0  0
  125.4530  137.4248  162.4353 H   0  0  0  0  0  0  0  0  0  0  0  0
  125.1510  138.8072  164.2789 H   0  0  0  0  0  0  0  0  0  0  0  0
  126.2999  136.8487  165.4148 H   0  0  0  0  0  0  0  0  0  0  0  0
  127.8542  137.6797  165.1534 H   0  0  0  0  0  0  0  0  0  0  0  0
  125.4697  138.6532  166.7848 H   0  0  0  0  0  0  0  0  0  0  0  0
  127.1027  138.2703  167.3771 H   0  0  0  0  0  0  0  0  0  0  0  0
  127.1050  140.7342  167.1432 H   0  0  0  0  0  0  0  0  0  0  0  0
  126.8342  142.5881  164.4389 H   0  0  0  0  0  0  0  0  0  0  0  0
  127.6436  142.4581  166.0189 H   0  0  0  0  0  0  0  0  0  0  0  0
  130.0157  141.9718  166.1691 H   0  0  0  0  0  0  0  0  0  0  0  0
  132.2184  142.1269  165.0272 H   0  0  0  0  0  0  0  0  0  0  0  0
  132.2613  142.3693  162.5531 H   0  0  0  0  0  0  0  0  0  0  0  0
  130.1346  142.4479  161.3145 H   0  0  0  0  0  0  0  0  0  0  0  0
  127.9895  139.5465  163.4535 H   0  0  0  0  0  0  0  0  0  0  0  0
  126.4920  140.4353  163.0970 H   0  0  0  0  0  0  0  0  0  0  0  0
  129.5395  136.1371  161.3116 H   0  0  0  0  0  0  0  0  0  0  0  0
  128.1009  136.5250  158.2939 H   0  0  0  0  0  0  0  0  0  0  0  0
  129.8690  136.4791  158.4943 H   0  0  0  0  0  0  0  0  0  0  0  0
  129.1684  135.5724  156.2832 H   0  0  0  0  0  0  0  0  0  0  0  0
  128.1930  134.3360  157.1121 H   0  0  0  0  0  0  0  0  0  0  0  0
  128.7135  131.8052  159.3227 H   0  0  0  0  0  0  0  0  0  0  0  0
  128.3244  132.3766  157.6423 H   0  0  0  0  0  0  0  0  0  0  0  0
  130.3525  131.3502  156.7262 H   0  0  0  0  0  0  0  0  0  0  0  0
  130.2085  130.2466  158.1616 H   0  0  0  0  0  0  0  0  0  0  0  0
  132.1297  132.4017  158.0460 H   0  0  0  0  0  0  0  0  0  0  0  0
  131.4042  131.8231  159.6082 H   0  0  0  0  0  0  0  0  0  0  0  0
  130.9114  134.6691  159.9569 H   0  0  0  0  0  0  0  0  0  0  0  0
  129.8570  133.4049  160.6358 H   0  0  0  0  0  0  0  0  0  0  0  0
  1  2  2  0
  2  3  1  0
  2 17  1  0
  3  4  1  0
  3 32  1  0
  4 16  1  0
  4  5  1  0
  4 33  1  1
  5  6  1  0
  5 34  1  0
  5 35  1  0
  6  7  1  0
  6 36  1  0
  6 37  1  0
  7  8  2  0
  7 38  1  0
  8  9  1  0
  8 16  1  0
  9 10  1  0
  9 39  1  0
  9 40  1  0
 10 15  1  0
 10 11  2  0
 11 12  1  0
 11 41  1  0
 12 13  2  0
 12 42  1  0
 13 14  1  0
 13 43  1  0
 14 15  2  0
 14 44  1  0
 16 45  1  0
 16 46  1  0
 17 18  2  0
 17 19  1  0
 19 20  1  0
 19 47  1  0
 20 21  1  6
 20 31  1  0
 20 22  1  0
 22 23  1  0
 22 48  1  0
 22 49  1  0
 23 24  1  0
 23 50  1  0
 23 51  1  0
 24 25  1  0
 24 26  1  0
 24 27  1  0
 27 30  1  0
 27 28  1  0
 27 31  1  0
 28 29  1  0
 28 52  1  0
 28 53  1  0
 29 30  1  0
 29 54  1  0
 29 55  1  0
 30 56  1  0
 30 57  1  0
 31 58  1  0
 31 59  1  0
M  CHG  1  24   1
M  END
>  <DOCK_score>  (1) 
-45.969513

>  <SMILES>  (1) 
O=C(NC1CCC=C(Cc2ccccn2)C1)C(=O)N[C@H]1CC[NH2+]C2(CCC2)C1

$$$$
