Nc1ccc(-c2ccc(-c3n[nH]cc3C[NH2+][C@H]3C[C@@H](F)[C@@H](F)C3)cc2)cc1
     RDKit          3D

 50 53  0  0  1  0  0  0  0  0999 V2000
  138.1678  140.0361  160.6199 N   0  0  0  0  0  0  0  0  0  0  0  0
  136.8413  139.6028  160.6035 C   0  0  0  0  0  0  0  0  0  0  0  0
  136.1669  139.3861  161.7997 C   0  0  0  0  0  0  0  0  0  0  0  0
  134.8569  138.9576  161.7858 C   0  0  0  0  0  0  0  0  0  0  0  0
  134.2078  138.7418  160.5707 C   0  0  0  0  0  0  0  0  0  0  0  0
  132.7989  138.2805  160.5531 C   0  0  0  0  0  0  0  0  0  0  0  0
  131.9592  138.6436  159.5002 C   0  0  0  0  0  0  0  0  0  0  0  0
  130.6521  138.2097  159.4808 C   0  0  0  0  0  0  0  0  0  0  0  0
  130.1648  137.4177  160.5198 C   0  0  0  0  0  0  0  0  0  0  0  0
  128.7553  136.9553  160.5018 C   0  0  0  0  0  0  0  0  0  0  0  0
  127.8435  137.2139  161.4155 N   0  0  0  0  0  0  0  0  0  0  0  0
  126.6478  136.5988  161.0236 N   0  0  0  0  0  0  0  0  0  0  0  0
  125.8081  136.6260  161.5085 H   0  0  0  0  0  0  0  0  0  0  0  0
  126.8680  135.9568  159.8560 C   0  0  0  0  0  0  0  0  0  0  0  0
  128.1576  136.1568  159.5070 C   0  0  0  0  0  0  0  0  0  0  0  0
  128.8362  135.6205  158.2730 C   0  0  0  0  0  0  0  0  0  0  0  0
  130.1502  135.0727  158.6356 N   0  0  0  0  0  0  0  0  0  0  0  0
  130.6044  134.7136  157.8092 H   0  0  0  0  0  0  0  0  0  0  0  0
  130.7179  135.8014  159.0417 H   0  0  0  0  0  0  0  0  0  0  0  0
  129.9763  133.9871  159.6097 C   0  0  1  0  0  0  0  0  0  0  0  0
  129.4859  134.3654  160.5066 H   0  0  0  0  0  0  0  0  0  0  0  0
  129.1409  132.8525  158.9910 C   0  0  0  0  0  0  0  0  0  0  0  0
  130.0327  131.5937  158.9993 C   0  0  1  0  0  0  0  0  0  0  0  0
  129.4396  130.7076  159.2254 H   0  0  0  0  0  0  0  0  0  0  0  0
  130.6826  131.4458  157.7693 F   0  0  0  0  0  0  0  0  0  0  0  0
  131.0603  131.8637  160.1264 C   0  0  1  0  0  0  0  0  0  0  0  0
  130.6282  131.6466  161.1033 H   0  0  0  0  0  0  0  0  0  0  0  0
  132.2254  131.1159  159.9246 F   0  0  0  0  0  0  0  0  0  0  0  0
  131.3466  133.3790  159.9734 C   0  0  0  0  0  0  0  0  0  0  0  0
  131.0023  137.0598  161.5757 C   0  0  0  0  0  0  0  0  0  0  0  0
  132.3114  137.4883  161.5922 C   0  0  0  0  0  0  0  0  0  0  0  0
  134.8860  138.9607  159.3719 C   0  0  0  0  0  0  0  0  0  0  0  0
  136.1961  139.3888  159.3908 C   0  0  0  0  0  0  0  0  0  0  0  0
  138.6186  140.1860  161.4657 H   0  0  0  0  0  0  0  0  0  0  0  0
  138.6390  140.1876  159.7857 H   0  0  0  0  0  0  0  0  0  0  0  0
  136.6700  139.5532  162.7407 H   0  0  0  0  0  0  0  0  0  0  0  0
  134.3350  138.7848  162.7154 H   0  0  0  0  0  0  0  0  0  0  0  0
  132.3353  139.2610  158.6978 H   0  0  0  0  0  0  0  0  0  0  0  0
  130.0033  138.4868  158.6632 H   0  0  0  0  0  0  0  0  0  0  0  0
  126.1413  135.3838  159.2996 H   0  0  0  0  0  0  0  0  0  0  0  0
  128.2231  134.8334  157.8341 H   0  0  0  0  0  0  0  0  0  0  0  0
  128.9653  136.4260  157.5501 H   0  0  0  0  0  0  0  0  0  0  0  0
  128.2456  132.6797  159.5881 H   0  0  0  0  0  0  0  0  0  0  0  0
  128.8646  133.1076  157.9679 H   0  0  0  0  0  0  0  0  0  0  0  0
  132.0655  133.5523  159.1727 H   0  0  0  0  0  0  0  0  0  0  0  0
  131.7119  133.7957  160.9121 H   0  0  0  0  0  0  0  0  0  0  0  0
  130.6248  136.4463  162.3804 H   0  0  0  0  0  0  0  0  0  0  0  0
  132.9602  137.2105  162.4097 H   0  0  0  0  0  0  0  0  0  0  0  0
  134.3850  138.7950  158.4297 H   0  0  0  0  0  0  0  0  0  0  0  0
  136.7216  139.5584  158.4627 H   0  0  0  0  0  0  0  0  0  0  0  0
  1  2  1  0
  1 34  1  0
  1 35  1  0
  2 33  2  0
  2  3  1  0
  3  4  2  0
  3 36  1  0
  4  5  1  0
  4 37  1  0
  5  6  1  0
  5 32  2  0
  6 31  1  0
  6  7  2  0
  7  8  1  0
  7 38  1  0
  8  9  2  0
  8 39  1  0
  9 10  1  0
  9 30  1  0
 10 15  1  0
 10 11  2  0
 11 12  1  0
 12 13  1  0
 12 14  1  0
 14 15  2  0
 14 40  1  0
 15 16  1  0
 16 17  1  0
 16 41  1  0
 16 42  1  0
 17 18  1  0
 17 19  1  0
 17 20  1  0
 20 21  1  1
 20 29  1  0
 20 22  1  0
 22 23  1  0
 22 43  1  0
 22 44  1  0
 23 24  1  1
 23 25  1  0
 23 26  1  0
 26 27  1  1
 26 28  1  0
 26 29  1  0
 29 45  1  0
 29 46  1  0
 30 31  2  0
 30 47  1  0
 31 48  1  0
 32 33  1  0
 32 49  1  0
 33 50  1  0
M  CHG  1  17   1
M  END
>  <DOCK_score>  (1) 
-42.923668

>  <SMILES>  (1) 
Nc1ccc(-c2ccc(-c3n[nH]cc3C[NH2+][C@H]3C[C@@H](F)[C@@H](F)C3)cc2)cc1

$$$$
