Nc1ccc(-c2c[nH]c(N[C@@H]3C[C@H]3NC3c4cc(O)ccc4-c4ccc(O)cc43)[nH+]2)cc1
     RDKit          3D

 56 61  0  0  1  0  0  0  0  0999 V2000
  131.1414  129.3084  151.6539 N   0  0  0  0  0  0  0  0  0  0  0  0
  130.8598  130.0567  152.7994 C   0  0  0  0  0  0  0  0  0  0  0  0
  130.2433  131.2965  152.6839 C   0  0  0  0  0  0  0  0  0  0  0  0
  129.9695  132.0397  153.8126 C   0  0  0  0  0  0  0  0  0  0  0  0
  130.3013  131.5411  155.0715 C   0  0  0  0  0  0  0  0  0  0  0  0
  130.0017  132.3358  156.2878 C   0  0  0  0  0  0  0  0  0  0  0  0
  129.2079  131.9505  157.3172 C   0  0  0  0  0  0  0  0  0  0  0  0
  129.2066  132.9810  158.2271 N   0  0  0  0  0  0  0  0  0  0  0  0
  128.7282  133.0022  159.0707 H   0  0  0  0  0  0  0  0  0  0  0  0
  130.0004  133.9660  157.7257 C   0  0  0  0  0  0  0  0  0  0  0  0
  130.2649  135.1788  158.3385 N   0  0  0  0  0  0  0  0  0  0  0  0
  129.6681  135.4874  159.6404 C   0  0  2  0  0  0  0  0  0  0  0  0
  129.9264  134.8045  160.4496 H   0  0  0  0  0  0  0  0  0  0  0  0
  128.2626  136.0920  159.6477 C   0  0  0  0  0  0  0  0  0  0  0  0
  129.4725  136.9625  159.9961 C   0  0  1  0  0  0  0  0  0  0  0  0
  129.7884  137.7035  159.2618 H   0  0  0  0  0  0  0  0  0  0  0  0
  129.6469  137.3500  161.4023 N   0  0  0  0  0  0  0  0  0  0  0  0
  131.0041  137.0384  161.8699 C   0  0  0  0  0  0  0  0  0  0  0  0
  131.0503  137.0534  163.3783 C   0  0  0  0  0  0  0  0  0  0  0  0
  130.3905  136.3106  164.3315 C   0  0  0  0  0  0  0  0  0  0  0  0
  130.6294  136.5403  165.6799 C   0  0  0  0  0  0  0  0  0  0  0  0
  129.9788  135.8061  166.6201 O   0  0  0  0  0  0  0  0  0  0  0  0
  131.5334  137.5202  166.0670 C   0  0  0  0  0  0  0  0  0  0  0  0
  132.1957  138.2670  165.1169 C   0  0  0  0  0  0  0  0  0  0  0  0
  131.9589  138.0397  163.7591 C   0  0  0  0  0  0  0  0  0  0  0  0
  132.5240  138.6854  162.5485 C   0  0  0  0  0  0  0  0  0  0  0  0
  133.4599  139.7127  162.4077 C   0  0  0  0  0  0  0  0  0  0  0  0
  133.8279  140.1431  161.1514 C   0  0  0  0  0  0  0  0  0  0  0  0
  133.2704  139.5590  160.0219 C   0  0  0  0  0  0  0  0  0  0  0  0
  133.6354  139.9869  158.7849 O   0  0  0  0  0  0  0  0  0  0  0  0
  132.3394  138.5376  160.1567 C   0  0  0  0  0  0  0  0  0  0  0  0
  131.9692  138.1041  161.4112 C   0  0  0  0  0  0  0  0  0  0  0  0
  130.4784  133.5743  156.5696 N   0  0  0  0  0  0  0  0  0  0  0  0
  131.0756  134.0891  156.0046 H   0  0  0  0  0  0  0  0  0  0  0  0
  130.9193  130.2968  155.1853 C   0  0  0  0  0  0  0  0  0  0  0  0
  131.1964  129.5596  154.0535 C   0  0  0  0  0  0  0  0  0  0  0  0
  130.9068  129.6536  150.7791 H   0  0  0  0  0  0  0  0  0  0  0  0
  131.5718  128.4421  151.7344 H   0  0  0  0  0  0  0  0  0  0  0  0
  129.9825  131.6804  151.7086 H   0  0  0  0  0  0  0  0  0  0  0  0
  129.4944  133.0054  153.7218 H   0  0  0  0  0  0  0  0  0  0  0  0
  128.6785  131.0134  157.4057 H   0  0  0  0  0  0  0  0  0  0  0  0
  130.8455  135.8244  157.9059 H   0  0  0  0  0  0  0  0  0  0  0  0
  127.7820  136.2603  158.6839 H   0  0  0  0  0  0  0  0  0  0  0  0
  127.5964  135.8072  160.4621 H   0  0  0  0  0  0  0  0  0  0  0  0
  128.9528  136.9095  161.9876 H   0  0  0  0  0  0  0  0  0  0  0  0
  131.3155  136.0636  161.4945 H   0  0  0  0  0  0  0  0  0  0  0  0
  129.6870  135.5486  164.0299 H   0  0  0  0  0  0  0  0  0  0  0  0
  130.2102  136.0380  167.5300 H   0  0  0  0  0  0  0  0  0  0  0  0
  131.7186  137.6977  167.1163 H   0  0  0  0  0  0  0  0  0  0  0  0
  132.8986  139.0281  165.4220 H   0  0  0  0  0  0  0  0  0  0  0  0
  133.8955  140.1698  163.2840 H   0  0  0  0  0  0  0  0  0  0  0  0
  134.5518  140.9374  161.0449 H   0  0  0  0  0  0  0  0  0  0  0  0
  133.1944  139.5210  158.0614 H   0  0  0  0  0  0  0  0  0  0  0  0
  131.9053  138.0832  159.2784 H   0  0  0  0  0  0  0  0  0  0  0  0
  131.1812  129.9106  156.1594 H   0  0  0  0  0  0  0  0  0  0  0  0
  131.6754  128.5956  154.1411 H   0  0  0  0  0  0  0  0  0  0  0  0
  1  2  1  0
  1 37  1  0
  1 38  1  0
  2 36  2  0
  2  3  1  0
  3  4  2  0
  3 39  1  0
  4  5  1  0
  4 40  1  0
  5  6  1  0
  5 35  2  0
  6 33  1  0
  6  7  2  0
  7  8  1  0
  7 41  1  0
  8  9  1  0
  8 10  1  0
 10 11  1  0
 10 33  2  0
 11 12  1  0
 11 42  1  0
 12 13  1  1
 12 15  1  0
 12 14  1  0
 14 15  1  0
 14 43  1  0
 14 44  1  0
 15 16  1  6
 15 17  1  0
 17 18  1  0
 17 45  1  0
 18 32  1  0
 18 19  1  0
 18 46  1  0
 19 25  1  0
 19 20  2  0
 20 21  1  0
 20 47  1  0
 21 22  1  0
 21 23  2  0
 22 48  1  0
 23 24  1  0
 23 49  1  0
 24 25  2  0
 24 50  1  0
 25 26  1  0
 26 32  2  0
 26 27  1  0
 27 28  2  0
 27 51  1  0
 28 29  1  0
 28 52  1  0
 29 30  1  0
 29 31  2  0
 30 53  1  0
 31 32  1  0
 31 54  1  0
 33 34  1  0
 35 36  1  0
 35 55  1  0
 36 56  1  0
M  CHG  1  33   1
M  END
>  <DOCK_score>  (1) 
-57.424145

>  <SMILES>  (1) 
Nc1ccc(-c2c[nH]c(N[C@@H]3C[C@H]3NC3c4cc(O)ccc4-c4ccc(O)cc43)[nH+]2)cc1

$$$$
