Oc1ccc(C2=CC[C@H](Nc3ccc(Nc4[nH]c5ccccc5[nH+]4)cc3)CC2)cc1
     RDKit          3D

 55 59  0  0  1  0  0  0  0  0999 V2000
  130.9887  138.2429  170.6981 O   0  0  0  0  0  0  0  0  0  0  0  0
  130.3670  137.9945  169.5157 C   0  0  0  0  0  0  0  0  0  0  0  0
  130.8415  138.5776  168.3481 C   0  0  0  0  0  0  0  0  0  0  0  0
  130.2134  138.3280  167.1465 C   0  0  0  0  0  0  0  0  0  0  0  0
  129.0994  137.4881  167.1046 C   0  0  0  0  0  0  0  0  0  0  0  0
  128.4230  137.2184  165.8188 C   0  0  0  0  0  0  0  0  0  0  0  0
  127.1603  137.5533  165.7036 C   0  0  0  0  0  0  0  0  0  0  0  0
  126.3465  137.3311  164.4622 C   0  0  0  0  0  0  0  0  0  0  0  0
  127.2674  137.0769  163.2670 C   0  0  2  0  0  0  0  0  0  0  0  0
  127.7902  137.9967  163.0054 H   0  0  0  0  0  0  0  0  0  0  0  0
  126.4784  136.6164  162.1218 N   0  0  0  0  0  0  0  0  0  0  0  0
  127.1116  136.3195  160.9097 C   0  0  0  0  0  0  0  0  0  0  0  0
  128.2720  136.9922  160.5495 C   0  0  0  0  0  0  0  0  0  0  0  0
  128.8999  136.6953  159.3562 C   0  0  0  0  0  0  0  0  0  0  0  0
  128.3650  135.7320  158.5111 C   0  0  0  0  0  0  0  0  0  0  0  0
  128.9989  135.4352  157.2973 N   0  0  0  0  0  0  0  0  0  0  0  0
  129.4519  134.1595  157.0516 C   0  0  0  0  0  0  0  0  0  0  0  0
  129.3456  133.1364  157.8971 N   0  0  0  0  0  0  0  0  0  0  0  0
  128.9405  133.1684  158.7778 H   0  0  0  0  0  0  0  0  0  0  0  0
  129.9023  132.0304  157.3112 C   0  0  0  0  0  0  0  0  0  0  0  0
  130.0706  130.7088  157.7146 C   0  0  0  0  0  0  0  0  0  0  0  0
  130.6935  129.8106  156.8755 C   0  0  0  0  0  0  0  0  0  0  0  0
  131.1548  130.2140  155.6309 C   0  0  0  0  0  0  0  0  0  0  0  0
  130.9963  131.5185  155.2160 C   0  0  0  0  0  0  0  0  0  0  0  0
  130.3689  132.4387  156.0510 C   0  0  0  0  0  0  0  0  0  0  0  0
  130.0656  133.7697  155.9363 N   0  0  0  0  0  0  0  0  0  0  0  0
  130.2648  134.3329  155.1722 H   0  0  0  0  0  0  0  0  0  0  0  0
  127.2017  135.0634  158.8685 C   0  0  0  0  0  0  0  0  0  0  0  0
  126.5767  135.3563  160.0643 C   0  0  0  0  0  0  0  0  0  0  0  0
  128.2857  135.9987  163.6582 C   0  0  0  0  0  0  0  0  0  0  0  0
  129.2214  136.5777  164.7213 C   0  0  0  0  0  0  0  0  0  0  0  0
  128.6225  136.9082  168.2813 C   0  0  0  0  0  0  0  0  0  0  0  0
  129.2593  137.1581  169.4781 C   0  0  0  0  0  0  0  0  0  0  0  0
  131.7493  138.8359  170.6256 H   0  0  0  0  0  0  0  0  0  0  0  0
  131.7037  139.2270  168.3814 H   0  0  0  0  0  0  0  0  0  0  0  0
  130.5828  138.7821  166.2389 H   0  0  0  0  0  0  0  0  0  0  0  0
  126.6779  138.0164  166.5515 H   0  0  0  0  0  0  0  0  0  0  0  0
  125.7367  138.2132  164.2673 H   0  0  0  0  0  0  0  0  0  0  0  0
  125.6955  136.4689  164.6065 H   0  0  0  0  0  0  0  0  0  0  0  0
  125.5169  136.5172  162.2037 H   0  0  0  0  0  0  0  0  0  0  0  0
  128.6854  137.7449  161.2047 H   0  0  0  0  0  0  0  0  0  0  0  0
  129.8047  137.2152  159.0782 H   0  0  0  0  0  0  0  0  0  0  0  0
  129.1182  136.1292  156.6301 H   0  0  0  0  0  0  0  0  0  0  0  0
  129.7138  130.3883  158.6822 H   0  0  0  0  0  0  0  0  0  0  0  0
  130.8238  128.7854  157.1891 H   0  0  0  0  0  0  0  0  0  0  0  0
  131.6417  129.5006  154.9825 H   0  0  0  0  0  0  0  0  0  0  0  0
  131.3573  131.8259  154.2456 H   0  0  0  0  0  0  0  0  0  0  0  0
  126.7855  134.3146  158.2110 H   0  0  0  0  0  0  0  0  0  0  0  0
  125.6721  134.8359  160.3425 H   0  0  0  0  0  0  0  0  0  0  0  0
  127.7637  135.1315  164.0627 H   0  0  0  0  0  0  0  0  0  0  0  0
  128.8638  135.7058  162.7817 H   0  0  0  0  0  0  0  0  0  0  0  0
  129.8329  135.7778  165.1389 H   0  0  0  0  0  0  0  0  0  0  0  0
  129.8688  137.3259  164.2639 H   0  0  0  0  0  0  0  0  0  0  0  0
  127.7583  136.2611  168.2534 H   0  0  0  0  0  0  0  0  0  0  0  0
  128.8938  136.7059  170.3882 H   0  0  0  0  0  0  0  0  0  0  0  0
  1  2  1  0
  1 34  1  0
  2 33  2  0
  2  3  1  0
  3  4  2  0
  3 35  1  0
  4  5  1  0
  4 36  1  0
  5  6  1  0
  5 32  2  0
  6 31  1  0
  6  7  2  0
  7  8  1  0
  7 37  1  0
  8  9  1  0
  8 38  1  0
  8 39  1  0
  9 10  1  6
  9 11  1  0
  9 30  1  0
 11 12  1  0
 11 40  1  0
 12 29  1  0
 12 13  2  0
 13 14  1  0
 13 41  1  0
 14 15  2  0
 14 42  1  0
 15 16  1  0
 15 28  1  0
 16 17  1  0
 16 43  1  0
 17 26  1  0
 17 18  2  0
 18 19  1  0
 18 20  1  0
 20 25  2  0
 20 21  1  0
 21 22  2  0
 21 44  1  0
 22 23  1  0
 22 45  1  0
 23 24  2  0
 23 46  1  0
 24 25  1  0
 24 47  1  0
 25 26  1  0
 26 27  1  0
 28 29  2  0
 28 48  1  0
 29 49  1  0
 30 31  1  0
 30 50  1  0
 30 51  1  0
 31 52  1  0
 31 53  1  0
 32 33  1  0
 32 54  1  0
 33 55  1  0
M  CHG  1  18   1
M  END
>  <DOCK_score>  (1) 
-45.833019

>  <SMILES>  (1) 
Oc1ccc(C2=CC[C@H](Nc3ccc(Nc4[nH]c5ccccc5[nH+]4)cc3)CC2)cc1

$$$$
