O=C1CC[C@H]([NH+]=C(NC2CCc3ccccc3CC2)NC2CC2)CN1
     RDKit          3D

 54 57  0  0  1  0  0  0  0  0999 V2000
  123.8169  133.6429  161.1100 O   0  0  0  0  0  0  0  0  0  0  0  0
  124.9568  134.0286  160.9586 C   0  0  0  0  0  0  0  0  0  0  0  0
  125.8789  133.2041  160.1069 C   0  0  0  0  0  0  0  0  0  0  0  0
  127.3328  133.5925  160.3867 C   0  0  0  0  0  0  0  0  0  0  0  0
  127.4465  135.1206  160.3257 C   0  0  2  0  0  0  0  0  0  0  0  0
  127.0240  135.4816  159.3881 H   0  0  0  0  0  0  0  0  0  0  0  0
  128.8543  135.5159  160.4147 N   0  0  0  0  0  0  0  0  0  0  0  0
  129.1536  136.0838  161.1419 H   0  0  0  0  0  0  0  0  0  0  0  0
  129.7048  135.1046  159.5168 C   0  0  0  0  0  0  0  0  0  0  0  0
  131.0260  135.4755  159.6003 N   0  0  0  0  0  0  0  0  0  0  0  0
  131.6339  135.7309  160.9086 C   0  0  0  0  0  0  0  0  0  0  0  0
  132.0218  137.1945  160.9811 C   0  0  0  0  0  0  0  0  0  0  0  0
  132.4439  137.5782  162.4033 C   0  0  0  0  0  0  0  0  0  0  0  0
  133.9146  137.2545  162.5662 C   0  0  0  0  0  0  0  0  0  0  0  0
  134.8341  138.2849  162.6535 C   0  0  0  0  0  0  0  0  0  0  0  0
  136.1773  137.9914  162.8028 C   0  0  0  0  0  0  0  0  0  0  0  0
  136.5960  136.6752  162.8640 C   0  0  0  0  0  0  0  0  0  0  0  0
  135.6720  135.6497  162.7770 C   0  0  0  0  0  0  0  0  0  0  0  0
  134.3294  135.9498  162.6273 C   0  0  0  0  0  0  0  0  0  0  0  0
  133.3194  134.8251  162.5327 C   0  0  0  0  0  0  0  0  0  0  0  0
  132.7901  134.7687  161.0975 C   0  0  0  0  0  0  0  0  0  0  0  0
  129.2807  134.2997  158.4860 N   0  0  0  0  0  0  0  0  0  0  0  0
  130.2004  133.3278  157.8895 C   0  0  0  0  0  0  0  0  0  0  0  0
  129.7176  131.8811  157.7674 C   0  0  0  0  0  0  0  0  0  0  0  0
  130.7800  132.2487  158.8063 C   0  0  0  0  0  0  0  0  0  0  0  0
  126.6710  135.7166  161.5012 C   0  0  0  0  0  0  0  0  0  0  0  0
  125.3243  135.1618  161.5577 N   0  0  0  0  0  0  0  0  0  0  0  0
  125.6534  133.3790  159.0551 H   0  0  0  0  0  0  0  0  0  0  0  0
  125.7358  132.1481  160.3359 H   0  0  0  0  0  0  0  0  0  0  0  0
  127.9832  133.1459  159.6347 H   0  0  0  0  0  0  0  0  0  0  0  0
  127.6220  133.2424  161.3776 H   0  0  0  0  0  0  0  0  0  0  0  0
  131.5557  135.5683  158.7930 H   0  0  0  0  0  0  0  0  0  0  0  0
  130.8892  135.5321  161.6792 H   0  0  0  0  0  0  0  0  0  0  0  0
  132.8493  137.3801  160.2964 H   0  0  0  0  0  0  0  0  0  0  0  0
  131.1694  137.8061  160.6853 H   0  0  0  0  0  0  0  0  0  0  0  0
  131.8610  137.0082  163.1267 H   0  0  0  0  0  0  0  0  0  0  0  0
  132.2842  138.6452  162.5590 H   0  0  0  0  0  0  0  0  0  0  0  0
  134.5048  139.3124  162.6055 H   0  0  0  0  0  0  0  0  0  0  0  0
  136.9000  138.7912  162.8714 H   0  0  0  0  0  0  0  0  0  0  0  0
  137.6452  136.4475  162.9804 H   0  0  0  0  0  0  0  0  0  0  0  0
  135.9966  134.6208  162.8251 H   0  0  0  0  0  0  0  0  0  0  0  0
  132.4949  135.0141  163.2201 H   0  0  0  0  0  0  0  0  0  0  0  0
  133.7999  133.8794  162.7833 H   0  0  0  0  0  0  0  0  0  0  0  0
  132.4521  133.7556  160.8799 H   0  0  0  0  0  0  0  0  0  0  0  0
  133.5928  135.0340  160.4096 H   0  0  0  0  0  0  0  0  0  0  0  0
  128.3726  134.3754  158.1537 H   0  0  0  0  0  0  0  0  0  0  0  0
  130.8421  133.7128  157.0971 H   0  0  0  0  0  0  0  0  0  0  0  0
  128.7157  131.6525  158.1308 H   0  0  0  0  0  0  0  0  0  0  0  0
  130.0420  131.3143  156.8947 H   0  0  0  0  0  0  0  0  0  0  0  0
  131.8029  131.9235  158.6167 H   0  0  0  0  0  0  0  0  0  0  0  0
  130.4773  132.2621  159.8533 H   0  0  0  0  0  0  0  0  0  0  0  0
  127.1936  135.4891  162.4302 H   0  0  0  0  0  0  0  0  0  0  0  0
  126.6102  136.7983  161.3813 H   0  0  0  0  0  0  0  0  0  0  0  0
  124.6535  135.6473  162.0628 H   0  0  0  0  0  0  0  0  0  0  0  0
  1  2  2  0
  2 27  1  0
  2  3  1  0
  3  4  1  0
  3 28  1  0
  3 29  1  0
  4  5  1  0
  4 30  1  0
  4 31  1  0
  5  6  1  6
  5  7  1  0
  5 26  1  0
  7  8  1  0
  9  7  2  0
  9 10  1  0
  9 22  1  0
 10 11  1  0
 10 32  1  0
 11 21  1  0
 11 12  1  0
 11 33  1  0
 12 13  1  0
 12 34  1  0
 12 35  1  0
 13 14  1  0
 13 36  1  0
 13 37  1  0
 14 19  2  0
 14 15  1  0
 15 16  2  0
 15 38  1  0
 16 17  1  0
 16 39  1  0
 17 18  2  0
 17 40  1  0
 18 19  1  0
 18 41  1  0
 19 20  1  0
 20 21  1  0
 20 42  1  0
 20 43  1  0
 21 44  1  0
 21 45  1  0
 22 23  1  0
 22 46  1  0
 23 25  1  0
 23 24  1  0
 23 47  1  0
 24 25  1  0
 24 48  1  0
 24 49  1  0
 25 50  1  0
 25 51  1  0
 26 27  1  0
 26 52  1  0
 26 53  1  0
 27 54  1  0
M  CHG  1   7   1
M  END
>  <DOCK_score>  (1) 
-43.057381

>  <SMILES>  (1) 
O=C1CC[C@H]([NH+]=C(NC2CCc3ccccc3CC2)NC2CC2)CN1

$$$$
