CCc1ccc(C=CC[C@H](Nc2[nH]cc(-c3cccnc3)[nH+]2)c2ccc(C)cc2)cc1
     RDKit          3D

 60 63  0  0  1  0  0  0  0  0999 V2000
  137.5520  141.2114  162.2030 C   0  0  0  0  0  0  0  0  0  0  0  0
  137.4883  139.7623  161.7164 C   0  0  0  0  0  0  0  0  0  0  0  0
  136.0594  139.3994  161.4043 C   0  0  0  0  0  0  0  0  0  0  0  0
  135.5584  139.6063  160.1315 C   0  0  0  0  0  0  0  0  0  0  0  0
  134.2511  139.2758  159.8392 C   0  0  0  0  0  0  0  0  0  0  0  0
  133.4338  138.7323  160.8308 C   0  0  0  0  0  0  0  0  0  0  0  0
  132.0323  138.3758  160.5246 C   0  0  0  0  0  0  0  0  0  0  0  0
  131.3814  137.5200  161.3000 C   0  0  0  0  0  0  0  0  0  0  0  0
  129.9526  137.1567  160.9878 C   0  0  0  0  0  0  0  0  0  0  0  0
  129.8513  135.6497  160.7435 C   0  0  2  0  0  0  0  0  0  0  0  0
  130.4845  135.1226  161.4571 H   0  0  0  0  0  0  0  0  0  0  0  0
  130.2934  135.3452  159.3804 N   0  0  0  0  0  0  0  0  0  0  0  0
  130.2902  134.0369  158.9277 C   0  0  0  0  0  0  0  0  0  0  0  0
  129.9014  132.9498  159.6482 N   0  0  0  0  0  0  0  0  0  0  0  0
  129.5794  132.9521  160.5631 H   0  0  0  0  0  0  0  0  0  0  0  0
  130.0490  131.8485  158.8403 C   0  0  0  0  0  0  0  0  0  0  0  0
  130.5232  132.2940  157.6505 C   0  0  0  0  0  0  0  0  0  0  0  0
  130.8359  131.4566  156.4667 C   0  0  0  0  0  0  0  0  0  0  0  0
  130.7071  131.9760  155.1752 C   0  0  0  0  0  0  0  0  0  0  0  0
  131.0170  131.1560  154.1041 C   0  0  0  0  0  0  0  0  0  0  0  0
  131.4288  129.8573  154.3431 C   0  0  0  0  0  0  0  0  0  0  0  0
  131.5357  129.3932  155.5730 N   0  0  0  0  0  0  0  0  0  0  0  0
  131.2572  130.1377  156.6236 C   0  0  0  0  0  0  0  0  0  0  0  0
  130.6611  133.6411  157.7345 N   0  0  0  0  0  0  0  0  0  0  0  0
  130.9793  134.2193  157.0238 H   0  0  0  0  0  0  0  0  0  0  0  0
  128.4212  135.2075  160.9184 C   0  0  0  0  0  0  0  0  0  0  0  0
  127.5608  135.2068  159.8365 C   0  0  0  0  0  0  0  0  0  0  0  0
  126.2505  134.7961  159.9958 C   0  0  0  0  0  0  0  0  0  0  0  0
  125.7976  134.3969  161.2394 C   0  0  0  0  0  0  0  0  0  0  0  0
  124.3676  133.9551  161.4143 C   0  0  0  0  0  0  0  0  0  0  0  0
  126.6567  134.4025  162.3223 C   0  0  0  0  0  0  0  0  0  0  0  0
  127.9686  134.8079  162.1619 C   0  0  0  0  0  0  0  0  0  0  0  0
  133.9432  138.5318  162.1142 C   0  0  0  0  0  0  0  0  0  0  0  0
  135.2540  138.8612  162.3921 C   0  0  0  0  0  0  0  0  0  0  0  0
  138.5855  141.4739  162.4286 H   0  0  0  0  0  0  0  0  0  0  0  0
  137.1707  141.8730  161.4250 H   0  0  0  0  0  0  0  0  0  0  0  0
  136.9450  141.3199  163.1018 H   0  0  0  0  0  0  0  0  0  0  0  0
  137.8696  139.1007  162.4943 H   0  0  0  0  0  0  0  0  0  0  0  0
  138.0953  139.6538  160.8176 H   0  0  0  0  0  0  0  0  0  0  0  0
  136.1923  140.0271  159.3648 H   0  0  0  0  0  0  0  0  0  0  0  0
  133.8614  139.4379  158.8451 H   0  0  0  0  0  0  0  0  0  0  0  0
  131.5385  138.8127  159.6691 H   0  0  0  0  0  0  0  0  0  0  0  0
  131.8751  137.0832  162.1555 H   0  0  0  0  0  0  0  0  0  0  0  0
  129.6282  137.6921  160.0956 H   0  0  0  0  0  0  0  0  0  0  0  0
  129.3157  137.4320  161.8284 H   0  0  0  0  0  0  0  0  0  0  0  0
  130.5884  136.0603  158.7951 H   0  0  0  0  0  0  0  0  0  0  0  0
  129.8294  130.8241  159.1025 H   0  0  0  0  0  0  0  0  0  0  0  0
  130.3789  132.9928  155.0173 H   0  0  0  0  0  0  0  0  0  0  0  0
  130.9336  131.5247  153.0925 H   0  0  0  0  0  0  0  0  0  0  0  0
  131.6669  129.2134  153.5095 H   0  0  0  0  0  0  0  0  0  0  0  0
  131.3568  129.7221  157.6155 H   0  0  0  0  0  0  0  0  0  0  0  0
  127.9134  135.5233  158.8659 H   0  0  0  0  0  0  0  0  0  0  0  0
  125.5794  134.7914  159.1497 H   0  0  0  0  0  0  0  0  0  0  0  0
  123.7496  134.8164  161.6681 H   0  0  0  0  0  0  0  0  0  0  0  0
  124.0083  133.5111  160.4859 H   0  0  0  0  0  0  0  0  0  0  0  0
  124.3103  133.2181  162.2155 H   0  0  0  0  0  0  0  0  0  0  0  0
  126.3029  134.0906  163.2939 H   0  0  0  0  0  0  0  0  0  0  0  0
  128.6396  134.8125  163.0080 H   0  0  0  0  0  0  0  0  0  0  0  0
  133.3143  138.1156  162.8872 H   0  0  0  0  0  0  0  0  0  0  0  0
  135.6508  138.7025  163.3839 H   0  0  0  0  0  0  0  0  0  0  0  0
  1  2  1  0
  1 35  1  0
  1 36  1  0
  1 37  1  0
  2  3  1  0
  2 38  1  0
  2 39  1  0
  3 34  2  0
  3  4  1  0
  4  5  2  0
  4 40  1  0
  5  6  1  0
  5 41  1  0
  6  7  1  0
  6 33  2  0
  7  8  2  0
  7 42  1  0
  8  9  1  0
  8 43  1  0
  9 10  1  0
  9 44  1  0
  9 45  1  0
 10 11  1  1
 10 12  1  0
 10 26  1  0
 12 46  1  0
 13 12  1  0
 13 24  2  0
 13 14  1  0
 14 15  1  0
 14 16  1  0
 16 17  2  0
 16 47  1  0
 17 18  1  0
 17 24  1  0
 18 23  1  0
 18 19  2  0
 19 20  1  0
 19 48  1  0
 20 21  2  0
 20 49  1  0
 21 22  1  0
 21 50  1  0
 22 23  2  0
 23 51  1  0
 24 25  1  0
 26 32  1  0
 26 27  2  0
 27 28  1  0
 27 52  1  0
 28 29  2  0
 28 53  1  0
 29 30  1  0
 29 31  1  0
 30 54  1  0
 30 55  1  0
 30 56  1  0
 31 32  2  0
 31 57  1  0
 32 58  1  0
 33 34  1  0
 33 59  1  0
 34 60  1  0
M  CHG  1  24   1
M  END
>  <DOCK_score>  (1) 
-60.966484

>  <SMILES>  (1) 
CCc1ccc(C=CC[C@H](Nc2[nH]cc(-c3cccnc3)[nH+]2)c2ccc(C)cc2)cc1

$$$$
