CCc1ccc(-c2c[nH]c(N[C@H](c3ccccc3)c3cn(C=C(C)C)nn3)[nH+]2)cc1
     RDKit          3D

 57 60  0  0  1  0  0  0  0  0999 V2000
  130.3539  128.5155  151.7223 C   0  0  0  0  0  0  0  0  0  0  0  0
  131.4938  129.4806  152.0538 C   0  0  0  0  0  0  0  0  0  0  0  0
  131.1360  130.2777  153.2816 C   0  0  0  0  0  0  0  0  0  0  0  0
  131.4810  129.8051  154.5345 C   0  0  0  0  0  0  0  0  0  0  0  0
  131.1610  130.5334  155.6623 C   0  0  0  0  0  0  0  0  0  0  0  0
  130.4785  131.7422  155.5373 C   0  0  0  0  0  0  0  0  0  0  0  0
  130.1268  132.5269  156.7459 C   0  0  0  0  0  0  0  0  0  0  0  0
  129.3495  132.1042  157.7736 C   0  0  0  0  0  0  0  0  0  0  0  0
  129.2840  133.1384  158.6754 N   0  0  0  0  0  0  0  0  0  0  0  0
  128.7995  133.1380  159.5157 H   0  0  0  0  0  0  0  0  0  0  0  0
  130.0239  134.1637  158.1721 C   0  0  0  0  0  0  0  0  0  0  0  0
  130.2148  135.3937  158.7779 N   0  0  0  0  0  0  0  0  0  0  0  0
  129.5926  135.6764  160.0738 C   0  0  2  0  0  0  0  0  0  0  0  0
  129.9513  134.9602  160.8130 H   0  0  0  0  0  0  0  0  0  0  0  0
  128.0952  135.5611  159.9478 C   0  0  0  0  0  0  0  0  0  0  0  0
  127.3391  135.1625  161.0342 C   0  0  0  0  0  0  0  0  0  0  0  0
  125.9652  135.0609  160.9200 C   0  0  0  0  0  0  0  0  0  0  0  0
  125.3483  135.3491  159.7169 C   0  0  0  0  0  0  0  0  0  0  0  0
  126.1051  135.7427  158.6291 C   0  0  0  0  0  0  0  0  0  0  0  0
  127.4786  135.8484  158.7445 C   0  0  0  0  0  0  0  0  0  0  0  0
  129.9539  137.0727  160.5106 C   0  0  0  0  0  0  0  0  0  0  0  0
  130.0774  137.4866  161.7897 C   0  0  0  0  0  0  0  0  0  0  0  0
  130.4161  138.8060  161.7452 N   0  0  0  0  0  0  0  0  0  0  0  0
  130.6494  139.6481  162.8341 C   0  0  0  0  0  0  0  0  0  0  0  0
  130.3899  140.9370  162.7380 C   0  0  0  0  0  0  0  0  0  0  0  0
  129.9936  141.5290  161.4100 C   0  0  0  0  0  0  0  0  0  0  0  0
  130.4898  141.8185  163.9561 C   0  0  0  0  0  0  0  0  0  0  0  0
  130.4767  139.1507  160.3862 N   0  0  0  0  0  0  0  0  0  0  0  0
  130.1977  138.1001  159.6961 N   0  0  0  0  0  0  0  0  0  0  0  0
  130.5307  133.7925  157.0218 N   0  0  0  0  0  0  0  0  0  0  0  0
  131.1015  134.3365  156.4567 H   0  0  0  0  0  0  0  0  0  0  0  0
  130.1284  132.2112  154.2724 C   0  0  0  0  0  0  0  0  0  0  0  0
  130.4585  131.4772  153.1513 C   0  0  0  0  0  0  0  0  0  0  0  0
  130.6126  127.9391  150.8341 H   0  0  0  0  0  0  0  0  0  0  0  0
  130.1962  127.8382  152.5617 H   0  0  0  0  0  0  0  0  0  0  0  0
  129.4411  129.0811  151.5352 H   0  0  0  0  0  0  0  0  0  0  0  0
  132.4064  128.9155  152.2404 H   0  0  0  0  0  0  0  0  0  0  0  0
  131.6512  130.1584  151.2140 H   0  0  0  0  0  0  0  0  0  0  0  0
  132.0057  128.8659  154.6304 H   0  0  0  0  0  0  0  0  0  0  0  0
  131.4352  130.1653  156.6400 H   0  0  0  0  0  0  0  0  0  0  0  0
  128.8729  131.1394  157.8652 H   0  0  0  0  0  0  0  0  0  0  0  0
  130.7605  136.0684  158.3445 H   0  0  0  0  0  0  0  0  0  0  0  0
  127.8212  134.9336  161.9731 H   0  0  0  0  0  0  0  0  0  0  0  0
  125.3739  134.7537  161.7700 H   0  0  0  0  0  0  0  0  0  0  0  0
  124.2753  135.2672  159.6269 H   0  0  0  0  0  0  0  0  0  0  0  0
  125.6233  135.9680  157.6891 H   0  0  0  0  0  0  0  0  0  0  0  0
  128.0699  136.1559  157.8946 H   0  0  0  0  0  0  0  0  0  0  0  0
  129.9375  136.8870  162.6769 H   0  0  0  0  0  0  0  0  0  0  0  0
  131.0425  139.2435  163.7550 H   0  0  0  0  0  0  0  0  0  0  0  0
  128.9209  141.4043  161.2622 H   0  0  0  0  0  0  0  0  0  0  0  0
  130.2412  142.5904  161.3969 H   0  0  0  0  0  0  0  0  0  0  0  0
  130.5322  141.0204  160.6103 H   0  0  0  0  0  0  0  0  0  0  0  0
  131.5022  142.2141  164.0365 H   0  0  0  0  0  0  0  0  0  0  0  0
  129.7834  142.6437  163.8663 H   0  0  0  0  0  0  0  0  0  0  0  0
  130.2558  141.2353  164.8468 H   0  0  0  0  0  0  0  0  0  0  0  0
  129.5992  133.1471  154.1698 H   0  0  0  0  0  0  0  0  0  0  0  0
  130.1873  131.8396  152.1707 H   0  0  0  0  0  0  0  0  0  0  0  0
  1  2  1  0
  1 34  1  0
  1 35  1  0
  1 36  1  0
  2  3  1  0
  2 37  1  0
  2 38  1  0
  3 33  2  0
  3  4  1  0
  4  5  2  0
  4 39  1  0
  5  6  1  0
  5 40  1  0
  6  7  1  0
  6 32  2  0
  7 30  1  0
  7  8  2  0
  8  9  1  0
  8 41  1  0
  9 10  1  0
  9 11  1  0
 11 12  1  0
 11 30  2  0
 12 13  1  0
 12 42  1  0
 13 14  1  1
 13 15  1  0
 13 21  1  0
 15 20  1  0
 15 16  2  0
 16 17  1  0
 16 43  1  0
 17 18  2  0
 17 44  1  0
 18 19  1  0
 18 45  1  0
 19 20  2  0
 19 46  1  0
 20 47  1  0
 21 29  1  0
 21 22  2  0
 22 23  1  0
 22 48  1  0
 23 24  1  0
 23 28  1  0
 24 25  2  0
 24 49  1  0
 25 26  1  0
 25 27  1  0
 26 50  1  0
 26 51  1  0
 26 52  1  0
 27 53  1  0
 27 54  1  0
 27 55  1  0
 28 29  2  0
 30 31  1  0
 32 33  1  0
 32 56  1  0
 33 57  1  0
M  CHG  1  30   1
M  END
>  <DOCK_score>  (1) 
-62.929047

>  <SMILES>  (1) 
CCc1ccc(-c2c[nH]c(N[C@H](c3ccccc3)c3cn(C=C(C)C)nn3)[nH+]2)cc1

$$$$
