Nc1ccc(-c2c[nH]c(N[C@@H](CC3=CCC=CC3)C3CC3)[nH+]2)cc1
     RDKit          3D

 49 52  0  0  1  0  0  0  0  0999 V2000
  131.0674  129.8024  151.1242 N   0  0  0  0  0  0  0  0  0  0  0  0
  130.8440  130.4298  152.3521 C   0  0  0  0  0  0  0  0  0  0  0  0
  130.4765  131.7696  152.3900 C   0  0  0  0  0  0  0  0  0  0  0  0
  130.2555  132.3910  153.6010 C   0  0  0  0  0  0  0  0  0  0  0  0
  130.4007  131.6743  154.7878 C   0  0  0  0  0  0  0  0  0  0  0  0
  130.1633  132.3405  156.0918 C   0  0  0  0  0  0  0  0  0  0  0  0
  129.7122  131.7433  157.2225 C   0  0  0  0  0  0  0  0  0  0  0  0
  129.6327  132.7213  158.1855 N   0  0  0  0  0  0  0  0  0  0  0  0
  129.3389  132.6026  159.1022 H   0  0  0  0  0  0  0  0  0  0  0  0
  130.0427  133.8866  157.6149 C   0  0  0  0  0  0  0  0  0  0  0  0
  130.1120  135.1148  158.2500 N   0  0  0  0  0  0  0  0  0  0  0  0
  129.1839  135.4297  159.3388 C   0  0  1  0  0  0  0  0  0  0  0  0
  129.0480  134.5490  159.9666 H   0  0  0  0  0  0  0  0  0  0  0  0
  129.7543  136.5729  160.1805 C   0  0  0  0  0  0  0  0  0  0  0  0
  131.0831  136.1573  160.7575 C   0  0  0  0  0  0  0  0  0  0  0  0
  132.1370  136.8519  160.4532 C   0  0  0  0  0  0  0  0  0  0  0  0
  133.5044  136.5241  160.9726 C   0  0  0  0  0  0  0  0  0  0  0  0
  133.4271  135.6565  162.1928 C   0  0  0  0  0  0  0  0  0  0  0  0
  132.3731  134.9624  162.4974 C   0  0  0  0  0  0  0  0  0  0  0  0
  131.1300  134.9635  161.6630 C   0  0  0  0  0  0  0  0  0  0  0  0
  127.8349  135.8516  158.7531 C   0  0  0  0  0  0  0  0  0  0  0  0
  126.5795  135.5255  159.5645 C   0  0  0  0  0  0  0  0  0  0  0  0
  126.8897  134.7429  158.2861 C   0  0  0  0  0  0  0  0  0  0  0  0
  130.3619  133.6544  156.3648 N   0  0  0  0  0  0  0  0  0  0  0  0
  130.6844  134.3172  155.7344 H   0  0  0  0  0  0  0  0  0  0  0  0
  130.7749  130.3321  154.7476 C   0  0  0  0  0  0  0  0  0  0  0  0
  130.9891  129.7130  153.5341 C   0  0  0  0  0  0  0  0  0  0  0  0
  130.9663  130.3018  150.2989 H   0  0  0  0  0  0  0  0  0  0  0  0
  131.3242  128.8673  151.0969 H   0  0  0  0  0  0  0  0  0  0  0  0
  130.3645  132.3245  151.4703 H   0  0  0  0  0  0  0  0  0  0  0  0
  129.9695  133.4320  153.6299 H   0  0  0  0  0  0  0  0  0  0  0  0
  129.4605  130.6998  157.3426 H   0  0  0  0  0  0  0  0  0  0  0  0
  130.7750  135.7668  157.9741 H   0  0  0  0  0  0  0  0  0  0  0  0
  129.8903  137.4536  159.5529 H   0  0  0  0  0  0  0  0  0  0  0  0
  129.0639  136.8073  160.9907 H   0  0  0  0  0  0  0  0  0  0  0  0
  132.0235  137.7023  159.7971 H   0  0  0  0  0  0  0  0  0  0  0  0
  134.0653  136.0016  160.1977 H   0  0  0  0  0  0  0  0  0  0  0  0
  134.0219  137.4497  161.2254 H   0  0  0  0  0  0  0  0  0  0  0  0
  134.2851  135.6073  162.8470 H   0  0  0  0  0  0  0  0  0  0  0  0
  132.3922  134.3605  163.3939 H   0  0  0  0  0  0  0  0  0  0  0  0
  130.2584  134.9769  162.3173 H   0  0  0  0  0  0  0  0  0  0  0  0
  131.1083  134.0561  161.0592 H   0  0  0  0  0  0  0  0  0  0  0  0
  127.8393  136.7816  158.1848 H   0  0  0  0  0  0  0  0  0  0  0  0
  126.7144  135.0104  160.5156 H   0  0  0  0  0  0  0  0  0  0  0  0
  125.7578  136.2409  159.5298 H   0  0  0  0  0  0  0  0  0  0  0  0
  126.2720  134.9436  157.4107 H   0  0  0  0  0  0  0  0  0  0  0  0
  127.2290  133.7128  158.3958 H   0  0  0  0  0  0  0  0  0  0  0  0
  130.8928  129.7761  155.6660 H   0  0  0  0  0  0  0  0  0  0  0  0
  131.2744  128.6719  153.5023 H   0  0  0  0  0  0  0  0  0  0  0  0
  1  2  1  0
  1 28  1  0
  1 29  1  0
  2 27  2  0
  2  3  1  0
  3  4  2  0
  3 30  1  0
  4  5  1  0
  4 31  1  0
  5  6  1  0
  5 26  2  0
  6 24  1  0
  6  7  2  0
  7  8  1  0
  7 32  1  0
  8  9  1  0
  8 10  1  0
 10 11  1  0
 10 24  2  0
 11 12  1  0
 11 33  1  0
 12 13  1  1
 12 14  1  0
 12 21  1  0
 14 15  1  0
 14 34  1  0
 14 35  1  0
 15 20  1  0
 15 16  2  0
 16 17  1  0
 16 36  1  0
 17 18  1  0
 17 37  1  0
 17 38  1  0
 18 19  2  0
 18 39  1  0
 19 20  1  0
 19 40  1  0
 20 41  1  0
 20 42  1  0
 21 23  1  0
 21 22  1  0
 21 43  1  0
 22 23  1  0
 22 44  1  0
 22 45  1  0
 23 46  1  0
 23 47  1  0
 24 25  1  0
 26 27  1  0
 26 48  1  0
 27 49  1  0
M  CHG  1  24   1
M  END
>  <DOCK_score>  (1) 
-56.291943

>  <SMILES>  (1) 
Nc1ccc(-c2c[nH]c(N[C@@H](CC3=CCC=CC3)C3CC3)[nH+]2)cc1

$$$$
