OC1C=CC(=C[C@@H]([NH2+]Cc2ccccc2)C2CC2)C1
     RDKit          3D

 41 43  0  0  1  0  0  0  0  0999 V2000
  123.8394  134.5773  161.6991 O   0  0  0  0  0  0  0  0  0  0  0  0
  124.6685  133.7407  160.8898 C   0  0  2  0  0  0  0  0  0  0  0  0
  125.9367  133.3939  161.6280 C   0  0  0  0  0  0  0  0  0  0  0  0
  126.9930  133.8361  160.9731 C   0  0  0  0  0  0  0  0  0  0  0  0
  126.6264  134.5282  159.7319 C   0  0  0  0  0  0  0  0  0  0  0  0
  127.4648  135.0805  158.8616 C   0  0  0  0  0  0  0  0  0  0  0  0
  128.9504  135.0283  159.1091 C   0  0  1  0  0  0  0  0  0  0  0  0
  129.1447  134.5019  160.0435 H   0  0  0  0  0  0  0  0  0  0  0  0
  129.6066  134.3197  158.0022 N   0  0  0  0  0  0  0  0  0  0  0  0
  129.1783  134.5893  157.1293 H   0  0  0  0  0  0  0  0  0  0  0  0
  130.5868  134.5588  157.9839 H   0  0  0  0  0  0  0  0  0  0  0  0
  129.4595  132.8706  158.1929 C   0  0  0  0  0  0  0  0  0  0  0  0
  130.1327  132.1436  157.0574 C   0  0  0  0  0  0  0  0  0  0  0  0
  130.6842  130.8936  157.2674 C   0  0  0  0  0  0  0  0  0  0  0  0
  131.2975  130.2247  156.2246 C   0  0  0  0  0  0  0  0  0  0  0  0
  131.3684  130.8103  154.9744 C   0  0  0  0  0  0  0  0  0  0  0  0
  130.8215  132.0626  154.7657 C   0  0  0  0  0  0  0  0  0  0  0  0
  130.2036  132.7293  155.8073 C   0  0  0  0  0  0  0  0  0  0  0  0
  129.5024  136.4523  159.2016 C   0  0  0  0  0  0  0  0  0  0  0  0
  130.7053  136.6854  160.1177 C   0  0  0  0  0  0  0  0  0  0  0  0
  129.3211  137.1955  160.5267 C   0  0  0  0  0  0  0  0  0  0  0  0
  125.1164  134.4960  159.6261 C   0  0  0  0  0  0  0  0  0  0  0  0
  124.2665  135.3969  161.9837 H   0  0  0  0  0  0  0  0  0  0  0  0
  124.1321  132.8323  160.6154 H   0  0  0  0  0  0  0  0  0  0  0  0
  125.9751  132.8571  162.5643 H   0  0  0  0  0  0  0  0  0  0  0  0
  128.0102  133.7040  161.3113 H   0  0  0  0  0  0  0  0  0  0  0  0
  127.0816  135.5668  157.9766 H   0  0  0  0  0  0  0  0  0  0  0  0
  129.9222  132.5794  159.1359 H   0  0  0  0  0  0  0  0  0  0  0  0
  128.4007  132.6124  158.2126 H   0  0  0  0  0  0  0  0  0  0  0  0
  130.6327  130.4380  158.2452 H   0  0  0  0  0  0  0  0  0  0  0  0
  131.7251  129.2464  156.3877 H   0  0  0  0  0  0  0  0  0  0  0  0
  131.8514  130.2896  154.1608 H   0  0  0  0  0  0  0  0  0  0  0  0
  130.8772  132.5202  153.7891 H   0  0  0  0  0  0  0  0  0  0  0  0
  129.7766  133.7078  155.6443 H   0  0  0  0  0  0  0  0  0  0  0  0
  129.4472  137.0383  158.2842 H   0  0  0  0  0  0  0  0  0  0  0  0
  131.1035  135.8245  160.6546 H   0  0  0  0  0  0  0  0  0  0  0  0
  131.4415  137.4253  159.8032 H   0  0  0  0  0  0  0  0  0  0  0  0
  129.1473  138.2705  160.4811 H   0  0  0  0  0  0  0  0  0  0  0  0
  128.8088  136.6700  161.3325 H   0  0  0  0  0  0  0  0  0  0  0  0
  124.8078  133.9576  158.7300 H   0  0  0  0  0  0  0  0  0  0  0  0
  124.7121  135.5083  159.6228 H   0  0  0  0  0  0  0  0  0  0  0  0
  1  2  1  0
  1 23  1  0
  2 22  1  0
  2  3  1  0
  2 24  1  6
  3  4  2  0
  3 25  1  0
  4  5  1  0
  4 26  1  0
  5  6  2  0
  5 22  1  0
  6  7  1  0
  6 27  1  0
  7  8  1  1
  7  9  1  0
  7 19  1  0
  9 10  1  0
  9 11  1  0
  9 12  1  0
 12 13  1  0
 12 28  1  0
 12 29  1  0
 13 18  1  0
 13 14  2  0
 14 15  1  0
 14 30  1  0
 15 16  2  0
 15 31  1  0
 16 17  1  0
 16 32  1  0
 17 18  2  0
 17 33  1  0
 18 34  1  0
 19 21  1  0
 19 20  1  0
 19 35  1  0
 20 21  1  0
 20 36  1  0
 20 37  1  0
 21 38  1  0
 21 39  1  0
 22 40  1  0
 22 41  1  0
M  CHG  1   9   1
M  END
>  <DOCK_score>  (1) 
-43.53204

>  <SMILES>  (1) 
OC1C=CC(=C[C@@H]([NH2+]Cc2ccccc2)C2CC2)C1

$$$$
