CNc1ccccc1Nc1c(N)ccc(Nc2[nH]c3cccc(N)c3[nH+]2)c1C
     RDKit          3D

 52 55  0  0  1  0  0  0  0  0999 V2000
  130.8394  130.9690  155.3990 C   0  0  0  0  0  0  0  0  0  0  0  0
  131.0965  131.8534  156.5383 N   0  0  0  0  0  0  0  0  0  0  0  0
  131.0814  131.3399  157.8405 C   0  0  0  0  0  0  0  0  0  0  0  0
  130.8229  129.9944  158.0544 C   0  0  0  0  0  0  0  0  0  0  0  0
  130.8075  129.4895  159.3414 C   0  0  0  0  0  0  0  0  0  0  0  0
  131.0552  130.3212  160.4178 C   0  0  0  0  0  0  0  0  0  0  0  0
  131.3084  131.6651  160.2145 C   0  0  0  0  0  0  0  0  0  0  0  0
  131.3256  132.1803  158.9268 C   0  0  0  0  0  0  0  0  0  0  0  0
  131.5874  133.5395  158.7180 N   0  0  0  0  0  0  0  0  0  0  0  0
  130.7487  134.5084  159.2810 C   0  0  0  0  0  0  0  0  0  0  0  0
  129.3931  134.5358  158.9520 C   0  0  0  0  0  0  0  0  0  0  0  0
  128.8694  133.5929  158.0556 N   0  0  0  0  0  0  0  0  0  0  0  0
  128.5647  135.4960  159.5113 C   0  0  0  0  0  0  0  0  0  0  0  0
  129.0801  136.4260  160.3952 C   0  0  0  0  0  0  0  0  0  0  0  0
  130.4286  136.4014  160.7247 C   0  0  0  0  0  0  0  0  0  0  0  0
  130.9474  137.3454  161.6199 N   0  0  0  0  0  0  0  0  0  0  0  0
  131.9509  138.2033  161.2141 C   0  0  0  0  0  0  0  0  0  0  0  0
  132.5268  139.1642  161.9964 N   0  0  0  0  0  0  0  0  0  0  0  0
  132.3070  139.3620  162.9202 H   0  0  0  0  0  0  0  0  0  0  0  0
  133.4851  139.8012  161.2257 C   0  0  0  0  0  0  0  0  0  0  0  0
  134.3787  140.8369  161.4647 C   0  0  0  0  0  0  0  0  0  0  0  0
  135.2247  141.2626  160.4620 C   0  0  0  0  0  0  0  0  0  0  0  0
  135.1920  140.6628  159.2120 C   0  0  0  0  0  0  0  0  0  0  0  0
  134.3096  139.6295  158.9542 C   0  0  0  0  0  0  0  0  0  0  0  0
  134.2806  139.0288  157.6923 N   0  0  0  0  0  0  0  0  0  0  0  0
  133.4437  139.1877  159.9654 C   0  0  0  0  0  0  0  0  0  0  0  0
  132.4887  138.2214  160.0206 N   0  0  0  0  0  0  0  0  0  0  0  0
  132.2436  137.6348  159.2879 H   0  0  0  0  0  0  0  0  0  0  0  0
  131.2622  135.4388  160.1710 C   0  0  0  0  0  0  0  0  0  0  0  0
  132.7247  135.4088  160.5333 C   0  0  0  0  0  0  0  0  0  0  0  0
  131.5872  130.1763  155.3783 H   0  0  0  0  0  0  0  0  0  0  0  0
  129.8466  130.5296  155.4972 H   0  0  0  0  0  0  0  0  0  0  0  0
  130.8926  131.5432  154.4741 H   0  0  0  0  0  0  0  0  0  0  0  0
  131.2776  132.7949  156.3903 H   0  0  0  0  0  0  0  0  0  0  0  0
  130.6336  129.3410  157.2156 H   0  0  0  0  0  0  0  0  0  0  0  0
  130.6058  128.4414  159.5062 H   0  0  0  0  0  0  0  0  0  0  0  0
  131.0463  129.9209  161.4208 H   0  0  0  0  0  0  0  0  0  0  0  0
  131.4974  132.3126  161.0577 H   0  0  0  0  0  0  0  0  0  0  0  0
  132.3501  133.8098  158.1831 H   0  0  0  0  0  0  0  0  0  0  0  0
  129.4119  132.8411  157.7704 H   0  0  0  0  0  0  0  0  0  0  0  0
  127.9643  133.6925  157.7209 H   0  0  0  0  0  0  0  0  0  0  0  0
  127.5154  135.5175  159.2567 H   0  0  0  0  0  0  0  0  0  0  0  0
  128.4326  137.1728  160.8303 H   0  0  0  0  0  0  0  0  0  0  0  0
  130.6022  137.3967  162.5249 H   0  0  0  0  0  0  0  0  0  0  0  0
  134.4113  141.3091  162.4355 H   0  0  0  0  0  0  0  0  0  0  0  0
  135.9180  142.0686  160.6518 H   0  0  0  0  0  0  0  0  0  0  0  0
  135.8595  141.0050  158.4351 H   0  0  0  0  0  0  0  0  0  0  0  0
  133.6605  138.3045  157.5140 H   0  0  0  0  0  0  0  0  0  0  0  0
  134.8805  139.3363  156.9948 H   0  0  0  0  0  0  0  0  0  0  0  0
  133.2916  135.9877  159.8042 H   0  0  0  0  0  0  0  0  0  0  0  0
  132.8622  135.8394  161.5252 H   0  0  0  0  0  0  0  0  0  0  0  0
  133.0782  134.3777  160.5327 H   0  0  0  0  0  0  0  0  0  0  0  0
  1  2  1  0
  1 31  1  0
  1 32  1  0
  1 33  1  0
  2  3  1  0
  2 34  1  0
  3  8  2  0
  3  4  1  0
  4  5  2  0
  4 35  1  0
  5  6  1  0
  5 36  1  0
  6  7  2  0
  6 37  1  0
  7  8  1  0
  7 38  1  0
  8  9  1  0
  9 10  1  0
  9 39  1  0
 10 29  1  0
 10 11  2  0
 11 12  1  0
 11 13  1  0
 12 40  1  0
 12 41  1  0
 13 14  2  0
 13 42  1  0
 14 15  1  0
 14 43  1  0
 15 16  1  0
 15 29  2  0
 16 44  1  0
 17 16  1  0
 17 27  2  0
 17 18  1  0
 18 19  1  0
 18 20  1  0
 20 26  2  0
 20 21  1  0
 21 22  2  0
 21 45  1  0
 22 23  1  0
 22 46  1  0
 23 24  2  0
 23 47  1  0
 24 25  1  0
 24 26  1  0
 25 48  1  0
 25 49  1  0
 26 27  1  0
 27 28  1  0
 29 30  1  0
 30 50  1  0
 30 51  1  0
 30 52  1  0
M  CHG  1  27   1
M  END
>  <DOCK_score>  (1) 
-61.947842

>  <SMILES>  (1) 
CNc1ccccc1Nc1c(N)ccc(Nc2[nH]c3cccc(N)c3[nH+]2)c1C

$$$$
