CCc1cccc(N2CC[NH+](C(c3ccccc3)c3ccccc3)CC2)c1[C@H](O)c1ccccc1
     RDKit          3D

 70 74  0  0  1  0  0  0  0  0999 V2000
  137.1296  141.2742  162.7274 C   0  0  0  0  0  0  0  0  0  0  0  0
  135.6186  141.0840  162.8742 C   0  0  0  0  0  0  0  0  0  0  0  0
  135.0714  140.4313  161.6309 C   0  0  0  0  0  0  0  0  0  0  0  0
  135.4741  140.8738  160.3839 C   0  0  0  0  0  0  0  0  0  0  0  0
  134.9741  140.2781  159.2408 C   0  0  0  0  0  0  0  0  0  0  0  0
  134.0706  139.2381  159.3407 C   0  0  0  0  0  0  0  0  0  0  0  0
  133.6645  138.7909  160.5914 C   0  0  0  0  0  0  0  0  0  0  0  0
  132.7511  137.7395  160.6960 N   0  0  0  0  0  0  0  0  0  0  0  0
  133.3110  136.4982  160.1429 C   0  0  0  0  0  0  0  0  0  0  0  0
  132.3051  135.3604  160.3304 C   0  0  0  0  0  0  0  0  0  0  0  0
  131.0498  135.6988  159.6468 N   0  0  0  0  0  0  0  0  0  0  0  0
  131.2301  135.8428  158.6645 H   0  0  0  0  0  0  0  0  0  0  0  0
  130.0906  134.5985  159.8118 C   0  0  0  0  0  0  0  0  0  0  0  0
  128.8026  134.9454  159.1106 C   0  0  0  0  0  0  0  0  0  0  0  0
  127.6028  134.4458  159.5815 C   0  0  0  0  0  0  0  0  0  0  0  0
  126.4210  134.7680  158.9411 C   0  0  0  0  0  0  0  0  0  0  0  0
  126.4393  135.5811  157.8242 C   0  0  0  0  0  0  0  0  0  0  0  0
  127.6401  136.0767  157.3494 C   0  0  0  0  0  0  0  0  0  0  0  0
  128.8216  135.7587  157.9930 C   0  0  0  0  0  0  0  0  0  0  0  0
  130.6637  133.3388  159.2153 C   0  0  0  0  0  0  0  0  0  0  0  0
  130.4262  133.0323  157.8883 C   0  0  0  0  0  0  0  0  0  0  0  0
  130.9560  131.8793  157.3399 C   0  0  0  0  0  0  0  0  0  0  0  0
  131.7155  131.0279  158.1211 C   0  0  0  0  0  0  0  0  0  0  0  0
  131.9477  131.3314  159.4492 C   0  0  0  0  0  0  0  0  0  0  0  0
  131.4223  132.4871  159.9963 C   0  0  0  0  0  0  0  0  0  0  0  0
  130.4901  136.9268  160.2267 C   0  0  0  0  0  0  0  0  0  0  0  0
  131.4809  138.0777  160.0383 C   0  0  0  0  0  0  0  0  0  0  0  0
  134.1728  139.3882  161.7381 C   0  0  0  0  0  0  0  0  0  0  0  0
  133.7393  138.9027  163.0972 C   0  0  2  0  0  0  0  0  0  0  0  0
  133.0332  138.0804  162.9811 H   0  0  0  0  0  0  0  0  0  0  0  0
  133.1124  139.9724  163.8076 O   0  0  0  0  0  0  0  0  0  0  0  0
  134.9435  138.4258  163.8678 C   0  0  0  0  0  0  0  0  0  0  0  0
  136.0259  137.8892  163.1959 C   0  0  0  0  0  0  0  0  0  0  0  0
  137.1321  137.4554  163.9024 C   0  0  0  0  0  0  0  0  0  0  0  0
  137.1521  137.5500  165.2813 C   0  0  0  0  0  0  0  0  0  0  0  0
  136.0678  138.0822  165.9535 C   0  0  0  0  0  0  0  0  0  0  0  0
  134.9633  138.5197  165.2467 C   0  0  0  0  0  0  0  0  0  0  0  0
  137.5954  140.3168  162.4938 H   0  0  0  0  0  0  0  0  0  0  0  0
  137.3302  141.9818  161.9228 H   0  0  0  0  0  0  0  0  0  0  0  0
  137.5397  141.6597  163.6608 H   0  0  0  0  0  0  0  0  0  0  0  0
  135.1422  142.0542  163.0148 H   0  0  0  0  0  0  0  0  0  0  0  0
  135.4144  140.4502  163.7371 H   0  0  0  0  0  0  0  0  0  0  0  0
  136.1805  141.6868  160.3030 H   0  0  0  0  0  0  0  0  0  0  0  0
  135.2901  140.6266  158.2686 H   0  0  0  0  0  0  0  0  0  0  0  0
  133.6803  138.7734  158.4474 H   0  0  0  0  0  0  0  0  0  0  0  0
  133.5141  136.6327  159.0804 H   0  0  0  0  0  0  0  0  0  0  0  0
  134.2374  136.2539  160.6626 H   0  0  0  0  0  0  0  0  0  0  0  0
  132.1125  135.2172  161.3937 H   0  0  0  0  0  0  0  0  0  0  0  0
  132.7125  134.4419  159.9080 H   0  0  0  0  0  0  0  0  0  0  0  0
  129.8960  134.4422  160.8728 H   0  0  0  0  0  0  0  0  0  0  0  0
  127.5885  133.8067  160.4521 H   0  0  0  0  0  0  0  0  0  0  0  0
  125.4832  134.3805  159.3113 H   0  0  0  0  0  0  0  0  0  0  0  0
  125.5169  135.8294  157.3205 H   0  0  0  0  0  0  0  0  0  0  0  0
  127.6550  136.7118  156.4760 H   0  0  0  0  0  0  0  0  0  0  0  0
  129.7594  136.1455  157.6223 H   0  0  0  0  0  0  0  0  0  0  0  0
  129.8300  133.6955  157.2793 H   0  0  0  0  0  0  0  0  0  0  0  0
  130.7735  131.6416  156.3023 H   0  0  0  0  0  0  0  0  0  0  0  0
  132.1247  130.1244  157.6936 H   0  0  0  0  0  0  0  0  0  0  0  0
  132.5399  130.6658  160.0595 H   0  0  0  0  0  0  0  0  0  0  0  0
  131.6041  132.7243  161.0341 H   0  0  0  0  0  0  0  0  0  0  0  0
  130.3069  136.7756  161.2904 H   0  0  0  0  0  0  0  0  0  0  0  0
  129.5521  137.1696  159.7273 H   0  0  0  0  0  0  0  0  0  0  0  0
  131.0723  138.9856  160.4817 H   0  0  0  0  0  0  0  0  0  0  0  0
  131.6539  138.2381  158.9742 H   0  0  0  0  0  0  0  0  0  0  0  0
  132.7252  139.7092  164.6535 H   0  0  0  0  0  0  0  0  0  0  0  0
  136.0087  137.8118  162.1188 H   0  0  0  0  0  0  0  0  0  0  0  0
  137.9791  137.0393  163.3772 H   0  0  0  0  0  0  0  0  0  0  0  0
  138.0151  137.2080  165.8336 H   0  0  0  0  0  0  0  0  0  0  0  0
  136.0834  138.1559  167.0309 H   0  0  0  0  0  0  0  0  0  0  0  0
  134.1159  138.9350  165.7720 H   0  0  0  0  0  0  0  0  0  0  0  0
  1  2  1  0
  1 38  1  0
  1 39  1  0
  1 40  1  0
  2  3  1  0
  2 41  1  0
  2 42  1  0
  3 28  2  0
  3  4  1  0
  4  5  2  0
  4 43  1  0
  5  6  1  0
  5 44  1  0
  6  7  2  0
  6 45  1  0
  7  8  1  0
  7 28  1  0
  8 27  1  0
  8  9  1  0
  9 10  1  0
  9 46  1  0
  9 47  1  0
 10 11  1  0
 10 48  1  0
 10 49  1  0
 11 12  1  0
 11 13  1  0
 11 26  1  0
 13 14  1  0
 13 20  1  0
 13 50  1  0
 14 19  1  0
 14 15  2  0
 15 16  1  0
 15 51  1  0
 16 17  2  0
 16 52  1  0
 17 18  1  0
 17 53  1  0
 18 19  2  0
 18 54  1  0
 19 55  1  0
 20 25  1  0
 20 21  2  0
 21 22  1  0
 21 56  1  0
 22 23  2  0
 22 57  1  0
 23 24  1  0
 23 58  1  0
 24 25  2  0
 24 59  1  0
 25 60  1  0
 26 27  1  0
 26 61  1  0
 26 62  1  0
 27 63  1  0
 27 64  1  0
 28 29  1  0
 29 30  1  6
 29 31  1  0
 29 32  1  0
 31 65  1  0
 32 37  1  0
 32 33  2  0
 33 34  1  0
 33 66  1  0
 34 35  2  0
 34 67  1  0
 35 36  1  0
 35 68  1  0
 36 37  2  0
 36 69  1  0
 37 70  1  0
M  CHG  1  11   1
M  END
>  <DOCK_score>  (1) 
-59.103455

>  <SMILES>  (1) 
CCc1cccc(N2CC[NH+](C(c3ccccc3)c3ccccc3)CC2)c1[C@H](O)c1ccccc1

$$$$
