Cc1nn(-c2ccc(F)cc2)cc1C[NH2+][C@H](Cc1cccc(O)c1)c1ccccc1
     RDKit          3D

 55 58  0  0  1  0  0  0  0  0999 V2000
  129.4986  139.4092  162.9766 C   0  0  0  0  0  0  0  0  0  0  0  0
  130.5669  139.1994  161.9346 C   0  0  0  0  0  0  0  0  0  0  0  0
  131.6763  139.8853  161.8244 N   0  0  0  0  0  0  0  0  0  0  0  0
  132.3957  139.3819  160.7329 N   0  0  0  0  0  0  0  0  0  0  0  0
  133.6396  139.8450  160.2800 C   0  0  0  0  0  0  0  0  0  0  0  0
  134.2463  139.2476  159.1835 C   0  0  0  0  0  0  0  0  0  0  0  0
  135.4682  139.7090  158.7350 C   0  0  0  0  0  0  0  0  0  0  0  0
  136.0942  140.7590  159.3859 C   0  0  0  0  0  0  0  0  0  0  0  0
  137.2924  141.2052  158.9496 F   0  0  0  0  0  0  0  0  0  0  0  0
  135.4931  141.3524  160.4834 C   0  0  0  0  0  0  0  0  0  0  0  0
  134.2684  140.8977  160.9310 C   0  0  0  0  0  0  0  0  0  0  0  0
  131.6814  138.3666  160.1971 C   0  0  0  0  0  0  0  0  0  0  0  0
  130.5437  138.2379  160.9186 C   0  0  0  0  0  0  0  0  0  0  0  0
  129.4482  137.2322  160.6747 C   0  0  0  0  0  0  0  0  0  0  0  0
  130.0424  135.9126  160.4228 N   0  0  0  0  0  0  0  0  0  0  0  0
  130.5861  135.6298  161.2244 H   0  0  0  0  0  0  0  0  0  0  0  0
  130.6401  135.9622  159.6115 H   0  0  0  0  0  0  0  0  0  0  0  0
  128.9745  134.9320  160.1851 C   0  0  2  0  0  0  0  0  0  0  0  0
  128.1922  135.3871  159.5779 H   0  0  0  0  0  0  0  0  0  0  0  0
  128.3855  134.4848  161.5244 C   0  0  0  0  0  0  0  0  0  0  0  0
  127.0189  133.8909  161.2990 C   0  0  0  0  0  0  0  0  0  0  0  0
  126.8864  132.5368  161.0516 C   0  0  0  0  0  0  0  0  0  0  0  0
  125.6335  131.9880  160.8505 C   0  0  0  0  0  0  0  0  0  0  0  0
  124.5110  132.7924  160.8911 C   0  0  0  0  0  0  0  0  0  0  0  0
  124.6419  134.1520  161.1334 C   0  0  0  0  0  0  0  0  0  0  0  0
  123.5391  134.9452  161.1742 O   0  0  0  0  0  0  0  0  0  0  0  0
  125.9004  134.7005  161.3345 C   0  0  0  0  0  0  0  0  0  0  0  0
  129.5412  133.7377  159.4616 C   0  0  0  0  0  0  0  0  0  0  0  0
  128.7404  133.0033  158.6070 C   0  0  0  0  0  0  0  0  0  0  0  0
  129.2614  131.9101  157.9403 C   0  0  0  0  0  0  0  0  0  0  0  0
  130.5808  131.5465  158.1344 C   0  0  0  0  0  0  0  0  0  0  0  0
  131.3801  132.2778  158.9930 C   0  0  0  0  0  0  0  0  0  0  0  0
  130.8603  133.3732  159.6568 C   0  0  0  0  0  0  0  0  0  0  0  0
  129.7153  138.7924  163.8488 H   0  0  0  0  0  0  0  0  0  0  0  0
  129.4786  140.4589  163.2702 H   0  0  0  0  0  0  0  0  0  0  0  0
  128.5293  139.1286  162.5648 H   0  0  0  0  0  0  0  0  0  0  0  0
  133.7608  138.4254  158.6786 H   0  0  0  0  0  0  0  0  0  0  0  0
  135.9385  139.2475  157.8792 H   0  0  0  0  0  0  0  0  0  0  0  0
  135.9829  142.1710  160.9899 H   0  0  0  0  0  0  0  0  0  0  0  0
  133.7998  141.3609  161.7867 H   0  0  0  0  0  0  0  0  0  0  0  0
  131.9663  137.7676  159.3448 H   0  0  0  0  0  0  0  0  0  0  0  0
  128.8608  137.5375  159.8088 H   0  0  0  0  0  0  0  0  0  0  0  0
  128.8025  137.1785  161.5513 H   0  0  0  0  0  0  0  0  0  0  0  0
  128.3031  135.3440  162.1902 H   0  0  0  0  0  0  0  0  0  0  0  0
  129.0368  133.7365  161.9761 H   0  0  0  0  0  0  0  0  0  0  0  0
  127.7626  131.9062  161.0199 H   0  0  0  0  0  0  0  0  0  0  0  0
  125.5322  130.9294  160.6618 H   0  0  0  0  0  0  0  0  0  0  0  0
  123.5325  132.3633  160.7339 H   0  0  0  0  0  0  0  0  0  0  0  0
  123.7311  135.8768  161.3489 H   0  0  0  0  0  0  0  0  0  0  0  0
  126.0048  135.7587  161.5237 H   0  0  0  0  0  0  0  0  0  0  0  0
  127.7087  133.2855  158.4579 H   0  0  0  0  0  0  0  0  0  0  0  0
  128.6368  131.3386  157.2697 H   0  0  0  0  0  0  0  0  0  0  0  0
  130.9871  130.6908  157.6155 H   0  0  0  0  0  0  0  0  0  0  0  0
  132.4109  131.9934  159.1450 H   0  0  0  0  0  0  0  0  0  0  0  0
  131.4848  133.9445  160.3276 H   0  0  0  0  0  0  0  0  0  0  0  0
  1  2  1  0
  1 34  1  0
  1 35  1  0
  1 36  1  0
  2 13  1  0
  2  3  2  0
  3  4  1  0
  4  5  1  0
  4 12  1  0
  5 11  1  0
  5  6  2  0
  6  7  1  0
  6 37  1  0
  7  8  2  0
  7 38  1  0
  8  9  1  0
  8 10  1  0
 10 11  2  0
 10 39  1  0
 11 40  1  0
 12 13  2  0
 12 41  1  0
 13 14  1  0
 14 15  1  0
 14 42  1  0
 14 43  1  0
 15 16  1  0
 15 17  1  0
 15 18  1  0
 18 19  1  6
 18 20  1  0
 18 28  1  0
 20 21  1  0
 20 44  1  0
 20 45  1  0
 21 27  1  0
 21 22  2  0
 22 23  1  0
 22 46  1  0
 23 24  2  0
 23 47  1  0
 24 25  1  0
 24 48  1  0
 25 26  1  0
 25 27  2  0
 26 49  1  0
 27 50  1  0
 28 33  1  0
 28 29  2  0
 29 30  1  0
 29 51  1  0
 30 31  2  0
 30 52  1  0
 31 32  1  0
 31 53  1  0
 32 33  2  0
 32 54  1  0
 33 55  1  0
M  CHG  1  15   1
M  END
>  <DOCK_score>  (1) 
-52.330288

>  <SMILES>  (1) 
Cc1nn(-c2ccc(F)cc2)cc1C[NH2+][C@H](Cc1cccc(O)c1)c1ccccc1

$$$$
