Nc1ccc(SCC2CC=CC2)c(Nc2[nH]cc(-c3ccncc3)[nH+]2)c1
     RDKit          3D

 48 51  0  0  1  0  0  0  0  0999 V2000
  126.7201  136.7032  162.6171 N   0  0  0  0  0  0  0  0  0  0  0  0
  128.0495  136.3639  162.3395 C   0  0  0  0  0  0  0  0  0  0  0  0
  128.9714  136.2677  163.3736 C   0  0  0  0  0  0  0  0  0  0  0  0
  130.2838  135.9280  163.1037 C   0  0  0  0  0  0  0  0  0  0  0  0
  130.6858  135.6917  161.7975 C   0  0  0  0  0  0  0  0  0  0  0  0
  132.3603  135.2642  161.4540 S   0  0  0  0  0  0  0  0  0  0  0  0
  133.2758  136.1077  162.7734 C   0  0  0  0  0  0  0  0  0  0  0  0
  134.6695  136.4842  162.2669 C   0  0  0  0  0  0  0  0  0  0  0  0
  134.5873  137.5785  161.1773 C   0  0  0  0  0  0  0  0  0  0  0  0
  135.7810  138.4689  161.4328 C   0  0  0  0  0  0  0  0  0  0  0  0
  136.2709  138.2642  162.6274 C   0  0  0  0  0  0  0  0  0  0  0  0
  135.4829  137.2071  163.3656 C   0  0  0  0  0  0  0  0  0  0  0  0
  129.7619  135.7870  160.7566 C   0  0  0  0  0  0  0  0  0  0  0  0
  130.1637  135.5433  159.4376 N   0  0  0  0  0  0  0  0  0  0  0  0
  130.0933  134.2617  158.9178 C   0  0  0  0  0  0  0  0  0  0  0  0
  129.6480  133.1598  159.5824 N   0  0  0  0  0  0  0  0  0  0  0  0
  129.3265  133.1315  160.4971 H   0  0  0  0  0  0  0  0  0  0  0  0
  129.7382  132.0967  158.7201 C   0  0  0  0  0  0  0  0  0  0  0  0
  130.2358  132.5772  157.5525 C   0  0  0  0  0  0  0  0  0  0  0  0
  130.5045  131.7869  156.3278 C   0  0  0  0  0  0  0  0  0  0  0  0
  129.8576  132.0849  155.1241 C   0  0  0  0  0  0  0  0  0  0  0  0
  130.1417  131.3280  154.0069 C   0  0  0  0  0  0  0  0  0  0  0  0
  131.0013  130.3280  154.0667 N   0  0  0  0  0  0  0  0  0  0  0  0
  131.6283  130.0104  155.1833 C   0  0  0  0  0  0  0  0  0  0  0  0
  131.4078  130.7191  156.3455 C   0  0  0  0  0  0  0  0  0  0  0  0
  130.4387  133.9103  157.7034 N   0  0  0  0  0  0  0  0  0  0  0  0
  130.7861  134.5073  157.0222 H   0  0  0  0  0  0  0  0  0  0  0  0
  128.4451  136.1231  161.0307 C   0  0  0  0  0  0  0  0  0  0  0  0
  126.0757  136.7702  161.8951 H   0  0  0  0  0  0  0  0  0  0  0  0
  126.4433  136.8715  163.5314 H   0  0  0  0  0  0  0  0  0  0  0  0
  128.6614  136.4546  164.3912 H   0  0  0  0  0  0  0  0  0  0  0  0
  130.9977  135.8504  163.9104 H   0  0  0  0  0  0  0  0  0  0  0  0
  133.3687  135.4438  163.6330 H   0  0  0  0  0  0  0  0  0  0  0  0
  132.7401  137.0103  163.0677 H   0  0  0  0  0  0  0  0  0  0  0  0
  135.2012  135.6062  161.9003 H   0  0  0  0  0  0  0  0  0  0  0  0
  134.6520  137.1319  160.1851 H   0  0  0  0  0  0  0  0  0  0  0  0
  133.6619  138.1458  161.2780 H   0  0  0  0  0  0  0  0  0  0  0  0
  136.1772  139.1786  160.7215 H   0  0  0  0  0  0  0  0  0  0  0  0
  137.1258  138.7840  163.0339 H   0  0  0  0  0  0  0  0  0  0  0  0
  134.8137  137.6699  164.0909 H   0  0  0  0  0  0  0  0  0  0  0  0
  136.1552  136.5078  163.8626 H   0  0  0  0  0  0  0  0  0  0  0  0
  130.4916  136.2723  158.8878 H   0  0  0  0  0  0  0  0  0  0  0  0
  129.4656  131.0730  158.9303 H   0  0  0  0  0  0  0  0  0  0  0  0
  129.1495  132.8985  155.0693 H   0  0  0  0  0  0  0  0  0  0  0  0
  129.6505  131.5532  153.0717 H   0  0  0  0  0  0  0  0  0  0  0  0
  132.3239  129.1842  155.1871 H   0  0  0  0  0  0  0  0  0  0  0  0
  131.9250  130.4539  157.2557 H   0  0  0  0  0  0  0  0  0  0  0  0
  127.7278  136.1980  160.2268 H   0  0  0  0  0  0  0  0  0  0  0  0
  1  2  1  0
  1 29  1  0
  1 30  1  0
  2 28  2  0
  2  3  1  0
  3  4  2  0
  3 31  1  0
  4  5  1  0
  4 32  1  0
  5  6  1  0
  5 13  2  0
  6  7  1  0
  7  8  1  0
  7 33  1  0
  7 34  1  0
  8 12  1  0
  8  9  1  0
  8 35  1  0
  9 10  1  0
  9 36  1  0
  9 37  1  0
 10 11  2  0
 10 38  1  0
 11 12  1  0
 11 39  1  0
 12 40  1  0
 12 41  1  0
 13 14  1  0
 13 28  1  0
 14 42  1  0
 15 14  1  0
 15 26  2  0
 15 16  1  0
 16 17  1  0
 16 18  1  0
 18 19  2  0
 18 43  1  0
 19 20  1  0
 19 26  1  0
 20 25  1  0
 20 21  2  0
 21 22  1  0
 21 44  1  0
 22 23  2  0
 22 45  1  0
 23 24  1  0
 24 25  2  0
 24 46  1  0
 25 47  1  0
 26 27  1  0
 28 48  1  0
M  CHG  1  26   1
M  END
>  <DOCK_score>  (1) 
-46.776878

>  <SMILES>  (1) 
Nc1ccc(SCC2CC=CC2)c(Nc2[nH]cc(-c3ccncc3)[nH+]2)c1

$$$$
