Cn1nccc1C[C@@H](Nc1[nH]cc(-c2cccnc2)[nH+]1)c1ccnn1C
     RDKit          3D

 47 50  0  0  1  0  0  0  0  0999 V2000
  126.7096  134.6751  160.3651 C   0  0  0  0  0  0  0  0  0  0  0  0
  127.1678  135.2820  159.1130 N   0  0  0  0  0  0  0  0  0  0  0  0
  126.4075  135.4395  157.9469 N   0  0  0  0  0  0  0  0  0  0  0  0
  127.1582  136.0171  157.0444 C   0  0  0  0  0  0  0  0  0  0  0  0
  128.4158  136.2543  157.6088 C   0  0  0  0  0  0  0  0  0  0  0  0
  128.3949  135.7930  158.8806 C   0  0  0  0  0  0  0  0  0  0  0  0
  129.5378  135.8404  159.8619 C   0  0  0  0  0  0  0  0  0  0  0  0
  130.3745  134.5661  159.7324 C   0  0  1  0  0  0  0  0  0  0  0  0
  129.7498  133.6982  159.9439 H   0  0  0  0  0  0  0  0  0  0  0  0
  130.9043  134.4659  158.3702 N   0  0  0  0  0  0  0  0  0  0  0  0
  130.5790  133.3773  157.5793 C   0  0  0  0  0  0  0  0  0  0  0  0
  129.7857  132.3360  157.9514 N   0  0  0  0  0  0  0  0  0  0  0  0
  129.3499  132.2241  158.8107 H   0  0  0  0  0  0  0  0  0  0  0  0
  129.7137  131.4738  156.8842 C   0  0  0  0  0  0  0  0  0  0  0  0
  130.4709  132.0086  155.8945 C   0  0  0  0  0  0  0  0  0  0  0  0
  130.6931  131.4208  154.5508 C   0  0  0  0  0  0  0  0  0  0  0  0
  130.3105  132.1154  153.3994 C   0  0  0  0  0  0  0  0  0  0  0  0
  130.5437  131.5258  152.1692 C   0  0  0  0  0  0  0  0  0  0  0  0
  131.1327  130.2753  152.1190 C   0  0  0  0  0  0  0  0  0  0  0  0
  131.4784  129.6417  153.2229 N   0  0  0  0  0  0  0  0  0  0  0  0
  131.2810  130.1648  154.4157 C   0  0  0  0  0  0  0  0  0  0  0  0
  130.9891  133.1765  156.3506 N   0  0  0  0  0  0  0  0  0  0  0  0
  131.5705  133.7683  155.8480 H   0  0  0  0  0  0  0  0  0  0  0  0
  131.5173  134.6135  160.7135 C   0  0  0  0  0  0  0  0  0  0  0  0
  132.7480  135.1258  160.4808 C   0  0  0  0  0  0  0  0  0  0  0  0
  133.5052  134.9735  161.6469 C   0  0  0  0  0  0  0  0  0  0  0  0
  132.7560  134.3907  162.5474 N   0  0  0  0  0  0  0  0  0  0  0  0
  131.4949  134.1578  161.9837 N   0  0  0  0  0  0  0  0  0  0  0  0
  130.3542  133.5282  162.6534 C   0  0  0  0  0  0  0  0  0  0  0  0
  126.2752  135.4441  161.0040 H   0  0  0  0  0  0  0  0  0  0  0  0
  125.9580  133.9164  160.1474 H   0  0  0  0  0  0  0  0  0  0  0  0
  127.5548  134.2134  160.8757 H   0  0  0  0  0  0  0  0  0  0  0  0
  126.8573  136.2712  156.0387 H   0  0  0  0  0  0  0  0  0  0  0  0
  129.2550  136.7231  157.1166 H   0  0  0  0  0  0  0  0  0  0  0  0
  130.1626  136.7083  159.6503 H   0  0  0  0  0  0  0  0  0  0  0  0
  129.1437  135.9148  160.8753 H   0  0  0  0  0  0  0  0  0  0  0  0
  131.4827  135.1625  158.0224 H   0  0  0  0  0  0  0  0  0  0  0  0
  129.1627  130.5459  156.8427 H   0  0  0  0  0  0  0  0  0  0  0  0
  129.8483  133.0892  153.4682 H   0  0  0  0  0  0  0  0  0  0  0  0
  130.2646  132.0346  151.2584 H   0  0  0  0  0  0  0  0  0  0  0  0
  131.3126  129.8106  151.1609 H   0  0  0  0  0  0  0  0  0  0  0  0
  131.5781  129.6154  155.2969 H   0  0  0  0  0  0  0  0  0  0  0  0
  133.0859  135.5729  159.5576 H   0  0  0  0  0  0  0  0  0  0  0  0
  134.5311  135.2830  161.7807 H   0  0  0  0  0  0  0  0  0  0  0  0
  130.3893  132.4503  162.4945 H   0  0  0  0  0  0  0  0  0  0  0  0
  130.3984  133.7395  163.7218 H   0  0  0  0  0  0  0  0  0  0  0  0
  129.4266  133.9261  162.2423 H   0  0  0  0  0  0  0  0  0  0  0  0
  1  2  1  0
  1 30  1  0
  1 31  1  0
  1 32  1  0
  2  6  1  0
  2  3  1  0
  3  4  2  0
  4  5  1  0
  4 33  1  0
  5  6  2  0
  5 34  1  0
  6  7  1  0
  7  8  1  0
  7 35  1  0
  7 36  1  0
  8  9  1  1
  8 10  1  0
  8 24  1  0
 10 37  1  0
 11 10  1  0
 11 22  2  0
 11 12  1  0
 12 13  1  0
 12 14  1  0
 14 15  2  0
 14 38  1  0
 15 16  1  0
 15 22  1  0
 16 21  1  0
 16 17  2  0
 17 18  1  0
 17 39  1  0
 18 19  2  0
 18 40  1  0
 19 20  1  0
 19 41  1  0
 20 21  2  0
 21 42  1  0
 22 23  1  0
 24 28  1  0
 24 25  2  0
 25 26  1  0
 25 43  1  0
 26 27  2  0
 26 44  1  0
 27 28  1  0
 28 29  1  0
 29 45  1  0
 29 46  1  0
 29 47  1  0
M  CHG  1  22   1
M  END
>  <DOCK_score>  (1) 
-59.047634

>  <SMILES>  (1) 
Cn1nccc1C[C@@H](Nc1[nH]cc(-c2cccnc2)[nH+]1)c1ccnn1C

$$$$
