Cn1c(Cc2ccccc2)cnc1C[NH2+][C@H](Cc1ccccc1)Cc1cccc(N)c1
     RDKit          3D

 62 65  0  0  1  0  0  0  0  0999 V2000
  132.3203  132.7901  159.6069 C   0  0  0  0  0  0  0  0  0  0  0  0
  131.0703  133.5417  159.4703 N   0  0  0  0  0  0  0  0  0  0  0  0
  129.8977  133.0779  158.9379 C   0  0  0  0  0  0  0  0  0  0  0  0
  129.6470  131.7003  158.3805 C   0  0  0  0  0  0  0  0  0  0  0  0
  129.9709  131.6873  156.9089 C   0  0  0  0  0  0  0  0  0  0  0  0
  130.7092  130.6489  156.3727 C   0  0  0  0  0  0  0  0  0  0  0  0
  131.0023  130.6345  155.0219 C   0  0  0  0  0  0  0  0  0  0  0  0
  130.5658  131.6639  154.2090 C   0  0  0  0  0  0  0  0  0  0  0  0
  129.8320  132.7050  154.7460 C   0  0  0  0  0  0  0  0  0  0  0  0
  129.5345  132.7167  156.0960 C   0  0  0  0  0  0  0  0  0  0  0  0
  129.0113  134.0895  159.0071 C   0  0  0  0  0  0  0  0  0  0  0  0
  129.6245  135.1406  159.5710 N   0  0  0  0  0  0  0  0  0  0  0  0
  130.8595  134.8215  159.8466 C   0  0  0  0  0  0  0  0  0  0  0  0
  131.8796  135.7286  160.4851 C   0  0  0  0  0  0  0  0  0  0  0  0
  131.8292  137.0496  159.8445 N   0  0  0  0  0  0  0  0  0  0  0  0
  130.9081  137.4448  159.9607 H   0  0  0  0  0  0  0  0  0  0  0  0
  132.0327  136.9544  158.8608 H   0  0  0  0  0  0  0  0  0  0  0  0
  132.8235  137.9338  160.4669 C   0  0  2  0  0  0  0  0  0  0  0  0
  132.8356  137.7658  161.5437 H   0  0  0  0  0  0  0  0  0  0  0  0
  132.4584  139.3921  160.1823 C   0  0  0  0  0  0  0  0  0  0  0  0
  131.3752  139.8334  161.1324 C   0  0  0  0  0  0  0  0  0  0  0  0
  130.0461  139.6801  160.7847 C   0  0  0  0  0  0  0  0  0  0  0  0
  129.0524  140.0803  161.6584 C   0  0  0  0  0  0  0  0  0  0  0  0
  129.3877  140.6437  162.8754 C   0  0  0  0  0  0  0  0  0  0  0  0
  130.7169  140.8017  163.2209 C   0  0  0  0  0  0  0  0  0  0  0  0
  131.7105  140.3966  162.3495 C   0  0  0  0  0  0  0  0  0  0  0  0
  134.2073  137.6323  159.8881 C   0  0  0  0  0  0  0  0  0  0  0  0
  135.2274  138.5394  160.5265 C   0  0  0  0  0  0  0  0  0  0  0  0
  135.5117  139.7675  159.9575 C   0  0  0  0  0  0  0  0  0  0  0  0
  136.4469  140.6029  160.5399 C   0  0  0  0  0  0  0  0  0  0  0  0
  137.0968  140.2153  161.6956 C   0  0  0  0  0  0  0  0  0  0  0  0
  136.8172  138.9806  162.2669 C   0  0  0  0  0  0  0  0  0  0  0  0
  137.4756  138.5836  163.4329 N   0  0  0  0  0  0  0  0  0  0  0  0
  135.8769  138.1436  161.6789 C   0  0  0  0  0  0  0  0  0  0  0  0
  132.3352  132.2818  160.5711 H   0  0  0  0  0  0  0  0  0  0  0  0
  132.3905  132.0533  158.8066 H   0  0  0  0  0  0  0  0  0  0  0  0
  133.1653  133.4758  159.5446 H   0  0  0  0  0  0  0  0  0  0  0  0
  130.2787  130.9786  158.8981 H   0  0  0  0  0  0  0  0  0  0  0  0
  128.5995  131.4354  158.5244 H   0  0  0  0  0  0  0  0  0  0  0  0
  131.0540  129.8469  157.0087 H   0  0  0  0  0  0  0  0  0  0  0  0
  131.5760  129.8214  154.6024 H   0  0  0  0  0  0  0  0  0  0  0  0
  130.7986  131.6549  153.1544 H   0  0  0  0  0  0  0  0  0  0  0  0
  129.4912  133.5094  154.1110 H   0  0  0  0  0  0  0  0  0  0  0  0
  128.9613  133.5303  156.5156 H   0  0  0  0  0  0  0  0  0  0  0  0
  127.9855  134.0586  158.6705 H   0  0  0  0  0  0  0  0  0  0  0  0
  132.8746  135.3015  160.3595 H   0  0  0  0  0  0  0  0  0  0  0  0
  131.6598  135.8315  161.5477 H   0  0  0  0  0  0  0  0  0  0  0  0
  133.3388  140.0202  160.3181 H   0  0  0  0  0  0  0  0  0  0  0  0
  132.1013  139.4838  159.1565 H   0  0  0  0  0  0  0  0  0  0  0  0
  129.7840  139.2442  159.8320 H   0  0  0  0  0  0  0  0  0  0  0  0
  128.0139  139.9572  161.3882 H   0  0  0  0  0  0  0  0  0  0  0  0
  128.6115  140.9605  163.5561 H   0  0  0  0  0  0  0  0  0  0  0  0
  130.9789  141.2421  164.1716 H   0  0  0  0  0  0  0  0  0  0  0  0
  132.7489  140.5204  162.6194 H   0  0  0  0  0  0  0  0  0  0  0  0
  134.1952  137.8002  158.8110 H   0  0  0  0  0  0  0  0  0  0  0  0
  134.4674  136.5934  160.0909 H   0  0  0  0  0  0  0  0  0  0  0  0
  135.0023  140.0747  159.0561 H   0  0  0  0  0  0  0  0  0  0  0  0
  136.6665  141.5614  160.0933 H   0  0  0  0  0  0  0  0  0  0  0  0
  137.8239  140.8701  162.1526 H   0  0  0  0  0  0  0  0  0  0  0  0
  137.2766  137.7227  163.8332 H   0  0  0  0  0  0  0  0  0  0  0  0
  138.1349  139.1671  163.8403 H   0  0  0  0  0  0  0  0  0  0  0  0
  135.6544  137.1845  162.1226 H   0  0  0  0  0  0  0  0  0  0  0  0
  1  2  1  0
  1 35  1  0
  1 36  1  0
  1 37  1  0
  2 13  1  0
  2  3  1  0
  3  4  1  0
  3 11  2  0
  4  5  1  0
  4 38  1  0
  4 39  1  0
  5 10  1  0
  5  6  2  0
  6  7  1  0
  6 40  1  0
  7  8  2  0
  7 41  1  0
  8  9  1  0
  8 42  1  0
  9 10  2  0
  9 43  1  0
 10 44  1  0
 11 12  1  0
 11 45  1  0
 12 13  2  0
 13 14  1  0
 14 15  1  0
 14 46  1  0
 14 47  1  0
 15 16  1  0
 15 17  1  0
 15 18  1  0
 18 19  1  1
 18 20  1  0
 18 27  1  0
 20 21  1  0
 20 48  1  0
 20 49  1  0
 21 26  1  0
 21 22  2  0
 22 23  1  0
 22 50  1  0
 23 24  2  0
 23 51  1  0
 24 25  1  0
 24 52  1  0
 25 26  2  0
 25 53  1  0
 26 54  1  0
 27 28  1  0
 27 55  1  0
 27 56  1  0
 28 34  1  0
 28 29  2  0
 29 30  1  0
 29 57  1  0
 30 31  2  0
 30 58  1  0
 31 32  1  0
 31 59  1  0
 32 33  1  0
 32 34  2  0
 33 60  1  0
 33 61  1  0
 34 62  1  0
M  CHG  1  15   1
M  END
>  <DOCK_score>  (1) 
-57.4123

>  <SMILES>  (1) 
Cn1c(Cc2ccccc2)cnc1C[NH2+][C@H](Cc1ccccc1)Cc1cccc(N)c1

$$$$
