CCc1ccc(C[N@H+]2CC=C(c3cccc(-c4cccc(O)c4)c3)CC2)[nH]1
     RDKit          3D

 54 57  0  0  1  0  0  0  0  0999 V2000
  130.1383  131.8077  154.8412 C   0  0  0  0  0  0  0  0  0  0  0  0
  130.8977  131.6654  156.1617 C   0  0  0  0  0  0  0  0  0  0  0  0
  130.1553  132.3978  157.2497 C   0  0  0  0  0  0  0  0  0  0  0  0
  129.2013  131.8743  158.0461 C   0  0  0  0  0  0  0  0  0  0  0  0
  128.7769  132.8934  158.9215 C   0  0  0  0  0  0  0  0  0  0  0  0
  129.4817  134.0031  158.6211 C   0  0  0  0  0  0  0  0  0  0  0  0
  129.3560  135.3411  159.3030 C   0  0  0  0  0  0  0  0  0  0  0  0
  130.6953  135.8780  159.5785 N   0  0  1  0  0  0  0  0  0  0  0  0
  131.1994  135.9891  158.7116 H   0  0  0  0  0  0  0  0  0  0  0  0
  130.5750  137.1788  160.2470 C   0  0  0  0  0  0  0  0  0  0  0  0
  131.9228  137.6612  160.7003 C   0  0  0  0  0  0  0  0  0  0  0  0
  132.9623  136.8651  160.8269 C   0  0  0  0  0  0  0  0  0  0  0  0
  134.2458  137.4367  161.2864 C   0  0  0  0  0  0  0  0  0  0  0  0
  134.5649  138.7644  160.9953 C   0  0  0  0  0  0  0  0  0  0  0  0
  135.7630  139.2985  161.4245 C   0  0  0  0  0  0  0  0  0  0  0  0
  136.6527  138.5244  162.1440 C   0  0  0  0  0  0  0  0  0  0  0  0
  136.3458  137.1973  162.4404 C   0  0  0  0  0  0  0  0  0  0  0  0
  137.3034  136.3679  163.2135 C   0  0  0  0  0  0  0  0  0  0  0  0
  137.3576  134.9902  163.0098 C   0  0  0  0  0  0  0  0  0  0  0  0
  138.2532  134.2216  163.7256 C   0  0  0  0  0  0  0  0  0  0  0  0
  139.0897  134.8130  164.6540 C   0  0  0  0  0  0  0  0  0  0  0  0
  139.0380  136.1833  164.8669 C   0  0  0  0  0  0  0  0  0  0  0  0
  139.8620  136.7606  165.7805 O   0  0  0  0  0  0  0  0  0  0  0  0
  138.1462  136.9630  164.1483 C   0  0  0  0  0  0  0  0  0  0  0  0
  135.1401  136.6519  162.0112 C   0  0  0  0  0  0  0  0  0  0  0  0
  132.8934  135.3955  160.5149 C   0  0  0  0  0  0  0  0  0  0  0  0
  131.4272  134.9532  160.4586 C   0  0  0  0  0  0  0  0  0  0  0  0
  130.3316  133.7041  157.5978 N   0  0  0  0  0  0  0  0  0  0  0  0
  130.9582  134.3193  157.1854 H   0  0  0  0  0  0  0  0  0  0  0  0
  130.0586  132.8629  154.5798 H   0  0  0  0  0  0  0  0  0  0  0  0
  130.6751  131.2780  154.0544 H   0  0  0  0  0  0  0  0  0  0  0  0
  129.1398  131.3838  154.9488 H   0  0  0  0  0  0  0  0  0  0  0  0
  131.8961  132.0893  156.0542 H   0  0  0  0  0  0  0  0  0  0  0  0
  130.9773  130.6101  156.4232 H   0  0  0  0  0  0  0  0  0  0  0  0
  128.8334  130.8592  158.0207 H   0  0  0  0  0  0  0  0  0  0  0  0
  128.0237  132.8030  159.6904 H   0  0  0  0  0  0  0  0  0  0  0  0
  128.8127  135.2215  160.2403 H   0  0  0  0  0  0  0  0  0  0  0  0
  128.8146  136.0300  158.6546 H   0  0  0  0  0  0  0  0  0  0  0  0
  129.9178  137.0808  161.1111 H   0  0  0  0  0  0  0  0  0  0  0  0
  130.1478  137.9026  159.5529 H   0  0  0  0  0  0  0  0  0  0  0  0
  132.0441  138.7089  160.9326 H   0  0  0  0  0  0  0  0  0  0  0  0
  133.8732  139.3744  160.4332 H   0  0  0  0  0  0  0  0  0  0  0  0
  136.0060  140.3261  161.1972 H   0  0  0  0  0  0  0  0  0  0  0  0
  137.5885  138.9482  162.4773 H   0  0  0  0  0  0  0  0  0  0  0  0
  136.7020  134.5246  162.2888 H   0  0  0  0  0  0  0  0  0  0  0  0
  138.2972  133.1547  163.5635 H   0  0  0  0  0  0  0  0  0  0  0  0
  139.7854  134.2066  165.2151 H   0  0  0  0  0  0  0  0  0  0  0  0
  139.7534  137.7182  165.8585 H   0  0  0  0  0  0  0  0  0  0  0  0
  138.1052  138.0297  164.3127 H   0  0  0  0  0  0  0  0  0  0  0  0
  134.8963  135.6256  162.2430 H   0  0  0  0  0  0  0  0  0  0  0  0
  133.3706  135.2056  159.5536 H   0  0  0  0  0  0  0  0  0  0  0  0
  133.4102  134.8345  161.2936 H   0  0  0  0  0  0  0  0  0  0  0  0
  130.9943  134.9802  161.4586 H   0  0  0  0  0  0  0  0  0  0  0  0
  131.3638  133.9410  160.0595 H   0  0  0  0  0  0  0  0  0  0  0  0
  1  2  1  0
  1 30  1  0
  1 31  1  0
  1 32  1  0
  2  3  1  0
  2 33  1  0
  2 34  1  0
  3 28  1  0
  3  4  2  0
  4  5  1  0
  4 35  1  0
  5  6  2  0
  5 36  1  0
  6  7  1  0
  6 28  1  0
  7  8  1  0
  7 37  1  0
  7 38  1  0
  8  9  1  6
  8 27  1  0
  8 10  1  0
 10 11  1  0
 10 39  1  0
 10 40  1  0
 11 12  2  0
 11 41  1  0
 12 13  1  0
 12 26  1  0
 13 25  1  0
 13 14  2  0
 14 15  1  0
 14 42  1  0
 15 16  2  0
 15 43  1  0
 16 17  1  0
 16 44  1  0
 17 18  1  0
 17 25  2  0
 18 24  1  0
 18 19  2  0
 19 20  1  0
 19 45  1  0
 20 21  2  0
 20 46  1  0
 21 22  1  0
 21 47  1  0
 22 23  1  0
 22 24  2  0
 23 48  1  0
 24 49  1  0
 25 50  1  0
 26 27  1  0
 26 51  1  0
 26 52  1  0
 27 53  1  0
 27 54  1  0
 28 29  1  0
M  CHG  1   8   1
M  END
>  <DOCK_score>  (1) 
-56.074181

>  <SMILES>  (1) 
CCc1ccc(C[N@H+]2CC=C(c3cccc(-c4cccc(O)c4)c3)CC2)[nH]1

$$$$
