Nc1ccc(-c2c[nH]c(N[C@@H](c3cccc4c3CC(O)CC4)c3cccc4ccccc34)[nH+]2)cc1
     RDKit          3D

 64 69  0  0  1  0  0  0  0  0999 V2000
  131.1127  129.7220  152.5069 N   0  0  0  0  0  0  0  0  0  0  0  0
  130.9935  130.4464  153.6955 C   0  0  0  0  0  0  0  0  0  0  0  0
  130.5377  131.7590  153.6653 C   0  0  0  0  0  0  0  0  0  0  0  0
  130.4194  132.4760  154.8372 C   0  0  0  0  0  0  0  0  0  0  0  0
  130.7574  131.8833  156.0528 C   0  0  0  0  0  0  0  0  0  0  0  0
  130.6309  132.6526  157.3150 C   0  0  0  0  0  0  0  0  0  0  0  0
  130.3555  132.1381  158.5388 C   0  0  0  0  0  0  0  0  0  0  0  0
  130.3311  133.1941  159.4188 N   0  0  0  0  0  0  0  0  0  0  0  0
  130.1595  133.1437  160.3722 H   0  0  0  0  0  0  0  0  0  0  0  0
  130.5925  134.3229  158.7054 C   0  0  0  0  0  0  0  0  0  0  0  0
  130.6591  135.6057  159.2216 N   0  0  0  0  0  0  0  0  0  0  0  0
  129.8519  135.9684  160.3892 C   0  0  1  0  0  0  0  0  0  0  0  0
  130.1239  135.3313  161.2309 H   0  0  0  0  0  0  0  0  0  0  0  0
  130.1061  137.4099  160.7475 C   0  0  0  0  0  0  0  0  0  0  0  0
  129.0614  138.3112  160.7401 C   0  0  0  0  0  0  0  0  0  0  0  0
  129.2924  139.6324  161.0743 C   0  0  0  0  0  0  0  0  0  0  0  0
  130.5677  140.0426  161.4049 C   0  0  0  0  0  0  0  0  0  0  0  0
  131.6209  139.1376  161.4100 C   0  0  0  0  0  0  0  0  0  0  0  0
  131.3908  137.8214  161.0767 C   0  0  0  0  0  0  0  0  0  0  0  0
  132.4880  136.7899  161.0442 C   0  0  0  0  0  0  0  0  0  0  0  0
  133.7052  137.2750  161.8288 C   0  0  1  0  0  0  0  0  0  0  0  0
  134.8037  136.3873  161.6117 O   0  0  0  0  0  0  0  0  0  0  0  0
  134.0712  138.6797  161.3353 C   0  0  0  0  0  0  0  0  0  0  0  0
  132.9844  139.6501  161.7936 C   0  0  0  0  0  0  0  0  0  0  0  0
  128.3915  135.7804  160.0683 C   0  0  0  0  0  0  0  0  0  0  0  0
  127.9459  135.9378  158.7917 C   0  0  0  0  0  0  0  0  0  0  0  0
  126.5995  135.7676  158.4758 C   0  0  0  0  0  0  0  0  0  0  0  0
  125.6907  135.4395  159.4347 C   0  0  0  0  0  0  0  0  0  0  0  0
  126.1132  135.2688  160.7637 C   0  0  0  0  0  0  0  0  0  0  0  0
  125.2047  134.9288  161.7806 C   0  0  0  0  0  0  0  0  0  0  0  0
  125.6506  134.7705  163.0567 C   0  0  0  0  0  0  0  0  0  0  0  0
  126.9973  134.9410  163.3727 C   0  0  0  0  0  0  0  0  0  0  0  0
  127.9058  135.2699  162.4144 C   0  0  0  0  0  0  0  0  0  0  0  0
  127.4830  135.4413  161.0849 C   0  0  0  0  0  0  0  0  0  0  0  0
  130.7656  133.9959  157.4479 N   0  0  0  0  0  0  0  0  0  0  0  0
  130.9610  134.6156  156.7276 H   0  0  0  0  0  0  0  0  0  0  0  0
  131.2199  130.5684  156.0801 C   0  0  0  0  0  0  0  0  0  0  0  0
  131.3307  129.8532  154.9063 C   0  0  0  0  0  0  0  0  0  0  0  0
  130.8773  130.1351  151.6614 H   0  0  0  0  0  0  0  0  0  0  0  0
  131.4306  128.8058  152.5271 H   0  0  0  0  0  0  0  0  0  0  0  0
  130.2764  132.2179  152.7232 H   0  0  0  0  0  0  0  0  0  0  0  0
  130.0648  133.4958  154.8133 H   0  0  0  0  0  0  0  0  0  0  0  0
  130.1872  131.0982  158.7766 H   0  0  0  0  0  0  0  0  0  0  0  0
  131.2402  136.2645  158.8101 H   0  0  0  0  0  0  0  0  0  0  0  0
  128.0657  137.9846  160.4785 H   0  0  0  0  0  0  0  0  0  0  0  0
  128.4783  140.3421  161.0727 H   0  0  0  0  0  0  0  0  0  0  0  0
  130.7483  141.0759  161.6615 H   0  0  0  0  0  0  0  0  0  0  0  0
  132.1226  135.8623  161.4850 H   0  0  0  0  0  0  0  0  0  0  0  0
  132.7775  136.6056  160.0096 H   0  0  0  0  0  0  0  0  0  0  0  0
  133.4663  137.3103  162.8918 H   0  0  0  0  0  0  0  0  0  0  0  0
  135.0638  136.3031  160.6842 H   0  0  0  0  0  0  0  0  0  0  0  0
  134.1303  138.6825  160.2468 H   0  0  0  0  0  0  0  0  0  0  0  0
  135.0314  138.9785  161.7558 H   0  0  0  0  0  0  0  0  0  0  0  0
  133.1484  140.6207  161.3255 H   0  0  0  0  0  0  0  0  0  0  0  0
  133.0353  139.7602  162.8768 H   0  0  0  0  0  0  0  0  0  0  0  0
  128.6464  136.1980  158.0120 H   0  0  0  0  0  0  0  0  0  0  0  0
  126.2720  135.8983  157.4550 H   0  0  0  0  0  0  0  0  0  0  0  0
  124.6494  135.3157  159.1761 H   0  0  0  0  0  0  0  0  0  0  0  0
  124.1581  134.7942  161.5507 H   0  0  0  0  0  0  0  0  0  0  0  0
  124.9503  134.5093  163.8362 H   0  0  0  0  0  0  0  0  0  0  0  0
  127.3248  134.8099  164.3935 H   0  0  0  0  0  0  0  0  0  0  0  0
  128.9464  135.3980  162.6739 H   0  0  0  0  0  0  0  0  0  0  0  0
  131.4864  130.1087  157.0202 H   0  0  0  0  0  0  0  0  0  0  0  0
  131.6840  128.8329  154.9275 H   0  0  0  0  0  0  0  0  0  0  0  0
  1  2  1  0
  1 39  1  0
  1 40  1  0
  2 38  2  0
  2  3  1  0
  3  4  2  0
  3 41  1  0
  4  5  1  0
  4 42  1  0
  5  6  1  0
  5 37  2  0
  6 35  1  0
  6  7  2  0
  7  8  1  0
  7 43  1  0
  8  9  1  0
  8 10  1  0
 10 11  1  0
 10 35  2  0
 11 12  1  0
 11 44  1  0
 12 13  1  1
 12 14  1  0
 12 25  1  0
 14 19  1  0
 14 15  2  0
 15 16  1  0
 15 45  1  0
 16 17  2  0
 16 46  1  0
 17 18  1  0
 17 47  1  0
 18 24  1  0
 18 19  2  0
 19 20  1  0
 20 21  1  0
 20 48  1  0
 20 49  1  0
 21 22  1  0
 21 23  1  0
 21 50  1  1
 22 51  1  0
 23 24  1  0
 23 52  1  0
 23 53  1  0
 24 54  1  0
 24 55  1  0
 25 34  1  0
 25 26  2  0
 26 27  1  0
 26 56  1  0
 27 28  2  0
 27 57  1  0
 28 29  1  0
 28 58  1  0
 29 34  2  0
 29 30  1  0
 30 31  2  0
 30 59  1  0
 31 32  1  0
 31 60  1  0
 32 33  2  0
 32 61  1  0
 33 34  1  0
 33 62  1  0
 35 36  1  0
 37 38  1  0
 37 63  1  0
 38 64  1  0
M  CHG  1  35   1
M  END
>  <DOCK_score>  (1) 
-64.03463

>  <SMILES>  (1) 
Nc1ccc(-c2c[nH]c(N[C@@H](c3cccc4c3CC(O)CC4)c3cccc4ccccc34)[nH+]2)cc1

$$$$
