CC(C)(C)NC(NC1CC=CC1)=[NH+]Cc1nc(N)ccc1N[C@H]1C=CCC1
     RDKit          3D

 60 62  0  0  1  0  0  0  0  0999 V2000
  131.2974  136.7825  164.0008 C   0  0  0  0  0  0  0  0  0  0  0  0
  131.6274  138.2640  163.8076 C   0  0  0  0  0  0  0  0  0  0  0  0
  132.3458  138.7929  165.0506 C   0  0  0  0  0  0  0  0  0  0  0  0
  130.3330  139.0510  163.5929 C   0  0  0  0  0  0  0  0  0  0  0  0
  132.4949  138.4225  162.6378 N   0  0  0  0  0  0  0  0  0  0  0  0
  132.0599  138.0148  161.3989 C   0  0  0  0  0  0  0  0  0  0  0  0
  132.8742  138.1637  160.3012 N   0  0  0  0  0  0  0  0  0  0  0  0
  134.2052  138.7566  160.4515 C   0  0  0  0  0  0  0  0  0  0  0  0
  134.1069  140.2549  160.8209 C   0  0  0  0  0  0  0  0  0  0  0  0
  135.2448  140.9105  160.0731 C   0  0  0  0  0  0  0  0  0  0  0  0
  135.6987  140.1302  159.1304 C   0  0  0  0  0  0  0  0  0  0  0  0
  134.9396  138.8244  159.0922 C   0  0  0  0  0  0  0  0  0  0  0  0
  130.8756  137.4871  161.2653 N   0  0  0  0  0  0  0  0  0  0  0  0
  130.1570  137.7513  161.8610 H   0  0  0  0  0  0  0  0  0  0  0  0
  130.6297  136.4953  160.2157 C   0  0  0  0  0  0  0  0  0  0  0  0
  129.1924  136.0464  160.2753 C   0  0  0  0  0  0  0  0  0  0  0  0
  128.3875  136.5549  161.1895 N   0  0  0  0  0  0  0  0  0  0  0  0
  127.1187  136.1903  161.2791 C   0  0  0  0  0  0  0  0  0  0  0  0
  126.3076  136.7547  162.2612 N   0  0  0  0  0  0  0  0  0  0  0  0
  126.5855  135.2498  160.4040 C   0  0  0  0  0  0  0  0  0  0  0  0
  127.4005  134.6915  159.4363 C   0  0  0  0  0  0  0  0  0  0  0  0
  128.7306  135.1037  159.3697 C   0  0  0  0  0  0  0  0  0  0  0  0
  129.5911  134.5683  158.4034 N   0  0  0  0  0  0  0  0  0  0  0  0
  129.3821  133.2042  157.9116 C   0  0  1  0  0  0  0  0  0  0  0  0
  128.3978  133.1136  157.4520 H   0  0  0  0  0  0  0  0  0  0  0  0
  130.4630  132.8290  156.9247 C   0  0  0  0  0  0  0  0  0  0  0  0
  130.9177  131.6283  157.1595 C   0  0  0  0  0  0  0  0  0  0  0  0
  130.2158  131.0024  158.3422 C   0  0  0  0  0  0  0  0  0  0  0  0
  129.5334  132.1863  159.0659 C   0  0  0  0  0  0  0  0  0  0  0  0
  132.0672  136.3161  164.6155 H   0  0  0  0  0  0  0  0  0  0  0  0
  130.3306  136.6871  164.4949 H   0  0  0  0  0  0  0  0  0  0  0  0
  131.2594  136.2892  163.0296 H   0  0  0  0  0  0  0  0  0  0  0  0
  132.5808  139.8483  164.9129 H   0  0  0  0  0  0  0  0  0  0  0  0
  131.7003  138.6750  165.9209 H   0  0  0  0  0  0  0  0  0  0  0  0
  133.2679  138.2321  165.2035 H   0  0  0  0  0  0  0  0  0  0  0  0
  130.3896  139.5930  162.6490 H   0  0  0  0  0  0  0  0  0  0  0  0
  129.4890  138.3619  163.5663 H   0  0  0  0  0  0  0  0  0  0  0  0
  130.1984  139.7589  164.4108 H   0  0  0  0  0  0  0  0  0  0  0  0
  133.3764  138.8151  162.7373 H   0  0  0  0  0  0  0  0  0  0  0  0
  132.5672  137.8760  159.4270 H   0  0  0  0  0  0  0  0  0  0  0  0
  134.7942  138.2094  161.1876 H   0  0  0  0  0  0  0  0  0  0  0  0
  133.1514  140.6649  160.4936 H   0  0  0  0  0  0  0  0  0  0  0  0
  134.2310  140.3900  161.8955 H   0  0  0  0  0  0  0  0  0  0  0  0
  135.6311  141.8952  160.2901 H   0  0  0  0  0  0  0  0  0  0  0  0
  136.5101  140.3848  158.4649 H   0  0  0  0  0  0  0  0  0  0  0  0
  135.6296  137.9867  158.9913 H   0  0  0  0  0  0  0  0  0  0  0  0
  134.2212  138.8246  158.2722 H   0  0  0  0  0  0  0  0  0  0  0  0
  131.2849  135.6371  160.3660 H   0  0  0  0  0  0  0  0  0  0  0  0
  130.8312  136.9400  159.2412 H   0  0  0  0  0  0  0  0  0  0  0  0
  125.3767  136.4912  162.3319 H   0  0  0  0  0  0  0  0  0  0  0  0
  126.6737  137.4110  162.8743 H   0  0  0  0  0  0  0  0  0  0  0  0
  125.5493  134.9561  160.4821 H   0  0  0  0  0  0  0  0  0  0  0  0
  127.0148  133.9556  158.7463 H   0  0  0  0  0  0  0  0  0  0  0  0
  130.3256  135.1005  158.0596 H   0  0  0  0  0  0  0  0  0  0  0  0
  130.8131  133.4702  156.1292 H   0  0  0  0  0  0  0  0  0  0  0  0
  131.6935  131.1454  156.5837 H   0  0  0  0  0  0  0  0  0  0  0  0
  130.9383  130.5203  159.0008 H   0  0  0  0  0  0  0  0  0  0  0  0
  129.4700  130.2831  158.0040 H   0  0  0  0  0  0  0  0  0  0  0  0
  130.1715  132.5825  159.8558 H   0  0  0  0  0  0  0  0  0  0  0  0
  128.5600  131.8955  159.4611 H   0  0  0  0  0  0  0  0  0  0  0  0
  1  2  1  0
  1 30  1  0
  1 31  1  0
  1 32  1  0
  2  3  1  0
  2  4  1  0
  2  5  1  0
  3 33  1  0
  3 34  1  0
  3 35  1  0
  4 36  1  0
  4 37  1  0
  4 38  1  0
  5 39  1  0
  6  5  1  0
  6  7  1  0
  6 13  2  0
  7  8  1  0
  7 40  1  0
  8 12  1  0
  8  9  1  0
  8 41  1  0
  9 10  1  0
  9 42  1  0
  9 43  1  0
 10 11  2  0
 10 44  1  0
 11 12  1  0
 11 45  1  0
 12 46  1  0
 12 47  1  0
 13 14  1  0
 13 15  1  0
 15 16  1  0
 15 48  1  0
 15 49  1  0
 16 22  1  0
 16 17  2  0
 17 18  1  0
 18 19  1  0
 18 20  2  0
 19 50  1  0
 19 51  1  0
 20 21  1  0
 20 52  1  0
 21 22  2  0
 21 53  1  0
 22 23  1  0
 23 24  1  0
 23 54  1  0
 24 25  1  6
 24 29  1  0
 24 26  1  0
 26 27  2  0
 26 55  1  0
 27 28  1  0
 27 56  1  0
 28 29  1  0
 28 57  1  0
 28 58  1  0
 29 59  1  0
 29 60  1  0
M  CHG  1  13   1
M  END
>  <DOCK_score>  (1) 
-47.438641

>  <SMILES>  (1) 
CC(C)(C)NC(NC1CC=CC1)=[NH+]Cc1nc(N)ccc1N[C@H]1C=CCC1

$$$$
