OCc1cccc(-c2cccc(C[NH2+]C[C@@H](O)c3cccc(C4=Cc5ccccc5C4)c3)c2)c1
     RDKit          3D

 64 68  0  0  1  0  0  0  0  0999 V2000
  125.9938  135.6549  161.4326 O   0  0  0  0  0  0  0  0  0  0  0  0
  125.1182  134.5254  161.4216 C   0  0  0  0  0  0  0  0  0  0  0  0
  125.8898  133.2957  161.0172 C   0  0  0  0  0  0  0  0  0  0  0  0
  125.2463  132.0741  160.9313 C   0  0  0  0  0  0  0  0  0  0  0  0
  125.9494  130.9407  160.5654 C   0  0  0  0  0  0  0  0  0  0  0  0
  127.2974  131.0238  160.2798 C   0  0  0  0  0  0  0  0  0  0  0  0
  127.9494  132.2523  160.3601 C   0  0  0  0  0  0  0  0  0  0  0  0
  129.3984  132.3476  160.0547 C   0  0  0  0  0  0  0  0  0  0  0  0
  129.9799  131.4695  159.1420 C   0  0  0  0  0  0  0  0  0  0  0  0
  131.3268  131.5660  158.8577 C   0  0  0  0  0  0  0  0  0  0  0  0
  132.1017  132.5252  159.4850 C   0  0  0  0  0  0  0  0  0  0  0  0
  131.5311  133.3955  160.3958 C   0  0  0  0  0  0  0  0  0  0  0  0
  132.3818  134.4371  161.0758 C   0  0  0  0  0  0  0  0  0  0  0  0
  132.3844  135.6673  160.2732 N   0  0  0  0  0  0  0  0  0  0  0  0
  132.7606  135.4709  159.3578 H   0  0  0  0  0  0  0  0  0  0  0  0
  131.4402  136.0115  160.1821 H   0  0  0  0  0  0  0  0  0  0  0  0
  133.2136  136.6826  160.9359 C   0  0  0  0  0  0  0  0  0  0  0  0
  133.2164  137.9641  160.1000 C   0  0  1  0  0  0  0  0  0  0  0  0
  133.2755  137.7078  159.0423 H   0  0  0  0  0  0  0  0  0  0  0  0
  132.0140  138.6960  160.3463 O   0  0  0  0  0  0  0  0  0  0  0  0
  134.4053  138.8089  160.4794 C   0  0  0  0  0  0  0  0  0  0  0  0
  135.3535  139.1344  159.5252 C   0  0  0  0  0  0  0  0  0  0  0  0
  136.4478  139.9102  159.8642 C   0  0  0  0  0  0  0  0  0  0  0  0
  136.6013  140.3647  161.1575 C   0  0  0  0  0  0  0  0  0  0  0  0
  135.6483  140.0399  162.1261 C   0  0  0  0  0  0  0  0  0  0  0  0
  135.8053  140.5218  163.5101 C   0  0  0  0  0  0  0  0  0  0  0  0
  135.3646  139.9038  164.6130 C   0  0  0  0  0  0  0  0  0  0  0  0
  135.7035  140.6767  165.8172 C   0  0  0  0  0  0  0  0  0  0  0  0
  135.4621  140.4409  167.1754 C   0  0  0  0  0  0  0  0  0  0  0  0
  135.8928  141.3502  168.1175 C   0  0  0  0  0  0  0  0  0  0  0  0
  136.5643  142.4962  167.7285 C   0  0  0  0  0  0  0  0  0  0  0  0
  136.8082  142.7380  166.3869 C   0  0  0  0  0  0  0  0  0  0  0  0
  136.3826  141.8379  165.4377 C   0  0  0  0  0  0  0  0  0  0  0  0
  136.4859  141.8029  163.9324 C   0  0  0  0  0  0  0  0  0  0  0  0
  134.5427  139.2605  161.7750 C   0  0  0  0  0  0  0  0  0  0  0  0
  130.1836  133.3113  160.6838 C   0  0  0  0  0  0  0  0  0  0  0  0
  127.2359  133.3913  160.7287 C   0  0  0  0  0  0  0  0  0  0  0  0
  125.5637  136.4835  161.6845 H   0  0  0  0  0  0  0  0  0  0  0  0
  124.3111  134.6983  160.7098 H   0  0  0  0  0  0  0  0  0  0  0  0
  124.6996  134.3806  162.4174 H   0  0  0  0  0  0  0  0  0  0  0  0
  124.1918  132.0046  161.1542 H   0  0  0  0  0  0  0  0  0  0  0  0
  125.4429  129.9888  160.5035 H   0  0  0  0  0  0  0  0  0  0  0  0
  127.8456  130.1379  159.9950 H   0  0  0  0  0  0  0  0  0  0  0  0
  129.3767  130.7175  158.6552 H   0  0  0  0  0  0  0  0  0  0  0  0
  131.7777  130.8886  158.1478 H   0  0  0  0  0  0  0  0  0  0  0  0
  133.1563  132.5946  159.2626 H   0  0  0  0  0  0  0  0  0  0  0  0
  131.9752  134.6492  162.0647 H   0  0  0  0  0  0  0  0  0  0  0  0
  133.4016  134.0654  161.1744 H   0  0  0  0  0  0  0  0  0  0  0  0
  132.8073  136.8948  161.9249 H   0  0  0  0  0  0  0  0  0  0  0  0
  134.2337  136.3109  161.0345 H   0  0  0  0  0  0  0  0  0  0  0  0
  131.2066  138.2123  160.1243 H   0  0  0  0  0  0  0  0  0  0  0  0
  135.2386  138.7813  158.5111 H   0  0  0  0  0  0  0  0  0  0  0  0
  137.1839  140.1602  159.1144 H   0  0  0  0  0  0  0  0  0  0  0  0
  137.4559  140.9706  161.4205 H   0  0  0  0  0  0  0  0  0  0  0  0
  134.8338  138.9631  164.6177 H   0  0  0  0  0  0  0  0  0  0  0  0
  134.9393  139.5479  167.4847 H   0  0  0  0  0  0  0  0  0  0  0  0
  135.7056  141.1673  169.1654 H   0  0  0  0  0  0  0  0  0  0  0  0
  136.8984  143.2039  168.4728 H   0  0  0  0  0  0  0  0  0  0  0  0
  137.3326  143.6329  166.0860 H   0  0  0  0  0  0  0  0  0  0  0  0
  137.5320  141.7928  163.6263 H   0  0  0  0  0  0  0  0  0  0  0  0
  135.9750  142.6622  163.4981 H   0  0  0  0  0  0  0  0  0  0  0  0
  133.7996  139.0095  162.5175 H   0  0  0  0  0  0  0  0  0  0  0  0
  129.7390  133.9910  161.3954 H   0  0  0  0  0  0  0  0  0  0  0  0
  127.7366  134.3460  160.7929 H   0  0  0  0  0  0  0  0  0  0  0  0
  1  2  1  0
  1 38  1  0
  2  3  1  0
  2 39  1  0
  2 40  1  0
  3 37  2  0
  3  4  1  0
  4  5  2  0
  4 41  1  0
  5  6  1  0
  5 42  1  0
  6  7  2  0
  6 43  1  0
  7  8  1  0
  7 37  1  0
  8 36  1  0
  8  9  2  0
  9 10  1  0
  9 44  1  0
 10 11  2  0
 10 45  1  0
 11 12  1  0
 11 46  1  0
 12 13  1  0
 12 36  2  0
 13 14  1  0
 13 47  1  0
 13 48  1  0
 14 15  1  0
 14 16  1  0
 14 17  1  0
 17 18  1  0
 17 49  1  0
 17 50  1  0
 18 19  1  6
 18 20  1  0
 18 21  1  0
 20 51  1  0
 21 35  1  0
 21 22  2  0
 22 23  1  0
 22 52  1  0
 23 24  2  0
 23 53  1  0
 24 25  1  0
 24 54  1  0
 25 26  1  0
 25 35  2  0
 26 34  1  0
 26 27  2  0
 27 28  1  0
 27 55  1  0
 28 33  2  0
 28 29  1  0
 29 30  2  0
 29 56  1  0
 30 31  1  0
 30 57  1  0
 31 32  2  0
 31 58  1  0
 32 33  1  0
 32 59  1  0
 33 34  1  0
 34 60  1  0
 34 61  1  0
 35 62  1  0
 36 63  1  0
 37 64  1  0
M  CHG  1  14   1
M  END
>  <DOCK_score>  (1) 
-53.238155

>  <SMILES>  (1) 
OCc1cccc(-c2cccc(C[NH2+]C[C@@H](O)c3cccc(C4=Cc5ccccc5C4)c3)c2)c1

$$$$
