C/C=C/CNc1ccc(-c2n[nH]cc2C[NH2+]CC2CC(C3CC3)C2)o1
     RDKit          3D

 54 57  0  0  1  0  0  0  0  0999 V2000
  125.8695  139.7056  165.4553 C   0  0  0  0  0  0  0  0  0  0  0  0
  126.7430  138.7707  164.6592 C   0  0  0  0  0  0  0  0  0  0  0  0
  126.4902  138.5581  163.3915 C   0  0  0  0  0  0  0  0  0  0  0  0
  127.3638  137.6233  162.5953 C   0  0  0  0  0  0  0  0  0  0  0  0
  126.5510  136.5228  162.0716 N   0  0  0  0  0  0  0  0  0  0  0  0
  127.1416  135.5282  161.3007 C   0  0  0  0  0  0  0  0  0  0  0  0
  126.5039  134.4584  160.7634 C   0  0  0  0  0  0  0  0  0  0  0  0
  127.4721  133.7115  160.0635 C   0  0  0  0  0  0  0  0  0  0  0  0
  128.6547  134.3651  160.2096 C   0  0  0  0  0  0  0  0  0  0  0  0
  129.9523  133.9436  159.6426 C   0  0  0  0  0  0  0  0  0  0  0  0
  130.1666  132.8696  158.9082 N   0  0  0  0  0  0  0  0  0  0  0  0
  131.5266  132.8353  158.5748 N   0  0  0  0  0  0  0  0  0  0  0  0
  131.9642  132.1541  158.0406 H   0  0  0  0  0  0  0  0  0  0  0  0
  132.1234  133.9141  159.1265 C   0  0  0  0  0  0  0  0  0  0  0  0
  131.1825  134.6182  159.7912 C   0  0  0  0  0  0  0  0  0  0  0  0
  131.4064  135.8976  160.5557 C   0  0  0  0  0  0  0  0  0  0  0  0
  131.2168  137.0443  159.6574 N   0  0  0  0  0  0  0  0  0  0  0  0
  131.8762  136.9878  158.8959 H   0  0  0  0  0  0  0  0  0  0  0  0
  130.2770  137.0321  159.2900 H   0  0  0  0  0  0  0  0  0  0  0  0
  131.4349  138.2913  160.4025 C   0  0  0  0  0  0  0  0  0  0  0  0
  132.8598  138.3100  160.9595 C   0  0  2  0  0  0  0  0  0  0  0  0
  133.3832  139.7233  161.2655 C   0  0  0  0  0  0  0  0  0  0  0  0
  134.7350  139.2606  160.6969 C   0  0  2  0  0  0  0  0  0  0  0  0
  135.4368  140.3178  159.8422 C   0  0  0  0  0  0  0  0  0  0  0  0
  136.9667  140.3220  159.8391 C   0  0  0  0  0  0  0  0  0  0  0  0
  136.2002  141.4242  160.5731 C   0  0  0  0  0  0  0  0  0  0  0  0
  133.9465  138.2277  159.8746 C   0  0  0  0  0  0  0  0  0  0  0  0
  128.4416  135.4621  160.9664 O   0  0  0  0  0  0  0  0  0  0  0  0
  126.2319  139.7554  166.4822 H   0  0  0  0  0  0  0  0  0  0  0  0
  125.9014  140.7000  165.0103 H   0  0  0  0  0  0  0  0  0  0  0  0
  124.8436  139.3375  165.4496 H   0  0  0  0  0  0  0  0  0  0  0  0
  127.5775  138.2758  165.1337 H   0  0  0  0  0  0  0  0  0  0  0  0
  125.6557  139.0531  162.9170 H   0  0  0  0  0  0  0  0  0  0  0  0
  128.1474  137.2224  163.2381 H   0  0  0  0  0  0  0  0  0  0  0  0
  127.8167  138.1670  161.7662 H   0  0  0  0  0  0  0  0  0  0  0  0
  125.6007  136.4879  162.2628 H   0  0  0  0  0  0  0  0  0  0  0  0
  125.4537  134.2239  160.8547 H   0  0  0  0  0  0  0  0  0  0  0  0
  127.3061  132.7958  159.5156 H   0  0  0  0  0  0  0  0  0  0  0  0
  133.1700  134.1688  159.0495 H   0  0  0  0  0  0  0  0  0  0  0  0
  130.6939  135.9587  161.3783 H   0  0  0  0  0  0  0  0  0  0  0  0
  132.4215  135.9108  160.9524 H   0  0  0  0  0  0  0  0  0  0  0  0
  131.2943  139.1423  159.7360 H   0  0  0  0  0  0  0  0  0  0  0  0
  130.7224  138.3525  161.2252 H   0  0  0  0  0  0  0  0  0  0  0  0
  133.0041  137.6031  161.7766 H   0  0  0  0  0  0  0  0  0  0  0  0
  132.9048  140.5037  160.6737 H   0  0  0  0  0  0  0  0  0  0  0  0
  133.4139  139.9566  162.3297 H   0  0  0  0  0  0  0  0  0  0  0  0
  135.3928  138.8147  161.4430 H   0  0  0  0  0  0  0  0  0  0  0  0
  134.9305  140.5841  158.9144 H   0  0  0  0  0  0  0  0  0  0  0  0
  137.4734  139.5716  160.4459 H   0  0  0  0  0  0  0  0  0  0  0  0
  137.4674  140.5911  158.9089 H   0  0  0  0  0  0  0  0  0  0  0  0
  136.1966  142.4182  160.1257 H   0  0  0  0  0  0  0  0  0  0  0  0
  136.2025  141.3988  161.6628 H   0  0  0  0  0  0  0  0  0  0  0  0
  134.4321  137.2535  159.8161 H   0  0  0  0  0  0  0  0  0  0  0  0
  133.6216  138.5978  158.9022 H   0  0  0  0  0  0  0  0  0  0  0  0
  1  2  1  0
  1 29  1  0
  1 30  1  0
  1 31  1  0
  2  3  2  0
  2 32  1  0
  3  4  1  0
  3 33  1  0
  4  5  1  0
  4 34  1  0
  4 35  1  0
  5  6  1  0
  5 36  1  0
  6 28  1  0
  6  7  2  0
  7  8  1  0
  7 37  1  0
  8  9  2  0
  8 38  1  0
  9 10  1  0
  9 28  1  0
 10 15  1  0
 10 11  2  0
 11 12  1  0
 12 13  1  0
 12 14  1  0
 14 15  2  0
 14 39  1  0
 15 16  1  0
 16 17  1  0
 16 40  1  0
 16 41  1  0
 17 18  1  0
 17 19  1  0
 17 20  1  0
 20 21  1  0
 20 42  1  0
 20 43  1  0
 21 27  1  0
 21 22  1  0
 21 44  1  1
 22 23  1  0
 22 45  1  0
 22 46  1  0
 23 24  1  0
 23 27  1  0
 23 47  1  1
 24 26  1  0
 24 25  1  0
 24 48  1  0
 25 26  1  0
 25 49  1  0
 25 50  1  0
 26 51  1  0
 26 52  1  0
 27 53  1  0
 27 54  1  0
M  CHG  1  17   1
M  END
>  <DOCK_score>  (1) 
-45.946575

>  <SMILES>  (1) 
C/C=C/CNc1ccc(-c2n[nH]cc2C[NH2+]CC2CC(C3CC3)C2)o1

$$$$
