CC[C@H](Cc1ccccc1)c1c[nH]c(Nc2ccc(O)c(O)c2)[nH+]1
     RDKit          3D

 46 48  0  0  1  0  0  0  0  0999 V2000
  130.5069  139.8510  160.1045 C   0  0  0  0  0  0  0  0  0  0  0  0
  131.9308  139.4074  159.7631 C   0  0  0  0  0  0  0  0  0  0  0  0
  132.4015  138.3715  160.7860 C   0  0  2  0  0  0  0  0  0  0  0  0
  132.3875  138.8128  161.7826 H   0  0  0  0  0  0  0  0  0  0  0  0
  133.8253  137.9278  160.4443 C   0  0  0  0  0  0  0  0  0  0  0  0
  134.8055  138.9594  160.9404 C   0  0  0  0  0  0  0  0  0  0  0  0
  135.1865  140.0028  160.1175 C   0  0  0  0  0  0  0  0  0  0  0  0
  136.0820  140.9518  160.5742 C   0  0  0  0  0  0  0  0  0  0  0  0
  136.6044  140.8515  161.8501 C   0  0  0  0  0  0  0  0  0  0  0  0
  136.2275  139.8051  162.6712 C   0  0  0  0  0  0  0  0  0  0  0  0
  135.3280  138.8591  162.2162 C   0  0  0  0  0  0  0  0  0  0  0  0
  131.4817  137.1782  160.7521 C   0  0  0  0  0  0  0  0  0  0  0  0
  130.7516  136.7178  161.7822 C   0  0  0  0  0  0  0  0  0  0  0  0
  130.0564  135.6223  161.3235 N   0  0  0  0  0  0  0  0  0  0  0  0
  129.4402  135.0745  161.8346 H   0  0  0  0  0  0  0  0  0  0  0  0
  130.4009  135.4501  160.0185 C   0  0  0  0  0  0  0  0  0  0  0  0
  129.9297  134.4522  159.1807 N   0  0  0  0  0  0  0  0  0  0  0  0
  128.6473  133.9247  159.3727 C   0  0  0  0  0  0  0  0  0  0  0  0
  128.3784  132.6080  159.0221 C   0  0  0  0  0  0  0  0  0  0  0  0
  127.1142  132.0845  159.2154 C   0  0  0  0  0  0  0  0  0  0  0  0
  126.1096  132.8750  159.7496 C   0  0  0  0  0  0  0  0  0  0  0  0
  124.8638  132.3594  159.9341 O   0  0  0  0  0  0  0  0  0  0  0  0
  126.3744  134.1961  160.0971 C   0  0  0  0  0  0  0  0  0  0  0  0
  125.3888  134.9725  160.6218 O   0  0  0  0  0  0  0  0  0  0  0  0
  127.6427  134.7194  159.9083 C   0  0  0  0  0  0  0  0  0  0  0  0
  131.2558  136.3893  159.6883 N   0  0  0  0  0  0  0  0  0  0  0  0
  131.6614  136.4966  158.8137 H   0  0  0  0  0  0  0  0  0  0  0  0
  130.4930  140.2922  161.1012 H   0  0  0  0  0  0  0  0  0  0  0  0
  130.1716  140.5889  159.3758 H   0  0  0  0  0  0  0  0  0  0  0  0
  129.8417  138.9879  160.0800 H   0  0  0  0  0  0  0  0  0  0  0  0
  132.5960  140.2705  159.7877 H   0  0  0  0  0  0  0  0  0  0  0  0
  131.9447  138.9663  158.7664 H   0  0  0  0  0  0  0  0  0  0  0  0
  134.0322  136.9705  160.9226 H   0  0  0  0  0  0  0  0  0  0  0  0
  133.9239  137.8230  159.3639 H   0  0  0  0  0  0  0  0  0  0  0  0
  134.7817  140.0786  159.1192 H   0  0  0  0  0  0  0  0  0  0  0  0
  136.3768  141.7689  159.9327 H   0  0  0  0  0  0  0  0  0  0  0  0
  137.3075  141.5903  162.2054 H   0  0  0  0  0  0  0  0  0  0  0  0
  136.6360  139.7266  163.6677 H   0  0  0  0  0  0  0  0  0  0  0  0
  135.0337  138.0415  162.8575 H   0  0  0  0  0  0  0  0  0  0  0  0
  130.7158  137.1303  162.7798 H   0  0  0  0  0  0  0  0  0  0  0  0
  130.4884  134.1190  158.4611 H   0  0  0  0  0  0  0  0  0  0  0  0
  129.1591  131.9917  158.6014 H   0  0  0  0  0  0  0  0  0  0  0  0
  126.9080  131.0592  158.9456 H   0  0  0  0  0  0  0  0  0  0  0  0
  124.7766  131.4353  159.6633 H   0  0  0  0  0  0  0  0  0  0  0  0
  125.6681  135.8743  160.8314 H   0  0  0  0  0  0  0  0  0  0  0  0
  127.8501  135.7445  160.1776 H   0  0  0  0  0  0  0  0  0  0  0  0
  1  2  1  0
  1 28  1  0
  1 29  1  0
  1 30  1  0
  2  3  1  0
  2 31  1  0
  2 32  1  0
  3  4  1  1
  3  5  1  0
  3 12  1  0
  5  6  1  0
  5 33  1  0
  5 34  1  0
  6 11  1  0
  6  7  2  0
  7  8  1  0
  7 35  1  0
  8  9  2  0
  8 36  1  0
  9 10  1  0
  9 37  1  0
 10 11  2  0
 10 38  1  0
 11 39  1  0
 12 26  1  0
 12 13  2  0
 13 14  1  0
 13 40  1  0
 14 15  1  0
 14 16  1  0
 16 17  1  0
 16 26  2  0
 17 18  1  0
 17 41  1  0
 18 25  1  0
 18 19  2  0
 19 20  1  0
 19 42  1  0
 20 21  2  0
 20 43  1  0
 21 22  1  0
 21 23  1  0
 22 44  1  0
 23 24  1  0
 23 25  2  0
 24 45  1  0
 25 46  1  0
 26 27  1  0
M  CHG  1  26   1
M  END
>  <DOCK_score>  (1) 
-43.223732

>  <SMILES>  (1) 
CC[C@H](Cc1ccccc1)c1c[nH]c(Nc2ccc(O)c(O)c2)[nH+]1

$$$$
