Nc1ccc(-c2c[nH]c(NC3CC[C@@H]3COC3CC=CC3)[nH+]2)cc1
     RDKit          3D

 49 52  0  0  1  0  0  0  0  0999 V2000
  131.4816  129.6674  152.0695 N   0  0  0  0  0  0  0  0  0  0  0  0
  131.1508  130.3487  153.2435 C   0  0  0  0  0  0  0  0  0  0  0  0
  130.4396  131.5415  153.1770 C   0  0  0  0  0  0  0  0  0  0  0  0
  130.1120  132.2152  154.3346 C   0  0  0  0  0  0  0  0  0  0  0  0
  130.4946  131.6997  155.5719 C   0  0  0  0  0  0  0  0  0  0  0  0
  130.1439  132.4230  156.8188 C   0  0  0  0  0  0  0  0  0  0  0  0
  129.3885  131.9399  157.8359 C   0  0  0  0  0  0  0  0  0  0  0  0
  129.3201  132.9303  158.7869 N   0  0  0  0  0  0  0  0  0  0  0  0
  128.8512  132.8815  159.6347 H   0  0  0  0  0  0  0  0  0  0  0  0
  130.0286  133.9930  158.3176 C   0  0  0  0  0  0  0  0  0  0  0  0
  130.2042  135.1987  158.9749 N   0  0  0  0  0  0  0  0  0  0  0  0
  129.5996  135.4095  160.2927 C   0  0  1  0  0  0  0  0  0  0  0  0
  130.0334  136.7229  160.9687 C   0  0  0  0  0  0  0  0  0  0  0  0
  128.5766  136.8716  161.4380 C   0  0  0  0  0  0  0  0  0  0  0  0
  128.1821  136.0024  160.2323 C   0  0  2  0  0  0  0  0  0  0  0  0
  127.9868  136.5758  159.3260 H   0  0  0  0  0  0  0  0  0  0  0  0
  127.0796  134.9880  160.5425 C   0  0  0  0  0  0  0  0  0  0  0  0
  127.4002  133.7351  159.9345 O   0  0  0  0  0  0  0  0  0  0  0  0
  126.2779  132.8668  159.7660 C   0  0  0  0  0  0  0  0  0  0  0  0
  126.7153  131.3837  159.7880 C   0  0  0  0  0  0  0  0  0  0  0  0
  125.6047  130.6639  160.5173 C   0  0  0  0  0  0  0  0  0  0  0  0
  124.8537  131.5038  161.1762 C   0  0  0  0  0  0  0  0  0  0  0  0
  125.3381  132.9236  160.9964 C   0  0  0  0  0  0  0  0  0  0  0  0
  130.5222  133.6848  157.1431 N   0  0  0  0  0  0  0  0  0  0  0  0
  131.0708  134.2661  156.5934 H   0  0  0  0  0  0  0  0  0  0  0  0
  131.2125  130.5064  155.6356 C   0  0  0  0  0  0  0  0  0  0  0  0
  131.5329  129.8330  154.4758 C   0  0  0  0  0  0  0  0  0  0  0  0
  131.2150  130.0276  151.2085 H   0  0  0  0  0  0  0  0  0  0  0  0
  131.9779  128.8360  152.1145 H   0  0  0  0  0  0  0  0  0  0  0  0
  130.1431  131.9403  152.2181 H   0  0  0  0  0  0  0  0  0  0  0  0
  129.5598  133.1418  154.2826 H   0  0  0  0  0  0  0  0  0  0  0  0
  128.9320  130.9627  157.8905 H   0  0  0  0  0  0  0  0  0  0  0  0
  130.7276  135.9038  158.5630 H   0  0  0  0  0  0  0  0  0  0  0  0
  129.6807  134.5371  160.9410 H   0  0  0  0  0  0  0  0  0  0  0  0
  130.3457  137.4930  160.2634 H   0  0  0  0  0  0  0  0  0  0  0  0
  130.7428  136.5831  161.7844 H   0  0  0  0  0  0  0  0  0  0  0  0
  128.2016  137.8935  161.3810 H   0  0  0  0  0  0  0  0  0  0  0  0
  128.3775  136.3998  162.4002 H   0  0  0  0  0  0  0  0  0  0  0  0
  126.1305  135.3510  160.1481 H   0  0  0  0  0  0  0  0  0  0  0  0
  126.9987  134.8580  161.6217 H   0  0  0  0  0  0  0  0  0  0  0  0
  125.7376  133.1017  158.8489 H   0  0  0  0  0  0  0  0  0  0  0  0
  127.6568  131.2734  160.3262 H   0  0  0  0  0  0  0  0  0  0  0  0
  126.8125  131.0014  158.7719 H   0  0  0  0  0  0  0  0  0  0  0  0
  125.4523  129.5950  160.4956 H   0  0  0  0  0  0  0  0  0  0  0  0
  123.9980  131.2209  161.7715 H   0  0  0  0  0  0  0  0  0  0  0  0
  124.4976  133.5896  160.8013 H   0  0  0  0  0  0  0  0  0  0  0  0
  125.8853  133.2529  161.8797 H   0  0  0  0  0  0  0  0  0  0  0  0
  131.5137  130.1075  156.5930 H   0  0  0  0  0  0  0  0  0  0  0  0
  132.0851  128.9062  154.5249 H   0  0  0  0  0  0  0  0  0  0  0  0
  1  2  1  0
  1 28  1  0
  1 29  1  0
  2 27  2  0
  2  3  1  0
  3  4  2  0
  3 30  1  0
  4  5  1  0
  4 31  1  0
  5  6  1  0
  5 26  2  0
  6 24  1  0
  6  7  2  0
  7  8  1  0
  7 32  1  0
  8  9  1  0
  8 10  1  0
 10 11  1  0
 10 24  2  0
 11 12  1  0
 11 33  1  0
 12 15  1  0
 12 13  1  0
 12 34  1  1
 13 14  1  0
 13 35  1  0
 13 36  1  0
 14 15  1  0
 14 37  1  0
 14 38  1  0
 15 16  1  6
 15 17  1  0
 17 18  1  0
 17 39  1  0
 17 40  1  0
 18 19  1  0
 19 23  1  0
 19 20  1  0
 19 41  1  0
 20 21  1  0
 20 42  1  0
 20 43  1  0
 21 22  2  0
 21 44  1  0
 22 23  1  0
 22 45  1  0
 23 46  1  0
 23 47  1  0
 24 25  1  0
 26 27  1  0
 26 48  1  0
 27 49  1  0
M  CHG  1  24   1
M  END
>  <DOCK_score>  (1) 
-56.719055

>  <SMILES>  (1) 
Nc1ccc(-c2c[nH]c(NC3CC[C@@H]3COC3CC=CC3)[nH+]2)cc1

$$$$
