CC1=C(C[C@H](Nc2[nH]cc(-c3ccc(Br)cc3)[nH+]2)c2cccc(F)c2)CCC1
     RDKit          3D

 52 55  0  0  1  0  0  0  0  0999 V2000
  131.2554  139.3275  158.7970 C   0  0  0  0  0  0  0  0  0  0  0  0
  131.9473  138.4425  159.8017 C   0  0  0  0  0  0  0  0  0  0  0  0
  131.3370  137.5875  160.5762 C   0  0  0  0  0  0  0  0  0  0  0  0
  129.8481  137.3556  160.5837 C   0  0  0  0  0  0  0  0  0  0  0  0
  129.5575  135.8953  160.2312 C   0  0  2  0  0  0  0  0  0  0  0  0
  130.0305  135.2432  160.9656 H   0  0  0  0  0  0  0  0  0  0  0  0
  130.0915  135.5988  158.8996 N   0  0  0  0  0  0  0  0  0  0  0  0
  129.9478  134.3309  158.3627 C   0  0  0  0  0  0  0  0  0  0  0  0
  129.3336  133.2784  158.9687 N   0  0  0  0  0  0  0  0  0  0  0  0
  128.9211  133.2818  159.8465 H   0  0  0  0  0  0  0  0  0  0  0  0
  129.4053  132.2106  158.1072 C   0  0  0  0  0  0  0  0  0  0  0  0
  130.0605  132.6409  157.0008 C   0  0  0  0  0  0  0  0  0  0  0  0
  130.3719  131.8284  155.7994 C   0  0  0  0  0  0  0  0  0  0  0  0
  129.8731  132.2033  154.5532 C   0  0  0  0  0  0  0  0  0  0  0  0
  130.1706  131.4473  153.4377 C   0  0  0  0  0  0  0  0  0  0  0  0
  130.9531  130.3122  153.5567 C   0  0  0  0  0  0  0  0  0  0  0  0
  131.3495  129.2757  152.0255 Br  0  0  0  0  0  0  0  0  0  0  0  0
  131.4465  129.9321  154.7932 C   0  0  0  0  0  0  0  0  0  0  0  0
  131.1597  130.6844  155.9139 C   0  0  0  0  0  0  0  0  0  0  0  0
  130.3808  133.9461  157.1869 N   0  0  0  0  0  0  0  0  0  0  0  0
  130.8549  134.5050  156.5516 H   0  0  0  0  0  0  0  0  0  0  0  0
  128.0685  135.6634  160.2385 C   0  0  0  0  0  0  0  0  0  0  0  0
  127.4366  135.2667  161.4026 C   0  0  0  0  0  0  0  0  0  0  0  0
  126.0701  135.0591  161.4122 C   0  0  0  0  0  0  0  0  0  0  0  0
  125.3354  135.2369  160.2550 C   0  0  0  0  0  0  0  0  0  0  0  0
  125.9679  135.6286  159.0874 C   0  0  0  0  0  0  0  0  0  0  0  0
  125.2506  135.8031  157.9558 F   0  0  0  0  0  0  0  0  0  0  0  0
  127.3361  135.8418  159.0805 C   0  0  0  0  0  0  0  0  0  0  0  0
  132.3189  136.8652  161.4692 C   0  0  0  0  0  0  0  0  0  0  0  0
  133.6993  137.1132  160.8141 C   0  0  0  0  0  0  0  0  0  0  0  0
  133.4386  138.4288  160.0446 C   0  0  0  0  0  0  0  0  0  0  0  0
  130.9245  140.2434  159.2868 H   0  0  0  0  0  0  0  0  0  0  0  0
  131.9483  139.5754  157.9930 H   0  0  0  0  0  0  0  0  0  0  0  0
  130.3928  138.8039  158.3848 H   0  0  0  0  0  0  0  0  0  0  0  0
  129.3750  138.0076  159.8492 H   0  0  0  0  0  0  0  0  0  0  0  0
  129.4509  137.5760  161.5744 H   0  0  0  0  0  0  0  0  0  0  0  0
  130.5456  136.2910  158.3940 H   0  0  0  0  0  0  0  0  0  0  0  0
  129.0181  131.2173  158.2801 H   0  0  0  0  0  0  0  0  0  0  0  0
  129.2585  133.0865  154.4598 H   0  0  0  0  0  0  0  0  0  0  0  0
  129.7885  131.7395  152.4707 H   0  0  0  0  0  0  0  0  0  0  0  0
  132.0568  129.0454  154.8807 H   0  0  0  0  0  0  0  0  0  0  0  0
  131.5453  130.3873  156.8780 H   0  0  0  0  0  0  0  0  0  0  0  0
  128.0106  135.1230  162.3061 H   0  0  0  0  0  0  0  0  0  0  0  0
  125.5769  134.7537  162.3231 H   0  0  0  0  0  0  0  0  0  0  0  0
  124.2685  135.0701  160.2615 H   0  0  0  0  0  0  0  0  0  0  0  0
  127.8306  136.1469  158.1701 H   0  0  0  0  0  0  0  0  0  0  0  0
  132.2935  137.2813  162.4764 H   0  0  0  0  0  0  0  0  0  0  0  0
  132.0972  135.7982  161.4926 H   0  0  0  0  0  0  0  0  0  0  0  0
  133.9632  136.3059  160.1308 H   0  0  0  0  0  0  0  0  0  0  0  0
  134.4711  137.2495  161.5719 H   0  0  0  0  0  0  0  0  0  0  0  0
  133.9776  138.4278  159.0972 H   0  0  0  0  0  0  0  0  0  0  0  0
  133.7328  139.2870  160.6489 H   0  0  0  0  0  0  0  0  0  0  0  0
  1  2  1  0
  1 32  1  0
  1 33  1  0
  1 34  1  0
  2 31  1  0
  2  3  2  0
  3  4  1  0
  3 29  1  0
  4  5  1  0
  4 35  1  0
  4 36  1  0
  5  6  1  1
  5  7  1  0
  5 22  1  0
  7 37  1  0
  8  7  1  0
  8 20  2  0
  8  9  1  0
  9 10  1  0
  9 11  1  0
 11 12  2  0
 11 38  1  0
 12 13  1  0
 12 20  1  0
 13 19  1  0
 13 14  2  0
 14 15  1  0
 14 39  1  0
 15 16  2  0
 15 40  1  0
 16 17  1  0
 16 18  1  0
 18 19  2  0
 18 41  1  0
 19 42  1  0
 20 21  1  0
 22 28  1  0
 22 23  2  0
 23 24  1  0
 23 43  1  0
 24 25  2  0
 24 44  1  0
 25 26  1  0
 25 45  1  0
 26 27  1  0
 26 28  2  0
 28 46  1  0
 29 30  1  0
 29 47  1  0
 29 48  1  0
 30 31  1  0
 30 49  1  0
 30 50  1  0
 31 51  1  0
 31 52  1  0
M  CHG  1  20   1
M  END
>  <DOCK_score>  (1) 
-62.353302

>  <SMILES>  (1) 
CC1=C(C[C@H](Nc2[nH]cc(-c3ccc(Br)cc3)[nH+]2)c2cccc(F)c2)CCC1

$$$$
