COc1cccc2[nH]c(Nc3cccc(Nc4ccccc4C4CCC4)c3N)[nH+]c12
     RDKit          3D

 56 60  0  0  1  0  0  0  0  0999 V2000
  136.5328  141.7528  163.0244 C   0  0  0  0  0  0  0  0  0  0  0  0
  135.4156  140.8942  162.7864 O   0  0  0  0  0  0  0  0  0  0  0  0
  135.2928  140.3731  161.5367 C   0  0  0  0  0  0  0  0  0  0  0  0
  136.2237  140.6791  160.5626 C   0  0  0  0  0  0  0  0  0  0  0  0
  136.1038  140.1511  159.2860 C   0  0  0  0  0  0  0  0  0  0  0  0
  135.0541  139.3130  158.9712 C   0  0  0  0  0  0  0  0  0  0  0  0
  134.1093  138.9936  159.9362 C   0  0  0  0  0  0  0  0  0  0  0  0
  132.9707  138.2050  159.9403 N   0  0  0  0  0  0  0  0  0  0  0  0
  132.6182  137.6998  159.1910 H   0  0  0  0  0  0  0  0  0  0  0  0
  132.4361  138.2716  161.1960 C   0  0  0  0  0  0  0  0  0  0  0  0
  131.2900  137.6202  161.6060 N   0  0  0  0  0  0  0  0  0  0  0  0
  130.5810  136.8153  160.7046 C   0  0  0  0  0  0  0  0  0  0  0  0
  129.2570  137.1067  160.4047 C   0  0  0  0  0  0  0  0  0  0  0  0
  128.5580  136.3163  159.5119 C   0  0  0  0  0  0  0  0  0  0  0  0
  129.1687  135.2259  158.9210 C   0  0  0  0  0  0  0  0  0  0  0  0
  130.4903  134.9222  159.2177 C   0  0  0  0  0  0  0  0  0  0  0  0
  131.1080  133.8177  158.6180 N   0  0  0  0  0  0  0  0  0  0  0  0
  131.0494  132.5652  159.2337 C   0  0  0  0  0  0  0  0  0  0  0  0
  130.9786  132.4726  160.6184 C   0  0  0  0  0  0  0  0  0  0  0  0
  130.9159  131.2330  161.2234 C   0  0  0  0  0  0  0  0  0  0  0  0
  130.9342  130.0845  160.4538 C   0  0  0  0  0  0  0  0  0  0  0  0
  131.0102  130.1725  159.0757 C   0  0  0  0  0  0  0  0  0  0  0  0
  131.0678  131.4093  158.4634 C   0  0  0  0  0  0  0  0  0  0  0  0
  131.1498  131.5047  156.9618 C   0  0  0  0  0  0  0  0  0  0  0  0
  130.0810  132.4213  156.3433 C   0  0  0  0  0  0  0  0  0  0  0  0
  129.9500  131.3793  155.2201 C   0  0  0  0  0  0  0  0  0  0  0  0
  130.4603  130.3400  156.2319 C   0  0  0  0  0  0  0  0  0  0  0  0
  131.2010  135.7185  160.1125 C   0  0  0  0  0  0  0  0  0  0  0  0
  132.5369  135.4161  160.4164 N   0  0  0  0  0  0  0  0  0  0  0  0
  133.1728  139.0462  161.9519 N   0  0  0  0  0  0  0  0  0  0  0  0
  132.9969  139.2489  162.8841 H   0  0  0  0  0  0  0  0  0  0  0  0
  134.2222  139.5231  161.2308 C   0  0  0  0  0  0  0  0  0  0  0  0
  136.5117  142.0986  164.0578 H   0  0  0  0  0  0  0  0  0  0  0  0
  137.4574  141.2047  162.8433 H   0  0  0  0  0  0  0  0  0  0  0  0
  136.4816  142.6102  162.3533 H   0  0  0  0  0  0  0  0  0  0  0  0
  137.0501  141.3337  160.7970 H   0  0  0  0  0  0  0  0  0  0  0  0
  136.8399  140.3942  158.5341 H   0  0  0  0  0  0  0  0  0  0  0  0
  134.9675  138.9061  157.9745 H   0  0  0  0  0  0  0  0  0  0  0  0
  130.9756  137.7196  162.5183 H   0  0  0  0  0  0  0  0  0  0  0  0
  128.7737  137.9548  160.8668 H   0  0  0  0  0  0  0  0  0  0  0  0
  127.5296  136.5491  159.2784 H   0  0  0  0  0  0  0  0  0  0  0  0
  128.6167  134.6094  158.2270 H   0  0  0  0  0  0  0  0  0  0  0  0
  131.5764  133.9223  157.7752 H   0  0  0  0  0  0  0  0  0  0  0  0
  130.9682  133.3692  161.2203 H   0  0  0  0  0  0  0  0  0  0  0  0
  130.8567  131.1604  162.2993 H   0  0  0  0  0  0  0  0  0  0  0  0
  130.8889  129.1160  160.9299 H   0  0  0  0  0  0  0  0  0  0  0  0
  131.0248  129.2735  158.4775 H   0  0  0  0  0  0  0  0  0  0  0  0
  132.1597  131.7068  156.6049 H   0  0  0  0  0  0  0  0  0  0  0  0
  129.1838  132.5200  156.9544 H   0  0  0  0  0  0  0  0  0  0  0  0
  130.4717  133.3812  156.0051 H   0  0  0  0  0  0  0  0  0  0  0  0
  130.6312  131.5480  154.3862 H   0  0  0  0  0  0  0  0  0  0  0  0
  128.9223  131.2083  154.8992 H   0  0  0  0  0  0  0  0  0  0  0  0
  131.1570  129.6192  155.8039 H   0  0  0  0  0  0  0  0  0  0  0  0
  129.6667  129.8694  156.8125 H   0  0  0  0  0  0  0  0  0  0  0  0
  133.0301  135.9716  161.0401 H   0  0  0  0  0  0  0  0  0  0  0  0
  132.9672  134.6515  160.0029 H   0  0  0  0  0  0  0  0  0  0  0  0
  1  2  1  0
  1 33  1  0
  1 34  1  0
  1 35  1  0
  2  3  1  0
  3 32  2  0
  3  4  1  0
  4  5  2  0
  4 36  1  0
  5  6  1  0
  5 37  1  0
  6  7  2  0
  6 38  1  0
  7 32  1  0
  7  8  1  0
  8  9  1  0
  8 10  1  0
 10 11  1  0
 10 30  2  0
 11 12  1  0
 11 39  1  0
 12 28  1  0
 12 13  2  0
 13 14  1  0
 13 40  1  0
 14 15  2  0
 14 41  1  0
 15 16  1  0
 15 42  1  0
 16 17  1  0
 16 28  2  0
 17 18  1  0
 17 43  1  0
 18 23  1  0
 18 19  2  0
 19 20  1  0
 19 44  1  0
 20 21  2  0
 20 45  1  0
 21 22  1  0
 21 46  1  0
 22 23  2  0
 22 47  1  0
 23 24  1  0
 24 27  1  0
 24 25  1  0
 24 48  1  0
 25 26  1  0
 25 49  1  0
 25 50  1  0
 26 27  1  0
 26 51  1  0
 26 52  1  0
 27 53  1  0
 27 54  1  0
 28 29  1  0
 29 55  1  0
 29 56  1  0
 30 31  1  0
 30 32  1  0
M  CHG  1  30   1
M  END
>  <DOCK_score>  (1) 
-62.24102

>  <SMILES>  (1) 
COc1cccc2[nH]c(Nc3cccc(Nc4ccccc4C4CCC4)c3N)[nH+]c12

$$$$
