CCc1ccc(-c2c[nH]c(NC(C[C@H]3CC=CCC3C)c3ccnn3C)[nH+]2)cc1
     RDKit          3D

 61 64  0  0  1  0  0  0  0  0999 V2000
  130.3861  128.6261  151.6292 C   0  0  0  0  0  0  0  0  0  0  0  0
  131.5155  129.5940  151.9862 C   0  0  0  0  0  0  0  0  0  0  0  0
  131.1643  130.3298  153.2536 C   0  0  0  0  0  0  0  0  0  0  0  0
  131.5366  129.8083  154.4789 C   0  0  0  0  0  0  0  0  0  0  0  0
  131.2183  130.4782  155.6427 C   0  0  0  0  0  0  0  0  0  0  0  0
  130.5203  131.6830  155.5815 C   0  0  0  0  0  0  0  0  0  0  0  0
  130.1754  132.4078  156.8289 C   0  0  0  0  0  0  0  0  0  0  0  0
  129.4117  131.9318  157.8433 C   0  0  0  0  0  0  0  0  0  0  0  0
  129.3522  132.9203  158.7953 N   0  0  0  0  0  0  0  0  0  0  0  0
  128.8800  132.8754  159.6415 H   0  0  0  0  0  0  0  0  0  0  0  0
  130.0754  133.9754  158.3308 C   0  0  0  0  0  0  0  0  0  0  0  0
  130.2643  135.1770  158.9919 N   0  0  0  0  0  0  0  0  0  0  0  0
  129.6588  135.3918  160.3086 C   0  0  1  0  0  0  0  0  0  0  0  0
  130.0195  136.7902  160.8138 C   0  0  0  0  0  0  0  0  0  0  0  0
  131.4351  136.7734  161.3940 C   0  0  1  0  0  0  0  0  0  0  0  0
  131.5896  135.8528  161.9565 H   0  0  0  0  0  0  0  0  0  0  0  0
  132.4574  136.8603  160.2586 C   0  0  0  0  0  0  0  0  0  0  0  0
  133.8277  137.1163  160.8167 C   0  0  0  0  0  0  0  0  0  0  0  0
  134.0551  137.5458  162.0165 C   0  0  0  0  0  0  0  0  0  0  0  0
  132.9805  137.8436  163.0206 C   0  0  0  0  0  0  0  0  0  0  0  0
  131.6273  137.9817  162.3194 C   0  0  1  0  0  0  0  0  0  0  0  0
  131.6047  139.2700  161.4947 C   0  0  0  0  0  0  0  0  0  0  0  0
  128.1609  135.2680  160.1990 C   0  0  0  0  0  0  0  0  0  0  0  0
  127.3224  134.8419  161.1718 C   0  0  0  0  0  0  0  0  0  0  0  0
  126.0199  134.8774  160.6634 C   0  0  0  0  0  0  0  0  0  0  0  0
  126.0739  135.3146  159.4313 N   0  0  0  0  0  0  0  0  0  0  0  0
  127.4155  135.5628  159.1134 N   0  0  0  0  0  0  0  0  0  0  0  0
  127.9196  136.0603  157.8310 C   0  0  0  0  0  0  0  0  0  0  0  0
  130.5682  133.6644  157.1569 N   0  0  0  0  0  0  0  0  0  0  0  0
  131.1246  134.2406  156.6097 H   0  0  0  0  0  0  0  0  0  0  0  0
  130.1426  132.2015  154.3440 C   0  0  0  0  0  0  0  0  0  0  0  0
  130.4721  131.5263  153.1865 C   0  0  0  0  0  0  0  0  0  0  0  0
  130.2518  127.9100  152.4399 H   0  0  0  0  0  0  0  0  0  0  0  0
  129.4617  129.1846  151.4810 H   0  0  0  0  0  0  0  0  0  0  0  0
  130.6398  128.0938  150.7126 H   0  0  0  0  0  0  0  0  0  0  0  0
  131.6497  130.3106  151.1751 H   0  0  0  0  0  0  0  0  0  0  0  0
  132.4398  129.0362  152.1340 H   0  0  0  0  0  0  0  0  0  0  0  0
  132.0774  128.8747  154.5251 H   0  0  0  0  0  0  0  0  0  0  0  0
  131.5093  130.0695  156.5991 H   0  0  0  0  0  0  0  0  0  0  0  0
  128.9432  130.9601  157.8947 H   0  0  0  0  0  0  0  0  0  0  0  0
  130.7975  135.8769  158.5834 H   0  0  0  0  0  0  0  0  0  0  0  0
  130.0349  134.6448  161.0076 H   0  0  0  0  0  0  0  0  0  0  0  0
  129.9741  137.4982  159.9864 H   0  0  0  0  0  0  0  0  0  0  0  0
  129.3131  137.0902  161.5879 H   0  0  0  0  0  0  0  0  0  0  0  0
  132.4593  135.9233  159.7018 H   0  0  0  0  0  0  0  0  0  0  0  0
  132.1849  137.6758  159.5887 H   0  0  0  0  0  0  0  0  0  0  0  0
  134.6772  136.9262  160.1774 H   0  0  0  0  0  0  0  0  0  0  0  0
  135.0821  137.6991  162.3133 H   0  0  0  0  0  0  0  0  0  0  0  0
  133.2164  138.7740  163.5371 H   0  0  0  0  0  0  0  0  0  0  0  0
  132.9306  137.0309  163.7453 H   0  0  0  0  0  0  0  0  0  0  0  0
  130.8282  138.0067  163.0601 H   0  0  0  0  0  0  0  0  0  0  0  0
  130.6469  139.3562  160.9815 H   0  0  0  0  0  0  0  0  0  0  0  0
  131.7415  140.1265  162.1548 H   0  0  0  0  0  0  0  0  0  0  0  0
  132.4094  139.2454  160.7599 H   0  0  0  0  0  0  0  0  0  0  0  0
  127.6083  134.5297  162.1653 H   0  0  0  0  0  0  0  0  0  0  0  0
  125.1238  134.5968  161.1970 H   0  0  0  0  0  0  0  0  0  0  0  0
  128.1489  135.2174  157.1791 H   0  0  0  0  0  0  0  0  0  0  0  0
  128.8232  136.6463  157.9985 H   0  0  0  0  0  0  0  0  0  0  0  0
  127.1617  136.6874  157.3613 H   0  0  0  0  0  0  0  0  0  0  0  0
  129.5974  133.1323  154.2911 H   0  0  0  0  0  0  0  0  0  0  0  0
  130.1844  131.9297  152.2268 H   0  0  0  0  0  0  0  0  0  0  0  0
  1  2  1  0
  1 33  1  0
  1 34  1  0
  1 35  1  0
  2  3  1  0
  2 36  1  0
  2 37  1  0
  3 32  2  0
  3  4  1  0
  4  5  2  0
  4 38  1  0
  5  6  1  0
  5 39  1  0
  6  7  1  0
  6 31  2  0
  7 29  1  0
  7  8  2  0
  8  9  1  0
  8 40  1  0
  9 10  1  0
  9 11  1  0
 11 12  1  0
 11 29  2  0
 12 13  1  0
 12 41  1  0
 13 14  1  0
 13 23  1  0
 13 42  1  1
 14 15  1  0
 14 43  1  0
 14 44  1  0
 15 16  1  1
 15 21  1  0
 15 17  1  0
 17 18  1  0
 17 45  1  0
 17 46  1  0
 18 19  2  0
 18 47  1  0
 19 20  1  0
 19 48  1  0
 20 21  1  0
 20 49  1  0
 20 50  1  0
 21 22  1  0
 21 51  1  1
 22 52  1  0
 22 53  1  0
 22 54  1  0
 23 27  1  0
 23 24  2  0
 24 25  1  0
 24 55  1  0
 25 26  2  0
 25 56  1  0
 26 27  1  0
 27 28  1  0
 28 57  1  0
 28 58  1  0
 28 59  1  0
 29 30  1  0
 31 32  1  0
 31 60  1  0
 32 61  1  0
M  CHG  1  29   1
M  END
>  <DOCK_score>  (1) 
-61.394989

>  <SMILES>  (1) 
CCc1ccc(-c2c[nH]c(NC(C[C@H]3CC=CCC3C)c3ccnn3C)[nH+]2)cc1

$$$$
