Oc1cc(C[NH+]=C(NCC2CC=CC2)NC2CC=CC2)cc(O[C@H]2CC=CCCC2)c1
     RDKit          3D

 67 70  0  0  1  0  0  0  0  0999 V2000
  124.8690  135.6242  163.3306 O   0  0  0  0  0  0  0  0  0  0  0  0
  126.0997  135.6129  163.9067 C   0  0  0  0  0  0  0  0  0  0  0  0
  127.2026  136.0685  163.1979 C   0  0  0  0  0  0  0  0  0  0  0  0
  128.4542  136.0568  163.7829 C   0  0  0  0  0  0  0  0  0  0  0  0
  129.6500  136.5520  163.0110 C   0  0  0  0  0  0  0  0  0  0  0  0
  129.6149  136.0051  161.6523 N   0  0  0  0  0  0  0  0  0  0  0  0
  128.8891  135.4205  161.3835 H   0  0  0  0  0  0  0  0  0  0  0  0
  130.5589  136.3043  160.8048 C   0  0  0  0  0  0  0  0  0  0  0  0
  131.5874  137.1331  161.1857 N   0  0  0  0  0  0  0  0  0  0  0  0
  132.6484  137.4695  160.2331 C   0  0  0  0  0  0  0  0  0  0  0  0
  133.6607  138.3994  160.9047 C   0  0  0  0  0  0  0  0  0  0  0  0
  133.0351  139.7832  161.1964 C   0  0  0  0  0  0  0  0  0  0  0  0
  134.1483  140.7709  160.9353 C   0  0  0  0  0  0  0  0  0  0  0  0
  135.1103  140.2228  160.2439 C   0  0  0  0  0  0  0  0  0  0  0  0
  134.7990  138.7782  159.9290 C   0  0  0  0  0  0  0  0  0  0  0  0
  130.5259  135.7910  159.5298 N   0  0  0  0  0  0  0  0  0  0  0  0
  129.4299  134.9077  159.1239 C   0  0  0  0  0  0  0  0  0  0  0  0
  129.4991  133.5568  159.8730 C   0  0  0  0  0  0  0  0  0  0  0  0
  129.0724  132.5287  158.8503 C   0  0  0  0  0  0  0  0  0  0  0  0
  129.1262  133.0177  157.6412 C   0  0  0  0  0  0  0  0  0  0  0  0
  129.5981  134.4531  157.6555 C   0  0  0  0  0  0  0  0  0  0  0  0
  128.6104  135.5972  165.0768 C   0  0  0  0  0  0  0  0  0  0  0  0
  127.5118  135.1354  165.7876 C   0  0  0  0  0  0  0  0  0  0  0  0
  127.6670  134.6781  167.0578 O   0  0  0  0  0  0  0  0  0  0  0  0
  126.9402  135.3558  168.0845 C   0  0  1  0  0  0  0  0  0  0  0  0
  126.3593  136.1633  167.6388 H   0  0  0  0  0  0  0  0  0  0  0  0
  125.9900  134.3680  168.7652 C   0  0  0  0  0  0  0  0  0  0  0  0
  124.8242  135.1402  169.3452 C   0  0  0  0  0  0  0  0  0  0  0  0
  124.9891  135.8875  170.3901 C   0  0  0  0  0  0  0  0  0  0  0  0
  126.3496  135.9987  171.0444 C   0  0  0  0  0  0  0  0  0  0  0  0
  127.2634  136.8228  170.1345 C   0  0  0  0  0  0  0  0  0  0  0  0
  127.9190  135.9393  169.0882 C   0  0  0  0  0  0  0  0  0  0  0  0
  126.2548  135.1460  165.2026 C   0  0  0  0  0  0  0  0  0  0  0  0
  124.8610  135.9669  162.4265 H   0  0  0  0  0  0  0  0  0  0  0  0
  127.0826  136.4321  162.1880 H   0  0  0  0  0  0  0  0  0  0  0  0
  129.6274  137.6408  162.9651 H   0  0  0  0  0  0  0  0  0  0  0  0
  130.5637  136.2282  163.5094 H   0  0  0  0  0  0  0  0  0  0  0  0
  131.6106  137.4953  162.0852 H   0  0  0  0  0  0  0  0  0  0  0  0
  133.1506  136.5571  159.9116 H   0  0  0  0  0  0  0  0  0  0  0  0
  132.2142  137.9695  159.3674 H   0  0  0  0  0  0  0  0  0  0  0  0
  134.0587  137.9497  161.8142 H   0  0  0  0  0  0  0  0  0  0  0  0
  132.1966  139.9697  160.5254 H   0  0  0  0  0  0  0  0  0  0  0  0
  132.7113  139.8420  162.2356 H   0  0  0  0  0  0  0  0  0  0  0  0
  134.1482  141.7958  161.2760 H   0  0  0  0  0  0  0  0  0  0  0  0
  136.0108  140.7346  159.9377 H   0  0  0  0  0  0  0  0  0  0  0  0
  135.6747  138.1536  160.1062 H   0  0  0  0  0  0  0  0  0  0  0  0
  134.4638  138.6765  158.8967 H   0  0  0  0  0  0  0  0  0  0  0  0
  131.2283  136.0135  158.8990 H   0  0  0  0  0  0  0  0  0  0  0  0
  128.4645  135.3904  159.2759 H   0  0  0  0  0  0  0  0  0  0  0  0
  130.5177  133.3597  160.2074 H   0  0  0  0  0  0  0  0  0  0  0  0
  128.8138  133.5571  160.7207 H   0  0  0  0  0  0  0  0  0  0  0  0
  128.7635  131.5217  159.0887 H   0  0  0  0  0  0  0  0  0  0  0  0
  128.8670  132.4687  156.7480 H   0  0  0  0  0  0  0  0  0  0  0  0
  128.9801  135.0626  156.9960 H   0  0  0  0  0  0  0  0  0  0  0  0
  130.6449  134.5116  157.3574 H   0  0  0  0  0  0  0  0  0  0  0  0
  129.5890  135.5936  165.5337 H   0  0  0  0  0  0  0  0  0  0  0  0
  126.5163  133.8453  169.5638 H   0  0  0  0  0  0  0  0  0  0  0  0
  125.6241  133.6486  168.0327 H   0  0  0  0  0  0  0  0  0  0  0  0
  123.8500  135.0678  168.8849 H   0  0  0  0  0  0  0  0  0  0  0  0
  124.1513  136.4346  170.7967 H   0  0  0  0  0  0  0  0  0  0  0  0
  126.2517  136.4943  172.0103 H   0  0  0  0  0  0  0  0  0  0  0  0
  126.7718  135.0033  171.1821 H   0  0  0  0  0  0  0  0  0  0  0  0
  126.6740  137.5925  169.6364 H   0  0  0  0  0  0  0  0  0  0  0  0
  128.0366  137.2980  170.7381 H   0  0  0  0  0  0  0  0  0  0  0  0
  128.4298  135.1198  169.5937 H   0  0  0  0  0  0  0  0  0  0  0  0
  128.6607  136.5291  168.5495 H   0  0  0  0  0  0  0  0  0  0  0  0
  125.3976  134.7909  165.7555 H   0  0  0  0  0  0  0  0  0  0  0  0
  1  2  1  0
  1 34  1  0
  2 33  2  0
  2  3  1  0
  3  4  2  0
  3 35  1  0
  4  5  1  0
  4 22  1  0
  5  6  1  0
  5 36  1  0
  5 37  1  0
  6  7  1  0
  8  6  2  0
  8  9  1  0
  8 16  1  0
  9 10  1  0
  9 38  1  0
 10 11  1  0
 10 39  1  0
 10 40  1  0
 11 15  1  0
 11 12  1  0
 11 41  1  0
 12 13  1  0
 12 42  1  0
 12 43  1  0
 13 14  2  0
 13 44  1  0
 14 15  1  0
 14 45  1  0
 15 46  1  0
 15 47  1  0
 16 17  1  0
 16 48  1  0
 17 21  1  0
 17 18  1  0
 17 49  1  0
 18 19  1  0
 18 50  1  0
 18 51  1  0
 19 20  2  0
 19 52  1  0
 20 21  1  0
 20 53  1  0
 21 54  1  0
 21 55  1  0
 22 23  2  0
 22 56  1  0
 23 24  1  0
 23 33  1  0
 24 25  1  0
 25 26  1  6
 25 32  1  0
 25 27  1  0
 27 28  1  0
 27 57  1  0
 27 58  1  0
 28 29  2  0
 28 59  1  0
 29 30  1  0
 29 60  1  0
 30 31  1  0
 30 61  1  0
 30 62  1  0
 31 32  1  0
 31 63  1  0
 31 64  1  0
 32 65  1  0
 32 66  1  0
 33 67  1  0
M  CHG  1   6   1
M  END
>  <DOCK_score>  (1) 
-48.514545

>  <SMILES>  (1) 
Oc1cc(C[NH+]=C(NCC2CC=CC2)NC2CC=CC2)cc(O[C@H]2CC=CCCC2)c1

$$$$
