[NH3+][C@H](CCC#Cc1ccc(Br)cc1)C(=O)Nc1cccc(O)c1
     RDKit          3D

 41 42  0  0  1  0  0  0  0  0999 V2000
  130.6729  133.9995  157.6391 N   0  0  0  0  0  0  0  0  0  0  0  0
  130.7328  133.0101  157.4509 H   0  0  0  0  0  0  0  0  0  0  0  0
  129.8936  134.3916  157.1322 H   0  0  0  0  0  0  0  0  0  0  0  0
  131.5263  134.4501  157.3447 H   0  0  0  0  0  0  0  0  0  0  0  0
  130.4779  134.2132  159.0793 C   0  0  2  0  0  0  0  0  0  0  0  0
  130.4132  135.2821  159.2825 H   0  0  0  0  0  0  0  0  0  0  0  0
  131.6598  133.6185  159.8477 C   0  0  0  0  0  0  0  0  0  0  0  0
  132.8416  134.5889  159.7962 C   0  0  0  0  0  0  0  0  0  0  0  0
  132.4522  135.8694  160.4090 C   0  0  0  0  0  0  0  0  0  0  0  0
  132.1416  136.8906  160.8979 C   0  0  0  0  0  0  0  0  0  0  0  0
  131.7627  138.1362  161.4941 C   0  0  0  0  0  0  0  0  0  0  0  0
  130.4740  138.3068  162.0012 C   0  0  0  0  0  0  0  0  0  0  0  0
  130.1162  139.5077  162.5783 C   0  0  0  0  0  0  0  0  0  0  0  0
  131.0297  140.5458  162.6457 C   0  0  0  0  0  0  0  0  0  0  0  0
  130.5289  142.1913  163.4314 Br  0  0  0  0  0  0  0  0  0  0  0  0
  132.3083  140.3840  162.1400 C   0  0  0  0  0  0  0  0  0  0  0  0
  132.6791  139.1863  161.5650 C   0  0  0  0  0  0  0  0  0  0  0  0
  129.2033  133.5401  159.5189 C   0  0  0  0  0  0  0  0  0  0  0  0
  129.2254  132.3884  159.8989 O   0  0  0  0  0  0  0  0  0  0  0  0
  128.0386  134.2178  159.4896 N   0  0  0  0  0  0  0  0  0  0  0  0
  126.8551  133.5928  159.8977 C   0  0  0  0  0  0  0  0  0  0  0  0
  126.7024  132.2211  159.7390 C   0  0  0  0  0  0  0  0  0  0  0  0
  125.5341  131.6042  160.1418 C   0  0  0  0  0  0  0  0  0  0  0  0
  124.5170  132.3481  160.7094 C   0  0  0  0  0  0  0  0  0  0  0  0
  124.6616  133.7194  160.8650 C   0  0  0  0  0  0  0  0  0  0  0  0
  123.6581  134.4505  161.4177 O   0  0  0  0  0  0  0  0  0  0  0  0
  125.8325  134.3422  160.4616 C   0  0  0  0  0  0  0  0  0  0  0  0
  131.3714  133.4518  160.8856 H   0  0  0  0  0  0  0  0  0  0  0  0
  131.9482  132.6704  159.3938 H   0  0  0  0  0  0  0  0  0  0  0  0
  133.6836  134.1653  160.3436 H   0  0  0  0  0  0  0  0  0  0  0  0
  133.1299  134.7556  158.7584 H   0  0  0  0  0  0  0  0  0  0  0  0
  129.7593  137.4991  161.9454 H   0  0  0  0  0  0  0  0  0  0  0  0
  129.1202  139.6397  162.9745 H   0  0  0  0  0  0  0  0  0  0  0  0
  133.0164  141.1975  162.1956 H   0  0  0  0  0  0  0  0  0  0  0  0
  133.6765  139.0615  161.1702 H   0  0  0  0  0  0  0  0  0  0  0  0
  128.0209  135.1388  159.1857 H   0  0  0  0  0  0  0  0  0  0  0  0
  127.4977  131.6368  159.3001 H   0  0  0  0  0  0  0  0  0  0  0  0
  125.4171  130.5378  160.0173 H   0  0  0  0  0  0  0  0  0  0  0  0
  123.6065  131.8622  161.0281 H   0  0  0  0  0  0  0  0  0  0  0  0
  123.8509  135.3957  161.4845 H   0  0  0  0  0  0  0  0  0  0  0  0
  125.9485  135.4088  160.5857 H   0  0  0  0  0  0  0  0  0  0  0  0
  1  2  1  0
  1  3  1  0
  1  4  1  0
  1  5  1  0
  5  6  1  6
  5  7  1  0
  5 18  1  0
  7  8  1  0
  7 28  1  0
  7 29  1  0
  8  9  1  0
  8 30  1  0
  8 31  1  0
  9 10  3  0
 10 11  1  0
 11 17  1  0
 11 12  2  0
 12 13  1  0
 12 32  1  0
 13 14  2  0
 13 33  1  0
 14 15  1  0
 14 16  1  0
 16 17  2  0
 16 34  1  0
 17 35  1  0
 18 19  2  0
 18 20  1  0
 20 21  1  0
 20 36  1  0
 21 27  1  0
 21 22  2  0
 22 23  1  0
 22 37  1  0
 23 24  2  0
 23 38  1  0
 24 25  1  0
 24 39  1  0
 25 26  1  0
 25 27  2  0
 26 40  1  0
 27 41  1  0
M  CHG  1   1   1
M  END
>  <DOCK_score>  (1) 
-42.699272

>  <SMILES>  (1) 
[NH3+][C@H](CCC#Cc1ccc(Br)cc1)C(=O)Nc1cccc(O)c1

$$$$
