CCc1ccc(Nc2ccc(NC3=[NH+]CCN3)cc2)cc1
     RDKit          3D

 42 44  0  0  0  0  0  0  0  0999 V2000
  128.6273  138.6075  167.8647 C   0  0  0  0  0  0  0  0  0  0  0  0
  127.2441  137.9559  167.8122 C   0  0  0  0  0  0  0  0  0  0  0  0
  126.9275  137.5630  166.3922 C   0  0  0  0  0  0  0  0  0  0  0  0
  127.2813  136.3093  165.9280 C   0  0  0  0  0  0  0  0  0  0  0  0
  126.9877  135.9440  164.6291 C   0  0  0  0  0  0  0  0  0  0  0  0
  126.3463  136.8418  163.7847 C   0  0  0  0  0  0  0  0  0  0  0  0
  126.0528  136.4777  162.4684 N   0  0  0  0  0  0  0  0  0  0  0  0
  127.0859  136.1240  161.5934 C   0  0  0  0  0  0  0  0  0  0  0  0
  126.8514  135.2081  160.5757 C   0  0  0  0  0  0  0  0  0  0  0  0
  127.8694  134.8634  159.7093 C   0  0  0  0  0  0  0  0  0  0  0  0
  129.1307  135.4236  159.8619 C   0  0  0  0  0  0  0  0  0  0  0  0
  130.1654  135.0698  158.9851 N   0  0  0  0  0  0  0  0  0  0  0  0
  130.1851  133.8242  158.4165 C   0  0  0  0  0  0  0  0  0  0  0  0
  129.6847  132.7565  159.0168 N   0  0  0  0  0  0  0  0  0  0  0  0
  129.2672  132.7483  159.8923 H   0  0  0  0  0  0  0  0  0  0  0  0
  129.8588  131.5841  158.1451 C   0  0  0  0  0  0  0  0  0  0  0  0
  130.5729  132.1610  156.9060 C   0  0  0  0  0  0  0  0  0  0  0  0
  130.7109  133.5906  157.2250 N   0  0  0  0  0  0  0  0  0  0  0  0
  129.3671  136.3348  160.8827 C   0  0  0  0  0  0  0  0  0  0  0  0
  128.3479  136.6843  161.7458 C   0  0  0  0  0  0  0  0  0  0  0  0
  125.9972  138.1025  164.2528 C   0  0  0  0  0  0  0  0  0  0  0  0
  126.2886  138.4591  165.5547 C   0  0  0  0  0  0  0  0  0  0  0  0
  128.8564  138.8917  168.8918 H   0  0  0  0  0  0  0  0  0  0  0  0
  129.3760  137.9002  167.5079 H   0  0  0  0  0  0  0  0  0  0  0  0
  128.6351  139.4951  167.2319 H   0  0  0  0  0  0  0  0  0  0  0  0
  126.4955  138.6632  168.1691 H   0  0  0  0  0  0  0  0  0  0  0  0
  127.2364  137.0685  168.4450 H   0  0  0  0  0  0  0  0  0  0  0  0
  127.7842  135.6136  166.5835 H   0  0  0  0  0  0  0  0  0  0  0  0
  127.2608  134.9633  164.2683 H   0  0  0  0  0  0  0  0  0  0  0  0
  125.1328  136.4701  162.1610 H   0  0  0  0  0  0  0  0  0  0  0  0
  125.8715  134.7693  160.4594 H   0  0  0  0  0  0  0  0  0  0  0  0
  127.6859  134.1548  158.9152 H   0  0  0  0  0  0  0  0  0  0  0  0
  130.8676  135.7072  158.7810 H   0  0  0  0  0  0  0  0  0  0  0  0
  128.8934  131.1597  157.8691 H   0  0  0  0  0  0  0  0  0  0  0  0
  130.4826  130.8357  158.6339 H   0  0  0  0  0  0  0  0  0  0  0  0
  129.9630  132.0239  156.0130 H   0  0  0  0  0  0  0  0  0  0  0  0
  131.5521  131.7005  156.7750 H   0  0  0  0  0  0  0  0  0  0  0  0
  131.1227  134.2566  156.6524 H   0  0  0  0  0  0  0  0  0  0  0  0
  130.3482  136.7706  161.0011 H   0  0  0  0  0  0  0  0  0  0  0  0
  128.5315  137.3936  162.5393 H   0  0  0  0  0  0  0  0  0  0  0  0
  125.4990  138.8030  163.5990 H   0  0  0  0  0  0  0  0  0  0  0  0
  126.0175  139.4389  165.9190 H   0  0  0  0  0  0  0  0  0  0  0  0
  1  2  1  0
  1 23  1  0
  1 24  1  0
  1 25  1  0
  2  3  1  0
  2 26  1  0
  2 27  1  0
  3 22  2  0
  3  4  1  0
  4  5  2  0
  4 28  1  0
  5  6  1  0
  5 29  1  0
  6  7  1  0
  6 21  2  0
  7  8  1  0
  7 30  1  0
  8 20  1  0
  8  9  2  0
  9 10  1  0
  9 31  1  0
 10 11  2  0
 10 32  1  0
 11 12  1  0
 11 19  1  0
 12 13  1  0
 12 33  1  0
 13 18  2  0
 13 14  1  0
 14 15  1  0
 14 16  1  0
 16 17  1  0
 16 34  1  0
 16 35  1  0
 17 18  1  0
 17 36  1  0
 17 37  1  0
 18 38  1  0
 19 20  2  0
 19 39  1  0
 20 40  1  0
 21 22  1  0
 21 41  1  0
 22 42  1  0
M  CHG  1  18   1
M  END
>  <DOCK_score>  (1) 
-41.387173

>  <SMILES>  (1) 
CCc1ccc(Nc2ccc(NC3=[NH+]CCN3)cc2)cc1

$$$$
