CCc1ccc(-c2c[nH]c(N[C@H](c3cccc(Cl)c3CCl)C3CCCC3O)[nH+]2)cc1
     RDKit          3D

 58 61  0  0  1  0  0  0  0  0999 V2000
  130.6569  129.0763  151.9424 C   0  0  0  0  0  0  0  0  0  0  0  0
  131.9090  129.7457  152.5123 C   0  0  0  0  0  0  0  0  0  0  0  0
  131.5582  130.4604  153.7918 C   0  0  0  0  0  0  0  0  0  0  0  0
  131.6455  129.7929  155.0003 C   0  0  0  0  0  0  0  0  0  0  0  0
  131.3302  130.4437  156.1756 C   0  0  0  0  0  0  0  0  0  0  0  0
  130.9131  131.7733  156.1425 C   0  0  0  0  0  0  0  0  0  0  0  0
  130.5683  132.4769  157.4019 C   0  0  0  0  0  0  0  0  0  0  0  0
  130.0572  131.9061  158.5208 C   0  0  0  0  0  0  0  0  0  0  0  0
  129.8921  132.9119  159.4417 N   0  0  0  0  0  0  0  0  0  0  0  0
  129.5460  132.8148  160.3427 H   0  0  0  0  0  0  0  0  0  0  0  0
  130.2995  134.0704  158.8552 C   0  0  0  0  0  0  0  0  0  0  0  0
  130.2890  135.3215  159.4478 N   0  0  0  0  0  0  0  0  0  0  0  0
  129.8091  135.4764  160.8233 C   0  0  2  0  0  0  0  0  0  0  0  0
  130.1609  134.6399  161.4272 H   0  0  0  0  0  0  0  0  0  0  0  0
  128.3024  135.5020  160.8298 C   0  0  0  0  0  0  0  0  0  0  0  0
  127.6148  135.9989  159.7381 C   0  0  0  0  0  0  0  0  0  0  0  0
  126.2328  136.0227  159.7433 C   0  0  0  0  0  0  0  0  0  0  0  0
  125.5374  135.5493  160.8401 C   0  0  0  0  0  0  0  0  0  0  0  0
  126.2246  135.0515  161.9326 C   0  0  0  0  0  0  0  0  0  0  0  0
  125.3518  134.4561  163.3101 Cl  0  0  0  0  0  0  0  0  0  0  0  0
  127.6081  135.0235  161.9248 C   0  0  0  0  0  0  0  0  0  0  0  0
  128.3576  134.4766  163.1123 C   0  0  0  0  0  0  0  0  0  0  0  0
  128.6277  132.7079  162.8900 Cl  0  0  0  0  0  0  0  0  0  0  0  0
  130.3440  136.7862  161.4056 C   0  0  1  0  0  0  0  0  0  0  0  0
  131.8812  136.8034  161.3401 C   0  0  0  0  0  0  0  0  0  0  0  0
  132.2713  138.0066  160.4571 C   0  0  0  0  0  0  0  0  0  0  0  0
  131.0536  138.9591  160.5533 C   0  0  0  0  0  0  0  0  0  0  0  0
  129.8535  137.9798  160.5601 C   0  0  2  0  0  0  0  0  0  0  0  0
  128.7139  138.5895  161.1695 O   0  0  0  0  0  0  0  0  0  0  0  0
  130.7029  133.8065  157.6364 N   0  0  0  0  0  0  0  0  0  0  0  0
  131.0430  134.4576  157.0030 H   0  0  0  0  0  0  0  0  0  0  0  0
  130.8218  132.4393  154.9216 C   0  0  0  0  0  0  0  0  0  0  0  0
  131.1444  131.7798  153.7530 C   0  0  0  0  0  0  0  0  0  0  0  0
  130.9107  128.5593  151.0169 H   0  0  0  0  0  0  0  0  0  0  0  0
  130.2679  128.3585  152.6645 H   0  0  0  0  0  0  0  0  0  0  0  0
  129.9002  129.8341  151.7395 H   0  0  0  0  0  0  0  0  0  0  0  0
  132.6659  128.9878  152.7153 H   0  0  0  0  0  0  0  0  0  0  0  0
  132.2981  130.4634  151.7902 H   0  0  0  0  0  0  0  0  0  0  0  0
  131.9652  128.7615  155.0243 H   0  0  0  0  0  0  0  0  0  0  0  0
  131.4030  129.9229  157.1189 H   0  0  0  0  0  0  0  0  0  0  0  0
  129.8265  130.8605  158.6618 H   0  0  0  0  0  0  0  0  0  0  0  0
  130.5993  136.0954  158.9524 H   0  0  0  0  0  0  0  0  0  0  0  0
  128.1578  136.3690  158.8810 H   0  0  0  0  0  0  0  0  0  0  0  0
  125.6963  136.4111  158.8903 H   0  0  0  0  0  0  0  0  0  0  0  0
  124.4575  135.5682  160.8443 H   0  0  0  0  0  0  0  0  0  0  0  0
  129.3188  134.9828  163.1996 H   0  0  0  0  0  0  0  0  0  0  0  0
  127.7751  134.6442  164.0182 H   0  0  0  0  0  0  0  0  0  0  0  0
  130.0129  136.8982  162.4381 H   0  0  0  0  0  0  0  0  0  0  0  0
  132.2962  136.9245  162.3407 H   0  0  0  0  0  0  0  0  0  0  0  0
  132.2463  135.8782  160.8943 H   0  0  0  0  0  0  0  0  0  0  0  0
  133.1665  138.4914  160.8468 H   0  0  0  0  0  0  0  0  0  0  0  0
  132.4289  137.6884  159.4267 H   0  0  0  0  0  0  0  0  0  0  0  0
  131.0865  139.5360  161.4773 H   0  0  0  0  0  0  0  0  0  0  0  0
  131.0111  139.6204  159.6879 H   0  0  0  0  0  0  0  0  0  0  0  0
  129.6184  137.6575  159.5457 H   0  0  0  0  0  0  0  0  0  0  0  0
  128.8791  138.9306  162.0591 H   0  0  0  0  0  0  0  0  0  0  0  0
  130.4990  133.4695  154.8900 H   0  0  0  0  0  0  0  0  0  0  0  0
  131.0741  132.2949  152.8064 H   0  0  0  0  0  0  0  0  0  0  0  0
  1  2  1  0
  1 34  1  0
  1 35  1  0
  1 36  1  0
  2  3  1  0
  2 37  1  0
  2 38  1  0
  3 33  2  0
  3  4  1  0
  4  5  2  0
  4 39  1  0
  5  6  1  0
  5 40  1  0
  6  7  1  0
  6 32  2  0
  7 30  1  0
  7  8  2  0
  8  9  1  0
  8 41  1  0
  9 10  1  0
  9 11  1  0
 11 12  1  0
 11 30  2  0
 12 13  1  0
 12 42  1  0
 13 14  1  1
 13 15  1  0
 13 24  1  0
 15 21  1  0
 15 16  2  0
 16 17  1  0
 16 43  1  0
 17 18  2  0
 17 44  1  0
 18 19  1  0
 18 45  1  0
 19 20  1  0
 19 21  2  0
 21 22  1  0
 22 23  1  0
 22 46  1  0
 22 47  1  0
 24 28  1  0
 24 25  1  0
 24 48  1  1
 25 26  1  0
 25 49  1  0
 25 50  1  0
 26 27  1  0
 26 51  1  0
 26 52  1  0
 27 28  1  0
 27 53  1  0
 27 54  1  0
 28 29  1  0
 28 55  1  6
 29 56  1  0
 30 31  1  0
 32 33  1  0
 32 57  1  0
 33 58  1  0
M  CHG  1  30   1
M  END
>  <DOCK_score>  (1) 
-57.899143

>  <SMILES>  (1) 
CCc1ccc(-c2c[nH]c(N[C@H](c3cccc(Cl)c3CCl)C3CCCC3O)[nH+]2)cc1

$$$$
