O=C1C=CC(O)(c2ccc(Sc3ccccc3)c(Nc3[nH]cc(-c4ccccc4)[nH+]3)c2)C=C1
     RDKit          3D

 55 59  0  0  1  0  0  0  0  0999 V2000
  126.1572  131.1789  159.2716 O   0  0  0  0  0  0  0  0  0  0  0  0
  125.9574  132.1887  159.9207 C   0  0  0  0  0  0  0  0  0  0  0  0
  126.0810  132.1873  161.3903 C   0  0  0  0  0  0  0  0  0  0  0  0
  126.1853  133.3411  162.0362 C   0  0  0  0  0  0  0  0  0  0  0  0
  126.1976  134.6663  161.3418 C   0  0  0  0  0  0  0  0  0  0  0  0
  125.3803  135.5788  162.0775 O   0  0  0  0  0  0  0  0  0  0  0  0
  127.6105  135.1901  161.3211 C   0  0  0  0  0  0  0  0  0  0  0  0
  128.0678  135.9806  162.3597 C   0  0  0  0  0  0  0  0  0  0  0  0
  129.3640  136.4605  162.3496 C   0  0  0  0  0  0  0  0  0  0  0  0
  130.2074  136.1579  161.2902 C   0  0  0  0  0  0  0  0  0  0  0  0
  131.8585  136.7731  161.2715 S   0  0  0  0  0  0  0  0  0  0  0  0
  131.7261  138.2908  162.1570 C   0  0  0  0  0  0  0  0  0  0  0  0
  130.8877  139.2973  161.6927 C   0  0  0  0  0  0  0  0  0  0  0  0
  130.7832  140.4835  162.3917 C   0  0  0  0  0  0  0  0  0  0  0  0
  131.5188  140.6744  163.5472 C   0  0  0  0  0  0  0  0  0  0  0  0
  132.3582  139.6770  164.0094 C   0  0  0  0  0  0  0  0  0  0  0  0
  132.4641  138.4862  163.3183 C   0  0  0  0  0  0  0  0  0  0  0  0
  129.7442  135.3646  160.2400 C   0  0  0  0  0  0  0  0  0  0  0  0
  130.5897  135.0557  159.1674 N   0  0  0  0  0  0  0  0  0  0  0  0
  130.4324  133.8619  158.4834 C   0  0  0  0  0  0  0  0  0  0  0  0
  129.9693  132.6978  159.0159 N   0  0  0  0  0  0  0  0  0  0  0  0
  129.6926  132.5563  159.9348 H   0  0  0  0  0  0  0  0  0  0  0  0
  129.9638  131.7614  158.0113 C   0  0  0  0  0  0  0  0  0  0  0  0
  130.4313  132.3768  156.8968 C   0  0  0  0  0  0  0  0  0  0  0  0
  130.6068  131.7517  155.5630 C   0  0  0  0  0  0  0  0  0  0  0  0
  129.9163  132.2512  154.4601 C   0  0  0  0  0  0  0  0  0  0  0  0
  130.0882  131.6695  153.2204 C   0  0  0  0  0  0  0  0  0  0  0  0
  130.9343  130.5847  153.0740 C   0  0  0  0  0  0  0  0  0  0  0  0
  131.6180  130.0818  154.1659 C   0  0  0  0  0  0  0  0  0  0  0  0
  131.4584  130.6593  155.4091 C   0  0  0  0  0  0  0  0  0  0  0  0
  130.7104  133.6647  157.2175 N   0  0  0  0  0  0  0  0  0  0  0  0
  131.0601  134.3332  156.6077 H   0  0  0  0  0  0  0  0  0  0  0  0
  128.4438  134.8834  160.2614 C   0  0  0  0  0  0  0  0  0  0  0  0
  125.6910  134.5919  159.9360 C   0  0  0  0  0  0  0  0  0  0  0  0
  125.5828  133.4552  159.2641 C   0  0  0  0  0  0  0  0  0  0  0  0
  126.0862  131.2552  161.9357 H   0  0  0  0  0  0  0  0  0  0  0  0
  126.2647  133.3232  163.1131 H   0  0  0  0  0  0  0  0  0  0  0  0
  125.3553  136.4715  161.7066 H   0  0  0  0  0  0  0  0  0  0  0  0
  127.4111  136.2208  163.1828 H   0  0  0  0  0  0  0  0  0  0  0  0
  129.7188  137.0745  163.1641 H   0  0  0  0  0  0  0  0  0  0  0  0
  130.3160  139.1504  160.7884 H   0  0  0  0  0  0  0  0  0  0  0  0
  130.1288  141.2645  162.0337 H   0  0  0  0  0  0  0  0  0  0  0  0
  131.4381  141.6047  164.0897 H   0  0  0  0  0  0  0  0  0  0  0  0
  132.9312  139.8295  164.9120 H   0  0  0  0  0  0  0  0  0  0  0  0
  133.1200  137.7080  163.6796 H   0  0  0  0  0  0  0  0  0  0  0  0
  131.2855  135.6779  158.9035 H   0  0  0  0  0  0  0  0  0  0  0  0
  129.6506  130.7311  158.0939 H   0  0  0  0  0  0  0  0  0  0  0  0
  129.2514  133.0944  154.5745 H   0  0  0  0  0  0  0  0  0  0  0  0
  129.5576  132.0589  152.3641 H   0  0  0  0  0  0  0  0  0  0  0  0
  131.0631  130.1308  152.1023 H   0  0  0  0  0  0  0  0  0  0  0  0
  132.2776  129.2352  154.0456 H   0  0  0  0  0  0  0  0  0  0  0  0
  131.9929  130.2656  156.2611 H   0  0  0  0  0  0  0  0  0  0  0  0
  128.0817  134.2694  159.4500 H   0  0  0  0  0  0  0  0  0  0  0  0
  125.4010  135.5085  159.4438 H   0  0  0  0  0  0  0  0  0  0  0  0
  125.2221  133.4554  158.2462 H   0  0  0  0  0  0  0  0  0  0  0  0
  1  2  2  0
  2 35  1  0
  2  3  1  0
  3  4  2  0
  3 36  1  0
  4  5  1  0
  4 37  1  0
  5  6  1  0
  5  7  1  0
  5 34  1  0
  6 38  1  0
  7 33  1  0
  7  8  2  0
  8  9  1  0
  8 39  1  0
  9 10  2  0
  9 40  1  0
 10 11  1  0
 10 18  1  0
 11 12  1  0
 12 17  1  0
 12 13  2  0
 13 14  1  0
 13 41  1  0
 14 15  2  0
 14 42  1  0
 15 16  1  0
 15 43  1  0
 16 17  2  0
 16 44  1  0
 17 45  1  0
 18 19  1  0
 18 33  2  0
 19 46  1  0
 20 19  1  0
 20 31  2  0
 20 21  1  0
 21 22  1  0
 21 23  1  0
 23 24  2  0
 23 47  1  0
 24 25  1  0
 24 31  1  0
 25 30  1  0
 25 26  2  0
 26 27  1  0
 26 48  1  0
 27 28  2  0
 27 49  1  0
 28 29  1  0
 28 50  1  0
 29 30  2  0
 29 51  1  0
 30 52  1  0
 31 32  1  0
 33 53  1  0
 34 35  2  0
 34 54  1  0
 35 55  1  0
M  CHG  1  31   1
M  END
>  <DOCK_score>  (1) 
-54.259895

>  <SMILES>  (1) 
O=C1C=CC(O)(c2ccc(Sc3ccccc3)c(Nc3[nH]cc(-c4ccccc4)[nH+]3)c2)C=C1

$$$$
