OC[C@H]1C[C@@H]([NH2+]Cc2c[nH]nc2-c2ccc(NCC(c3ccccc3)c3ccccc3)o2)C1
     RDKit          3D

 64 68  0  0  1  0  0  0  0  0999 V2000
  134.8226  139.0375  158.6301 O   0  0  0  0  0  0  0  0  0  0  0  0
  134.5737  139.8407  159.7856 C   0  0  0  0  0  0  0  0  0  0  0  0
  133.4438  139.2164  160.6069 C   0  0  1  0  0  0  0  0  0  0  0  0
  133.2071  139.7866  161.5051 H   0  0  0  0  0  0  0  0  0  0  0  0
  132.2083  138.8428  159.7709 C   0  0  0  0  0  0  0  0  0  0  0  0
  132.1134  137.5652  160.6214 C   0  0  1  0  0  0  0  0  0  0  0  0
  131.5124  137.6846  161.5229 H   0  0  0  0  0  0  0  0  0  0  0  0
  131.7516  136.3694  159.8487 N   0  0  0  0  0  0  0  0  0  0  0  0
  130.8518  136.5093  159.4142 H   0  0  0  0  0  0  0  0  0  0  0  0
  132.4473  136.2061  159.1365 H   0  0  0  0  0  0  0  0  0  0  0  0
  131.6870  135.2079  160.7457 C   0  0  0  0  0  0  0  0  0  0  0  0
  131.3158  133.9811  159.9531 C   0  0  0  0  0  0  0  0  0  0  0  0
  132.1767  133.1296  159.3558 C   0  0  0  0  0  0  0  0  0  0  0  0
  131.4554  132.1620  158.7494 N   0  0  0  0  0  0  0  0  0  0  0  0
  131.8152  131.4170  158.2432 H   0  0  0  0  0  0  0  0  0  0  0  0
  130.0978  132.4208  158.9775 N   0  0  0  0  0  0  0  0  0  0  0  0
  130.0070  133.5145  159.7082 C   0  0  0  0  0  0  0  0  0  0  0  0
  128.7566  134.1418  160.1837 C   0  0  0  0  0  0  0  0  0  0  0  0
  127.4974  133.6918  159.9402 C   0  0  0  0  0  0  0  0  0  0  0  0
  126.6143  134.5847  160.5788 C   0  0  0  0  0  0  0  0  0  0  0  0
  127.3756  135.5375  161.1724 C   0  0  0  0  0  0  0  0  0  0  0  0
  126.8986  136.6160  161.9084 N   0  0  0  0  0  0  0  0  0  0  0  0
  127.8379  137.5740  162.4968 C   0  0  0  0  0  0  0  0  0  0  0  0
  127.2363  138.1575  163.7768 C   0  0  0  0  0  0  0  0  0  0  0  0
  127.4212  137.1808  164.9095 C   0  0  0  0  0  0  0  0  0  0  0  0
  126.4510  136.2307  165.1683 C   0  0  0  0  0  0  0  0  0  0  0  0
  126.6228  135.3318  166.2043 C   0  0  0  0  0  0  0  0  0  0  0  0
  127.7602  135.3895  166.9881 C   0  0  0  0  0  0  0  0  0  0  0  0
  128.7280  136.3429  166.7325 C   0  0  0  0  0  0  0  0  0  0  0  0
  128.5585  137.2385  165.6932 C   0  0  0  0  0  0  0  0  0  0  0  0
  127.9293  139.4529  164.1125 C   0  0  0  0  0  0  0  0  0  0  0  0
  127.2416  140.4534  164.7737 C   0  0  0  0  0  0  0  0  0  0  0  0
  127.8786  141.6399  165.0859 C   0  0  0  0  0  0  0  0  0  0  0  0
  129.2000  141.8300  164.7274 C   0  0  0  0  0  0  0  0  0  0  0  0
  129.8860  140.8315  164.0616 C   0  0  0  0  0  0  0  0  0  0  0  0
  129.2506  139.6431  163.7541 C   0  0  0  0  0  0  0  0  0  0  0  0
  128.6686  135.2634  160.9294 O   0  0  0  0  0  0  0  0  0  0  0  0
  133.6254  137.7082  160.8633 C   0  0  0  0  0  0  0  0  0  0  0  0
  134.0850  139.0080  158.0053 H   0  0  0  0  0  0  0  0  0  0  0  0
  134.2849  140.8448  159.4747 H   0  0  0  0  0  0  0  0  0  0  0  0
  135.4775  139.8941  160.3925 H   0  0  0  0  0  0  0  0  0  0  0  0
  132.4325  138.6530  158.7212 H   0  0  0  0  0  0  0  0  0  0  0  0
  131.3669  139.5222  159.9079 H   0  0  0  0  0  0  0  0  0  0  0  0
  132.6591  135.0568  161.2151 H   0  0  0  0  0  0  0  0  0  0  0  0
  130.9355  135.3844  161.5153 H   0  0  0  0  0  0  0  0  0  0  0  0
  133.2539  133.2084  159.3620 H   0  0  0  0  0  0  0  0  0  0  0  0
  127.2261  132.8168  159.3683 H   0  0  0  0  0  0  0  0  0  0  0  0
  125.5361  134.5242  160.5903 H   0  0  0  0  0  0  0  0  0  0  0  0
  125.9439  136.7344  162.0322 H   0  0  0  0  0  0  0  0  0  0  0  0
  128.7734  137.0669  162.7334 H   0  0  0  0  0  0  0  0  0  0  0  0
  128.0299  138.3779  161.7863 H   0  0  0  0  0  0  0  0  0  0  0  0
  126.1726  138.3426  163.6268 H   0  0  0  0  0  0  0  0  0  0  0  0
  125.5603  136.1886  164.5589 H   0  0  0  0  0  0  0  0  0  0  0  0
  125.8665  134.5873  166.4042 H   0  0  0  0  0  0  0  0  0  0  0  0
  127.8924  134.6900  167.8001 H   0  0  0  0  0  0  0  0  0  0  0  0
  129.6163  136.3881  167.3449 H   0  0  0  0  0  0  0  0  0  0  0  0
  129.3145  137.9836  165.4937 H   0  0  0  0  0  0  0  0  0  0  0  0
  126.2078  140.3066  165.0498 H   0  0  0  0  0  0  0  0  0  0  0  0
  127.3425  142.4201  165.6059 H   0  0  0  0  0  0  0  0  0  0  0  0
  129.6964  142.7587  164.9674 H   0  0  0  0  0  0  0  0  0  0  0  0
  130.9184  140.9803  163.7813 H   0  0  0  0  0  0  0  0  0  0  0  0
  129.7865  138.8632  163.2334 H   0  0  0  0  0  0  0  0  0  0  0  0
  133.9285  137.4721  161.8833 H   0  0  0  0  0  0  0  0  0  0  0  0
  134.2369  137.2069  160.1132 H   0  0  0  0  0  0  0  0  0  0  0  0
  1  2  1  0
  1 39  1  0
  2  3  1  0
  2 40  1  0
  2 41  1  0
  3  4  1  1
  3 38  1  0
  3  5  1  0
  5  6  1  0
  5 42  1  0
  5 43  1  0
  6  7  1  1
  6  8  1  0
  6 38  1  0
  8  9  1  0
  8 10  1  0
  8 11  1  0
 11 12  1  0
 11 44  1  0
 11 45  1  0
 12 17  1  0
 12 13  2  0
 13 14  1  0
 13 46  1  0
 14 15  1  0
 14 16  1  0
 16 17  2  0
 17 18  1  0
 18 37  1  0
 18 19  2  0
 19 20  1  0
 19 47  1  0
 20 21  2  0
 20 48  1  0
 21 22  1  0
 21 37  1  0
 22 23  1  0
 22 49  1  0
 23 24  1  0
 23 50  1  0
 23 51  1  0
 24 25  1  0
 24 31  1  0
 24 52  1  0
 25 30  1  0
 25 26  2  0
 26 27  1  0
 26 53  1  0
 27 28  2  0
 27 54  1  0
 28 29  1  0
 28 55  1  0
 29 30  2  0
 29 56  1  0
 30 57  1  0
 31 36  1  0
 31 32  2  0
 32 33  1  0
 32 58  1  0
 33 34  2  0
 33 59  1  0
 34 35  1  0
 34 60  1  0
 35 36  2  0
 35 61  1  0
 36 62  1  0
 38 63  1  0
 38 64  1  0
M  CHG  1   8   1
M  END
>  <DOCK_score>  (1) 
-44.021721

>  <SMILES>  (1) 
OC[C@H]1C[C@@H]([NH2+]Cc2c[nH]nc2-c2ccc(NCC(c3ccccc3)c3ccccc3)o2)C1

$$$$
