CSCc1ccc(-c2c[nH]c(NC(c3ccccc3)c3ccccc3)[nH+]2)cc1
     RDKit          3D

 52 55  0  0  1  0  0  0  0  0999 V2000
  128.9982  129.2367  151.1035 C   0  0  0  0  0  0  0  0  0  0  0  0
  130.2508  128.2696  151.9903 S   0  0  0  0  0  0  0  0  0  0  0  0
  131.5454  129.4942  152.3305 C   0  0  0  0  0  0  0  0  0  0  0  0
  131.1524  130.3209  153.5276 C   0  0  0  0  0  0  0  0  0  0  0  0
  130.4270  131.4856  153.3519 C   0  0  0  0  0  0  0  0  0  0  0  0
  130.0593  132.2442  154.4446 C   0  0  0  0  0  0  0  0  0  0  0  0
  130.4302  131.8408  155.7262 C   0  0  0  0  0  0  0  0  0  0  0  0
  130.0428  132.6548  156.9041 C   0  0  0  0  0  0  0  0  0  0  0  0
  129.2751  132.2410  157.9425 C   0  0  0  0  0  0  0  0  0  0  0  0
  129.1688  133.3028  158.8076 N   0  0  0  0  0  0  0  0  0  0  0  0
  128.6821  133.3137  159.6466 H   0  0  0  0  0  0  0  0  0  0  0  0
  129.8683  134.3380  158.2679 C   0  0  0  0  0  0  0  0  0  0  0  0
  130.0074  135.5963  158.8282 N   0  0  0  0  0  0  0  0  0  0  0  0
  129.3700  135.9011  160.1116 C   0  0  0  0  0  0  0  0  0  0  0  0
  129.9023  134.9702  161.1704 C   0  0  0  0  0  0  0  0  0  0  0  0
  129.1042  134.6122  162.2408 C   0  0  0  0  0  0  0  0  0  0  0  0
  129.5908  133.7545  163.2093 C   0  0  0  0  0  0  0  0  0  0  0  0
  130.8793  133.2629  163.1131 C   0  0  0  0  0  0  0  0  0  0  0  0
  131.6792  133.6248  162.0455 C   0  0  0  0  0  0  0  0  0  0  0  0
  131.1907  134.4785  161.0741 C   0  0  0  0  0  0  0  0  0  0  0  0
  129.6731  137.3262  160.4971 C   0  0  0  0  0  0  0  0  0  0  0  0
  128.7654  138.0463  161.2509 C   0  0  0  0  0  0  0  0  0  0  0  0
  129.0456  139.3519  161.6085 C   0  0  0  0  0  0  0  0  0  0  0  0
  130.2289  139.9406  161.2034 C   0  0  0  0  0  0  0  0  0  0  0  0
  131.1343  139.2222  160.4450 C   0  0  0  0  0  0  0  0  0  0  0  0
  130.8564  137.9149  160.0920 C   0  0  0  0  0  0  0  0  0  0  0  0
  130.3892  133.9470  157.1305 N   0  0  0  0  0  0  0  0  0  0  0  0
  130.9348  134.4940  156.5441 H   0  0  0  0  0  0  0  0  0  0  0  0
  131.1660  130.6694  155.8967 C   0  0  0  0  0  0  0  0  0  0  0  0
  131.5232  129.9158  154.7972 C   0  0  0  0  0  0  0  0  0  0  0  0
  128.6490  130.0498  151.7400 H   0  0  0  0  0  0  0  0  0  0  0  0
  129.4344  129.6492  150.1937 H   0  0  0  0  0  0  0  0  0  0  0  0
  128.1583  128.5923  150.8439 H   0  0  0  0  0  0  0  0  0  0  0  0
  132.4851  128.9810  152.5364 H   0  0  0  0  0  0  0  0  0  0  0  0
  131.6682  130.1436  151.4644 H   0  0  0  0  0  0  0  0  0  0  0  0
  130.1440  131.7995  152.3580 H   0  0  0  0  0  0  0  0  0  0  0  0
  129.4893  133.1510  154.3066 H   0  0  0  0  0  0  0  0  0  0  0  0
  128.8338  131.2631  158.0668 H   0  0  0  0  0  0  0  0  0  0  0  0
  130.5268  136.2761  158.3710 H   0  0  0  0  0  0  0  0  0  0  0  0
  128.2916  135.7705  160.0218 H   0  0  0  0  0  0  0  0  0  0  0  0
  128.0992  134.9999  162.3183 H   0  0  0  0  0  0  0  0  0  0  0  0
  128.9660  133.4719  164.0436 H   0  0  0  0  0  0  0  0  0  0  0  0
  131.2609  132.5962  163.8723 H   0  0  0  0  0  0  0  0  0  0  0  0
  132.6859  133.2412  161.9704 H   0  0  0  0  0  0  0  0  0  0  0  0
  131.8158  134.7617  160.2402 H   0  0  0  0  0  0  0  0  0  0  0  0
  127.8390  137.5877  161.5636 H   0  0  0  0  0  0  0  0  0  0  0  0
  128.3381  139.9133  162.2006 H   0  0  0  0  0  0  0  0  0  0  0  0
  130.4459  140.9621  161.4789 H   0  0  0  0  0  0  0  0  0  0  0  0
  132.0586  139.6823  160.1283 H   0  0  0  0  0  0  0  0  0  0  0  0
  131.5636  137.3538  159.4992 H   0  0  0  0  0  0  0  0  0  0  0  0
  131.4563  130.3522  156.8875 H   0  0  0  0  0  0  0  0  0  0  0  0
  132.0930  129.0077  154.9283 H   0  0  0  0  0  0  0  0  0  0  0  0
  1  2  1  0
  1 31  1  0
  1 32  1  0
  1 33  1  0
  2  3  1  0
  3  4  1  0
  3 34  1  0
  3 35  1  0
  4 30  2  0
  4  5  1  0
  5  6  2  0
  5 36  1  0
  6  7  1  0
  6 37  1  0
  7  8  1  0
  7 29  2  0
  8 27  1  0
  8  9  2  0
  9 10  1  0
  9 38  1  0
 10 11  1  0
 10 12  1  0
 12 13  1  0
 12 27  2  0
 13 14  1  0
 13 39  1  0
 14 15  1  0
 14 21  1  0
 14 40  1  0
 15 20  1  0
 15 16  2  0
 16 17  1  0
 16 41  1  0
 17 18  2  0
 17 42  1  0
 18 19  1  0
 18 43  1  0
 19 20  2  0
 19 44  1  0
 20 45  1  0
 21 26  1  0
 21 22  2  0
 22 23  1  0
 22 46  1  0
 23 24  2  0
 23 47  1  0
 24 25  1  0
 24 48  1  0
 25 26  2  0
 25 49  1  0
 26 50  1  0
 27 28  1  0
 29 30  1  0
 29 51  1  0
 30 52  1  0
M  CHG  1  27   1
M  END
>  <DOCK_score>  (1) 
-59.929283

>  <SMILES>  (1) 
CSCc1ccc(-c2c[nH]c(NC(c3ccccc3)c3ccccc3)[nH+]2)cc1

$$$$
