Oc1ccc2c(c1)C([N@H+]1CCCC1Cc1ccccn1)c1cc(O)ccc1-2
     RDKit          3D

 50 54  0  0  1  0  0  0  0  0999 V2000
  131.6691  130.8697  155.7468 O   0  0  0  0  0  0  0  0  0  0  0  0
  130.7051  131.2467  156.6272 C   0  0  0  0  0  0  0  0  0  0  0  0
  130.1685  130.3184  157.5089 C   0  0  0  0  0  0  0  0  0  0  0  0
  129.1908  130.6966  158.4039 C   0  0  0  0  0  0  0  0  0  0  0  0
  128.7368  132.0173  158.4262 C   0  0  0  0  0  0  0  0  0  0  0  0
  129.2798  132.9431  157.5388 C   0  0  0  0  0  0  0  0  0  0  0  0
  130.2569  132.5609  156.6456 C   0  0  0  0  0  0  0  0  0  0  0  0
  128.6031  134.2678  157.7931 C   0  0  0  0  0  0  0  0  0  0  0  0
  129.5944  135.2716  158.2027 N   0  0  1  0  0  0  0  0  0  0  0  0
  130.4398  135.1687  157.6615 H   0  0  0  0  0  0  0  0  0  0  0  0
  129.0422  136.6329  158.0318 C   0  0  0  0  0  0  0  0  0  0  0  0
  129.5919  137.4916  159.1859 C   0  0  0  0  0  0  0  0  0  0  0  0
  130.4565  136.5289  160.0320 C   0  0  0  0  0  0  0  0  0  0  0  0
  129.8935  135.1348  159.6510 C   0  0  2  0  0  0  0  0  0  0  0  0
  130.9395  134.0431  159.8857 C   0  0  0  0  0  0  0  0  0  0  0  0
  131.2767  133.9776  161.3529 C   0  0  0  0  0  0  0  0  0  0  0  0
  130.5563  133.1389  162.1827 C   0  0  0  0  0  0  0  0  0  0  0  0
  130.8749  133.0857  163.5308 C   0  0  0  0  0  0  0  0  0  0  0  0
  131.9107  133.8817  163.9962 C   0  0  0  0  0  0  0  0  0  0  0  0
  132.5861  134.6957  163.1070 C   0  0  0  0  0  0  0  0  0  0  0  0
  132.2590  134.7169  161.8296 N   0  0  0  0  0  0  0  0  0  0  0  0
  127.6164  134.0262  158.9093 C   0  0  0  0  0  0  0  0  0  0  0  0
  126.7279  134.8592  159.5534 C   0  0  0  0  0  0  0  0  0  0  0  0
  125.9213  134.3620  160.5687 C   0  0  0  0  0  0  0  0  0  0  0  0
  125.0445  135.1831  161.2038 O   0  0  0  0  0  0  0  0  0  0  0  0
  126.0110  133.0257  160.9343 C   0  0  0  0  0  0  0  0  0  0  0  0
  126.9018  132.1867  160.2923 C   0  0  0  0  0  0  0  0  0  0  0  0
  127.7137  132.6831  159.2701 C   0  0  0  0  0  0  0  0  0  0  0  0
  131.9810  131.5844  155.1750 H   0  0  0  0  0  0  0  0  0  0  0  0
  130.5176  129.2965  157.4931 H   0  0  0  0  0  0  0  0  0  0  0  0
  128.7760  129.9716  159.0883 H   0  0  0  0  0  0  0  0  0  0  0  0
  130.6739  133.2834  155.9597 H   0  0  0  0  0  0  0  0  0  0  0  0
  128.0809  134.6008  156.8962 H   0  0  0  0  0  0  0  0  0  0  0  0
  127.9537  136.6008  158.0788 H   0  0  0  0  0  0  0  0  0  0  0  0
  129.3602  137.0486  157.0756 H   0  0  0  0  0  0  0  0  0  0  0  0
  130.2035  138.3045  158.7946 H   0  0  0  0  0  0  0  0  0  0  0  0
  128.7727  137.8898  159.7846 H   0  0  0  0  0  0  0  0  0  0  0  0
  131.5074  136.6093  159.7542 H   0  0  0  0  0  0  0  0  0  0  0  0
  130.3216  136.7236  161.0960 H   0  0  0  0  0  0  0  0  0  0  0  0
  128.9843  134.9219  160.2133 H   0  0  0  0  0  0  0  0  0  0  0  0
  130.5405  133.0820  159.5614 H   0  0  0  0  0  0  0  0  0  0  0  0
  131.8396  134.2738  159.3159 H   0  0  0  0  0  0  0  0  0  0  0  0
  129.7553  132.5330  161.7859 H   0  0  0  0  0  0  0  0  0  0  0  0
  130.3290  132.4401  164.2028 H   0  0  0  0  0  0  0  0  0  0  0  0
  132.1862  133.8655  165.0403 H   0  0  0  0  0  0  0  0  0  0  0  0
  133.3940  135.3186  163.4615 H   0  0  0  0  0  0  0  0  0  0  0  0
  126.6586  135.8986  159.2689 H   0  0  0  0  0  0  0  0  0  0  0  0
  125.0539  136.0943  160.8803 H   0  0  0  0  0  0  0  0  0  0  0  0
  125.3836  132.6405  161.7243 H   0  0  0  0  0  0  0  0  0  0  0  0
  126.9688  131.1474  160.5782 H   0  0  0  0  0  0  0  0  0  0  0  0
  1  2  1  0
  1 29  1  0
  2  7  2  0
  2  3  1  0
  3  4  2  0
  3 30  1  0
  4  5  1  0
  4 31  1  0
  5 28  1  0
  5  6  2  0
  6  7  1  0
  6  8  1  0
  7 32  1  0
  8  9  1  0
  8 22  1  0
  8 33  1  0
  9 10  1  6
  9 14  1  0
  9 11  1  0
 11 12  1  0
 11 34  1  0
 11 35  1  0
 12 13  1  0
 12 36  1  0
 12 37  1  0
 13 14  1  0
 13 38  1  0
 13 39  1  0
 14 15  1  0
 14 40  1  1
 15 16  1  0
 15 41  1  0
 15 42  1  0
 16 21  1  0
 16 17  2  0
 17 18  1  0
 17 43  1  0
 18 19  2  0
 18 44  1  0
 19 20  1  0
 19 45  1  0
 20 21  2  0
 20 46  1  0
 22 28  2  0
 22 23  1  0
 23 24  2  0
 23 47  1  0
 24 25  1  0
 24 26  1  0
 25 48  1  0
 26 27  2  0
 26 49  1  0
 27 28  1  0
 27 50  1  0
M  CHG  1   9   1
M  END
>  <DOCK_score>  (1) 
-45.09671

>  <SMILES>  (1) 
Oc1ccc2c(c1)C([N@H+]1CCCC1Cc1ccccn1)c1cc(O)ccc1-2

$$$$
