C[C@@H]([NH2+]CCC1CCC=C1c1cc(CO)ccc1O)c1nc2cccnc2[nH]1
     RDKit          3D

 55 58  0  0  1  0  0  0  0  0999 V2000
  130.6093  137.1971  160.6897 C   0  0  0  0  0  0  0  0  0  0  0  0
  131.9725  136.5597  160.9661 C   0  0  1  0  0  0  0  0  0  0  0  0
  131.9536  136.0694  161.9393 H   0  0  0  0  0  0  0  0  0  0  0  0
  132.2697  135.5680  159.9239 N   0  0  0  0  0  0  0  0  0  0  0  0
  133.2627  135.3902  159.9021 H   0  0  0  0  0  0  0  0  0  0  0  0
  131.9721  135.9228  159.0274 H   0  0  0  0  0  0  0  0  0  0  0  0
  131.5548  134.3190  160.2181 C   0  0  0  0  0  0  0  0  0  0  0  0
  131.8643  133.2862  159.1326 C   0  0  0  0  0  0  0  0  0  0  0  0
  131.1196  131.9853  159.4391 C   0  0  2  0  0  0  0  0  0  0  0  0
  131.3226  130.9616  158.2962 C   0  0  0  0  0  0  0  0  0  0  0  0
  130.0825  131.2324  157.4140 C   0  0  0  0  0  0  0  0  0  0  0  0
  129.0570  131.8168  158.3577 C   0  0  0  0  0  0  0  0  0  0  0  0
  129.6288  132.2289  159.4763 C   0  0  0  0  0  0  0  0  0  0  0  0
  128.9083  132.8494  160.6071 C   0  0  0  0  0  0  0  0  0  0  0  0
  127.7516  133.5947  160.3772 C   0  0  0  0  0  0  0  0  0  0  0  0
  127.0832  134.1719  161.4370 C   0  0  0  0  0  0  0  0  0  0  0  0
  125.8336  134.9764  161.1877 C   0  0  0  0  0  0  0  0  0  0  0  0
  125.8865  136.1862  161.9464 O   0  0  0  0  0  0  0  0  0  0  0  0
  127.5561  134.0149  162.7286 C   0  0  0  0  0  0  0  0  0  0  0  0
  128.7003  133.2784  162.9685 C   0  0  0  0  0  0  0  0  0  0  0  0
  129.3859  132.6970  161.9142 C   0  0  0  0  0  0  0  0  0  0  0  0
  130.5142  131.9779  162.1485 O   0  0  0  0  0  0  0  0  0  0  0  0
  133.0363  137.6272  160.9618 C   0  0  0  0  0  0  0  0  0  0  0  0
  133.3158  138.3969  159.9508 N   0  0  0  0  0  0  0  0  0  0  0  0
  134.3221  139.2415  160.2893 C   0  0  0  0  0  0  0  0  0  0  0  0
  135.0057  140.2555  159.6114 C   0  0  0  0  0  0  0  0  0  0  0  0
  136.0050  140.9314  160.2851 C   0  0  0  0  0  0  0  0  0  0  0  0
  136.2977  140.5898  161.5963 C   0  0  0  0  0  0  0  0  0  0  0  0
  135.6417  139.6317  162.2174 N   0  0  0  0  0  0  0  0  0  0  0  0
  134.6761  138.9523  161.6192 C   0  0  0  0  0  0  0  0  0  0  0  0
  133.8408  137.9307  162.0169 N   0  0  0  0  0  0  0  0  0  0  0  0
  133.8300  137.5045  162.8881 H   0  0  0  0  0  0  0  0  0  0  0  0
  129.8400  136.4250  160.6927 H   0  0  0  0  0  0  0  0  0  0  0  0
  130.3888  137.9328  161.4630 H   0  0  0  0  0  0  0  0  0  0  0  0
  130.6281  137.6874  159.7164 H   0  0  0  0  0  0  0  0  0  0  0  0
  130.4822  134.5112  160.2415 H   0  0  0  0  0  0  0  0  0  0  0  0
  131.8764  133.9358  161.1865 H   0  0  0  0  0  0  0  0  0  0  0  0
  132.9370  133.0940  159.1091 H   0  0  0  0  0  0  0  0  0  0  0  0
  131.5427  133.6694  158.1642 H   0  0  0  0  0  0  0  0  0  0  0  0
  131.4594  131.5668  160.3864 H   0  0  0  0  0  0  0  0  0  0  0  0
  131.3161  129.9398  158.6759 H   0  0  0  0  0  0  0  0  0  0  0  0
  132.2431  131.1671  157.7497 H   0  0  0  0  0  0  0  0  0  0  0  0
  129.7137  130.3020  156.9820 H   0  0  0  0  0  0  0  0  0  0  0  0
  130.3250  131.9469  156.6276 H   0  0  0  0  0  0  0  0  0  0  0  0
  128.0002  131.8885  158.1467 H   0  0  0  0  0  0  0  0  0  0  0  0
  127.3799  133.7194  159.3709 H   0  0  0  0  0  0  0  0  0  0  0  0
  125.7612  135.2157  160.1268 H   0  0  0  0  0  0  0  0  0  0  0  0
  124.9617  134.3960  161.4897 H   0  0  0  0  0  0  0  0  0  0  0  0
  125.1125  136.7549  161.8344 H   0  0  0  0  0  0  0  0  0  0  0  0
  127.0266  134.4691  163.5531 H   0  0  0  0  0  0  0  0  0  0  0  0
  129.0635  133.1601  163.9787 H   0  0  0  0  0  0  0  0  0  0  0  0
  130.7634  131.9299  163.0815 H   0  0  0  0  0  0  0  0  0  0  0  0
  134.7594  140.5040  158.5896 H   0  0  0  0  0  0  0  0  0  0  0  0
  136.5541  141.7209  159.7935 H   0  0  0  0  0  0  0  0  0  0  0  0
  137.0794  141.1204  162.1192 H   0  0  0  0  0  0  0  0  0  0  0  0
  1  2  1  0
  1 33  1  0
  1 34  1  0
  1 35  1  0
  2  3  1  1
  2  4  1  0
  2 23  1  0
  4  5  1  0
  4  6  1  0
  4  7  1  0
  7  8  1  0
  7 36  1  0
  7 37  1  0
  8  9  1  0
  8 38  1  0
  8 39  1  0
  9 13  1  0
  9 10  1  0
  9 40  1  1
 10 11  1  0
 10 41  1  0
 10 42  1  0
 11 12  1  0
 11 43  1  0
 11 44  1  0
 12 13  2  0
 12 45  1  0
 13 14  1  0
 14 21  1  0
 14 15  2  0
 15 16  1  0
 15 46  1  0
 16 17  1  0
 16 19  2  0
 17 18  1  0
 17 47  1  0
 17 48  1  0
 18 49  1  0
 19 20  1  0
 19 50  1  0
 20 21  2  0
 20 51  1  0
 21 22  1  0
 22 52  1  0
 23 31  1  0
 23 24  2  0
 24 25  1  0
 25 30  2  0
 25 26  1  0
 26 27  2  0
 26 53  1  0
 27 28  1  0
 27 54  1  0
 28 29  2  0
 28 55  1  0
 29 30  1  0
 30 31  1  0
 31 32  1  0
M  CHG  1   4   1
M  END
>  <DOCK_score>  (1) 
-47.195316

>  <SMILES>  (1) 
C[C@@H]([NH2+]CCC1CCC=C1c1cc(CO)ccc1O)c1nc2cccnc2[nH]1

$$$$
