Nc1ccc(-c2c[nH]c(N[C@@H](Cc3ccccc3)C3CC3)[nH+]2)cc1
     RDKit          3D

 47 50  0  0  1  0  0  0  0  0999 V2000
  131.0825  129.7863  151.0808 N   0  0  0  0  0  0  0  0  0  0  0  0
  130.8722  130.3987  152.3186 C   0  0  0  0  0  0  0  0  0  0  0  0
  130.5479  131.7490  152.3790 C   0  0  0  0  0  0  0  0  0  0  0  0
  130.3402  132.3552  153.5999 C   0  0  0  0  0  0  0  0  0  0  0  0
  130.4554  131.6128  154.7742 C   0  0  0  0  0  0  0  0  0  0  0  0
  130.2324  132.2628  156.0890 C   0  0  0  0  0  0  0  0  0  0  0  0
  129.7529  131.6611  157.2054 C   0  0  0  0  0  0  0  0  0  0  0  0
  129.7114  132.6207  158.1890 N   0  0  0  0  0  0  0  0  0  0  0  0
  129.4158  132.4933  159.1041 H   0  0  0  0  0  0  0  0  0  0  0  0
  130.1583  133.7831  157.6406 C   0  0  0  0  0  0  0  0  0  0  0  0
  130.2693  134.9954  158.3000 N   0  0  0  0  0  0  0  0  0  0  0  0
  129.3543  135.3189  159.3974 C   0  0  1  0  0  0  0  0  0  0  0  0
  129.1909  134.4306  160.0079 H   0  0  0  0  0  0  0  0  0  0  0  0
  129.9639  136.4255  160.2603 C   0  0  0  0  0  0  0  0  0  0  0  0
  130.9818  135.8285  161.1976 C   0  0  0  0  0  0  0  0  0  0  0  0
  130.5936  135.3852  162.4482 C   0  0  0  0  0  0  0  0  0  0  0  0
  131.5272  134.8371  163.3078 C   0  0  0  0  0  0  0  0  0  0  0  0
  132.8492  134.7336  162.9174 C   0  0  0  0  0  0  0  0  0  0  0  0
  133.2373  135.1765  161.6667 C   0  0  0  0  0  0  0  0  0  0  0  0
  132.3035  135.7238  160.8068 C   0  0  0  0  0  0  0  0  0  0  0  0
  128.0187  135.7964  158.8241 C   0  0  0  0  0  0  0  0  0  0  0  0
  126.7549  135.4956  159.6324 C   0  0  0  0  0  0  0  0  0  0  0  0
  127.0366  134.7289  158.3377 C   0  0  0  0  0  0  0  0  0  0  0  0
  130.4719  133.5644  156.3868 N   0  0  0  0  0  0  0  0  0  0  0  0
  130.8198  134.2275  155.7703 H   0  0  0  0  0  0  0  0  0  0  0  0
  130.7860  130.2600  154.7115 C   0  0  0  0  0  0  0  0  0  0  0  0
  130.9872  129.6565  153.4879 C   0  0  0  0  0  0  0  0  0  0  0  0
  131.0024  130.3042  150.2639 H   0  0  0  0  0  0  0  0  0  0  0  0
  131.3091  128.8446  151.0376 H   0  0  0  0  0  0  0  0  0  0  0  0
  130.4589  132.3238  151.4691 H   0  0  0  0  0  0  0  0  0  0  0  0
  130.0883  133.4044  153.6465 H   0  0  0  0  0  0  0  0  0  0  0  0
  129.4635  130.6252  157.3043 H   0  0  0  0  0  0  0  0  0  0  0  0
  130.9527  135.6306  158.0351 H   0  0  0  0  0  0  0  0  0  0  0  0
  129.1774  136.9101  160.8388 H   0  0  0  0  0  0  0  0  0  0  0  0
  130.4486  137.1612  159.6184 H   0  0  0  0  0  0  0  0  0  0  0  0
  129.5617  135.4711  162.7553 H   0  0  0  0  0  0  0  0  0  0  0  0
  131.2239  134.4910  164.2848 H   0  0  0  0  0  0  0  0  0  0  0  0
  133.5786  134.3055  163.5890 H   0  0  0  0  0  0  0  0  0  0  0  0
  134.2700  135.0947  161.3614 H   0  0  0  0  0  0  0  0  0  0  0  0
  132.6068  136.0698  159.8297 H   0  0  0  0  0  0  0  0  0  0  0  0
  128.0526  136.7371  158.2745 H   0  0  0  0  0  0  0  0  0  0  0  0
  126.8750  134.9574  160.5724 H   0  0  0  0  0  0  0  0  0  0  0  0
  125.9571  136.2381  159.6140 H   0  0  0  0  0  0  0  0  0  0  0  0
  126.4239  134.9674  157.4682 H   0  0  0  0  0  0  0  0  0  0  0  0
  127.3421  133.6863  158.4258 H   0  0  0  0  0  0  0  0  0  0  0  0
  130.8805  129.6841  155.6201 H   0  0  0  0  0  0  0  0  0  0  0  0
  131.2391  128.6076  153.4387 H   0  0  0  0  0  0  0  0  0  0  0  0
  1  2  1  0
  1 28  1  0
  1 29  1  0
  2 27  2  0
  2  3  1  0
  3  4  2  0
  3 30  1  0
  4  5  1  0
  4 31  1  0
  5  6  1  0
  5 26  2  0
  6 24  1  0
  6  7  2  0
  7  8  1  0
  7 32  1  0
  8  9  1  0
  8 10  1  0
 10 11  1  0
 10 24  2  0
 11 12  1  0
 11 33  1  0
 12 13  1  1
 12 14  1  0
 12 21  1  0
 14 15  1  0
 14 34  1  0
 14 35  1  0
 15 20  1  0
 15 16  2  0
 16 17  1  0
 16 36  1  0
 17 18  2  0
 17 37  1  0
 18 19  1  0
 18 38  1  0
 19 20  2  0
 19 39  1  0
 20 40  1  0
 21 23  1  0
 21 22  1  0
 21 41  1  0
 22 23  1  0
 22 42  1  0
 22 43  1  0
 23 44  1  0
 23 45  1  0
 24 25  1  0
 26 27  1  0
 26 46  1  0
 27 47  1  0
M  CHG  1  24   1
M  END
>  <DOCK_score>  (1) 
-57.675812

>  <SMILES>  (1) 
Nc1ccc(-c2c[nH]c(N[C@@H](Cc3ccccc3)C3CC3)[nH+]2)cc1

$$$$
