CCc1ccc(-c2ccc(-c3c[nH]c(NC4c5cc(O)ccc5-c5ccc(O)cc54)[nH+]3)cc2)cc1
     RDKit          3D

 61 66  0  0  1  0  0  0  0  0999 V2000
  137.0798  141.5497  167.4343 C   0  0  0  0  0  0  0  0  0  0  0  0
  136.2740  142.5843  166.6464 C   0  0  0  0  0  0  0  0  0  0  0  0
  135.4314  141.8834  165.6120 C   0  0  0  0  0  0  0  0  0  0  0  0
  134.1509  141.4693  165.9319 C   0  0  0  0  0  0  0  0  0  0  0  0
  133.3728  140.8320  164.9870 C   0  0  0  0  0  0  0  0  0  0  0  0
  133.8833  140.5954  163.7120 C   0  0  0  0  0  0  0  0  0  0  0  0
  133.0536  139.9061  162.6945 C   0  0  0  0  0  0  0  0  0  0  0  0
  133.2276  140.1952  161.3409 C   0  0  0  0  0  0  0  0  0  0  0  0
  132.4609  139.5511  160.3951 C   0  0  0  0  0  0  0  0  0  0  0  0
  131.5035  138.6174  160.7915 C   0  0  0  0  0  0  0  0  0  0  0  0
  130.6744  137.9282  159.7740 C   0  0  0  0  0  0  0  0  0  0  0  0
  130.2944  138.4374  158.5753 C   0  0  0  0  0  0  0  0  0  0  0  0
  129.5434  137.4711  157.9519 N   0  0  0  0  0  0  0  0  0  0  0  0
  129.1311  137.5397  157.0766 H   0  0  0  0  0  0  0  0  0  0  0  0
  129.4793  136.4018  158.7914 C   0  0  0  0  0  0  0  0  0  0  0  0
  128.8095  135.2170  158.5383 N   0  0  0  0  0  0  0  0  0  0  0  0
  128.8213  134.1418  159.5332 C   0  0  0  0  0  0  0  0  0  0  0  0
  129.3652  132.8738  158.9216 C   0  0  0  0  0  0  0  0  0  0  0  0
  130.5829  132.5673  158.3566 C   0  0  0  0  0  0  0  0  0  0  0  0
  130.8180  131.2918  157.8611 C   0  0  0  0  0  0  0  0  0  0  0  0
  132.0202  130.9898  157.3044 O   0  0  0  0  0  0  0  0  0  0  0  0
  129.8240  130.3251  157.9342 C   0  0  0  0  0  0  0  0  0  0  0  0
  128.6030  130.6275  158.4972 C   0  0  0  0  0  0  0  0  0  0  0  0
  128.3619  131.9091  158.9975 C   0  0  0  0  0  0  0  0  0  0  0  0
  127.1613  132.4942  159.6440 C   0  0  0  0  0  0  0  0  0  0  0  0
  125.9159  131.9369  159.9435 C   0  0  0  0  0  0  0  0  0  0  0  0
  124.9478  132.7015  160.5576 C   0  0  0  0  0  0  0  0  0  0  0  0
  125.2056  134.0268  160.8815 C   0  0  0  0  0  0  0  0  0  0  0  0
  124.2484  134.7771  161.4874 O   0  0  0  0  0  0  0  0  0  0  0  0
  126.4421  134.5851  160.5861 C   0  0  0  0  0  0  0  0  0  0  0  0
  127.4127  133.8240  159.9717 C   0  0  0  0  0  0  0  0  0  0  0  0
  130.1562  136.6785  159.8790 N   0  0  0  0  0  0  0  0  0  0  0  0
  130.2688  136.0848  160.6379 H   0  0  0  0  0  0  0  0  0  0  0  0
  131.3267  138.3317  162.1453 C   0  0  0  0  0  0  0  0  0  0  0  0
  132.0976  138.9716  163.0904 C   0  0  0  0  0  0  0  0  0  0  0  0
  135.1767  141.0097  163.3970 C   0  0  0  0  0  0  0  0  0  0  0  0
  135.9435  141.6515  164.3481 C   0  0  0  0  0  0  0  0  0  0  0  0
  137.7264  140.9969  166.7527 H   0  0  0  0  0  0  0  0  0  0  0  0
  136.3979  140.8580  167.9291 H   0  0  0  0  0  0  0  0  0  0  0  0
  137.6893  142.0567  168.1824 H   0  0  0  0  0  0  0  0  0  0  0  0
  135.6273  143.1370  167.3279 H   0  0  0  0  0  0  0  0  0  0  0  0
  136.9558  143.2758  166.1515 H   0  0  0  0  0  0  0  0  0  0  0  0
  133.7579  141.6487  166.9217 H   0  0  0  0  0  0  0  0  0  0  0  0
  132.3716  140.5128  165.2366 H   0  0  0  0  0  0  0  0  0  0  0  0
  133.9658  140.9214  161.0343 H   0  0  0  0  0  0  0  0  0  0  0  0
  132.5977  139.7728  159.3469 H   0  0  0  0  0  0  0  0  0  0  0  0
  130.5378  139.4146  158.1849 H   0  0  0  0  0  0  0  0  0  0  0  0
  128.3324  135.0988  157.7021 H   0  0  0  0  0  0  0  0  0  0  0  0
  129.4252  134.4328  160.3926 H   0  0  0  0  0  0  0  0  0  0  0  0
  131.3557  133.3196  158.2999 H   0  0  0  0  0  0  0  0  0  0  0  0
  132.6469  131.7262  157.2982 H   0  0  0  0  0  0  0  0  0  0  0  0
  130.0082  129.3333  157.5485 H   0  0  0  0  0  0  0  0  0  0  0  0
  127.8323  129.8728  158.5519 H   0  0  0  0  0  0  0  0  0  0  0  0
  125.7115  130.9063  159.6933 H   0  0  0  0  0  0  0  0  0  0  0  0
  123.9857  132.2684  160.7882 H   0  0  0  0  0  0  0  0  0  0  0  0
  124.5203  135.6863  161.6731 H   0  0  0  0  0  0  0  0  0  0  0  0
  126.6429  135.6161  160.8375 H   0  0  0  0  0  0  0  0  0  0  0  0
  130.5853  137.6089  162.4524 H   0  0  0  0  0  0  0  0  0  0  0  0
  131.9607  138.7504  164.1387 H   0  0  0  0  0  0  0  0  0  0  0  0
  135.5777  140.8286  162.4108 H   0  0  0  0  0  0  0  0  0  0  0  0
  136.9455  141.9731  164.1052 H   0  0  0  0  0  0  0  0  0  0  0  0
  1  2  1  0
  1 38  1  0
  1 39  1  0
  1 40  1  0
  2  3  1  0
  2 41  1  0
  2 42  1  0
  3 37  2  0
  3  4  1  0
  4  5  2  0
  4 43  1  0
  5  6  1  0
  5 44  1  0
  6  7  1  0
  6 36  2  0
  7 35  1  0
  7  8  2  0
  8  9  1  0
  8 45  1  0
  9 10  2  0
  9 46  1  0
 10 11  1  0
 10 34  1  0
 11 32  1  0
 11 12  2  0
 12 13  1  0
 12 47  1  0
 13 14  1  0
 13 15  1  0
 15 16  1  0
 15 32  2  0
 16 17  1  0
 16 48  1  0
 17 31  1  0
 17 18  1  0
 17 49  1  0
 18 24  1  0
 18 19  2  0
 19 20  1  0
 19 50  1  0
 20 21  1  0
 20 22  2  0
 21 51  1  0
 22 23  1  0
 22 52  1  0
 23 24  2  0
 23 53  1  0
 24 25  1  0
 25 31  2  0
 25 26  1  0
 26 27  2  0
 26 54  1  0
 27 28  1  0
 27 55  1  0
 28 29  1  0
 28 30  2  0
 29 56  1  0
 30 31  1  0
 30 57  1  0
 32 33  1  0
 34 35  2  0
 34 58  1  0
 35 59  1  0
 36 37  1  0
 36 60  1  0
 37 61  1  0
M  CHG  1  32   1
M  END
>  <DOCK_score>  (1) 
-45.972763

>  <SMILES>  (1) 
CCc1ccc(-c2ccc(-c3c[nH]c(NC4c5cc(O)ccc5-c5ccc(O)cc54)[nH+]3)cc2)cc1

$$$$
