CC=C(CC)C[C@@H](Nc1[nH]cc(-c2ccc(CC)cc2)[nH+]1)c1ccnn1C
     RDKit          3D

 57 59  0  0  1  0  0  0  0  0999 V2000
  126.3208  134.0469  160.0228 C   0  0  0  0  0  0  0  0  0  0  0  0
  127.7212  134.4879  160.3632 C   0  0  0  0  0  0  0  0  0  0  0  0
  128.2795  135.4677  159.6967 C   0  0  0  0  0  0  0  0  0  0  0  0
  127.5215  136.1540  158.5897 C   0  0  0  0  0  0  0  0  0  0  0  0
  127.7944  135.4385  157.2651 C   0  0  0  0  0  0  0  0  0  0  0  0
  129.6799  135.9086  160.0371 C   0  0  0  0  0  0  0  0  0  0  0  0
  130.6440  134.7359  159.8474 C   0  0  1  0  0  0  0  0  0  0  0  0
  130.1766  133.8193  160.2075 H   0  0  0  0  0  0  0  0  0  0  0  0
  130.9662  134.5937  158.4253 N   0  0  0  0  0  0  0  0  0  0  0  0
  130.6665  133.4161  157.7620 C   0  0  0  0  0  0  0  0  0  0  0  0
  130.0804  132.3206  158.3174 N   0  0  0  0  0  0  0  0  0  0  0  0
  129.7998  132.2252  159.2410 H   0  0  0  0  0  0  0  0  0  0  0  0
  129.9592  131.3748  157.3285 C   0  0  0  0  0  0  0  0  0  0  0  0
  130.4742  131.9192  156.1982 C   0  0  0  0  0  0  0  0  0  0  0  0
  130.5578  131.2606  154.8717 C   0  0  0  0  0  0  0  0  0  0  0  0
  129.9146  131.8223  153.7701 C   0  0  0  0  0  0  0  0  0  0  0  0
  129.9962  131.2054  152.5383 C   0  0  0  0  0  0  0  0  0  0  0  0
  130.7148  130.0316  152.3959 C   0  0  0  0  0  0  0  0  0  0  0  0
  130.8003  129.3625  151.0483 C   0  0  0  0  0  0  0  0  0  0  0  0
  129.6389  128.3788  150.8926 C   0  0  0  0  0  0  0  0  0  0  0  0
  131.3503  129.4670  153.4866 C   0  0  0  0  0  0  0  0  0  0  0  0
  131.2802  130.0782  154.7221 C   0  0  0  0  0  0  0  0  0  0  0  0
  130.9049  133.1706  156.4968 N   0  0  0  0  0  0  0  0  0  0  0  0
  131.3209  133.7861  155.8731 H   0  0  0  0  0  0  0  0  0  0  0  0
  131.9084  134.9942  160.6256 C   0  0  0  0  0  0  0  0  0  0  0  0
  132.7506  136.0396  160.4551 C   0  0  0  0  0  0  0  0  0  0  0  0
  133.7952  135.9052  161.3756 C   0  0  0  0  0  0  0  0  0  0  0  0
  133.5917  134.8140  162.0682 N   0  0  0  0  0  0  0  0  0  0  0  0
  132.4067  134.2214  161.6132 N   0  0  0  0  0  0  0  0  0  0  0  0
  131.8135  132.9813  162.1198 C   0  0  0  0  0  0  0  0  0  0  0  0
  125.6339  134.8823  160.1580 H   0  0  0  0  0  0  0  0  0  0  0  0
  126.2870  133.7129  158.9858 H   0  0  0  0  0  0  0  0  0  0  0  0
  126.0288  133.2265  160.6784 H   0  0  0  0  0  0  0  0  0  0  0  0
  128.2644  133.9959  161.1564 H   0  0  0  0  0  0  0  0  0  0  0  0
  126.4538  136.1223  158.8066 H   0  0  0  0  0  0  0  0  0  0  0  0
  127.8468  137.1917  158.5157 H   0  0  0  0  0  0  0  0  0  0  0  0
  127.2461  135.9348  156.4644 H   0  0  0  0  0  0  0  0  0  0  0  0
  128.8620  135.4701  157.0482 H   0  0  0  0  0  0  0  0  0  0  0  0
  127.4692  134.4007  157.3391 H   0  0  0  0  0  0  0  0  0  0  0  0
  129.7135  136.2425  161.0741 H   0  0  0  0  0  0  0  0  0  0  0  0
  129.9719  136.7288  159.3815 H   0  0  0  0  0  0  0  0  0  0  0  0
  131.3896  135.3248  157.9486 H   0  0  0  0  0  0  0  0  0  0  0  0
  129.5348  130.3872  157.4313 H   0  0  0  0  0  0  0  0  0  0  0  0
  129.3532  132.7383  153.8804 H   0  0  0  0  0  0  0  0  0  0  0  0
  129.4979  131.6397  151.6841 H   0  0  0  0  0  0  0  0  0  0  0  0
  131.7450  128.8260  150.9681 H   0  0  0  0  0  0  0  0  0  0  0  0
  130.7437  130.1180  150.2635 H   0  0  0  0  0  0  0  0  0  0  0  0
  129.6951  127.6240  151.6770 H   0  0  0  0  0  0  0  0  0  0  0  0
  128.6939  128.9160  150.9724 H   0  0  0  0  0  0  0  0  0  0  0  0
  129.7008  127.8951  149.9178 H   0  0  0  0  0  0  0  0  0  0  0  0
  131.9058  128.5482  153.3705 H   0  0  0  0  0  0  0  0  0  0  0  0
  131.7807  129.6387  155.5723 H   0  0  0  0  0  0  0  0  0  0  0  0
  132.6354  136.8378  159.7369 H   0  0  0  0  0  0  0  0  0  0  0  0
  134.6279  136.5829  161.4918 H   0  0  0  0  0  0  0  0  0  0  0  0
  132.2020  132.1349  161.5534 H   0  0  0  0  0  0  0  0  0  0  0  0
  132.0672  132.8610  163.1729 H   0  0  0  0  0  0  0  0  0  0  0  0
  130.7299  133.0254  162.0098 H   0  0  0  0  0  0  0  0  0  0  0  0
  1  2  1  0
  1 31  1  0
  1 32  1  0
  1 33  1  0
  2  3  2  0
  2 34  1  0
  3  4  1  0
  3  6  1  0
  4  5  1  0
  4 35  1  0
  4 36  1  0
  5 37  1  0
  5 38  1  0
  5 39  1  0
  6  7  1  0
  6 40  1  0
  6 41  1  0
  7  8  1  1
  7  9  1  0
  7 25  1  0
  9 42  1  0
 10  9  1  0
 10 23  2  0
 10 11  1  0
 11 12  1  0
 11 13  1  0
 13 14  2  0
 13 43  1  0
 14 15  1  0
 14 23  1  0
 15 22  1  0
 15 16  2  0
 16 17  1  0
 16 44  1  0
 17 18  2  0
 17 45  1  0
 18 19  1  0
 18 21  1  0
 19 20  1  0
 19 46  1  0
 19 47  1  0
 20 48  1  0
 20 49  1  0
 20 50  1  0
 21 22  2  0
 21 51  1  0
 22 52  1  0
 23 24  1  0
 25 29  1  0
 25 26  2  0
 26 27  1  0
 26 53  1  0
 27 28  2  0
 27 54  1  0
 28 29  1  0
 29 30  1  0
 30 55  1  0
 30 56  1  0
 30 57  1  0
M  CHG  1  23   1
M  END
>  <DOCK_score>  (1) 
-58.016853

>  <SMILES>  (1) 
CC=C(CC)C[C@@H](Nc1[nH]cc(-c2ccc(CC)cc2)[nH+]1)c1ccnn1C

$$$$
