CC(Cc1ccccc1Cl)NC(N[C@H]1CCC(=O)NC1)=[NH+]C(C)c1nnc[nH]1
     RDKit          3D

 55 57  0  0  1  0  0  0  0  0999 V2000
  131.4543  132.8024  160.7227 C   0  0  0  0  0  0  0  0  0  0  0  0
  130.6011  133.4477  159.6287 C   0  0  1  0  0  0  0  0  0  0  0  0
  129.6754  132.3946  159.0162 C   0  0  0  0  0  0  0  0  0  0  0  0
  130.4456  131.5678  158.0191 C   0  0  0  0  0  0  0  0  0  0  0  0
  131.0937  130.4174  158.4287 C   0  0  0  0  0  0  0  0  0  0  0  0
  131.8004  129.6592  157.5144 C   0  0  0  0  0  0  0  0  0  0  0  0
  131.8600  130.0509  156.1897 C   0  0  0  0  0  0  0  0  0  0  0  0
  131.2123  131.2004  155.7790 C   0  0  0  0  0  0  0  0  0  0  0  0
  130.4997  131.9567  156.6927 C   0  0  0  0  0  0  0  0  0  0  0  0
  129.6798  133.3971  156.1762 Cl  0  0  0  0  0  0  0  0  0  0  0  0
  129.7972  134.5263  160.2089 N   0  0  0  0  0  0  0  0  0  0  0  0
  130.4151  135.5916  160.8200 C   0  0  0  0  0  0  0  0  0  0  0  0
  129.7891  136.2497  161.8521 N   0  0  0  0  0  0  0  0  0  0  0  0
  128.4639  135.8156  162.3009 C   0  0  1  0  0  0  0  0  0  0  0  0
  128.3548  134.7438  162.1359 H   0  0  0  0  0  0  0  0  0  0  0  0
  128.2973  136.1297  163.7926 C   0  0  0  0  0  0  0  0  0  0  0  0
  126.9859  135.5055  164.2752 C   0  0  0  0  0  0  0  0  0  0  0  0
  125.8717  135.8668  163.3355 C   0  0  0  0  0  0  0  0  0  0  0  0
  124.7296  135.7386  163.7229 O   0  0  0  0  0  0  0  0  0  0  0  0
  126.0708  136.3210  162.0975 N   0  0  0  0  0  0  0  0  0  0  0  0
  127.3858  136.5673  161.5190 C   0  0  0  0  0  0  0  0  0  0  0  0
  131.5941  135.9778  160.4209 N   0  0  0  0  0  0  0  0  0  0  0  0
  132.0359  135.5135  159.6927 H   0  0  0  0  0  0  0  0  0  0  0  0
  132.2525  137.1130  161.0722 C   0  0  1  0  0  0  0  0  0  0  0  0
  133.6144  137.3563  160.4188 C   0  0  0  0  0  0  0  0  0  0  0  0
  131.3963  138.3439  160.9221 C   0  0  0  0  0  0  0  0  0  0  0  0
  130.8876  139.0552  161.8912 N   0  0  0  0  0  0  0  0  0  0  0  0
  130.2125  140.0341  161.4013 N   0  0  0  0  0  0  0  0  0  0  0  0
  130.2597  139.9916  160.0978 C   0  0  0  0  0  0  0  0  0  0  0  0
  131.0164  138.9208  159.7565 N   0  0  0  0  0  0  0  0  0  0  0  0
  131.2394  138.6258  158.8597 H   0  0  0  0  0  0  0  0  0  0  0  0
  132.3308  132.3365  160.2724 H   0  0  0  0  0  0  0  0  0  0  0  0
  131.7728  133.5656  161.4326 H   0  0  0  0  0  0  0  0  0  0  0  0
  130.8669  132.0453  161.2423 H   0  0  0  0  0  0  0  0  0  0  0  0
  131.2508  133.8550  158.8542 H   0  0  0  0  0  0  0  0  0  0  0  0
  129.2898  131.7474  159.8039 H   0  0  0  0  0  0  0  0  0  0  0  0
  128.8447  132.8895  158.5133 H   0  0  0  0  0  0  0  0  0  0  0  0
  131.0478  130.1112  159.4633 H   0  0  0  0  0  0  0  0  0  0  0  0
  132.3068  128.7608  157.8349 H   0  0  0  0  0  0  0  0  0  0  0  0
  132.4131  129.4584  155.4759 H   0  0  0  0  0  0  0  0  0  0  0  0
  131.2585  131.5060  154.7442 H   0  0  0  0  0  0  0  0  0  0  0  0
  128.8289  134.4867  160.1654 H   0  0  0  0  0  0  0  0  0  0  0  0
  130.2250  137.0014  162.2832 H   0  0  0  0  0  0  0  0  0  0  0  0
  129.1324  135.7076  164.3518 H   0  0  0  0  0  0  0  0  0  0  0  0
  128.2654  137.2092  163.9391 H   0  0  0  0  0  0  0  0  0  0  0  0
  126.7532  135.8779  165.2729 H   0  0  0  0  0  0  0  0  0  0  0  0
  127.0923  134.4212  164.3106 H   0  0  0  0  0  0  0  0  0  0  0  0
  125.2917  136.4987  161.5477 H   0  0  0  0  0  0  0  0  0  0  0  0
  127.5981  137.6360  161.5492 H   0  0  0  0  0  0  0  0  0  0  0  0
  127.3920  136.2309  160.4823 H   0  0  0  0  0  0  0  0  0  0  0  0
  132.3915  136.8939  162.1308 H   0  0  0  0  0  0  0  0  0  0  0  0
  134.0681  136.4003  160.1576 H   0  0  0  0  0  0  0  0  0  0  0  0
  133.4831  137.9545  159.5170 H   0  0  0  0  0  0  0  0  0  0  0  0
  134.2623  137.8876  161.1160 H   0  0  0  0  0  0  0  0  0  0  0  0
  129.7866  140.6841  159.4172 H   0  0  0  0  0  0  0  0  0  0  0  0
  1  2  1  0
  1 32  1  0
  1 33  1  0
  1 34  1  0
  2  3  1  0
  2 11  1  0
  2 35  1  6
  3  4  1  0
  3 36  1  0
  3 37  1  0
  4  9  1  0
  4  5  2  0
  5  6  1  0
  5 38  1  0
  6  7  2  0
  6 39  1  0
  7  8  1  0
  7 40  1  0
  8  9  2  0
  8 41  1  0
  9 10  1  0
 11 42  1  0
 12 11  1  0
 12 13  1  0
 12 22  2  0
 13 14  1  0
 13 43  1  0
 14 15  1  1
 14 21  1  0
 14 16  1  0
 16 17  1  0
 16 44  1  0
 16 45  1  0
 17 18  1  0
 17 46  1  0
 17 47  1  0
 18 19  2  0
 18 20  1  0
 20 21  1  0
 20 48  1  0
 21 49  1  0
 21 50  1  0
 22 23  1  0
 22 24  1  0
 24 25  1  0
 24 26  1  0
 24 51  1  1
 25 52  1  0
 25 53  1  0
 25 54  1  0
 26 30  1  0
 26 27  2  0
 27 28  1  0
 28 29  2  0
 29 30  1  0
 29 55  1  0
 30 31  1  0
M  CHG  1  22   1
M  END
>  <DOCK_score>  (1) 
-44.539803

>  <SMILES>  (1) 
CC(Cc1ccccc1Cl)NC(N[C@H]1CCC(=O)NC1)=[NH+]C(C)c1nnc[nH]1

$$$$
