ClC(Nc1[nH]c2ccccc2[nH+]1)[C@@H](NC1CCCC1)Sc1ccsc1
     RDKit          3D

 47 50  0  0  1  0  0  0  0  0999 V2000
  133.1995  134.8590  161.9939 Cl  0  0  0  0  0  0  0  0  0  0  0  0
  131.7835  135.7029  161.2634 C   0  0  2  0  0  0  0  0  0  0  0  0
  131.7071  135.3822  159.8360 N   0  0  0  0  0  0  0  0  0  0  0  0
  131.5604  134.0763  159.4316 C   0  0  0  0  0  0  0  0  0  0  0  0
  131.4750  133.6753  158.1652 N   0  0  0  0  0  0  0  0  0  0  0  0
  131.5052  134.2508  157.3849 H   0  0  0  0  0  0  0  0  0  0  0  0
  131.3400  132.3119  158.1502 C   0  0  0  0  0  0  0  0  0  0  0  0
  131.2114  131.3680  157.1355 C   0  0  0  0  0  0  0  0  0  0  0  0
  131.0832  130.0333  157.4537 C   0  0  0  0  0  0  0  0  0  0  0  0
  131.0811  129.6233  158.7789 C   0  0  0  0  0  0  0  0  0  0  0  0
  131.2075  130.5447  159.7957 C   0  0  0  0  0  0  0  0  0  0  0  0
  131.3381  131.8967  159.4919 C   0  0  0  0  0  0  0  0  0  0  0  0
  131.4776  133.0296  160.2499 N   0  0  0  0  0  0  0  0  0  0  0  0
  131.5099  133.0631  161.2188 H   0  0  0  0  0  0  0  0  0  0  0  0
  131.9444  137.2142  161.4386 C   0  0  1  0  0  0  0  0  0  0  0  0
  132.3496  137.4242  162.4285 H   0  0  0  0  0  0  0  0  0  0  0  0
  132.8619  137.7310  160.4143 N   0  0  0  0  0  0  0  0  0  0  0  0
  133.4126  139.0341  160.8100 C   0  0  0  0  0  0  0  0  0  0  0  0
  133.9042  138.9992  162.2785 C   0  0  0  0  0  0  0  0  0  0  0  0
  134.9532  140.1276  162.3564 C   0  0  0  0  0  0  0  0  0  0  0  0
  135.4685  140.3485  160.9234 C   0  0  0  0  0  0  0  0  0  0  0  0
  134.7147  139.3465  160.0247 C   0  0  0  0  0  0  0  0  0  0  0  0
  130.3281  138.0188  161.2638 S   0  0  0  0  0  0  0  0  0  0  0  0
  129.5846  137.1304  159.9361 C   0  0  0  0  0  0  0  0  0  0  0  0
  128.8096  135.9964  160.1357 C   0  0  0  0  0  0  0  0  0  0  0  0
  128.3221  135.4466  159.0225 C   0  0  0  0  0  0  0  0  0  0  0  0
  128.8436  136.3767  157.6242 S   0  0  0  0  0  0  0  0  0  0  0  0
  129.7183  137.4997  158.6570 C   0  0  0  0  0  0  0  0  0  0  0  0
  130.8698  135.3748  161.7589 H   0  0  0  0  0  0  0  0  0  0  0  0
  131.7599  136.0912  159.1760 H   0  0  0  0  0  0  0  0  0  0  0  0
  131.2127  131.6807  156.1017 H   0  0  0  0  0  0  0  0  0  0  0  0
  130.9837  129.3014  156.6658 H   0  0  0  0  0  0  0  0  0  0  0  0
  130.9802  128.5743  159.0154 H   0  0  0  0  0  0  0  0  0  0  0  0
  131.2054  130.2188  160.8255 H   0  0  0  0  0  0  0  0  0  0  0  0
  133.5996  137.0698  160.2229 H   0  0  0  0  0  0  0  0  0  0  0  0
  132.6763  139.8252  160.6679 H   0  0  0  0  0  0  0  0  0  0  0  0
  134.3622  138.0363  162.5046 H   0  0  0  0  0  0  0  0  0  0  0  0
  133.0786  139.1979  162.9619 H   0  0  0  0  0  0  0  0  0  0  0  0
  134.4919  141.0410  162.7321 H   0  0  0  0  0  0  0  0  0  0  0  0
  135.7752  139.8290  163.0070 H   0  0  0  0  0  0  0  0  0  0  0  0
  135.2573  141.3689  160.6038 H   0  0  0  0  0  0  0  0  0  0  0  0
  136.5408  140.1578  160.8787 H   0  0  0  0  0  0  0  0  0  0  0  0
  134.4796  139.7998  159.0618 H   0  0  0  0  0  0  0  0  0  0  0  0
  135.3047  138.4406  159.8850 H   0  0  0  0  0  0  0  0  0  0  0  0
  128.6159  135.5903  161.1176 H   0  0  0  0  0  0  0  0  0  0  0  0
  127.7012  134.5636  158.9855 H   0  0  0  0  0  0  0  0  0  0  0  0
  130.2790  138.3558  158.3115 H   0  0  0  0  0  0  0  0  0  0  0  0
  1  2  1  0
  2  3  1  0
  2 15  1  0
  2 29  1  1
  3  4  1  0
  3 30  1  0
  4 13  1  0
  4  5  2  0
  5  6  1  0
  5  7  1  0
  7 12  2  0
  7  8  1  0
  8  9  2  0
  8 31  1  0
  9 10  1  0
  9 32  1  0
 10 11  2  0
 10 33  1  0
 11 12  1  0
 11 34  1  0
 12 13  1  0
 13 14  1  0
 15 16  1  1
 15 17  1  0
 15 23  1  0
 17 18  1  0
 17 35  1  0
 18 22  1  0
 18 19  1  0
 18 36  1  0
 19 20  1  0
 19 37  1  0
 19 38  1  0
 20 21  1  0
 20 39  1  0
 20 40  1  0
 21 22  1  0
 21 41  1  0
 21 42  1  0
 22 43  1  0
 22 44  1  0
 23 24  1  0
 24 28  2  0
 24 25  1  0
 25 26  2  0
 25 45  1  0
 26 27  1  0
 26 46  1  0
 27 28  1  0
 28 47  1  0
M  CHG  1   5   1
M  END
>  <DOCK_score>  (1) 
-57.482834

>  <SMILES>  (1) 
ClC(Nc1[nH]c2ccccc2[nH+]1)[C@@H](NC1CCCC1)Sc1ccsc1

$$$$
