Nc1cccc([C@H](c2ccccc2)[NH+]2CC=C(c3ccccc3)CC2)c1
     RDKit          3D

 51 54  0  0  1  0  0  0  0  0999 V2000
  131.4212  131.8161  155.5794 N   0  0  0  0  0  0  0  0  0  0  0  0
  131.0503  131.7571  156.9247 C   0  0  0  0  0  0  0  0  0  0  0  0
  131.1112  130.5509  157.6115 C   0  0  0  0  0  0  0  0  0  0  0  0
  130.7441  130.4963  158.9415 C   0  0  0  0  0  0  0  0  0  0  0  0
  130.3217  131.6417  159.5915 C   0  0  0  0  0  0  0  0  0  0  0  0
  130.2545  132.8425  158.9095 C   0  0  0  0  0  0  0  0  0  0  0  0
  129.7877  134.0867  159.6203 C   0  0  2  0  0  0  0  0  0  0  0  0
  129.5493  133.8455  160.6561 H   0  0  0  0  0  0  0  0  0  0  0  0
  128.5589  134.6259  158.9344 C   0  0  0  0  0  0  0  0  0  0  0  0
  127.3041  134.2015  159.3301 C   0  0  0  0  0  0  0  0  0  0  0  0
  126.1768  134.6995  158.7039 C   0  0  0  0  0  0  0  0  0  0  0  0
  126.3046  135.6148  157.6760 C   0  0  0  0  0  0  0  0  0  0  0  0
  127.5595  136.0350  157.2767 C   0  0  0  0  0  0  0  0  0  0  0  0
  128.6866  135.5404  157.9058 C   0  0  0  0  0  0  0  0  0  0  0  0
  130.8517  135.0990  159.5855 N   0  0  1  0  0  0  0  0  0  0  0  0
  131.0734  135.3230  158.6271 H   0  0  0  0  0  0  0  0  0  0  0  0
  130.4006  136.3097  160.2814 C   0  0  0  0  0  0  0  0  0  0  0  0
  131.5324  137.2868  160.4191 C   0  0  0  0  0  0  0  0  0  0  0  0
  132.7954  136.9413  160.2920 C   0  0  0  0  0  0  0  0  0  0  0  0
  133.8371  137.9777  160.4522 C   0  0  0  0  0  0  0  0  0  0  0  0
  134.7149  138.2567  159.4040 C   0  0  0  0  0  0  0  0  0  0  0  0
  135.6820  139.2286  159.5581 C   0  0  0  0  0  0  0  0  0  0  0  0
  135.7889  139.9189  160.7522 C   0  0  0  0  0  0  0  0  0  0  0  0
  134.9252  139.6436  161.7971 C   0  0  0  0  0  0  0  0  0  0  0  0
  133.9506  138.6773  161.6541 C   0  0  0  0  0  0  0  0  0  0  0  0
  133.2173  135.5297  159.9903 C   0  0  0  0  0  0  0  0  0  0  0  0
  132.0510  134.5759  160.2588 C   0  0  0  0  0  0  0  0  0  0  0  0
  130.6201  132.9042  157.5790 C   0  0  0  0  0  0  0  0  0  0  0  0
  131.3786  132.6589  155.1010 H   0  0  0  0  0  0  0  0  0  0  0  0
  131.7215  131.0143  155.1235 H   0  0  0  0  0  0  0  0  0  0  0  0
  131.4455  129.6571  157.1057 H   0  0  0  0  0  0  0  0  0  0  0  0
  130.7913  129.5590  159.4760 H   0  0  0  0  0  0  0  0  0  0  0  0
  130.0397  131.5971  160.6331 H   0  0  0  0  0  0  0  0  0  0  0  0
  127.2045  133.4836  160.1308 H   0  0  0  0  0  0  0  0  0  0  0  0
  125.1963  134.3713  159.0161 H   0  0  0  0  0  0  0  0  0  0  0  0
  125.4240  136.0018  157.1849 H   0  0  0  0  0  0  0  0  0  0  0  0
  127.6594  136.7502  156.4736 H   0  0  0  0  0  0  0  0  0  0  0  0
  129.6671  135.8688  157.5940 H   0  0  0  0  0  0  0  0  0  0  0  0
  129.5925  136.7716  159.7143 H   0  0  0  0  0  0  0  0  0  0  0  0
  130.0341  136.0407  161.2720 H   0  0  0  0  0  0  0  0  0  0  0  0
  131.2990  138.3195  160.6322 H   0  0  0  0  0  0  0  0  0  0  0  0
  134.6353  137.7153  158.4729 H   0  0  0  0  0  0  0  0  0  0  0  0
  136.3596  139.4481  158.7463 H   0  0  0  0  0  0  0  0  0  0  0  0
  136.5503  140.6759  160.8693 H   0  0  0  0  0  0  0  0  0  0  0  0
  135.0139  140.1858  162.7270 H   0  0  0  0  0  0  0  0  0  0  0  0
  133.2773  138.4628  162.4708 H   0  0  0  0  0  0  0  0  0  0  0  0
  133.5121  135.4548  158.9436 H   0  0  0  0  0  0  0  0  0  0  0  0
  134.0611  135.2594  160.6254 H   0  0  0  0  0  0  0  0  0  0  0  0
  131.8705  134.5140  161.3320 H   0  0  0  0  0  0  0  0  0  0  0  0
  132.2883  133.5866  159.8674 H   0  0  0  0  0  0  0  0  0  0  0  0
  130.5720  133.8436  157.0482 H   0  0  0  0  0  0  0  0  0  0  0  0
  1  2  1  0
  1 29  1  0
  1 30  1  0
  2 28  2  0
  2  3  1  0
  3  4  2  0
  3 31  1  0
  4  5  1  0
  4 32  1  0
  5  6  2  0
  5 33  1  0
  6  7  1  0
  6 28  1  0
  7  8  1  1
  7  9  1  0
  7 15  1  0
  9 14  1  0
  9 10  2  0
 10 11  1  0
 10 34  1  0
 11 12  2  0
 11 35  1  0
 12 13  1  0
 12 36  1  0
 13 14  2  0
 13 37  1  0
 14 38  1  0
 15 16  1  6
 15 27  1  0
 15 17  1  0
 17 18  1  0
 17 39  1  0
 17 40  1  0
 18 19  2  0
 18 41  1  0
 19 20  1  0
 19 26  1  0
 20 25  1  0
 20 21  2  0
 21 22  1  0
 21 42  1  0
 22 23  2  0
 22 43  1  0
 23 24  1  0
 23 44  1  0
 24 25  2  0
 24 45  1  0
 25 46  1  0
 26 27  1  0
 26 47  1  0
 26 48  1  0
 27 49  1  0
 27 50  1  0
 28 51  1  0
M  CHG  1  15   1
M  END
>  <DOCK_score>  (1) 
-57.025246

>  <SMILES>  (1) 
Nc1cccc([C@H](c2ccccc2)[NH+]2CC=C(c3ccccc3)CC2)c1

$$$$
