c1ccc(CC(CNc2[nH]cc(-c3ccc(-c4ccccc4)cc3)[nH+]2)Cc2ccccc2)cc1
     RDKit          3D

 64 68  0  0  1  0  0  0  0  0999 V2000
  136.6873  139.7841  161.6001 C   0  0  0  0  0  0  0  0  0  0  0  0
  136.0424  139.3914  160.4422 C   0  0  0  0  0  0  0  0  0  0  0  0
  135.0864  138.3939  160.4878 C   0  0  0  0  0  0  0  0  0  0  0  0
  134.7742  137.7902  161.6915 C   0  0  0  0  0  0  0  0  0  0  0  0
  133.7318  136.7032  161.7414 C   0  0  0  0  0  0  0  0  0  0  0  0
  132.3566  137.3264  161.9897 C   0  0  0  0  0  0  0  0  0  0  0  0
  131.2661  136.3449  161.5556 C   0  0  0  0  0  0  0  0  0  0  0  0
  131.4169  136.0470  160.1292 N   0  0  0  0  0  0  0  0  0  0  0  0
  131.0258  134.8147  159.6343 C   0  0  0  0  0  0  0  0  0  0  0  0
  130.4955  133.7982  160.3677 N   0  0  0  0  0  0  0  0  0  0  0  0
  130.3248  133.8069  161.3225 H   0  0  0  0  0  0  0  0  0  0  0  0
  130.2441  132.7587  159.5059 C   0  0  0  0  0  0  0  0  0  0  0  0
  130.6352  133.1665  158.2725 C   0  0  0  0  0  0  0  0  0  0  0  0
  130.5564  132.3705  157.0245 C   0  0  0  0  0  0  0  0  0  0  0  0
  130.3733  133.0111  155.7988 C   0  0  0  0  0  0  0  0  0  0  0  0
  130.3053  132.2715  154.6388 C   0  0  0  0  0  0  0  0  0  0  0  0
  130.4092  130.8817  154.6906 C   0  0  0  0  0  0  0  0  0  0  0  0
  130.3305  130.0854  153.4421 C   0  0  0  0  0  0  0  0  0  0  0  0
  131.0175  128.8769  153.3387 C   0  0  0  0  0  0  0  0  0  0  0  0
  130.9370  128.1380  152.1760 C   0  0  0  0  0  0  0  0  0  0  0  0
  130.1846  128.5992  151.1107 C   0  0  0  0  0  0  0  0  0  0  0  0
  129.5046  129.8000  151.2060 C   0  0  0  0  0  0  0  0  0  0  0  0
  129.5739  130.5451  152.3655 C   0  0  0  0  0  0  0  0  0  0  0  0
  130.5866  130.2408  155.9165 C   0  0  0  0  0  0  0  0  0  0  0  0
  130.6598  130.9803  157.0761 C   0  0  0  0  0  0  0  0  0  0  0  0
  131.1106  134.4327  158.3836 N   0  0  0  0  0  0  0  0  0  0  0  0
  131.4582  134.9690  157.6538 H   0  0  0  0  0  0  0  0  0  0  0  0
  132.1992  137.6375  163.4795 C   0  0  0  0  0  0  0  0  0  0  0  0
  131.1109  138.6629  163.6663 C   0  0  0  0  0  0  0  0  0  0  0  0
  131.4219  140.0097  163.6602 C   0  0  0  0  0  0  0  0  0  0  0  0
  130.4228  140.9506  163.8267 C   0  0  0  0  0  0  0  0  0  0  0  0
  129.1143  140.5442  164.0095 C   0  0  0  0  0  0  0  0  0  0  0  0
  128.8041  139.1972  164.0214 C   0  0  0  0  0  0  0  0  0  0  0  0
  129.8024  138.2565  163.8496 C   0  0  0  0  0  0  0  0  0  0  0  0
  135.4181  138.1839  162.8497 C   0  0  0  0  0  0  0  0  0  0  0  0
  136.3749  139.1807  162.8040 C   0  0  0  0  0  0  0  0  0  0  0  0
  137.4342  140.5634  161.5644 H   0  0  0  0  0  0  0  0  0  0  0  0
  136.2865  139.8627  159.5016 H   0  0  0  0  0  0  0  0  0  0  0  0
  134.5865  138.0832  159.5822 H   0  0  0  0  0  0  0  0  0  0  0  0
  133.7213  136.1660  160.7930 H   0  0  0  0  0  0  0  0  0  0  0  0
  133.9678  136.0102  162.5490 H   0  0  0  0  0  0  0  0  0  0  0  0
  132.2661  138.2478  161.4145 H   0  0  0  0  0  0  0  0  0  0  0  0
  131.3567  135.4234  162.1308 H   0  0  0  0  0  0  0  0  0  0  0  0
  130.2864  136.7888  161.7326 H   0  0  0  0  0  0  0  0  0  0  0  0
  131.7906  136.7133  159.5314 H   0  0  0  0  0  0  0  0  0  0  0  0
  129.8197  131.7990  159.7617 H   0  0  0  0  0  0  0  0  0  0  0  0
  130.2887  134.0869  155.7592 H   0  0  0  0  0  0  0  0  0  0  0  0
  130.1680  132.7678  153.6894 H   0  0  0  0  0  0  0  0  0  0  0  0
  131.6087  128.5180  154.1680 H   0  0  0  0  0  0  0  0  0  0  0  0
  131.4658  127.1996  152.0960 H   0  0  0  0  0  0  0  0  0  0  0  0
  130.1281  128.0196  150.2011 H   0  0  0  0  0  0  0  0  0  0  0  0
  128.9187  130.1553  150.3712 H   0  0  0  0  0  0  0  0  0  0  0  0
  129.0431  131.4829  152.4386 H   0  0  0  0  0  0  0  0  0  0  0  0
  130.6662  129.1644  155.9565 H   0  0  0  0  0  0  0  0  0  0  0  0
  130.7976  130.4839  158.0254 H   0  0  0  0  0  0  0  0  0  0  0  0
  131.9352  136.7255  164.0151 H   0  0  0  0  0  0  0  0  0  0  0  0
  133.1384  138.0291  163.8701 H   0  0  0  0  0  0  0  0  0  0  0  0
  132.4449  140.3272  163.5214 H   0  0  0  0  0  0  0  0  0  0  0  0
  130.6653  142.0030  163.8177 H   0  0  0  0  0  0  0  0  0  0  0  0
  128.3344  141.2792  164.1433 H   0  0  0  0  0  0  0  0  0  0  0  0
  127.7818  138.8797  164.1645 H   0  0  0  0  0  0  0  0  0  0  0  0
  129.5601  137.2041  163.8589 H   0  0  0  0  0  0  0  0  0  0  0  0
  135.1741  137.7125  163.7903 H   0  0  0  0  0  0  0  0  0  0  0  0
  136.8780  139.4883  163.7087 H   0  0  0  0  0  0  0  0  0  0  0  0
  1 36  2  0
  1  2  1  0
  1 37  1  0
  2  3  2  0
  2 38  1  0
  3  4  1  0
  3 39  1  0
  4  5  1  0
  4 35  2  0
  5  6  1  0
  5 40  1  0
  5 41  1  0
  6  7  1  0
  6 28  1  0
  6 42  1  0
  7  8  1  0
  7 43  1  0
  7 44  1  0
  8 45  1  0
  9  8  1  0
  9 26  2  0
  9 10  1  0
 10 11  1  0
 10 12  1  0
 12 13  2  0
 12 46  1  0
 13 14  1  0
 13 26  1  0
 14 25  1  0
 14 15  2  0
 15 16  1  0
 15 47  1  0
 16 17  2  0
 16 48  1  0
 17 18  1  0
 17 24  1  0
 18 23  1  0
 18 19  2  0
 19 20  1  0
 19 49  1  0
 20 21  2  0
 20 50  1  0
 21 22  1  0
 21 51  1  0
 22 23  2  0
 22 52  1  0
 23 53  1  0
 24 25  2  0
 24 54  1  0
 25 55  1  0
 26 27  1  0
 28 29  1  0
 28 56  1  0
 28 57  1  0
 29 34  1  0
 29 30  2  0
 30 31  1  0
 30 58  1  0
 31 32  2  0
 31 59  1  0
 32 33  1  0
 32 60  1  0
 33 34  2  0
 33 61  1  0
 34 62  1  0
 35 36  1  0
 35 63  1  0
 36 64  1  0
M  CHG  1  26   1
M  END
>  <DOCK_score>  (1) 
-61.647575

>  <SMILES>  (1) 
c1ccc(CC(CNc2[nH]cc(-c3ccc(-c4ccccc4)cc3)[nH+]2)Cc2ccccc2)cc1

$$$$
