Fc1ccc(-c2cccc(-c3ccccc3C3=CCC[N@@H+](Cc4ccc(-c5ccccc5)[nH]4)C3)c2)cc1
     RDKit          3D

 67 72  0  0  1  0  0  0  0  0999 V2000
  139.7339  137.2656  169.2183 F   0  0  0  0  0  0  0  0  0  0  0  0
  138.7162  137.5066  168.3630 C   0  0  0  0  0  0  0  0  0  0  0  0
  138.9259  137.4148  166.9965 C   0  0  0  0  0  0  0  0  0  0  0  0
  137.8909  137.6656  166.1194 C   0  0  0  0  0  0  0  0  0  0  0  0
  136.6302  138.0004  166.6099 C   0  0  0  0  0  0  0  0  0  0  0  0
  135.5126  138.2655  165.6705 C   0  0  0  0  0  0  0  0  0  0  0  0
  134.1994  137.9933  166.0526 C   0  0  0  0  0  0  0  0  0  0  0  0
  133.1581  138.2393  165.1798 C   0  0  0  0  0  0  0  0  0  0  0  0
  133.4099  138.7560  163.9240 C   0  0  0  0  0  0  0  0  0  0  0  0
  134.7192  139.0318  163.5305 C   0  0  0  0  0  0  0  0  0  0  0  0
  134.9885  139.5858  162.1823 C   0  0  0  0  0  0  0  0  0  0  0  0
  135.6102  140.8238  162.0454 C   0  0  0  0  0  0  0  0  0  0  0  0
  135.8644  141.3335  160.7881 C   0  0  0  0  0  0  0  0  0  0  0  0
  135.4942  140.6259  159.6566 C   0  0  0  0  0  0  0  0  0  0  0  0
  134.8719  139.4001  159.7724 C   0  0  0  0  0  0  0  0  0  0  0  0
  134.6124  138.8669  161.0345 C   0  0  0  0  0  0  0  0  0  0  0  0
  133.9473  137.5553  161.1644 C   0  0  0  0  0  0  0  0  0  0  0  0
  134.5824  136.5875  161.7920 C   0  0  0  0  0  0  0  0  0  0  0  0
  133.9878  135.2172  161.9684 C   0  0  0  0  0  0  0  0  0  0  0  0
  132.4827  135.2723  161.6944 C   0  0  0  0  0  0  0  0  0  0  0  0
  132.2636  135.9601  160.4123 N   0  0  1  0  0  0  0  0  0  0  0  0
  132.8640  135.5594  159.7072 H   0  0  0  0  0  0  0  0  0  0  0  0
  130.8599  135.8087  160.0067 C   0  0  0  0  0  0  0  0  0  0  0  0
  130.6602  134.4501  159.3859 C   0  0  0  0  0  0  0  0  0  0  0  0
  130.3098  133.3249  160.0455 C   0  0  0  0  0  0  0  0  0  0  0  0
  130.2305  132.2857  159.1042 C   0  0  0  0  0  0  0  0  0  0  0  0
  130.5382  132.8157  157.8875 C   0  0  0  0  0  0  0  0  0  0  0  0
  130.5797  132.0825  156.6042 C   0  0  0  0  0  0  0  0  0  0  0  0
  130.2817  132.7416  155.4106 C   0  0  0  0  0  0  0  0  0  0  0  0
  130.3275  132.0530  154.2160 C   0  0  0  0  0  0  0  0  0  0  0  0
  130.6576  130.7094  154.2006 C   0  0  0  0  0  0  0  0  0  0  0  0
  130.9485  130.0488  155.3810 C   0  0  0  0  0  0  0  0  0  0  0  0
  130.9116  130.7270  156.5817 C   0  0  0  0  0  0  0  0  0  0  0  0
  130.7968  134.1509  158.0631 N   0  0  0  0  0  0  0  0  0  0  0  0
  131.0390  134.7774  157.3633 H   0  0  0  0  0  0  0  0  0  0  0  0
  132.5744  137.3865  160.5801 C   0  0  0  0  0  0  0  0  0  0  0  0
  135.7724  138.7913  164.4092 C   0  0  0  0  0  0  0  0  0  0  0  0
  136.4223  138.0858  167.9852 C   0  0  0  0  0  0  0  0  0  0  0  0
  137.4645  137.8391  168.8550 C   0  0  0  0  0  0  0  0  0  0  0  0
  139.9020  137.1505  166.6173 H   0  0  0  0  0  0  0  0  0  0  0  0
  138.0562  137.5983  165.0543 H   0  0  0  0  0  0  0  0  0  0  0  0
  133.9964  137.5890  167.0333 H   0  0  0  0  0  0  0  0  0  0  0  0
  132.1427  138.0266  165.4801 H   0  0  0  0  0  0  0  0  0  0  0  0
  132.5916  138.9465  163.2453 H   0  0  0  0  0  0  0  0  0  0  0  0
  135.8977  141.3834  162.9232 H   0  0  0  0  0  0  0  0  0  0  0  0
  136.3505  142.2924  160.6861 H   0  0  0  0  0  0  0  0  0  0  0  0
  135.6941  141.0360  158.6778 H   0  0  0  0  0  0  0  0  0  0  0  0
  134.5856  138.8538  158.8858 H   0  0  0  0  0  0  0  0  0  0  0  0
  135.5647  136.7848  162.1949 H   0  0  0  0  0  0  0  0  0  0  0  0
  134.4587  134.5247  161.2708 H   0  0  0  0  0  0  0  0  0  0  0  0
  134.1588  134.8761  162.9893 H   0  0  0  0  0  0  0  0  0  0  0  0
  132.0836  134.2596  161.6393 H   0  0  0  0  0  0  0  0  0  0  0  0
  131.9851  135.8213  162.4938 H   0  0  0  0  0  0  0  0  0  0  0  0
  130.2165  135.9068  160.8811 H   0  0  0  0  0  0  0  0  0  0  0  0
  130.6062  136.5808  159.2804 H   0  0  0  0  0  0  0  0  0  0  0  0
  130.1247  133.2394  161.1061 H   0  0  0  0  0  0  0  0  0  0  0  0
  129.9735  131.2566  159.3074 H   0  0  0  0  0  0  0  0  0  0  0  0
  130.0196  133.7892  155.4217 H   0  0  0  0  0  0  0  0  0  0  0  0
  130.1011  132.5629  153.2911 H   0  0  0  0  0  0  0  0  0  0  0  0
  130.6880  130.1739  153.2632 H   0  0  0  0  0  0  0  0  0  0  0  0
  131.2055  129.0001  155.3622 H   0  0  0  0  0  0  0  0  0  0  0  0
  131.1384  130.2102  157.5024 H   0  0  0  0  0  0  0  0  0  0  0  0
  131.8411  137.8433  161.2446 H   0  0  0  0  0  0  0  0  0  0  0  0
  132.5330  137.8791  159.6086 H   0  0  0  0  0  0  0  0  0  0  0  0
  136.7874  139.0081  164.1109 H   0  0  0  0  0  0  0  0  0  0  0  0
  135.4467  138.3447  168.3695 H   0  0  0  0  0  0  0  0  0  0  0  0
  137.3041  137.9048  169.9210 H   0  0  0  0  0  0  0  0  0  0  0  0
  1  2  1  0
  2 39  2  0
  2  3  1  0
  3  4  2  0
  3 40  1  0
  4  5  1  0
  4 41  1  0
  5  6  1  0
  5 38  2  0
  6 37  1  0
  6  7  2  0
  7  8  1  0
  7 42  1  0
  8  9  2  0
  8 43  1  0
  9 10  1  0
  9 44  1  0
 10 11  1  0
 10 37  2  0
 11 16  1  0
 11 12  2  0
 12 13  1  0
 12 45  1  0
 13 14  2  0
 13 46  1  0
 14 15  1  0
 14 47  1  0
 15 16  2  0
 15 48  1  0
 16 17  1  0
 17 36  1  0
 17 18  2  0
 18 19  1  0
 18 49  1  0
 19 20  1  0
 19 50  1  0
 19 51  1  0
 20 21  1  0
 20 52  1  0
 20 53  1  0
 21 22  1  6
 21 23  1  0
 21 36  1  0
 23 24  1  0
 23 54  1  0
 23 55  1  0
 24 34  1  0
 24 25  2  0
 25 26  1  0
 25 56  1  0
 26 27  2  0
 26 57  1  0
 27 28  1  0
 27 34  1  0
 28 33  1  0
 28 29  2  0
 29 30  1  0
 29 58  1  0
 30 31  2  0
 30 59  1  0
 31 32  1  0
 31 60  1  0
 32 33  2  0
 32 61  1  0
 33 62  1  0
 34 35  1  0
 36 63  1  0
 36 64  1  0
 37 65  1  0
 38 39  1  0
 38 66  1  0
 39 67  1  0
M  CHG  1  21   1
M  END
>  <DOCK_score>  (1) 
-58.0173

>  <SMILES>  (1) 
Fc1ccc(-c2cccc(-c3ccccc3C3=CCC[N@@H+](Cc4ccc(-c5ccccc5)[nH]4)C3)c2)cc1

$$$$
