Nc1ccc(-c2c[nH]c(N[C@@H](C=C3C=CCC3)c3cccnc3)[nH+]2)cc1
     RDKit          3D

 48 51  0  0  1  0  0  0  0  0999 V2000
  131.1989  129.4350  151.0149 N   0  0  0  0  0  0  0  0  0  0  0  0
  130.9924  130.0604  152.2469 C   0  0  0  0  0  0  0  0  0  0  0  0
  130.2541  131.2359  152.3131 C   0  0  0  0  0  0  0  0  0  0  0  0
  130.0488  131.8551  153.5280 C   0  0  0  0  0  0  0  0  0  0  0  0
  130.5824  131.3009  154.6904 C   0  0  0  0  0  0  0  0  0  0  0  0
  130.3629  131.9651  155.9987 C   0  0  0  0  0  0  0  0  0  0  0  0
  129.7357  131.4248  157.0726 C   0  0  0  0  0  0  0  0  0  0  0  0
  129.7541  132.3759  158.0652 N   0  0  0  0  0  0  0  0  0  0  0  0
  129.3813  132.2840  158.9560 H   0  0  0  0  0  0  0  0  0  0  0  0
  130.3925  133.4695  157.5673 C   0  0  0  0  0  0  0  0  0  0  0  0
  130.6217  134.6506  158.2520 N   0  0  0  0  0  0  0  0  0  0  0  0
  129.6853  135.0894  159.2898 C   0  0  1  0  0  0  0  0  0  0  0  0
  129.6342  134.3353  160.0752 H   0  0  0  0  0  0  0  0  0  0  0  0
  130.1603  136.3939  159.8760 C   0  0  0  0  0  0  0  0  0  0  0  0
  130.4405  136.4768  161.1722 C   0  0  0  0  0  0  0  0  0  0  0  0
  130.3435  135.3902  162.1539 C   0  0  0  0  0  0  0  0  0  0  0  0
  130.6896  135.7805  163.3655 C   0  0  0  0  0  0  0  0  0  0  0  0
  131.0813  137.2367  163.3645 C   0  0  0  0  0  0  0  0  0  0  0  0
  130.9253  137.7082  161.9080 C   0  0  0  0  0  0  0  0  0  0  0  0
  128.3179  135.2786  158.6852 C   0  0  0  0  0  0  0  0  0  0  0  0
  128.1833  135.6541  157.3571 C   0  0  0  0  0  0  0  0  0  0  0  0
  126.9059  135.8122  156.8424 C   0  0  0  0  0  0  0  0  0  0  0  0
  125.8168  135.6021  157.6671 C   0  0  0  0  0  0  0  0  0  0  0  0
  125.9826  135.2505  158.9271 N   0  0  0  0  0  0  0  0  0  0  0  0
  127.1826  135.0858  159.4489 C   0  0  0  0  0  0  0  0  0  0  0  0
  130.7498  133.2223  156.3306 N   0  0  0  0  0  0  0  0  0  0  0  0
  131.2181  133.8392  155.7465 H   0  0  0  0  0  0  0  0  0  0  0  0
  131.3273  130.1246  154.6211 C   0  0  0  0  0  0  0  0  0  0  0  0
  131.5248  129.5056  153.4049 C   0  0  0  0  0  0  0  0  0  0  0  0
  130.8273  129.8210  150.2067 H   0  0  0  0  0  0  0  0  0  0  0  0
  131.7140  128.6140  150.9682 H   0  0  0  0  0  0  0  0  0  0  0  0
  129.8412  131.6652  151.4121 H   0  0  0  0  0  0  0  0  0  0  0  0
  129.4748  132.7686  153.5788 H   0  0  0  0  0  0  0  0  0  0  0  0
  129.3042  130.4367  157.1359 H   0  0  0  0  0  0  0  0  0  0  0  0
  131.4023  135.1879  158.0446 H   0  0  0  0  0  0  0  0  0  0  0  0
  130.2685  137.2626  159.2435 H   0  0  0  0  0  0  0  0  0  0  0  0
  130.0255  134.3868  161.9124 H   0  0  0  0  0  0  0  0  0  0  0  0
  130.6923  135.1446  164.2384 H   0  0  0  0  0  0  0  0  0  0  0  0
  130.4218  137.8044  164.0208 H   0  0  0  0  0  0  0  0  0  0  0  0
  132.1177  137.3481  163.6833 H   0  0  0  0  0  0  0  0  0  0  0  0
  131.8830  138.0401  161.5074 H   0  0  0  0  0  0  0  0  0  0  0  0
  130.1861  138.5067  161.8443 H   0  0  0  0  0  0  0  0  0  0  0  0
  129.0531  135.8159  156.7375 H   0  0  0  0  0  0  0  0  0  0  0  0
  126.7636  136.1004  155.8112 H   0  0  0  0  0  0  0  0  0  0  0  0
  124.8182  135.7272  157.2748 H   0  0  0  0  0  0  0  0  0  0  0  0
  127.2790  134.7973  160.4851 H   0  0  0  0  0  0  0  0  0  0  0  0
  131.7453  129.6959  155.5200 H   0  0  0  0  0  0  0  0  0  0  0  0
  132.0981  128.5918  153.3513 H   0  0  0  0  0  0  0  0  0  0  0  0
  1  2  1  0
  1 30  1  0
  1 31  1  0
  2 29  2  0
  2  3  1  0
  3  4  2  0
  3 32  1  0
  4  5  1  0
  4 33  1  0
  5  6  1  0
  5 28  2  0
  6 26  1  0
  6  7  2  0
  7  8  1  0
  7 34  1  0
  8  9  1  0
  8 10  1  0
 10 11  1  0
 10 26  2  0
 11 12  1  0
 11 35  1  0
 12 13  1  1
 12 14  1  0
 12 20  1  0
 14 15  2  0
 14 36  1  0
 15 19  1  0
 15 16  1  0
 16 17  2  0
 16 37  1  0
 17 18  1  0
 17 38  1  0
 18 19  1  0
 18 39  1  0
 18 40  1  0
 19 41  1  0
 19 42  1  0
 20 25  1  0
 20 21  2  0
 21 22  1  0
 21 43  1  0
 22 23  2  0
 22 44  1  0
 23 24  1  0
 23 45  1  0
 24 25  2  0
 25 46  1  0
 26 27  1  0
 28 29  1  0
 28 47  1  0
 29 48  1  0
M  CHG  1  26   1
M  END
>  <DOCK_score>  (1) 
-58.804588

>  <SMILES>  (1) 
Nc1ccc(-c2c[nH]c(N[C@@H](C=C3C=CCC3)c3cccnc3)[nH+]2)cc1

$$$$
