[NH3+][C@H](CCC1=C[C@@H](CO)C=CC1CO)C(=O)Nc1cccc(O)c1
     RDKit          3D

 49 50  0  0  1  0  0  0  0  0999 V2000
  131.3854  133.9817  157.8814 N   0  0  0  0  0  0  0  0  0  0  0  0
  131.5449  132.9870  157.9395 H   0  0  0  0  0  0  0  0  0  0  0  0
  130.7516  134.1768  157.1211 H   0  0  0  0  0  0  0  0  0  0  0  0
  132.2620  134.4540  157.7182 H   0  0  0  0  0  0  0  0  0  0  0  0
  130.7997  134.4581  159.1416 C   0  0  2  0  0  0  0  0  0  0  0  0
  130.6274  135.5326  159.0788 H   0  0  0  0  0  0  0  0  0  0  0  0
  131.7610  134.1624  160.2947 C   0  0  0  0  0  0  0  0  0  0  0  0
  131.4219  135.0619  161.4849 C   0  0  0  0  0  0  0  0  0  0  0  0
  131.5560  136.5064  161.0771 C   0  0  0  0  0  0  0  0  0  0  0  0
  130.5117  137.2738  161.1567 C   0  0  0  0  0  0  0  0  0  0  0  0
  130.5375  138.7236  160.7764 C   0  0  1  0  0  0  0  0  0  0  0  0
  129.6151  138.9717  160.2514 H   0  0  0  0  0  0  0  0  0  0  0  0
  130.6350  139.5733  162.0451 C   0  0  0  0  0  0  0  0  0  0  0  0
  130.6600  140.9574  161.6905 O   0  0  0  0  0  0  0  0  0  0  0  0
  131.7059  139.0303  159.8885 C   0  0  0  0  0  0  0  0  0  0  0  0
  132.7501  138.2629  159.8091 C   0  0  0  0  0  0  0  0  0  0  0  0
  132.8892  136.9952  160.5966 C   0  0  1  0  0  0  0  0  0  0  0  0
  133.7935  137.2532  161.8036 C   0  0  0  0  0  0  0  0  0  0  0  0
  134.3399  136.0152  162.2627 O   0  0  0  0  0  0  0  0  0  0  0  0
  129.4905  133.7527  159.3855 C   0  0  0  0  0  0  0  0  0  0  0  0
  129.4626  132.5445  159.4876 O   0  0  0  0  0  0  0  0  0  0  0  0
  128.3509  134.4645  159.4900 N   0  0  0  0  0  0  0  0  0  0  0  0
  127.1353  133.8096  159.7164 C   0  0  0  0  0  0  0  0  0  0  0  0
  126.9390  132.5213  159.2348 C   0  0  0  0  0  0  0  0  0  0  0  0
  125.7412  131.8727  159.4633 C   0  0  0  0  0  0  0  0  0  0  0  0
  124.7310  132.5071  160.1615 C   0  0  0  0  0  0  0  0  0  0  0  0
  124.9194  133.7960  160.6399 C   0  0  0  0  0  0  0  0  0  0  0  0
  123.9251  134.4187  161.3258 O   0  0  0  0  0  0  0  0  0  0  0  0
  126.1223  134.4480  160.4175 C   0  0  0  0  0  0  0  0  0  0  0  0
  132.7844  134.3556  159.9731 H   0  0  0  0  0  0  0  0  0  0  0  0
  131.6641  133.1176  160.5896 H   0  0  0  0  0  0  0  0  0  0  0  0
  132.1068  134.8511  162.3064 H   0  0  0  0  0  0  0  0  0  0  0  0
  130.3985  134.8686  161.8064 H   0  0  0  0  0  0  0  0  0  0  0  0
  129.5844  136.8491  161.5120 H   0  0  0  0  0  0  0  0  0  0  0  0
  129.7720  139.3767  162.6811 H   0  0  0  0  0  0  0  0  0  0  0  0
  131.5482  139.3194  162.5831 H   0  0  0  0  0  0  0  0  0  0  0  0
  131.4033  141.2046  161.1235 H   0  0  0  0  0  0  0  0  0  0  0  0
  131.6758  139.9259  159.2859 H   0  0  0  0  0  0  0  0  0  0  0  0
  133.5532  138.5502  159.1465 H   0  0  0  0  0  0  0  0  0  0  0  0
  133.3440  136.2309  159.9664 H   0  0  0  0  0  0  0  0  0  0  0  0
  134.6035  137.9228  161.5143 H   0  0  0  0  0  0  0  0  0  0  0  0
  133.2109  137.7118  162.6026 H   0  0  0  0  0  0  0  0  0  0  0  0
  134.8716  135.5508  161.6021 H   0  0  0  0  0  0  0  0  0  0  0  0
  128.3733  135.4308  159.4083 H   0  0  0  0  0  0  0  0  0  0  0  0
  127.7252  132.0250  158.6852 H   0  0  0  0  0  0  0  0  0  0  0  0
  125.5918  130.8697  159.0916 H   0  0  0  0  0  0  0  0  0  0  0  0
  123.7938  131.9992  160.3344 H   0  0  0  0  0  0  0  0  0  0  0  0
  124.1492  135.3126  161.6185 H   0  0  0  0  0  0  0  0  0  0  0  0
  126.2707  135.4513  160.7889 H   0  0  0  0  0  0  0  0  0  0  0  0
  1  2  1  0
  1  3  1  0
  1  4  1  0
  1  5  1  0
  5  6  1  6
  5  7  1  0
  5 20  1  0
  7  8  1  0
  7 30  1  0
  7 31  1  0
  8  9  1  0
  8 32  1  0
  8 33  1  0
  9 17  1  0
  9 10  2  0
 10 11  1  0
 10 34  1  0
 11 12  1  6
 11 13  1  0
 11 15  1  0
 13 14  1  0
 13 35  1  0
 13 36  1  0
 14 37  1  0
 15 16  2  0
 15 38  1  0
 16 17  1  0
 16 39  1  0
 17 18  1  0
 17 40  1  6
 18 19  1  0
 18 41  1  0
 18 42  1  0
 19 43  1  0
 20 21  2  0
 20 22  1  0
 22 23  1  0
 22 44  1  0
 23 29  1  0
 23 24  2  0
 24 25  1  0
 24 45  1  0
 25 26  2  0
 25 46  1  0
 26 27  1  0
 26 47  1  0
 27 28  1  0
 27 29  2  0
 28 48  1  0
 29 49  1  0
M  CHG  1   1   1
M  END
>  <DOCK_score>  (1) 
-42.483467

>  <SMILES>  (1) 
[NH3+][C@H](CCC1=C[C@@H](CO)C=CC1CO)C(=O)Nc1cccc(O)c1

$$$$
