O=C(C=Cc1cn(-c2ccccc2)nc1-c1ccc(F)cc1)Nc1c[nH]nc1[C@H]1CCC[NH2+]C1
     RDKit          3D

 60 64  0  0  1  0  0  0  0  0999 V2000
  128.9675  138.8844  162.2583 O   0  0  0  0  0  0  0  0  0  0  0  0
  129.9181  138.1271  162.1821 C   0  0  0  0  0  0  0  0  0  0  0  0
  131.2215  138.5924  162.4887 C   0  0  0  0  0  0  0  0  0  0  0  0
  131.4092  139.8766  162.8658 C   0  0  0  0  0  0  0  0  0  0  0  0
  132.7587  140.3584  163.1834 C   0  0  0  0  0  0  0  0  0  0  0  0
  133.1910  140.8762  164.3898 C   0  0  0  0  0  0  0  0  0  0  0  0
  134.4913  141.1962  164.2580 N   0  0  0  0  0  0  0  0  0  0  0  0
  135.2916  141.7517  165.2645 C   0  0  0  0  0  0  0  0  0  0  0  0
  136.6276  142.0360  165.0136 C   0  0  0  0  0  0  0  0  0  0  0  0
  137.4128  142.5881  166.0067 C   0  0  0  0  0  0  0  0  0  0  0  0
  136.8729  142.8480  167.2529 C   0  0  0  0  0  0  0  0  0  0  0  0
  135.5442  142.5610  167.5076 C   0  0  0  0  0  0  0  0  0  0  0  0
  134.7524  142.0137  166.5171 C   0  0  0  0  0  0  0  0  0  0  0  0
  134.9219  140.8908  162.9640 N   0  0  0  0  0  0  0  0  0  0  0  0
  133.9192  140.3800  162.2850 C   0  0  0  0  0  0  0  0  0  0  0  0
  133.9526  139.9176  160.8773 C   0  0  0  0  0  0  0  0  0  0  0  0
  135.1333  139.4120  160.3352 C   0  0  0  0  0  0  0  0  0  0  0  0
  135.1581  138.9776  159.0260 C   0  0  0  0  0  0  0  0  0  0  0  0
  134.0148  139.0536  158.2469 C   0  0  0  0  0  0  0  0  0  0  0  0
  134.0453  138.6326  156.9635 F   0  0  0  0  0  0  0  0  0  0  0  0
  132.8405  139.5606  158.7797 C   0  0  0  0  0  0  0  0  0  0  0  0
  132.8047  139.9923  160.0895 C   0  0  0  0  0  0  0  0  0  0  0  0
  129.7308  136.8465  161.8059 N   0  0  0  0  0  0  0  0  0  0  0  0
  128.4370  136.3847  161.5015 C   0  0  0  0  0  0  0  0  0  0  0  0
  127.2774  136.8434  162.0381 C   0  0  0  0  0  0  0  0  0  0  0  0
  126.2604  136.1336  161.4838 N   0  0  0  0  0  0  0  0  0  0  0  0
  125.3165  136.2406  161.6798 H   0  0  0  0  0  0  0  0  0  0  0  0
  126.8163  135.2196  160.5797 N   0  0  0  0  0  0  0  0  0  0  0  0
  128.1158  135.3707  160.5870 C   0  0  0  0  0  0  0  0  0  0  0  0
  129.0999  134.5851  159.7592 C   0  0  1  0  0  0  0  0  0  0  0  0
  130.0448  134.5042  160.2966 H   0  0  0  0  0  0  0  0  0  0  0  0
  128.5412  133.1841  159.4937 C   0  0  0  0  0  0  0  0  0  0  0  0
  129.5125  132.4212  158.5882 C   0  0  0  0  0  0  0  0  0  0  0  0
  129.7276  133.2140  157.2973 C   0  0  0  0  0  0  0  0  0  0  0  0
  130.2873  134.5329  157.6163 N   0  0  0  0  0  0  0  0  0  0  0  0
  131.1457  134.4167  158.1336 H   0  0  0  0  0  0  0  0  0  0  0  0
  130.4766  135.0329  156.7606 H   0  0  0  0  0  0  0  0  0  0  0  0
  129.3302  135.2977  158.4248 C   0  0  0  0  0  0  0  0  0  0  0  0
  132.0645  137.9207  162.4211 H   0  0  0  0  0  0  0  0  0  0  0  0
  130.5662  140.5484  162.9335 H   0  0  0  0  0  0  0  0  0  0  0  0
  132.5918  141.0021  165.2796 H   0  0  0  0  0  0  0  0  0  0  0  0
  137.0509  141.8296  164.0418 H   0  0  0  0  0  0  0  0  0  0  0  0
  138.4507  142.8136  165.8108 H   0  0  0  0  0  0  0  0  0  0  0  0
  137.4899  143.2762  168.0290 H   0  0  0  0  0  0  0  0  0  0  0  0
  135.1253  142.7653  168.4817 H   0  0  0  0  0  0  0  0  0  0  0  0
  133.7147  141.7901  166.7164 H   0  0  0  0  0  0  0  0  0  0  0  0
  136.0261  139.3565  160.9404 H   0  0  0  0  0  0  0  0  0  0  0  0
  136.0711  138.5816  158.6066 H   0  0  0  0  0  0  0  0  0  0  0  0
  131.9519  139.6184  158.1684 H   0  0  0  0  0  0  0  0  0  0  0  0
  131.8888  140.3870  160.5040 H   0  0  0  0  0  0  0  0  0  0  0  0
  130.4880  136.2432  161.7452 H   0  0  0  0  0  0  0  0  0  0  0  0
  127.1811  137.6277  162.7742 H   0  0  0  0  0  0  0  0  0  0  0  0
  128.4286  132.6516  160.4380 H   0  0  0  0  0  0  0  0  0  0  0  0
  127.5720  133.2655  159.0018 H   0  0  0  0  0  0  0  0  0  0  0  0
  130.4660  132.2954  159.1013 H   0  0  0  0  0  0  0  0  0  0  0  0
  129.0956  131.4426  158.3499 H   0  0  0  0  0  0  0  0  0  0  0  0
  130.4185  132.6735  156.6502 H   0  0  0  0  0  0  0  0  0  0  0  0
  128.7736  133.3394  156.7852 H   0  0  0  0  0  0  0  0  0  0  0  0
  128.3848  135.3783  157.8884 H   0  0  0  0  0  0  0  0  0  0  0  0
  129.7278  136.2956  158.6103 H   0  0  0  0  0  0  0  0  0  0  0  0
  1  2  2  0
  2  3  1  0
  2 23  1  0
  3  4  2  0
  3 39  1  0
  4  5  1  0
  4 40  1  0
  5 15  1  0
  5  6  2  0
  6  7  1  0
  6 41  1  0
  7  8  1  0
  7 14  1  0
  8 13  1  0
  8  9  2  0
  9 10  1  0
  9 42  1  0
 10 11  2  0
 10 43  1  0
 11 12  1  0
 11 44  1  0
 12 13  2  0
 12 45  1  0
 13 46  1  0
 14 15  2  0
 15 16  1  0
 16 22  1  0
 16 17  2  0
 17 18  1  0
 17 47  1  0
 18 19  2  0
 18 48  1  0
 19 20  1  0
 19 21  1  0
 21 22  2  0
 21 49  1  0
 22 50  1  0
 23 24  1  0
 23 51  1  0
 24 29  1  0
 24 25  2  0
 25 26  1  0
 25 52  1  0
 26 27  1  0
 26 28  1  0
 28 29  2  0
 29 30  1  0
 30 31  1  1
 30 38  1  0
 30 32  1  0
 32 33  1  0
 32 53  1  0
 32 54  1  0
 33 34  1  0
 33 55  1  0
 33 56  1  0
 34 35  1  0
 34 57  1  0
 34 58  1  0
 35 36  1  0
 35 37  1  0
 35 38  1  0
 38 59  1  0
 38 60  1  0
M  CHG  1  35   1
M  END
>  <DOCK_score>  (1) 
-45.782455

>  <SMILES>  (1) 
O=C(C=Cc1cn(-c2ccccc2)nc1-c1ccc(F)cc1)Nc1c[nH]nc1[C@H]1CCC[NH2+]C1

$$$$
