CCc1ccc(-c2c[nH]c(N[C@H](CC3=CCC=CC3)c3ccc(CC)cc3)[nH+]2)cc1
     RDKit          3D

 62 65  0  0  1  0  0  0  0  0999 V2000
  130.3327  128.5095  151.5998 C   0  0  0  0  0  0  0  0  0  0  0  0
  131.4634  129.4796  151.9477 C   0  0  0  0  0  0  0  0  0  0  0  0
  131.1052  130.2410  153.1979 C   0  0  0  0  0  0  0  0  0  0  0  0
  131.4650  129.7410  154.4360 C   0  0  0  0  0  0  0  0  0  0  0  0
  131.1445  130.4366  155.5840 C   0  0  0  0  0  0  0  0  0  0  0  0
  130.4469  131.6399  155.4946 C   0  0  0  0  0  0  0  0  0  0  0  0
  130.0947  132.3894  156.7251 C   0  0  0  0  0  0  0  0  0  0  0  0
  129.3297  131.9316  157.7471 C   0  0  0  0  0  0  0  0  0  0  0  0
  129.2585  132.9418  158.6753 N   0  0  0  0  0  0  0  0  0  0  0  0
  128.7800  132.9142  159.5186 H   0  0  0  0  0  0  0  0  0  0  0  0
  129.9826  133.9883  158.1930 C   0  0  0  0  0  0  0  0  0  0  0  0
  130.1632  135.2047  158.8287 N   0  0  0  0  0  0  0  0  0  0  0  0
  129.5470  135.4471  160.1355 C   0  0  2  0  0  0  0  0  0  0  0  0
  129.6243  134.5475  160.7460 H   0  0  0  0  0  0  0  0  0  0  0  0
  128.0727  135.8090  159.9448 C   0  0  0  0  0  0  0  0  0  0  0  0
  127.3284  135.5804  161.2350 C   0  0  0  0  0  0  0  0  0  0  0  0
  127.2438  136.5582  162.0848 C   0  0  0  0  0  0  0  0  0  0  0  0
  126.5270  136.4360  163.3958 C   0  0  0  0  0  0  0  0  0  0  0  0
  125.5676  135.2843  163.3838 C   0  0  0  0  0  0  0  0  0  0  0  0
  125.6525  134.3062  162.5343 C   0  0  0  0  0  0  0  0  0  0  0  0
  126.7125  134.2355  161.4792 C   0  0  0  0  0  0  0  0  0  0  0  0
  130.2583  136.5838  160.8232 C   0  0  0  0  0  0  0  0  0  0  0  0
  130.2947  137.8337  160.2343 C   0  0  0  0  0  0  0  0  0  0  0  0
  130.9439  138.8774  160.8671 C   0  0  0  0  0  0  0  0  0  0  0  0
  131.5641  138.6686  162.0847 C   0  0  0  0  0  0  0  0  0  0  0  0
  132.2759  139.8053  162.7724 C   0  0  0  0  0  0  0  0  0  0  0  0
  133.7378  139.8382  162.3222 C   0  0  0  0  0  0  0  0  0  0  0  0
  131.5318  137.4175  162.6715 C   0  0  0  0  0  0  0  0  0  0  0  0
  130.8795  136.3749  162.0405 C   0  0  0  0  0  0  0  0  0  0  0  0
  130.4855  133.6523  157.0302 N   0  0  0  0  0  0  0  0  0  0  0  0
  131.0457  134.2173  156.4753 H   0  0  0  0  0  0  0  0  0  0  0  0
  130.0818  132.1364  154.2444 C   0  0  0  0  0  0  0  0  0  0  0  0
  130.4125  131.4351  153.1028 C   0  0  0  0  0  0  0  0  0  0  0  0
  130.1892  127.8093  152.4228 H   0  0  0  0  0  0  0  0  0  0  0  0
  129.4119  129.0684  151.4337 H   0  0  0  0  0  0  0  0  0  0  0  0
  130.5918  127.9588  150.6955 H   0  0  0  0  0  0  0  0  0  0  0  0
  132.3840  128.9212  152.1134 H   0  0  0  0  0  0  0  0  0  0  0  0
  131.6066  130.1802  151.1242 H   0  0  0  0  0  0  0  0  0  0  0  0
  132.0014  128.8061  154.5043 H   0  0  0  0  0  0  0  0  0  0  0  0
  131.4303  130.0473  156.5500 H   0  0  0  0  0  0  0  0  0  0  0  0
  128.8652  130.9591  157.8175 H   0  0  0  0  0  0  0  0  0  0  0  0
  130.6980  135.8966  158.4087 H   0  0  0  0  0  0  0  0  0  0  0  0
  127.9900  136.8575  159.6585 H   0  0  0  0  0  0  0  0  0  0  0  0
  127.6434  135.1836  159.1620 H   0  0  0  0  0  0  0  0  0  0  0  0
  127.7094  137.5004  161.8364 H   0  0  0  0  0  0  0  0  0  0  0  0
  127.2580  136.2838  164.1900 H   0  0  0  0  0  0  0  0  0  0  0  0
  125.9764  137.3566  163.5891 H   0  0  0  0  0  0  0  0  0  0  0  0
  124.7716  135.2671  164.1134 H   0  0  0  0  0  0  0  0  0  0  0  0
  124.9241  133.5106  162.5877 H   0  0  0  0  0  0  0  0  0  0  0  0
  126.2724  133.8704  160.5514 H   0  0  0  0  0  0  0  0  0  0  0  0
  127.4878  133.5412  161.8033 H   0  0  0  0  0  0  0  0  0  0  0  0
  129.8132  137.9958  159.2812 H   0  0  0  0  0  0  0  0  0  0  0  0
  130.9693  139.8549  160.4085 H   0  0  0  0  0  0  0  0  0  0  0  0
  131.7938  140.7472  162.5107 H   0  0  0  0  0  0  0  0  0  0  0  0
  132.2311  139.6618  163.8519 H   0  0  0  0  0  0  0  0  0  0  0  0
  134.2526  140.6602  162.8196 H   0  0  0  0  0  0  0  0  0  0  0  0
  134.2198  138.8963  162.5839 H   0  0  0  0  0  0  0  0  0  0  0  0
  133.7824  139.9816  161.2427 H   0  0  0  0  0  0  0  0  0  0  0  0
  132.0168  137.2544  163.6225 H   0  0  0  0  0  0  0  0  0  0  0  0
  130.8545  135.3972  162.4986 H   0  0  0  0  0  0  0  0  0  0  0  0
  129.5408  133.0682  154.1693 H   0  0  0  0  0  0  0  0  0  0  0  0
  130.1299  131.8188  152.1337 H   0  0  0  0  0  0  0  0  0  0  0  0
  1  2  1  0
  1 34  1  0
  1 35  1  0
  1 36  1  0
  2  3  1  0
  2 37  1  0
  2 38  1  0
  3 33  2  0
  3  4  1  0
  4  5  2  0
  4 39  1  0
  5  6  1  0
  5 40  1  0
  6  7  1  0
  6 32  2  0
  7 30  1  0
  7  8  2  0
  8  9  1  0
  8 41  1  0
  9 10  1  0
  9 11  1  0
 11 12  1  0
 11 30  2  0
 12 13  1  0
 12 42  1  0
 13 14  1  1
 13 15  1  0
 13 22  1  0
 15 16  1  0
 15 43  1  0
 15 44  1  0
 16 21  1  0
 16 17  2  0
 17 18  1  0
 17 45  1  0
 18 19  1  0
 18 46  1  0
 18 47  1  0
 19 20  2  0
 19 48  1  0
 20 21  1  0
 20 49  1  0
 21 50  1  0
 21 51  1  0
 22 29  1  0
 22 23  2  0
 23 24  1  0
 23 52  1  0
 24 25  2  0
 24 53  1  0
 25 26  1  0
 25 28  1  0
 26 27  1  0
 26 54  1  0
 26 55  1  0
 27 56  1  0
 27 57  1  0
 27 58  1  0
 28 29  2  0
 28 59  1  0
 29 60  1  0
 30 31  1  0
 32 33  1  0
 32 61  1  0
 33 62  1  0
M  CHG  1  30   1
M  END
>  <DOCK_score>  (1) 
-59.295364

>  <SMILES>  (1) 
CCc1ccc(-c2c[nH]c(N[C@H](CC3=CCC=CC3)c3ccc(CC)cc3)[nH+]2)cc1

$$$$
