Cc1c(Nc2[nH]c3ccccc3[nH+]2)cccc1-n1cnc2c(NCC3=CCCC3)ncnc21
     RDKit          3D

 58 63  0  0  0  0  0  0  0  0999 V2000
  129.6353  137.5431  160.4160 C   0  0  0  0  0  0  0  0  0  0  0  0
  128.3636  136.7443  160.5424 C   0  0  0  0  0  0  0  0  0  0  0  0
  127.9837  135.8765  159.5278 C   0  0  0  0  0  0  0  0  0  0  0  0
  128.7811  135.7416  158.3869 N   0  0  0  0  0  0  0  0  0  0  0  0
  129.3127  134.5148  158.0600 C   0  0  0  0  0  0  0  0  0  0  0  0
  129.1368  133.3965  158.7606 N   0  0  0  0  0  0  0  0  0  0  0  0
  128.6187  133.3139  159.5764 H   0  0  0  0  0  0  0  0  0  0  0  0
  129.8088  132.3814  158.1324 C   0  0  0  0  0  0  0  0  0  0  0  0
  129.9755  131.0258  158.4011 C   0  0  0  0  0  0  0  0  0  0  0  0
  130.7390  130.2491  157.5569 C   0  0  0  0  0  0  0  0  0  0  0  0
  131.3433  130.8083  156.4405 C   0  0  0  0  0  0  0  0  0  0  0  0
  131.1882  132.1485  156.1596 C   0  0  0  0  0  0  0  0  0  0  0  0
  130.4203  132.9476  157.0019 C   0  0  0  0  0  0  0  0  0  0  0  0
  130.0823  134.2750  157.0007 N   0  0  0  0  0  0  0  0  0  0  0  0
  130.3576  134.9297  156.3399 H   0  0  0  0  0  0  0  0  0  0  0  0
  126.8078  135.1464  159.6448 C   0  0  0  0  0  0  0  0  0  0  0  0
  126.0201  135.2787  160.7723 C   0  0  0  0  0  0  0  0  0  0  0  0
  126.3986  136.1376  161.7858 C   0  0  0  0  0  0  0  0  0  0  0  0
  127.5732  136.8707  161.6749 C   0  0  0  0  0  0  0  0  0  0  0  0
  127.9566  137.7417  162.7042 N   0  0  0  0  0  0  0  0  0  0  0  0
  129.1182  137.6861  163.4197 C   0  0  0  0  0  0  0  0  0  0  0  0
  129.1465  138.6484  164.2954 N   0  0  0  0  0  0  0  0  0  0  0  0
  128.0160  139.3879  164.1917 C   0  0  0  0  0  0  0  0  0  0  0  0
  127.5102  140.5180  164.8568 C   0  0  0  0  0  0  0  0  0  0  0  0
  128.2276  141.1200  165.8755 N   0  0  0  0  0  0  0  0  0  0  0  0
  127.6872  142.3011  166.5532 C   0  0  0  0  0  0  0  0  0  0  0  0
  127.5212  142.0057  168.0216 C   0  0  0  0  0  0  0  0  0  0  0  0
  127.0601  142.8553  168.9027 C   0  0  0  0  0  0  0  0  0  0  0  0
  127.0210  142.2419  170.2831 C   0  0  0  0  0  0  0  0  0  0  0  0
  127.1461  140.7199  170.0406 C   0  0  0  0  0  0  0  0  0  0  0  0
  127.8662  140.6863  168.6725 C   0  0  0  0  0  0  0  0  0  0  0  0
  126.3295  140.9982  164.4809 N   0  0  0  0  0  0  0  0  0  0  0  0
  125.6379  140.4305  163.5094 C   0  0  0  0  0  0  0  0  0  0  0  0
  126.0693  139.3683  162.8627 N   0  0  0  0  0  0  0  0  0  0  0  0
  127.2393  138.8175  163.1691 C   0  0  0  0  0  0  0  0  0  0  0  0
  130.4650  136.9742  160.8356 H   0  0  0  0  0  0  0  0  0  0  0  0
  129.8316  137.7495  159.3640 H   0  0  0  0  0  0  0  0  0  0  0  0
  129.5290  138.4833  160.9571 H   0  0  0  0  0  0  0  0  0  0  0  0
  128.9595  136.5125  157.8259 H   0  0  0  0  0  0  0  0  0  0  0  0
  129.5074  130.5839  159.2684 H   0  0  0  0  0  0  0  0  0  0  0  0
  130.8675  129.1972  157.7658 H   0  0  0  0  0  0  0  0  0  0  0  0
  131.9392  130.1889  155.7866 H   0  0  0  0  0  0  0  0  0  0  0  0
  131.6608  132.5775  155.2883 H   0  0  0  0  0  0  0  0  0  0  0  0
  126.5092  134.4742  158.8539 H   0  0  0  0  0  0  0  0  0  0  0  0
  125.1065  134.7097  160.8613 H   0  0  0  0  0  0  0  0  0  0  0  0
  125.7805  136.2392  162.6657 H   0  0  0  0  0  0  0  0  0  0  0  0
  129.8943  136.9471  163.2855 H   0  0  0  0  0  0  0  0  0  0  0  0
  129.0885  140.7601  166.1408 H   0  0  0  0  0  0  0  0  0  0  0  0
  126.7190  142.5559  166.1222 H   0  0  0  0  0  0  0  0  0  0  0  0
  128.3732  143.1385  166.4263 H   0  0  0  0  0  0  0  0  0  0  0  0
  126.7480  143.8635  168.6732 H   0  0  0  0  0  0  0  0  0  0  0  0
  126.0753  142.4717  170.7740 H   0  0  0  0  0  0  0  0  0  0  0  0
  127.8567  142.6007  170.8838 H   0  0  0  0  0  0  0  0  0  0  0  0
  126.1638  140.2516  169.9773 H   0  0  0  0  0  0  0  0  0  0  0  0
  127.7532  140.2490  170.8137 H   0  0  0  0  0  0  0  0  0  0  0  0
  128.9438  140.6022  168.8125 H   0  0  0  0  0  0  0  0  0  0  0  0
  127.4965  139.8572  168.0691 H   0  0  0  0  0  0  0  0  0  0  0  0
  124.6826  140.8533  163.2357 H   0  0  0  0  0  0  0  0  0  0  0  0
  1  2  1  0
  1 36  1  0
  1 37  1  0
  1 38  1  0
  2 19  2  0
  2  3  1  0
  3  4  1  0
  3 16  2  0
  4  5  1  0
  4 39  1  0
  5 14  1  0
  5  6  2  0
  6  7  1  0
  6  8  1  0
  8 13  2  0
  8  9  1  0
  9 10  2  0
  9 40  1  0
 10 11  1  0
 10 41  1  0
 11 12  2  0
 11 42  1  0
 12 13  1  0
 12 43  1  0
 13 14  1  0
 14 15  1  0
 16 17  1  0
 16 44  1  0
 17 18  2  0
 17 45  1  0
 18 19  1  0
 18 46  1  0
 19 20  1  0
 20 35  1  0
 20 21  1  0
 21 22  2  0
 21 47  1  0
 22 23  1  0
 23 35  2  0
 23 24  1  0
 24 25  1  0
 24 32  2  0
 25 26  1  0
 25 48  1  0
 26 27  1  0
 26 49  1  0
 26 50  1  0
 27 31  1  0
 27 28  2  0
 28 29  1  0
 28 51  1  0
 29 30  1  0
 29 52  1  0
 29 53  1  0
 30 31  1  0
 30 54  1  0
 30 55  1  0
 31 56  1  0
 31 57  1  0
 32 33  1  0
 33 34  2  0
 33 58  1  0
 34 35  1  0
M  CHG  1   6   1
M  END
>  <DOCK_score>  (1) 
-45.976086

>  <SMILES>  (1) 
Cc1c(Nc2[nH]c3ccccc3[nH+]2)cccc1-n1cnc2c(NCC3=CCCC3)ncnc21

$$$$
