CCc1ccc(-c2c[nH]c(Nc3cccc(N)c3O)[nH+]2)cc1
     RDKit          3D

 41 43  0  0  1  0  0  0  0  0999 V2000
  130.1990  128.6491  151.4959 C   0  0  0  0  0  0  0  0  0  0  0  0
  131.2882  129.6823  151.7895 C   0  0  0  0  0  0  0  0  0  0  0  0
  130.9875  130.3721  153.0952 C   0  0  0  0  0  0  0  0  0  0  0  0
  131.4834  129.8546  154.2778 C   0  0  0  0  0  0  0  0  0  0  0  0
  131.2160  130.4851  155.4760 C   0  0  0  0  0  0  0  0  0  0  0  0
  130.4352  131.6395  155.4939 C   0  0  0  0  0  0  0  0  0  0  0  0
  130.1398  132.3185  156.7791 C   0  0  0  0  0  0  0  0  0  0  0  0
  129.4964  131.7724  157.8409 C   0  0  0  0  0  0  0  0  0  0  0  0
  129.4373  132.7410  158.8127 N   0  0  0  0  0  0  0  0  0  0  0  0
  129.0350  132.6503  159.6906 H   0  0  0  0  0  0  0  0  0  0  0  0
  130.0471  133.8521  158.3161 C   0  0  0  0  0  0  0  0  0  0  0  0
  130.2001  135.0553  158.9847 N   0  0  0  0  0  0  0  0  0  0  0  0
  129.2515  135.4542  159.9346 C   0  0  0  0  0  0  0  0  0  0  0  0
  129.6361  135.6787  161.2501 C   0  0  0  0  0  0  0  0  0  0  0  0
  128.7009  136.0719  162.1882 C   0  0  0  0  0  0  0  0  0  0  0  0
  127.3788  136.2437  161.8227 C   0  0  0  0  0  0  0  0  0  0  0  0
  126.9849  136.0226  160.5098 C   0  0  0  0  0  0  0  0  0  0  0  0
  125.6459  136.1978  160.1408 N   0  0  0  0  0  0  0  0  0  0  0  0
  127.9238  135.6317  159.5607 C   0  0  0  0  0  0  0  0  0  0  0  0
  127.5430  135.4183  158.2714 O   0  0  0  0  0  0  0  0  0  0  0  0
  130.4706  133.5935  157.1028 N   0  0  0  0  0  0  0  0  0  0  0  0
  130.9427  134.2155  156.5272 H   0  0  0  0  0  0  0  0  0  0  0  0
  129.9335  132.1537  154.2996 C   0  0  0  0  0  0  0  0  0  0  0  0
  130.2120  131.5181  153.1068 C   0  0  0  0  0  0  0  0  0  0  0  0
  130.4163  128.1504  150.5514 H   0  0  0  0  0  0  0  0  0  0  0  0
  130.1724  127.9119  152.2983 H   0  0  0  0  0  0  0  0  0  0  0  0
  129.2323  129.1484  151.4291 H   0  0  0  0  0  0  0  0  0  0  0  0
  132.2546  129.1836  151.8559 H   0  0  0  0  0  0  0  0  0  0  0  0
  131.3145  130.4202  150.9866 H   0  0  0  0  0  0  0  0  0  0  0  0
  132.0846  128.9576  154.2633 H   0  0  0  0  0  0  0  0  0  0  0  0
  131.6073  130.0822  156.3985 H   0  0  0  0  0  0  0  0  0  0  0  0
  129.1048  130.7681  157.9088 H   0  0  0  0  0  0  0  0  0  0  0  0
  130.9645  135.6218  158.7951 H   0  0  0  0  0  0  0  0  0  0  0  0
  130.6679  135.5455  161.5404 H   0  0  0  0  0  0  0  0  0  0  0  0
  129.0038  136.2454  163.2103 H   0  0  0  0  0  0  0  0  0  0  0  0
  126.6513  136.5509  162.5594 H   0  0  0  0  0  0  0  0  0  0  0  0
  124.9927  136.4738  160.8025 H   0  0  0  0  0  0  0  0  0  0  0  0
  125.3715  136.0431  159.2234 H   0  0  0  0  0  0  0  0  0  0  0  0
  128.2647  135.1460  157.6881 H   0  0  0  0  0  0  0  0  0  0  0  0
  129.3277  133.0478  154.3077 H   0  0  0  0  0  0  0  0  0  0  0  0
  129.8234  131.9154  152.1807 H   0  0  0  0  0  0  0  0  0  0  0  0
  1  2  1  0
  1 25  1  0
  1 26  1  0
  1 27  1  0
  2  3  1  0
  2 28  1  0
  2 29  1  0
  3 24  2  0
  3  4  1  0
  4  5  2  0
  4 30  1  0
  5  6  1  0
  5 31  1  0
  6  7  1  0
  6 23  2  0
  7 21  1  0
  7  8  2  0
  8  9  1  0
  8 32  1  0
  9 10  1  0
  9 11  1  0
 11 12  1  0
 11 21  2  0
 12 13  1  0
 12 33  1  0
 13 19  1  0
 13 14  2  0
 14 15  1  0
 14 34  1  0
 15 16  2  0
 15 35  1  0
 16 17  1  0
 16 36  1  0
 17 18  1  0
 17 19  2  0
 18 37  1  0
 18 38  1  0
 19 20  1  0
 20 39  1  0
 21 22  1  0
 23 24  1  0
 23 40  1  0
 24 41  1  0
M  CHG  1  21   1
M  END
>  <DOCK_score>  (1) 
-54.582138

>  <SMILES>  (1) 
CCc1ccc(-c2c[nH]c(Nc3cccc(N)c3O)[nH+]2)cc1

$$$$
