O=C1CC[C@H](NC(NC2COc3cc(Cl)ccc3C2)=[NH+]Cc2ncccc2Cl)CN1
     RDKit          3D

 54 57  0  0  1  0  0  0  0  0999 V2000
  123.7260  133.8703  161.6771 O   0  0  0  0  0  0  0  0  0  0  0  0
  124.9092  133.8856  161.4111 C   0  0  0  0  0  0  0  0  0  0  0  0
  125.7083  132.6373  161.6536 C   0  0  0  0  0  0  0  0  0  0  0  0
  127.2014  132.9736  161.6792 C   0  0  0  0  0  0  0  0  0  0  0  0
  127.5268  133.8285  160.4485 C   0  0  2  0  0  0  0  0  0  0  0  0
  127.1610  133.3308  159.5503 H   0  0  0  0  0  0  0  0  0  0  0  0
  128.9760  134.0201  160.3523 N   0  0  0  0  0  0  0  0  0  0  0  0
  129.5682  134.1793  159.1217 C   0  0  0  0  0  0  0  0  0  0  0  0
  130.9283  134.3592  159.0316 N   0  0  0  0  0  0  0  0  0  0  0  0
  131.7464  134.3813  160.2466 C   0  0  1  0  0  0  0  0  0  0  0  0
  133.1606  133.8797  159.9271 C   0  0  0  0  0  0  0  0  0  0  0  0
  133.9015  133.8147  161.1464 O   0  0  0  0  0  0  0  0  0  0  0  0
  133.8801  134.9017  161.9610 C   0  0  0  0  0  0  0  0  0  0  0  0
  134.8555  135.0111  162.9472 C   0  0  0  0  0  0  0  0  0  0  0  0
  134.8645  136.0991  163.7975 C   0  0  0  0  0  0  0  0  0  0  0  0
  136.0838  136.2314  165.0262 Cl  0  0  0  0  0  0  0  0  0  0  0  0
  133.9007  137.0842  163.6690 C   0  0  0  0  0  0  0  0  0  0  0  0
  132.9328  136.9786  162.6899 C   0  0  0  0  0  0  0  0  0  0  0  0
  132.9200  135.8901  161.8332 C   0  0  0  0  0  0  0  0  0  0  0  0
  131.8523  135.8154  160.7713 C   0  0  0  0  0  0  0  0  0  0  0  0
  128.8403  134.1595  158.0407 N   0  0  0  0  0  0  0  0  0  0  0  0
  127.9200  134.4644  158.0701 H   0  0  0  0  0  0  0  0  0  0  0  0
  129.4123  133.6771  156.7812 C   0  0  0  0  0  0  0  0  0  0  0  0
  129.8571  132.2469  156.9468 C   0  0  0  0  0  0  0  0  0  0  0  0
  129.6893  131.6422  158.1067 N   0  0  0  0  0  0  0  0  0  0  0  0
  130.0625  130.3920  158.2975 C   0  0  0  0  0  0  0  0  0  0  0  0
  130.6478  129.6648  157.2780 C   0  0  0  0  0  0  0  0  0  0  0  0
  130.8409  130.2657  156.0441 C   0  0  0  0  0  0  0  0  0  0  0  0
  130.4312  131.5814  155.8790 C   0  0  0  0  0  0  0  0  0  0  0  0
  130.6415  132.3830  154.3536 Cl  0  0  0  0  0  0  0  0  0  0  0  0
  126.8386  135.1857  160.5992 C   0  0  0  0  0  0  0  0  0  0  0  0
  125.4278  135.0095  160.9199 N   0  0  0  0  0  0  0  0  0  0  0  0
  125.5121  131.9211  160.8558 H   0  0  0  0  0  0  0  0  0  0  0  0
  125.4187  132.2021  162.6102 H   0  0  0  0  0  0  0  0  0  0  0  0
  127.4365  133.5312  162.5858 H   0  0  0  0  0  0  0  0  0  0  0  0
  127.7853  132.0537  161.6525 H   0  0  0  0  0  0  0  0  0  0  0  0
  129.5177  134.0347  161.1568 H   0  0  0  0  0  0  0  0  0  0  0  0
  131.3462  134.4716  158.1635 H   0  0  0  0  0  0  0  0  0  0  0  0
  131.2934  133.7441  161.0062 H   0  0  0  0  0  0  0  0  0  0  0  0
  133.1055  132.8884  159.4776 H   0  0  0  0  0  0  0  0  0  0  0  0
  133.6474  134.5691  159.2374 H   0  0  0  0  0  0  0  0  0  0  0  0
  135.6075  134.2427  163.0482 H   0  0  0  0  0  0  0  0  0  0  0  0
  133.9054  137.9348  164.3344 H   0  0  0  0  0  0  0  0  0  0  0  0
  132.1816  137.7484  162.5917 H   0  0  0  0  0  0  0  0  0  0  0  0
  132.1103  136.4840  159.9501 H   0  0  0  0  0  0  0  0  0  0  0  0
  130.8955  136.1174  161.1972 H   0  0  0  0  0  0  0  0  0  0  0  0
  128.6597  133.7350  155.9947 H   0  0  0  0  0  0  0  0  0  0  0  0
  130.2686  134.2950  156.5108 H   0  0  0  0  0  0  0  0  0  0  0  0
  129.9087  129.9305  159.2618 H   0  0  0  0  0  0  0  0  0  0  0  0
  130.9504  128.6409  157.4409 H   0  0  0  0  0  0  0  0  0  0  0  0
  131.2954  129.7217  155.2292 H   0  0  0  0  0  0  0  0  0  0  0  0
  127.3222  135.7481  161.3979 H   0  0  0  0  0  0  0  0  0  0  0  0
  126.9261  135.7398  159.6646 H   0  0  0  0  0  0  0  0  0  0  0  0
  124.8296  135.7575  160.7654 H   0  0  0  0  0  0  0  0  0  0  0  0
  1  2  2  0
  2 32  1  0
  2  3  1  0
  3  4  1  0
  3 33  1  0
  3 34  1  0
  4  5  1  0
  4 35  1  0
  4 36  1  0
  5  6  1  6
  5  7  1  0
  5 31  1  0
  7 37  1  0
  8  7  1  0
  8  9  1  0
  8 21  2  0
  9 10  1  0
  9 38  1  0
 10 20  1  0
 10 11  1  0
 10 39  1  1
 11 12  1  0
 11 40  1  0
 11 41  1  0
 12 13  1  0
 13 19  2  0
 13 14  1  0
 14 15  2  0
 14 42  1  0
 15 16  1  0
 15 17  1  0
 17 18  2  0
 17 43  1  0
 18 19  1  0
 18 44  1  0
 19 20  1  0
 20 45  1  0
 20 46  1  0
 21 22  1  0
 21 23  1  0
 23 24  1  0
 23 47  1  0
 23 48  1  0
 24 29  1  0
 24 25  2  0
 25 26  1  0
 26 27  2  0
 26 49  1  0
 27 28  1  0
 27 50  1  0
 28 29  2  0
 28 51  1  0
 29 30  1  0
 31 32  1  0
 31 52  1  0
 31 53  1  0
 32 54  1  0
M  CHG  1  21   1
M  END
>  <DOCK_score>  (1) 
-53.813599

>  <SMILES>  (1) 
O=C1CC[C@H](NC(NC2COc3cc(Cl)ccc3C2)=[NH+]Cc2ncccc2Cl)CN1

$$$$
