Clc1ccc(-c2cc(Cl)ccc2Nc2[nH]cc(-c3ccccc3)[nH+]2)cc1
     RDKit          3D

 42 45  0  0  1  0  0  0  0  0999 V2000
  135.0818  138.6980  160.4654 Cl  0  0  0  0  0  0  0  0  0  0  0  0
  133.5035  137.9753  160.4500 C   0  0  0  0  0  0  0  0  0  0  0  0
  132.4556  138.6202  159.8153 C   0  0  0  0  0  0  0  0  0  0  0  0
  131.2004  138.0475  159.7957 C   0  0  0  0  0  0  0  0  0  0  0  0
  130.9872  136.8201  160.4210 C   0  0  0  0  0  0  0  0  0  0  0  0
  129.6401  136.2004  160.4034 C   0  0  0  0  0  0  0  0  0  0  0  0
  128.7269  136.4823  161.4166 C   0  0  0  0  0  0  0  0  0  0  0  0
  127.4735  135.9025  161.3959 C   0  0  0  0  0  0  0  0  0  0  0  0
  126.3366  136.2551  162.6596 Cl  0  0  0  0  0  0  0  0  0  0  0  0
  127.1202  135.0406  160.3708 C   0  0  0  0  0  0  0  0  0  0  0  0
  128.0176  134.7536  159.3607 C   0  0  0  0  0  0  0  0  0  0  0  0
  129.2782  135.3339  159.3654 C   0  0  0  0  0  0  0  0  0  0  0  0
  130.1844  135.0495  158.3420 N   0  0  0  0  0  0  0  0  0  0  0  0
  130.1422  133.8223  157.7006 C   0  0  0  0  0  0  0  0  0  0  0  0
  129.7430  132.6479  158.2612 N   0  0  0  0  0  0  0  0  0  0  0  0
  129.4396  132.5207  159.1738 H   0  0  0  0  0  0  0  0  0  0  0  0
  129.8465  131.6769  157.2957 C   0  0  0  0  0  0  0  0  0  0  0  0
  130.3135  132.2833  156.1760 C   0  0  0  0  0  0  0  0  0  0  0  0
  130.5871  131.6240  154.8757 C   0  0  0  0  0  0  0  0  0  0  0  0
  130.4494  132.3380  153.6868 C   0  0  0  0  0  0  0  0  0  0  0  0
  130.7119  131.7214  152.4803 C   0  0  0  0  0  0  0  0  0  0  0  0
  131.0982  130.3930  152.4491 C   0  0  0  0  0  0  0  0  0  0  0  0
  131.2307  129.6782  153.6255 C   0  0  0  0  0  0  0  0  0  0  0  0
  130.9774  130.2865  154.8381 C   0  0  0  0  0  0  0  0  0  0  0  0
  130.4852  133.5994  156.4553 N   0  0  0  0  0  0  0  0  0  0  0  0
  130.8104  134.2686  155.8330 H   0  0  0  0  0  0  0  0  0  0  0  0
  132.0442  136.1774  161.0632 C   0  0  0  0  0  0  0  0  0  0  0  0
  133.2956  136.7586  161.0771 C   0  0  0  0  0  0  0  0  0  0  0  0
  132.6221  139.5710  159.3309 H   0  0  0  0  0  0  0  0  0  0  0  0
  130.3846  138.5496  159.2971 H   0  0  0  0  0  0  0  0  0  0  0  0
  128.9985  137.1539  162.2177 H   0  0  0  0  0  0  0  0  0  0  0  0
  126.1384  134.5908  160.3611 H   0  0  0  0  0  0  0  0  0  0  0  0
  127.7363  134.0808  158.5641 H   0  0  0  0  0  0  0  0  0  0  0  0
  130.8436  135.7111  158.0800 H   0  0  0  0  0  0  0  0  0  0  0  0
  129.6059  130.6300  157.4079 H   0  0  0  0  0  0  0  0  0  0  0  0
  130.1427  133.3733  153.7097 H   0  0  0  0  0  0  0  0  0  0  0  0
  130.6108  132.2751  151.5586 H   0  0  0  0  0  0  0  0  0  0  0  0
  131.2981  129.9136  151.5023 H   0  0  0  0  0  0  0  0  0  0  0  0
  131.5332  128.6418  153.5952 H   0  0  0  0  0  0  0  0  0  0  0  0
  131.0816  129.7273  155.7562 H   0  0  0  0  0  0  0  0  0  0  0  0
  131.8840  135.2265  161.5493 H   0  0  0  0  0  0  0  0  0  0  0  0
  134.1154  136.2614  161.5744 H   0  0  0  0  0  0  0  0  0  0  0  0
  1  2  1  0
  2 28  2  0
  2  3  1  0
  3  4  2  0
  3 29  1  0
  4  5  1  0
  4 30  1  0
  5  6  1  0
  5 27  2  0
  6 12  1  0
  6  7  2  0
  7  8  1  0
  7 31  1  0
  8  9  1  0
  8 10  2  0
 10 11  1  0
 10 32  1  0
 11 12  2  0
 11 33  1  0
 12 13  1  0
 13 34  1  0
 14 13  1  0
 14 25  2  0
 14 15  1  0
 15 16  1  0
 15 17  1  0
 17 18  2  0
 17 35  1  0
 18 19  1  0
 18 25  1  0
 19 24  1  0
 19 20  2  0
 20 21  1  0
 20 36  1  0
 21 22  2  0
 21 37  1  0
 22 23  1  0
 22 38  1  0
 23 24  2  0
 23 39  1  0
 24 40  1  0
 25 26  1  0
 27 28  1  0
 27 41  1  0
 28 42  1  0
M  CHG  1  25   1
M  END
>  <DOCK_score>  (1) 
-57.837929

>  <SMILES>  (1) 
Clc1ccc(-c2cc(Cl)ccc2Nc2[nH]cc(-c3ccccc3)[nH+]2)cc1

$$$$
