O=C1CC[C@H]([NH+]=C(NCC2C[C@H]3C=CC2CC3)NC2CCCOC2)CN1
     RDKit          3D

 59 62  0  0  1  0  0  0  0  0999 V2000
  123.8844  133.6662  161.1427 O   0  0  0  0  0  0  0  0  0  0  0  0
  125.0355  133.9529  160.8902 C   0  0  0  0  0  0  0  0  0  0  0  0
  125.9196  132.8912  160.3013 C   0  0  0  0  0  0  0  0  0  0  0  0
  127.3889  133.2892  160.4612 C   0  0  0  0  0  0  0  0  0  0  0  0
  127.5548  134.7348  159.9771 C   0  0  2  0  0  0  0  0  0  0  0  0
  127.1377  134.8351  158.9750 H   0  0  0  0  0  0  0  0  0  0  0  0
  128.9771  135.0856  159.9548 N   0  0  0  0  0  0  0  0  0  0  0  0
  129.3036  135.8215  160.4957 H   0  0  0  0  0  0  0  0  0  0  0  0
  129.8036  134.4085  159.2082 C   0  0  0  0  0  0  0  0  0  0  0  0
  131.1177  134.2701  159.5884 N   0  0  0  0  0  0  0  0  0  0  0  0
  131.4720  134.2620  161.0098 C   0  0  0  0  0  0  0  0  0  0  0  0
  132.8796  134.8346  161.1877 C   0  0  1  0  0  0  0  0  0  0  0  0
  132.9167  136.2702  160.6593 C   0  0  0  0  0  0  0  0  0  0  0  0
  133.3124  137.2245  161.7934 C   0  0  1  0  0  0  0  0  0  0  0  0
  133.2948  138.2593  161.4513 H   0  0  0  0  0  0  0  0  0  0  0  0
  132.3332  137.0182  162.9394 C   0  0  0  0  0  0  0  0  0  0  0  0
  132.3010  135.7695  163.3990 C   0  0  0  0  0  0  0  0  0  0  0  0
  133.2504  134.8260  162.6763 C   0  0  2  0  0  0  0  0  0  0  0  0
  134.6701  135.3906  162.8229 C   0  0  0  0  0  0  0  0  0  0  0  0
  134.7073  136.8259  162.2946 C   0  0  0  0  0  0  0  0  0  0  0  0
  129.3615  133.8329  158.0406 N   0  0  0  0  0  0  0  0  0  0  0  0
  130.2904  133.0719  157.2015 C   0  0  1  0  0  0  0  0  0  0  0  0
  130.2748  131.6001  157.6252 C   0  0  0  0  0  0  0  0  0  0  0  0
  131.1911  130.8025  156.6900 C   0  0  0  0  0  0  0  0  0  0  0  0
  130.7268  130.9971  155.2441 C   0  0  0  0  0  0  0  0  0  0  0  0
  130.7350  132.3902  154.9260 O   0  0  0  0  0  0  0  0  0  0  0  0
  129.8609  133.1789  155.7360 C   0  0  0  0  0  0  0  0  0  0  0  0
  126.8128  135.6621  160.9404 C   0  0  0  0  0  0  0  0  0  0  0  0
  125.4484  135.1940  161.1498 N   0  0  0  0  0  0  0  0  0  0  0  0
  125.6892  132.7746  159.2423 H   0  0  0  0  0  0  0  0  0  0  0  0
  125.7421  131.9472  160.8166 H   0  0  0  0  0  0  0  0  0  0  0  0
  128.0156  132.6278  159.8630 H   0  0  0  0  0  0  0  0  0  0  0  0
  127.6769  133.2183  161.5100 H   0  0  0  0  0  0  0  0  0  0  0  0
  131.8100  134.1778  158.9154 H   0  0  0  0  0  0  0  0  0  0  0  0
  130.7590  134.8713  161.5654 H   0  0  0  0  0  0  0  0  0  0  0  0
  131.4457  133.2391  161.3851 H   0  0  0  0  0  0  0  0  0  0  0  0
  133.5924  134.2247  160.6325 H   0  0  0  0  0  0  0  0  0  0  0  0
  133.6469  136.3418  159.8533 H   0  0  0  0  0  0  0  0  0  0  0  0
  131.9314  136.5438  160.2821 H   0  0  0  0  0  0  0  0  0  0  0  0
  131.7213  137.8114  163.3428 H   0  0  0  0  0  0  0  0  0  0  0  0
  131.6601  135.4553  164.2094 H   0  0  0  0  0  0  0  0  0  0  0  0
  133.1801  133.8186  163.0862 H   0  0  0  0  0  0  0  0  0  0  0  0
  134.9571  135.3834  163.8744 H   0  0  0  0  0  0  0  0  0  0  0  0
  135.3662  134.7756  162.2524 H   0  0  0  0  0  0  0  0  0  0  0  0
  135.4210  136.8923  161.4733 H   0  0  0  0  0  0  0  0  0  0  0  0
  135.0118  137.4998  163.0953 H   0  0  0  0  0  0  0  0  0  0  0  0
  128.4344  133.9307  157.7725 H   0  0  0  0  0  0  0  0  0  0  0  0
  131.2972  133.4734  157.3163 H   0  0  0  0  0  0  0  0  0  0  0  0
  130.6328  131.5121  158.6510 H   0  0  0  0  0  0  0  0  0  0  0  0
  129.2584  131.2119  157.5579 H   0  0  0  0  0  0  0  0  0  0  0  0
  131.1434  129.7447  156.9485 H   0  0  0  0  0  0  0  0  0  0  0  0
  132.2165  131.1571  156.7940 H   0  0  0  0  0  0  0  0  0  0  0  0
  129.7163  130.6044  155.1308 H   0  0  0  0  0  0  0  0  0  0  0  0
  131.4007  130.4666  154.5714 H   0  0  0  0  0  0  0  0  0  0  0  0
  128.8391  132.8147  155.6291 H   0  0  0  0  0  0  0  0  0  0  0  0
  129.9108  134.2201  155.4176 H   0  0  0  0  0  0  0  0  0  0  0  0
  127.3371  135.6831  161.8958 H   0  0  0  0  0  0  0  0  0  0  0  0
  126.7883  136.6691  160.5241 H   0  0  0  0  0  0  0  0  0  0  0  0
  124.8001  135.8248  161.5000 H   0  0  0  0  0  0  0  0  0  0  0  0
  1  2  2  0
  2 29  1  0
  2  3  1  0
  3  4  1  0
  3 30  1  0
  3 31  1  0
  4  5  1  0
  4 32  1  0
  4 33  1  0
  5  6  1  6
  5  7  1  0
  5 28  1  0
  7  8  1  0
  9  7  2  0
  9 10  1  0
  9 21  1  0
 10 11  1  0
 10 34  1  0
 11 12  1  0
 11 35  1  0
 11 36  1  0
 12 18  1  0
 12 13  1  0
 12 37  1  6
 13 14  1  0
 13 38  1  0
 13 39  1  0
 14 15  1  6
 14 20  1  0
 14 16  1  0
 16 17  2  0
 16 40  1  0
 17 18  1  0
 17 41  1  0
 18 19  1  0
 18 42  1  1
 19 20  1  0
 19 43  1  0
 19 44  1  0
 20 45  1  0
 20 46  1  0
 21 22  1  0
 21 47  1  0
 22 27  1  0
 22 23  1  0
 22 48  1  6
 23 24  1  0
 23 49  1  0
 23 50  1  0
 24 25  1  0
 24 51  1  0
 24 52  1  0
 25 26  1  0
 25 53  1  0
 25 54  1  0
 26 27  1  0
 27 55  1  0
 27 56  1  0
 28 29  1  0
 28 57  1  0
 28 58  1  0
 29 59  1  0
M  CHG  1   7   1
M  END
>  <DOCK_score>  (1) 
-41.556519

>  <SMILES>  (1) 
O=C1CC[C@H]([NH+]=C(NCC2C[C@H]3C=CC2CC3)NC2CCCOC2)CN1

$$$$
