O=C1CC[C@H](NC(NC2CC(F)(F)C2)=[NH+]C2(Cc3ccc(Br)cc3)CC2)CN1
     RDKit          3D

 54 57  0  0  1  0  0  0  0  0999 V2000
  123.8196  133.6484  161.6700 O   0  0  0  0  0  0  0  0  0  0  0  0
  124.9997  133.8845  161.5195 C   0  0  0  0  0  0  0  0  0  0  0  0
  125.8878  132.7798  161.0236 C   0  0  0  0  0  0  0  0  0  0  0  0
  127.3523  133.1201  161.3114 C   0  0  0  0  0  0  0  0  0  0  0  0
  127.6211  134.5508  160.8295 C   0  0  2  0  0  0  0  0  0  0  0  0
  127.3001  134.6541  159.7930 H   0  0  0  0  0  0  0  0  0  0  0  0
  129.0530  134.8431  160.9321 N   0  0  0  0  0  0  0  0  0  0  0  0
  129.8867  134.5767  159.8719 C   0  0  0  0  0  0  0  0  0  0  0  0
  129.3765  134.0358  158.7154 N   0  0  0  0  0  0  0  0  0  0  0  0
  130.2649  133.7519  157.5856 C   0  0  0  0  0  0  0  0  0  0  0  0
  129.5210  133.3260  156.3089 C   0  0  0  0  0  0  0  0  0  0  0  0
  130.6444  132.2954  156.0945 C   0  0  0  0  0  0  0  0  0  0  0  0
  131.7242  132.7915  155.3564 F   0  0  0  0  0  0  0  0  0  0  0  0
  130.1910  131.0567  155.6282 F   0  0  0  0  0  0  0  0  0  0  0  0
  130.8667  132.3370  157.6156 C   0  0  0  0  0  0  0  0  0  0  0  0
  131.1606  134.8367  159.9632 N   0  0  0  0  0  0  0  0  0  0  0  0
  131.6654  135.0731  159.1693 H   0  0  0  0  0  0  0  0  0  0  0  0
  131.8300  134.7722  161.2646 C   0  0  0  0  0  0  0  0  0  0  0  0
  131.9350  136.0990  162.0192 C   0  0  0  0  0  0  0  0  0  0  0  0
  132.7134  137.0880  161.1903 C   0  0  0  0  0  0  0  0  0  0  0  0
  134.0872  137.1697  161.3216 C   0  0  0  0  0  0  0  0  0  0  0  0
  134.8010  138.0802  160.5654 C   0  0  0  0  0  0  0  0  0  0  0  0
  134.1417  138.9028  159.6699 C   0  0  0  0  0  0  0  0  0  0  0  0
  135.1184  140.1442  158.6302 Br  0  0  0  0  0  0  0  0  0  0  0  0
  132.7672  138.8205  159.5386 C   0  0  0  0  0  0  0  0  0  0  0  0
  132.0536  137.9130  160.2986 C   0  0  0  0  0  0  0  0  0  0  0  0
  131.6412  133.5007  162.0944 C   0  0  0  0  0  0  0  0  0  0  0  0
  132.9844  133.7796  161.4169 C   0  0  0  0  0  0  0  0  0  0  0  0
  126.8349  135.5207  161.7127 C   0  0  0  0  0  0  0  0  0  0  0  0
  125.4389  135.1113  161.8029 N   0  0  0  0  0  0  0  0  0  0  0  0
  125.7488  132.6580  159.9494 H   0  0  0  0  0  0  0  0  0  0  0  0
  125.6257  131.8510  161.5302 H   0  0  0  0  0  0  0  0  0  0  0  0
  128.0019  132.4255  160.7788 H   0  0  0  0  0  0  0  0  0  0  0  0
  127.5418  133.0518  162.3826 H   0  0  0  0  0  0  0  0  0  0  0  0
  129.4127  135.2248  161.7481 H   0  0  0  0  0  0  0  0  0  0  0  0
  128.4286  133.8423  158.6474 H   0  0  0  0  0  0  0  0  0  0  0  0
  131.0027  134.5368  157.4196 H   0  0  0  0  0  0  0  0  0  0  0  0
  128.5467  132.8763  156.5008 H   0  0  0  0  0  0  0  0  0  0  0  0
  129.4869  134.1017  155.5439 H   0  0  0  0  0  0  0  0  0  0  0  0
  131.9176  132.3157  157.9040 H   0  0  0  0  0  0  0  0  0  0  0  0
  130.2610  131.6165  158.1653 H   0  0  0  0  0  0  0  0  0  0  0  0
  132.4468  135.9379  162.9680 H   0  0  0  0  0  0  0  0  0  0  0  0
  130.9353  136.4901  162.2076 H   0  0  0  0  0  0  0  0  0  0  0  0
  134.6022  136.5250  162.0183 H   0  0  0  0  0  0  0  0  0  0  0  0
  135.8738  138.1468  160.6711 H   0  0  0  0  0  0  0  0  0  0  0  0
  132.2515  139.4655  158.8425 H   0  0  0  0  0  0  0  0  0  0  0  0
  130.9804  137.8487  160.1961 H   0  0  0  0  0  0  0  0  0  0  0  0
  131.5919  133.6095  163.1777 H   0  0  0  0  0  0  0  0  0  0  0  0
  131.0188  132.7118  161.6721 H   0  0  0  0  0  0  0  0  0  0  0  0
  133.2456  133.1744  160.5487 H   0  0  0  0  0  0  0  0  0  0  0  0
  133.8187  134.0720  162.0546 H   0  0  0  0  0  0  0  0  0  0  0  0
  127.2717  135.5336  162.7113 H   0  0  0  0  0  0  0  0  0  0  0  0
  126.8898  136.5221  161.2858 H   0  0  0  0  0  0  0  0  0  0  0  0
  124.7887  135.7727  162.0868 H   0  0  0  0  0  0  0  0  0  0  0  0
  1  2  2  0
  2 30  1  0
  2  3  1  0
  3  4  1  0
  3 31  1  0
  3 32  1  0
  4  5  1  0
  4 33  1  0
  4 34  1  0
  5  6  1  6
  5  7  1  0
  5 29  1  0
  7 35  1  0
  8  7  1  0
  8  9  1  0
  8 16  2  0
  9 10  1  0
  9 36  1  0
 10 15  1  0
 10 11  1  0
 10 37  1  0
 11 12  1  0
 11 38  1  0
 11 39  1  0
 12 13  1  0
 12 14  1  0
 12 15  1  0
 15 40  1  0
 15 41  1  0
 16 17  1  0
 16 18  1  0
 18 28  1  0
 18 19  1  0
 18 27  1  0
 19 20  1  0
 19 42  1  0
 19 43  1  0
 20 26  1  0
 20 21  2  0
 21 22  1  0
 21 44  1  0
 22 23  2  0
 22 45  1  0
 23 24  1  0
 23 25  1  0
 25 26  2  0
 25 46  1  0
 26 47  1  0
 27 28  1  0
 27 48  1  0
 27 49  1  0
 28 50  1  0
 28 51  1  0
 29 30  1  0
 29 52  1  0
 29 53  1  0
 30 54  1  0
M  CHG  1  16   1
M  END
>  <DOCK_score>  (1) 
-47.87022

>  <SMILES>  (1) 
O=C1CC[C@H](NC(NC2CC(F)(F)C2)=[NH+]C2(Cc3ccc(Br)cc3)CC2)CN1

$$$$
