CN1CC[NH+]=C1NCc1ccc(CNC2c3cc(O)ccc3-c3ccc(O)cc32)cc1
     RDKit          3D

 58 62  0  0  1  0  0  0  0  0999 V2000
  135.7375  140.0656  159.7603 C   0  0  0  0  0  0  0  0  0  0  0  0
  135.7556  140.4900  161.1624 N   0  0  0  0  0  0  0  0  0  0  0  0
  136.7721  141.3518  161.7886 C   0  0  0  0  0  0  0  0  0  0  0  0
  136.2922  141.4608  163.2496 C   0  0  0  0  0  0  0  0  0  0  0  0
  135.0655  140.6524  163.2823 N   0  0  0  0  0  0  0  0  0  0  0  0
  134.5123  140.5133  164.0669 H   0  0  0  0  0  0  0  0  0  0  0  0
  134.8316  140.1528  162.1128 C   0  0  0  0  0  0  0  0  0  0  0  0
  133.7467  139.3509  161.8474 N   0  0  0  0  0  0  0  0  0  0  0  0
  132.7951  139.0295  162.9138 C   0  0  0  0  0  0  0  0  0  0  0  0
  131.7072  138.1423  162.3657 C   0  0  0  0  0  0  0  0  0  0  0  0
  130.5603  138.7026  161.8350 C   0  0  0  0  0  0  0  0  0  0  0  0
  129.5648  137.8889  161.3274 C   0  0  0  0  0  0  0  0  0  0  0  0
  129.7112  136.5146  161.3604 C   0  0  0  0  0  0  0  0  0  0  0  0
  128.6236  135.6275  160.8118 C   0  0  0  0  0  0  0  0  0  0  0  0
  128.1675  136.1547  159.5187 N   0  0  0  0  0  0  0  0  0  0  0  0
  127.4819  135.1156  158.7389 C   0  0  0  0  0  0  0  0  0  0  0  0
  126.3286  134.5483  159.5300 C   0  0  0  0  0  0  0  0  0  0  0  0
  125.1883  135.1258  160.0448 C   0  0  0  0  0  0  0  0  0  0  0  0
  124.2750  134.3518  160.7481 C   0  0  0  0  0  0  0  0  0  0  0  0
  123.1502  134.9208  161.2554 O   0  0  0  0  0  0  0  0  0  0  0  0
  124.5112  132.9961  160.9325 C   0  0  0  0  0  0  0  0  0  0  0  0
  125.6506  132.4149  160.4193 C   0  0  0  0  0  0  0  0  0  0  0  0
  126.5723  133.1892  159.7110 C   0  0  0  0  0  0  0  0  0  0  0  0
  127.8573  132.8272  159.0634 C   0  0  0  0  0  0  0  0  0  0  0  0
  128.5266  131.6046  158.9702 C   0  0  0  0  0  0  0  0  0  0  0  0
  129.7299  131.5259  158.3030 C   0  0  0  0  0  0  0  0  0  0  0  0
  130.2813  132.6596  157.7212 C   0  0  0  0  0  0  0  0  0  0  0  0
  131.4676  132.5775  157.0635 O   0  0  0  0  0  0  0  0  0  0  0  0
  129.6203  133.8772  157.8116 C   0  0  0  0  0  0  0  0  0  0  0  0
  128.4168  133.9601  158.4778 C   0  0  0  0  0  0  0  0  0  0  0  0
  130.8557  135.9543  161.8963 C   0  0  0  0  0  0  0  0  0  0  0  0
  131.8537  136.7681  162.3987 C   0  0  0  0  0  0  0  0  0  0  0  0
  136.2867  139.1298  159.6568 H   0  0  0  0  0  0  0  0  0  0  0  0
  134.7064  139.9194  159.4384 H   0  0  0  0  0  0  0  0  0  0  0  0
  136.2057  140.8320  159.1426 H   0  0  0  0  0  0  0  0  0  0  0  0
  137.7554  140.8839  161.7407 H   0  0  0  0  0  0  0  0  0  0  0  0
  136.7887  142.3335  161.3150 H   0  0  0  0  0  0  0  0  0  0  0  0
  137.0391  141.0497  163.9289 H   0  0  0  0  0  0  0  0  0  0  0  0
  136.0732  142.4980  163.5035 H   0  0  0  0  0  0  0  0  0  0  0  0
  133.6115  138.9980  160.9541 H   0  0  0  0  0  0  0  0  0  0  0  0
  133.3143  138.5117  163.7202 H   0  0  0  0  0  0  0  0  0  0  0  0
  132.3547  139.9498  163.2973 H   0  0  0  0  0  0  0  0  0  0  0  0
  130.4438  139.7760  161.8132 H   0  0  0  0  0  0  0  0  0  0  0  0
  128.6707  138.3266  160.9084 H   0  0  0  0  0  0  0  0  0  0  0  0
  129.0122  134.6182  160.6759 H   0  0  0  0  0  0  0  0  0  0  0  0
  127.7870  135.6040  161.5101 H   0  0  0  0  0  0  0  0  0  0  0  0
  128.9360  136.5497  158.9977 H   0  0  0  0  0  0  0  0  0  0  0  0
  127.1241  135.5292  157.7960 H   0  0  0  0  0  0  0  0  0  0  0  0
  125.0051  136.1804  159.9014 H   0  0  0  0  0  0  0  0  0  0  0  0
  123.0731  135.8678  161.0761 H   0  0  0  0  0  0  0  0  0  0  0  0
  123.7999  132.3951  161.4795 H   0  0  0  0  0  0  0  0  0  0  0  0
  125.8306  131.3598  160.5645 H   0  0  0  0  0  0  0  0  0  0  0  0
  128.1008  130.7206  159.4214 H   0  0  0  0  0  0  0  0  0  0  0  0
  130.2454  130.5796  158.2323 H   0  0  0  0  0  0  0  0  0  0  0  0
  131.7707  133.4175  156.6926 H   0  0  0  0  0  0  0  0  0  0  0  0
  130.0489  134.7593  157.3592 H   0  0  0  0  0  0  0  0  0  0  0  0
  130.9702  134.8808  161.9221 H   0  0  0  0  0  0  0  0  0  0  0  0
  132.7479  136.3303  162.8174 H   0  0  0  0  0  0  0  0  0  0  0  0
  1  2  1  0
  1 33  1  0
  1 34  1  0
  1 35  1  0
  2  7  1  0
  2  3  1  0
  3  4  1  0
  3 36  1  0
  3 37  1  0
  4  5  1  0
  4 38  1  0
  4 39  1  0
  5  6  1  0
  5  7  2  0
  7  8  1  0
  8  9  1  0
  8 40  1  0
  9 10  1  0
  9 41  1  0
  9 42  1  0
 10 32  1  0
 10 11  2  0
 11 12  1  0
 11 43  1  0
 12 13  2  0
 12 44  1  0
 13 14  1  0
 13 31  1  0
 14 15  1  0
 14 45  1  0
 14 46  1  0
 15 16  1  0
 15 47  1  0
 16 30  1  0
 16 17  1  0
 16 48  1  0
 17 23  1  0
 17 18  2  0
 18 19  1  0
 18 49  1  0
 19 20  1  0
 19 21  2  0
 20 50  1  0
 21 22  1  0
 21 51  1  0
 22 23  2  0
 22 52  1  0
 23 24  1  0
 24 30  2  0
 24 25  1  0
 25 26  2  0
 25 53  1  0
 26 27  1  0
 26 54  1  0
 27 28  1  0
 27 29  2  0
 28 55  1  0
 29 30  1  0
 29 56  1  0
 31 32  2  0
 31 57  1  0
 32 58  1  0
M  CHG  1   5   1
M  END
>  <DOCK_score>  (1) 
-42.566128

>  <SMILES>  (1) 
CN1CC[NH+]=C1NCc1ccc(CNC2c3cc(O)ccc3-c3ccc(O)cc32)cc1

$$$$
