CC=C[C@@H](Nc1[nH]cc(-c2ccc(-c3ccccc3)cc2)[nH+]1)c1ccccc1
     RDKit          3D

 52 55  0  0  1  0  0  0  0  0999 V2000
  126.8373  134.6974  161.4670 C   0  0  0  0  0  0  0  0  0  0  0  0
  128.2881  135.0864  161.5883 C   0  0  0  0  0  0  0  0  0  0  0  0
  128.8392  135.8521  160.6794 C   0  0  0  0  0  0  0  0  0  0  0  0
  130.2901  136.2411  160.8008 C   0  0  1  0  0  0  0  0  0  0  0  0
  130.7120  135.7945  161.7012 H   0  0  0  0  0  0  0  0  0  0  0  0
  131.0243  135.7609  159.6274 N   0  0  0  0  0  0  0  0  0  0  0  0
  130.7435  134.5131  159.0982 C   0  0  0  0  0  0  0  0  0  0  0  0
  130.3029  133.4345  159.8018 N   0  0  0  0  0  0  0  0  0  0  0  0
  130.1304  133.4024  160.7558 H   0  0  0  0  0  0  0  0  0  0  0  0
  130.1470  132.4001  158.9118 C   0  0  0  0  0  0  0  0  0  0  0  0
  130.4965  132.8758  157.6902 C   0  0  0  0  0  0  0  0  0  0  0  0
  130.4856  132.1112  156.4202 C   0  0  0  0  0  0  0  0  0  0  0  0
  129.6869  132.5347  155.3579 C   0  0  0  0  0  0  0  0  0  0  0  0
  129.6773  131.8245  154.1778 C   0  0  0  0  0  0  0  0  0  0  0  0
  130.4666  130.6816  154.0453 C   0  0  0  0  0  0  0  0  0  0  0  0
  130.4558  129.9176  152.7742 C   0  0  0  0  0  0  0  0  0  0  0  0
  130.6834  128.5425  152.7833 C   0  0  0  0  0  0  0  0  0  0  0  0
  130.6729  127.8362  151.5978 C   0  0  0  0  0  0  0  0  0  0  0  0
  130.4363  128.4905  150.4018 C   0  0  0  0  0  0  0  0  0  0  0  0
  130.2154  129.8557  150.3863 C   0  0  0  0  0  0  0  0  0  0  0  0
  130.2188  130.5715  151.5663 C   0  0  0  0  0  0  0  0  0  0  0  0
  131.2609  130.2558  155.1088 C   0  0  0  0  0  0  0  0  0  0  0  0
  131.2744  130.9685  156.2873 C   0  0  0  0  0  0  0  0  0  0  0  0
  130.8636  134.1738  157.8379 N   0  0  0  0  0  0  0  0  0  0  0  0
  131.1640  134.7581  157.1243 H   0  0  0  0  0  0  0  0  0  0  0  0
  130.4025  137.7416  160.8843 C   0  0  0  0  0  0  0  0  0  0  0  0
  130.5434  138.4894  159.7303 C   0  0  0  0  0  0  0  0  0  0  0  0
  130.6426  139.8661  159.8066 C   0  0  0  0  0  0  0  0  0  0  0  0
  130.6091  140.4942  161.0376 C   0  0  0  0  0  0  0  0  0  0  0  0
  130.4735  139.7460  162.1919 C   0  0  0  0  0  0  0  0  0  0  0  0
  130.3705  138.3697  162.1153 C   0  0  0  0  0  0  0  0  0  0  0  0
  126.2190  135.5952  161.4689 H   0  0  0  0  0  0  0  0  0  0  0  0
  126.6839  134.1525  160.5355 H   0  0  0  0  0  0  0  0  0  0  0  0
  126.5595  134.0633  162.3089 H   0  0  0  0  0  0  0  0  0  0  0  0
  128.8737  134.7339  162.4247 H   0  0  0  0  0  0  0  0  0  0  0  0
  128.2538  136.2046  159.8431 H   0  0  0  0  0  0  0  0  0  0  0  0
  131.7071  136.3175  159.2215 H   0  0  0  0  0  0  0  0  0  0  0  0
  129.8104  131.3997  159.1405 H   0  0  0  0  0  0  0  0  0  0  0  0
  129.0759  133.4193  155.4608 H   0  0  0  0  0  0  0  0  0  0  0  0
  129.0589  132.1524  153.3553 H   0  0  0  0  0  0  0  0  0  0  0  0
  130.8672  128.0307  153.7165 H   0  0  0  0  0  0  0  0  0  0  0  0
  130.8491  126.7707  151.6036 H   0  0  0  0  0  0  0  0  0  0  0  0
  130.4289  127.9340  149.4763 H   0  0  0  0  0  0  0  0  0  0  0  0
  130.0359  130.3619  149.4493 H   0  0  0  0  0  0  0  0  0  0  0  0
  130.0419  131.6368  151.5533 H   0  0  0  0  0  0  0  0  0  0  0  0
  131.8687  129.3688  155.0070 H   0  0  0  0  0  0  0  0  0  0  0  0
  131.8931  130.6407  157.1095 H   0  0  0  0  0  0  0  0  0  0  0  0
  130.5730  137.9984  158.7689 H   0  0  0  0  0  0  0  0  0  0  0  0
  130.7490  140.4508  158.9048 H   0  0  0  0  0  0  0  0  0  0  0  0
  130.6893  141.5697  161.0974 H   0  0  0  0  0  0  0  0  0  0  0  0
  130.4476  140.2367  163.1536 H   0  0  0  0  0  0  0  0  0  0  0  0
  130.2644  137.7850  163.0173 H   0  0  0  0  0  0  0  0  0  0  0  0
  1  2  1  0
  1 32  1  0
  1 33  1  0
  1 34  1  0
  2  3  2  0
  2 35  1  0
  3  4  1  0
  3 36  1  0
  4  5  1  1
  4  6  1  0
  4 26  1  0
  6 37  1  0
  7  6  1  0
  7 24  2  0
  7  8  1  0
  8  9  1  0
  8 10  1  0
 10 11  2  0
 10 38  1  0
 11 12  1  0
 11 24  1  0
 12 23  1  0
 12 13  2  0
 13 14  1  0
 13 39  1  0
 14 15  2  0
 14 40  1  0
 15 16  1  0
 15 22  1  0
 16 21  1  0
 16 17  2  0
 17 18  1  0
 17 41  1  0
 18 19  2  0
 18 42  1  0
 19 20  1  0
 19 43  1  0
 20 21  2  0
 20 44  1  0
 21 45  1  0
 22 23  2  0
 22 46  1  0
 23 47  1  0
 24 25  1  0
 26 31  1  0
 26 27  2  0
 27 28  1  0
 27 48  1  0
 28 29  2  0
 28 49  1  0
 29 30  1  0
 29 50  1  0
 30 31  2  0
 30 51  1  0
 31 52  1  0
M  CHG  1  24   1
M  END
>  <DOCK_score>  (1) 
-58.776283

>  <SMILES>  (1) 
CC=C[C@@H](Nc1[nH]cc(-c2ccc(-c3ccccc3)cc2)[nH+]1)c1ccccc1

$$$$
