CCc1ccc(-c2c[nH]c(N[C@@H](c3ccc(F)cc3)c3cccnc3-c3ccc(F)cc3)[nH+]2)cc1
     RDKit          3D

 60 64  0  0  1  0  0  0  0  0999 V2000
  130.0094  129.0562  151.2629 C   0  0  0  0  0  0  0  0  0  0  0  0
  131.3066  129.6680  151.7958 C   0  0  0  0  0  0  0  0  0  0  0  0
  131.0360  130.3522  153.1110 C   0  0  0  0  0  0  0  0  0  0  0  0
  131.1552  129.6441  154.2934 C   0  0  0  0  0  0  0  0  0  0  0  0
  130.9142  130.2670  155.5012 C   0  0  0  0  0  0  0  0  0  0  0  0
  130.5391  131.6091  155.5274 C   0  0  0  0  0  0  0  0  0  0  0  0
  130.2734  132.2827  156.8219 C   0  0  0  0  0  0  0  0  0  0  0  0
  129.8055  131.6904  157.9484 C   0  0  0  0  0  0  0  0  0  0  0  0
  129.7069  132.6726  158.9037 N   0  0  0  0  0  0  0  0  0  0  0  0
  129.4005  132.5573  159.8168 H   0  0  0  0  0  0  0  0  0  0  0  0
  130.1178  133.8375  158.3324 C   0  0  0  0  0  0  0  0  0  0  0  0
  130.1703  135.0695  158.9615 N   0  0  0  0  0  0  0  0  0  0  0  0
  129.7613  135.1945  160.3627 C   0  0  1  0  0  0  0  0  0  0  0  0
  130.1181  134.3310  160.9238 H   0  0  0  0  0  0  0  0  0  0  0  0
  130.3504  136.4522  160.9477 C   0  0  0  0  0  0  0  0  0  0  0  0
  131.5898  136.4147  161.5593 C   0  0  0  0  0  0  0  0  0  0  0  0
  132.1332  137.5684  162.0919 C   0  0  0  0  0  0  0  0  0  0  0  0
  131.4313  138.7599  162.0222 C   0  0  0  0  0  0  0  0  0  0  0  0
  131.9595  139.8872  162.5468 F   0  0  0  0  0  0  0  0  0  0  0  0
  130.1879  138.7950  161.4141 C   0  0  0  0  0  0  0  0  0  0  0  0
  129.6487  137.6412  160.8775 C   0  0  0  0  0  0  0  0  0  0  0  0
  128.2578  135.2595  160.4432 C   0  0  0  0  0  0  0  0  0  0  0  0
  127.4901  135.2000  159.2929 C   0  0  0  0  0  0  0  0  0  0  0  0
  126.1091  135.2588  159.4144 C   0  0  0  0  0  0  0  0  0  0  0  0
  125.5435  135.3846  160.6699 C   0  0  0  0  0  0  0  0  0  0  0  0
  126.2976  135.4443  161.7486 N   0  0  0  0  0  0  0  0  0  0  0  0
  127.6212  135.3864  161.6760 C   0  0  0  0  0  0  0  0  0  0  0  0
  128.4298  135.4567  162.9173 C   0  0  0  0  0  0  0  0  0  0  0  0
  128.3515  136.5792  163.7399 C   0  0  0  0  0  0  0  0  0  0  0  0
  129.1010  136.6378  164.8965 C   0  0  0  0  0  0  0  0  0  0  0  0
  129.9398  135.5880  165.2349 C   0  0  0  0  0  0  0  0  0  0  0  0
  130.6767  135.6522  166.3654 F   0  0  0  0  0  0  0  0  0  0  0  0
  130.0248  134.4724  164.4174 C   0  0  0  0  0  0  0  0  0  0  0  0
  129.2745  134.4028  163.2618 C   0  0  0  0  0  0  0  0  0  0  0  0
  130.4610  133.5993  157.0901 N   0  0  0  0  0  0  0  0  0  0  0  0
  130.7938  134.2595  156.4621 H   0  0  0  0  0  0  0  0  0  0  0  0
  130.4152  132.3161  154.3326 C   0  0  0  0  0  0  0  0  0  0  0  0
  130.6642  131.6844  153.1310 C   0  0  0  0  0  0  0  0  0  0  0  0
  129.2694  129.8432  151.1176 H   0  0  0  0  0  0  0  0  0  0  0  0
  130.2050  128.5613  150.3116 H   0  0  0  0  0  0  0  0  0  0  0  0
  129.6296  128.3282  151.9799 H   0  0  0  0  0  0  0  0  0  0  0  0
  132.0466  128.8809  151.9412 H   0  0  0  0  0  0  0  0  0  0  0  0
  131.6863  130.3958  151.0789 H   0  0  0  0  0  0  0  0  0  0  0  0
  131.4412  128.6029  154.2716 H   0  0  0  0  0  0  0  0  0  0  0  0
  131.0121  129.7144  156.4238 H   0  0  0  0  0  0  0  0  0  0  0  0
  129.5574  130.6463  158.0710 H   0  0  0  0  0  0  0  0  0  0  0  0
  130.4781  135.8499  158.4745 H   0  0  0  0  0  0  0  0  0  0  0  0
  132.1353  135.4845  161.6172 H   0  0  0  0  0  0  0  0  0  0  0  0
  133.1031  137.5397  162.5660 H   0  0  0  0  0  0  0  0  0  0  0  0
  129.6393  139.7238  161.3596 H   0  0  0  0  0  0  0  0  0  0  0  0
  128.6791  137.6685  160.4030 H   0  0  0  0  0  0  0  0  0  0  0  0
  127.9556  135.1063  158.3228 H   0  0  0  0  0  0  0  0  0  0  0  0
  125.4821  135.2108  158.5363 H   0  0  0  0  0  0  0  0  0  0  0  0
  124.4692  135.4352  160.7675 H   0  0  0  0  0  0  0  0  0  0  0  0
  127.7019  137.4001  163.4742 H   0  0  0  0  0  0  0  0  0  0  0  0
  129.0376  137.5052  165.5368 H   0  0  0  0  0  0  0  0  0  0  0  0
  130.6796  133.6563  164.6852 H   0  0  0  0  0  0  0  0  0  0  0  0
  129.3413  133.5329  162.6252 H   0  0  0  0  0  0  0  0  0  0  0  0
  130.1245  133.3562  154.3470 H   0  0  0  0  0  0  0  0  0  0  0  0
  130.5688  132.2313  152.2047 H   0  0  0  0  0  0  0  0  0  0  0  0
  1  2  1  0
  1 39  1  0
  1 40  1  0
  1 41  1  0
  2  3  1  0
  2 42  1  0
  2 43  1  0
  3 38  2  0
  3  4  1  0
  4  5  2  0
  4 44  1  0
  5  6  1  0
  5 45  1  0
  6  7  1  0
  6 37  2  0
  7 35  1  0
  7  8  2  0
  8  9  1  0
  8 46  1  0
  9 10  1  0
  9 11  1  0
 11 12  1  0
 11 35  2  0
 12 13  1  0
 12 47  1  0
 13 14  1  1
 13 15  1  0
 13 22  1  0
 15 21  1  0
 15 16  2  0
 16 17  1  0
 16 48  1  0
 17 18  2  0
 17 49  1  0
 18 19  1  0
 18 20  1  0
 20 21  2  0
 20 50  1  0
 21 51  1  0
 22 27  1  0
 22 23  2  0
 23 24  1  0
 23 52  1  0
 24 25  2  0
 24 53  1  0
 25 26  1  0
 25 54  1  0
 26 27  2  0
 27 28  1  0
 28 34  1  0
 28 29  2  0
 29 30  1  0
 29 55  1  0
 30 31  2  0
 30 56  1  0
 31 32  1  0
 31 33  1  0
 33 34  2  0
 33 57  1  0
 34 58  1  0
 35 36  1  0
 37 38  1  0
 37 59  1  0
 38 60  1  0
M  CHG  1  35   1
M  END
>  <DOCK_score>  (1) 
-57.339508

>  <SMILES>  (1) 
CCc1ccc(-c2c[nH]c(N[C@@H](c3ccc(F)cc3)c3cccnc3-c3ccc(F)cc3)[nH+]2)cc1

$$$$
