C=C/C=C/CNc1ccc(-c2n[nH]cc2C[NH2+]C[C@H]2C[C@H]3CC[C@H]3C2)cc1
     RDKit          3D

 58 61  0  0  1  0  0  0  0  0999 V2000
  130.0331  128.4798  150.8060 C   0  0  0  0  0  0  0  0  0  0  0  0
  130.6743  128.8524  151.9086 C   0  0  0  0  0  0  0  0  0  0  0  0
  130.2295  130.0415  152.6519 C   0  0  0  0  0  0  0  0  0  0  0  0
  130.8708  130.4140  153.7545 C   0  0  0  0  0  0  0  0  0  0  0  0
  130.4150  131.6320  154.5159 C   0  0  0  0  0  0  0  0  0  0  0  0
  130.0421  131.2446  155.8787 N   0  0  0  0  0  0  0  0  0  0  0  0
  129.5855  132.2096  156.7785 C   0  0  0  0  0  0  0  0  0  0  0  0
  129.2316  131.8411  158.0712 C   0  0  0  0  0  0  0  0  0  0  0  0
  128.7800  132.7924  158.9611 C   0  0  0  0  0  0  0  0  0  0  0  0
  128.6790  134.1245  158.5639 C   0  0  0  0  0  0  0  0  0  0  0  0
  128.1932  135.1501  159.5201 C   0  0  0  0  0  0  0  0  0  0  0  0
  127.0180  135.1614  160.1129 N   0  0  0  0  0  0  0  0  0  0  0  0
  126.9553  136.2948  160.9335 N   0  0  0  0  0  0  0  0  0  0  0  0
  126.2036  136.5543  161.4890 H   0  0  0  0  0  0  0  0  0  0  0  0
  128.1249  136.9602  160.8217 C   0  0  0  0  0  0  0  0  0  0  0  0
  128.9084  136.2836  159.9537 C   0  0  0  0  0  0  0  0  0  0  0  0
  130.3021  136.6694  159.5296 C   0  0  0  0  0  0  0  0  0  0  0  0
  131.0800  137.0689  160.7099 N   0  0  0  0  0  0  0  0  0  0  0  0
  130.6340  137.8565  161.1557 H   0  0  0  0  0  0  0  0  0  0  0  0
  131.1273  136.2976  161.3586 H   0  0  0  0  0  0  0  0  0  0  0  0
  132.4386  137.4451  160.2964 C   0  0  0  0  0  0  0  0  0  0  0  0
  133.2488  137.8613  161.5257 C   0  0  1  0  0  0  0  0  0  0  0  0
  133.0193  137.2011  162.3620 H   0  0  0  0  0  0  0  0  0  0  0  0
  134.7499  137.8035  161.2063 C   0  0  0  0  0  0  0  0  0  0  0  0
  135.3677  139.0731  161.8226 C   0  0  1  0  0  0  0  0  0  0  0  0
  135.9011  138.9328  162.7627 H   0  0  0  0  0  0  0  0  0  0  0  0
  136.0611  139.9649  160.7771 C   0  0  0  0  0  0  0  0  0  0  0  0
  134.6612  140.4726  160.3936 C   0  0  0  0  0  0  0  0  0  0  0  0
  134.2256  140.1145  161.8215 C   0  0  1  0  0  0  0  0  0  0  0  0
  134.3104  140.9129  162.5587 H   0  0  0  0  0  0  0  0  0  0  0  0
  132.9203  139.3132  161.9008 C   0  0  0  0  0  0  0  0  0  0  0  0
  129.0293  134.4911  157.2656 C   0  0  0  0  0  0  0  0  0  0  0  0
  129.4850  133.5376  156.3802 C   0  0  0  0  0  0  0  0  0  0  0  0
  130.3596  127.6070  150.2603 H   0  0  0  0  0  0  0  0  0  0  0  0
  129.1855  129.0501  150.4556 H   0  0  0  0  0  0  0  0  0  0  0  0
  131.5219  128.2822  152.2590 H   0  0  0  0  0  0  0  0  0  0  0  0
  129.3819  130.6116  152.3015 H   0  0  0  0  0  0  0  0  0  0  0  0
  131.7183  129.8438  154.1049 H   0  0  0  0  0  0  0  0  0  0  0  0
  129.5533  132.0725  154.0147 H   0  0  0  0  0  0  0  0  0  0  0  0
  131.2249  132.3605  154.5541 H   0  0  0  0  0  0  0  0  0  0  0  0
  130.1124  130.3177  156.1559 H   0  0  0  0  0  0  0  0  0  0  0  0
  129.3101  130.8087  158.3785 H   0  0  0  0  0  0  0  0  0  0  0  0
  128.5045  132.5055  159.9652 H   0  0  0  0  0  0  0  0  0  0  0  0
  128.3873  137.8740  161.3342 H   0  0  0  0  0  0  0  0  0  0  0  0
  130.7838  135.8186  159.0480 H   0  0  0  0  0  0  0  0  0  0  0  0
  130.2510  137.5027  158.8289 H   0  0  0  0  0  0  0  0  0  0  0  0
  132.9203  136.5943  159.8147 H   0  0  0  0  0  0  0  0  0  0  0  0
  132.3875  138.2783  159.5957 H   0  0  0  0  0  0  0  0  0  0  0  0
  135.1946  136.9149  161.6540 H   0  0  0  0  0  0  0  0  0  0  0  0
  134.9038  137.7975  160.1272 H   0  0  0  0  0  0  0  0  0  0  0  0
  136.6995  140.7332  161.2133 H   0  0  0  0  0  0  0  0  0  0  0  0
  136.5557  139.4040  159.9840 H   0  0  0  0  0  0  0  0  0  0  0  0
  134.1743  139.8721  159.6253 H   0  0  0  0  0  0  0  0  0  0  0  0
  134.6270  141.5413  160.1820 H   0  0  0  0  0  0  0  0  0  0  0  0
  132.1921  139.7211  161.1996 H   0  0  0  0  0  0  0  0  0  0  0  0
  132.5226  139.3527  162.9149 H   0  0  0  0  0  0  0  0  0  0  0  0
  128.9472  135.5221  156.9545 H   0  0  0  0  0  0  0  0  0  0  0  0
  129.7605  133.8219  155.3754 H   0  0  0  0  0  0  0  0  0  0  0  0
  1  2  2  0
  1 34  1  0
  1 35  1  0
  2  3  1  0
  2 36  1  0
  3  4  2  0
  3 37  1  0
  4  5  1  0
  4 38  1  0
  5  6  1  0
  5 39  1  0
  5 40  1  0
  6  7  1  0
  6 41  1  0
  7 33  2  0
  7  8  1  0
  8  9  2  0
  8 42  1  0
  9 10  1  0
  9 43  1  0
 10 11  1  0
 10 32  2  0
 11 16  1  0
 11 12  2  0
 12 13  1  0
 13 14  1  0
 13 15  1  0
 15 16  2  0
 15 44  1  0
 16 17  1  0
 17 18  1  0
 17 45  1  0
 17 46  1  0
 18 19  1  0
 18 20  1  0
 18 21  1  0
 21 22  1  0
 21 47  1  0
 21 48  1  0
 22 23  1  1
 22 31  1  0
 22 24  1  0
 24 25  1  0
 24 49  1  0
 24 50  1  0
 25 26  1  1
 25 29  1  0
 25 27  1  0
 27 28  1  0
 27 51  1  0
 27 52  1  0
 28 29  1  0
 28 53  1  0
 28 54  1  0
 29 30  1  1
 29 31  1  0
 31 55  1  0
 31 56  1  0
 32 33  1  0
 32 57  1  0
 33 58  1  0
M  CHG  1  18   1
M  END
>  <DOCK_score>  (1) 
-46.619267

>  <SMILES>  (1) 
C=C/C=C/CNc1ccc(-c2n[nH]cc2C[NH2+]C[C@H]2C[C@H]3CC[C@H]3C2)cc1

$$$$
