CC1=CCC(NC(N[C@H]2CCC2O)=[NH+]CC(CO)c2cccc(C#N)c2)CC1
     RDKit          3D

 59 61  0  0  1  0  0  0  0  0999 V2000
  136.1778  138.5157  162.7487 C   0  0  0  0  0  0  0  0  0  0  0  0
  134.9766  137.9500  162.0358 C   0  0  0  0  0  0  0  0  0  0  0  0
  134.8501  138.1956  160.7711 C   0  0  0  0  0  0  0  0  0  0  0  0
  133.7159  137.6934  159.9265 C   0  0  0  0  0  0  0  0  0  0  0  0
  132.5561  137.2413  160.8163 C   0  0  1  0  0  0  0  0  0  0  0  0
  131.5689  136.5195  160.0097 N   0  0  0  0  0  0  0  0  0  0  0  0
  130.4337  136.0166  160.6003 C   0  0  0  0  0  0  0  0  0  0  0  0
  129.8931  136.6456  161.6968 N   0  0  0  0  0  0  0  0  0  0  0  0
  128.6836  136.1098  162.3262 C   0  0  1  0  0  0  0  0  0  0  0  0
  128.5977  135.0278  162.2252 H   0  0  0  0  0  0  0  0  0  0  0  0
  128.4597  136.6160  163.7610 C   0  0  0  0  0  0  0  0  0  0  0  0
  127.6819  137.7892  163.1415 C   0  0  0  0  0  0  0  0  0  0  0  0
  127.4018  136.8679  161.9425 C   0  0  2  0  0  0  0  0  0  0  0  0
  126.2122  136.0888  162.0827 O   0  0  0  0  0  0  0  0  0  0  0  0
  129.8703  134.9436  160.1208 N   0  0  0  0  0  0  0  0  0  0  0  0
  129.0695  134.5888  160.5376 H   0  0  0  0  0  0  0  0  0  0  0  0
  130.4466  134.2733  158.9526 C   0  0  0  0  0  0  0  0  0  0  0  0
  129.5995  133.0497  158.5972 C   0  0  1  0  0  0  0  0  0  0  0  0
  128.1709  133.4940  158.2772 C   0  0  0  0  0  0  0  0  0  0  0  0
  127.6088  134.1479  159.4167 O   0  0  0  0  0  0  0  0  0  0  0  0
  130.1923  132.3601  157.3955 C   0  0  0  0  0  0  0  0  0  0  0  0
  130.6138  131.0455  157.4920 C   0  0  0  0  0  0  0  0  0  0  0  0
  131.1648  130.4069  156.3955 C   0  0  0  0  0  0  0  0  0  0  0  0
  131.2871  131.0741  155.1941 C   0  0  0  0  0  0  0  0  0  0  0  0
  130.8587  132.3985  155.0881 C   0  0  0  0  0  0  0  0  0  0  0  0
  130.9831  133.0974  153.8443 C   0  0  0  0  0  0  0  0  0  0  0  0
  131.0818  133.6518  152.8577 N   0  0  0  0  0  0  0  0  0  0  0  0
  130.3087  133.0390  156.2005 C   0  0  0  0  0  0  0  0  0  0  0  0
  133.1120  136.3125  161.9032 C   0  0  0  0  0  0  0  0  0  0  0  0
  134.0014  137.1373  162.8362 C   0  0  0  0  0  0  0  0  0  0  0  0
  136.9984  137.7998  162.7023 H   0  0  0  0  0  0  0  0  0  0  0  0
  136.4799  139.4465  162.2688 H   0  0  0  0  0  0  0  0  0  0  0  0
  135.9235  138.7100  163.7907 H   0  0  0  0  0  0  0  0  0  0  0  0
  135.6078  138.7996  160.2943 H   0  0  0  0  0  0  0  0  0  0  0  0
  134.0587  136.8522  159.3242 H   0  0  0  0  0  0  0  0  0  0  0  0
  133.3753  138.4919  159.2672 H   0  0  0  0  0  0  0  0  0  0  0  0
  132.0864  138.1085  161.2805 H   0  0  0  0  0  0  0  0  0  0  0  0
  131.7159  136.3963  159.0588 H   0  0  0  0  0  0  0  0  0  0  0  0
  130.3126  137.4441  162.0538 H   0  0  0  0  0  0  0  0  0  0  0  0
  127.8413  135.9534  164.3662 H   0  0  0  0  0  0  0  0  0  0  0  0
  129.3773  136.9185  164.2654 H   0  0  0  0  0  0  0  0  0  0  0  0
  128.3080  138.6470  162.8963 H   0  0  0  0  0  0  0  0  0  0  0  0
  126.7869  138.0631  163.7001 H   0  0  0  0  0  0  0  0  0  0  0  0
  127.4657  137.3736  160.9790 H   0  0  0  0  0  0  0  0  0  0  0  0
  125.4027  136.5603  161.8427 H   0  0  0  0  0  0  0  0  0  0  0  0
  131.4643  133.9567  159.1806 H   0  0  0  0  0  0  0  0  0  0  0  0
  130.4610  134.9627  158.1085 H   0  0  0  0  0  0  0  0  0  0  0  0
  129.5851  132.3602  159.4414 H   0  0  0  0  0  0  0  0  0  0  0  0
  128.1852  134.1835  157.4331 H   0  0  0  0  0  0  0  0  0  0  0  0
  127.5673  132.6223  158.0242 H   0  0  0  0  0  0  0  0  0  0  0  0
  127.5646  133.5923  160.2070 H   0  0  0  0  0  0  0  0  0  0  0  0
  130.5162  130.5172  158.4289 H   0  0  0  0  0  0  0  0  0  0  0  0
  131.4958  129.3822  156.4789 H   0  0  0  0  0  0  0  0  0  0  0  0
  131.7137  130.5730  154.3378 H   0  0  0  0  0  0  0  0  0  0  0  0
  129.9756  134.0636  156.1255 H   0  0  0  0  0  0  0  0  0  0  0  0
  132.2887  135.8786  162.4707 H   0  0  0  0  0  0  0  0  0  0  0  0
  133.6978  135.5176  161.4414 H   0  0  0  0  0  0  0  0  0  0  0  0
  133.3790  137.8044  163.4324 H   0  0  0  0  0  0  0  0  0  0  0  0
  134.5501  136.4673  163.4981 H   0  0  0  0  0  0  0  0  0  0  0  0
  1  2  1  0
  1 31  1  0
  1 32  1  0
  1 33  1  0
  2 30  1  0
  2  3  2  0
  3  4  1  0
  3 34  1  0
  4  5  1  0
  4 35  1  0
  4 36  1  0
  5  6  1  0
  5 29  1  0
  5 37  1  1
  6 38  1  0
  7  6  1  0
  7  8  1  0
  7 15  2  0
  8  9  1  0
  8 39  1  0
  9 10  1  1
  9 13  1  0
  9 11  1  0
 11 12  1  0
 11 40  1  0
 11 41  1  0
 12 13  1  0
 12 42  1  0
 12 43  1  0
 13 14  1  0
 13 44  1  6
 14 45  1  0
 15 16  1  0
 15 17  1  0
 17 18  1  0
 17 46  1  0
 17 47  1  0
 18 19  1  0
 18 21  1  0
 18 48  1  1
 19 20  1  0
 19 49  1  0
 19 50  1  0
 20 51  1  0
 21 28  1  0
 21 22  2  0
 22 23  1  0
 22 52  1  0
 23 24  2  0
 23 53  1  0
 24 25  1  0
 24 54  1  0
 25 26  1  0
 25 28  2  0
 26 27  3  0
 28 55  1  0
 29 30  1  0
 29 56  1  0
 29 57  1  0
 30 58  1  0
 30 59  1  0
M  CHG  1  15   1
M  END
>  <DOCK_score>  (1) 
-48.514877

>  <SMILES>  (1) 
CC1=CCC(NC(N[C@H]2CCC2O)=[NH+]CC(CO)c2cccc(C#N)c2)CC1

$$$$
