CCc1ccc([C@@H](CCc2ccc(N)cc2)Nc2[nH]cc(-c3ccc(N)cc3)[nH+]2)cc1
     RDKit          3D

 61 64  0  0  1  0  0  0  0  0999 V2000
  135.2454  135.1629  164.3393 C   0  0  0  0  0  0  0  0  0  0  0  0
  134.0663  136.0681  164.7016 C   0  0  0  0  0  0  0  0  0  0  0  0
  133.0065  135.9636  163.6354 C   0  0  0  0  0  0  0  0  0  0  0  0
  132.0098  135.0116  163.7426 C   0  0  0  0  0  0  0  0  0  0  0  0
  131.0379  134.9156  162.7643 C   0  0  0  0  0  0  0  0  0  0  0  0
  131.0621  135.7717  161.6793 C   0  0  0  0  0  0  0  0  0  0  0  0
  130.0026  135.6668  160.6128 C   0  0  1  0  0  0  0  0  0  0  0  0
  129.3092  134.8652  160.8672 H   0  0  0  0  0  0  0  0  0  0  0  0
  129.2403  136.9902  160.5194 C   0  0  0  0  0  0  0  0  0  0  0  0
  128.2003  137.0596  161.6395 C   0  0  0  0  0  0  0  0  0  0  0  0
  127.2336  135.9121  161.4992 C   0  0  0  0  0  0  0  0  0  0  0  0
  126.9524  135.3960  160.2474 C   0  0  0  0  0  0  0  0  0  0  0  0
  126.0713  134.3407  160.1159 C   0  0  0  0  0  0  0  0  0  0  0  0
  125.4586  133.8051  161.2417 C   0  0  0  0  0  0  0  0  0  0  0  0
  124.5623  132.7418  161.1116 N   0  0  0  0  0  0  0  0  0  0  0  0
  125.7390  134.3297  162.4971 C   0  0  0  0  0  0  0  0  0  0  0  0
  126.6254  135.3813  162.6220 C   0  0  0  0  0  0  0  0  0  0  0  0
  130.6345  135.3752  159.3237 N   0  0  0  0  0  0  0  0  0  0  0  0
  130.3068  134.2178  158.6383 C   0  0  0  0  0  0  0  0  0  0  0  0
  129.4179  133.2752  159.0541 N   0  0  0  0  0  0  0  0  0  0  0  0
  128.9036  133.2933  159.8763 H   0  0  0  0  0  0  0  0  0  0  0  0
  129.3829  132.2926  158.0931 C   0  0  0  0  0  0  0  0  0  0  0  0
  130.2509  132.6637  157.1197 C   0  0  0  0  0  0  0  0  0  0  0  0
  130.5455  131.9072  155.8780 C   0  0  0  0  0  0  0  0  0  0  0  0
  130.3001  132.4853  154.6335 C   0  0  0  0  0  0  0  0  0  0  0  0
  130.5802  131.7825  153.4807 C   0  0  0  0  0  0  0  0  0  0  0  0
  131.0956  130.4942  153.5589 C   0  0  0  0  0  0  0  0  0  0  0  0
  131.3727  129.7819  152.3895 N   0  0  0  0  0  0  0  0  0  0  0  0
  131.3362  129.9137  154.7987 C   0  0  0  0  0  0  0  0  0  0  0  0
  131.0629  130.6149  155.9541 C   0  0  0  0  0  0  0  0  0  0  0  0
  130.8024  133.8489  157.4822 N   0  0  0  0  0  0  0  0  0  0  0  0
  131.4586  134.3445  156.9678 H   0  0  0  0  0  0  0  0  0  0  0  0
  132.0615  136.7204  161.5697 C   0  0  0  0  0  0  0  0  0  0  0  0
  133.0312  136.8192  162.5500 C   0  0  0  0  0  0  0  0  0  0  0  0
  135.6617  135.4745  163.3814 H   0  0  0  0  0  0  0  0  0  0  0  0
  136.0120  135.2385  165.1105 H   0  0  0  0  0  0  0  0  0  0  0  0
  134.9024  134.1307  164.2679 H   0  0  0  0  0  0  0  0  0  0  0  0
  134.4093  137.1004  164.7730 H   0  0  0  0  0  0  0  0  0  0  0  0
  133.6500  135.7565  165.6596 H   0  0  0  0  0  0  0  0  0  0  0  0
  131.9907  134.3429  164.5903 H   0  0  0  0  0  0  0  0  0  0  0  0
  130.2594  134.1716  162.8478 H   0  0  0  0  0  0  0  0  0  0  0  0
  129.9395  137.8201  160.6210 H   0  0  0  0  0  0  0  0  0  0  0  0
  128.7390  137.0534  159.5537 H   0  0  0  0  0  0  0  0  0  0  0  0
  128.7017  136.9964  162.6053 H   0  0  0  0  0  0  0  0  0  0  0  0
  127.6572  138.0024  161.5731 H   0  0  0  0  0  0  0  0  0  0  0  0
  127.4254  135.8162  159.3721 H   0  0  0  0  0  0  0  0  0  0  0  0
  125.8555  133.9353  159.1384 H   0  0  0  0  0  0  0  0  0  0  0  0
  124.1349  132.3688  161.8983 H   0  0  0  0  0  0  0  0  0  0  0  0
  124.3672  132.3764  160.2345 H   0  0  0  0  0  0  0  0  0  0  0  0
  125.2642  133.9157  163.3742 H   0  0  0  0  0  0  0  0  0  0  0  0
  126.8436  135.7897  163.5977 H   0  0  0  0  0  0  0  0  0  0  0  0
  131.2823  135.9931  158.9503 H   0  0  0  0  0  0  0  0  0  0  0  0
  128.7828  131.3950  158.1122 H   0  0  0  0  0  0  0  0  0  0  0  0
  129.8952  133.4846  154.5723 H   0  0  0  0  0  0  0  0  0  0  0  0
  130.3941  132.2316  152.5163 H   0  0  0  0  0  0  0  0  0  0  0  0
  131.7328  128.8825  152.4435 H   0  0  0  0  0  0  0  0  0  0  0  0
  131.2052  130.1860  151.5240 H   0  0  0  0  0  0  0  0  0  0  0  0
  131.7370  128.9126  154.8571 H   0  0  0  0  0  0  0  0  0  0  0  0
  131.2500  130.1635  156.9172 H   0  0  0  0  0  0  0  0  0  0  0  0
  132.0831  137.3865  160.7197 H   0  0  0  0  0  0  0  0  0  0  0  0
  133.8102  137.5626  162.4660 H   0  0  0  0  0  0  0  0  0  0  0  0
  1  2  1  0
  1 35  1  0
  1 36  1  0
  1 37  1  0
  2  3  1  0
  2 38  1  0
  2 39  1  0
  3 34  2  0
  3  4  1  0
  4  5  2  0
  4 40  1  0
  5  6  1  0
  5 41  1  0
  6  7  1  0
  6 33  2  0
  7  8  1  1
  7  9  1  0
  7 18  1  0
  9 10  1  0
  9 42  1  0
  9 43  1  0
 10 11  1  0
 10 44  1  0
 10 45  1  0
 11 17  1  0
 11 12  2  0
 12 13  1  0
 12 46  1  0
 13 14  2  0
 13 47  1  0
 14 15  1  0
 14 16  1  0
 15 48  1  0
 15 49  1  0
 16 17  2  0
 16 50  1  0
 17 51  1  0
 18 52  1  0
 19 18  1  0
 19 31  2  0
 19 20  1  0
 20 21  1  0
 20 22  1  0
 22 23  2  0
 22 53  1  0
 23 24  1  0
 23 31  1  0
 24 30  1  0
 24 25  2  0
 25 26  1  0
 25 54  1  0
 26 27  2  0
 26 55  1  0
 27 28  1  0
 27 29  1  0
 28 56  1  0
 28 57  1  0
 29 30  2  0
 29 58  1  0
 30 59  1  0
 31 32  1  0
 33 34  1  0
 33 60  1  0
 34 61  1  0
M  CHG  1  31   1
M  END
>  <DOCK_score>  (1) 
-56.731068

>  <SMILES>  (1) 
CCc1ccc([C@@H](CCc2ccc(N)cc2)Nc2[nH]cc(-c3ccc(N)cc3)[nH+]2)cc1

$$$$
