CNC(=O)C(C)n1cc(C[C@@H]([NH3+])C(=O)Nc2cccc(O)c2)nn1
     RDKit          3D

 45 46  0  0  1  0  0  0  0  0999 V2000
  133.7615  135.9720  165.7110 C   0  0  0  0  0  0  0  0  0  0  0  0
  132.6377  136.6557  165.0661 N   0  0  0  0  0  0  0  0  0  0  0  0
  131.6785  135.9391  164.4470 C   0  0  0  0  0  0  0  0  0  0  0  0
  131.7460  134.7283  164.4238 O   0  0  0  0  0  0  0  0  0  0  0  0
  130.5226  136.6422  163.7835 C   0  0  2  0  0  0  0  0  0  0  0  0
  129.2113  136.1867  164.4270 C   0  0  0  0  0  0  0  0  0  0  0  0
  130.5057  136.3141  162.3559 N   0  0  0  0  0  0  0  0  0  0  0  0
  130.9437  135.1597  161.8026 C   0  0  0  0  0  0  0  0  0  0  0  0
  130.7426  135.2804  160.4696 C   0  0  0  0  0  0  0  0  0  0  0  0
  131.0676  134.2568  159.4123 C   0  0  0  0  0  0  0  0  0  0  0  0
  130.0912  134.4032  158.2435 C   0  0  1  0  0  0  0  0  0  0  0  0
  129.9122  135.4607  158.0499 H   0  0  0  0  0  0  0  0  0  0  0  0
  130.6645  133.7761  157.0451 N   0  0  0  0  0  0  0  0  0  0  0  0
  130.8303  132.7972  157.2243 H   0  0  0  0  0  0  0  0  0  0  0  0
  130.0206  133.8727  156.2743 H   0  0  0  0  0  0  0  0  0  0  0  0
  131.5363  134.2280  156.8135 H   0  0  0  0  0  0  0  0  0  0  0  0
  128.7889  133.7281  158.5893 C   0  0  0  0  0  0  0  0  0  0  0  0
  128.3787  132.8147  157.9049 O   0  0  0  0  0  0  0  0  0  0  0  0
  128.0800  134.1396  159.6592 N   0  0  0  0  0  0  0  0  0  0  0  0
  126.8708  133.5130  159.9803 C   0  0  0  0  0  0  0  0  0  0  0  0
  126.6783  132.1726  159.6703 C   0  0  0  0  0  0  0  0  0  0  0  0
  125.4850  131.5538  159.9881 C   0  0  0  0  0  0  0  0  0  0  0  0
  124.4816  132.2646  160.6190 C   0  0  0  0  0  0  0  0  0  0  0  0
  124.6661  133.6053  160.9258 C   0  0  0  0  0  0  0  0  0  0  0  0
  123.6766  134.3043  161.5417 O   0  0  0  0  0  0  0  0  0  0  0  0
  125.8626  134.2296  160.6090 C   0  0  0  0  0  0  0  0  0  0  0  0
  130.2040  136.4892  160.2745 N   0  0  0  0  0  0  0  0  0  0  0  0
  130.0713  137.0743  161.4124 N   0  0  0  0  0  0  0  0  0  0  0  0
  134.3064  135.3889  164.9687 H   0  0  0  0  0  0  0  0  0  0  0  0
  134.4295  136.7103  166.1548 H   0  0  0  0  0  0  0  0  0  0  0  0
  133.3849  135.3085  166.4893 H   0  0  0  0  0  0  0  0  0  0  0  0
  132.5838  137.6240  165.0846 H   0  0  0  0  0  0  0  0  0  0  0  0
  130.6331  137.7196  163.9075 H   0  0  0  0  0  0  0  0  0  0  0  0
  129.2239  136.4307  165.4894 H   0  0  0  0  0  0  0  0  0  0  0  0
  128.3751  136.6952  163.9473 H   0  0  0  0  0  0  0  0  0  0  0  0
  129.1008  135.1094  164.3031 H   0  0  0  0  0  0  0  0  0  0  0  0
  131.3687  134.3125  162.3204 H   0  0  0  0  0  0  0  0  0  0  0  0
  130.9798  133.2563  159.8360 H   0  0  0  0  0  0  0  0  0  0  0  0
  132.0861  134.4127  159.0564 H   0  0  0  0  0  0  0  0  0  0  0  0
  128.4080  134.8702  160.2066 H   0  0  0  0  0  0  0  0  0  0  0  0
  127.4624  131.6138  159.1809 H   0  0  0  0  0  0  0  0  0  0  0  0
  125.3373  130.5116  159.7466 H   0  0  0  0  0  0  0  0  0  0  0  0
  123.5512  131.7769  160.8703 H   0  0  0  0  0  0  0  0  0  0  0  0
  123.8975  135.2297  161.7142 H   0  0  0  0  0  0  0  0  0  0  0  0
  126.0096  135.2719  160.8508 H   0  0  0  0  0  0  0  0  0  0  0  0
  1  2  1  0
  1 29  1  0
  1 30  1  0
  1 31  1  0
  2  3  1  0
  2 32  1  0
  3  4  2  0
  3  5  1  0
  5  6  1  0
  5  7  1  0
  5 33  1  6
  6 34  1  0
  6 35  1  0
  6 36  1  0
  7 28  1  0
  7  8  1  0
  8  9  2  0
  8 37  1  0
  9 10  1  0
  9 27  1  0
 10 11  1  0
 10 38  1  0
 10 39  1  0
 11 12  1  6
 11 13  1  0
 11 17  1  0
 13 14  1  0
 13 15  1  0
 13 16  1  0
 17 18  2  0
 17 19  1  0
 19 20  1  0
 19 40  1  0
 20 26  1  0
 20 21  2  0
 21 22  1  0
 21 41  1  0
 22 23  2  0
 22 42  1  0
 23 24  1  0
 23 43  1  0
 24 25  1  0
 24 26  2  0
 25 44  1  0
 26 45  1  0
 27 28  2  0
M  CHG  1  13   1
M  END
>  <DOCK_score>  (1) 
-41.377556

>  <SMILES>  (1) 
CNC(=O)C(C)n1cc(C[C@@H]([NH3+])C(=O)Nc2cccc(O)c2)nn1

$$$$
