Cn1nccc1[C@H](CC1=CCCC1)Nc1[nH]cc(-c2ccc(N)cc2)[nH+]1
     RDKit          3D

 51 54  0  0  1  0  0  0  0  0999 V2000
  128.0635  136.1022  158.3587 C   0  0  0  0  0  0  0  0  0  0  0  0
  127.8122  135.6505  159.7295 N   0  0  0  0  0  0  0  0  0  0  0  0
  126.5614  135.3410  160.2792 N   0  0  0  0  0  0  0  0  0  0  0  0
  126.7397  134.9815  161.5243 C   0  0  0  0  0  0  0  0  0  0  0  0
  128.1083  135.0456  161.8060 C   0  0  0  0  0  0  0  0  0  0  0  0
  128.7451  135.4565  160.6850 C   0  0  0  0  0  0  0  0  0  0  0  0
  130.2297  135.6660  160.5328 C   0  0  2  0  0  0  0  0  0  0  0  0
  130.7628  134.9795  161.1907 H   0  0  0  0  0  0  0  0  0  0  0  0
  130.5824  137.1073  160.9061 C   0  0  0  0  0  0  0  0  0  0  0  0
  132.0669  137.3167  160.7538 C   0  0  0  0  0  0  0  0  0  0  0  0
  132.6108  138.1912  159.9518 C   0  0  0  0  0  0  0  0  0  0  0  0
  134.1186  138.1450  160.0387 C   0  0  0  0  0  0  0  0  0  0  0  0
  134.4137  137.3752  161.3469 C   0  0  0  0  0  0  0  0  0  0  0  0
  133.1213  136.5416  161.5093 C   0  0  0  0  0  0  0  0  0  0  0  0
  130.6188  135.4121  159.1435 N   0  0  0  0  0  0  0  0  0  0  0  0
  130.3971  134.1677  158.5788 C   0  0  0  0  0  0  0  0  0  0  0  0
  129.8234  133.1042  159.2047 N   0  0  0  0  0  0  0  0  0  0  0  0
  129.4992  133.0817  160.1186 H   0  0  0  0  0  0  0  0  0  0  0  0
  129.7886  132.0676  158.3023 C   0  0  0  0  0  0  0  0  0  0  0  0
  130.3416  132.5280  157.1531 C   0  0  0  0  0  0  0  0  0  0  0  0
  130.5182  131.7557  155.8987 C   0  0  0  0  0  0  0  0  0  0  0  0
  129.9075  132.1864  154.7220 C   0  0  0  0  0  0  0  0  0  0  0  0
  130.0774  131.4699  153.5561 C   0  0  0  0  0  0  0  0  0  0  0  0
  130.8475  130.3129  153.5562 C   0  0  0  0  0  0  0  0  0  0  0  0
  131.0135  129.5856  152.3751 N   0  0  0  0  0  0  0  0  0  0  0  0
  131.4530  129.8787  154.7295 C   0  0  0  0  0  0  0  0  0  0  0  0
  131.2905  130.5952  155.8963 C   0  0  0  0  0  0  0  0  0  0  0  0
  130.7001  133.8211  157.3515 N   0  0  0  0  0  0  0  0  0  0  0  0
  131.1166  134.3969  156.6912 H   0  0  0  0  0  0  0  0  0  0  0  0
  128.2320  135.2377  157.7165 H   0  0  0  0  0  0  0  0  0  0  0  0
  127.2006  136.6610  157.9965 H   0  0  0  0  0  0  0  0  0  0  0  0
  128.9444  136.7437  158.3432 H   0  0  0  0  0  0  0  0  0  0  0  0
  125.9641  134.6857  162.2154 H   0  0  0  0  0  0  0  0  0  0  0  0
  128.5743  134.8085  162.7510 H   0  0  0  0  0  0  0  0  0  0  0  0
  130.2928  137.2961  161.9398 H   0  0  0  0  0  0  0  0  0  0  0  0
  130.0493  137.7937  160.2483 H   0  0  0  0  0  0  0  0  0  0  0  0
  132.0560  138.8596  159.3101 H   0  0  0  0  0  0  0  0  0  0  0  0
  134.5322  137.6117  159.1827 H   0  0  0  0  0  0  0  0  0  0  0  0
  134.5270  139.1543  160.0918 H   0  0  0  0  0  0  0  0  0  0  0  0
  135.2841  136.7291  161.2328 H   0  0  0  0  0  0  0  0  0  0  0  0
  134.5445  138.0611  162.1836 H   0  0  0  0  0  0  0  0  0  0  0  0
  132.8515  136.4607  162.5623 H   0  0  0  0  0  0  0  0  0  0  0  0
  133.2506  135.5515  161.0724 H   0  0  0  0  0  0  0  0  0  0  0  0
  131.0317  136.1160  158.6191 H   0  0  0  0  0  0  0  0  0  0  0  0
  129.3960  131.0765  158.4756 H   0  0  0  0  0  0  0  0  0  0  0  0
  129.3051  133.0827  154.7225 H   0  0  0  0  0  0  0  0  0  0  0  0
  129.6080  131.8057  152.6432 H   0  0  0  0  0  0  0  0  0  0  0  0
  131.5510  128.7781  152.3744 H   0  0  0  0  0  0  0  0  0  0  0  0
  130.5912  129.8878  151.5560 H   0  0  0  0  0  0  0  0  0  0  0  0
  132.0510  128.9794  154.7272 H   0  0  0  0  0  0  0  0  0  0  0  0
  131.7615  130.2577  156.8077 H   0  0  0  0  0  0  0  0  0  0  0  0
  1  2  1  0
  1 30  1  0
  1 31  1  0
  1 32  1  0
  2  6  1  0
  2  3  1  0
  3  4  2  0
  4  5  1  0
  4 33  1  0
  5  6  2  0
  5 34  1  0
  6  7  1  0
  7  8  1  1
  7  9  1  0
  7 15  1  0
  9 10  1  0
  9 35  1  0
  9 36  1  0
 10 14  1  0
 10 11  2  0
 11 12  1  0
 11 37  1  0
 12 13  1  0
 12 38  1  0
 12 39  1  0
 13 14  1  0
 13 40  1  0
 13 41  1  0
 14 42  1  0
 14 43  1  0
 15 44  1  0
 16 15  1  0
 16 28  2  0
 16 17  1  0
 17 18  1  0
 17 19  1  0
 19 20  2  0
 19 45  1  0
 20 21  1  0
 20 28  1  0
 21 27  1  0
 21 22  2  0
 22 23  1  0
 22 46  1  0
 23 24  2  0
 23 47  1  0
 24 25  1  0
 24 26  1  0
 25 48  1  0
 25 49  1  0
 26 27  2  0
 26 50  1  0
 27 51  1  0
 28 29  1  0
M  CHG  1  28   1
M  END
>  <DOCK_score>  (1) 
-56.220924

>  <SMILES>  (1) 
Cn1nccc1[C@H](CC1=CCCC1)Nc1[nH]cc(-c2ccc(N)cc2)[nH+]1

$$$$
