CCc1ccc(-c2c[nH]c(N[C@@H](CC=C3C=CCCC=C3)c3ccc(CC)cc3)[nH+]2)cc1
     RDKit          3D

 66 69  0  0  1  0  0  0  0  0999 V2000
  132.1934  129.7641  152.6999 C   0  0  0  0  0  0  0  0  0  0  0  0
  130.7726  129.7751  153.2676 C   0  0  0  0  0  0  0  0  0  0  0  0
  130.7368  130.6196  154.5152 C   0  0  0  0  0  0  0  0  0  0  0  0
  130.4635  131.9725  154.4238 C   0  0  0  0  0  0  0  0  0  0  0  0
  130.4246  132.7498  155.5635 C   0  0  0  0  0  0  0  0  0  0  0  0
  130.6719  132.1712  156.8072 C   0  0  0  0  0  0  0  0  0  0  0  0
  130.6365  133.0023  158.0352 C   0  0  0  0  0  0  0  0  0  0  0  0
  130.2963  132.5771  159.2772 C   0  0  0  0  0  0  0  0  0  0  0  0
  130.3985  133.6631  160.1123 N   0  0  0  0  0  0  0  0  0  0  0  0
  130.2184  133.6738  161.0654 H   0  0  0  0  0  0  0  0  0  0  0  0
  130.7985  134.7211  159.3555 C   0  0  0  0  0  0  0  0  0  0  0  0
  131.0191  136.0067  159.8194 N   0  0  0  0  0  0  0  0  0  0  0  0
  131.4703  136.2211  161.1966 C   0  0  1  0  0  0  0  0  0  0  0  0
  132.2058  135.4611  161.4605 H   0  0  0  0  0  0  0  0  0  0  0  0
  132.1053  137.6081  161.3152 C   0  0  0  0  0  0  0  0  0  0  0  0
  133.2833  137.7028  160.3801 C   0  0  0  0  0  0  0  0  0  0  0  0
  133.9987  138.8375  160.3141 C   0  0  0  0  0  0  0  0  0  0  0  0
  133.6288  140.0027  161.1556 C   0  0  0  0  0  0  0  0  0  0  0  0
  134.5179  140.4359  162.0142 C   0  0  0  0  0  0  0  0  0  0  0  0
  135.8652  139.7982  162.1603 C   0  0  0  0  0  0  0  0  0  0  0  0
  136.7693  140.0909  160.9780 C   0  0  0  0  0  0  0  0  0  0  0  0
  136.2880  139.4734  159.7088 C   0  0  0  0  0  0  0  0  0  0  0  0
  135.1487  138.9342  159.4031 C   0  0  0  0  0  0  0  0  0  0  0  0
  130.2923  136.1262  162.1317 C   0  0  0  0  0  0  0  0  0  0  0  0
  129.0316  136.4866  161.6938 C   0  0  0  0  0  0  0  0  0  0  0  0
  127.9504  136.3960  162.5504 C   0  0  0  0  0  0  0  0  0  0  0  0
  128.1313  135.9532  163.8473 C   0  0  0  0  0  0  0  0  0  0  0  0
  126.9533  135.8587  164.7825 C   0  0  0  0  0  0  0  0  0  0  0  0
  126.7876  137.1838  165.5293 C   0  0  0  0  0  0  0  0  0  0  0  0
  129.3928  135.5973  164.2865 C   0  0  0  0  0  0  0  0  0  0  0  0
  130.4733  135.6844  163.4288 C   0  0  0  0  0  0  0  0  0  0  0  0
  130.9445  134.3212  158.1159 N   0  0  0  0  0  0  0  0  0  0  0  0
  131.2261  134.8794  157.3743 H   0  0  0  0  0  0  0  0  0  0  0  0
  130.9519  130.8085  156.8927 C   0  0  0  0  0  0  0  0  0  0  0  0
  130.9829  130.0399  155.7468 C   0  0  0  0  0  0  0  0  0  0  0  0
  132.8770  129.3481  153.4398 H   0  0  0  0  0  0  0  0  0  0  0  0
  132.2193  129.1533  151.7974 H   0  0  0  0  0  0  0  0  0  0  0  0
  132.4958  130.7828  152.4578 H   0  0  0  0  0  0  0  0  0  0  0  0
  130.0888  130.1910  152.5275 H   0  0  0  0  0  0  0  0  0  0  0  0
  130.4701  128.7562  153.5096 H   0  0  0  0  0  0  0  0  0  0  0  0
  130.2764  132.4207  153.4591 H   0  0  0  0  0  0  0  0  0  0  0  0
  130.2066  133.8051  155.4915 H   0  0  0  0  0  0  0  0  0  0  0  0
  130.0012  131.5764  159.5563 H   0  0  0  0  0  0  0  0  0  0  0  0
  130.8749  136.7654  159.2326 H   0  0  0  0  0  0  0  0  0  0  0  0
  131.3698  138.3681  161.0513 H   0  0  0  0  0  0  0  0  0  0  0  0
  132.4409  137.7676  162.3398 H   0  0  0  0  0  0  0  0  0  0  0  0
  133.5522  136.8582  159.7631 H   0  0  0  0  0  0  0  0  0  0  0  0
  132.6615  140.4735  161.0617 H   0  0  0  0  0  0  0  0  0  0  0  0
  134.2710  141.2834  162.6364 H   0  0  0  0  0  0  0  0  0  0  0  0
  135.7380  138.7193  162.2497 H   0  0  0  0  0  0  0  0  0  0  0  0
  136.3367  140.1749  163.0679 H   0  0  0  0  0  0  0  0  0  0  0  0
  137.7671  139.7105  161.1969 H   0  0  0  0  0  0  0  0  0  0  0  0
  136.8303  141.1706  160.8419 H   0  0  0  0  0  0  0  0  0  0  0  0
  137.0120  139.4752  158.9074 H   0  0  0  0  0  0  0  0  0  0  0  0
  135.0371  138.5271  158.4092 H   0  0  0  0  0  0  0  0  0  0  0  0
  128.8908  136.8363  160.6817 H   0  0  0  0  0  0  0  0  0  0  0  0
  126.9649  136.6744  162.2073 H   0  0  0  0  0  0  0  0  0  0  0  0
  126.0502  135.6494  164.2093 H   0  0  0  0  0  0  0  0  0  0  0  0
  127.1225  135.0559  165.5001 H   0  0  0  0  0  0  0  0  0  0  0  0
  127.6908  137.3931  166.1026 H   0  0  0  0  0  0  0  0  0  0  0  0
  126.6184  137.9867  164.8118 H   0  0  0  0  0  0  0  0  0  0  0  0
  125.9356  137.1155  166.2058 H   0  0  0  0  0  0  0  0  0  0  0  0
  129.5342  135.2516  165.2999 H   0  0  0  0  0  0  0  0  0  0  0  0
  131.4589  135.4066  163.7721 H   0  0  0  0  0  0  0  0  0  0  0  0
  131.1445  130.3550  157.8537 H   0  0  0  0  0  0  0  0  0  0  0  0
  131.2002  128.9841  155.8119 H   0  0  0  0  0  0  0  0  0  0  0  0
  1  2  1  0
  1 36  1  0
  1 37  1  0
  1 38  1  0
  2  3  1  0
  2 39  1  0
  2 40  1  0
  3 35  2  0
  3  4  1  0
  4  5  2  0
  4 41  1  0
  5  6  1  0
  5 42  1  0
  6  7  1  0
  6 34  2  0
  7 32  1  0
  7  8  2  0
  8  9  1  0
  8 43  1  0
  9 10  1  0
  9 11  1  0
 11 12  1  0
 11 32  2  0
 12 13  1  0
 12 44  1  0
 13 14  1  1
 13 15  1  0
 13 24  1  0
 15 16  1  0
 15 45  1  0
 15 46  1  0
 16 17  2  0
 16 47  1  0
 17 23  1  0
 17 18  1  0
 18 19  2  0
 18 48  1  0
 19 20  1  0
 19 49  1  0
 20 21  1  0
 20 50  1  0
 20 51  1  0
 21 22  1  0
 21 52  1  0
 21 53  1  0
 22 23  2  0
 22 54  1  0
 23 55  1  0
 24 31  1  0
 24 25  2  0
 25 26  1  0
 25 56  1  0
 26 27  2  0
 26 57  1  0
 27 28  1  0
 27 30  1  0
 28 29  1  0
 28 58  1  0
 28 59  1  0
 29 60  1  0
 29 61  1  0
 29 62  1  0
 30 31  2  0
 30 63  1  0
 31 64  1  0
 32 33  1  0
 34 35  1  0
 34 65  1  0
 35 66  1  0
M  CHG  1  32   1
M  END
>  <DOCK_score>  (1) 
-56.687115

>  <SMILES>  (1) 
CCc1ccc(-c2c[nH]c(N[C@@H](CC=C3C=CCCC=C3)c3ccc(CC)cc3)[nH+]2)cc1

$$$$
