CCc1ccc([C@@H](Cc2cccc3ccccc23)Nc2[nH]cc(-c3ccc(N)cc3)[nH+]2)cc1
     RDKit          3D

 62 66  0  0  1  0  0  0  0  0999 V2000
  130.9112  139.6878  163.4975 C   0  0  0  0  0  0  0  0  0  0  0  0
  132.0030  138.9668  162.7045 C   0  0  0  0  0  0  0  0  0  0  0  0
  131.3779  137.8949  161.8492 C   0  0  0  0  0  0  0  0  0  0  0  0
  130.9628  138.1905  160.5643 C   0  0  0  0  0  0  0  0  0  0  0  0
  130.3930  137.2063  159.7784 C   0  0  0  0  0  0  0  0  0  0  0  0
  130.2310  135.9286  160.2803 C   0  0  0  0  0  0  0  0  0  0  0  0
  129.6065  134.8566  159.4250 C   0  0  1  0  0  0  0  0  0  0  0  0
  129.5627  133.9233  159.9863 H   0  0  0  0  0  0  0  0  0  0  0  0
  128.1908  135.2803  159.0289 C   0  0  0  0  0  0  0  0  0  0  0  0
  127.2469  135.0094  160.1720 C   0  0  0  0  0  0  0  0  0  0  0  0
  127.0182  135.9670  161.1120 C   0  0  0  0  0  0  0  0  0  0  0  0
  126.1485  135.7350  162.1756 C   0  0  0  0  0  0  0  0  0  0  0  0
  125.5024  134.5439  162.3058 C   0  0  0  0  0  0  0  0  0  0  0  0
  125.7134  133.5312  161.3549 C   0  0  0  0  0  0  0  0  0  0  0  0
  125.0639  132.2889  161.4553 C   0  0  0  0  0  0  0  0  0  0  0  0
  125.2798  131.3376  160.5064 C   0  0  0  0  0  0  0  0  0  0  0  0
  126.1501  131.5696  159.4425 C   0  0  0  0  0  0  0  0  0  0  0  0
  126.8002  132.7583  159.3155 C   0  0  0  0  0  0  0  0  0  0  0  0
  126.5939  133.7693  160.2699 C   0  0  0  0  0  0  0  0  0  0  0  0
  130.4138  134.6628  158.2179 N   0  0  0  0  0  0  0  0  0  0  0  0
  130.4615  133.4205  157.6089 C   0  0  0  0  0  0  0  0  0  0  0  0
  130.3274  132.2227  158.2405 N   0  0  0  0  0  0  0  0  0  0  0  0
  130.1827  132.0866  159.1899 H   0  0  0  0  0  0  0  0  0  0  0  0
  130.4352  131.2408  157.2842 C   0  0  0  0  0  0  0  0  0  0  0  0
  130.6319  131.8673  156.0979 C   0  0  0  0  0  0  0  0  0  0  0  0
  130.8047  131.2076  154.7803 C   0  0  0  0  0  0  0  0  0  0  0  0
  130.3832  131.8503  153.6173 C   0  0  0  0  0  0  0  0  0  0  0  0
  130.5497  131.2375  152.3934 C   0  0  0  0  0  0  0  0  0  0  0  0
  131.1270  129.9752  152.3197 C   0  0  0  0  0  0  0  0  0  0  0  0
  131.2893  129.3539  151.0791 N   0  0  0  0  0  0  0  0  0  0  0  0
  131.5430  129.3304  153.4785 C   0  0  0  0  0  0  0  0  0  0  0  0
  131.3838  129.9418  154.7041 C   0  0  0  0  0  0  0  0  0  0  0  0
  130.6376  133.2043  156.3281 N   0  0  0  0  0  0  0  0  0  0  0  0
  130.7556  133.8906  155.6530 H   0  0  0  0  0  0  0  0  0  0  0  0
  130.6414  135.6343  161.5671 C   0  0  0  0  0  0  0  0  0  0  0  0
  131.2147  136.6176  162.3517 C   0  0  0  0  0  0  0  0  0  0  0  0
  130.2006  140.1423  162.8070 H   0  0  0  0  0  0  0  0  0  0  0  0
  131.3633  140.4631  164.1161 H   0  0  0  0  0  0  0  0  0  0  0  0
  130.3916  138.9718  164.1344 H   0  0  0  0  0  0  0  0  0  0  0  0
  132.5226  139.6828  162.0677 H   0  0  0  0  0  0  0  0  0  0  0  0
  132.7135  138.5124  163.3950 H   0  0  0  0  0  0  0  0  0  0  0  0
  131.0864  139.1897  160.1733 H   0  0  0  0  0  0  0  0  0  0  0  0
  130.0722  137.4363  158.7732 H   0  0  0  0  0  0  0  0  0  0  0  0
  128.1822  136.3449  158.7952 H   0  0  0  0  0  0  0  0  0  0  0  0
  127.8734  134.7137  158.1535 H   0  0  0  0  0  0  0  0  0  0  0  0
  127.5180  136.9212  161.0320 H   0  0  0  0  0  0  0  0  0  0  0  0
  125.9849  136.5116  162.9081 H   0  0  0  0  0  0  0  0  0  0  0  0
  124.8316  134.3781  163.1356 H   0  0  0  0  0  0  0  0  0  0  0  0
  124.3875  132.0945  162.2745 H   0  0  0  0  0  0  0  0  0  0  0  0
  124.7762  130.3854  160.5835 H   0  0  0  0  0  0  0  0  0  0  0  0
  126.3104  130.7945  158.7078 H   0  0  0  0  0  0  0  0  0  0  0  0
  127.4718  132.9238  158.4859 H   0  0  0  0  0  0  0  0  0  0  0  0
  130.9151  135.4052  157.8455 H   0  0  0  0  0  0  0  0  0  0  0  0
  130.3749  130.1749  157.4467 H   0  0  0  0  0  0  0  0  0  0  0  0
  129.9304  132.8291  153.6745 H   0  0  0  0  0  0  0  0  0  0  0  0
  130.2275  131.7368  151.4915 H   0  0  0  0  0  0  0  0  0  0  0  0
  131.6922  128.4731  151.0268 H   0  0  0  0  0  0  0  0  0  0  0  0
  130.9990  129.8032  150.2699 H   0  0  0  0  0  0  0  0  0  0  0  0
  131.9913  128.3496  153.4189 H   0  0  0  0  0  0  0  0  0  0  0  0
  131.7076  129.4406  155.6042 H   0  0  0  0  0  0  0  0  0  0  0  0
  130.5144  134.6361  161.9595 H   0  0  0  0  0  0  0  0  0  0  0  0
  131.5353  136.3876  163.3571 H   0  0  0  0  0  0  0  0  0  0  0  0
  1  2  1  0
  1 37  1  0
  1 38  1  0
  1 39  1  0
  2  3  1  0
  2 40  1  0
  2 41  1  0
  3 36  2  0
  3  4  1  0
  4  5  2  0
  4 42  1  0
  5  6  1  0
  5 43  1  0
  6  7  1  0
  6 35  2  0
  7  8  1  1
  7  9  1  0
  7 20  1  0
  9 10  1  0
  9 44  1  0
  9 45  1  0
 10 19  1  0
 10 11  2  0
 11 12  1  0
 11 46  1  0
 12 13  2  0
 12 47  1  0
 13 14  1  0
 13 48  1  0
 14 19  2  0
 14 15  1  0
 15 16  2  0
 15 49  1  0
 16 17  1  0
 16 50  1  0
 17 18  2  0
 17 51  1  0
 18 19  1  0
 18 52  1  0
 20 53  1  0
 21 20  1  0
 21 33  2  0
 21 22  1  0
 22 23  1  0
 22 24  1  0
 24 25  2  0
 24 54  1  0
 25 26  1  0
 25 33  1  0
 26 32  1  0
 26 27  2  0
 27 28  1  0
 27 55  1  0
 28 29  2  0
 28 56  1  0
 29 30  1  0
 29 31  1  0
 30 57  1  0
 30 58  1  0
 31 32  2  0
 31 59  1  0
 32 60  1  0
 33 34  1  0
 35 36  1  0
 35 61  1  0
 36 62  1  0
M  CHG  1  33   1
M  END
>  <DOCK_score>  (1) 
-63.507481

>  <SMILES>  (1) 
CCc1ccc([C@@H](Cc2cccc3ccccc23)Nc2[nH]cc(-c3ccc(N)cc3)[nH+]2)cc1

$$$$
