O=C1NCC(NC(NC2CCCCC2)=[NH+][C@H]2COc3ccc(-c4ccccc4)cc3C2)CN1
     RDKit          3D

 67 71  0  0  1  0  0  0  0  0999 V2000
  123.8721  133.6501  161.9362 O   0  0  0  0  0  0  0  0  0  0  0  0
  125.0127  134.0225  161.7397 C   0  0  0  0  0  0  0  0  0  0  0  0
  125.9768  133.1001  161.6022 N   0  0  0  0  0  0  0  0  0  0  0  0
  127.3713  133.4839  161.3769 C   0  0  0  0  0  0  0  0  0  0  0  0
  127.4103  134.8257  160.6376 C   0  0  0  0  0  0  0  0  0  0  0  0
  128.7983  135.2757  160.5076 N   0  0  0  0  0  0  0  0  0  0  0  0
  129.5388  134.9119  159.4080 C   0  0  0  0  0  0  0  0  0  0  0  0
  128.9766  134.1258  158.4301 N   0  0  0  0  0  0  0  0  0  0  0  0
  129.8170  133.2138  157.6502 C   0  0  0  0  0  0  0  0  0  0  0  0
  129.7297  133.5819  156.1677 C   0  0  0  0  0  0  0  0  0  0  0  0
  130.6073  132.6295  155.3531 C   0  0  0  0  0  0  0  0  0  0  0  0
  130.1208  131.1926  155.5513 C   0  0  0  0  0  0  0  0  0  0  0  0
  130.2081  130.8243  157.0338 C   0  0  0  0  0  0  0  0  0  0  0  0
  129.3304  131.7769  157.8484 C   0  0  0  0  0  0  0  0  0  0  0  0
  130.7738  135.3121  159.2923 N   0  0  0  0  0  0  0  0  0  0  0  0
  131.1573  135.4542  158.4126 H   0  0  0  0  0  0  0  0  0  0  0  0
  131.5830  135.5471  160.4906 C   0  0  1  0  0  0  0  0  0  0  0  0
  131.2542  134.8851  161.2917 H   0  0  0  0  0  0  0  0  0  0  0  0
  133.0614  135.2851  160.1761 C   0  0  0  0  0  0  0  0  0  0  0  0
  133.8101  135.4208  161.3845 O   0  0  0  0  0  0  0  0  0  0  0  0
  133.6035  136.5314  162.1390 C   0  0  0  0  0  0  0  0  0  0  0  0
  134.5513  136.8614  163.1047 C   0  0  0  0  0  0  0  0  0  0  0  0
  134.3783  137.9728  163.8994 C   0  0  0  0  0  0  0  0  0  0  0  0
  133.2480  138.7723  163.7368 C   0  0  0  0  0  0  0  0  0  0  0  0
  133.0540  139.9702  164.5904 C   0  0  0  0  0  0  0  0  0  0  0  0
  131.7675  140.4055  164.9027 C   0  0  0  0  0  0  0  0  0  0  0  0
  131.5930  141.5170  165.7019 C   0  0  0  0  0  0  0  0  0  0  0  0
  132.6918  142.2054  166.1834 C   0  0  0  0  0  0  0  0  0  0  0  0
  133.9712  141.7811  165.8719 C   0  0  0  0  0  0  0  0  0  0  0  0
  134.1576  140.6675  165.0783 C   0  0  0  0  0  0  0  0  0  0  0  0
  132.3024  138.4425  162.7699 C   0  0  0  0  0  0  0  0  0  0  0  0
  132.4814  137.3264  161.9734 C   0  0  0  0  0  0  0  0  0  0  0  0
  131.4374  137.0051  160.9337 C   0  0  0  0  0  0  0  0  0  0  0  0
  126.6102  135.8520  161.4469 C   0  0  0  0  0  0  0  0  0  0  0  0
  125.2571  135.3395  161.6685 N   0  0  0  0  0  0  0  0  0  0  0  0
  125.7452  132.1595  161.6536 H   0  0  0  0  0  0  0  0  0  0  0  0
  127.8662  132.7219  160.7749 H   0  0  0  0  0  0  0  0  0  0  0  0
  127.8819  133.5809  162.3350 H   0  0  0  0  0  0  0  0  0  0  0  0
  126.9684  134.7112  159.6478 H   0  0  0  0  0  0  0  0  0  0  0  0
  129.1950  135.8303  161.1975 H   0  0  0  0  0  0  0  0  0  0  0  0
  128.0234  134.1749  158.2566 H   0  0  0  0  0  0  0  0  0  0  0  0
  130.8510  133.2968  157.9849 H   0  0  0  0  0  0  0  0  0  0  0  0
  128.6956  133.4989  155.8330 H   0  0  0  0  0  0  0  0  0  0  0  0
  130.0762  134.6057  156.0266 H   0  0  0  0  0  0  0  0  0  0  0  0
  131.6413  132.7124  155.6878 H   0  0  0  0  0  0  0  0  0  0  0  0
  130.5450  132.8918  154.2970 H   0  0  0  0  0  0  0  0  0  0  0  0
  130.7460  130.5140  154.9710 H   0  0  0  0  0  0  0  0  0  0  0  0
  129.0868  131.1096  155.2167 H   0  0  0  0  0  0  0  0  0  0  0  0
  131.2421  130.9072  157.3685 H   0  0  0  0  0  0  0  0  0  0  0  0
  129.8614  129.8006  157.1749 H   0  0  0  0  0  0  0  0  0  0  0  0
  129.3925  131.5146  158.9044 H   0  0  0  0  0  0  0  0  0  0  0  0
  128.2964  131.6939  157.5136 H   0  0  0  0  0  0  0  0  0  0  0  0
  133.1796  134.2756  159.7823 H   0  0  0  0  0  0  0  0  0  0  0  0
  133.4144  136.0091  159.4416 H   0  0  0  0  0  0  0  0  0  0  0  0
  135.4249  136.2397  163.2340 H   0  0  0  0  0  0  0  0  0  0  0  0
  135.1160  138.2236  164.6471 H   0  0  0  0  0  0  0  0  0  0  0  0
  130.9087  139.8716  164.5233 H   0  0  0  0  0  0  0  0  0  0  0  0
  130.5965  141.8526  165.9482 H   0  0  0  0  0  0  0  0  0  0  0  0
  132.5502  143.0772  166.8049 H   0  0  0  0  0  0  0  0  0  0  0  0
  134.8257  142.3225  166.2503 H   0  0  0  0  0  0  0  0  0  0  0  0
  135.1567  140.3373  164.8354 H   0  0  0  0  0  0  0  0  0  0  0  0
  131.4262  139.0607  162.6413 H   0  0  0  0  0  0  0  0  0  0  0  0
  130.4448  137.1581  161.3571 H   0  0  0  0  0  0  0  0  0  0  0  0
  131.5694  137.6601  160.0726 H   0  0  0  0  0  0  0  0  0  0  0  0
  127.0982  136.0191  162.4072 H   0  0  0  0  0  0  0  0  0  0  0  0
  126.5585  136.7906  160.8953 H   0  0  0  0  0  0  0  0  0  0  0  0
  124.5221  135.9651  161.7659 H   0  0  0  0  0  0  0  0  0  0  0  0
  1  2  2  0
  2 35  1  0
  2  3  1  0
  3  4  1  0
  3 36  1  0
  4  5  1  0
  4 37  1  0
  4 38  1  0
  5  6  1  0
  5 34  1  0
  5 39  1  0
  6 40  1  0
  7  6  1  0
  7  8  1  0
  7 15  2  0
  8  9  1  0
  8 41  1  0
  9 14  1  0
  9 10  1  0
  9 42  1  0
 10 11  1  0
 10 43  1  0
 10 44  1  0
 11 12  1  0
 11 45  1  0
 11 46  1  0
 12 13  1  0
 12 47  1  0
 12 48  1  0
 13 14  1  0
 13 49  1  0
 13 50  1  0
 14 51  1  0
 14 52  1  0
 15 16  1  0
 15 17  1  0
 17 18  1  1
 17 33  1  0
 17 19  1  0
 19 20  1  0
 19 53  1  0
 19 54  1  0
 20 21  1  0
 21 32  2  0
 21 22  1  0
 22 23  2  0
 22 55  1  0
 23 24  1  0
 23 56  1  0
 24 25  1  0
 24 31  2  0
 25 30  1  0
 25 26  2  0
 26 27  1  0
 26 57  1  0
 27 28  2  0
 27 58  1  0
 28 29  1  0
 28 59  1  0
 29 30  2  0
 29 60  1  0
 30 61  1  0
 31 32  1  0
 31 62  1  0
 32 33  1  0
 33 63  1  0
 33 64  1  0
 34 35  1  0
 34 65  1  0
 34 66  1  0
 35 67  1  0
M  CHG  1  15   1
M  END
>  <DOCK_score>  (1) 
-49.004433

>  <SMILES>  (1) 
O=C1NCC(NC(NC2CCCCC2)=[NH+][C@H]2COc3ccc(-c4ccccc4)cc3C2)CN1

$$$$
