Nc1ccc(-c2c[nH]c(N[C@@H](CN3c4ccccc4CCc4ccccc43)c3ccccc3)[nH+]2)cc1
     RDKit          3D

 66 71  0  0  1  0  0  0  0  0999 V2000
  131.4962  130.1988  152.1363 N   0  0  0  0  0  0  0  0  0  0  0  0
  131.1440  130.8004  153.3468 C   0  0  0  0  0  0  0  0  0  0  0  0
  130.8287  132.1530  153.3843 C   0  0  0  0  0  0  0  0  0  0  0  0
  130.4816  132.7485  154.5785 C   0  0  0  0  0  0  0  0  0  0  0  0
  130.4469  131.9924  155.7491 C   0  0  0  0  0  0  0  0  0  0  0  0
  130.0742  132.6310  157.0353 C   0  0  0  0  0  0  0  0  0  0  0  0
  129.4528  132.0246  158.0766 C   0  0  0  0  0  0  0  0  0  0  0  0
  129.3002  132.9751  159.0582 N   0  0  0  0  0  0  0  0  0  0  0  0
  128.8884  132.8435  159.9265 H   0  0  0  0  0  0  0  0  0  0  0  0
  129.8335  134.1346  158.5863 C   0  0  0  0  0  0  0  0  0  0  0  0
  129.8810  135.3373  159.2702 N   0  0  0  0  0  0  0  0  0  0  0  0
  129.3255  135.4335  160.6225 C   0  0  1  0  0  0  0  0  0  0  0  0
  129.8458  134.7364  161.2794 H   0  0  0  0  0  0  0  0  0  0  0  0
  129.5052  136.8594  161.1473 C   0  0  0  0  0  0  0  0  0  0  0  0
  130.8774  137.0329  161.6300 N   0  0  0  0  0  0  0  0  0  0  0  0
  131.7267  137.9928  161.0670 C   0  0  0  0  0  0  0  0  0  0  0  0
  131.3004  139.3188  161.0897 C   0  0  0  0  0  0  0  0  0  0  0  0
  132.1073  140.3226  160.5985 C   0  0  0  0  0  0  0  0  0  0  0  0
  133.3491  139.9985  160.0825 C   0  0  0  0  0  0  0  0  0  0  0  0
  133.7574  138.6985  160.0466 C   0  0  0  0  0  0  0  0  0  0  0  0
  132.9490  137.6614  160.5184 C   0  0  0  0  0  0  0  0  0  0  0  0
  133.5345  136.2767  160.3447 C   0  0  0  0  0  0  0  0  0  0  0  0
  132.6079  135.1778  160.8348 C   0  0  0  0  0  0  0  0  0  0  0  0
  132.3274  135.3099  162.3089 C   0  0  0  0  0  0  0  0  0  0  0  0
  132.9319  134.5159  163.2565 C   0  0  0  0  0  0  0  0  0  0  0  0
  132.5470  134.6499  164.5827 C   0  0  0  0  0  0  0  0  0  0  0  0
  131.5751  135.5660  164.9422 C   0  0  0  0  0  0  0  0  0  0  0  0
  130.9847  136.3740  163.9838 C   0  0  0  0  0  0  0  0  0  0  0  0
  131.3863  136.2404  162.6661 C   0  0  0  0  0  0  0  0  0  0  0  0
  127.8582  135.0920  160.5884 C   0  0  0  0  0  0  0  0  0  0  0  0
  127.2576  134.5122  161.6902 C   0  0  0  0  0  0  0  0  0  0  0  0
  125.9118  134.1985  161.6588 C   0  0  0  0  0  0  0  0  0  0  0  0
  125.1667  134.4633  160.5250 C   0  0  0  0  0  0  0  0  0  0  0  0
  125.7674  135.0419  159.4226 C   0  0  0  0  0  0  0  0  0  0  0  0
  127.1133  135.3561  159.4543 C   0  0  0  0  0  0  0  0  0  0  0  0
  130.2899  133.9264  157.3753 N   0  0  0  0  0  0  0  0  0  0  0  0
  130.7157  134.5921  156.8127 H   0  0  0  0  0  0  0  0  0  0  0  0
  130.7684  130.6365  155.7104 C   0  0  0  0  0  0  0  0  0  0  0  0
  131.1100  130.0440  154.5131 C   0  0  0  0  0  0  0  0  0  0  0  0
  131.5200  130.7256  151.3222 H   0  0  0  0  0  0  0  0  0  0  0  0
  131.7166  129.2545  152.1096 H   0  0  0  0  0  0  0  0  0  0  0  0
  130.8557  132.7384  152.4771 H   0  0  0  0  0  0  0  0  0  0  0  0
  130.2364  133.8000  154.6069 H   0  0  0  0  0  0  0  0  0  0  0  0
  129.1375  130.9928  158.1255 H   0  0  0  0  0  0  0  0  0  0  0  0
  130.2820  136.1164  158.8542 H   0  0  0  0  0  0  0  0  0  0  0  0
  129.3100  137.5696  160.3438 H   0  0  0  0  0  0  0  0  0  0  0  0
  128.8071  137.0359  161.9657 H   0  0  0  0  0  0  0  0  0  0  0  0
  130.3299  139.5623  161.4957 H   0  0  0  0  0  0  0  0  0  0  0  0
  131.7737  141.3497  160.6158 H   0  0  0  0  0  0  0  0  0  0  0  0
  133.9980  140.7781  159.7116 H   0  0  0  0  0  0  0  0  0  0  0  0
  134.7285  138.4659  159.6354 H   0  0  0  0  0  0  0  0  0  0  0  0
  134.4714  136.2194  160.8988 H   0  0  0  0  0  0  0  0  0  0  0  0
  133.7422  136.1151  159.2869 H   0  0  0  0  0  0  0  0  0  0  0  0
  133.0720  134.2098  160.6459 H   0  0  0  0  0  0  0  0  0  0  0  0
  131.6676  135.2351  160.2866 H   0  0  0  0  0  0  0  0  0  0  0  0
  133.6913  133.8022  162.9732 H   0  0  0  0  0  0  0  0  0  0  0  0
  133.0093  134.0340  165.3400 H   0  0  0  0  0  0  0  0  0  0  0  0
  131.2746  135.6524  165.9760 H   0  0  0  0  0  0  0  0  0  0  0  0
  130.2270  137.0926  164.2592 H   0  0  0  0  0  0  0  0  0  0  0  0
  127.8398  134.3054  162.5762 H   0  0  0  0  0  0  0  0  0  0  0  0
  125.4415  133.7506  162.5216 H   0  0  0  0  0  0  0  0  0  0  0  0
  124.1151  134.2180  160.5002 H   0  0  0  0  0  0  0  0  0  0  0  0
  125.1854  135.2482  158.5366 H   0  0  0  0  0  0  0  0  0  0  0  0
  127.5828  135.8074  158.5927 H   0  0  0  0  0  0  0  0  0  0  0  0
  130.7462  130.0498  156.6168 H   0  0  0  0  0  0  0  0  0  0  0  0
  131.3553  128.9926  154.4818 H   0  0  0  0  0  0  0  0  0  0  0  0
  1  2  1  0
  1 40  1  0
  1 41  1  0
  2 39  2  0
  2  3  1  0
  3  4  2  0
  3 42  1  0
  4  5  1  0
  4 43  1  0
  5  6  1  0
  5 38  2  0
  6 36  1  0
  6  7  2  0
  7  8  1  0
  7 44  1  0
  8  9  1  0
  8 10  1  0
 10 11  1  0
 10 36  2  0
 11 12  1  0
 11 45  1  0
 12 13  1  1
 12 14  1  0
 12 30  1  0
 14 15  1  0
 14 46  1  0
 14 47  1  0
 15 29  1  0
 15 16  1  0
 16 21  1  0
 16 17  2  0
 17 18  1  0
 17 48  1  0
 18 19  2  0
 18 49  1  0
 19 20  1  0
 19 50  1  0
 20 21  2  0
 20 51  1  0
 21 22  1  0
 22 23  1  0
 22 52  1  0
 22 53  1  0
 23 24  1  0
 23 54  1  0
 23 55  1  0
 24 29  2  0
 24 25  1  0
 25 26  2  0
 25 56  1  0
 26 27  1  0
 26 57  1  0
 27 28  2  0
 27 58  1  0
 28 29  1  0
 28 59  1  0
 30 35  1  0
 30 31  2  0
 31 32  1  0
 31 60  1  0
 32 33  2  0
 32 61  1  0
 33 34  1  0
 33 62  1  0
 34 35  2  0
 34 63  1  0
 35 64  1  0
 36 37  1  0
 38 39  1  0
 38 65  1  0
 39 66  1  0
M  CHG  1  36   1
M  END
>  <DOCK_score>  (1) 
-59.672318

>  <SMILES>  (1) 
Nc1ccc(-c2c[nH]c(N[C@@H](CN3c4ccccc4CCc4ccccc43)c3ccccc3)[nH+]2)cc1

$$$$
