CC=C[C@@H](Nc1[nH]cc(-c2ccc(Br)cc2)[nH+]1)c1ccc(Br)cc1
     RDKit          3D

 42 44  0  0  1  0  0  0  0  0999 V2000
  127.3366  135.8190  159.1442 C   0  0  0  0  0  0  0  0  0  0  0  0
  128.7317  135.2940  158.9220 C   0  0  0  0  0  0  0  0  0  0  0  0
  129.4810  134.9714  159.9469 C   0  0  0  0  0  0  0  0  0  0  0  0
  130.8761  134.4464  159.7246 C   0  0  1  0  0  0  0  0  0  0  0  0
  130.9598  133.4462  160.1495 H   0  0  0  0  0  0  0  0  0  0  0  0
  131.1539  134.3911  158.2872 N   0  0  0  0  0  0  0  0  0  0  0  0
  130.8575  133.2456  157.5685 C   0  0  0  0  0  0  0  0  0  0  0  0
  130.3091  132.1095  158.0787 N   0  0  0  0  0  0  0  0  0  0  0  0
  130.0571  131.9579  159.0031 H   0  0  0  0  0  0  0  0  0  0  0  0
  130.1772  131.2169  157.0426 C   0  0  0  0  0  0  0  0  0  0  0  0
  130.6487  131.8328  155.9303 C   0  0  0  0  0  0  0  0  0  0  0  0
  130.7055  131.2499  154.5674 C   0  0  0  0  0  0  0  0  0  0  0  0
  130.0148  131.8548  153.5187 C   0  0  0  0  0  0  0  0  0  0  0  0
  130.0757  131.3118  152.2516 C   0  0  0  0  0  0  0  0  0  0  0  0
  130.8112  130.1619  152.0234 C   0  0  0  0  0  0  0  0  0  0  0  0
  130.8831  129.4187  150.2860 Br  0  0  0  0  0  0  0  0  0  0  0  0
  131.4948  129.5540  153.0625 C   0  0  0  0  0  0  0  0  0  0  0  0
  131.4451  130.0921  154.3322 C   0  0  0  0  0  0  0  0  0  0  0  0
  131.0590  133.0765  156.2845 N   0  0  0  0  0  0  0  0  0  0  0  0
  131.4409  133.7352  155.6834 H   0  0  0  0  0  0  0  0  0  0  0  0
  131.8696  135.3611  160.3934 C   0  0  0  0  0  0  0  0  0  0  0  0
  133.0577  134.8514  160.8829 C   0  0  0  0  0  0  0  0  0  0  0  0
  133.9713  135.6909  161.4920 C   0  0  0  0  0  0  0  0  0  0  0  0
  133.6919  137.0395  161.6211 C   0  0  0  0  0  0  0  0  0  0  0  0
  134.9386  138.1874  162.4602 Br  0  0  0  0  0  0  0  0  0  0  0  0
  132.5007  137.5482  161.1360 C   0  0  0  0  0  0  0  0  0  0  0  0
  131.5899  136.7088  160.5222 C   0  0  0  0  0  0  0  0  0  0  0  0
  126.8706  136.0311  158.1820 H   0  0  0  0  0  0  0  0  0  0  0  0
  126.7477  135.0719  159.6763 H   0  0  0  0  0  0  0  0  0  0  0  0
  127.3825  136.7337  159.7352 H   0  0  0  0  0  0  0  0  0  0  0  0
  129.1135  135.1837  157.9178 H   0  0  0  0  0  0  0  0  0  0  0  0
  129.0992  135.0817  160.9511 H   0  0  0  0  0  0  0  0  0  0  0  0
  131.5453  135.1572  157.8391 H   0  0  0  0  0  0  0  0  0  0  0  0
  129.7789  130.2149  157.1033 H   0  0  0  0  0  0  0  0  0  0  0  0
  129.4366  132.7496  153.6966 H   0  0  0  0  0  0  0  0  0  0  0  0
  129.5448  131.7826  151.4373 H   0  0  0  0  0  0  0  0  0  0  0  0
  132.0675  128.6570  152.8792 H   0  0  0  0  0  0  0  0  0  0  0  0
  131.9787  129.6173  155.1423 H   0  0  0  0  0  0  0  0  0  0  0  0
  133.2739  133.7978  160.7855 H   0  0  0  0  0  0  0  0  0  0  0  0
  134.9011  135.2932  161.8709 H   0  0  0  0  0  0  0  0  0  0  0  0
  132.2820  138.6010  161.2370 H   0  0  0  0  0  0  0  0  0  0  0  0
  130.6600  137.1060  160.1431 H   0  0  0  0  0  0  0  0  0  0  0  0
  1  2  1  0
  1 28  1  0
  1 29  1  0
  1 30  1  0
  2  3  2  0
  2 31  1  0
  3  4  1  0
  3 32  1  0
  4  5  1  1
  4  6  1  0
  4 21  1  0
  6 33  1  0
  7  6  1  0
  7 19  2  0
  7  8  1  0
  8  9  1  0
  8 10  1  0
 10 11  2  0
 10 34  1  0
 11 12  1  0
 11 19  1  0
 12 18  1  0
 12 13  2  0
 13 14  1  0
 13 35  1  0
 14 15  2  0
 14 36  1  0
 15 16  1  0
 15 17  1  0
 17 18  2  0
 17 37  1  0
 18 38  1  0
 19 20  1  0
 21 27  1  0
 21 22  2  0
 22 23  1  0
 22 39  1  0
 23 24  2  0
 23 40  1  0
 24 25  1  0
 24 26  1  0
 26 27  2  0
 26 41  1  0
 27 42  1  0
M  CHG  1  19   1
M  END
>  <DOCK_score>  (1) 
-56.901302

>  <SMILES>  (1) 
CC=C[C@@H](Nc1[nH]cc(-c2ccc(Br)cc2)[nH+]1)c1ccc(Br)cc1

$$$$
