Oc1cc(F)cc(C[NH+]=C(NC/C=C/c2ccc(F)cc2)NC2CC=CC2)c1
     RDKit          3D

 52 54  0  0  1  0  0  0  0  0999 V2000
  124.6611  135.8044  163.4016 O   0  0  0  0  0  0  0  0  0  0  0  0
  125.8916  135.7502  163.9757 C   0  0  0  0  0  0  0  0  0  0  0  0
  126.0302  135.2985  165.2798 C   0  0  0  0  0  0  0  0  0  0  0  0
  127.2840  135.2447  165.8620 C   0  0  0  0  0  0  0  0  0  0  0  0
  127.4207  134.8054  167.1322 F   0  0  0  0  0  0  0  0  0  0  0  0
  128.4000  135.6364  165.1406 C   0  0  0  0  0  0  0  0  0  0  0  0
  128.2615  136.0919  163.8431 C   0  0  0  0  0  0  0  0  0  0  0  0
  129.4767  136.5231  163.0632 C   0  0  0  0  0  0  0  0  0  0  0  0
  129.4141  135.9614  161.7117 N   0  0  0  0  0  0  0  0  0  0  0  0
  128.6621  135.4067  161.4514 H   0  0  0  0  0  0  0  0  0  0  0  0
  130.3689  136.2070  160.8589 C   0  0  0  0  0  0  0  0  0  0  0  0
  131.4346  136.9931  161.2278 N   0  0  0  0  0  0  0  0  0  0  0  0
  132.5077  137.2691  160.2694 C   0  0  0  0  0  0  0  0  0  0  0  0
  133.5466  138.1474  160.9178 C   0  0  0  0  0  0  0  0  0  0  0  0
  133.8221  139.3382  160.4041 C   0  0  0  0  0  0  0  0  0  0  0  0
  134.8408  140.1996  161.0399 C   0  0  0  0  0  0  0  0  0  0  0  0
  135.2111  139.9829  162.3679 C   0  0  0  0  0  0  0  0  0  0  0  0
  136.1628  140.7894  162.9563 C   0  0  0  0  0  0  0  0  0  0  0  0
  136.7468  141.8171  162.2329 C   0  0  0  0  0  0  0  0  0  0  0  0
  137.6741  142.6080  162.8159 F   0  0  0  0  0  0  0  0  0  0  0  0
  136.3869  142.0329  160.9122 C   0  0  0  0  0  0  0  0  0  0  0  0
  135.4364  141.2322  160.3143 C   0  0  0  0  0  0  0  0  0  0  0  0
  130.3100  135.6798  159.5905 N   0  0  0  0  0  0  0  0  0  0  0  0
  129.1743  134.8420  159.1974 C   0  0  0  0  0  0  0  0  0  0  0  0
  129.1846  133.4983  159.9626 C   0  0  0  0  0  0  0  0  0  0  0  0
  128.7091  132.4784  158.9542 C   0  0  0  0  0  0  0  0  0  0  0  0
  128.7822  132.9495  157.7391 C   0  0  0  0  0  0  0  0  0  0  0  0
  129.3186  134.3621  157.7345 C   0  0  0  0  0  0  0  0  0  0  0  0
  127.0108  136.1470  163.2582 C   0  0  0  0  0  0  0  0  0  0  0  0
  124.6655  136.1324  162.4919 H   0  0  0  0  0  0  0  0  0  0  0  0
  125.1602  134.9894  165.8402 H   0  0  0  0  0  0  0  0  0  0  0  0
  129.3790  135.5900  165.5944 H   0  0  0  0  0  0  0  0  0  0  0  0
  130.3760  136.1646  163.5643 H   0  0  0  0  0  0  0  0  0  0  0  0
  129.5031  137.6110  163.0036 H   0  0  0  0  0  0  0  0  0  0  0  0
  131.4761  137.3649  162.1228 H   0  0  0  0  0  0  0  0  0  0  0  0
  132.0948  137.7774  159.3982 H   0  0  0  0  0  0  0  0  0  0  0  0
  132.9676  136.3310  159.9588 H   0  0  0  0  0  0  0  0  0  0  0  0
  134.0668  137.8069  161.8009 H   0  0  0  0  0  0  0  0  0  0  0  0
  133.3019  139.6787  159.5209 H   0  0  0  0  0  0  0  0  0  0  0  0
  134.7530  139.1853  162.9340 H   0  0  0  0  0  0  0  0  0  0  0  0
  136.4500  140.6226  163.9839 H   0  0  0  0  0  0  0  0  0  0  0  0
  136.8484  142.8323  160.3515 H   0  0  0  0  0  0  0  0  0  0  0  0
  135.1536  141.4038  159.2862 H   0  0  0  0  0  0  0  0  0  0  0  0
  131.0205  135.8625  158.9559 H   0  0  0  0  0  0  0  0  0  0  0  0
  128.2320  135.3698  159.3449 H   0  0  0  0  0  0  0  0  0  0  0  0
  130.1941  133.2595  160.2971 H   0  0  0  0  0  0  0  0  0  0  0  0
  128.5022  133.5395  160.8116 H   0  0  0  0  0  0  0  0  0  0  0  0
  128.3550  131.4896  159.2058 H   0  0  0  0  0  0  0  0  0  0  0  0
  128.4965  132.4016  156.8533 H   0  0  0  0  0  0  0  0  0  0  0  0
  128.7273  134.9906  157.0686 H   0  0  0  0  0  0  0  0  0  0  0  0
  130.3661  134.3714  157.4335 H   0  0  0  0  0  0  0  0  0  0  0  0
  126.9045  136.4993  162.2429 H   0  0  0  0  0  0  0  0  0  0  0  0
  1  2  1  0
  1 30  1  0
  2 29  2  0
  2  3  1  0
  3  4  2  0
  3 31  1  0
  4  5  1  0
  4  6  1  0
  6  7  2  0
  6 32  1  0
  7  8  1  0
  7 29  1  0
  8  9  1  0
  8 33  1  0
  8 34  1  0
  9 10  1  0
 11  9  2  0
 11 12  1  0
 11 23  1  0
 12 13  1  0
 12 35  1  0
 13 14  1  0
 13 36  1  0
 13 37  1  0
 14 15  2  0
 14 38  1  0
 15 16  1  0
 15 39  1  0
 16 22  1  0
 16 17  2  0
 17 18  1  0
 17 40  1  0
 18 19  2  0
 18 41  1  0
 19 20  1  0
 19 21  1  0
 21 22  2  0
 21 42  1  0
 22 43  1  0
 23 24  1  0
 23 44  1  0
 24 28  1  0
 24 25  1  0
 24 45  1  0
 25 26  1  0
 25 46  1  0
 25 47  1  0
 26 27  2  0
 26 48  1  0
 27 28  1  0
 27 49  1  0
 28 50  1  0
 28 51  1  0
 29 52  1  0
M  CHG  1   9   1
M  END
>  <DOCK_score>  (1) 
-45.015339

>  <SMILES>  (1) 
Oc1cc(F)cc(C[NH+]=C(NC/C=C/c2ccc(F)cc2)NC2CC=CC2)c1

$$$$
