O=C1CC[C@H]([NH+]=C(NC2=CCC(=O)N2)N[C@@H]2C[C@H]2c2ccc(F)cc2)CN1
     RDKit          3D

 50 53  0  0  1  0  0  0  0  0999 V2000
  124.8202  136.5854  164.5554 O   0  0  0  0  0  0  0  0  0  0  0  0
  125.9305  136.5748  164.0673 C   0  0  0  0  0  0  0  0  0  0  0  0
  127.0999  136.2958  164.9674 C   0  0  0  0  0  0  0  0  0  0  0  0
  128.3982  136.7445  164.2932 C   0  0  0  0  0  0  0  0  0  0  0  0
  128.4195  136.1895  162.8638 C   0  0  2  0  0  0  0  0  0  0  0  0
  128.2406  135.1146  162.8862 H   0  0  0  0  0  0  0  0  0  0  0  0
  129.7229  136.4584  162.2515 N   0  0  0  0  0  0  0  0  0  0  0  0
  130.4082  136.9250  162.7548 H   0  0  0  0  0  0  0  0  0  0  0  0
  129.9616  136.0704  161.0304 C   0  0  0  0  0  0  0  0  0  0  0  0
  130.8356  136.7830  160.2399 N   0  0  0  0  0  0  0  0  0  0  0  0
  131.4642  137.9184  160.7453 C   0  0  0  0  0  0  0  0  0  0  0  0
  132.6677  138.3280  160.3660 C   0  0  0  0  0  0  0  0  0  0  0  0
  132.9612  139.5879  161.1544 C   0  0  0  0  0  0  0  0  0  0  0  0
  131.7265  139.7700  162.0143 C   0  0  0  0  0  0  0  0  0  0  0  0
  131.5184  140.6556  162.8163 O   0  0  0  0  0  0  0  0  0  0  0  0
  130.9077  138.7457  161.7051 N   0  0  0  0  0  0  0  0  0  0  0  0
  129.3409  134.9494  160.5314 N   0  0  0  0  0  0  0  0  0  0  0  0
  129.6094  134.5134  159.1588 C   0  0  2  0  0  0  0  0  0  0  0  0
  130.6019  134.7508  158.7756 H   0  0  0  0  0  0  0  0  0  0  0  0
  128.4438  134.5411  158.1681 C   0  0  0  0  0  0  0  0  0  0  0  0
  128.9679  133.2039  158.6954 C   0  0  1  0  0  0  0  0  0  0  0  0
  128.3465  132.6667  159.4119 H   0  0  0  0  0  0  0  0  0  0  0  0
  129.7563  132.3414  157.7437 C   0  0  0  0  0  0  0  0  0  0  0  0
  129.5969  130.9684  157.7624 C   0  0  0  0  0  0  0  0  0  0  0  0
  130.3157  130.1768  156.8867 C   0  0  0  0  0  0  0  0  0  0  0  0
  131.2035  130.7587  155.9977 C   0  0  0  0  0  0  0  0  0  0  0  0
  131.9103  129.9855  155.1446 F   0  0  0  0  0  0  0  0  0  0  0  0
  131.3662  132.1336  155.9836 C   0  0  0  0  0  0  0  0  0  0  0  0
  130.6424  132.9235  156.8565 C   0  0  0  0  0  0  0  0  0  0  0  0
  127.3200  136.8757  162.0521 C   0  0  0  0  0  0  0  0  0  0  0  0
  126.0476  136.8117  162.7603 N   0  0  0  0  0  0  0  0  0  0  0  0
  126.9722  136.8366  165.9050 H   0  0  0  0  0  0  0  0  0  0  0  0
  127.1523  135.2265  165.1721 H   0  0  0  0  0  0  0  0  0  0  0  0
  129.2541  136.3611  164.8485 H   0  0  0  0  0  0  0  0  0  0  0  0
  128.4367  137.8336  164.2645 H   0  0  0  0  0  0  0  0  0  0  0  0
  131.0164  136.4919  159.3325 H   0  0  0  0  0  0  0  0  0  0  0  0
  133.3107  137.8573  159.6372 H   0  0  0  0  0  0  0  0  0  0  0  0
  133.0922  140.4396  160.4871 H   0  0  0  0  0  0  0  0  0  0  0  0
  133.8447  139.4486  161.7775 H   0  0  0  0  0  0  0  0  0  0  0  0
  130.0359  138.6051  162.1062 H   0  0  0  0  0  0  0  0  0  0  0  0
  128.7255  134.4475  161.0882 H   0  0  0  0  0  0  0  0  0  0  0  0
  127.4773  134.8839  158.5375 H   0  0  0  0  0  0  0  0  0  0  0  0
  128.6693  134.7970  157.1327 H   0  0  0  0  0  0  0  0  0  0  0  0
  128.9074  130.5144  158.4587 H   0  0  0  0  0  0  0  0  0  0  0  0
  130.1880  129.1044  156.8987 H   0  0  0  0  0  0  0  0  0  0  0  0
  132.0581  132.5886  155.2904 H   0  0  0  0  0  0  0  0  0  0  0  0
  130.7693  133.9960  156.8459 H   0  0  0  0  0  0  0  0  0  0  0  0
  127.5898  137.9192  161.8897 H   0  0  0  0  0  0  0  0  0  0  0  0
  127.2207  136.3782  161.0873 H   0  0  0  0  0  0  0  0  0  0  0  0
  125.2353  136.9500  162.2487 H   0  0  0  0  0  0  0  0  0  0  0  0
  1  2  2  0
  2 31  1  0
  2  3  1  0
  3  4  1  0
  3 32  1  0
  3 33  1  0
  4  5  1  0
  4 34  1  0
  4 35  1  0
  5  6  1  1
  5  7  1  0
  5 30  1  0
  7  8  1  0
  9  7  2  0
  9 10  1  0
  9 17  1  0
 10 11  1  0
 10 36  1  0
 11 16  1  0
 11 12  2  0
 12 13  1  0
 12 37  1  0
 13 14  1  0
 13 38  1  0
 13 39  1  0
 14 15  2  0
 14 16  1  0
 16 40  1  0
 17 18  1  0
 17 41  1  0
 18 19  1  6
 18 21  1  0
 18 20  1  0
 20 21  1  0
 20 42  1  0
 20 43  1  0
 21 22  1  1
 21 23  1  0
 23 29  1  0
 23 24  2  0
 24 25  1  0
 24 44  1  0
 25 26  2  0
 25 45  1  0
 26 27  1  0
 26 28  1  0
 28 29  2  0
 28 46  1  0
 29 47  1  0
 30 31  1  0
 30 48  1  0
 30 49  1  0
 31 50  1  0
M  CHG  1   7   1
M  END
>  <DOCK_score>  (1) 
-41.263725

>  <SMILES>  (1) 
O=C1CC[C@H]([NH+]=C(NC2=CCC(=O)N2)N[C@@H]2C[C@H]2c2ccc(F)cc2)CN1

$$$$
