O=C1CCC(CO[C@@H]2C[C@H](O)C[C@H]([NH+]=C(NCc3cccs3)N[C@H]3C=CCCC3)C2)CN1
     RDKit          3D

 69 72  0  0  1  0  0  0  0  0999 V2000
  129.1205  135.1816  172.0964 O   0  0  0  0  0  0  0  0  0  0  0  0
  129.2297  135.7930  171.0547 C   0  0  0  0  0  0  0  0  0  0  0  0
  127.9819  136.3184  170.4048 C   0  0  0  0  0  0  0  0  0  0  0  0
  128.2614  136.6569  168.9384 C   0  0  0  0  0  0  0  0  0  0  0  0
  129.5372  137.5051  168.8715 C   0  0  2  0  0  0  0  0  0  0  0  0
  129.7430  138.0108  167.4423 C   0  0  0  0  0  0  0  0  0  0  0  0
  129.8664  136.8969  166.5559 O   0  0  0  0  0  0  0  0  0  0  0  0
  129.6122  137.2133  165.1858 C   0  0  2  0  0  0  0  0  0  0  0  0
  130.0504  138.1828  164.9494 H   0  0  0  0  0  0  0  0  0  0  0  0
  128.1020  137.2640  164.9459 C   0  0  0  0  0  0  0  0  0  0  0  0
  127.8297  137.6028  163.4788 C   0  0  2  0  0  0  0  0  0  0  0  0
  128.2679  138.5724  163.2426 H   0  0  0  0  0  0  0  0  0  0  0  0
  126.4192  137.6504  163.2548 O   0  0  0  0  0  0  0  0  0  0  0  0
  128.4525  136.5298  162.5835 C   0  0  0  0  0  0  0  0  0  0  0  0
  129.9627  136.4789  162.8234 C   0  0  2  0  0  0  0  0  0  0  0  0
  130.4010  137.4484  162.5871 H   0  0  0  0  0  0  0  0  0  0  0  0
  130.5590  135.4514  161.9662 N   0  0  0  0  0  0  0  0  0  0  0  0
  130.2772  134.5270  162.0494 H   0  0  0  0  0  0  0  0  0  0  0  0
  131.4644  135.7802  161.0880 C   0  0  0  0  0  0  0  0  0  0  0  0
  132.2970  136.8480  161.3260 N   0  0  0  0  0  0  0  0  0  0  0  0
  133.3146  137.2176  160.3390 C   0  0  0  0  0  0  0  0  0  0  0  0
  134.0873  138.4116  160.8373 C   0  0  0  0  0  0  0  0  0  0  0  0
  133.7713  139.6857  160.5999 C   0  0  0  0  0  0  0  0  0  0  0  0
  134.6290  140.6141  161.1642 C   0  0  0  0  0  0  0  0  0  0  0  0
  135.6466  140.0940  161.8521 C   0  0  0  0  0  0  0  0  0  0  0  0
  135.5481  138.3383  161.8141 S   0  0  0  0  0  0  0  0  0  0  0  0
  131.5866  135.0592  159.9239 N   0  0  0  0  0  0  0  0  0  0  0  0
  130.6994  133.9214  159.6704 C   0  0  1  0  0  0  0  0  0  0  0  0
  129.7411  134.0943  160.1601 H   0  0  0  0  0  0  0  0  0  0  0  0
  130.4812  133.7803  158.1924 C   0  0  0  0  0  0  0  0  0  0  0  0
  130.4865  132.6490  157.5631 C   0  0  0  0  0  0  0  0  0  0  0  0
  130.7216  131.3215  158.2222 C   0  0  0  0  0  0  0  0  0  0  0  0
  130.5270  131.4424  159.7352 C   0  0  0  0  0  0  0  0  0  0  0  0
  131.3342  132.6479  160.2333 C   0  0  0  0  0  0  0  0  0  0  0  0
  130.2349  136.1402  164.2905 C   0  0  0  0  0  0  0  0  0  0  0  0
  130.7254  136.6354  169.2840 C   0  0  0  0  0  0  0  0  0  0  0  0
  130.4514  135.9633  170.5479 N   0  0  0  0  0  0  0  0  0  0  0  0
  127.6520  137.2164  170.9272 H   0  0  0  0  0  0  0  0  0  0  0  0
  127.1994  135.5616  170.4588 H   0  0  0  0  0  0  0  0  0  0  0  0
  127.4244  137.2201  168.5258 H   0  0  0  0  0  0  0  0  0  0  0  0
  128.4015  135.7376  168.3698 H   0  0  0  0  0  0  0  0  0  0  0  0
  129.4486  138.3532  169.5504 H   0  0  0  0  0  0  0  0  0  0  0  0
  130.6502  138.6133  167.3972 H   0  0  0  0  0  0  0  0  0  0  0  0
  128.8882  138.6185  167.1452 H   0  0  0  0  0  0  0  0  0  0  0  0
  127.6637  136.2945  165.1823 H   0  0  0  0  0  0  0  0  0  0  0  0
  127.6582  138.0286  165.5836 H   0  0  0  0  0  0  0  0  0  0  0  0
  125.9624  136.8195  163.4452 H   0  0  0  0  0  0  0  0  0  0  0  0
  128.2586  136.7711  161.5385 H   0  0  0  0  0  0  0  0  0  0  0  0
  128.0142  135.5601  162.8200 H   0  0  0  0  0  0  0  0  0  0  0  0
  132.2108  137.3565  162.1475 H   0  0  0  0  0  0  0  0  0  0  0  0
  133.9962  136.3804  160.1891 H   0  0  0  0  0  0  0  0  0  0  0  0
  132.8310  137.4661  159.3943 H   0  0  0  0  0  0  0  0  0  0  0  0
  132.9100  139.9710  160.0142 H   0  0  0  0  0  0  0  0  0  0  0  0
  134.4873  141.6789  161.0526 H   0  0  0  0  0  0  0  0  0  0  0  0
  136.4135  140.6638  162.3558 H   0  0  0  0  0  0  0  0  0  0  0  0
  132.2603  135.3040  159.2703 H   0  0  0  0  0  0  0  0  0  0  0  0
  130.3087  134.6784  157.6179 H   0  0  0  0  0  0  0  0  0  0  0  0
  130.3104  132.6615  156.4977 H   0  0  0  0  0  0  0  0  0  0  0  0
  131.7387  130.9899  158.0141 H   0  0  0  0  0  0  0  0  0  0  0  0
  130.0153  130.5928  157.8242 H   0  0  0  0  0  0  0  0  0  0  0  0
  130.8833  130.5355  160.2240 H   0  0  0  0  0  0  0  0  0  0  0  0
  129.4710  131.5897  159.9614 H   0  0  0  0  0  0  0  0  0  0  0  0
  132.3643  132.5677  159.8864 H   0  0  0  0  0  0  0  0  0  0  0  0
  131.3159  132.6800  161.3227 H   0  0  0  0  0  0  0  0  0  0  0  0
  129.7967  135.1705  164.5268 H   0  0  0  0  0  0  0  0  0  0  0  0
  131.3108  136.1039  164.4614 H   0  0  0  0  0  0  0  0  0  0  0  0
  130.9108  135.8887  168.5117 H   0  0  0  0  0  0  0  0  0  0  0  0
  131.6101  137.2627  169.3939 H   0  0  0  0  0  0  0  0  0  0  0  0
  131.2048  135.6181  171.0520 H   0  0  0  0  0  0  0  0  0  0  0  0
  1  2  2  0
  2 37  1  0
  2  3  1  0
  3  4  1  0
  3 38  1  0
  3 39  1  0
  4  5  1  0
  4 40  1  0
  4 41  1  0
  5  6  1  0
  5 36  1  0
  5 42  1  1
  6  7  1  0
  6 43  1  0
  6 44  1  0
  7  8  1  0
  8  9  1  6
  8 35  1  0
  8 10  1  0
 10 11  1  0
 10 45  1  0
 10 46  1  0
 11 12  1  6
 11 13  1  0
 11 14  1  0
 13 47  1  0
 14 15  1  0
 14 48  1  0
 14 49  1  0
 15 16  1  6
 15 17  1  0
 15 35  1  0
 17 18  1  0
 19 17  2  0
 19 20  1  0
 19 27  1  0
 20 21  1  0
 20 50  1  0
 21 22  1  0
 21 51  1  0
 21 52  1  0
 22 26  1  0
 22 23  2  0
 23 24  1  0
 23 53  1  0
 24 25  2  0
 24 54  1  0
 25 26  1  0
 25 55  1  0
 27 28  1  0
 27 56  1  0
 28 29  1  1
 28 34  1  0
 28 30  1  0
 30 31  2  0
 30 57  1  0
 31 32  1  0
 31 58  1  0
 32 33  1  0
 32 59  1  0
 32 60  1  0
 33 34  1  0
 33 61  1  0
 33 62  1  0
 34 63  1  0
 34 64  1  0
 35 65  1  0
 35 66  1  0
 36 37  1  0
 36 67  1  0
 36 68  1  0
 37 69  1  0
M  CHG  1  17   1
M  END
>  <DOCK_score>  (1) 
-43.623482

>  <SMILES>  (1) 
O=C1CCC(CO[C@@H]2C[C@H](O)C[C@H]([NH+]=C(NCc3cccs3)N[C@H]3C=CCCC3)C2)CN1

$$$$
