O[C@H](Cc1ccccc1)C(Nc1[nH]cc(-c2ccc(Br)cc2)[nH+]1)c1ccccc1
     RDKit          3D

 52 55  0  0  1  0  0  0  0  0999 V2000
  130.4149  138.0527  160.1758 O   0  0  0  0  0  0  0  0  0  0  0  0
  131.0159  137.0812  161.0344 C   0  0  2  0  0  0  0  0  0  0  0  0
  130.7373  137.2876  162.0676 H   0  0  0  0  0  0  0  0  0  0  0  0
  132.5380  137.1483  160.8937 C   0  0  0  0  0  0  0  0  0  0  0  0
  133.0681  138.2965  161.7132 C   0  0  0  0  0  0  0  0  0  0  0  0
  133.1973  139.5499  161.1446 C   0  0  0  0  0  0  0  0  0  0  0  0
  133.6791  140.6043  161.8977 C   0  0  0  0  0  0  0  0  0  0  0  0
  134.0415  140.4028  163.2165 C   0  0  0  0  0  0  0  0  0  0  0  0
  133.9171  139.1483  163.7835 C   0  0  0  0  0  0  0  0  0  0  0  0
  133.4305  138.0952  163.0320 C   0  0  0  0  0  0  0  0  0  0  0  0
  130.5288  135.6844  160.6438 C   0  0  2  0  0  0  0  0  0  0  0  0
  130.9037  135.4071  159.2550 N   0  0  0  0  0  0  0  0  0  0  0  0
  130.5674  134.1953  158.6761 C   0  0  0  0  0  0  0  0  0  0  0  0
  129.8981  133.1820  159.2903 N   0  0  0  0  0  0  0  0  0  0  0  0
  129.5733  133.1789  160.2044 H   0  0  0  0  0  0  0  0  0  0  0  0
  129.7643  132.1655  158.3758 C   0  0  0  0  0  0  0  0  0  0  0  0
  130.3627  132.5833  157.2328 C   0  0  0  0  0  0  0  0  0  0  0  0
  130.4698  131.8110  155.9709 C   0  0  0  0  0  0  0  0  0  0  0  0
  129.9075  132.3086  154.7967 C   0  0  0  0  0  0  0  0  0  0  0  0
  130.0146  131.5887  153.6243 C   0  0  0  0  0  0  0  0  0  0  0  0
  130.6695  130.3697  153.6153 C   0  0  0  0  0  0  0  0  0  0  0  0
  130.8059  129.3851  152.0065 Br  0  0  0  0  0  0  0  0  0  0  0  0
  131.2248  129.8680  154.7800 C   0  0  0  0  0  0  0  0  0  0  0  0
  131.1280  130.5825  155.9567 C   0  0  0  0  0  0  0  0  0  0  0  0
  130.8462  133.8326  157.4478 N   0  0  0  0  0  0  0  0  0  0  0  0
  131.3223  134.3712  156.7966 H   0  0  0  0  0  0  0  0  0  0  0  0
  129.0296  135.6184  160.7823 C   0  0  0  0  0  0  0  0  0  0  0  0
  128.4629  135.2229  161.9796 C   0  0  0  0  0  0  0  0  0  0  0  0
  127.0877  135.1669  162.1081 C   0  0  0  0  0  0  0  0  0  0  0  0
  126.2792  135.4963  161.0362 C   0  0  0  0  0  0  0  0  0  0  0  0
  126.8461  135.8867  159.8374 C   0  0  0  0  0  0  0  0  0  0  0  0
  128.2213  135.9477  159.7104 C   0  0  0  0  0  0  0  0  0  0  0  0
  130.6206  137.9304  159.2388 H   0  0  0  0  0  0  0  0  0  0  0  0
  132.9771  136.2157  161.2481 H   0  0  0  0  0  0  0  0  0  0  0  0
  132.7999  137.2982  159.8462 H   0  0  0  0  0  0  0  0  0  0  0  0
  132.9185  139.7062  160.1130 H   0  0  0  0  0  0  0  0  0  0  0  0
  133.7766  141.5843  161.4546 H   0  0  0  0  0  0  0  0  0  0  0  0
  134.4220  141.2256  163.8036 H   0  0  0  0  0  0  0  0  0  0  0  0
  134.2006  138.9908  164.8137 H   0  0  0  0  0  0  0  0  0  0  0  0
  133.3337  137.1150  163.4749 H   0  0  0  0  0  0  0  0  0  0  0  0
  130.9872  134.9435  161.2988 H   0  0  0  0  0  0  0  0  0  0  0  0
  131.3839  136.0741  158.7399 H   0  0  0  0  0  0  0  0  0  0  0  0
  129.2793  131.2142  158.5375 H   0  0  0  0  0  0  0  0  0  0  0  0
  129.3926  133.2579  154.8035 H   0  0  0  0  0  0  0  0  0  0  0  0
  129.5828  131.9753  152.7130 H   0  0  0  0  0  0  0  0  0  0  0  0
  131.7347  128.9160  154.7679 H   0  0  0  0  0  0  0  0  0  0  0  0
  131.5618  130.1906  156.8647 H   0  0  0  0  0  0  0  0  0  0  0  0
  129.0944  134.9614  162.8156 H   0  0  0  0  0  0  0  0  0  0  0  0
  126.6449  134.8616  163.0445 H   0  0  0  0  0  0  0  0  0  0  0  0
  125.2049  135.4483  161.1352 H   0  0  0  0  0  0  0  0  0  0  0  0
  126.2146  136.1437  158.9999 H   0  0  0  0  0  0  0  0  0  0  0  0
  128.6641  136.2523  158.7737 H   0  0  0  0  0  0  0  0  0  0  0  0
  1  2  1  0
  1 33  1  0
  2  3  1  1
  2  4  1  0
  2 11  1  0
  4  5  1  0
  4 34  1  0
  4 35  1  0
  5 10  1  0
  5  6  2  0
  6  7  1  0
  6 36  1  0
  7  8  2  0
  7 37  1  0
  8  9  1  0
  8 38  1  0
  9 10  2  0
  9 39  1  0
 10 40  1  0
 11 12  1  0
 11 27  1  0
 11 41  1  1
 12 42  1  0
 13 12  1  0
 13 25  2  0
 13 14  1  0
 14 15  1  0
 14 16  1  0
 16 17  2  0
 16 43  1  0
 17 18  1  0
 17 25  1  0
 18 24  1  0
 18 19  2  0
 19 20  1  0
 19 44  1  0
 20 21  2  0
 20 45  1  0
 21 22  1  0
 21 23  1  0
 23 24  2  0
 23 46  1  0
 24 47  1  0
 25 26  1  0
 27 32  1  0
 27 28  2  0
 28 29  1  0
 28 48  1  0
 29 30  2  0
 29 49  1  0
 30 31  1  0
 30 50  1  0
 31 32  2  0
 31 51  1  0
 32 52  1  0
M  CHG  1  25   1
M  END
>  <DOCK_score>  (1) 
-60.806538

>  <SMILES>  (1) 
O[C@H](Cc1ccccc1)C(Nc1[nH]cc(-c2ccc(Br)cc2)[nH+]1)c1ccccc1

$$$$
