CCc1ccc(C[C@@H](Nc2[nH]cc(-c3ccc(CC)cc3)[nH+]2)c2cccc(N)c2C)cc1
     RDKit          3D

 65 68  0  0  1  0  0  0  0  0999 V2000
  126.6060  131.6947  159.4274 C   0  0  0  0  0  0  0  0  0  0  0  0
  125.9395  132.9819  159.9172 C   0  0  0  0  0  0  0  0  0  0  0  0
  126.9994  133.9726  160.3249 C   0  0  0  0  0  0  0  0  0  0  0  0
  127.5074  134.8624  159.3969 C   0  0  0  0  0  0  0  0  0  0  0  0
  128.4800  135.7709  159.7708 C   0  0  0  0  0  0  0  0  0  0  0  0
  128.9445  135.7896  161.0726 C   0  0  0  0  0  0  0  0  0  0  0  0
  130.0051  136.7797  161.4801 C   0  0  0  0  0  0  0  0  0  0  0  0
  131.3885  136.1645  161.2596 C   0  0  1  0  0  0  0  0  0  0  0  0
  131.4846  135.2610  161.8615 H   0  0  0  0  0  0  0  0  0  0  0  0
  131.5532  135.8279  159.8433 N   0  0  0  0  0  0  0  0  0  0  0  0
  131.1789  134.5779  159.3810 C   0  0  0  0  0  0  0  0  0  0  0  0
  130.6428  133.5809  160.1367 N   0  0  0  0  0  0  0  0  0  0  0  0
  130.4562  133.6180  161.0878 H   0  0  0  0  0  0  0  0  0  0  0  0
  130.4153  132.5125  159.3039 C   0  0  0  0  0  0  0  0  0  0  0  0
  130.8185  132.8867  158.0644 C   0  0  0  0  0  0  0  0  0  0  0  0
  130.7619  132.0525  156.8391 C   0  0  0  0  0  0  0  0  0  0  0  0
  130.0111  132.4711  155.7420 C   0  0  0  0  0  0  0  0  0  0  0  0
  129.9664  131.6936  154.6028 C   0  0  0  0  0  0  0  0  0  0  0  0
  130.6560  130.4956  154.5522 C   0  0  0  0  0  0  0  0  0  0  0  0
  130.5988  129.6482  153.3074 C   0  0  0  0  0  0  0  0  0  0  0  0
  131.7351  130.0495  152.3647 C   0  0  0  0  0  0  0  0  0  0  0  0
  131.3988  130.0727  155.6401 C   0  0  0  0  0  0  0  0  0  0  0  0
  131.4550  130.8446  156.7827 C   0  0  0  0  0  0  0  0  0  0  0  0
  131.2770  134.1612  158.1422 N   0  0  0  0  0  0  0  0  0  0  0  0
  131.6240  134.6804  157.3999 H   0  0  0  0  0  0  0  0  0  0  0  0
  132.4491  137.1545  161.6672 C   0  0  0  0  0  0  0  0  0  0  0  0
  132.2071  138.5116  161.5546 C   0  0  0  0  0  0  0  0  0  0  0  0
  133.1776  139.4233  161.9270 C   0  0  0  0  0  0  0  0  0  0  0  0
  134.3924  138.9813  162.4134 C   0  0  0  0  0  0  0  0  0  0  0  0
  134.6387  137.6192  162.5279 C   0  0  0  0  0  0  0  0  0  0  0  0
  135.8662  137.1687  163.0189 N   0  0  0  0  0  0  0  0  0  0  0  0
  133.6635  136.7058  162.1474 C   0  0  0  0  0  0  0  0  0  0  0  0
  133.9286  135.2269  162.2640 C   0  0  0  0  0  0  0  0  0  0  0  0
  128.4403  134.8962  161.9992 C   0  0  0  0  0  0  0  0  0  0  0  0
  127.4639  133.9913  161.6268 C   0  0  0  0  0  0  0  0  0  0  0  0
  127.2429  131.9182  158.5717 H   0  0  0  0  0  0  0  0  0  0  0  0
  127.2104  131.2708  160.2293 H   0  0  0  0  0  0  0  0  0  0  0  0
  125.8393  130.9782  159.1326 H   0  0  0  0  0  0  0  0  0  0  0  0
  125.3027  132.7585  160.7730 H   0  0  0  0  0  0  0  0  0  0  0  0
  125.3351  133.4059  159.1153 H   0  0  0  0  0  0  0  0  0  0  0  0
  127.1448  134.8476  158.3797 H   0  0  0  0  0  0  0  0  0  0  0  0
  128.8771  136.4659  159.0458 H   0  0  0  0  0  0  0  0  0  0  0  0
  129.8826  137.0303  162.5337 H   0  0  0  0  0  0  0  0  0  0  0  0
  129.9090  137.6833  160.8781 H   0  0  0  0  0  0  0  0  0  0  0  0
  131.9244  136.4808  159.2296 H   0  0  0  0  0  0  0  0  0  0  0  0
  129.9957  131.5572  159.5829 H   0  0  0  0  0  0  0  0  0  0  0  0
  129.4682  133.4039  155.7821 H   0  0  0  0  0  0  0  0  0  0  0  0
  129.3882  132.0188  153.7504 H   0  0  0  0  0  0  0  0  0  0  0  0
  130.7050  128.5976  153.5777 H   0  0  0  0  0  0  0  0  0  0  0  0
  129.6419  129.8001  152.8082 H   0  0  0  0  0  0  0  0  0  0  0  0
  131.6938  129.4367  151.4642 H   0  0  0  0  0  0  0  0  0  0  0  0
  131.6291  131.1001  152.0943 H   0  0  0  0  0  0  0  0  0  0  0  0
  132.6922  129.8976  152.8639 H   0  0  0  0  0  0  0  0  0  0  0  0
  131.9354  129.1365  155.5952 H   0  0  0  0  0  0  0  0  0  0  0  0
  132.0351  130.5134  157.6313 H   0  0  0  0  0  0  0  0  0  0  0  0
  131.2578  138.8600  161.1752 H   0  0  0  0  0  0  0  0  0  0  0  0
  132.9855  140.4824  161.8378 H   0  0  0  0  0  0  0  0  0  0  0  0
  135.1501  139.6940  162.7041 H   0  0  0  0  0  0  0  0  0  0  0  0
  136.5479  137.8073  163.2806 H   0  0  0  0  0  0  0  0  0  0  0  0
  136.0356  136.2172  163.1021 H   0  0  0  0  0  0  0  0  0  0  0  0
  133.6130  134.8776  163.2470 H   0  0  0  0  0  0  0  0  0  0  0  0
  133.3699  134.6958  161.4932 H   0  0  0  0  0  0  0  0  0  0  0  0
  134.9943  135.0375  162.1359 H   0  0  0  0  0  0  0  0  0  0  0  0
  128.8063  134.9079  163.0152 H   0  0  0  0  0  0  0  0  0  0  0  0
  127.0673  133.2959  162.3516 H   0  0  0  0  0  0  0  0  0  0  0  0
  1  2  1  0
  1 36  1  0
  1 37  1  0
  1 38  1  0
  2  3  1  0
  2 39  1  0
  2 40  1  0
  3 35  2  0
  3  4  1  0
  4  5  2  0
  4 41  1  0
  5  6  1  0
  5 42  1  0
  6  7  1  0
  6 34  2  0
  7  8  1  0
  7 43  1  0
  7 44  1  0
  8  9  1  1
  8 10  1  0
  8 26  1  0
 10 45  1  0
 11 10  1  0
 11 24  2  0
 11 12  1  0
 12 13  1  0
 12 14  1  0
 14 15  2  0
 14 46  1  0
 15 16  1  0
 15 24  1  0
 16 23  1  0
 16 17  2  0
 17 18  1  0
 17 47  1  0
 18 19  2  0
 18 48  1  0
 19 20  1  0
 19 22  1  0
 20 21  1  0
 20 49  1  0
 20 50  1  0
 21 51  1  0
 21 52  1  0
 21 53  1  0
 22 23  2  0
 22 54  1  0
 23 55  1  0
 24 25  1  0
 26 32  1  0
 26 27  2  0
 27 28  1  0
 27 56  1  0
 28 29  2  0
 28 57  1  0
 29 30  1  0
 29 58  1  0
 30 31  1  0
 30 32  2  0
 31 59  1  0
 31 60  1  0
 32 33  1  0
 33 61  1  0
 33 62  1  0
 33 63  1  0
 34 35  1  0
 34 64  1  0
 35 65  1  0
M  CHG  1  24   1
M  END
>  <DOCK_score>  (1) 
-59.25972

>  <SMILES>  (1) 
CCc1ccc(C[C@@H](Nc2[nH]cc(-c3ccc(CC)cc3)[nH+]2)c2cccc(N)c2C)cc1

$$$$
