C1=CC2CCC1C[C@@H]2C[NH2+]Cc1c[nH]nc1-c1ccc(Nc2ccc(-c3cccnc3)cc2)o1
     RDKit          3D

 64 69  0  0  1  0  0  0  0  0999 V2000
  135.5997  139.5638  160.6933 C   0  0  0  0  0  0  0  0  0  0  0  0
  135.4870  138.7480  161.7388 C   0  0  0  0  0  0  0  0  0  0  0  0
  134.0785  138.2128  161.9496 C   0  0  1  0  0  0  0  0  0  0  0  0
  133.1416  139.4137  162.1321 C   0  0  0  0  0  0  0  0  0  0  0  0
  133.2712  140.3515  160.9299 C   0  0  0  0  0  0  0  0  0  0  0  0
  134.2950  139.7798  159.9408 C   0  0  2  0  0  0  0  0  0  0  0  0
  133.7872  138.4148  159.4560 C   0  0  0  0  0  0  0  0  0  0  0  0
  133.6662  137.4691  160.6716 C   0  0  2  0  0  0  0  0  0  0  0  0
  134.3148  136.6048  160.5292 H   0  0  0  0  0  0  0  0  0  0  0  0
  132.2149  137.0018  160.7995 C   0  0  0  0  0  0  0  0  0  0  0  0
  131.9639  135.9162  159.8424 N   0  0  0  0  0  0  0  0  0  0  0  0
  132.1285  136.2498  158.9044 H   0  0  0  0  0  0  0  0  0  0  0  0
  132.5841  135.1448  160.0387 H   0  0  0  0  0  0  0  0  0  0  0  0
  130.5706  135.4675  159.9651 C   0  0  0  0  0  0  0  0  0  0  0  0
  130.3131  134.3536  158.9832 C   0  0  0  0  0  0  0  0  0  0  0  0
  131.2076  133.8382  158.1129 C   0  0  0  0  0  0  0  0  0  0  0  0
  130.5943  132.8587  157.4135 N   0  0  0  0  0  0  0  0  0  0  0  0
  131.0002  132.3152  156.7203 H   0  0  0  0  0  0  0  0  0  0  0  0
  129.2691  132.7682  157.8580 N   0  0  0  0  0  0  0  0  0  0  0  0
  129.0929  133.6681  158.8055 C   0  0  0  0  0  0  0  0  0  0  0  0
  127.8401  133.9149  159.5488 C   0  0  0  0  0  0  0  0  0  0  0  0
  126.6650  133.2555  159.3698 C   0  0  0  0  0  0  0  0  0  0  0  0
  125.7450  133.8057  160.2835 C   0  0  0  0  0  0  0  0  0  0  0  0
  126.3992  134.7776  160.9674 C   0  0  0  0  0  0  0  0  0  0  0  0
  125.8529  135.5774  161.9645 N   0  0  0  0  0  0  0  0  0  0  0  0
  126.6634  136.0643  162.9909 C   0  0  0  0  0  0  0  0  0  0  0  0
  126.3668  137.2831  163.5911 C   0  0  0  0  0  0  0  0  0  0  0  0
  127.1633  137.7634  164.6083 C   0  0  0  0  0  0  0  0  0  0  0  0
  128.2733  137.0316  165.0279 C   0  0  0  0  0  0  0  0  0  0  0  0
  129.1357  137.5499  166.1180 C   0  0  0  0  0  0  0  0  0  0  0  0
  129.8203  136.6699  166.9613 C   0  0  0  0  0  0  0  0  0  0  0  0
  130.6122  137.2035  167.9632 C   0  0  0  0  0  0  0  0  0  0  0  0
  130.7002  138.5774  168.0967 C   0  0  0  0  0  0  0  0  0  0  0  0
  130.0419  139.3829  167.2860 N   0  0  0  0  0  0  0  0  0  0  0  0
  129.2812  138.9215  166.3142 C   0  0  0  0  0  0  0  0  0  0  0  0
  128.5721  135.8123  164.4215 C   0  0  0  0  0  0  0  0  0  0  0  0
  127.7699  135.3327  163.4084 C   0  0  0  0  0  0  0  0  0  0  0  0
  127.6646  134.8376  160.5178 O   0  0  0  0  0  0  0  0  0  0  0  0
  136.5286  140.0377  160.4120 H   0  0  0  0  0  0  0  0  0  0  0  0
  136.3184  138.4895  162.3780 H   0  0  0  0  0  0  0  0  0  0  0  0
  134.0310  137.5507  162.8142 H   0  0  0  0  0  0  0  0  0  0  0  0
  133.4116  139.9500  163.0417 H   0  0  0  0  0  0  0  0  0  0  0  0
  132.1124  139.0629  162.2097 H   0  0  0  0  0  0  0  0  0  0  0  0
  133.6027  141.3330  161.2690 H   0  0  0  0  0  0  0  0  0  0  0  0
  132.3036  140.4457  160.4368 H   0  0  0  0  0  0  0  0  0  0  0  0
  134.4412  140.4585  159.1005 H   0  0  0  0  0  0  0  0  0  0  0  0
  132.8123  138.5368  158.9841 H   0  0  0  0  0  0  0  0  0  0  0  0
  134.4909  138.0013  158.7336 H   0  0  0  0  0  0  0  0  0  0  0  0
  132.0370  136.6414  161.8127 H   0  0  0  0  0  0  0  0  0  0  0  0
  131.5449  137.8351  160.5874 H   0  0  0  0  0  0  0  0  0  0  0  0
  130.3927  135.1071  160.9782 H   0  0  0  0  0  0  0  0  0  0  0  0
  129.9006  136.3008  159.7531 H   0  0  0  0  0  0  0  0  0  0  0  0
  132.2343  134.1526  157.9977 H   0  0  0  0  0  0  0  0  0  0  0  0
  126.4740  132.4607  158.6640 H   0  0  0  0  0  0  0  0  0  0  0  0
  124.7134  133.5127  160.4119 H   0  0  0  0  0  0  0  0  0  0  0  0
  124.9082  135.7971  161.9469 H   0  0  0  0  0  0  0  0  0  0  0  0
  125.5094  137.8517  163.2627 H   0  0  0  0  0  0  0  0  0  0  0  0
  126.9303  138.7081  165.0769 H   0  0  0  0  0  0  0  0  0  0  0  0
  129.7333  135.6009  166.8346 H   0  0  0  0  0  0  0  0  0  0  0  0
  131.1560  136.5540  168.6333 H   0  0  0  0  0  0  0  0  0  0  0  0
  131.3171  138.9971  168.8775 H   0  0  0  0  0  0  0  0  0  0  0  0
  128.7615  139.6128  165.6673 H   0  0  0  0  0  0  0  0  0  0  0  0
  129.4314  135.2438  164.7453 H   0  0  0  0  0  0  0  0  0  0  0  0
  128.0009  134.3882  162.9383 H   0  0  0  0  0  0  0  0  0  0  0  0
  1  6  1  0
  1  2  2  0
  1 39  1  0
  2  3  1  0
  2 40  1  0
  3  8  1  0
  3  4  1  0
  3 41  1  1
  4  5  1  0
  4 42  1  0
  4 43  1  0
  5  6  1  0
  5 44  1  0
  5 45  1  0
  6  7  1  0
  6 46  1  6
  7  8  1  0
  7 47  1  0
  7 48  1  0
  8  9  1  6
  8 10  1  0
 10 11  1  0
 10 49  1  0
 10 50  1  0
 11 12  1  0
 11 13  1  0
 11 14  1  0
 14 15  1  0
 14 51  1  0
 14 52  1  0
 15 20  1  0
 15 16  2  0
 16 17  1  0
 16 53  1  0
 17 18  1  0
 17 19  1  0
 19 20  2  0
 20 21  1  0
 21 38  1  0
 21 22  2  0
 22 23  1  0
 22 54  1  0
 23 24  2  0
 23 55  1  0
 24 25  1  0
 24 38  1  0
 25 26  1  0
 25 56  1  0
 26 37  1  0
 26 27  2  0
 27 28  1  0
 27 57  1  0
 28 29  2  0
 28 58  1  0
 29 30  1  0
 29 36  1  0
 30 35  1  0
 30 31  2  0
 31 32  1  0
 31 59  1  0
 32 33  2  0
 32 60  1  0
 33 34  1  0
 33 61  1  0
 34 35  2  0
 35 62  1  0
 36 37  2  0
 36 63  1  0
 37 64  1  0
M  CHG  1  11   1
M  END
>  <DOCK_score>  (1) 
-49.549953

>  <SMILES>  (1) 
C1=CC2CCC1C[C@@H]2C[NH2+]Cc1c[nH]nc1-c1ccc(Nc2ccc(-c3cccnc3)cc2)o1

$$$$
