Cc1c[nH]c(Nc2cc(C3(O)C=CC(=O)C=C3)ccc2Sc2ccc(F)c3c2CCC3)[nH+]1
     RDKit          3D

 55 59  0  0  1  0  0  0  0  0999 V2000
  128.3219  131.5545  158.6870 C   0  0  0  0  0  0  0  0  0  0  0  0
  129.3765  132.6265  158.5872 C   0  0  0  0  0  0  0  0  0  0  0  0
  129.9683  133.0450  157.4553 C   0  0  0  0  0  0  0  0  0  0  0  0
  130.8623  134.0293  157.8103 N   0  0  0  0  0  0  0  0  0  0  0  0
  131.4415  134.5260  157.2113 H   0  0  0  0  0  0  0  0  0  0  0  0
  130.7795  134.1739  159.1607 C   0  0  0  0  0  0  0  0  0  0  0  0
  131.5146  135.0639  159.9270 N   0  0  0  0  0  0  0  0  0  0  0  0
  130.9728  135.5835  161.1089 C   0  0  0  0  0  0  0  0  0  0  0  0
  129.6016  135.7515  161.2303 C   0  0  0  0  0  0  0  0  0  0  0  0
  129.0687  136.2645  162.3986 C   0  0  0  0  0  0  0  0  0  0  0  0
  127.5784  136.4466  162.5277 C   0  0  0  0  0  0  0  0  0  0  0  0
  126.9597  136.0540  161.3009 O   0  0  0  0  0  0  0  0  0  0  0  0
  127.0781  135.5604  163.6245 C   0  0  0  0  0  0  0  0  0  0  0  0
  126.7446  136.0112  164.8247 C   0  0  0  0  0  0  0  0  0  0  0  0
  126.8466  137.4547  165.1091 C   0  0  0  0  0  0  0  0  0  0  0  0
  126.8404  137.8726  166.2520 O   0  0  0  0  0  0  0  0  0  0  0  0
  126.9558  138.3748  163.9616 C   0  0  0  0  0  0  0  0  0  0  0  0
  127.2893  137.8942  162.7711 C   0  0  0  0  0  0  0  0  0  0  0  0
  129.8995  136.6163  163.4466 C   0  0  0  0  0  0  0  0  0  0  0  0
  131.2670  136.4475  163.3369 C   0  0  0  0  0  0  0  0  0  0  0  0
  131.8108  135.9334  162.1683 C   0  0  0  0  0  0  0  0  0  0  0  0
  133.5541  135.7228  162.0229 S   0  0  0  0  0  0  0  0  0  0  0  0
  134.0853  137.2646  161.3553 C   0  0  0  0  0  0  0  0  0  0  0  0
  134.1490  137.4389  159.9792 C   0  0  0  0  0  0  0  0  0  0  0  0
  134.5602  138.6495  159.4578 C   0  0  0  0  0  0  0  0  0  0  0  0
  134.9181  139.6825  160.3062 C   0  0  0  0  0  0  0  0  0  0  0  0
  135.3255  140.8638  159.7925 F   0  0  0  0  0  0  0  0  0  0  0  0
  134.8612  139.5111  161.6816 C   0  0  0  0  0  0  0  0  0  0  0  0
  134.4454  138.3038  162.2079 C   0  0  0  0  0  0  0  0  0  0  0  0
  134.4707  138.3679  163.7200 C   0  0  0  0  0  0  0  0  0  0  0  0
  135.3573  139.5854  164.0575 C   0  0  0  0  0  0  0  0  0  0  0  0
  135.1946  140.4709  162.8038 C   0  0  0  0  0  0  0  0  0  0  0  0
  129.8894  133.3233  159.6148 N   0  0  0  0  0  0  0  0  0  0  0  0
  129.6396  133.2161  160.5459 H   0  0  0  0  0  0  0  0  0  0  0  0
  128.8007  130.5862  158.8324 H   0  0  0  0  0  0  0  0  0  0  0  0
  127.6672  131.7666  159.5323 H   0  0  0  0  0  0  0  0  0  0  0  0
  127.7350  131.5356  157.7688 H   0  0  0  0  0  0  0  0  0  0  0  0
  129.7780  132.6791  156.4572 H   0  0  0  0  0  0  0  0  0  0  0  0
  132.4044  135.3270  159.6448 H   0  0  0  0  0  0  0  0  0  0  0  0
  128.9499  135.4815  160.4127 H   0  0  0  0  0  0  0  0  0  0  0  0
  127.1209  135.1323  161.0562 H   0  0  0  0  0  0  0  0  0  0  0  0
  126.9861  134.5020  163.4299 H   0  0  0  0  0  0  0  0  0  0  0  0
  126.3995  135.3286  165.5872 H   0  0  0  0  0  0  0  0  0  0  0  0
  126.7657  139.4301  164.0893 H   0  0  0  0  0  0  0  0  0  0  0  0
  127.3550  138.5796  161.9390 H   0  0  0  0  0  0  0  0  0  0  0  0
  129.4783  137.0204  164.3553 H   0  0  0  0  0  0  0  0  0  0  0  0
  131.9124  136.7195  164.1589 H   0  0  0  0  0  0  0  0  0  0  0  0
  133.8736  136.6306  159.3180 H   0  0  0  0  0  0  0  0  0  0  0  0
  134.6063  138.7890  158.3877 H   0  0  0  0  0  0  0  0  0  0  0  0
  133.4632  138.5143  164.1092 H   0  0  0  0  0  0  0  0  0  0  0  0
  134.9069  137.4571  164.1300 H   0  0  0  0  0  0  0  0  0  0  0  0
  136.3967  139.2840  164.1868 H   0  0  0  0  0  0  0  0  0  0  0  0
  134.9916  140.1006  164.9458 H   0  0  0  0  0  0  0  0  0  0  0  0
  136.1252  140.9960  162.5883 H   0  0  0  0  0  0  0  0  0  0  0  0
  134.3819  141.1831  162.9465 H   0  0  0  0  0  0  0  0  0  0  0  0
  1  2  1  0
  1 35  1  0
  1 36  1  0
  1 37  1  0
  2 33  1  0
  2  3  2  0
  3  4  1  0
  3 38  1  0
  4  5  1  0
  4  6  1  0
  6  7  1  0
  6 33  2  0
  7  8  1  0
  7 39  1  0
  8 21  1  0
  8  9  2  0
  9 10  1  0
  9 40  1  0
 10 11  1  0
 10 19  2  0
 11 18  1  0
 11 12  1  0
 11 13  1  0
 12 41  1  0
 13 14  2  0
 13 42  1  0
 14 15  1  0
 14 43  1  0
 15 16  2  0
 15 17  1  0
 17 18  2  0
 17 44  1  0
 18 45  1  0
 19 20  1  0
 19 46  1  0
 20 21  2  0
 20 47  1  0
 21 22  1  0
 22 23  1  0
 23 29  1  0
 23 24  2  0
 24 25  1  0
 24 48  1  0
 25 26  2  0
 25 49  1  0
 26 27  1  0
 26 28  1  0
 28 32  1  0
 28 29  2  0
 29 30  1  0
 30 31  1  0
 30 50  1  0
 30 51  1  0
 31 32  1  0
 31 52  1  0
 31 53  1  0
 32 54  1  0
 32 55  1  0
 33 34  1  0
M  CHG  1  33   1
M  END
>  <DOCK_score>  (1) 
-46.765564

>  <SMILES>  (1) 
Cc1c[nH]c(Nc2cc(C3(O)C=CC(=O)C=C3)ccc2Sc2ccc(F)c3c2CCC3)[nH+]1

$$$$
