Nc1ccc(Sc2ccc(O)cc2Nc2[nH]cc(-c3ccccc3)[nH+]2)cc1
     RDKit          3D

 46 49  0  0  1  0  0  0  0  0999 V2000
  133.8848  139.6839  158.7042 N   0  0  0  0  0  0  0  0  0  0  0  0
  133.1876  138.7146  159.4348 C   0  0  0  0  0  0  0  0  0  0  0  0
  131.8553  138.9215  159.7685 C   0  0  0  0  0  0  0  0  0  0  0  0
  131.1676  137.9661  160.4895 C   0  0  0  0  0  0  0  0  0  0  0  0
  131.8083  136.7970  160.8811 C   0  0  0  0  0  0  0  0  0  0  0  0
  130.9310  135.5772  161.8013 S   0  0  0  0  0  0  0  0  0  0  0  0
  129.2722  135.7751  161.2413 C   0  0  0  0  0  0  0  0  0  0  0  0
  128.2697  136.1047  162.1418 C   0  0  0  0  0  0  0  0  0  0  0  0
  126.9673  136.2541  161.7032 C   0  0  0  0  0  0  0  0  0  0  0  0
  126.6596  136.0812  160.3617 C   0  0  0  0  0  0  0  0  0  0  0  0
  125.3772  136.2296  159.9346 O   0  0  0  0  0  0  0  0  0  0  0  0
  127.6579  135.7570  159.4554 C   0  0  0  0  0  0  0  0  0  0  0  0
  128.9657  135.6057  159.8908 C   0  0  0  0  0  0  0  0  0  0  0  0
  129.9755  135.2778  158.9781 N   0  0  0  0  0  0  0  0  0  0  0  0
  129.8953  134.1030  158.2491 C   0  0  0  0  0  0  0  0  0  0  0  0
  129.2939  132.9534  158.6614 N   0  0  0  0  0  0  0  0  0  0  0  0
  128.8481  132.8110  159.5111 H   0  0  0  0  0  0  0  0  0  0  0  0
  129.4346  132.0328  157.6522 C   0  0  0  0  0  0  0  0  0  0  0  0
  130.1121  132.6470  156.6506 C   0  0  0  0  0  0  0  0  0  0  0  0
  130.4902  132.0388  155.3515 C   0  0  0  0  0  0  0  0  0  0  0  0
  130.0214  132.5880  154.1593 C   0  0  0  0  0  0  0  0  0  0  0  0
  130.3805  132.0211  152.9534 C   0  0  0  0  0  0  0  0  0  0  0  0
  131.1949  130.9033  152.9269 C   0  0  0  0  0  0  0  0  0  0  0  0
  131.6589  130.3510  154.1072 C   0  0  0  0  0  0  0  0  0  0  0  0
  131.3108  130.9128  155.3187 C   0  0  0  0  0  0  0  0  0  0  0  0
  130.3860  133.9144  157.0483 N   0  0  0  0  0  0  0  0  0  0  0  0
  130.8649  134.5768  156.5260 H   0  0  0  0  0  0  0  0  0  0  0  0
  133.1425  136.5925  160.5519 C   0  0  0  0  0  0  0  0  0  0  0  0
  133.8283  137.5464  159.8266 C   0  0  0  0  0  0  0  0  0  0  0  0
  133.4375  140.5000  158.4310 H   0  0  0  0  0  0  0  0  0  0  0  0
  134.8152  139.5395  158.4712 H   0  0  0  0  0  0  0  0  0  0  0  0
  131.3575  139.8303  159.4641 H   0  0  0  0  0  0  0  0  0  0  0  0
  130.1318  138.1274  160.7495 H   0  0  0  0  0  0  0  0  0  0  0  0
  128.5061  136.2402  163.1868 H   0  0  0  0  0  0  0  0  0  0  0  0
  126.1876  136.5063  162.4067 H   0  0  0  0  0  0  0  0  0  0  0  0
  124.7522  136.4552  160.6373 H   0  0  0  0  0  0  0  0  0  0  0  0
  127.4170  135.6228  158.4113 H   0  0  0  0  0  0  0  0  0  0  0  0
  130.7312  135.8736  158.8563 H   0  0  0  0  0  0  0  0  0  0  0  0
  129.0712  131.0157  157.6539 H   0  0  0  0  0  0  0  0  0  0  0  0
  129.3819  133.4581  154.1790 H   0  0  0  0  0  0  0  0  0  0  0  0
  130.0219  132.4487  152.0288 H   0  0  0  0  0  0  0  0  0  0  0  0
  131.4698  130.4603  151.9810 H   0  0  0  0  0  0  0  0  0  0  0  0
  132.2950  129.4785  154.0806 H   0  0  0  0  0  0  0  0  0  0  0  0
  131.6739  130.4809  156.2396 H   0  0  0  0  0  0  0  0  0  0  0  0
  133.6420  135.6861  160.8602 H   0  0  0  0  0  0  0  0  0  0  0  0
  134.8644  137.3858  159.5673 H   0  0  0  0  0  0  0  0  0  0  0  0
  1  2  1  0
  1 30  1  0
  1 31  1  0
  2 29  2  0
  2  3  1  0
  3  4  2  0
  3 32  1  0
  4  5  1  0
  4 33  1  0
  5  6  1  0
  5 28  2  0
  6  7  1  0
  7 13  1  0
  7  8  2  0
  8  9  1  0
  8 34  1  0
  9 10  2  0
  9 35  1  0
 10 11  1  0
 10 12  1  0
 11 36  1  0
 12 13  2  0
 12 37  1  0
 13 14  1  0
 14 38  1  0
 15 14  1  0
 15 26  2  0
 15 16  1  0
 16 17  1  0
 16 18  1  0
 18 19  2  0
 18 39  1  0
 19 20  1  0
 19 26  1  0
 20 25  1  0
 20 21  2  0
 21 22  1  0
 21 40  1  0
 22 23  2  0
 22 41  1  0
 23 24  1  0
 23 42  1  0
 24 25  2  0
 24 43  1  0
 25 44  1  0
 26 27  1  0
 28 29  1  0
 28 45  1  0
 29 46  1  0
M  CHG  1  26   1
M  END
>  <DOCK_score>  (1) 
-54.471611

>  <SMILES>  (1) 
Nc1ccc(Sc2ccc(O)cc2Nc2[nH]cc(-c3ccccc3)[nH+]2)cc1

$$$$
