CCc1ccc(-c2c[nH]c(N[C@@H](C[C@@H]3CC=CC[C@@H]3CBr)c3ccnn3C)[nH+]2)cc1
     RDKit          3D

 61 64  0  0  1  0  0  0  0  0999 V2000
  130.0724  129.2530  151.4259 C   0  0  0  0  0  0  0  0  0  0  0  0
  131.4114  129.6986  152.0175 C   0  0  0  0  0  0  0  0  0  0  0  0
  131.1729  130.3892  153.3357 C   0  0  0  0  0  0  0  0  0  0  0  0
  131.1618  129.6533  154.5072 C   0  0  0  0  0  0  0  0  0  0  0  0
  130.9489  130.2815  155.7175 C   0  0  0  0  0  0  0  0  0  0  0  0
  130.7347  131.6582  155.7569 C   0  0  0  0  0  0  0  0  0  0  0  0
  130.4998  132.3382  157.0541 C   0  0  0  0  0  0  0  0  0  0  0  0
  129.9210  131.7881  158.1501 C   0  0  0  0  0  0  0  0  0  0  0  0
  129.9025  132.7597  159.1211 N   0  0  0  0  0  0  0  0  0  0  0  0
  129.5492  132.6671  160.0196 H   0  0  0  0  0  0  0  0  0  0  0  0
  130.4711  133.8760  158.5895 C   0  0  0  0  0  0  0  0  0  0  0  0
  130.6455  135.0826  159.2455 N   0  0  0  0  0  0  0  0  0  0  0  0
  130.2002  135.2330  160.6330 C   0  0  1  0  0  0  0  0  0  0  0  0
  130.4296  134.3239  161.1888 H   0  0  0  0  0  0  0  0  0  0  0  0
  130.9227  136.4191  161.2747 C   0  0  0  0  0  0  0  0  0  0  0  0
  132.3841  136.4319  160.8219 C   0  0  2  0  0  0  0  0  0  0  0  0
  132.4306  136.5239  159.7367 H   0  0  0  0  0  0  0  0  0  0  0  0
  133.0690  135.1348  161.2579 C   0  0  0  0  0  0  0  0  0  0  0  0
  133.2436  135.1182  162.7483 C   0  0  0  0  0  0  0  0  0  0  0  0
  133.1652  136.1693  163.4995 C   0  0  0  0  0  0  0  0  0  0  0  0
  132.8785  137.5501  162.9861 C   0  0  0  0  0  0  0  0  0  0  0  0
  133.1164  137.6106  161.4756 C   0  0  2  0  0  0  0  0  0  0  0  0
  134.1842  137.5385  161.2693 H   0  0  0  0  0  0  0  0  0  0  0  0
  132.5689  138.9274  160.9212 C   0  0  0  0  0  0  0  0  0  0  0  0
  133.8741  140.3638  161.2355 Br  0  0  0  0  0  0  0  0  0  0  0  0
  128.7131  135.4764  160.6598 C   0  0  0  0  0  0  0  0  0  0  0  0
  127.9885  136.0947  159.6988 C   0  0  0  0  0  0  0  0  0  0  0  0
  126.6524  136.1128  160.1120 C   0  0  0  0  0  0  0  0  0  0  0  0
  126.5776  135.5264  161.2791 N   0  0  0  0  0  0  0  0  0  0  0  0
  127.8649  135.1115  161.6439 N   0  0  0  0  0  0  0  0  0  0  0  0
  128.2269  134.4084  162.8770 C   0  0  0  0  0  0  0  0  0  0  0  0
  130.8313  133.6187  157.3559 N   0  0  0  0  0  0  0  0  0  0  0  0
  131.2636  134.2446  156.7540 H   0  0  0  0  0  0  0  0  0  0  0  0
  130.7418  132.3934  154.5728 C   0  0  0  0  0  0  0  0  0  0  0  0
  130.9605  131.7553  153.3688 C   0  0  0  0  0  0  0  0  0  0  0  0
  129.5819  128.5642  152.1137 H   0  0  0  0  0  0  0  0  0  0  0  0
  130.2448  128.7533  150.4726 H   0  0  0  0  0  0  0  0  0  0  0  0
  129.4367  130.1245  151.2695 H   0  0  0  0  0  0  0  0  0  0  0  0
  132.0470  128.8265  152.1742 H   0  0  0  0  0  0  0  0  0  0  0  0
  131.9017  130.3867  151.3300 H   0  0  0  0  0  0  0  0  0  0  0  0
  131.3242  128.5862  154.4752 H   0  0  0  0  0  0  0  0  0  0  0  0
  130.9445  129.7068  156.6319 H   0  0  0  0  0  0  0  0  0  0  0  0
  129.5461  130.7795  158.2419 H   0  0  0  0  0  0  0  0  0  0  0  0
  131.0625  135.8284  158.7863 H   0  0  0  0  0  0  0  0  0  0  0  0
  130.4397  137.3474  160.9693 H   0  0  0  0  0  0  0  0  0  0  0  0
  130.8795  136.3271  162.3600 H   0  0  0  0  0  0  0  0  0  0  0  0
  132.4577  134.2843  160.9561 H   0  0  0  0  0  0  0  0  0  0  0  0
  134.0455  135.0631  160.7789 H   0  0  0  0  0  0  0  0  0  0  0  0
  133.4468  134.1700  163.2237 H   0  0  0  0  0  0  0  0  0  0  0  0
  133.3151  136.0450  164.5617 H   0  0  0  0  0  0  0  0  0  0  0  0
  131.8407  137.8066  163.1994 H   0  0  0  0  0  0  0  0  0  0  0  0
  133.5363  138.2638  163.4822 H   0  0  0  0  0  0  0  0  0  0  0  0
  132.3918  138.8252  159.8506 H   0  0  0  0  0  0  0  0  0  0  0  0
  131.6323  139.1713  161.4226 H   0  0  0  0  0  0  0  0  0  0  0  0
  128.3738  136.5020  158.7757 H   0  0  0  0  0  0  0  0  0  0  0  0
  125.8254  136.5380  159.5628 H   0  0  0  0  0  0  0  0  0  0  0  0
  128.4720  135.1354  163.6512 H   0  0  0  0  0  0  0  0  0  0  0  0
  127.3870  133.7964  163.2062 H   0  0  0  0  0  0  0  0  0  0  0  0
  129.0907  133.7702  162.6913 H   0  0  0  0  0  0  0  0  0  0  0  0
  130.5767  133.4603  154.5975 H   0  0  0  0  0  0  0  0  0  0  0  0
  130.9660  132.3240  152.4507 H   0  0  0  0  0  0  0  0  0  0  0  0
  1  2  1  0
  1 36  1  0
  1 37  1  0
  1 38  1  0
  2  3  1  0
  2 39  1  0
  2 40  1  0
  3 35  2  0
  3  4  1  0
  4  5  2  0
  4 41  1  0
  5  6  1  0
  5 42  1  0
  6  7  1  0
  6 34  2  0
  7 32  1  0
  7  8  2  0
  8  9  1  0
  8 43  1  0
  9 10  1  0
  9 11  1  0
 11 12  1  0
 11 32  2  0
 12 13  1  0
 12 44  1  0
 13 14  1  1
 13 15  1  0
 13 26  1  0
 15 16  1  0
 15 45  1  0
 15 46  1  0
 16 17  1  6
 16 22  1  0
 16 18  1  0
 18 19  1  0
 18 47  1  0
 18 48  1  0
 19 20  2  0
 19 49  1  0
 20 21  1  0
 20 50  1  0
 21 22  1  0
 21 51  1  0
 21 52  1  0
 22 23  1  1
 22 24  1  0
 24 25  1  0
 24 53  1  0
 24 54  1  0
 26 30  1  0
 26 27  2  0
 27 28  1  0
 27 55  1  0
 28 29  2  0
 28 56  1  0
 29 30  1  0
 30 31  1  0
 31 57  1  0
 31 58  1  0
 31 59  1  0
 32 33  1  0
 34 35  1  0
 34 60  1  0
 35 61  1  0
M  CHG  1  32   1
M  END
>  <DOCK_score>  (1) 
-57.817963

>  <SMILES>  (1) 
CCc1ccc(-c2c[nH]c(N[C@@H](C[C@@H]3CC=CC[C@@H]3CBr)c3ccnn3C)[nH+]2)cc1

$$$$
