CCc1ccc(-c2c[nH]c(Nc3cccc(NC(=O)[C@H](N)c4cccc(O)c4)c3)[nH+]2)cc1
     RDKit          3D

 58 61  0  0  1  0  0  0  0  0999 V2000
  130.5754  128.4749  151.7919 C   0  0  0  0  0  0  0  0  0  0  0  0
  131.6541  129.5042  152.1342 C   0  0  0  0  0  0  0  0  0  0  0  0
  131.2536  130.2575  153.3765 C   0  0  0  0  0  0  0  0  0  0  0  0
  131.6346  129.7874  154.6200 C   0  0  0  0  0  0  0  0  0  0  0  0
  131.2749  130.4755  155.7608 C   0  0  0  0  0  0  0  0  0  0  0  0
  130.5176  131.6413  155.6587 C   0  0  0  0  0  0  0  0  0  0  0  0
  130.1239  132.3827  156.8816 C   0  0  0  0  0  0  0  0  0  0  0  0
  129.3794  131.8956  157.9055 C   0  0  0  0  0  0  0  0  0  0  0  0
  129.2541  132.9083  158.8243 N   0  0  0  0  0  0  0  0  0  0  0  0
  128.7748  132.8639  159.6664 H   0  0  0  0  0  0  0  0  0  0  0  0
  129.9261  133.9862  158.3350 C   0  0  0  0  0  0  0  0  0  0  0  0
  130.0437  135.2164  158.9612 N   0  0  0  0  0  0  0  0  0  0  0  0
  129.0257  135.6716  159.8039 C   0  0  0  0  0  0  0  0  0  0  0  0
  127.7099  135.2855  159.5773 C   0  0  0  0  0  0  0  0  0  0  0  0
  126.7037  135.7347  160.4099 C   0  0  0  0  0  0  0  0  0  0  0  0
  127.0012  136.5695  161.4702 C   0  0  0  0  0  0  0  0  0  0  0  0
  128.3141  136.9595  161.7021 C   0  0  0  0  0  0  0  0  0  0  0  0
  128.6144  137.8045  162.7761 N   0  0  0  0  0  0  0  0  0  0  0  0
  127.7034  138.7015  163.2031 C   0  0  0  0  0  0  0  0  0  0  0  0
  126.6235  138.7761  162.6562 O   0  0  0  0  0  0  0  0  0  0  0  0
  128.0268  139.6114  164.3600 C   0  0  2  0  0  0  0  0  0  0  0  0
  128.2410  139.0119  165.2449 H   0  0  0  0  0  0  0  0  0  0  0  0
  126.8794  140.4884  164.6287 N   0  0  0  0  0  0  0  0  0  0  0  0
  129.2311  140.4503  164.0179 C   0  0  0  0  0  0  0  0  0  0  0  0
  129.1950  141.2980  162.9259 C   0  0  0  0  0  0  0  0  0  0  0  0
  130.2980  142.0688  162.6094 C   0  0  0  0  0  0  0  0  0  0  0  0
  131.4394  141.9946  163.3846 C   0  0  0  0  0  0  0  0  0  0  0  0
  131.4779  141.1456  164.4808 C   0  0  0  0  0  0  0  0  0  0  0  0
  132.5993  141.0713  165.2449 O   0  0  0  0  0  0  0  0  0  0  0  0
  130.3680  140.3761  164.7987 C   0  0  0  0  0  0  0  0  0  0  0  0
  129.3284  136.5052  160.8713 C   0  0  0  0  0  0  0  0  0  0  0  0
  130.4494  133.6660  157.1766 N   0  0  0  0  0  0  0  0  0  0  0  0
  130.9822  134.2536  156.6183 H   0  0  0  0  0  0  0  0  0  0  0  0
  130.1321  132.1078  154.4033 C   0  0  0  0  0  0  0  0  0  0  0  0
  130.5016  131.4141  153.2689 C   0  0  0  0  0  0  0  0  0  0  0  0
  129.6279  128.9849  151.6181 H   0  0  0  0  0  0  0  0  0  0  0  0
  130.8650  127.9301  150.8935 H   0  0  0  0  0  0  0  0  0  0  0  0
  130.4649  127.7757  152.6209 H   0  0  0  0  0  0  0  0  0  0  0  0
  132.6014  128.9948  152.3076 H   0  0  0  0  0  0  0  0  0  0  0  0
  131.7644  130.2040  151.3049 H   0  0  0  0  0  0  0  0  0  0  0  0
  132.2182  128.8821  154.6981 H   0  0  0  0  0  0  0  0  0  0  0  0
  131.5762  130.1095  156.7313 H   0  0  0  0  0  0  0  0  0  0  0  0
  128.9643  130.9016  157.9828 H   0  0  0  0  0  0  0  0  0  0  0  0
  130.8325  135.7617  158.8148 H   0  0  0  0  0  0  0  0  0  0  0  0
  127.4743  134.6331  158.7495 H   0  0  0  0  0  0  0  0  0  0  0  0
  125.6821  135.4326  160.2321 H   0  0  0  0  0  0  0  0  0  0  0  0
  126.2121  136.9187  162.1196 H   0  0  0  0  0  0  0  0  0  0  0  0
  129.4780  137.7447  163.2135 H   0  0  0  0  0  0  0  0  0  0  0  0
  127.0464  141.0638  165.4406 H   0  0  0  0  0  0  0  0  0  0  0  0
  126.6607  141.0549  163.8228 H   0  0  0  0  0  0  0  0  0  0  0  0
  128.3036  141.3575  162.3189 H   0  0  0  0  0  0  0  0  0  0  0  0
  130.2675  142.7298  161.7558 H   0  0  0  0  0  0  0  0  0  0  0  0
  132.3006  142.5976  163.1374 H   0  0  0  0  0  0  0  0  0  0  0  0
  132.5303  140.4530  165.9852 H   0  0  0  0  0  0  0  0  0  0  0  0
  130.3941  139.7174  165.6541 H   0  0  0  0  0  0  0  0  0  0  0  0
  130.3505  136.8033  161.0523 H   0  0  0  0  0  0  0  0  0  0  0  0
  129.5448  133.0103  154.3184 H   0  0  0  0  0  0  0  0  0  0  0  0
  130.2033  131.7747  152.2955 H   0  0  0  0  0  0  0  0  0  0  0  0
  1  2  1  0
  1 36  1  0
  1 37  1  0
  1 38  1  0
  2  3  1  0
  2 39  1  0
  2 40  1  0
  3 35  2  0
  3  4  1  0
  4  5  2  0
  4 41  1  0
  5  6  1  0
  5 42  1  0
  6  7  1  0
  6 34  2  0
  7 32  1  0
  7  8  2  0
  8  9  1  0
  8 43  1  0
  9 10  1  0
  9 11  1  0
 11 12  1  0
 11 32  2  0
 12 13  1  0
 12 44  1  0
 13 31  1  0
 13 14  2  0
 14 15  1  0
 14 45  1  0
 15 16  2  0
 15 46  1  0
 16 17  1  0
 16 47  1  0
 17 18  1  0
 17 31  2  0
 18 19  1  0
 18 48  1  0
 19 20  2  0
 19 21  1  0
 21 22  1  1
 21 23  1  0
 21 24  1  0
 23 49  1  0
 23 50  1  0
 24 30  1  0
 24 25  2  0
 25 26  1  0
 25 51  1  0
 26 27  2  0
 26 52  1  0
 27 28  1  0
 27 53  1  0
 28 29  1  0
 28 30  2  0
 29 54  1  0
 30 55  1  0
 31 56  1  0
 32 33  1  0
 34 35  1  0
 34 57  1  0
 35 58  1  0
M  CHG  1  32   1
M  END
>  <DOCK_score>  (1) 
-60.167561

>  <SMILES>  (1) 
CCc1ccc(-c2c[nH]c(Nc3cccc(NC(=O)[C@H](N)c4cccc(O)c4)c3)[nH+]2)cc1

$$$$
