O=C(OC(c1ccccc1)c1ccccc1)c1c[nH]nc1[C@H]1CCC[NH2+]C1
     RDKit          3D

 51 54  0  0  1  0  0  0  0  0999 V2000
  130.8787  135.8237  161.1086 O   0  0  0  0  0  0  0  0  0  0  0  0
  129.9350  136.5889  161.0855 C   0  0  0  0  0  0  0  0  0  0  0  0
  130.1219  137.8974  161.3476 O   0  0  0  0  0  0  0  0  0  0  0  0
  131.4772  138.3222  161.6495 C   0  0  0  0  0  0  0  0  0  0  0  0
  132.1772  138.7126  160.3732 C   0  0  0  0  0  0  0  0  0  0  0  0
  133.5460  138.5557  160.2599 C   0  0  0  0  0  0  0  0  0  0  0  0
  134.1880  138.9134  159.0891 C   0  0  0  0  0  0  0  0  0  0  0  0
  133.4613  139.4283  158.0317 C   0  0  0  0  0  0  0  0  0  0  0  0
  132.0935  139.5906  158.1472 C   0  0  0  0  0  0  0  0  0  0  0  0
  131.4507  139.2280  159.3161 C   0  0  0  0  0  0  0  0  0  0  0  0
  131.4370  139.5051  162.5822 C   0  0  0  0  0  0  0  0  0  0  0  0
  132.4633  139.7083  163.4856 C   0  0  0  0  0  0  0  0  0  0  0  0
  132.4286  140.7961  164.3379 C   0  0  0  0  0  0  0  0  0  0  0  0
  131.3628  141.6752  164.2936 C   0  0  0  0  0  0  0  0  0  0  0  0
  130.3336  141.4689  163.3942 C   0  0  0  0  0  0  0  0  0  0  0  0
  130.3708  140.3840  162.5383 C   0  0  0  0  0  0  0  0  0  0  0  0
  128.5867  136.0861  160.7712 C   0  0  0  0  0  0  0  0  0  0  0  0
  127.3909  136.6040  161.2288 C   0  0  0  0  0  0  0  0  0  0  0  0
  126.4046  135.8567  160.7089 N   0  0  0  0  0  0  0  0  0  0  0  0
  125.4552  135.9878  160.8587 H   0  0  0  0  0  0  0  0  0  0  0  0
  126.9762  134.8563  159.9149 N   0  0  0  0  0  0  0  0  0  0  0  0
  128.2738  134.9867  159.9397 C   0  0  0  0  0  0  0  0  0  0  0  0
  129.2655  134.1155  159.2128 C   0  0  1  0  0  0  0  0  0  0  0  0
  130.1962  134.0731  159.7787 H   0  0  0  0  0  0  0  0  0  0  0  0
  128.6927  132.7031  159.0640 C   0  0  0  0  0  0  0  0  0  0  0  0
  129.6732  131.8477  158.2566 C   0  0  0  0  0  0  0  0  0  0  0  0
  129.9294  132.5150  156.9036 C   0  0  0  0  0  0  0  0  0  0  0  0
  130.5008  133.8506  157.1132 N   0  0  0  0  0  0  0  0  0  0  0  0
  131.3454  133.7721  157.6596 H   0  0  0  0  0  0  0  0  0  0  0  0
  130.7169  134.2669  156.2197 H   0  0  0  0  0  0  0  0  0  0  0  0
  129.5368  134.6988  157.8244 C   0  0  0  0  0  0  0  0  0  0  0  0
  132.0175  137.5033  162.1243 H   0  0  0  0  0  0  0  0  0  0  0  0
  134.1137  138.1534  161.0859 H   0  0  0  0  0  0  0  0  0  0  0  0
  135.2574  138.7908  159.0005 H   0  0  0  0  0  0  0  0  0  0  0  0
  133.9631  139.7080  157.1172 H   0  0  0  0  0  0  0  0  0  0  0  0
  131.5264  139.9970  157.3228 H   0  0  0  0  0  0  0  0  0  0  0  0
  130.3813  139.3508  159.4048 H   0  0  0  0  0  0  0  0  0  0  0  0
  133.2941  139.0191  163.5230 H   0  0  0  0  0  0  0  0  0  0  0  0
  133.2326  140.9570  165.0410 H   0  0  0  0  0  0  0  0  0  0  0  0
  131.3340  142.5229  164.9622 H   0  0  0  0  0  0  0  0  0  0  0  0
  129.5007  142.1555  163.3598 H   0  0  0  0  0  0  0  0  0  0  0  0
  129.5667  140.2229  161.8354 H   0  0  0  0  0  0  0  0  0  0  0  0
  127.2715  137.4540  161.8841 H   0  0  0  0  0  0  0  0  0  0  0  0
  128.5506  132.2616  160.0504 H   0  0  0  0  0  0  0  0  0  0  0  0
  127.7362  132.7506  158.5435 H   0  0  0  0  0  0  0  0  0  0  0  0
  130.6127  131.7580  158.8019 H   0  0  0  0  0  0  0  0  0  0  0  0
  129.2476  130.8565  158.0994 H   0  0  0  0  0  0  0  0  0  0  0  0
  130.6269  131.9084  156.3261 H   0  0  0  0  0  0  0  0  0  0  0  0
  128.9893  132.6043  156.3592 H   0  0  0  0  0  0  0  0  0  0  0  0
  128.6052  134.7411  157.2602 H   0  0  0  0  0  0  0  0  0  0  0  0
  129.9446  135.7045  157.9267 H   0  0  0  0  0  0  0  0  0  0  0  0
  1  2  2  0
  2  3  1  0
  2 17  1  0
  3  4  1  0
  4  5  1  0
  4 11  1  0
  4 32  1  0
  5 10  1  0
  5  6  2  0
  6  7  1  0
  6 33  1  0
  7  8  2  0
  7 34  1  0
  8  9  1  0
  8 35  1  0
  9 10  2  0
  9 36  1  0
 10 37  1  0
 11 16  1  0
 11 12  2  0
 12 13  1  0
 12 38  1  0
 13 14  2  0
 13 39  1  0
 14 15  1  0
 14 40  1  0
 15 16  2  0
 15 41  1  0
 16 42  1  0
 17 22  1  0
 17 18  2  0
 18 19  1  0
 18 43  1  0
 19 20  1  0
 19 21  1  0
 21 22  2  0
 22 23  1  0
 23 24  1  1
 23 31  1  0
 23 25  1  0
 25 26  1  0
 25 44  1  0
 25 45  1  0
 26 27  1  0
 26 46  1  0
 26 47  1  0
 27 28  1  0
 27 48  1  0
 27 49  1  0
 28 29  1  0
 28 30  1  0
 28 31  1  0
 31 50  1  0
 31 51  1  0
M  CHG  1  28   1
M  END
>  <DOCK_score>  (1) 
-41.246632

>  <SMILES>  (1) 
O=C(OC(c1ccccc1)c1ccccc1)c1c[nH]nc1[C@H]1CCC[NH2+]C1

$$$$
