Cc1cccc(N2CC[NH+]([C@@H](c3ccccc3)c3cccc(Oc4ccccc4)c3)CC2)c1C
     RDKit          3D

 67 71  0  0  1  0  0  0  0  0999 V2000
  135.9592  137.8958  164.1039 C   0  0  0  0  0  0  0  0  0  0  0  0
  135.3815  137.7215  162.7229 C   0  0  0  0  0  0  0  0  0  0  0  0
  135.8812  138.4614  161.6668 C   0  0  0  0  0  0  0  0  0  0  0  0
  135.3539  138.3047  160.3983 C   0  0  0  0  0  0  0  0  0  0  0  0
  134.3259  137.4080  160.1819 C   0  0  0  0  0  0  0  0  0  0  0  0
  133.8217  136.6634  161.2404 C   0  0  0  0  0  0  0  0  0  0  0  0
  132.7819  135.7559  161.0253 N   0  0  0  0  0  0  0  0  0  0  0  0
  131.5616  136.4476  160.5865 C   0  0  0  0  0  0  0  0  0  0  0  0
  130.4328  135.4279  160.4198 C   0  0  0  0  0  0  0  0  0  0  0  0
  130.8272  134.4184  159.4286 N   0  0  0  0  0  0  0  0  0  0  0  0
  131.0188  134.8698  158.5468 H   0  0  0  0  0  0  0  0  0  0  0  0
  129.7362  133.4499  159.2557 C   0  0  1  0  0  0  0  0  0  0  0  0
  129.5287  132.9623  160.2081 H   0  0  0  0  0  0  0  0  0  0  0  0
  128.4995  134.1666  158.7783 C   0  0  0  0  0  0  0  0  0  0  0  0
  127.2481  133.6808  159.1089 C   0  0  0  0  0  0  0  0  0  0  0  0
  126.1136  134.3342  158.6649 C   0  0  0  0  0  0  0  0  0  0  0  0
  126.2306  135.4743  157.8920 C   0  0  0  0  0  0  0  0  0  0  0  0
  127.4819  135.9606  157.5622 C   0  0  0  0  0  0  0  0  0  0  0  0
  128.6162  135.3065  158.0050 C   0  0  0  0  0  0  0  0  0  0  0  0
  130.1405  132.4140  158.2385 C   0  0  0  0  0  0  0  0  0  0  0  0
  130.1978  131.0795  158.5967 C   0  0  0  0  0  0  0  0  0  0  0  0
  130.5674  130.1267  157.6658 C   0  0  0  0  0  0  0  0  0  0  0  0
  130.8805  130.5056  156.3747 C   0  0  0  0  0  0  0  0  0  0  0  0
  130.8243  131.8437  156.0127 C   0  0  0  0  0  0  0  0  0  0  0  0
  131.1318  132.2190  154.7434 O   0  0  0  0  0  0  0  0  0  0  0  0
  130.6147  131.4904  153.7197 C   0  0  0  0  0  0  0  0  0  0  0  0
  131.4201  131.1245  152.6508 C   0  0  0  0  0  0  0  0  0  0  0  0
  130.8932  130.3793  151.6138 C   0  0  0  0  0  0  0  0  0  0  0  0
  129.5616  130.0074  151.6351 C   0  0  0  0  0  0  0  0  0  0  0  0
  128.7553  130.3756  152.6964 C   0  0  0  0  0  0  0  0  0  0  0  0
  129.2788  131.1160  153.7387 C   0  0  0  0  0  0  0  0  0  0  0  0
  130.4479  132.7976  156.9478 C   0  0  0  0  0  0  0  0  0  0  0  0
  132.0330  133.7194  159.8925 C   0  0  0  0  0  0  0  0  0  0  0  0
  133.1751  134.7248  160.0545 C   0  0  0  0  0  0  0  0  0  0  0  0
  134.3501  136.8274  162.5149 C   0  0  0  0  0  0  0  0  0  0  0  0
  133.8021  136.0261  163.6676 C   0  0  0  0  0  0  0  0  0  0  0  0
  135.4122  138.6779  164.6304 H   0  0  0  0  0  0  0  0  0  0  0  0
  135.8738  136.9590  164.6546 H   0  0  0  0  0  0  0  0  0  0  0  0
  137.0094  138.1769  164.0257 H   0  0  0  0  0  0  0  0  0  0  0  0
  136.6850  139.1633  161.8332 H   0  0  0  0  0  0  0  0  0  0  0  0
  135.7464  138.8841  159.5756 H   0  0  0  0  0  0  0  0  0  0  0  0
  133.9144  137.2860  159.1908 H   0  0  0  0  0  0  0  0  0  0  0  0
  131.7471  136.9437  159.6339 H   0  0  0  0  0  0  0  0  0  0  0  0
  131.2751  137.1885  161.3331 H   0  0  0  0  0  0  0  0  0  0  0  0
  129.5305  135.9369  160.0808 H   0  0  0  0  0  0  0  0  0  0  0  0
  130.2381  134.9418  161.3759 H   0  0  0  0  0  0  0  0  0  0  0  0
  127.1569  132.7903  159.7130 H   0  0  0  0  0  0  0  0  0  0  0  0
  125.1362  133.9547  158.9232 H   0  0  0  0  0  0  0  0  0  0  0  0
  125.3442  135.9853  157.5461 H   0  0  0  0  0  0  0  0  0  0  0  0
  127.5731  136.8513  156.9584 H   0  0  0  0  0  0  0  0  0  0  0  0
  129.5939  135.6861  157.7470 H   0  0  0  0  0  0  0  0  0  0  0  0
  129.9530  130.7812  159.6055 H   0  0  0  0  0  0  0  0  0  0  0  0
  130.6110  129.0851  157.9481 H   0  0  0  0  0  0  0  0  0  0  0  0
  131.1685  129.7607  155.6476 H   0  0  0  0  0  0  0  0  0  0  0  0
  132.4592  131.4182  152.6315 H   0  0  0  0  0  0  0  0  0  0  0  0
  131.5207  130.0907  150.7836 H   0  0  0  0  0  0  0  0  0  0  0  0
  129.1503  129.4286  150.8214 H   0  0  0  0  0  0  0  0  0  0  0  0
  127.7156  130.0838  152.7108 H   0  0  0  0  0  0  0  0  0  0  0  0
  128.6485  131.4034  154.5674 H   0  0  0  0  0  0  0  0  0  0  0  0
  130.3986  133.8394  156.6673 H   0  0  0  0  0  0  0  0  0  0  0  0
  131.8299  133.2422  160.8513 H   0  0  0  0  0  0  0  0  0  0  0  0
  132.3171  132.9615  159.1625 H   0  0  0  0  0  0  0  0  0  0  0  0
  133.3873  135.1925  159.0930 H   0  0  0  0  0  0  0  0  0  0  0  0
  134.0658  134.2087  160.4128 H   0  0  0  0  0  0  0  0  0  0  0  0
  134.3560  135.0916  163.7564 H   0  0  0  0  0  0  0  0  0  0  0  0
  133.9050  136.5986  164.5894 H   0  0  0  0  0  0  0  0  0  0  0  0
  132.7487  135.8086  163.4906 H   0  0  0  0  0  0  0  0  0  0  0  0
  1  2  1  0
  1 37  1  0
  1 38  1  0
  1 39  1  0
  2 35  2  0
  2  3  1  0
  3  4  2  0
  3 40  1  0
  4  5  1  0
  4 41  1  0
  5  6  2  0
  5 42  1  0
  6  7  1  0
  6 35  1  0
  7 34  1  0
  7  8  1  0
  8  9  1  0
  8 43  1  0
  8 44  1  0
  9 10  1  0
  9 45  1  0
  9 46  1  0
 10 11  1  0
 10 12  1  0
 10 33  1  0
 12 13  1  1
 12 14  1  0
 12 20  1  0
 14 19  1  0
 14 15  2  0
 15 16  1  0
 15 47  1  0
 16 17  2  0
 16 48  1  0
 17 18  1  0
 17 49  1  0
 18 19  2  0
 18 50  1  0
 19 51  1  0
 20 32  1  0
 20 21  2  0
 21 22  1  0
 21 52  1  0
 22 23  2  0
 22 53  1  0
 23 24  1  0
 23 54  1  0
 24 25  1  0
 24 32  2  0
 25 26  1  0
 26 31  1  0
 26 27  2  0
 27 28  1  0
 27 55  1  0
 28 29  2  0
 28 56  1  0
 29 30  1  0
 29 57  1  0
 30 31  2  0
 30 58  1  0
 31 59  1  0
 32 60  1  0
 33 34  1  0
 33 61  1  0
 33 62  1  0
 34 63  1  0
 34 64  1  0
 35 36  1  0
 36 65  1  0
 36 66  1  0
 36 67  1  0
M  CHG  1  10   1
M  END
>  <DOCK_score>  (1) 
-58.907532

>  <SMILES>  (1) 
Cc1cccc(N2CC[NH+]([C@@H](c3ccccc3)c3cccc(Oc4ccccc4)c3)CC2)c1C

$$$$
