CCc1ccc(-c2c[nH]c(N[C@@H](CSc3ccccn3)Cc3ccc(C)cc3)[nH+]2)cc1
     RDKit          3D

 60 63  0  0  1  0  0  0  0  0999 V2000
  132.0766  129.5184  152.7004 C   0  0  0  0  0  0  0  0  0  0  0  0
  130.6610  129.6320  153.2697 C   0  0  0  0  0  0  0  0  0  0  0  0
  130.6857  130.4875  154.5101 C   0  0  0  0  0  0  0  0  0  0  0  0
  130.5061  131.8552  154.4076 C   0  0  0  0  0  0  0  0  0  0  0  0
  130.5229  132.6429  155.5407 C   0  0  0  0  0  0  0  0  0  0  0  0
  130.7320  132.0591  156.7890 C   0  0  0  0  0  0  0  0  0  0  0  0
  130.7562  132.9010  158.0099 C   0  0  0  0  0  0  0  0  0  0  0  0
  130.3898  132.5107  159.2558 C   0  0  0  0  0  0  0  0  0  0  0  0
  130.5681  133.5940  160.0815 N   0  0  0  0  0  0  0  0  0  0  0  0
  130.3909  133.6251  161.0347 H   0  0  0  0  0  0  0  0  0  0  0  0
  131.0386  134.6156  159.3153 C   0  0  0  0  0  0  0  0  0  0  0  0
  131.3481  135.8867  159.7679 N   0  0  0  0  0  0  0  0  0  0  0  0
  130.6255  136.4540  160.9090 C   0  0  1  0  0  0  0  0  0  0  0  0
  130.4679  135.6802  161.6604 H   0  0  0  0  0  0  0  0  0  0  0  0
  131.4451  137.5946  161.5158 C   0  0  0  0  0  0  0  0  0  0  0  0
  133.0495  136.9565  162.0725 S   0  0  0  0  0  0  0  0  0  0  0  0
  133.8388  138.3881  162.7300 C   0  0  0  0  0  0  0  0  0  0  0  0
  135.1202  138.2855  163.2641 C   0  0  0  0  0  0  0  0  0  0  0  0
  135.7276  139.4169  163.7766 C   0  0  0  0  0  0  0  0  0  0  0  0
  135.0313  140.6185  163.7382 C   0  0  0  0  0  0  0  0  0  0  0  0
  133.7633  140.6482  163.1938 C   0  0  0  0  0  0  0  0  0  0  0  0
  133.2098  139.5536  162.7069 N   0  0  0  0  0  0  0  0  0  0  0  0
  129.2724  136.9921  160.4395 C   0  0  0  0  0  0  0  0  0  0  0  0
  128.2972  135.8512  160.3055 C   0  0  0  0  0  0  0  0  0  0  0  0
  127.5151  135.4801  161.3832 C   0  0  0  0  0  0  0  0  0  0  0  0
  126.6174  134.4362  161.2589 C   0  0  0  0  0  0  0  0  0  0  0  0
  126.5087  133.7571  160.0598 C   0  0  0  0  0  0  0  0  0  0  0  0
  125.5335  132.6162  159.9257 C   0  0  0  0  0  0  0  0  0  0  0  0
  127.2942  134.1251  158.9835 C   0  0  0  0  0  0  0  0  0  0  0  0
  128.1889  135.1717  159.1064 C   0  0  0  0  0  0  0  0  0  0  0  0
  131.1545  134.1961  158.0789 N   0  0  0  0  0  0  0  0  0  0  0  0
  131.4725  134.7274  157.3322 H   0  0  0  0  0  0  0  0  0  0  0  0
  130.9176  130.6811  156.8857 C   0  0  0  0  0  0  0  0  0  0  0  0
  130.8936  129.9026  155.7464 C   0  0  0  0  0  0  0  0  0  0  0  0
  132.0587  128.8997  151.8031 H   0  0  0  0  0  0  0  0  0  0  0  0
  132.4480  130.5118  152.4493 H   0  0  0  0  0  0  0  0  0  0  0  0
  132.7313  129.0626  153.4430 H   0  0  0  0  0  0  0  0  0  0  0  0
  130.0061  130.0878  152.5270 H   0  0  0  0  0  0  0  0  0  0  0  0
  130.2895  128.6385  153.5208 H   0  0  0  0  0  0  0  0  0  0  0  0
  130.3486  132.3071  153.4394 H   0  0  0  0  0  0  0  0  0  0  0  0
  130.3780  133.7101  155.4600 H   0  0  0  0  0  0  0  0  0  0  0  0
  130.0270  131.5351  159.5438 H   0  0  0  0  0  0  0  0  0  0  0  0
  132.0434  136.4018  159.3295 H   0  0  0  0  0  0  0  0  0  0  0  0
  131.6028  138.3684  160.7645 H   0  0  0  0  0  0  0  0  0  0  0  0
  130.9076  138.0166  162.3650 H   0  0  0  0  0  0  0  0  0  0  0  0
  135.6327  137.3350  163.2783 H   0  0  0  0  0  0  0  0  0  0  0  0
  136.7211  139.3678  164.1971 H   0  0  0  0  0  0  0  0  0  0  0  0
  135.4779  141.5203  164.1300 H   0  0  0  0  0  0  0  0  0  0  0  0
  133.2187  141.5802  163.1621 H   0  0  0  0  0  0  0  0  0  0  0  0
  128.8942  137.7098  161.1675 H   0  0  0  0  0  0  0  0  0  0  0  0
  129.3921  137.4832  159.4737 H   0  0  0  0  0  0  0  0  0  0  0  0
  127.6030  136.0079  162.3213 H   0  0  0  0  0  0  0  0  0  0  0  0
  126.0034  134.1489  162.0997 H   0  0  0  0  0  0  0  0  0  0  0  0
  126.0260  131.6831  160.1995 H   0  0  0  0  0  0  0  0  0  0  0  0
  124.6830  132.7856  160.5862 H   0  0  0  0  0  0  0  0  0  0  0  0
  125.1861  132.5544  158.8943 H   0  0  0  0  0  0  0  0  0  0  0  0
  127.2094  133.5946  158.0466 H   0  0  0  0  0  0  0  0  0  0  0  0
  128.8029  135.4589  158.2657 H   0  0  0  0  0  0  0  0  0  0  0  0
  131.0804  130.2235  157.8503 H   0  0  0  0  0  0  0  0  0  0  0  0
  131.0377  128.8349  155.8201 H   0  0  0  0  0  0  0  0  0  0  0  0
  1  2  1  0
  1 35  1  0
  1 36  1  0
  1 37  1  0
  2  3  1  0
  2 38  1  0
  2 39  1  0
  3 34  2  0
  3  4  1  0
  4  5  2  0
  4 40  1  0
  5  6  1  0
  5 41  1  0
  6  7  1  0
  6 33  2  0
  7 31  1  0
  7  8  2  0
  8  9  1  0
  8 42  1  0
  9 10  1  0
  9 11  1  0
 11 12  1  0
 11 31  2  0
 12 13  1  0
 12 43  1  0
 13 14  1  1
 13 15  1  0
 13 23  1  0
 15 16  1  0
 15 44  1  0
 15 45  1  0
 16 17  1  0
 17 22  1  0
 17 18  2  0
 18 19  1  0
 18 46  1  0
 19 20  2  0
 19 47  1  0
 20 21  1  0
 20 48  1  0
 21 22  2  0
 21 49  1  0
 23 24  1  0
 23 50  1  0
 23 51  1  0
 24 30  1  0
 24 25  2  0
 25 26  1  0
 25 52  1  0
 26 27  2  0
 26 53  1  0
 27 28  1  0
 27 29  1  0
 28 54  1  0
 28 55  1  0
 28 56  1  0
 29 30  2  0
 29 57  1  0
 30 58  1  0
 31 32  1  0
 33 34  1  0
 33 59  1  0
 34 60  1  0
M  CHG  1  31   1
M  END
>  <DOCK_score>  (1) 
-56.089363

>  <SMILES>  (1) 
CCc1ccc(-c2c[nH]c(N[C@@H](CSc3ccccn3)Cc3ccc(C)cc3)[nH+]2)cc1

$$$$
