Cc1cc(C[NH2+][C@H](c2cccnc2)c2ccccc2C(O)c2ccccc2C=O)c(C)cc1C=O
     RDKit          3D

 64 67  0  0  1  0  0  0  0  0999 V2000
  135.7596  140.7227  159.1821 C   0  0  0  0  0  0  0  0  0  0  0  0
  135.5583  139.5566  160.1153 C   0  0  0  0  0  0  0  0  0  0  0  0
  134.3804  138.8402  160.0823 C   0  0  0  0  0  0  0  0  0  0  0  0
  134.1938  137.7691  160.9384 C   0  0  0  0  0  0  0  0  0  0  0  0
  132.9035  136.9916  160.8959 C   0  0  0  0  0  0  0  0  0  0  0  0
  131.9397  137.5907  161.8288 N   0  0  0  0  0  0  0  0  0  0  0  0
  131.7645  138.5480  161.5628 H   0  0  0  0  0  0  0  0  0  0  0  0
  132.3171  137.5652  162.7644 H   0  0  0  0  0  0  0  0  0  0  0  0
  130.6821  136.8327  161.7874 C   0  0  2  0  0  0  0  0  0  0  0  0
  130.4589  136.5550  160.7574 H   0  0  0  0  0  0  0  0  0  0  0  0
  129.5642  137.6844  162.3315 C   0  0  0  0  0  0  0  0  0  0  0  0
  129.8203  138.6457  163.2977 C   0  0  0  0  0  0  0  0  0  0  0  0
  128.7621  139.4090  163.7658 C   0  0  0  0  0  0  0  0  0  0  0  0
  127.4940  139.1815  163.2646 C   0  0  0  0  0  0  0  0  0  0  0  0
  127.2866  138.2551  162.3496 N   0  0  0  0  0  0  0  0  0  0  0  0
  128.2701  137.5135  161.8782 C   0  0  0  0  0  0  0  0  0  0  0  0
  130.8182  135.5875  162.6253 C   0  0  0  0  0  0  0  0  0  0  0  0
  131.1023  135.6896  163.9745 C   0  0  0  0  0  0  0  0  0  0  0  0
  131.2272  134.5476  164.7428 C   0  0  0  0  0  0  0  0  0  0  0  0
  131.0676  133.3030  164.1623 C   0  0  0  0  0  0  0  0  0  0  0  0
  130.7793  133.2010  162.8144 C   0  0  0  0  0  0  0  0  0  0  0  0
  130.6596  134.3433  162.0448 C   0  0  0  0  0  0  0  0  0  0  0  0
  130.3499  134.2319  160.5741 C   0  0  1  0  0  0  0  0  0  0  0  0
  131.4032  134.8336  159.8187 O   0  0  0  0  0  0  0  0  0  0  0  0
  130.2270  132.7784  160.1953 C   0  0  0  0  0  0  0  0  0  0  0  0
  131.3383  132.0762  159.7784 C   0  0  0  0  0  0  0  0  0  0  0  0
  131.2274  130.7417  159.4296 C   0  0  0  0  0  0  0  0  0  0  0  0
  130.0022  130.1009  159.4967 C   0  0  0  0  0  0  0  0  0  0  0  0
  128.8820  130.7891  159.9114 C   0  0  0  0  0  0  0  0  0  0  0  0
  128.9846  132.1399  160.2596 C   0  0  0  0  0  0  0  0  0  0  0  0
  127.7926  132.8834  160.6976 C   0  0  0  0  0  0  0  0  0  0  0  0
  127.9045  133.7994  161.4843 O   0  0  0  0  0  0  0  0  0  0  0  0
  135.1835  137.4117  161.8377 C   0  0  0  0  0  0  0  0  0  0  0  0
  134.9673  136.2475  162.7698 C   0  0  0  0  0  0  0  0  0  0  0  0
  136.3686  138.1150  161.8794 C   0  0  0  0  0  0  0  0  0  0  0  0
  136.5652  139.1985  161.0171 C   0  0  0  0  0  0  0  0  0  0  0  0
  137.8254  139.9575  161.0584 C   0  0  0  0  0  0  0  0  0  0  0  0
  138.6964  139.6442  161.8417 O   0  0  0  0  0  0  0  0  0  0  0  0
  135.5323  141.6510  159.7062 H   0  0  0  0  0  0  0  0  0  0  0  0
  136.7951  140.7415  158.8423 H   0  0  0  0  0  0  0  0  0  0  0  0
  135.0972  140.6190  158.3228 H   0  0  0  0  0  0  0  0  0  0  0  0
  133.6018  139.1155  159.3864 H   0  0  0  0  0  0  0  0  0  0  0  0
  133.0928  135.9574  161.1835 H   0  0  0  0  0  0  0  0  0  0  0  0
  132.4959  137.0190  159.8854 H   0  0  0  0  0  0  0  0  0  0  0  0
  130.8211  138.7986  163.6737 H   0  0  0  0  0  0  0  0  0  0  0  0
  128.9255  140.1690  164.5154 H   0  0  0  0  0  0  0  0  0  0  0  0
  126.6637  139.7697  163.6265 H   0  0  0  0  0  0  0  0  0  0  0  0
  128.0617  136.7643  161.1287 H   0  0  0  0  0  0  0  0  0  0  0  0
  131.2270  136.6619  164.4279 H   0  0  0  0  0  0  0  0  0  0  0  0
  131.4498  134.6273  165.7966 H   0  0  0  0  0  0  0  0  0  0  0  0
  131.1655  132.4105  164.7626 H   0  0  0  0  0  0  0  0  0  0  0  0
  130.6509  132.2289  162.3617 H   0  0  0  0  0  0  0  0  0  0  0  0
  129.4115  134.7436  160.3606 H   0  0  0  0  0  0  0  0  0  0  0  0
  131.2704  134.7985  158.8615 H   0  0  0  0  0  0  0  0  0  0  0  0
  132.2978  132.5692  159.7242 H   0  0  0  0  0  0  0  0  0  0  0  0
  132.1013  130.1972  159.1039 H   0  0  0  0  0  0  0  0  0  0  0  0
  129.9239  129.0589  159.2234 H   0  0  0  0  0  0  0  0  0  0  0  0
  127.9268  130.2877  159.9632 H   0  0  0  0  0  0  0  0  0  0  0  0
  126.8181  132.6134  160.3183 H   0  0  0  0  0  0  0  0  0  0  0  0
  135.3208  135.3319  162.2957 H   0  0  0  0  0  0  0  0  0  0  0  0
  135.5201  136.4146  163.6943 H   0  0  0  0  0  0  0  0  0  0  0  0
  133.9047  136.1538  162.9938 H   0  0  0  0  0  0  0  0  0  0  0  0
  137.1417  137.8322  162.5785 H   0  0  0  0  0  0  0  0  0  0  0  0
  137.9744  140.7935  160.3909 H   0  0  0  0  0  0  0  0  0  0  0  0
  1  2  1  0
  1 39  1  0
  1 40  1  0
  1 41  1  0
  2 36  2  0
  2  3  1  0
  3  4  2  0
  3 42  1  0
  4  5  1  0
  4 33  1  0
  5  6  1  0
  5 43  1  0
  5 44  1  0
  6  7  1  0
  6  8  1  0
  6  9  1  0
  9 10  1  6
  9 11  1  0
  9 17  1  0
 11 16  1  0
 11 12  2  0
 12 13  1  0
 12 45  1  0
 13 14  2  0
 13 46  1  0
 14 15  1  0
 14 47  1  0
 15 16  2  0
 16 48  1  0
 17 22  1  0
 17 18  2  0
 18 19  1  0
 18 49  1  0
 19 20  2  0
 19 50  1  0
 20 21  1  0
 20 51  1  0
 21 22  2  0
 21 52  1  0
 22 23  1  0
 23 24  1  0
 23 25  1  0
 23 53  1  1
 24 54  1  0
 25 30  1  0
 25 26  2  0
 26 27  1  0
 26 55  1  0
 27 28  2  0
 27 56  1  0
 28 29  1  0
 28 57  1  0
 29 30  2  0
 29 58  1  0
 30 31  1  0
 31 32  2  0
 31 59  1  0
 33 34  1  0
 33 35  2  0
 34 60  1  0
 34 61  1  0
 34 62  1  0
 35 36  1  0
 35 63  1  0
 36 37  1  0
 37 38  2  0
 37 64  1  0
M  CHG  1   6   1
M  END
>  <DOCK_score>  (1) 
-45.216286

>  <SMILES>  (1) 
Cc1cc(C[NH2+][C@H](c2cccnc2)c2ccccc2C(O)c2ccccc2C=O)c(C)cc1C=O

$$$$
