O=C1CC[C@H](NC(NC2CCCC2)=[NH+]C2COCOC2)CN1
     RDKit          3D

 49 51  0  0  1  0  0  0  0  0999 V2000
  123.8833  133.6586  162.0172 O   0  0  0  0  0  0  0  0  0  0  0  0
  125.0193  133.9628  161.7211 C   0  0  0  0  0  0  0  0  0  0  0  0
  125.9600  132.8713  161.2979 C   0  0  0  0  0  0  0  0  0  0  0  0
  127.4060  133.3647  161.3916 C   0  0  0  0  0  0  0  0  0  0  0  0
  127.4996  134.7267  160.6933 C   0  0  2  0  0  0  0  0  0  0  0  0
  127.0832  134.6519  159.6887 H   0  0  0  0  0  0  0  0  0  0  0  0
  128.9020  135.1431  160.6142 N   0  0  0  0  0  0  0  0  0  0  0  0
  129.6630  134.7918  159.5245 C   0  0  0  0  0  0  0  0  0  0  0  0
  129.1080  134.0496  158.5089 N   0  0  0  0  0  0  0  0  0  0  0  0
  129.9189  133.6752  157.3477 C   0  0  0  0  0  0  0  0  0  0  0  0
  129.0941  132.7911  156.3899 C   0  0  0  0  0  0  0  0  0  0  0  0
  130.1151  131.7578  155.8526 C   0  0  0  0  0  0  0  0  0  0  0  0
  130.9898  131.4630  157.0963 C   0  0  0  0  0  0  0  0  0  0  0  0
  131.1244  132.8308  157.7969 C   0  0  0  0  0  0  0  0  0  0  0  0
  130.9106  135.1623  159.4541 N   0  0  0  0  0  0  0  0  0  0  0  0
  131.3220  135.3196  158.5898 H   0  0  0  0  0  0  0  0  0  0  0  0
  131.6918  135.3412  160.6805 C   0  0  0  0  0  0  0  0  0  0  0  0
  131.7537  134.0161  161.4478 C   0  0  0  0  0  0  0  0  0  0  0  0
  132.6288  134.1739  162.5724 O   0  0  0  0  0  0  0  0  0  0  0  0
  133.9545  134.5777  162.2208 C   0  0  0  0  0  0  0  0  0  0  0  0
  133.9030  135.8214  161.5175 O   0  0  0  0  0  0  0  0  0  0  0  0
  133.1172  135.7761  160.3224 C   0  0  0  0  0  0  0  0  0  0  0  0
  126.7057  135.7496  161.5067 C   0  0  0  0  0  0  0  0  0  0  0  0
  125.3662  135.2486  161.7883 N   0  0  0  0  0  0  0  0  0  0  0  0
  125.7415  132.5836  160.2695 H   0  0  0  0  0  0  0  0  0  0  0  0
  125.8287  132.0085  161.9509 H   0  0  0  0  0  0  0  0  0  0  0  0
  128.0691  132.6534  160.8991 H   0  0  0  0  0  0  0  0  0  0  0  0
  127.6911  133.4687  162.4385 H   0  0  0  0  0  0  0  0  0  0  0  0
  129.2935  135.6668  161.3306 H   0  0  0  0  0  0  0  0  0  0  0  0
  128.1795  133.7739  158.5613 H   0  0  0  0  0  0  0  0  0  0  0  0
  130.2627  134.5699  156.8285 H   0  0  0  0  0  0  0  0  0  0  0  0
  128.2915  132.2890  156.9301 H   0  0  0  0  0  0  0  0  0  0  0  0
  128.6897  133.3884  155.5726 H   0  0  0  0  0  0  0  0  0  0  0  0
  130.7155  132.1886  155.0513 H   0  0  0  0  0  0  0  0  0  0  0  0
  129.6083  130.8541  155.5138 H   0  0  0  0  0  0  0  0  0  0  0  0
  131.9689  131.0910  156.7946 H   0  0  0  0  0  0  0  0  0  0  0  0
  130.4956  130.7457  157.7516 H   0  0  0  0  0  0  0  0  0  0  0  0
  132.0530  133.3152  157.4950 H   0  0  0  0  0  0  0  0  0  0  0  0
  131.1065  132.7002  158.8789 H   0  0  0  0  0  0  0  0  0  0  0  0
  131.2234  136.1028  161.3040 H   0  0  0  0  0  0  0  0  0  0  0  0
  130.7554  133.7474  161.7933 H   0  0  0  0  0  0  0  0  0  0  0  0
  132.1382  133.2332  160.7939 H   0  0  0  0  0  0  0  0  0  0  0  0
  134.4086  133.8187  161.5839 H   0  0  0  0  0  0  0  0  0  0  0  0
  134.5502  134.6966  163.1258 H   0  0  0  0  0  0  0  0  0  0  0  0
  133.5531  135.0599  159.6260 H   0  0  0  0  0  0  0  0  0  0  0  0
  133.0928  136.7647  159.8641 H   0  0  0  0  0  0  0  0  0  0  0  0
  127.2231  135.9426  162.4463 H   0  0  0  0  0  0  0  0  0  0  0  0
  126.6314  136.6792  160.9424 H   0  0  0  0  0  0  0  0  0  0  0  0
  124.6844  135.8909  162.0404 H   0  0  0  0  0  0  0  0  0  0  0  0
  1  2  2  0
  2 24  1  0
  2  3  1  0
  3  4  1  0
  3 25  1  0
  3 26  1  0
  4  5  1  0
  4 27  1  0
  4 28  1  0
  5  6  1  6
  5  7  1  0
  5 23  1  0
  7 29  1  0
  8  7  1  0
  8  9  1  0
  8 15  2  0
  9 10  1  0
  9 30  1  0
 10 14  1  0
 10 11  1  0
 10 31  1  0
 11 12  1  0
 11 32  1  0
 11 33  1  0
 12 13  1  0
 12 34  1  0
 12 35  1  0
 13 14  1  0
 13 36  1  0
 13 37  1  0
 14 38  1  0
 14 39  1  0
 15 16  1  0
 15 17  1  0
 17 22  1  0
 17 18  1  0
 17 40  1  0
 18 19  1  0
 18 41  1  0
 18 42  1  0
 19 20  1  0
 20 21  1  0
 20 43  1  0
 20 44  1  0
 21 22  1  0
 22 45  1  0
 22 46  1  0
 23 24  1  0
 23 47  1  0
 23 48  1  0
 24 49  1  0
M  CHG  1  15   1
M  END
>  <DOCK_score>  (1) 
-43.102943

>  <SMILES>  (1) 
O=C1CC[C@H](NC(NC2CCCC2)=[NH+]C2COCOC2)CN1

$$$$
