CCc1ccc([C@](O)(Cc2ccccc2)C(Nc2[nH]cc(-c3ccc(N)cc3)[nH+]2)c2ccccc2)cc1
     RDKit          3D

 70 74  0  0  1  0  0  0  0  0999 V2000
  135.8184  139.7764  161.5816 C   0  0  0  0  0  0  0  0  0  0  0  0
  135.4680  138.6645  160.5909 C   0  0  0  0  0  0  0  0  0  0  0  0
  134.0136  138.2988  160.7399 C   0  0  0  0  0  0  0  0  0  0  0  0
  133.0558  138.9533  159.9883 C   0  0  0  0  0  0  0  0  0  0  0  0
  131.7217  138.6182  160.1252 C   0  0  0  0  0  0  0  0  0  0  0  0
  131.3456  137.6279  161.0132 C   0  0  0  0  0  0  0  0  0  0  0  0
  129.8911  137.2625  161.1626 C   0  0  2  0  0  0  0  0  0  0  0  0
  129.1041  138.0730  160.2876 O   0  0  0  0  0  0  0  0  0  0  0  0
  129.4519  137.4985  162.6092 C   0  0  0  0  0  0  0  0  0  0  0  0
  129.6437  138.9511  162.9616 C   0  0  0  0  0  0  0  0  0  0  0  0
  130.8409  139.3783  163.5049 C   0  0  0  0  0  0  0  0  0  0  0  0
  131.0184  140.7115  163.8239 C   0  0  0  0  0  0  0  0  0  0  0  0
  129.9951  141.6158  163.6091 C   0  0  0  0  0  0  0  0  0  0  0  0
  128.7960  141.1877  163.0708 C   0  0  0  0  0  0  0  0  0  0  0  0
  128.6203  139.8553  162.7469 C   0  0  0  0  0  0  0  0  0  0  0  0
  129.6964  135.7877  160.8046 C   0  0  2  0  0  0  0  0  0  0  0  0
  130.1169  135.5618  159.4196 N   0  0  0  0  0  0  0  0  0  0  0  0
  130.0320  134.2946  158.8684 C   0  0  0  0  0  0  0  0  0  0  0  0
  129.5831  133.1806  159.5079 N   0  0  0  0  0  0  0  0  0  0  0  0
  129.2677  133.1316  160.4240 H   0  0  0  0  0  0  0  0  0  0  0  0
  129.6557  132.1380  158.6147 C   0  0  0  0  0  0  0  0  0  0  0  0
  130.1551  132.6437  157.4599 C   0  0  0  0  0  0  0  0  0  0  0  0
  130.4136  131.8823  156.2132 C   0  0  0  0  0  0  0  0  0  0  0  0
  129.7594  132.2325  155.0331 C   0  0  0  0  0  0  0  0  0  0  0  0
  130.0056  131.5270  153.8742 C   0  0  0  0  0  0  0  0  0  0  0  0
  130.8961  130.4602  153.8845 C   0  0  0  0  0  0  0  0  0  0  0  0
  131.1392  129.7435  152.7103 N   0  0  0  0  0  0  0  0  0  0  0  0
  131.5457  130.1059  155.0613 C   0  0  0  0  0  0  0  0  0  0  0  0
  131.3069  130.8121  156.2213 C   0  0  0  0  0  0  0  0  0  0  0  0
  130.3761  133.9691  157.6461 N   0  0  0  0  0  0  0  0  0  0  0  0
  130.7323  134.5787  156.9810 H   0  0  0  0  0  0  0  0  0  0  0  0
  128.2421  135.4224  160.9541 C   0  0  0  0  0  0  0  0  0  0  0  0
  127.7685  134.9516  162.1645 C   0  0  0  0  0  0  0  0  0  0  0  0
  126.4345  134.6160  162.3013 C   0  0  0  0  0  0  0  0  0  0  0  0
  125.5740  134.7512  161.2278 C   0  0  0  0  0  0  0  0  0  0  0  0
  126.0487  135.2170  160.0161 C   0  0  0  0  0  0  0  0  0  0  0  0
  127.3816  135.5575  159.8806 C   0  0  0  0  0  0  0  0  0  0  0  0
  132.3029  136.9767  161.7684 C   0  0  0  0  0  0  0  0  0  0  0  0
  133.6373  137.3090  161.6286 C   0  0  0  0  0  0  0  0  0  0  0  0
  135.2010  140.6516  161.3789 H   0  0  0  0  0  0  0  0  0  0  0  0
  135.6334  139.4290  162.5981 H   0  0  0  0  0  0  0  0  0  0  0  0
  136.8702  140.0409  161.4738 H   0  0  0  0  0  0  0  0  0  0  0  0
  136.0853  137.7893  160.7937 H   0  0  0  0  0  0  0  0  0  0  0  0
  135.6530  139.0119  159.5745 H   0  0  0  0  0  0  0  0  0  0  0  0
  133.3497  139.7268  159.2942 H   0  0  0  0  0  0  0  0  0  0  0  0
  130.9734  139.1298  159.5382 H   0  0  0  0  0  0  0  0  0  0  0  0
  129.3285  137.9745  159.3521 H   0  0  0  0  0  0  0  0  0  0  0  0
  128.4000  137.2342  162.7171 H   0  0  0  0  0  0  0  0  0  0  0  0
  130.0523  136.8802  163.2766 H   0  0  0  0  0  0  0  0  0  0  0  0
  131.6388  138.6711  163.6767 H   0  0  0  0  0  0  0  0  0  0  0  0
  131.9551  141.0460  164.2448 H   0  0  0  0  0  0  0  0  0  0  0  0
  130.1323  142.6567  163.8624 H   0  0  0  0  0  0  0  0  0  0  0  0
  127.9964  141.8941  162.9033 H   0  0  0  0  0  0  0  0  0  0  0  0
  127.6835  139.5207  162.3267 H   0  0  0  0  0  0  0  0  0  0  0  0
  130.2968  135.1695  161.4720 H   0  0  0  0  0  0  0  0  0  0  0  0
  130.4548  136.2999  158.8887 H   0  0  0  0  0  0  0  0  0  0  0  0
  129.3739  131.1119  158.7991 H   0  0  0  0  0  0  0  0  0  0  0  0
  129.0634  133.0582  155.0256 H   0  0  0  0  0  0  0  0  0  0  0  0
  129.5023  131.8006  152.9586 H   0  0  0  0  0  0  0  0  0  0  0  0
  131.7611  128.9983  152.7173 H   0  0  0  0  0  0  0  0  0  0  0  0
  130.6864  129.9894  151.8892 H   0  0  0  0  0  0  0  0  0  0  0  0
  132.2376  129.2766  155.0672 H   0  0  0  0  0  0  0  0  0  0  0  0
  131.8117  130.5365  157.1354 H   0  0  0  0  0  0  0  0  0  0  0  0
  128.4408  134.8457  163.0030 H   0  0  0  0  0  0  0  0  0  0  0  0
  126.0646  134.2479  163.2469 H   0  0  0  0  0  0  0  0  0  0  0  0
  124.5320  134.4887  161.3348 H   0  0  0  0  0  0  0  0  0  0  0  0
  125.3773  135.3184  159.1761 H   0  0  0  0  0  0  0  0  0  0  0  0
  127.7516  135.9250  158.9349 H   0  0  0  0  0  0  0  0  0  0  0  0
  132.0086  136.2060  162.4655 H   0  0  0  0  0  0  0  0  0  0  0  0
  134.3856  136.7980  162.2161 H   0  0  0  0  0  0  0  0  0  0  0  0
  1  2  1  0
  1 40  1  0
  1 41  1  0
  1 42  1  0
  2  3  1  0
  2 43  1  0
  2 44  1  0
  3 39  2  0
  3  4  1  0
  4  5  2  0
  4 45  1  0
  5  6  1  0
  5 46  1  0
  6  7  1  0
  6 38  2  0
  7  8  1  6
  7  9  1  0
  7 16  1  0
  8 47  1  0
  9 10  1  0
  9 48  1  0
  9 49  1  0
 10 15  1  0
 10 11  2  0
 11 12  1  0
 11 50  1  0
 12 13  2  0
 12 51  1  0
 13 14  1  0
 13 52  1  0
 14 15  2  0
 14 53  1  0
 15 54  1  0
 16 17  1  0
 16 32  1  0
 16 55  1  1
 17 56  1  0
 18 17  1  0
 18 30  2  0
 18 19  1  0
 19 20  1  0
 19 21  1  0
 21 22  2  0
 21 57  1  0
 22 23  1  0
 22 30  1  0
 23 29  1  0
 23 24  2  0
 24 25  1  0
 24 58  1  0
 25 26  2  0
 25 59  1  0
 26 27  1  0
 26 28  1  0
 27 60  1  0
 27 61  1  0
 28 29  2  0
 28 62  1  0
 29 63  1  0
 30 31  1  0
 32 37  1  0
 32 33  2  0
 33 34  1  0
 33 64  1  0
 34 35  2  0
 34 65  1  0
 35 36  1  0
 35 66  1  0
 36 37  2  0
 36 67  1  0
 37 68  1  0
 38 39  1  0
 38 69  1  0
 39 70  1  0
M  CHG  1  30   1
M  END
>  <DOCK_score>  (1) 
-62.259682

>  <SMILES>  (1) 
CCc1ccc([C@](O)(Cc2ccccc2)C(Nc2[nH]cc(-c3ccc(N)cc3)[nH+]2)c2ccccc2)cc1

$$$$
