Cn1nccc1C(Nc1[nH]cc(-c2cccnc2)[nH+]1)[C@@H]1COc2ccccc2C1
     RDKit          3D

 52 56  0  0  1  0  0  0  0  0999 V2000
  127.0872  133.6698  160.9102 C   0  0  0  0  0  0  0  0  0  0  0  0
  126.9527  134.5468  159.7445 N   0  0  0  0  0  0  0  0  0  0  0  0
  125.8108  134.6860  158.9451 N   0  0  0  0  0  0  0  0  0  0  0  0
  126.0753  135.5531  158.0018 C   0  0  0  0  0  0  0  0  0  0  0  0
  127.3906  135.9973  158.1728 C   0  0  0  0  0  0  0  0  0  0  0  0
  127.9062  135.3654  159.2527 C   0  0  0  0  0  0  0  0  0  0  0  0
  129.2981  135.5401  159.8036 C   0  0  1  0  0  0  0  0  0  0  0  0
  130.2785  135.1760  158.7779 N   0  0  0  0  0  0  0  0  0  0  0  0
  130.2857  133.8959  158.2505 C   0  0  0  0  0  0  0  0  0  0  0  0
  129.8998  132.7668  158.9050 N   0  0  0  0  0  0  0  0  0  0  0  0
  129.5729  132.7144  159.8167 H   0  0  0  0  0  0  0  0  0  0  0  0
  130.0585  131.7148  158.0358 C   0  0  0  0  0  0  0  0  0  0  0  0
  130.5362  132.2309  156.8764 C   0  0  0  0  0  0  0  0  0  0  0  0
  130.8596  131.4651  155.6478 C   0  0  0  0  0  0  0  0  0  0  0  0
  130.7346  132.0576  154.3878 C   0  0  0  0  0  0  0  0  0  0  0  0
  131.0545  131.3027  153.2727 C   0  0  0  0  0  0  0  0  0  0  0  0
  131.4724  129.9945  153.4386 C   0  0  0  0  0  0  0  0  0  0  0  0
  131.5755  129.4607  154.6401 N   0  0  0  0  0  0  0  0  0  0  0  0
  131.2875  130.1416  155.7306 C   0  0  0  0  0  0  0  0  0  0  0  0
  130.6600  133.5724  157.0368 N   0  0  0  0  0  0  0  0  0  0  0  0
  130.9769  134.1927  156.3617 H   0  0  0  0  0  0  0  0  0  0  0  0
  129.5054  136.9998  160.2121 C   0  0  2  0  0  0  0  0  0  0  0  0
  129.3767  137.6460  159.3437 H   0  0  0  0  0  0  0  0  0  0  0  0
  130.9163  137.1805  160.7866 C   0  0  0  0  0  0  0  0  0  0  0  0
  131.1157  138.5674  161.0630 O   0  0  0  0  0  0  0  0  0  0  0  0
  130.1536  139.2200  161.7657 C   0  0  0  0  0  0  0  0  0  0  0  0
  130.4720  140.4418  162.3504 C   0  0  0  0  0  0  0  0  0  0  0  0
  129.5195  141.1388  163.0649 C   0  0  0  0  0  0  0  0  0  0  0  0
  128.2436  140.6228  163.2009 C   0  0  0  0  0  0  0  0  0  0  0  0
  127.9245  139.4099  162.6229 C   0  0  0  0  0  0  0  0  0  0  0  0
  128.8771  138.7047  161.9061 C   0  0  0  0  0  0  0  0  0  0  0  0
  128.4921  137.3817  161.2940 C   0  0  0  0  0  0  0  0  0  0  0  0
  126.7842  134.2092  161.8076 H   0  0  0  0  0  0  0  0  0  0  0  0
  126.4516  132.7937  160.7810 H   0  0  0  0  0  0  0  0  0  0  0  0
  128.1256  133.3538  161.0093 H   0  0  0  0  0  0  0  0  0  0  0  0
  125.3953  135.8715  157.2255 H   0  0  0  0  0  0  0  0  0  0  0  0
  127.9041  136.7168  157.5524 H   0  0  0  0  0  0  0  0  0  0  0  0
  129.4273  134.8971  160.6744 H   0  0  0  0  0  0  0  0  0  0  0  0
  130.9252  135.8306  158.4710 H   0  0  0  0  0  0  0  0  0  0  0  0
  129.8438  130.6757  158.2374 H   0  0  0  0  0  0  0  0  0  0  0  0
  130.4014  133.0800  154.2874 H   0  0  0  0  0  0  0  0  0  0  0  0
  130.9743  131.7289  152.2837 H   0  0  0  0  0  0  0  0  0  0  0  0
  131.7184  129.4011  152.5704 H   0  0  0  0  0  0  0  0  0  0  0  0
  131.3843  129.6699  156.6973 H   0  0  0  0  0  0  0  0  0  0  0  0
  131.0141  136.6056  161.7074 H   0  0  0  0  0  0  0  0  0  0  0  0
  131.6547  136.8404  160.0606 H   0  0  0  0  0  0  0  0  0  0  0  0
  131.4681  140.8457  162.2450 H   0  0  0  0  0  0  0  0  0  0  0  0
  129.7702  142.0866  163.5181 H   0  0  0  0  0  0  0  0  0  0  0  0
  127.4970  141.1685  163.7584 H   0  0  0  0  0  0  0  0  0  0  0  0
  126.9273  139.0090  162.7304 H   0  0  0  0  0  0  0  0  0  0  0  0
  127.5002  137.4627  160.8496 H   0  0  0  0  0  0  0  0  0  0  0  0
  128.4813  136.6142  162.0679 H   0  0  0  0  0  0  0  0  0  0  0  0
  1  2  1  0
  1 33  1  0
  1 34  1  0
  1 35  1  0
  2  6  1  0
  2  3  1  0
  3  4  2  0
  4  5  1  0
  4 36  1  0
  5  6  2  0
  5 37  1  0
  6  7  1  0
  7  8  1  0
  7 22  1  0
  7 38  1  1
  8 39  1  0
  9  8  1  0
  9 20  2  0
  9 10  1  0
 10 11  1  0
 10 12  1  0
 12 13  2  0
 12 40  1  0
 13 14  1  0
 13 20  1  0
 14 19  1  0
 14 15  2  0
 15 16  1  0
 15 41  1  0
 16 17  2  0
 16 42  1  0
 17 18  1  0
 17 43  1  0
 18 19  2  0
 19 44  1  0
 20 21  1  0
 22 23  1  6
 22 32  1  0
 22 24  1  0
 24 25  1  0
 24 45  1  0
 24 46  1  0
 25 26  1  0
 26 31  2  0
 26 27  1  0
 27 28  2  0
 27 47  1  0
 28 29  1  0
 28 48  1  0
 29 30  2  0
 29 49  1  0
 30 31  1  0
 30 50  1  0
 31 32  1  0
 32 51  1  0
 32 52  1  0
M  CHG  1  20   1
M  END
>  <DOCK_score>  (1) 
-56.747986

>  <SMILES>  (1) 
Cn1nccc1C(Nc1[nH]cc(-c2cccnc2)[nH+]1)[C@@H]1COc2ccccc2C1

$$$$
