Cc1ccc([C@@H](Cc2nc(-c3ccccc3)c[nH]2)Nc2[nH]cc(-c3ccc(N)cc3)[nH+]2)cc1
     RDKit          3D

 60 64  0  0  1  0  0  0  0  0999 V2000
  124.2710  135.6387  156.6413 C   0  0  0  0  0  0  0  0  0  0  0  0
  125.6406  135.6692  157.2692 C   0  0  0  0  0  0  0  0  0  0  0  0
  126.7518  135.9365  156.4916 C   0  0  0  0  0  0  0  0  0  0  0  0
  128.0081  135.9642  157.0676 C   0  0  0  0  0  0  0  0  0  0  0  0
  128.1531  135.7244  158.4212 C   0  0  0  0  0  0  0  0  0  0  0  0
  129.5229  135.7539  159.0491 C   0  0  1  0  0  0  0  0  0  0  0  0
  130.2677  135.9786  158.2857 H   0  0  0  0  0  0  0  0  0  0  0  0
  129.5633  136.8320  160.1340 C   0  0  0  0  0  0  0  0  0  0  0  0
  130.9331  136.8615  160.7619 C   0  0  0  0  0  0  0  0  0  0  0  0
  131.3081  136.1587  161.7937 N   0  0  0  0  0  0  0  0  0  0  0  0
  132.5951  136.4427  162.0792 C   0  0  0  0  0  0  0  0  0  0  0  0
  133.3966  135.8582  163.1825 C   0  0  0  0  0  0  0  0  0  0  0  0
  134.7755  135.7117  163.0437 C   0  0  0  0  0  0  0  0  0  0  0  0
  135.5161  135.1678  164.0733 C   0  0  0  0  0  0  0  0  0  0  0  0
  134.8924  134.7686  165.2416 C   0  0  0  0  0  0  0  0  0  0  0  0
  133.5240  134.9116  165.3849 C   0  0  0  0  0  0  0  0  0  0  0  0
  132.7735  135.4543  164.3617 C   0  0  0  0  0  0  0  0  0  0  0  0
  133.0278  137.3563  161.1712 C   0  0  0  0  0  0  0  0  0  0  0  0
  131.9724  137.6160  160.3424 N   0  0  0  0  0  0  0  0  0  0  0  0
  131.9701  138.2294  159.5908 H   0  0  0  0  0  0  0  0  0  0  0  0
  129.8145  134.4485  159.6467 N   0  0  0  0  0  0  0  0  0  0  0  0
  129.8341  133.3134  158.8544 C   0  0  0  0  0  0  0  0  0  0  0  0
  129.5128  132.0559  159.2630 N   0  0  0  0  0  0  0  0  0  0  0  0
  129.2313  131.7956  160.1540 H   0  0  0  0  0  0  0  0  0  0  0  0
  129.6610  131.2225  158.1797 C   0  0  0  0  0  0  0  0  0  0  0  0
  130.0681  131.9949  157.1423 C   0  0  0  0  0  0  0  0  0  0  0  0
  130.3571  131.5252  155.7650 C   0  0  0  0  0  0  0  0  0  0  0  0
  130.1522  132.3760  154.6800 C   0  0  0  0  0  0  0  0  0  0  0  0
  130.4263  131.9390  153.4012 C   0  0  0  0  0  0  0  0  0  0  0  0
  130.8957  130.6475  153.1926 C   0  0  0  0  0  0  0  0  0  0  0  0
  131.1673  130.2052  151.8958 N   0  0  0  0  0  0  0  0  0  0  0  0
  131.0957  129.7958  154.2725 C   0  0  0  0  0  0  0  0  0  0  0  0
  130.8283  130.2304  155.5535 C   0  0  0  0  0  0  0  0  0  0  0  0
  130.1600  133.2738  157.5853 N   0  0  0  0  0  0  0  0  0  0  0  0
  130.4266  134.0369  157.0491 H   0  0  0  0  0  0  0  0  0  0  0  0
  127.0425  135.4518  159.1979 C   0  0  0  0  0  0  0  0  0  0  0  0
  125.7856  135.4295  158.6228 C   0  0  0  0  0  0  0  0  0  0  0  0
  124.0500  134.6271  156.3005 H   0  0  0  0  0  0  0  0  0  0  0  0
  123.5272  135.9450  157.3766 H   0  0  0  0  0  0  0  0  0  0  0  0
  124.2454  136.3217  155.7921 H   0  0  0  0  0  0  0  0  0  0  0  0
  126.6384  136.1236  155.4339 H   0  0  0  0  0  0  0  0  0  0  0  0
  128.8762  136.1727  156.4600 H   0  0  0  0  0  0  0  0  0  0  0  0
  128.8184  136.6073  160.8974 H   0  0  0  0  0  0  0  0  0  0  0  0
  129.3464  137.8032  159.6895 H   0  0  0  0  0  0  0  0  0  0  0  0
  135.2630  136.0191  162.1302 H   0  0  0  0  0  0  0  0  0  0  0  0
  136.5848  135.0535  163.9666 H   0  0  0  0  0  0  0  0  0  0  0  0
  135.4758  134.3430  166.0446 H   0  0  0  0  0  0  0  0  0  0  0  0
  133.0421  134.5984  166.2993 H   0  0  0  0  0  0  0  0  0  0  0  0
  131.7053  135.5658  164.4747 H   0  0  0  0  0  0  0  0  0  0  0  0
  134.0142  137.7923  161.1151 H   0  0  0  0  0  0  0  0  0  0  0  0
  129.9936  134.3795  160.5976 H   0  0  0  0  0  0  0  0  0  0  0  0
  129.4866  130.1569  158.1590 H   0  0  0  0  0  0  0  0  0  0  0  0
  129.7828  133.3780  154.8412 H   0  0  0  0  0  0  0  0  0  0  0  0
  130.2718  132.5993  152.5606 H   0  0  0  0  0  0  0  0  0  0  0  0
  131.4953  129.3041  151.7494 H   0  0  0  0  0  0  0  0  0  0  0  0
  131.0279  130.7990  151.1414 H   0  0  0  0  0  0  0  0  0  0  0  0
  131.4606  128.7927  154.1082 H   0  0  0  0  0  0  0  0  0  0  0  0
  130.9843  129.5684  156.3924 H   0  0  0  0  0  0  0  0  0  0  0  0
  127.1565  135.2601  160.2546 H   0  0  0  0  0  0  0  0  0  0  0  0
  124.9176  135.2201  159.2304 H   0  0  0  0  0  0  0  0  0  0  0  0
  1  2  1  0
  1 38  1  0
  1 39  1  0
  1 40  1  0
  2 37  2  0
  2  3  1  0
  3  4  2  0
  3 41  1  0
  4  5  1  0
  4 42  1  0
  5  6  1  0
  5 36  2  0
  6  7  1  6
  6  8  1  0
  6 21  1  0
  8  9  1  0
  8 43  1  0
  8 44  1  0
  9 19  1  0
  9 10  2  0
 10 11  1  0
 11 12  1  0
 11 18  2  0
 12 17  1  0
 12 13  2  0
 13 14  1  0
 13 45  1  0
 14 15  2  0
 14 46  1  0
 15 16  1  0
 15 47  1  0
 16 17  2  0
 16 48  1  0
 17 49  1  0
 18 19  1  0
 18 50  1  0
 19 20  1  0
 21 51  1  0
 22 21  1  0
 22 34  2  0
 22 23  1  0
 23 24  1  0
 23 25  1  0
 25 26  2  0
 25 52  1  0
 26 27  1  0
 26 34  1  0
 27 33  1  0
 27 28  2  0
 28 29  1  0
 28 53  1  0
 29 30  2  0
 29 54  1  0
 30 31  1  0
 30 32  1  0
 31 55  1  0
 31 56  1  0
 32 33  2  0
 32 57  1  0
 33 58  1  0
 34 35  1  0
 36 37  1  0
 36 59  1  0
 37 60  1  0
M  CHG  1  34   1
M  END
>  <DOCK_score>  (1) 
-58.952576

>  <SMILES>  (1) 
Cc1ccc([C@@H](Cc2nc(-c3ccccc3)c[nH]2)Nc2[nH]cc(-c3ccc(N)cc3)[nH+]2)cc1

$$$$
