C1=CCC([NH2+]Cc2c[nH]nc2-c2ccc(Nc3nc4ccccc4[nH]3)o2)C1
     RDKit          3D

 48 52  0  0  1  0  0  0  0  0999 V2000
  129.6032  139.7551  161.7089 C   0  0  0  0  0  0  0  0  0  0  0  0
  130.1198  140.4314  160.7192 C   0  0  0  0  0  0  0  0  0  0  0  0
  130.8064  139.5146  159.7336 C   0  0  0  0  0  0  0  0  0  0  0  0
  130.9898  138.1828  160.4976 C   0  0  0  0  0  0  0  0  0  0  0  0
  130.7899  137.0319  159.6069 N   0  0  0  0  0  0  0  0  0  0  0  0
  131.4614  137.0682  158.8547 H   0  0  0  0  0  0  0  0  0  0  0  0
  129.8561  137.0600  159.2258 H   0  0  0  0  0  0  0  0  0  0  0  0
  130.9718  135.7877  160.3662 C   0  0  0  0  0  0  0  0  0  0  0  0
  130.7667  134.6070  159.4523 C   0  0  0  0  0  0  0  0  0  0  0  0
  131.7215  133.9901  158.7237 C   0  0  0  0  0  0  0  0  0  0  0  0
  131.1391  132.9822  158.0387 N   0  0  0  0  0  0  0  0  0  0  0  0
  131.5884  132.3712  157.4341 H   0  0  0  0  0  0  0  0  0  0  0  0
  129.7749  132.9683  158.3566 N   0  0  0  0  0  0  0  0  0  0  0  0
  129.5428  133.9504  159.2053 C   0  0  0  0  0  0  0  0  0  0  0  0
  128.2341  134.2976  159.7971 C   0  0  0  0  0  0  0  0  0  0  0  0
  127.0573  133.6613  159.5562 C   0  0  0  0  0  0  0  0  0  0  0  0
  126.0756  134.3132  160.3277 C   0  0  0  0  0  0  0  0  0  0  0  0
  126.6977  135.3182  160.9927 C   0  0  0  0  0  0  0  0  0  0  0  0
  126.0890  136.2134  161.8668 N   0  0  0  0  0  0  0  0  0  0  0  0
  126.8085  136.7530  162.9136 C   0  0  0  0  0  0  0  0  0  0  0  0
  128.0650  136.4927  163.1763 N   0  0  0  0  0  0  0  0  0  0  0  0
  128.4560  137.1916  164.2739 C   0  0  0  0  0  0  0  0  0  0  0  0
  129.6620  137.2850  164.9732 C   0  0  0  0  0  0  0  0  0  0  0  0
  129.7518  138.1056  166.0751 C   0  0  0  0  0  0  0  0  0  0  0  0
  128.6522  138.8362  166.5001 C   0  0  0  0  0  0  0  0  0  0  0  0
  127.4525  138.7505  165.8244 C   0  0  0  0  0  0  0  0  0  0  0  0
  127.3438  137.9291  164.7125 C   0  0  0  0  0  0  0  0  0  0  0  0
  126.3130  137.6286  163.8377 N   0  0  0  0  0  0  0  0  0  0  0  0
  125.4102  137.9822  163.8690 H   0  0  0  0  0  0  0  0  0  0  0  0
  128.0023  135.3002  160.6697 O   0  0  0  0  0  0  0  0  0  0  0  0
  129.8591  138.2746  161.5484 C   0  0  0  0  0  0  0  0  0  0  0  0
  129.0640  140.1959  162.5344 H   0  0  0  0  0  0  0  0  0  0  0  0
  130.0639  141.5052  160.6182 H   0  0  0  0  0  0  0  0  0  0  0  0
  131.7746  139.9238  159.4455 H   0  0  0  0  0  0  0  0  0  0  0  0
  130.1813  139.3644  158.8533 H   0  0  0  0  0  0  0  0  0  0  0  0
  131.9677  138.1384  160.9772 H   0  0  0  0  0  0  0  0  0  0  0  0
  130.2464  135.7485  161.1788 H   0  0  0  0  0  0  0  0  0  0  0  0
  131.9805  135.7574  160.7780 H   0  0  0  0  0  0  0  0  0  0  0  0
  132.7680  134.2556  158.6943 H   0  0  0  0  0  0  0  0  0  0  0  0
  126.9050  132.8157  158.9017 H   0  0  0  0  0  0  0  0  0  0  0  0
  125.0264  134.0620  160.3781 H   0  0  0  0  0  0  0  0  0  0  0  0
  125.1590  136.4584  161.7403 H   0  0  0  0  0  0  0  0  0  0  0  0
  130.5223  136.7188  164.6478 H   0  0  0  0  0  0  0  0  0  0  0  0
  130.6856  138.1810  166.6125 H   0  0  0  0  0  0  0  0  0  0  0  0
  128.7355  139.4764  167.3660 H   0  0  0  0  0  0  0  0  0  0  0  0
  126.5998  139.3214  166.1608 H   0  0  0  0  0  0  0  0  0  0  0  0
  128.9627  137.7713  161.1864 H   0  0  0  0  0  0  0  0  0  0  0  0
  130.1835  137.8406  162.4943 H   0  0  0  0  0  0  0  0  0  0  0  0
  1 31  1  0
  1  2  2  0
  1 32  1  0
  2  3  1  0
  2 33  1  0
  3  4  1  0
  3 34  1  0
  3 35  1  0
  4  5  1  0
  4 31  1  0
  4 36  1  0
  5  6  1  0
  5  7  1  0
  5  8  1  0
  8  9  1  0
  8 37  1  0
  8 38  1  0
  9 14  1  0
  9 10  2  0
 10 11  1  0
 10 39  1  0
 11 12  1  0
 11 13  1  0
 13 14  2  0
 14 15  1  0
 15 30  1  0
 15 16  2  0
 16 17  1  0
 16 40  1  0
 17 18  2  0
 17 41  1  0
 18 19  1  0
 18 30  1  0
 19 20  1  0
 19 42  1  0
 20 28  1  0
 20 21  2  0
 21 22  1  0
 22 27  2  0
 22 23  1  0
 23 24  2  0
 23 43  1  0
 24 25  1  0
 24 44  1  0
 25 26  2  0
 25 45  1  0
 26 27  1  0
 26 46  1  0
 27 28  1  0
 28 29  1  0
 31 47  1  0
 31 48  1  0
M  CHG  1   5   1
M  END
>  <DOCK_score>  (1) 
-44.429726

>  <SMILES>  (1) 
C1=CCC([NH2+]Cc2c[nH]nc2-c2ccc(Nc3nc4ccccc4[nH]3)o2)C1

$$$$
