Cc1ccc2c(c1)C[C@@H]([NH+]=C(NC1CCCCC1)N[C@H]1CCC(=O)NC1)CO2
     RDKit          3D

 61 64  0  0  1  0  0  0  0  0999 V2000
  135.1600  138.5502  164.6691 C   0  0  0  0  0  0  0  0  0  0  0  0
  134.7722  137.3062  163.9119 C   0  0  0  0  0  0  0  0  0  0  0  0
  135.3236  136.0860  164.2575 C   0  0  0  0  0  0  0  0  0  0  0  0
  134.9664  134.9477  163.5648 C   0  0  0  0  0  0  0  0  0  0  0  0
  134.0526  135.0226  162.5182 C   0  0  0  0  0  0  0  0  0  0  0  0
  133.5045  136.2453  162.1728 C   0  0  0  0  0  0  0  0  0  0  0  0
  133.8658  137.3846  162.8728 C   0  0  0  0  0  0  0  0  0  0  0  0
  132.5149  136.3715  161.0425 C   0  0  0  0  0  0  0  0  0  0  0  0
  131.9316  134.9955  160.7116 C   0  0  1  0  0  0  0  0  0  0  0  0
  131.2582  134.6806  161.5089 H   0  0  0  0  0  0  0  0  0  0  0  0
  131.1998  135.0610  159.4444 N   0  0  0  0  0  0  0  0  0  0  0  0
  131.6607  135.3192  158.6309 H   0  0  0  0  0  0  0  0  0  0  0  0
  129.9292  134.7724  159.4099 C   0  0  0  0  0  0  0  0  0  0  0  0
  129.3771  134.2347  158.2713 N   0  0  0  0  0  0  0  0  0  0  0  0
  130.1917  133.3975  157.3870 C   0  0  0  0  0  0  0  0  0  0  0  0
  129.6924  133.5394  155.9478 C   0  0  0  0  0  0  0  0  0  0  0  0
  130.5432  132.6651  155.0244 C   0  0  0  0  0  0  0  0  0  0  0  0
  130.4318  131.2029  155.4611 C   0  0  0  0  0  0  0  0  0  0  0  0
  130.9311  131.0612  156.9005 C   0  0  0  0  0  0  0  0  0  0  0  0
  130.0802  131.9354  157.8237 C   0  0  0  0  0  0  0  0  0  0  0  0
  129.1411  135.0056  160.5119 N   0  0  0  0  0  0  0  0  0  0  0  0
  127.7130  134.6812  160.4731 C   0  0  1  0  0  0  0  0  0  0  0  0
  127.3420  134.7846  159.4534 H   0  0  0  0  0  0  0  0  0  0  0  0
  127.4992  133.2411  160.9548 C   0  0  0  0  0  0  0  0  0  0  0  0
  126.0310  132.8701  160.7366 C   0  0  0  0  0  0  0  0  0  0  0  0
  125.1416  133.9520  161.2786 C   0  0  0  0  0  0  0  0  0  0  0  0
  123.9753  133.6883  161.4818 O   0  0  0  0  0  0  0  0  0  0  0  0
  125.5655  135.1874  161.5480 N   0  0  0  0  0  0  0  0  0  0  0  0
  126.9463  135.6289  161.3965 C   0  0  0  0  0  0  0  0  0  0  0  0
  133.0900  133.9971  160.5889 C   0  0  0  0  0  0  0  0  0  0  0  0
  133.7196  133.8788  161.8654 O   0  0  0  0  0  0  0  0  0  0  0  0
  134.4828  138.6884  165.5119 H   0  0  0  0  0  0  0  0  0  0  0  0
  136.1813  138.4484  165.0365 H   0  0  0  0  0  0  0  0  0  0  0  0
  135.0966  139.4134  164.0066 H   0  0  0  0  0  0  0  0  0  0  0  0
  136.0337  136.0244  165.0690 H   0  0  0  0  0  0  0  0  0  0  0  0
  135.3976  133.9951  163.8356 H   0  0  0  0  0  0  0  0  0  0  0  0
  133.4369  138.3387  162.6045 H   0  0  0  0  0  0  0  0  0  0  0  0
  133.0182  136.7732  160.1630 H   0  0  0  0  0  0  0  0  0  0  0  0
  131.7105  137.0447  161.3389 H   0  0  0  0  0  0  0  0  0  0  0  0
  128.4482  134.4097  158.0534 H   0  0  0  0  0  0  0  0  0  0  0  0
  131.2328  133.7153  157.4435 H   0  0  0  0  0  0  0  0  0  0  0  0
  129.7717  134.5810  155.6366 H   0  0  0  0  0  0  0  0  0  0  0  0
  128.6512  133.2217  155.8914 H   0  0  0  0  0  0  0  0  0  0  0  0
  130.1875  132.7661  153.9990 H   0  0  0  0  0  0  0  0  0  0  0  0
  131.5844  132.9828  155.0807 H   0  0  0  0  0  0  0  0  0  0  0  0
  129.3907  130.8852  155.4047 H   0  0  0  0  0  0  0  0  0  0  0  0
  131.0378  130.5801  154.8032 H   0  0  0  0  0  0  0  0  0  0  0  0
  131.9722  131.3788  156.9567 H   0  0  0  0  0  0  0  0  0  0  0  0
  130.8517  130.0195  157.2114 H   0  0  0  0  0  0  0  0  0  0  0  0
  130.4361  131.8343  158.8492 H   0  0  0  0  0  0  0  0  0  0  0  0
  129.0392  131.6176  157.7674 H   0  0  0  0  0  0  0  0  0  0  0  0
  129.5305  135.3849  161.3152 H   0  0  0  0  0  0  0  0  0  0  0  0
  128.1391  132.5655  160.3870 H   0  0  0  0  0  0  0  0  0  0  0  0
  127.7390  133.1696  162.0156 H   0  0  0  0  0  0  0  0  0  0  0  0
  125.8138  131.9326  161.2485 H   0  0  0  0  0  0  0  0  0  0  0  0
  125.8465  132.7508  159.6689 H   0  0  0  0  0  0  0  0  0  0  0  0
  124.9142  135.8324  161.8650 H   0  0  0  0  0  0  0  0  0  0  0  0
  127.4280  135.6473  162.3741 H   0  0  0  0  0  0  0  0  0  0  0  0
  126.9559  136.6324  160.9712 H   0  0  0  0  0  0  0  0  0  0  0  0
  132.7060  133.0260  160.2767 H   0  0  0  0  0  0  0  0  0  0  0  0
  133.8113  134.3602  159.8568 H   0  0  0  0  0  0  0  0  0  0  0  0
  1  2  1  0
  1 32  1  0
  1 33  1  0
  1 34  1  0
  2  7  2  0
  2  3  1  0
  3  4  2  0
  3 35  1  0
  4  5  1  0
  4 36  1  0
  5 31  1  0
  5  6  2  0
  6  7  1  0
  6  8  1  0
  7 37  1  0
  8  9  1  0
  8 38  1  0
  8 39  1  0
  9 10  1  1
  9 11  1  0
  9 30  1  0
 11 12  1  0
 13 11  2  0
 13 14  1  0
 13 21  1  0
 14 15  1  0
 14 40  1  0
 15 20  1  0
 15 16  1  0
 15 41  1  0
 16 17  1  0
 16 42  1  0
 16 43  1  0
 17 18  1  0
 17 44  1  0
 17 45  1  0
 18 19  1  0
 18 46  1  0
 18 47  1  0
 19 20  1  0
 19 48  1  0
 19 49  1  0
 20 50  1  0
 20 51  1  0
 21 22  1  0
 21 52  1  0
 22 23  1  6
 22 29  1  0
 22 24  1  0
 24 25  1  0
 24 53  1  0
 24 54  1  0
 25 26  1  0
 25 55  1  0
 25 56  1  0
 26 27  2  0
 26 28  1  0
 28 29  1  0
 28 57  1  0
 29 58  1  0
 29 59  1  0
 30 31  1  0
 30 60  1  0
 30 61  1  0
M  CHG  1  11   1
M  END
>  <DOCK_score>  (1) 
-47.991959

>  <SMILES>  (1) 
Cc1ccc2c(c1)C[C@@H]([NH+]=C(NC1CCCCC1)N[C@H]1CCC(=O)NC1)CO2

$$$$
