c1ccc(C(Nc2[nH]cc(-c3ccc([C@@H]4CCOC4)cc3)[nH+]2)c2ccccc2)cc1
     RDKit          3D

 56 60  0  0  1  0  0  0  0  0999 V2000
  131.5298  139.5648  161.8363 C   0  0  0  0  0  0  0  0  0  0  0  0
  132.3152  138.4574  162.0935 C   0  0  0  0  0  0  0  0  0  0  0  0
  131.8947  137.2033  161.6918 C   0  0  0  0  0  0  0  0  0  0  0  0
  130.6886  137.0569  161.0324 C   0  0  0  0  0  0  0  0  0  0  0  0
  130.2304  135.6898  160.5941 C   0  0  0  0  0  0  0  0  0  0  0  0
  130.7284  135.4176  159.2436 N   0  0  0  0  0  0  0  0  0  0  0  0
  130.4330  134.2141  158.6264 C   0  0  0  0  0  0  0  0  0  0  0  0
  129.6932  133.2072  159.1658 N   0  0  0  0  0  0  0  0  0  0  0  0
  129.2814  133.2038  160.0439 H   0  0  0  0  0  0  0  0  0  0  0  0
  129.6369  132.1969  158.2368 C   0  0  0  0  0  0  0  0  0  0  0  0
  130.3432  132.6149  157.1573 C   0  0  0  0  0  0  0  0  0  0  0  0
  130.5571  131.8503  155.9044 C   0  0  0  0  0  0  0  0  0  0  0  0
  130.1117  132.3630  154.6873 C   0  0  0  0  0  0  0  0  0  0  0  0
  130.3178  131.6494  153.5242 C   0  0  0  0  0  0  0  0  0  0  0  0
  130.9556  130.4226  153.5660 C   0  0  0  0  0  0  0  0  0  0  0  0
  131.1729  129.6457  152.2931 C   0  0  2  0  0  0  0  0  0  0  0  0
  132.1273  129.9089  151.8371 H   0  0  0  0  0  0  0  0  0  0  0  0
  130.0057  129.8723  151.3016 C   0  0  0  0  0  0  0  0  0  0  0  0
  129.7450  128.4776  150.7002 C   0  0  0  0  0  0  0  0  0  0  0  0
  130.7126  127.5793  151.2689 O   0  0  0  0  0  0  0  0  0  0  0  0
  131.0857  128.1205  152.5544 C   0  0  0  0  0  0  0  0  0  0  0  0
  131.3951  129.9065  154.7718 C   0  0  0  0  0  0  0  0  0  0  0  0
  131.1991  130.6137  155.9406 C   0  0  0  0  0  0  0  0  0  0  0  0
  130.8197  133.8565  157.4261 N   0  0  0  0  0  0  0  0  0  0  0  0
  131.3632  134.3923  156.8274 H   0  0  0  0  0  0  0  0  0  0  0  0
  128.7242  135.6412  160.5933 C   0  0  0  0  0  0  0  0  0  0  0  0
  128.0448  135.2447  161.7299 C   0  0  0  0  0  0  0  0  0  0  0  0
  126.6630  135.2047  161.7307 C   0  0  0  0  0  0  0  0  0  0  0  0
  125.9610  135.5513  160.5915 C   0  0  0  0  0  0  0  0  0  0  0  0
  126.6405  135.9429  159.4530 C   0  0  0  0  0  0  0  0  0  0  0  0
  128.0221  135.9878  159.4539 C   0  0  0  0  0  0  0  0  0  0  0  0
  129.9053  138.1654  160.7700 C   0  0  0  0  0  0  0  0  0  0  0  0
  130.3234  139.4188  161.1763 C   0  0  0  0  0  0  0  0  0  0  0  0
  131.8581  140.5450  162.1492 H   0  0  0  0  0  0  0  0  0  0  0  0
  133.2576  138.5717  162.6083 H   0  0  0  0  0  0  0  0  0  0  0  0
  132.5087  136.3377  161.8929 H   0  0  0  0  0  0  0  0  0  0  0  0
  130.6179  134.9388  161.2825 H   0  0  0  0  0  0  0  0  0  0  0  0
  131.2653  136.0806  158.7818 H   0  0  0  0  0  0  0  0  0  0  0  0
  129.1276  131.2507  158.3453 H   0  0  0  0  0  0  0  0  0  0  0  0
  129.6102  133.3189  154.6539 H   0  0  0  0  0  0  0  0  0  0  0  0
  129.9768  132.0476  152.5799 H   0  0  0  0  0  0  0  0  0  0  0  0
  129.1219  130.2319  151.8285 H   0  0  0  0  0  0  0  0  0  0  0  0
  130.2985  130.5752  150.5218 H   0  0  0  0  0  0  0  0  0  0  0  0
  128.7380  128.1468  150.9543 H   0  0  0  0  0  0  0  0  0  0  0  0
  129.8636  128.5128  149.6173 H   0  0  0  0  0  0  0  0  0  0  0  0
  132.0530  127.7292  152.8695 H   0  0  0  0  0  0  0  0  0  0  0  0
  130.3207  127.9018  153.2995 H   0  0  0  0  0  0  0  0  0  0  0  0
  131.8927  128.9483  154.7986 H   0  0  0  0  0  0  0  0  0  0  0  0
  131.5430  130.2099  156.8814 H   0  0  0  0  0  0  0  0  0  0  0  0
  128.5935  134.9696  162.6186 H   0  0  0  0  0  0  0  0  0  0  0  0
  126.1321  134.8984  162.6198 H   0  0  0  0  0  0  0  0  0  0  0  0
  124.8816  135.5159  160.5907 H   0  0  0  0  0  0  0  0  0  0  0  0
  126.0920  136.2133  158.5630 H   0  0  0  0  0  0  0  0  0  0  0  0
  128.5531  136.2934  158.5646 H   0  0  0  0  0  0  0  0  0  0  0  0
  128.9651  138.0517  160.2510 H   0  0  0  0  0  0  0  0  0  0  0  0
  129.7097  140.2844  160.9747 H   0  0  0  0  0  0  0  0  0  0  0  0
  1 33  2  0
  1  2  1  0
  1 34  1  0
  2  3  2  0
  2 35  1  0
  3  4  1  0
  3 36  1  0
  4  5  1  0
  4 32  2  0
  5  6  1  0
  5 26  1  0
  5 37  1  0
  6 38  1  0
  7  6  1  0
  7 24  2  0
  7  8  1  0
  8  9  1  0
  8 10  1  0
 10 11  2  0
 10 39  1  0
 11 12  1  0
 11 24  1  0
 12 23  1  0
 12 13  2  0
 13 14  1  0
 13 40  1  0
 14 15  2  0
 14 41  1  0
 15 16  1  0
 15 22  1  0
 16 17  1  6
 16 21  1  0
 16 18  1  0
 18 19  1  0
 18 42  1  0
 18 43  1  0
 19 20  1  0
 19 44  1  0
 19 45  1  0
 20 21  1  0
 21 46  1  0
 21 47  1  0
 22 23  2  0
 22 48  1  0
 23 49  1  0
 24 25  1  0
 26 31  1  0
 26 27  2  0
 27 28  1  0
 27 50  1  0
 28 29  2  0
 28 51  1  0
 29 30  1  0
 29 52  1  0
 30 31  2  0
 30 53  1  0
 31 54  1  0
 32 33  1  0
 32 55  1  0
 33 56  1  0
M  CHG  1  24   1
M  END
>  <DOCK_score>  (1) 
-58.817699

>  <SMILES>  (1) 
c1ccc(C(Nc2[nH]cc(-c3ccc([C@@H]4CCOC4)cc3)[nH+]2)c2ccccc2)cc1

$$$$
