O=C1CC[C@@H]([NH+]=C(NCC2CC3(CC3)C2)N[C@H]2[C@@H]3CC=CC[C@@H]32)CN1
     RDKit          3D

 56 60  0  0  1  0  0  0  0  0999 V2000
  123.4778  134.7797  162.3706 O   0  0  0  0  0  0  0  0  0  0  0  0
  124.5576  134.5403  161.8729 C   0  0  0  0  0  0  0  0  0  0  0  0
  125.3995  133.4592  162.4875 C   0  0  0  0  0  0  0  0  0  0  0  0
  126.4790  133.0139  161.4978 C   0  0  0  0  0  0  0  0  0  0  0  0
  127.1761  134.2636  160.9466 C   0  0  1  0  0  0  0  0  0  0  0  0
  127.5122  134.8917  161.7717 H   0  0  0  0  0  0  0  0  0  0  0  0
  128.3265  133.8655  160.1317 N   0  0  0  0  0  0  0  0  0  0  0  0
  128.5371  132.9257  160.0160 H   0  0  0  0  0  0  0  0  0  0  0  0
  129.0674  134.7742  159.5620 C   0  0  0  0  0  0  0  0  0  0  0  0
  129.2095  136.0105  160.1463 N   0  0  0  0  0  0  0  0  0  0  0  0
  130.0420  137.0318  159.5060 C   0  0  0  0  0  0  0  0  0  0  0  0
  130.0307  138.3047  160.3550 C   0  0  0  0  0  0  0  0  0  0  0  0
  130.9250  139.4256  159.7961 C   0  0  0  0  0  0  0  0  0  0  0  0
  131.3363  139.7057  161.2456 C   0  0  0  0  0  0  0  0  0  0  0  0
  132.5103  140.5326  161.7580 C   0  0  0  0  0  0  0  0  0  0  0  0
  131.0742  140.9514  162.0847 C   0  0  0  0  0  0  0  0  0  0  0  0
  130.9834  138.2483  161.5623 C   0  0  0  0  0  0  0  0  0  0  0  0
  129.7065  134.4964  158.3769 N   0  0  0  0  0  0  0  0  0  0  0  0
  129.5550  133.1790  157.7543 C   0  0  1  0  0  0  0  0  0  0  0  0
  128.5351  132.8981  157.4918 H   0  0  0  0  0  0  0  0  0  0  0  0
  130.6775  132.7019  156.8306 C   0  0  2  0  0  0  0  0  0  0  0  0
  131.5302  133.3622  156.6726 H   0  0  0  0  0  0  0  0  0  0  0  0
  130.2768  131.8052  155.6484 C   0  0  0  0  0  0  0  0  0  0  0  0
  130.7708  130.4052  155.9194 C   0  0  0  0  0  0  0  0  0  0  0  0
  130.6163  129.8643  157.1023 C   0  0  0  0  0  0  0  0  0  0  0  0
  129.9410  130.6324  158.2120 C   0  0  0  0  0  0  0  0  0  0  0  0
  130.4953  132.0659  158.2209 C   0  0  2  0  0  0  0  0  0  0  0  0
  131.2258  132.2996  158.9954 H   0  0  0  0  0  0  0  0  0  0  0  0
  126.1801  135.0395  160.0839 C   0  0  0  0  0  0  0  0  0  0  0  0
  124.9336  135.2509  160.8089 N   0  0  0  0  0  0  0  0  0  0  0  0
  125.8728  133.8396  163.3927 H   0  0  0  0  0  0  0  0  0  0  0  0
  124.7673  132.6083  162.7411 H   0  0  0  0  0  0  0  0  0  0  0  0
  126.0206  132.4585  160.6796 H   0  0  0  0  0  0  0  0  0  0  0  0
  127.2066  132.3827  162.0080 H   0  0  0  0  0  0  0  0  0  0  0  0
  128.7584  136.2066  160.9824 H   0  0  0  0  0  0  0  0  0  0  0  0
  131.0641  136.6638  159.4166 H   0  0  0  0  0  0  0  0  0  0  0  0
  129.6474  137.2531  158.5144 H   0  0  0  0  0  0  0  0  0  0  0  0
  129.0234  138.6347  160.6092 H   0  0  0  0  0  0  0  0  0  0  0  0
  131.7419  139.0629  159.1721 H   0  0  0  0  0  0  0  0  0  0  0  0
  130.3675  140.2406  159.3345 H   0  0  0  0  0  0  0  0  0  0  0  0
  133.1081  140.1113  162.5662 H   0  0  0  0  0  0  0  0  0  0  0  0
  133.0574  141.1340  161.0320 H   0  0  0  0  0  0  0  0  0  0  0  0
  130.6767  141.8283  161.5735 H   0  0  0  0  0  0  0  0  0  0  0  0
  130.7274  140.8056  163.1076 H   0  0  0  0  0  0  0  0  0  0  0  0
  130.4726  138.1196  162.5165 H   0  0  0  0  0  0  0  0  0  0  0  0
  131.8156  137.5569  161.4304 H   0  0  0  0  0  0  0  0  0  0  0  0
  130.2607  135.1714  157.9550 H   0  0  0  0  0  0  0  0  0  0  0  0
  129.1917  131.7971  155.5462 H   0  0  0  0  0  0  0  0  0  0  0  0
  130.7280  132.1846  154.7317 H   0  0  0  0  0  0  0  0  0  0  0  0
  131.2554  129.8458  155.1329 H   0  0  0  0  0  0  0  0  0  0  0  0
  130.9742  128.8618  157.2846 H   0  0  0  0  0  0  0  0  0  0  0  0
  130.1496  130.1531  159.1685 H   0  0  0  0  0  0  0  0  0  0  0  0
  128.8652  130.6569  158.0386 H   0  0  0  0  0  0  0  0  0  0  0  0
  126.6100  136.0050  159.8172 H   0  0  0  0  0  0  0  0  0  0  0  0
  125.9762  134.4757  159.1736 H   0  0  0  0  0  0  0  0  0  0  0  0
  124.3403  135.9529  160.4984 H   0  0  0  0  0  0  0  0  0  0  0  0
  1  2  2  0
  2 30  1  0
  2  3  1  0
  3  4  1  0
  3 31  1  0
  3 32  1  0
  4  5  1  0
  4 33  1  0
  4 34  1  0
  5  6  1  1
  5  7  1  0
  5 29  1  0
  7  8  1  0
  9  7  2  0
  9 10  1  0
  9 18  1  0
 10 11  1  0
 10 35  1  0
 11 12  1  0
 11 36  1  0
 11 37  1  0
 12 17  1  0
 12 13  1  0
 12 38  1  0
 13 14  1  0
 13 39  1  0
 13 40  1  0
 14 16  1  0
 14 15  1  0
 14 17  1  0
 15 16  1  0
 15 41  1  0
 15 42  1  0
 16 43  1  0
 16 44  1  0
 17 45  1  0
 17 46  1  0
 18 19  1  0
 18 47  1  0
 19 20  1  6
 19 27  1  0
 19 21  1  0
 21 22  1  6
 21 27  1  0
 21 23  1  0
 23 24  1  0
 23 48  1  0
 23 49  1  0
 24 25  2  0
 24 50  1  0
 25 26  1  0
 25 51  1  0
 26 27  1  0
 26 52  1  0
 26 53  1  0
 27 28  1  1
 29 30  1  0
 29 54  1  0
 29 55  1  0
 30 56  1  0
M  CHG  1   7   1
M  END
>  <DOCK_score>  (1) 
-45.440342

>  <SMILES>  (1) 
O=C1CC[C@@H]([NH+]=C(NCC2CC3(CC3)C2)N[C@H]2[C@@H]3CC=CC[C@@H]32)CN1

$$$$
