Brc1ccc(-c2c[nH]c(N[C@@H](c3ccccc3)c3ccccc3Br)[nH+]2)cc1
     RDKit          3D

 45 48  0  0  1  0  0  0  0  0999 V2000
  130.6661  129.2886  150.4699 Br  0  0  0  0  0  0  0  0  0  0  0  0
  130.6364  130.0685  152.1922 C   0  0  0  0  0  0  0  0  0  0  0  0
  129.9573  131.2575  152.3989 C   0  0  0  0  0  0  0  0  0  0  0  0
  129.9327  131.8315  153.6535 C   0  0  0  0  0  0  0  0  0  0  0  0
  130.5927  131.2122  154.7135 C   0  0  0  0  0  0  0  0  0  0  0  0
  130.5700  131.8250  156.0642 C   0  0  0  0  0  0  0  0  0  0  0  0
  130.0693  131.2578  157.1896 C   0  0  0  0  0  0  0  0  0  0  0  0
  130.2505  132.1632  158.2068 N   0  0  0  0  0  0  0  0  0  0  0  0
  129.9938  132.0439  159.1346 H   0  0  0  0  0  0  0  0  0  0  0  0
  130.8572  133.2580  157.6727 C   0  0  0  0  0  0  0  0  0  0  0  0
  131.2147  134.4011  158.3671 N   0  0  0  0  0  0  0  0  0  0  0  0
  130.9427  134.5008  159.8032 C   0  0  1  0  0  0  0  0  0  0  0  0
  131.1475  133.5419  160.2793 H   0  0  0  0  0  0  0  0  0  0  0  0
  131.8253  135.5612  160.4093 C   0  0  0  0  0  0  0  0  0  0  0  0
  133.0690  135.2226  160.9089 C   0  0  0  0  0  0  0  0  0  0  0  0
  133.8804  136.1961  161.4613 C   0  0  0  0  0  0  0  0  0  0  0  0
  133.4445  137.5065  161.5219 C   0  0  0  0  0  0  0  0  0  0  0  0
  132.1989  137.8442  161.0268 C   0  0  0  0  0  0  0  0  0  0  0  0
  131.3891  136.8715  160.4707 C   0  0  0  0  0  0  0  0  0  0  0  0
  129.4969  134.8687  160.0162 C   0  0  0  0  0  0  0  0  0  0  0  0
  128.8321  135.6324  159.0751 C   0  0  0  0  0  0  0  0  0  0  0  0
  127.5059  135.9695  159.2701 C   0  0  0  0  0  0  0  0  0  0  0  0
  126.8438  135.5435  160.4067 C   0  0  0  0  0  0  0  0  0  0  0  0
  127.5076  134.7800  161.3481 C   0  0  0  0  0  0  0  0  0  0  0  0
  128.8335  134.4375  161.1506 C   0  0  0  0  0  0  0  0  0  0  0  0
  129.7404  133.3869  162.4348 Br  0  0  0  0  0  0  0  0  0  0  0  0
  131.0420  133.0542  156.3913 N   0  0  0  0  0  0  0  0  0  0  0  0
  131.4525  133.6813  155.7754 H   0  0  0  0  0  0  0  0  0  0  0  0
  131.2789  130.0181  154.4988 C   0  0  0  0  0  0  0  0  0  0  0  0
  131.2928  129.4498  153.2413 C   0  0  0  0  0  0  0  0  0  0  0  0
  129.4462  131.7365  151.5768 H   0  0  0  0  0  0  0  0  0  0  0  0
  129.4028  132.7587  153.8139 H   0  0  0  0  0  0  0  0  0  0  0  0
  129.6147  130.2815  157.2704 H   0  0  0  0  0  0  0  0  0  0  0  0
  131.6418  135.1374  157.9020 H   0  0  0  0  0  0  0  0  0  0  0  0
  133.4080  134.1982  160.8649 H   0  0  0  0  0  0  0  0  0  0  0  0
  134.8535  135.9321  161.8485 H   0  0  0  0  0  0  0  0  0  0  0  0
  134.0770  138.2663  161.9566 H   0  0  0  0  0  0  0  0  0  0  0  0
  131.8583  138.8679  161.0744 H   0  0  0  0  0  0  0  0  0  0  0  0
  130.4159  137.1352  160.0842 H   0  0  0  0  0  0  0  0  0  0  0  0
  129.3490  135.9660  158.1874 H   0  0  0  0  0  0  0  0  0  0  0  0
  126.9867  136.5662  158.5347 H   0  0  0  0  0  0  0  0  0  0  0  0
  125.8077  135.8078  160.5591 H   0  0  0  0  0  0  0  0  0  0  0  0
  126.9903  134.4469  162.2357 H   0  0  0  0  0  0  0  0  0  0  0  0
  131.7953  129.5365  155.3159 H   0  0  0  0  0  0  0  0  0  0  0  0
  131.8210  128.5227  153.0746 H   0  0  0  0  0  0  0  0  0  0  0  0
  1  2  1  0
  2 30  2  0
  2  3  1  0
  3  4  2  0
  3 31  1  0
  4  5  1  0
  4 32  1  0
  5  6  1  0
  5 29  2  0
  6 27  1  0
  6  7  2  0
  7  8  1  0
  7 33  1  0
  8  9  1  0
  8 10  1  0
 10 11  1  0
 10 27  2  0
 11 12  1  0
 11 34  1  0
 12 13  1  1
 12 14  1  0
 12 20  1  0
 14 19  1  0
 14 15  2  0
 15 16  1  0
 15 35  1  0
 16 17  2  0
 16 36  1  0
 17 18  1  0
 17 37  1  0
 18 19  2  0
 18 38  1  0
 19 39  1  0
 20 25  1  0
 20 21  2  0
 21 22  1  0
 21 40  1  0
 22 23  2  0
 22 41  1  0
 23 24  1  0
 23 42  1  0
 24 25  2  0
 24 43  1  0
 25 26  1  0
 27 28  1  0
 29 30  1  0
 29 44  1  0
 30 45  1  0
M  CHG  1  27   1
M  END
>  <DOCK_score>  (1) 
-59.249329

>  <SMILES>  (1) 
Brc1ccc(-c2c[nH]c(N[C@@H](c3ccccc3)c3ccccc3Br)[nH+]2)cc1

$$$$
