Cc1c(Br)cccc1C[NH2+]C[C@@H]1CCC=C1c1cncc(-c2ccccc2)c1
     RDKit          3D

 54 57  0  0  1  0  0  0  0  0999 V2000
  135.1625  137.4222  162.4615 C   0  0  0  0  0  0  0  0  0  0  0  0
  134.9225  138.1833  161.1833 C   0  0  0  0  0  0  0  0  0  0  0  0
  135.8193  139.1555  160.7780 C   0  0  0  0  0  0  0  0  0  0  0  0
  137.3472  139.5293  161.8275 Br  0  0  0  0  0  0  0  0  0  0  0  0
  135.5952  139.8580  159.6079 C   0  0  0  0  0  0  0  0  0  0  0  0
  134.4781  139.5843  158.8409 C   0  0  0  0  0  0  0  0  0  0  0  0
  133.5853  138.6089  159.2432 C   0  0  0  0  0  0  0  0  0  0  0  0
  133.8086  137.9067  160.4131 C   0  0  0  0  0  0  0  0  0  0  0  0
  132.8345  136.8441  160.8519 C   0  0  0  0  0  0  0  0  0  0  0  0
  131.7460  136.7425  159.8706 N   0  0  0  0  0  0  0  0  0  0  0  0
  132.1275  136.4975  158.9693 H   0  0  0  0  0  0  0  0  0  0  0  0
  131.2691  137.6292  159.8044 H   0  0  0  0  0  0  0  0  0  0  0  0
  130.7962  135.7066  160.2983 C   0  0  0  0  0  0  0  0  0  0  0  0
  129.6625  135.6008  159.2763 C   0  0  2  0  0  0  0  0  0  0  0  0
  130.0544  135.6896  158.2632 H   0  0  0  0  0  0  0  0  0  0  0  0
  128.5942  136.6899  159.5364 C   0  0  0  0  0  0  0  0  0  0  0  0
  127.5903  135.9307  160.4339 C   0  0  0  0  0  0  0  0  0  0  0  0
  127.7841  134.4736  160.0837 C   0  0  0  0  0  0  0  0  0  0  0  0
  128.9252  134.2922  159.4422 C   0  0  0  0  0  0  0  0  0  0  0  0
  129.4169  132.9849  158.9580 C   0  0  0  0  0  0  0  0  0  0  0  0
  129.6410  131.9367  159.8525 C   0  0  0  0  0  0  0  0  0  0  0  0
  130.0795  130.7693  159.4282 N   0  0  0  0  0  0  0  0  0  0  0  0
  130.3252  130.5363  158.1546 C   0  0  0  0  0  0  0  0  0  0  0  0
  130.1290  131.5275  157.1945 C   0  0  0  0  0  0  0  0  0  0  0  0
  130.4151  131.2565  155.7637 C   0  0  0  0  0  0  0  0  0  0  0  0
  129.6898  131.9100  154.7696 C   0  0  0  0  0  0  0  0  0  0  0  0
  129.9639  131.6584  153.4405 C   0  0  0  0  0  0  0  0  0  0  0  0
  130.9485  130.7505  153.0947 C   0  0  0  0  0  0  0  0  0  0  0  0
  131.6680  130.0950  154.0774 C   0  0  0  0  0  0  0  0  0  0  0  0
  131.4060  130.3432  155.4096 C   0  0  0  0  0  0  0  0  0  0  0  0
  129.6653  132.7800  157.5984 C   0  0  0  0  0  0  0  0  0  0  0  0
  135.7559  136.5329  162.2491 H   0  0  0  0  0  0  0  0  0  0  0  0
  135.6991  138.0569  163.1669 H   0  0  0  0  0  0  0  0  0  0  0  0
  134.2065  137.1265  162.8935 H   0  0  0  0  0  0  0  0  0  0  0  0
  136.2926  140.6204  159.2936 H   0  0  0  0  0  0  0  0  0  0  0  0
  134.3031  140.1326  157.9269 H   0  0  0  0  0  0  0  0  0  0  0  0
  132.7126  138.3954  158.6439 H   0  0  0  0  0  0  0  0  0  0  0  0
  132.4223  137.1086  161.8256 H   0  0  0  0  0  0  0  0  0  0  0  0
  133.3497  135.8861  160.9235 H   0  0  0  0  0  0  0  0  0  0  0  0
  130.3840  135.9713  161.2721 H   0  0  0  0  0  0  0  0  0  0  0  0
  131.3113  134.7486  160.3700 H   0  0  0  0  0  0  0  0  0  0  0  0
  128.1227  137.0101  158.6072 H   0  0  0  0  0  0  0  0  0  0  0  0
  129.0267  137.5390  160.0656 H   0  0  0  0  0  0  0  0  0  0  0  0
  126.5701  136.2424  160.2098 H   0  0  0  0  0  0  0  0  0  0  0  0
  127.8176  136.1015  161.4861 H   0  0  0  0  0  0  0  0  0  0  0  0
  127.0850  133.6868  160.3253 H   0  0  0  0  0  0  0  0  0  0  0  0
  129.4528  132.0848  160.9055 H   0  0  0  0  0  0  0  0  0  0  0  0
  130.6838  129.5639  157.8506 H   0  0  0  0  0  0  0  0  0  0  0  0
  128.9175  132.6155  155.0387 H   0  0  0  0  0  0  0  0  0  0  0  0
  129.4052  132.1676  152.6693 H   0  0  0  0  0  0  0  0  0  0  0  0
  131.1564  130.5531  152.0534 H   0  0  0  0  0  0  0  0  0  0  0  0
  132.4358  129.3873  153.8018 H   0  0  0  0  0  0  0  0  0  0  0  0
  131.9684  129.8309  156.1762 H   0  0  0  0  0  0  0  0  0  0  0  0
  129.5033  133.5698  156.8797 H   0  0  0  0  0  0  0  0  0  0  0  0
  1  2  1  0
  1 32  1  0
  1 33  1  0
  1 34  1  0
  2  8  2  0
  2  3  1  0
  3  4  1  0
  3  5  2  0
  5  6  1  0
  5 35  1  0
  6  7  2  0
  6 36  1  0
  7  8  1  0
  7 37  1  0
  8  9  1  0
  9 10  1  0
  9 38  1  0
  9 39  1  0
 10 11  1  0
 10 12  1  0
 10 13  1  0
 13 14  1  0
 13 40  1  0
 13 41  1  0
 14 15  1  6
 14 19  1  0
 14 16  1  0
 16 17  1  0
 16 42  1  0
 16 43  1  0
 17 18  1  0
 17 44  1  0
 17 45  1  0
 18 19  2  0
 18 46  1  0
 19 20  1  0
 20 31  1  0
 20 21  2  0
 21 22  1  0
 21 47  1  0
 22 23  2  0
 23 24  1  0
 23 48  1  0
 24 25  1  0
 24 31  2  0
 25 30  1  0
 25 26  2  0
 26 27  1  0
 26 49  1  0
 27 28  2  0
 27 50  1  0
 28 29  1  0
 28 51  1  0
 29 30  2  0
 29 52  1  0
 30 53  1  0
 31 54  1  0
M  CHG  1  10   1
M  END
>  <DOCK_score>  (1) 
-57.727989

>  <SMILES>  (1) 
Cc1c(Br)cccc1C[NH2+]C[C@@H]1CCC=C1c1cncc(-c2ccccc2)c1

$$$$
