Cc1cccc(C2=CC[NH+]([C@@H](C)c3cnn(-c4cnn(Cc5ccccc5)c4)c3)CC2)c1C
     RDKit          3D

 65 69  0  0  1  0  0  0  0  0999 V2000
  132.8593  139.3955  165.1007 C   0  0  0  0  0  0  0  0  0  0  0  0
  133.1685  139.0656  163.6631 C   0  0  0  0  0  0  0  0  0  0  0  0
  134.3691  139.4681  163.1054 C   0  0  0  0  0  0  0  0  0  0  0  0
  134.6606  139.1695  161.7865 C   0  0  0  0  0  0  0  0  0  0  0  0
  133.7540  138.4677  161.0183 C   0  0  0  0  0  0  0  0  0  0  0  0
  132.5414  138.0594  161.5746 C   0  0  0  0  0  0  0  0  0  0  0  0
  131.5660  137.3074  160.7575 C   0  0  0  0  0  0  0  0  0  0  0  0
  130.6619  137.9759  160.0744 C   0  0  0  0  0  0  0  0  0  0  0  0
  129.6246  137.3066  159.2194 C   0  0  0  0  0  0  0  0  0  0  0  0
  130.0227  135.9267  158.9178 N   0  0  2  0  0  0  0  0  0  0  0  0
  130.8363  135.9329  158.3212 H   0  0  0  0  0  0  0  0  0  0  0  0
  128.9198  135.2344  158.2380 C   0  0  1  0  0  0  0  0  0  0  0  0
  128.0427  135.2254  158.8849 H   0  0  0  0  0  0  0  0  0  0  0  0
  128.5854  135.9641  156.9355 C   0  0  0  0  0  0  0  0  0  0  0  0
  129.3306  133.8177  157.9290 C   0  0  0  0  0  0  0  0  0  0  0  0
  129.1489  132.7085  158.7610 C   0  0  0  0  0  0  0  0  0  0  0  0
  129.6320  131.6554  158.1509 N   0  0  0  0  0  0  0  0  0  0  0  0
  130.1372  132.0622  156.9092 N   0  0  0  0  0  0  0  0  0  0  0  0
  130.7435  131.2306  155.9490 C   0  0  0  0  0  0  0  0  0  0  0  0
  131.4755  130.0625  156.2108 C   0  0  0  0  0  0  0  0  0  0  0  0
  131.8782  129.5684  155.0686 N   0  0  0  0  0  0  0  0  0  0  0  0
  131.4133  130.3984  154.0406 N   0  0  0  0  0  0  0  0  0  0  0  0
  131.6374  130.2004  152.6065 C   0  0  0  0  0  0  0  0  0  0  0  0
  130.5211  129.3650  152.0343 C   0  0  0  0  0  0  0  0  0  0  0  0
  130.6355  127.9878  152.0015 C   0  0  0  0  0  0  0  0  0  0  0  0
  129.6095  127.2212  151.4810 C   0  0  0  0  0  0  0  0  0  0  0  0
  128.4737  127.8326  150.9840 C   0  0  0  0  0  0  0  0  0  0  0  0
  128.3616  129.2101  151.0122 C   0  0  0  0  0  0  0  0  0  0  0  0
  129.3853  129.9763  151.5372 C   0  0  0  0  0  0  0  0  0  0  0  0
  130.7244  131.4153  154.6039 C   0  0  0  0  0  0  0  0  0  0  0  0
  129.9447  133.3950  156.7990 C   0  0  0  0  0  0  0  0  0  0  0  0
  130.3379  135.2332  160.1767 C   0  0  0  0  0  0  0  0  0  0  0  0
  131.6430  135.8056  160.7361 C   0  0  0  0  0  0  0  0  0  0  0  0
  132.2510  138.3690  162.9041 C   0  0  0  0  0  0  0  0  0  0  0  0
  130.9411  137.9372  163.5112 C   0  0  0  0  0  0  0  0  0  0  0  0
  132.3511  140.3585  165.1514 H   0  0  0  0  0  0  0  0  0  0  0  0
  132.2156  138.6224  165.5204 H   0  0  0  0  0  0  0  0  0  0  0  0
  133.7875  139.4441  165.6701 H   0  0  0  0  0  0  0  0  0  0  0  0
  135.0819  140.0176  163.7024 H   0  0  0  0  0  0  0  0  0  0  0  0
  135.5994  139.4865  161.3571 H   0  0  0  0  0  0  0  0  0  0  0  0
  133.9828  138.2348  159.9889 H   0  0  0  0  0  0  0  0  0  0  0  0
  130.6660  139.0544  160.1311 H   0  0  0  0  0  0  0  0  0  0  0  0
  129.5127  137.8615  158.2879 H   0  0  0  0  0  0  0  0  0  0  0  0
  128.6715  137.2996  159.7482 H   0  0  0  0  0  0  0  0  0  0  0  0
  129.4625  135.9730  156.2884 H   0  0  0  0  0  0  0  0  0  0  0  0
  127.7669  135.4503  156.4310 H   0  0  0  0  0  0  0  0  0  0  0  0
  128.2883  136.9887  157.1590 H   0  0  0  0  0  0  0  0  0  0  0  0
  128.6889  132.7185  159.7381 H   0  0  0  0  0  0  0  0  0  0  0  0
  131.6718  129.6436  157.1867 H   0  0  0  0  0  0  0  0  0  0  0  0
  131.6607  131.1681  152.1053 H   0  0  0  0  0  0  0  0  0  0  0  0
  132.5882  129.6895  152.4544 H   0  0  0  0  0  0  0  0  0  0  0  0
  131.5249  127.5105  152.3858 H   0  0  0  0  0  0  0  0  0  0  0  0
  129.6973  126.1450  151.4588 H   0  0  0  0  0  0  0  0  0  0  0  0
  127.6741  127.2341  150.5734 H   0  0  0  0  0  0  0  0  0  0  0  0
  127.4743  129.6877  150.6233 H   0  0  0  0  0  0  0  0  0  0  0  0
  129.2978  131.0526  151.5589 H   0  0  0  0  0  0  0  0  0  0  0  0
  130.2417  132.2262  154.0787 H   0  0  0  0  0  0  0  0  0  0  0  0
  130.2282  134.0121  155.9592 H   0  0  0  0  0  0  0  0  0  0  0  0
  129.5321  135.3915  160.8934 H   0  0  0  0  0  0  0  0  0  0  0  0
  130.4579  134.1667  159.9869 H   0  0  0  0  0  0  0  0  0  0  0  0
  132.4757  135.4937  160.1059 H   0  0  0  0  0  0  0  0  0  0  0  0
  131.7966  135.4355  161.7498 H   0  0  0  0  0  0  0  0  0  0  0  0
  131.0554  136.9494  163.9573 H   0  0  0  0  0  0  0  0  0  0  0  0
  130.6441  138.6509  164.2797 H   0  0  0  0  0  0  0  0  0  0  0  0
  130.1762  137.8994  162.7355 H   0  0  0  0  0  0  0  0  0  0  0  0
  1  2  1  0
  1 36  1  0
  1 37  1  0
  1 38  1  0
  2 34  2  0
  2  3  1  0
  3  4  2  0
  3 39  1  0
  4  5  1  0
  4 40  1  0
  5  6  2  0
  5 41  1  0
  6  7  1  0
  6 34  1  0
  7 33  1  0
  7  8  2  0
  8  9  1  0
  8 42  1  0
  9 10  1  0
  9 43  1  0
  9 44  1  0
 10 11  1  6
 10 12  1  0
 10 32  1  0
 12 13  1  1
 12 14  1  0
 12 15  1  0
 14 45  1  0
 14 46  1  0
 14 47  1  0
 15 31  2  0
 15 16  1  0
 16 17  2  0
 16 48  1  0
 17 18  1  0
 18 19  1  0
 18 31  1  0
 19 30  2  0
 19 20  1  0
 20 21  2  0
 20 49  1  0
 21 22  1  0
 22 23  1  0
 22 30  1  0
 23 24  1  0
 23 50  1  0
 23 51  1  0
 24 29  1  0
 24 25  2  0
 25 26  1  0
 25 52  1  0
 26 27  2  0
 26 53  1  0
 27 28  1  0
 27 54  1  0
 28 29  2  0
 28 55  1  0
 29 56  1  0
 30 57  1  0
 31 58  1  0
 32 33  1  0
 32 59  1  0
 32 60  1  0
 33 61  1  0
 33 62  1  0
 34 35  1  0
 35 63  1  0
 35 64  1  0
 35 65  1  0
M  CHG  1  10   1
M  END
>  <DOCK_score>  (1) 
-59.201191

>  <SMILES>  (1) 
Cc1cccc(C2=CC[NH+]([C@@H](C)c3cnn(-c4cnn(Cc5ccccc5)c4)c3)CC2)c1C

$$$$
