FCC[NH+]=C(N[C@@H]1CCO[C@H]1c1ccccc1)N[C@@H]1CCO[C@H]1c1cccnc1
     RDKit          3D

 57 60  0  0  1  0  0  0  0  0999 V2000
  132.5631  135.2921  162.1915 F   0  0  0  0  0  0  0  0  0  0  0  0
  133.1992  135.2437  160.9463 C   0  0  0  0  0  0  0  0  0  0  0  0
  132.6157  134.0958  160.1200 C   0  0  0  0  0  0  0  0  0  0  0  0
  131.1800  134.3139  159.9268 N   0  0  0  0  0  0  0  0  0  0  0  0
  130.7534  135.0987  160.3048 H   0  0  0  0  0  0  0  0  0  0  0  0
  130.4758  133.4532  159.2469 C   0  0  0  0  0  0  0  0  0  0  0  0
  129.1284  133.6579  159.0655 N   0  0  0  0  0  0  0  0  0  0  0  0
  128.3537  134.3768  160.0800 C   0  0  2  0  0  0  0  0  0  0  0  0
  128.9960  134.6776  160.9076 H   0  0  0  0  0  0  0  0  0  0  0  0
  127.1868  133.5022  160.5904 C   0  0  0  0  0  0  0  0  0  0  0  0
  125.9222  134.3114  160.2128 C   0  0  0  0  0  0  0  0  0  0  0  0
  126.3751  135.6793  160.1151 O   0  0  0  0  0  0  0  0  0  0  0  0
  127.6595  135.6089  159.4583 C   0  0  1  0  0  0  0  0  0  0  0  0
  127.5296  135.4700  158.3850 H   0  0  0  0  0  0  0  0  0  0  0  0
  128.4588  136.8562  159.7342 C   0  0  0  0  0  0  0  0  0  0  0  0
  128.2098  137.5989  160.8732 C   0  0  0  0  0  0  0  0  0  0  0  0
  128.9464  138.7406  161.1287 C   0  0  0  0  0  0  0  0  0  0  0  0
  129.9247  139.1451  160.2399 C   0  0  0  0  0  0  0  0  0  0  0  0
  130.1703  138.4053  159.0984 C   0  0  0  0  0  0  0  0  0  0  0  0
  129.4372  137.2608  158.8455 C   0  0  0  0  0  0  0  0  0  0  0  0
  131.0804  132.3409  158.7109 N   0  0  0  0  0  0  0  0  0  0  0  0
  130.2889  131.3736  157.9467 C   0  0  2  0  0  0  0  0  0  0  0  0
  129.4545  131.8688  157.4499 H   0  0  0  0  0  0  0  0  0  0  0  0
  129.7771  130.2441  158.8684 C   0  0  0  0  0  0  0  0  0  0  0  0
  130.4159  128.9646  158.2845 C   0  0  0  0  0  0  0  0  0  0  0  0
  130.6856  129.2846  156.9022 O   0  0  0  0  0  0  0  0  0  0  0  0
  131.1765  130.6428  156.9148 C   0  0  1  0  0  0  0  0  0  0  0  0
  132.2202  130.6662  157.2280 H   0  0  0  0  0  0  0  0  0  0  0  0
  131.0244  131.2682  155.5521 C   0  0  0  0  0  0  0  0  0  0  0  0
  131.1777  130.5016  154.4067 C   0  0  0  0  0  0  0  0  0  0  0  0
  131.0243  131.1183  153.1748 C   0  0  0  0  0  0  0  0  0  0  0  0
  130.7354  132.4694  153.1291 C   0  0  0  0  0  0  0  0  0  0  0  0
  130.6015  133.1683  154.2392 N   0  0  0  0  0  0  0  0  0  0  0  0
  130.7360  132.6138  155.4281 C   0  0  0  0  0  0  0  0  0  0  0  0
  134.2674  135.0815  161.0901 H   0  0  0  0  0  0  0  0  0  0  0  0
  133.0422  136.1858  160.4212 H   0  0  0  0  0  0  0  0  0  0  0  0
  132.7727  133.1536  160.6451 H   0  0  0  0  0  0  0  0  0  0  0  0
  133.1113  134.0580  159.1499 H   0  0  0  0  0  0  0  0  0  0  0  0
  128.6908  133.3262  158.2659 H   0  0  0  0  0  0  0  0  0  0  0  0
  127.1862  132.5349  160.0881 H   0  0  0  0  0  0  0  0  0  0  0  0
  127.2508  133.3725  161.6709 H   0  0  0  0  0  0  0  0  0  0  0  0
  125.1659  134.2168  160.9921 H   0  0  0  0  0  0  0  0  0  0  0  0
  125.5261  133.9734  159.2553 H   0  0  0  0  0  0  0  0  0  0  0  0
  127.4423  137.2854  161.5652 H   0  0  0  0  0  0  0  0  0  0  0  0
  128.7542  139.3188  162.0204 H   0  0  0  0  0  0  0  0  0  0  0  0
  130.4972  140.0394  160.4373 H   0  0  0  0  0  0  0  0  0  0  0  0
  130.9346  138.7215  158.4038 H   0  0  0  0  0  0  0  0  0  0  0  0
  129.6288  136.6830  157.9534 H   0  0  0  0  0  0  0  0  0  0  0  0
  132.0310  132.1965  158.8388 H   0  0  0  0  0  0  0  0  0  0  0  0
  128.6897  130.1809  158.8275 H   0  0  0  0  0  0  0  0  0  0  0  0
  130.1112  130.4042  159.8936 H   0  0  0  0  0  0  0  0  0  0  0  0
  129.7200  128.1283  158.3516 H   0  0  0  0  0  0  0  0  0  0  0  0
  131.3429  128.7286  158.8072 H   0  0  0  0  0  0  0  0  0  0  0  0
  131.4074  129.4484  154.4729 H   0  0  0  0  0  0  0  0  0  0  0  0
  131.1333  130.5513  152.2620 H   0  0  0  0  0  0  0  0  0  0  0  0
  130.6177  132.9579  152.1732 H   0  0  0  0  0  0  0  0  0  0  0  0
  130.6192  133.2186  156.3153 H   0  0  0  0  0  0  0  0  0  0  0  0
  1  2  1  0
  2  3  1  0
  2 35  1  0
  2 36  1  0
  3  4  1  0
  3 37  1  0
  3 38  1  0
  4  5  1  0
  6  4  2  0
  6  7  1  0
  6 21  1  0
  7  8  1  0
  7 39  1  0
  8  9  1  1
  8 13  1  0
  8 10  1  0
 10 11  1  0
 10 40  1  0
 10 41  1  0
 11 12  1  0
 11 42  1  0
 11 43  1  0
 12 13  1  0
 13 14  1  6
 13 15  1  0
 15 20  1  0
 15 16  2  0
 16 17  1  0
 16 44  1  0
 17 18  2  0
 17 45  1  0
 18 19  1  0
 18 46  1  0
 19 20  2  0
 19 47  1  0
 20 48  1  0
 21 22  1  0
 21 49  1  0
 22 23  1  6
 22 27  1  0
 22 24  1  0
 24 25  1  0
 24 50  1  0
 24 51  1  0
 25 26  1  0
 25 52  1  0
 25 53  1  0
 26 27  1  0
 27 28  1  1
 27 29  1  0
 29 34  1  0
 29 30  2  0
 30 31  1  0
 30 54  1  0
 31 32  2  0
 31 55  1  0
 32 33  1  0
 32 56  1  0
 33 34  2  0
 34 57  1  0
M  CHG  1   4   1
M  END
>  <DOCK_score>  (1) 
-41.339291

>  <SMILES>  (1) 
FCC[NH+]=C(N[C@@H]1CCO[C@H]1c1ccccc1)N[C@@H]1CCO[C@H]1c1cccnc1

$$$$
