[NH3+][C@H](Cc1ccccc1Nc1cccc(O)c1)C(=O)Nc1cccc(O)c1
     RDKit          3D

 49 51  0  0  1  0  0  0  0  0999 V2000
  131.2513  134.3722  158.7953 N   0  0  0  0  0  0  0  0  0  0  0  0
  130.8642  134.0229  157.9315 H   0  0  0  0  0  0  0  0  0  0  0  0
  132.0960  134.8887  158.6010 H   0  0  0  0  0  0  0  0  0  0  0  0
  131.4635  133.5978  159.4063 H   0  0  0  0  0  0  0  0  0  0  0  0
  130.2756  135.2566  159.4467 C   0  0  2  0  0  0  0  0  0  0  0  0
  130.0462  136.0931  158.7866 H   0  0  0  0  0  0  0  0  0  0  0  0
  130.8623  135.7863  160.7566 C   0  0  0  0  0  0  0  0  0  0  0  0
  130.1200  137.0300  161.1729 C   0  0  0  0  0  0  0  0  0  0  0  0
  129.0012  136.9308  161.9768 C   0  0  0  0  0  0  0  0  0  0  0  0
  128.3229  138.0718  162.3640 C   0  0  0  0  0  0  0  0  0  0  0  0
  128.7550  139.3150  161.9387 C   0  0  0  0  0  0  0  0  0  0  0  0
  129.8692  139.4209  161.1300 C   0  0  0  0  0  0  0  0  0  0  0  0
  130.5566  138.2769  160.7438 C   0  0  0  0  0  0  0  0  0  0  0  0
  131.6847  138.3803  159.9260 N   0  0  0  0  0  0  0  0  0  0  0  0
  132.7941  139.1128  160.3556 C   0  0  0  0  0  0  0  0  0  0  0  0
  133.6147  139.7419  159.4269 C   0  0  0  0  0  0  0  0  0  0  0  0
  134.7083  140.4704  159.8522 C   0  0  0  0  0  0  0  0  0  0  0  0
  134.9962  140.5663  161.2006 C   0  0  0  0  0  0  0  0  0  0  0  0
  134.1835  139.9359  162.1323 C   0  0  0  0  0  0  0  0  0  0  0  0
  134.4681  140.0313  163.4578 O   0  0  0  0  0  0  0  0  0  0  0  0
  133.0817  139.2086  161.7103 C   0  0  0  0  0  0  0  0  0  0  0  0
  129.0139  134.4852  159.7369 C   0  0  0  0  0  0  0  0  0  0  0  0
  129.0687  133.2940  159.9581 O   0  0  0  0  0  0  0  0  0  0  0  0
  127.8246  135.1192  159.7509 N   0  0  0  0  0  0  0  0  0  0  0  0
  126.6532  134.4030  160.0204 C   0  0  0  0  0  0  0  0  0  0  0  0
  126.5622  133.0614  159.6709 C   0  0  0  0  0  0  0  0  0  0  0  0
  125.4058  132.3545  159.9369 C   0  0  0  0  0  0  0  0  0  0  0  0
  124.3390  132.9776  160.5569 C   0  0  0  0  0  0  0  0  0  0  0  0
  124.4223  134.3187  160.9030 C   0  0  0  0  0  0  0  0  0  0  0  0
  123.3704  134.9315  161.5071 O   0  0  0  0  0  0  0  0  0  0  0  0
  125.5810  135.0317  160.6373 C   0  0  0  0  0  0  0  0  0  0  0  0
  130.7630  135.0272  161.5324 H   0  0  0  0  0  0  0  0  0  0  0  0
  131.9165  136.0234  160.6130 H   0  0  0  0  0  0  0  0  0  0  0  0
  128.6583  135.9614  162.3069 H   0  0  0  0  0  0  0  0  0  0  0  0
  127.4511  137.9918  162.9964 H   0  0  0  0  0  0  0  0  0  0  0  0
  128.2204  140.2039  162.2394 H   0  0  0  0  0  0  0  0  0  0  0  0
  130.2058  140.3918  160.7979 H   0  0  0  0  0  0  0  0  0  0  0  0
  131.6976  137.9434  159.0601 H   0  0  0  0  0  0  0  0  0  0  0  0
  133.3947  139.6645  158.3723 H   0  0  0  0  0  0  0  0  0  0  0  0
  135.3423  140.9622  159.1293 H   0  0  0  0  0  0  0  0  0  0  0  0
  135.8548  141.1329  161.5298 H   0  0  0  0  0  0  0  0  0  0  0  0
  133.8461  139.5596  164.0285 H   0  0  0  0  0  0  0  0  0  0  0  0
  132.4479  138.7178  162.4340 H   0  0  0  0  0  0  0  0  0  0  0  0
  127.7807  136.0719  159.5741 H   0  0  0  0  0  0  0  0  0  0  0  0
  127.3961  132.5711  159.1906 H   0  0  0  0  0  0  0  0  0  0  0  0
  125.3367  131.3119  159.6642 H   0  0  0  0  0  0  0  0  0  0  0  0
  123.4380  132.4209  160.7683 H   0  0  0  0  0  0  0  0  0  0  0  0
  123.5222  135.8649  161.7095 H   0  0  0  0  0  0  0  0  0  0  0  0
  125.6494  136.0744  160.9103 H   0  0  0  0  0  0  0  0  0  0  0  0
  1  2  1  0
  1  3  1  0
  1  4  1  0
  1  5  1  0
  5  6  1  6
  5  7  1  0
  5 22  1  0
  7  8  1  0
  7 32  1  0
  7 33  1  0
  8 13  1  0
  8  9  2  0
  9 10  1  0
  9 34  1  0
 10 11  2  0
 10 35  1  0
 11 12  1  0
 11 36  1  0
 12 13  2  0
 12 37  1  0
 13 14  1  0
 14 15  1  0
 14 38  1  0
 15 21  1  0
 15 16  2  0
 16 17  1  0
 16 39  1  0
 17 18  2  0
 17 40  1  0
 18 19  1  0
 18 41  1  0
 19 20  1  0
 19 21  2  0
 20 42  1  0
 21 43  1  0
 22 23  2  0
 22 24  1  0
 24 25  1  0
 24 44  1  0
 25 31  1  0
 25 26  2  0
 26 27  1  0
 26 45  1  0
 27 28  2  0
 27 46  1  0
 28 29  1  0
 28 47  1  0
 29 30  1  0
 29 31  2  0
 30 48  1  0
 31 49  1  0
M  CHG  1   1   1
M  END
>  <DOCK_score>  (1) 
-51.615814

>  <SMILES>  (1) 
[NH3+][C@H](Cc1ccccc1Nc1cccc(O)c1)C(=O)Nc1cccc(O)c1

$$$$
