CNc1ccc(Nc2[nH]cc(-c3ccc(F)cc3)[nH+]2)cc1N
     RDKit          3D

 39 41  0  0  1  0  0  0  0  0999 V2000
  126.7411  136.3287  163.5300 C   0  0  0  0  0  0  0  0  0  0  0  0
  126.4431  136.5524  162.1132 N   0  0  0  0  0  0  0  0  0  0  0  0
  127.3716  136.1723  161.1326 C   0  0  0  0  0  0  0  0  0  0  0  0
  128.7275  136.1805  161.4208 C   0  0  0  0  0  0  0  0  0  0  0  0
  129.6435  135.8112  160.4536 C   0  0  0  0  0  0  0  0  0  0  0  0
  129.2078  135.4200  159.1945 C   0  0  0  0  0  0  0  0  0  0  0  0
  130.1379  135.0404  158.2188 N   0  0  0  0  0  0  0  0  0  0  0  0
  130.0915  133.7671  157.6761 C   0  0  0  0  0  0  0  0  0  0  0  0
  129.6474  132.6492  158.3132 N   0  0  0  0  0  0  0  0  0  0  0  0
  129.3102  132.6011  159.2215 H   0  0  0  0  0  0  0  0  0  0  0  0
  129.7659  131.6013  157.4326 C   0  0  0  0  0  0  0  0  0  0  0  0
  130.2783  132.1086  156.2840 C   0  0  0  0  0  0  0  0  0  0  0  0
  130.5793  131.3429  155.0495 C   0  0  0  0  0  0  0  0  0  0  0  0
  129.9429  131.6680  153.8529 C   0  0  0  0  0  0  0  0  0  0  0  0
  130.2299  130.9564  152.7060 C   0  0  0  0  0  0  0  0  0  0  0  0
  131.1405  129.9135  152.7450 C   0  0  0  0  0  0  0  0  0  0  0  0
  131.4146  129.2162  151.6207 F   0  0  0  0  0  0  0  0  0  0  0  0
  131.7716  129.5833  153.9335 C   0  0  0  0  0  0  0  0  0  0  0  0
  131.4947  130.2927  155.0842 C   0  0  0  0  0  0  0  0  0  0  0  0
  130.4627  133.4404  156.4619 N   0  0  0  0  0  0  0  0  0  0  0  0
  130.8153  134.0531  155.7976 H   0  0  0  0  0  0  0  0  0  0  0  0
  127.8508  135.4099  158.9005 C   0  0  0  0  0  0  0  0  0  0  0  0
  126.9309  135.7854  159.8673 C   0  0  0  0  0  0  0  0  0  0  0  0
  125.5621  135.7758  159.5740 N   0  0  0  0  0  0  0  0  0  0  0  0
  127.6471  136.8710  163.8008 H   0  0  0  0  0  0  0  0  0  0  0  0
  125.9090  136.6853  164.1371 H   0  0  0  0  0  0  0  0  0  0  0  0
  126.8891  135.2633  163.7065 H   0  0  0  0  0  0  0  0  0  0  0  0
  125.6038  136.9633  161.8532 H   0  0  0  0  0  0  0  0  0  0  0  0
  129.0688  136.4800  162.4008 H   0  0  0  0  0  0  0  0  0  0  0  0
  130.6997  135.8226  160.6790 H   0  0  0  0  0  0  0  0  0  0  0  0
  130.8146  135.6693  157.9232 H   0  0  0  0  0  0  0  0  0  0  0  0
  129.5015  130.5710  157.6193 H   0  0  0  0  0  0  0  0  0  0  0  0
  129.2294  132.4781  153.8224 H   0  0  0  0  0  0  0  0  0  0  0  0
  129.7401  131.2101  151.7774 H   0  0  0  0  0  0  0  0  0  0  0  0
  132.4810  128.7693  153.9594 H   0  0  0  0  0  0  0  0  0  0  0  0
  131.9872  130.0347  156.0102 H   0  0  0  0  0  0  0  0  0  0  0  0
  127.5123  135.1096  157.9199 H   0  0  0  0  0  0  0  0  0  0  0  0
  124.9191  136.0385  160.2511 H   0  0  0  0  0  0  0  0  0  0  0  0
  125.2566  135.5065  158.6935 H   0  0  0  0  0  0  0  0  0  0  0  0
  1  2  1  0
  1 25  1  0
  1 26  1  0
  1 27  1  0
  2  3  1  0
  2 28  1  0
  3 23  2  0
  3  4  1  0
  4  5  2  0
  4 29  1  0
  5  6  1  0
  5 30  1  0
  6  7  1  0
  6 22  2  0
  7 31  1  0
  8  7  1  0
  8 20  2  0
  8  9  1  0
  9 10  1  0
  9 11  1  0
 11 12  2  0
 11 32  1  0
 12 13  1  0
 12 20  1  0
 13 19  1  0
 13 14  2  0
 14 15  1  0
 14 33  1  0
 15 16  2  0
 15 34  1  0
 16 17  1  0
 16 18  1  0
 18 19  2  0
 18 35  1  0
 19 36  1  0
 20 21  1  0
 22 23  1  0
 22 37  1  0
 23 24  1  0
 24 38  1  0
 24 39  1  0
M  CHG  1  20   1
M  END
>  <DOCK_score>  (1) 
-51.525597

>  <SMILES>  (1) 
CNc1ccc(Nc2[nH]cc(-c3ccc(F)cc3)[nH+]2)cc1N

$$$$
