Cc1ccc([C@H](Nc2[nH]cc(-c3ccc(N)cc3)[nH+]2)c2ccccc2)cc1
     RDKit          3D

 50 53  0  0  1  0  0  0  0  0999 V2000
  131.5801  140.7007  161.7732 C   0  0  0  0  0  0  0  0  0  0  0  0
  131.1620  139.3239  161.3254 C   0  0  0  0  0  0  0  0  0  0  0  0
  131.5726  138.2115  162.0361 C   0  0  0  0  0  0  0  0  0  0  0  0
  131.1890  136.9485  161.6255 C   0  0  0  0  0  0  0  0  0  0  0  0
  130.3949  136.7979  160.5040 C   0  0  0  0  0  0  0  0  0  0  0  0
  129.9772  135.4211  160.0559 C   0  0  2  0  0  0  0  0  0  0  0  0
  130.3937  134.6763  160.7343 H   0  0  0  0  0  0  0  0  0  0  0  0
  130.4733  135.1774  158.6992 N   0  0  0  0  0  0  0  0  0  0  0  0
  130.2117  133.9710  158.0727 C   0  0  0  0  0  0  0  0  0  0  0  0
  129.5036  132.9384  158.6055 N   0  0  0  0  0  0  0  0  0  0  0  0
  129.0953  132.9150  159.4852 H   0  0  0  0  0  0  0  0  0  0  0  0
  129.4741  131.9342  157.6669 C   0  0  0  0  0  0  0  0  0  0  0  0
  130.1644  132.3828  156.5895 C   0  0  0  0  0  0  0  0  0  0  0  0
  130.3962  131.6361  155.3287 C   0  0  0  0  0  0  0  0  0  0  0  0
  129.9316  132.1486  154.1185 C   0  0  0  0  0  0  0  0  0  0  0  0
  130.1532  131.4558  152.9471 C   0  0  0  0  0  0  0  0  0  0  0  0
  130.8293  130.2414  152.9739 C   0  0  0  0  0  0  0  0  0  0  0  0
  131.0480  129.5389  151.7864 N   0  0  0  0  0  0  0  0  0  0  0  0
  131.2886  129.7261  154.1800 C   0  0  0  0  0  0  0  0  0  0  0  0
  131.0741  130.4183  155.3530 C   0  0  0  0  0  0  0  0  0  0  0  0
  130.6003  133.6371  156.8661 N   0  0  0  0  0  0  0  0  0  0  0  0
  131.1188  134.1971  156.2674 H   0  0  0  0  0  0  0  0  0  0  0  0
  128.4733  135.3242  160.0659 C   0  0  0  0  0  0  0  0  0  0  0  0
  127.8155  134.9004  161.2055 C   0  0  0  0  0  0  0  0  0  0  0  0
  126.4361  134.8120  161.2146 C   0  0  0  0  0  0  0  0  0  0  0  0
  125.7143  135.1480  160.0845 C   0  0  0  0  0  0  0  0  0  0  0  0
  126.3722  135.5724  158.9452 C   0  0  0  0  0  0  0  0  0  0  0  0
  127.7518  135.6589  158.9353 C   0  0  0  0  0  0  0  0  0  0  0  0
  129.9887  137.9098  159.7902 C   0  0  0  0  0  0  0  0  0  0  0  0
  130.3675  139.1733  160.2042 C   0  0  0  0  0  0  0  0  0  0  0  0
  132.5220  140.9681  161.2942 H   0  0  0  0  0  0  0  0  0  0  0  0
  130.8125  141.4224  161.4935 H   0  0  0  0  0  0  0  0  0  0  0  0
  131.7081  140.7076  162.8556 H   0  0  0  0  0  0  0  0  0  0  0  0
  132.1933  138.3293  162.9121 H   0  0  0  0  0  0  0  0  0  0  0  0
  131.5101  136.0796  162.1805 H   0  0  0  0  0  0  0  0  0  0  0  0
  130.9851  135.8615  158.2399 H   0  0  0  0  0  0  0  0  0  0  0  0
  128.9933  130.9725  157.7684 H   0  0  0  0  0  0  0  0  0  0  0  0
  129.4019  133.0896  154.0978 H   0  0  0  0  0  0  0  0  0  0  0  0
  129.7975  131.8548  152.0086 H   0  0  0  0  0  0  0  0  0  0  0  0
  131.5201  128.6918  151.8042 H   0  0  0  0  0  0  0  0  0  0  0  0
  130.7279  129.8981  150.9442 H   0  0  0  0  0  0  0  0  0  0  0  0
  131.8134  128.7823  154.1985 H   0  0  0  0  0  0  0  0  0  0  0  0
  131.4315  130.0174  156.2901 H   0  0  0  0  0  0  0  0  0  0  0  0
  128.3794  134.6386  162.0886 H   0  0  0  0  0  0  0  0  0  0  0  0
  125.9220  134.4809  162.1049 H   0  0  0  0  0  0  0  0  0  0  0  0
  124.6368  135.0747  160.0902 H   0  0  0  0  0  0  0  0  0  0  0  0
  125.8083  135.8345  158.0621 H   0  0  0  0  0  0  0  0  0  0  0  0
  128.2657  135.9897  158.0450 H   0  0  0  0  0  0  0  0  0  0  0  0
  129.3720  137.7918  158.9116 H   0  0  0  0  0  0  0  0  0  0  0  0
  130.0465  140.0422  159.6490 H   0  0  0  0  0  0  0  0  0  0  0  0
  1  2  1  0
  1 31  1  0
  1 32  1  0
  1 33  1  0
  2 30  2  0
  2  3  1  0
  3  4  2  0
  3 34  1  0
  4  5  1  0
  4 35  1  0
  5  6  1  0
  5 29  2  0
  6  7  1  1
  6  8  1  0
  6 23  1  0
  8 36  1  0
  9  8  1  0
  9 21  2  0
  9 10  1  0
 10 11  1  0
 10 12  1  0
 12 13  2  0
 12 37  1  0
 13 14  1  0
 13 21  1  0
 14 20  1  0
 14 15  2  0
 15 16  1  0
 15 38  1  0
 16 17  2  0
 16 39  1  0
 17 18  1  0
 17 19  1  0
 18 40  1  0
 18 41  1  0
 19 20  2  0
 19 42  1  0
 20 43  1  0
 21 22  1  0
 23 28  1  0
 23 24  2  0
 24 25  1  0
 24 44  1  0
 25 26  2  0
 25 45  1  0
 26 27  1  0
 26 46  1  0
 27 28  2  0
 27 47  1  0
 28 48  1  0
 29 30  1  0
 29 49  1  0
 30 50  1  0
M  CHG  1  21   1
M  END
>  <DOCK_score>  (1) 
-59.023483

>  <SMILES>  (1) 
Cc1ccc([C@H](Nc2[nH]cc(-c3ccc(N)cc3)[nH+]2)c2ccccc2)cc1

$$$$
