O[C@H](c1ccccc1C[NH+]1CCN(C=Cc2ccccc2)CC1)c1cccc2[nH]ccc12
     RDKit          3D

 62 66  0  0  1  0  0  0  0  0999 V2000
  130.7653  133.7372  164.2780 O   0  0  0  0  0  0  0  0  0  0  0  0
  130.0244  134.2472  163.1677 C   0  0  2  0  0  0  0  0  0  0  0  0
  129.8297  133.4417  162.4600 H   0  0  0  0  0  0  0  0  0  0  0  0
  130.8205  135.3315  162.4881 C   0  0  0  0  0  0  0  0  0  0  0  0
  130.6801  136.6471  162.8896 C   0  0  0  0  0  0  0  0  0  0  0  0
  131.4105  137.6413  162.2668 C   0  0  0  0  0  0  0  0  0  0  0  0
  132.2811  137.3206  161.2418 C   0  0  0  0  0  0  0  0  0  0  0  0
  132.4257  136.0047  160.8442 C   0  0  0  0  0  0  0  0  0  0  0  0
  131.6911  135.0107  161.4638 C   0  0  0  0  0  0  0  0  0  0  0  0
  131.8444  133.5768  161.0265 C   0  0  0  0  0  0  0  0  0  0  0  0
  130.8740  133.2827  159.9635 N   0  0  0  0  0  0  0  0  0  0  0  0
  129.9947  133.7276  160.1800 H   0  0  0  0  0  0  0  0  0  0  0  0
  130.6763  131.8306  159.8718 C   0  0  0  0  0  0  0  0  0  0  0  0
  129.5811  131.5292  158.8435 C   0  0  0  0  0  0  0  0  0  0  0  0
  129.9401  132.1743  157.5711 N   0  0  0  0  0  0  0  0  0  0  0  0
  129.9273  131.4634  156.3848 C   0  0  0  0  0  0  0  0  0  0  0  0
  130.7659  131.7947  155.3978 C   0  0  0  0  0  0  0  0  0  0  0  0
  130.6645  131.1243  154.0875 C   0  0  0  0  0  0  0  0  0  0  0  0
  130.4011  131.8701  152.9363 C   0  0  0  0  0  0  0  0  0  0  0  0
  130.3134  131.2375  151.7138 C   0  0  0  0  0  0  0  0  0  0  0  0
  130.4744  129.8659  151.6278 C   0  0  0  0  0  0  0  0  0  0  0  0
  130.7300  129.1200  152.7649 C   0  0  0  0  0  0  0  0  0  0  0  0
  130.8259  129.7401  153.9932 C   0  0  0  0  0  0  0  0  0  0  0  0
  130.3186  133.5965  157.5983 C   0  0  0  0  0  0  0  0  0  0  0  0
  131.3789  133.8003  158.6855 C   0  0  0  0  0  0  0  0  0  0  0  0
  128.7162  134.8150  163.6551 C   0  0  0  0  0  0  0  0  0  0  0  0
  128.6256  135.3500  164.9093 C   0  0  0  0  0  0  0  0  0  0  0  0
  127.4265  135.8803  165.3646 C   0  0  0  0  0  0  0  0  0  0  0  0
  126.3038  135.8669  164.5658 C   0  0  0  0  0  0  0  0  0  0  0  0
  126.3718  135.3221  163.2878 C   0  0  0  0  0  0  0  0  0  0  0  0
  125.4529  135.1637  162.2747 N   0  0  0  0  0  0  0  0  0  0  0  0
  124.5245  135.4417  162.3159 H   0  0  0  0  0  0  0  0  0  0  0  0
  126.0446  134.5561  161.2009 C   0  0  0  0  0  0  0  0  0  0  0  0
  127.3352  134.3046  161.4710 C   0  0  0  0  0  0  0  0  0  0  0  0
  127.5912  134.7910  162.8289 C   0  0  0  0  0  0  0  0  0  0  0  0
  130.9746  134.4009  164.9495 H   0  0  0  0  0  0  0  0  0  0  0  0
  130.0000  136.8976  163.6903 H   0  0  0  0  0  0  0  0  0  0  0  0
  131.3010  138.6690  162.5804 H   0  0  0  0  0  0  0  0  0  0  0  0
  132.8516  138.0976  160.7547 H   0  0  0  0  0  0  0  0  0  0  0  0
  133.1094  135.7535  160.0467 H   0  0  0  0  0  0  0  0  0  0  0  0
  131.6647  132.9169  161.8753 H   0  0  0  0  0  0  0  0  0  0  0  0
  132.8549  133.4177  160.6502 H   0  0  0  0  0  0  0  0  0  0  0  0
  130.3774  131.4423  160.8455 H   0  0  0  0  0  0  0  0  0  0  0  0
  131.6070  131.3558  159.5614 H   0  0  0  0  0  0  0  0  0  0  0  0
  129.5016  130.4518  158.6982 H   0  0  0  0  0  0  0  0  0  0  0  0
  128.6281  131.9223  159.1974 H   0  0  0  0  0  0  0  0  0  0  0  0
  129.2398  130.6406  156.2558 H   0  0  0  0  0  0  0  0  0  0  0  0
  131.5175  132.5531  155.5596 H   0  0  0  0  0  0  0  0  0  0  0  0
  130.2708  132.9403  153.0027 H   0  0  0  0  0  0  0  0  0  0  0  0
  130.1141  131.8135  150.8223 H   0  0  0  0  0  0  0  0  0  0  0  0
  130.3998  129.3752  150.6686 H   0  0  0  0  0  0  0  0  0  0  0  0
  130.8542  128.0497  152.6905 H   0  0  0  0  0  0  0  0  0  0  0  0
  131.0252  129.1567  154.8800 H   0  0  0  0  0  0  0  0  0  0  0  0
  129.4408  134.2016  157.8249 H   0  0  0  0  0  0  0  0  0  0  0  0
  130.7254  133.8893  156.6304 H   0  0  0  0  0  0  0  0  0  0  0  0
  131.5978  134.8634  158.7849 H   0  0  0  0  0  0  0  0  0  0  0  0
  132.2885  133.2660  158.4108 H   0  0  0  0  0  0  0  0  0  0  0  0
  129.4951  135.3644  165.5496 H   0  0  0  0  0  0  0  0  0  0  0  0
  127.3717  136.3039  166.3565 H   0  0  0  0  0  0  0  0  0  0  0  0
  125.3744  136.2784  164.9306 H   0  0  0  0  0  0  0  0  0  0  0  0
  125.5469  134.3146  160.2733 H   0  0  0  0  0  0  0  0  0  0  0  0
  128.0495  133.8336  160.8121 H   0  0  0  0  0  0  0  0  0  0  0  0
  1  2  1  0
  1 36  1  0
  2  3  1  6
  2  4  1  0
  2 26  1  0
  4  9  1  0
  4  5  2  0
  5  6  1  0
  5 37  1  0
  6  7  2  0
  6 38  1  0
  7  8  1  0
  7 39  1  0
  8  9  2  0
  8 40  1  0
  9 10  1  0
 10 11  1  0
 10 41  1  0
 10 42  1  0
 11 12  1  0
 11 25  1  0
 11 13  1  0
 13 14  1  0
 13 43  1  0
 13 44  1  0
 14 15  1  0
 14 45  1  0
 14 46  1  0
 15 16  1  0
 15 24  1  0
 16 17  2  0
 16 47  1  0
 17 18  1  0
 17 48  1  0
 18 23  1  0
 18 19  2  0
 19 20  1  0
 19 49  1  0
 20 21  2  0
 20 50  1  0
 21 22  1  0
 21 51  1  0
 22 23  2  0
 22 52  1  0
 23 53  1  0
 24 25  1  0
 24 54  1  0
 24 55  1  0
 25 56  1  0
 25 57  1  0
 26 35  1  0
 26 27  2  0
 27 28  1  0
 27 58  1  0
 28 29  2  0
 28 59  1  0
 29 30  1  0
 29 60  1  0
 30 35  2  0
 30 31  1  0
 31 32  1  0
 31 33  1  0
 33 34  2  0
 33 61  1  0
 34 35  1  0
 34 62  1  0
M  CHG  1  11   1
M  END
>  <DOCK_score>  (1) 
-44.496277

>  <SMILES>  (1) 
O[C@H](c1ccccc1C[NH+]1CCN(C=Cc2ccccc2)CC1)c1cccc2[nH]ccc12

$$$$
