c1ccc(-c2ccc(-c3c[nH]c(NC(c4ccccc4)c4ccccc4)[nH+]3)cc2)cc1
     RDKit          3D

 55 59  0  0  1  0  0  0  0  0999 V2000
  130.3645  128.7954  150.4067 C   0  0  0  0  0  0  0  0  0  0  0  0
  130.2804  130.1763  150.4335 C   0  0  0  0  0  0  0  0  0  0  0  0
  130.3643  130.8520  151.6338 C   0  0  0  0  0  0  0  0  0  0  0  0
  130.5342  130.1404  152.8208 C   0  0  0  0  0  0  0  0  0  0  0  0
  130.6254  130.8607  154.1139 C   0  0  0  0  0  0  0  0  0  0  0  0
  129.9552  132.0720  154.2860 C   0  0  0  0  0  0  0  0  0  0  0  0
  130.0405  132.7415  155.4866 C   0  0  0  0  0  0  0  0  0  0  0  0
  130.7971  132.2084  156.5302 C   0  0  0  0  0  0  0  0  0  0  0  0
  130.8891  132.9290  157.8225 C   0  0  0  0  0  0  0  0  0  0  0  0
  130.4929  132.4555  159.0307 C   0  0  0  0  0  0  0  0  0  0  0  0
  130.7594  133.4396  159.9510 N   0  0  0  0  0  0  0  0  0  0  0  0
  130.5884  133.3956  160.9049 H   0  0  0  0  0  0  0  0  0  0  0  0
  131.3033  134.4897  159.2772 C   0  0  0  0  0  0  0  0  0  0  0  0
  131.7095  135.6865  159.8419 N   0  0  0  0  0  0  0  0  0  0  0  0
  131.5678  135.9014  161.2842 C   0  0  0  0  0  0  0  0  0  0  0  0
  132.0801  137.2731  161.6403 C   0  0  0  0  0  0  0  0  0  0  0  0
  131.5333  137.9593  162.7087 C   0  0  0  0  0  0  0  0  0  0  0  0
  132.0066  139.2155  163.0383 C   0  0  0  0  0  0  0  0  0  0  0  0
  133.0192  139.7899  162.2939 C   0  0  0  0  0  0  0  0  0  0  0  0
  133.5627  139.1060  161.2218 C   0  0  0  0  0  0  0  0  0  0  0  0
  133.0930  137.8475  160.8954 C   0  0  0  0  0  0  0  0  0  0  0  0
  130.1144  135.7927  161.6677 C   0  0  0  0  0  0  0  0  0  0  0  0
  129.7635  135.3380  162.9250 C   0  0  0  0  0  0  0  0  0  0  0  0
  128.4304  135.2427  163.2784 C   0  0  0  0  0  0  0  0  0  0  0  0
  127.4482  135.5921  162.3706 C   0  0  0  0  0  0  0  0  0  0  0  0
  127.7989  136.0418  161.1114 C   0  0  0  0  0  0  0  0  0  0  0  0
  129.1321  136.1421  160.7599 C   0  0  0  0  0  0  0  0  0  0  0  0
  131.3792  134.1810  158.0058 N   0  0  0  0  0  0  0  0  0  0  0  0
  131.7294  134.7558  157.3073 H   0  0  0  0  0  0  0  0  0  0  0  0
  131.4677  130.9975  156.3575 C   0  0  0  0  0  0  0  0  0  0  0  0
  131.3825  130.3284  155.1566 C   0  0  0  0  0  0  0  0  0  0  0  0
  130.6232  128.7502  152.7867 C   0  0  0  0  0  0  0  0  0  0  0  0
  130.5327  128.0847  151.5810 C   0  0  0  0  0  0  0  0  0  0  0  0
  130.2984  128.2708  149.4650 H   0  0  0  0  0  0  0  0  0  0  0  0
  130.1493  130.7264  149.5133 H   0  0  0  0  0  0  0  0  0  0  0  0
  130.2993  131.9299  151.6535 H   0  0  0  0  0  0  0  0  0  0  0  0
  129.3694  132.4847  153.4780 H   0  0  0  0  0  0  0  0  0  0  0  0
  129.5252  133.6815  155.6185 H   0  0  0  0  0  0  0  0  0  0  0  0
  130.0540  131.4893  159.2307 H   0  0  0  0  0  0  0  0  0  0  0  0
  132.0882  136.3827  159.2827 H   0  0  0  0  0  0  0  0  0  0  0  0
  132.1428  135.1477  161.8221 H   0  0  0  0  0  0  0  0  0  0  0  0
  130.7390  137.5124  163.2879 H   0  0  0  0  0  0  0  0  0  0  0  0
  131.5820  139.7502  163.8752 H   0  0  0  0  0  0  0  0  0  0  0  0
  133.3862  140.7734  162.5481 H   0  0  0  0  0  0  0  0  0  0  0  0
  134.3537  139.5549  160.6395 H   0  0  0  0  0  0  0  0  0  0  0  0
  133.5170  137.3133  160.0581 H   0  0  0  0  0  0  0  0  0  0  0  0
  130.5308  135.0607  163.6325 H   0  0  0  0  0  0  0  0  0  0  0  0
  128.1564  134.8910  164.2620 H   0  0  0  0  0  0  0  0  0  0  0  0
  126.4066  135.5135  162.6452 H   0  0  0  0  0  0  0  0  0  0  0  0
  127.0316  136.3145  160.4022 H   0  0  0  0  0  0  0  0  0  0  0  0
  129.4062  136.4930  159.7760 H   0  0  0  0  0  0  0  0  0  0  0  0
  132.0537  130.5846  157.1653 H   0  0  0  0  0  0  0  0  0  0  0  0
  131.9017  129.3909  155.0228 H   0  0  0  0  0  0  0  0  0  0  0  0
  130.7589  128.1943  153.7027 H   0  0  0  0  0  0  0  0  0  0  0  0
  130.5974  127.0070  151.5541 H   0  0  0  0  0  0  0  0  0  0  0  0
  1 33  2  0
  1  2  1  0
  1 34  1  0
  2  3  2  0
  2 35  1  0
  3  4  1  0
  3 36  1  0
  4  5  1  0
  4 32  2  0
  5 31  1  0
  5  6  2  0
  6  7  1  0
  6 37  1  0
  7  8  2  0
  7 38  1  0
  8  9  1  0
  8 30  1  0
  9 28  1  0
  9 10  2  0
 10 11  1  0
 10 39  1  0
 11 12  1  0
 11 13  1  0
 13 14  1  0
 13 28  2  0
 14 15  1  0
 14 40  1  0
 15 16  1  0
 15 22  1  0
 15 41  1  0
 16 21  1  0
 16 17  2  0
 17 18  1  0
 17 42  1  0
 18 19  2  0
 18 43  1  0
 19 20  1  0
 19 44  1  0
 20 21  2  0
 20 45  1  0
 21 46  1  0
 22 27  1  0
 22 23  2  0
 23 24  1  0
 23 47  1  0
 24 25  2  0
 24 48  1  0
 25 26  1  0
 25 49  1  0
 26 27  2  0
 26 50  1  0
 27 51  1  0
 28 29  1  0
 30 31  2  0
 30 52  1  0
 31 53  1  0
 32 33  1  0
 32 54  1  0
 33 55  1  0
M  CHG  1  28   1
M  END
>  <DOCK_score>  (1) 
-60.684555

>  <SMILES>  (1) 
c1ccc(-c2ccc(-c3c[nH]c(NC(c4ccccc4)c4ccccc4)[nH+]3)cc2)cc1

$$$$
