CCc1ccc(-c2c[nH]c(N[C@H](C)Cc3ccc(F)cc3-c3ccc(N)cc3)[nH+]2)cc1
     RDKit          3D

 59 62  0  0  1  0  0  0  0  0999 V2000
  130.3969  128.7781  152.0869 C   0  0  0  0  0  0  0  0  0  0  0  0
  131.5214  129.7565  152.4319 C   0  0  0  0  0  0  0  0  0  0  0  0
  131.1559  130.5230  153.6769 C   0  0  0  0  0  0  0  0  0  0  0  0
  131.5150  130.0314  154.9190 C   0  0  0  0  0  0  0  0  0  0  0  0
  131.1872  130.7316  156.0623 C   0  0  0  0  0  0  0  0  0  0  0  0
  130.4836  131.9307  155.9641 C   0  0  0  0  0  0  0  0  0  0  0  0
  130.1238  132.6851  157.1896 C   0  0  0  0  0  0  0  0  0  0  0  0
  129.3585  132.2287  158.2118 C   0  0  0  0  0  0  0  0  0  0  0  0
  129.2798  133.2431  159.1347 N   0  0  0  0  0  0  0  0  0  0  0  0
  128.7994  133.2176  159.9769 H   0  0  0  0  0  0  0  0  0  0  0  0
  130.0003  134.2906  158.6491 C   0  0  0  0  0  0  0  0  0  0  0  0
  130.1729  135.5114  159.2788 N   0  0  0  0  0  0  0  0  0  0  0  0
  129.1280  136.0337  160.1629 C   0  0  2  0  0  0  0  0  0  0  0  0
  128.1492  135.8287  159.7295 H   0  0  0  0  0  0  0  0  0  0  0  0
  129.3069  137.5444  160.3268 C   0  0  0  0  0  0  0  0  0  0  0  0
  129.2322  135.3566  161.5309 C   0  0  0  0  0  0  0  0  0  0  0  0
  128.1574  135.8940  162.4404 C   0  0  0  0  0  0  0  0  0  0  0  0
  128.4093  136.9972  163.2310 C   0  0  0  0  0  0  0  0  0  0  0  0
  127.4234  137.4952  164.0629 C   0  0  0  0  0  0  0  0  0  0  0  0
  126.1810  136.8838  164.1158 C   0  0  0  0  0  0  0  0  0  0  0  0
  125.2230  137.3719  164.9338 F   0  0  0  0  0  0  0  0  0  0  0  0
  125.9206  135.7755  163.3320 C   0  0  0  0  0  0  0  0  0  0  0  0
  126.9102  135.2743  162.4887 C   0  0  0  0  0  0  0  0  0  0  0  0
  126.6369  134.0854  161.6446 C   0  0  0  0  0  0  0  0  0  0  0  0
  126.1111  134.2449  160.3634 C   0  0  0  0  0  0  0  0  0  0  0  0
  125.8628  133.1390  159.5787 C   0  0  0  0  0  0  0  0  0  0  0  0
  126.1254  131.8648  160.0687 C   0  0  0  0  0  0  0  0  0  0  0  0
  125.8677  130.7461  159.2749 N   0  0  0  0  0  0  0  0  0  0  0  0
  126.6446  131.7032  161.3481 C   0  0  0  0  0  0  0  0  0  0  0  0
  126.8998  132.8067  162.1338 C   0  0  0  0  0  0  0  0  0  0  0  0
  130.5072  133.9516  157.4889 N   0  0  0  0  0  0  0  0  0  0  0  0
  131.0658  134.5167  156.9325 H   0  0  0  0  0  0  0  0  0  0  0  0
  130.1197  132.4185  154.7103 C   0  0  0  0  0  0  0  0  0  0  0  0
  130.4575  131.7126  153.5735 C   0  0  0  0  0  0  0  0  0  0  0  0
  129.4736  129.3315  151.9149 H   0  0  0  0  0  0  0  0  0  0  0  0
  130.6611  128.2238  151.1863 H   0  0  0  0  0  0  0  0  0  0  0  0
  130.2547  128.0820  152.9135 H   0  0  0  0  0  0  0  0  0  0  0  0
  132.4445  129.2032  152.6037 H   0  0  0  0  0  0  0  0  0  0  0  0
  131.6635  130.4528  151.6053 H   0  0  0  0  0  0  0  0  0  0  0  0
  132.0563  129.0999  154.9939 H   0  0  0  0  0  0  0  0  0  0  0  0
  131.4720  130.3491  157.0312 H   0  0  0  0  0  0  0  0  0  0  0  0
  128.8984  131.2544  158.2858 H   0  0  0  0  0  0  0  0  0  0  0  0
  130.9857  136.0208  159.1345 H   0  0  0  0  0  0  0  0  0  0  0  0
  129.2328  138.0268  159.3520 H   0  0  0  0  0  0  0  0  0  0  0  0
  128.5295  137.9331  160.9846 H   0  0  0  0  0  0  0  0  0  0  0  0
  130.2857  137.7496  160.7602 H   0  0  0  0  0  0  0  0  0  0  0  0
  129.1048  134.2804  161.4144 H   0  0  0  0  0  0  0  0  0  0  0  0
  130.2110  135.5618  161.9644 H   0  0  0  0  0  0  0  0  0  0  0  0
  129.3774  137.4748  163.1969 H   0  0  0  0  0  0  0  0  0  0  0  0
  127.6238  138.3608  164.6767 H   0  0  0  0  0  0  0  0  0  0  0  0
  124.9524  135.2987  163.3734 H   0  0  0  0  0  0  0  0  0  0  0  0
  125.9025  135.2344  159.9842 H   0  0  0  0  0  0  0  0  0  0  0  0
  125.4593  133.2622  158.5845 H   0  0  0  0  0  0  0  0  0  0  0  0
  126.0508  129.8568  159.6159 H   0  0  0  0  0  0  0  0  0  0  0  0
  125.5053  130.8581  158.3821 H   0  0  0  0  0  0  0  0  0  0  0  0
  126.8479  130.7124  161.7269 H   0  0  0  0  0  0  0  0  0  0  0  0
  127.3035  132.6809  163.1276 H   0  0  0  0  0  0  0  0  0  0  0  0
  129.5741  133.3470  154.6284 H   0  0  0  0  0  0  0  0  0  0  0  0
  130.1757  132.0895  152.6014 H   0  0  0  0  0  0  0  0  0  0  0  0
  1  2  1  0
  1 35  1  0
  1 36  1  0
  1 37  1  0
  2  3  1  0
  2 38  1  0
  2 39  1  0
  3 34  2  0
  3  4  1  0
  4  5  2  0
  4 40  1  0
  5  6  1  0
  5 41  1  0
  6  7  1  0
  6 33  2  0
  7 31  1  0
  7  8  2  0
  8  9  1  0
  8 42  1  0
  9 10  1  0
  9 11  1  0
 11 12  1  0
 11 31  2  0
 12 13  1  0
 12 43  1  0
 13 14  1  6
 13 15  1  0
 13 16  1  0
 15 44  1  0
 15 45  1  0
 15 46  1  0
 16 17  1  0
 16 47  1  0
 16 48  1  0
 17 23  1  0
 17 18  2  0
 18 19  1  0
 18 49  1  0
 19 20  2  0
 19 50  1  0
 20 21  1  0
 20 22  1  0
 22 23  2  0
 22 51  1  0
 23 24  1  0
 24 30  1  0
 24 25  2  0
 25 26  1  0
 25 52  1  0
 26 27  2  0
 26 53  1  0
 27 28  1  0
 27 29  1  0
 28 54  1  0
 28 55  1  0
 29 30  2  0
 29 56  1  0
 30 57  1  0
 31 32  1  0
 33 34  1  0
 33 58  1  0
 34 59  1  0
M  CHG  1  31   1
M  END
>  <DOCK_score>  (1) 
-58.44426

>  <SMILES>  (1) 
CCc1ccc(-c2c[nH]c(N[C@H](C)Cc3ccc(F)cc3-c3ccc(N)cc3)[nH+]2)cc1

$$$$
