CC[C@@H]([NH2+]Cc1nc(-c2ccccc2)c[nH]1)c1cc[nH]n1
     RDKit          3D

 41 43  0  0  1  0  0  0  0  0999 V2000
  128.2256  136.1235  156.8589 C   0  0  0  0  0  0  0  0  0  0  0  0
  128.9349  134.8276  157.2573 C   0  0  0  0  0  0  0  0  0  0  0  0
  129.2134  134.8403  158.7616 C   0  0  1  0  0  0  0  0  0  0  0  0
  129.7187  133.9172  159.0454 H   0  0  0  0  0  0  0  0  0  0  0  0
  130.0688  135.9881  159.0915 N   0  0  0  0  0  0  0  0  0  0  0  0
  130.7711  136.1010  158.3758 H   0  0  0  0  0  0  0  0  0  0  0  0
  129.5053  136.8233  159.1445 H   0  0  0  0  0  0  0  0  0  0  0  0
  130.7225  135.7554  160.3863 C   0  0  0  0  0  0  0  0  0  0  0  0
  131.6000  136.9329  160.7247 C   0  0  0  0  0  0  0  0  0  0  0  0
  132.8574  137.0566  160.4045 N   0  0  0  0  0  0  0  0  0  0  0  0
  133.3186  138.2365  160.8671 C   0  0  0  0  0  0  0  0  0  0  0  0
  134.6981  138.7593  160.7101 C   0  0  0  0  0  0  0  0  0  0  0  0
  135.4683  139.0500  161.8345 C   0  0  0  0  0  0  0  0  0  0  0  0
  136.7530  139.5307  161.6824 C   0  0  0  0  0  0  0  0  0  0  0  0
  137.2724  139.7350  160.4170 C   0  0  0  0  0  0  0  0  0  0  0  0
  136.5104  139.4538  159.2971 C   0  0  0  0  0  0  0  0  0  0  0  0
  135.2266  138.9672  159.4374 C   0  0  0  0  0  0  0  0  0  0  0  0
  132.2943  138.8577  161.5083 C   0  0  0  0  0  0  0  0  0  0  0  0
  131.2119  138.0283  161.4142 N   0  0  0  0  0  0  0  0  0  0  0  0
  130.3275  138.1954  161.7758 H   0  0  0  0  0  0  0  0  0  0  0  0
  127.9115  134.9518  159.5125 C   0  0  0  0  0  0  0  0  0  0  0  0
  126.8494  134.0439  159.4516 C   0  0  0  0  0  0  0  0  0  0  0  0
  125.8690  134.4946  160.2684 C   0  0  0  0  0  0  0  0  0  0  0  0
  126.2925  135.6514  160.8196 N   0  0  0  0  0  0  0  0  0  0  0  0
  125.7947  136.2014  161.4447 H   0  0  0  0  0  0  0  0  0  0  0  0
  127.5775  135.9176  160.3297 N   0  0  0  0  0  0  0  0  0  0  0  0
  127.3376  136.2565  157.4770 H   0  0  0  0  0  0  0  0  0  0  0  0
  127.9336  136.0702  155.8102 H   0  0  0  0  0  0  0  0  0  0  0  0
  128.9003  136.9668  157.0059 H   0  0  0  0  0  0  0  0  0  0  0  0
  128.3000  133.9759  157.0125 H   0  0  0  0  0  0  0  0  0  0  0  0
  129.8764  134.7469  156.7140 H   0  0  0  0  0  0  0  0  0  0  0  0
  129.9639  135.6334  161.1595 H   0  0  0  0  0  0  0  0  0  0  0  0
  131.3313  134.8532  160.3290 H   0  0  0  0  0  0  0  0  0  0  0  0
  135.0619  138.8954  162.8232 H   0  0  0  0  0  0  0  0  0  0  0  0
  137.3522  139.7521  162.5532 H   0  0  0  0  0  0  0  0  0  0  0  0
  138.2766  140.1156  160.3023 H   0  0  0  0  0  0  0  0  0  0  0  0
  136.9212  139.6147  158.3113 H   0  0  0  0  0  0  0  0  0  0  0  0
  134.6326  138.7475  158.5626 H   0  0  0  0  0  0  0  0  0  0  0  0
  132.3288  139.8197  161.9975 H   0  0  0  0  0  0  0  0  0  0  0  0
  126.8179  133.1416  158.8591 H   0  0  0  0  0  0  0  0  0  0  0  0
  124.9168  134.0165  160.4442 H   0  0  0  0  0  0  0  0  0  0  0  0
  1  2  1  0
  1 27  1  0
  1 28  1  0
  1 29  1  0
  2  3  1  0
  2 30  1  0
  2 31  1  0
  3  4  1  1
  3  5  1  0
  3 21  1  0
  5  6  1  0
  5  7  1  0
  5  8  1  0
  8  9  1  0
  8 32  1  0
  8 33  1  0
  9 19  1  0
  9 10  2  0
 10 11  1  0
 11 12  1  0
 11 18  2  0
 12 17  1  0
 12 13  2  0
 13 14  1  0
 13 34  1  0
 14 15  2  0
 14 35  1  0
 15 16  1  0
 15 36  1  0
 16 17  2  0
 16 37  1  0
 17 38  1  0
 18 19  1  0
 18 39  1  0
 19 20  1  0
 21 26  2  0
 21 22  1  0
 22 23  2  0
 22 40  1  0
 23 24  1  0
 23 41  1  0
 24 25  1  0
 24 26  1  0
M  CHG  1   5   1
M  END
>  <DOCK_score>  (1) 
-40.987164

>  <SMILES>  (1) 
CC[C@@H]([NH2+]Cc1nc(-c2ccccc2)c[nH]1)c1cc[nH]n1

$$$$
