CCc1ccc([C@H](Nc2[nH]cc(-c3ccc(Br)cc3)[nH+]2)c2ccccc2)cc1
     RDKit          3D

 51 54  0  0  1  0  0  0  0  0999 V2000
  131.1862  141.1077  162.5425 C   0  0  0  0  0  0  0  0  0  0  0  0
  129.8792  141.1179  161.7475 C   0  0  0  0  0  0  0  0  0  0  0  0
  129.5780  139.7249  161.2579 C   0  0  0  0  0  0  0  0  0  0  0  0
  128.8272  138.8653  162.0378 C   0  0  0  0  0  0  0  0  0  0  0  0
  128.5514  137.5874  161.5889 C   0  0  0  0  0  0  0  0  0  0  0  0
  129.0255  137.1692  160.3596 C   0  0  0  0  0  0  0  0  0  0  0  0
  128.7247  135.7760  159.8702 C   0  0  2  0  0  0  0  0  0  0  0  0
  128.6266  135.1044  160.7231 H   0  0  0  0  0  0  0  0  0  0  0  0
  129.8162  135.3147  159.0087 N   0  0  0  0  0  0  0  0  0  0  0  0
  129.7624  134.0546  158.4379 C   0  0  0  0  0  0  0  0  0  0  0  0
  129.1397  132.9687  158.9717 N   0  0  0  0  0  0  0  0  0  0  0  0
  128.6582  132.9383  159.8132 H   0  0  0  0  0  0  0  0  0  0  0  0
  129.3188  131.9232  158.0986 C   0  0  0  0  0  0  0  0  0  0  0  0
  130.0451  132.4000  157.0574 C   0  0  0  0  0  0  0  0  0  0  0  0
  130.4809  131.6255  155.8698 C   0  0  0  0  0  0  0  0  0  0  0  0
  130.0707  132.0107  154.5947 C   0  0  0  0  0  0  0  0  0  0  0  0
  130.4840  131.2905  153.4925 C   0  0  0  0  0  0  0  0  0  0  0  0
  131.2945  130.1798  153.6529 C   0  0  0  0  0  0  0  0  0  0  0  0
  131.8502  129.1924  152.1389 Br  0  0  0  0  0  0  0  0  0  0  0  0
  131.6999  129.7896  154.9174 C   0  0  0  0  0  0  0  0  0  0  0  0
  131.2973  130.5066  156.0256 C   0  0  0  0  0  0  0  0  0  0  0  0
  130.2978  133.7122  157.2917 N   0  0  0  0  0  0  0  0  0  0  0  0
  130.7970  134.3023  156.7054 H   0  0  0  0  0  0  0  0  0  0  0  0
  127.4369  135.7856  159.0875 C   0  0  0  0  0  0  0  0  0  0  0  0
  126.2346  135.5635  159.7323 C   0  0  0  0  0  0  0  0  0  0  0  0
  125.0529  135.5767  159.0150 C   0  0  0  0  0  0  0  0  0  0  0  0
  125.0745  135.8028  157.6515 C   0  0  0  0  0  0  0  0  0  0  0  0
  126.2774  136.0198  157.0058 C   0  0  0  0  0  0  0  0  0  0  0  0
  127.4586  136.0108  157.7238 C   0  0  0  0  0  0  0  0  0  0  0  0
  129.7804  138.0271  159.5817 C   0  0  0  0  0  0  0  0  0  0  0  0
  130.0530  139.3064  160.0289 C   0  0  0  0  0  0  0  0  0  0  0  0
  131.0876  140.4361  163.3954 H   0  0  0  0  0  0  0  0  0  0  0  0
  131.9986  140.7642  161.9017 H   0  0  0  0  0  0  0  0  0  0  0  0
  131.4041  142.1152  162.8967 H   0  0  0  0  0  0  0  0  0  0  0  0
  129.9780  141.7894  160.8945 H   0  0  0  0  0  0  0  0  0  0  0  0
  129.0669  141.4614  162.3881 H   0  0  0  0  0  0  0  0  0  0  0  0
  128.4564  139.1922  162.9981 H   0  0  0  0  0  0  0  0  0  0  0  0
  127.9650  136.9157  162.1984 H   0  0  0  0  0  0  0  0  0  0  0  0
  130.5767  135.8922  158.8382 H   0  0  0  0  0  0  0  0  0  0  0  0
  128.9511  130.9147  158.2182 H   0  0  0  0  0  0  0  0  0  0  0  0
  129.4342  132.8741  154.4690 H   0  0  0  0  0  0  0  0  0  0  0  0
  130.1708  131.5909  152.5037 H   0  0  0  0  0  0  0  0  0  0  0  0
  132.3321  128.9222  155.0371 H   0  0  0  0  0  0  0  0  0  0  0  0
  131.6144  130.2016  157.0118 H   0  0  0  0  0  0  0  0  0  0  0  0
  126.2180  135.3831  160.7970 H   0  0  0  0  0  0  0  0  0  0  0  0
  124.1130  135.4077  159.5195 H   0  0  0  0  0  0  0  0  0  0  0  0
  124.1516  135.8104  157.0907 H   0  0  0  0  0  0  0  0  0  0  0  0
  126.2943  136.1964  155.9406 H   0  0  0  0  0  0  0  0  0  0  0  0
  128.3985  136.1802  157.2193 H   0  0  0  0  0  0  0  0  0  0  0  0
  130.1546  137.6989  158.6232 H   0  0  0  0  0  0  0  0  0  0  0  0
  130.6399  139.9778  159.4198 H   0  0  0  0  0  0  0  0  0  0  0  0
  1  2  1  0
  1 32  1  0
  1 33  1  0
  1 34  1  0
  2  3  1  0
  2 35  1  0
  2 36  1  0
  3 31  2  0
  3  4  1  0
  4  5  2  0
  4 37  1  0
  5  6  1  0
  5 38  1  0
  6  7  1  0
  6 30  2  0
  7  8  1  1
  7  9  1  0
  7 24  1  0
  9 39  1  0
 10  9  1  0
 10 22  2  0
 10 11  1  0
 11 12  1  0
 11 13  1  0
 13 14  2  0
 13 40  1  0
 14 15  1  0
 14 22  1  0
 15 21  1  0
 15 16  2  0
 16 17  1  0
 16 41  1  0
 17 18  2  0
 17 42  1  0
 18 19  1  0
 18 20  1  0
 20 21  2  0
 20 43  1  0
 21 44  1  0
 22 23  1  0
 24 29  1  0
 24 25  2  0
 25 26  1  0
 25 45  1  0
 26 27  2  0
 26 46  1  0
 27 28  1  0
 27 47  1  0
 28 29  2  0
 28 48  1  0
 29 49  1  0
 30 31  1  0
 30 50  1  0
 31 51  1  0
M  CHG  1  22   1
M  END
>  <DOCK_score>  (1) 
-60.048454

>  <SMILES>  (1) 
CCc1ccc([C@H](Nc2[nH]cc(-c3ccc(Br)cc3)[nH+]2)c2ccccc2)cc1

$$$$
