CNc1ccc(-c2ccc(-c3c[nH]c(NC4c5cc(O)ccc5-c5ccc(O)cc54)[nH+]3)cc2)cc1
     RDKit          3D

 60 65  0  0  1  0  0  0  0  0999 V2000
  137.0901  141.8337  167.3040 C   0  0  0  0  0  0  0  0  0  0  0  0
  136.6979  142.4733  166.0457 N   0  0  0  0  0  0  0  0  0  0  0  0
  135.8479  141.8085  165.1602 C   0  0  0  0  0  0  0  0  0  0  0  0
  134.5738  141.4337  165.5699 C   0  0  0  0  0  0  0  0  0  0  0  0
  133.7328  140.7778  164.6968 C   0  0  0  0  0  0  0  0  0  0  0  0
  134.1613  140.4899  163.4014 C   0  0  0  0  0  0  0  0  0  0  0  0
  133.2586  139.7841  162.4603 C   0  0  0  0  0  0  0  0  0  0  0  0
  133.7910  138.9604  161.4686 C   0  0  0  0  0  0  0  0  0  0  0  0
  132.9525  138.3054  160.5940 C   0  0  0  0  0  0  0  0  0  0  0  0
  131.5709  138.4656  160.7002 C   0  0  0  0  0  0  0  0  0  0  0  0
  130.6684  137.7610  159.7584 C   0  0  0  0  0  0  0  0  0  0  0  0
  130.2288  138.2372  158.5665 C   0  0  0  0  0  0  0  0  0  0  0  0
  129.4239  137.2663  158.0220 N   0  0  0  0  0  0  0  0  0  0  0  0
  128.9639  137.3130  157.1694 H   0  0  0  0  0  0  0  0  0  0  0  0
  129.3887  136.2278  158.9010 C   0  0  0  0  0  0  0  0  0  0  0  0
  128.6844  135.0486  158.7278 N   0  0  0  0  0  0  0  0  0  0  0  0
  128.7336  134.0079  159.7576 C   0  0  0  0  0  0  0  0  0  0  0  0
  127.3390  133.6741  160.2280 C   0  0  0  0  0  0  0  0  0  0  0  0
  126.3585  134.4353  160.8265 C   0  0  0  0  0  0  0  0  0  0  0  0
  125.1417  133.8584  161.1649 C   0  0  0  0  0  0  0  0  0  0  0  0
  124.1764  134.6076  161.7598 O   0  0  0  0  0  0  0  0  0  0  0  0
  124.9092  132.5175  160.8901 C   0  0  0  0  0  0  0  0  0  0  0  0
  125.8851  131.7543  160.2865 C   0  0  0  0  0  0  0  0  0  0  0  0
  127.1130  132.3285  159.9493 C   0  0  0  0  0  0  0  0  0  0  0  0
  128.3171  131.7486  159.3047 C   0  0  0  0  0  0  0  0  0  0  0  0
  128.5797  130.4564  158.8437 C   0  0  0  0  0  0  0  0  0  0  0  0
  129.7988  130.1626  158.2720 C   0  0  0  0  0  0  0  0  0  0  0  0
  130.7695  131.1479  158.1516 C   0  0  0  0  0  0  0  0  0  0  0  0
  131.9699  130.8539  157.5868 O   0  0  0  0  0  0  0  0  0  0  0  0
  130.5130  132.4339  158.6078 C   0  0  0  0  0  0  0  0  0  0  0  0
  129.2955  132.7318  159.1805 C   0  0  0  0  0  0  0  0  0  0  0  0
  130.1357  136.5258  159.9358 N   0  0  0  0  0  0  0  0  0  0  0  0
  130.2838  135.9546  160.7056 H   0  0  0  0  0  0  0  0  0  0  0  0
  131.0387  139.2932  161.6891 C   0  0  0  0  0  0  0  0  0  0  0  0
  131.8770  139.9443  162.5667 C   0  0  0  0  0  0  0  0  0  0  0  0
  135.4420  140.8617  162.9942 C   0  0  0  0  0  0  0  0  0  0  0  0
  136.2775  141.5226  163.8690 C   0  0  0  0  0  0  0  0  0  0  0  0
  137.7508  142.4994  167.8594 H   0  0  0  0  0  0  0  0  0  0  0  0
  136.2005  141.6256  167.8985 H   0  0  0  0  0  0  0  0  0  0  0  0
  137.6108  140.9004  167.0901 H   0  0  0  0  0  0  0  0  0  0  0  0
  137.0284  143.3589  165.8281 H   0  0  0  0  0  0  0  0  0  0  0  0
  134.2424  141.6569  166.5734 H   0  0  0  0  0  0  0  0  0  0  0  0
  132.7427  140.4868  165.0157 H   0  0  0  0  0  0  0  0  0  0  0  0
  134.8607  138.8365  161.3864 H   0  0  0  0  0  0  0  0  0  0  0  0
  133.3648  137.6683  159.8255 H   0  0  0  0  0  0  0  0  0  0  0  0
  130.4684  139.1948  158.1283 H   0  0  0  0  0  0  0  0  0  0  0  0
  128.1582  134.9114  157.9244 H   0  0  0  0  0  0  0  0  0  0  0  0
  129.3435  134.3403  160.5977 H   0  0  0  0  0  0  0  0  0  0  0  0
  126.5380  135.4794  161.0361 H   0  0  0  0  0  0  0  0  0  0  0  0
  124.4287  135.5295  161.9066 H   0  0  0  0  0  0  0  0  0  0  0  0
  123.9606  132.0712  161.1498 H   0  0  0  0  0  0  0  0  0  0  0  0
  125.7006  130.7115  160.0743 H   0  0  0  0  0  0  0  0  0  0  0  0
  127.8273  129.6873  158.9357 H   0  0  0  0  0  0  0  0  0  0  0  0
  129.9995  129.1627  157.9164 H   0  0  0  0  0  0  0  0  0  0  0  0
  132.5800  131.6031  157.5468 H   0  0  0  0  0  0  0  0  0  0  0  0
  131.2679  133.2006  158.5145 H   0  0  0  0  0  0  0  0  0  0  0  0
  129.9692  139.4205  161.7687 H   0  0  0  0  0  0  0  0  0  0  0  0
  131.4649  140.5824  163.3344 H   0  0  0  0  0  0  0  0  0  0  0  0
  135.7776  140.6358  161.9927 H   0  0  0  0  0  0  0  0  0  0  0  0
  137.2681  141.8143  163.5527 H   0  0  0  0  0  0  0  0  0  0  0  0
  1  2  1  0
  1 38  1  0
  1 39  1  0
  1 40  1  0
  2  3  1  0
  2 41  1  0
  3 37  2  0
  3  4  1  0
  4  5  2  0
  4 42  1  0
  5  6  1  0
  5 43  1  0
  6  7  1  0
  6 36  2  0
  7 35  1  0
  7  8  2  0
  8  9  1  0
  8 44  1  0
  9 10  2  0
  9 45  1  0
 10 11  1  0
 10 34  1  0
 11 32  1  0
 11 12  2  0
 12 13  1  0
 12 46  1  0
 13 14  1  0
 13 15  1  0
 15 16  1  0
 15 32  2  0
 16 17  1  0
 16 47  1  0
 17 31  1  0
 17 18  1  0
 17 48  1  0
 18 24  1  0
 18 19  2  0
 19 20  1  0
 19 49  1  0
 20 21  1  0
 20 22  2  0
 21 50  1  0
 22 23  1  0
 22 51  1  0
 23 24  2  0
 23 52  1  0
 24 25  1  0
 25 31  2  0
 25 26  1  0
 26 27  2  0
 26 53  1  0
 27 28  1  0
 27 54  1  0
 28 29  1  0
 28 30  2  0
 29 55  1  0
 30 31  1  0
 30 56  1  0
 32 33  1  0
 34 35  2  0
 34 57  1  0
 35 58  1  0
 36 37  1  0
 36 59  1  0
 37 60  1  0
M  CHG  1  32   1
M  END
>  <DOCK_score>  (1) 
-46.169235

>  <SMILES>  (1) 
CNc1ccc(-c2ccc(-c3c[nH]c(NC4c5cc(O)ccc5-c5ccc(O)cc54)[nH+]3)cc2)cc1

$$$$
