Nc1ccc(-c2c[nH]c(N[C@@H](C=CC3=COCCC3)c3ccc(O)cc3)[nH+]2)cc1
     RDKit          3D

 54 57  0  0  1  0  0  0  0  0999 V2000
  131.7820  129.6788  151.8712 N   0  0  0  0  0  0  0  0  0  0  0  0
  131.3784  130.2982  153.0564 C   0  0  0  0  0  0  0  0  0  0  0  0
  130.6216  131.4629  153.0080 C   0  0  0  0  0  0  0  0  0  0  0  0
  130.2218  132.0758  154.1767 C   0  0  0  0  0  0  0  0  0  0  0  0
  130.5771  131.5261  155.4075 C   0  0  0  0  0  0  0  0  0  0  0  0
  130.1485  132.1838  156.6663 C   0  0  0  0  0  0  0  0  0  0  0  0
  129.3750  131.6300  157.6326 C   0  0  0  0  0  0  0  0  0  0  0  0
  129.2241  132.5795  158.6153 N   0  0  0  0  0  0  0  0  0  0  0  0
  128.7210  132.4794  159.4386 H   0  0  0  0  0  0  0  0  0  0  0  0
  129.9104  133.6857  158.2195 C   0  0  0  0  0  0  0  0  0  0  0  0
  130.0110  134.8694  158.9303 N   0  0  0  0  0  0  0  0  0  0  0  0
  128.9198  135.2886  159.8133 C   0  0  1  0  0  0  0  0  0  0  0  0
  128.7638  134.5321  160.5823 H   0  0  0  0  0  0  0  0  0  0  0  0
  129.2760  136.6003  160.4641 C   0  0  0  0  0  0  0  0  0  0  0  0
  130.0598  137.4670  159.8284 C   0  0  0  0  0  0  0  0  0  0  0  0
  130.4070  138.7454  160.4627 C   0  0  0  0  0  0  0  0  0  0  0  0
  131.1908  139.5940  159.8083 C   0  0  0  0  0  0  0  0  0  0  0  0
  131.5686  140.7867  160.3138 O   0  0  0  0  0  0  0  0  0  0  0  0
  130.8265  141.3022  161.4223 C   0  0  0  0  0  0  0  0  0  0  0  0
  130.6745  140.1848  162.4633 C   0  0  0  0  0  0  0  0  0  0  0  0
  129.8574  139.0515  161.8296 C   0  0  0  0  0  0  0  0  0  0  0  0
  127.6570  135.4541  159.0077 C   0  0  0  0  0  0  0  0  0  0  0  0
  127.7302  135.8293  157.6789 C   0  0  0  0  0  0  0  0  0  0  0  0
  126.5743  135.9761  156.9367 C   0  0  0  0  0  0  0  0  0  0  0  0
  125.3389  135.7578  157.5288 C   0  0  0  0  0  0  0  0  0  0  0  0
  124.2003  135.9067  156.8021 O   0  0  0  0  0  0  0  0  0  0  0  0
  125.2679  135.3870  158.8639 C   0  0  0  0  0  0  0  0  0  0  0  0
  126.4269  135.2360  159.6002 C   0  0  0  0  0  0  0  0  0  0  0  0
  130.4614  133.4454  157.0546 N   0  0  0  0  0  0  0  0  0  0  0  0
  131.0057  134.0702  156.5504 H   0  0  0  0  0  0  0  0  0  0  0  0
  131.3407  130.3607  155.4538 C   0  0  0  0  0  0  0  0  0  0  0  0
  131.7339  129.7484  154.2825 C   0  0  0  0  0  0  0  0  0  0  0  0
  131.5340  130.0618  151.0150 H   0  0  0  0  0  0  0  0  0  0  0  0
  132.3102  128.8658  151.9041 H   0  0  0  0  0  0  0  0  0  0  0  0
  130.3469  131.8885  152.0542 H   0  0  0  0  0  0  0  0  0  0  0  0
  129.6334  132.9805  154.1386 H   0  0  0  0  0  0  0  0  0  0  0  0
  128.9609  130.6325  157.6324 H   0  0  0  0  0  0  0  0  0  0  0  0
  130.8040  135.4214  158.8435 H   0  0  0  0  0  0  0  0  0  0  0  0
  128.8951  136.8367  161.4467 H   0  0  0  0  0  0  0  0  0  0  0  0
  130.4407  137.2308  158.8459 H   0  0  0  0  0  0  0  0  0  0  0  0
  131.5427  139.3167  158.8256 H   0  0  0  0  0  0  0  0  0  0  0  0
  131.3610  142.1441  161.8626 H   0  0  0  0  0  0  0  0  0  0  0  0
  129.8422  141.6278  161.0859 H   0  0  0  0  0  0  0  0  0  0  0  0
  131.6584  139.8161  162.7531 H   0  0  0  0  0  0  0  0  0  0  0  0
  130.1524  140.5677  163.3402 H   0  0  0  0  0  0  0  0  0  0  0  0
  128.8142  139.3557  161.7422 H   0  0  0  0  0  0  0  0  0  0  0  0
  129.9256  138.1622  162.4563 H   0  0  0  0  0  0  0  0  0  0  0  0
  128.6921  136.0032  157.2197 H   0  0  0  0  0  0  0  0  0  0  0  0
  126.6322  136.2649  155.8977 H   0  0  0  0  0  0  0  0  0  0  0  0
  124.3510  136.1663  155.8832 H   0  0  0  0  0  0  0  0  0  0  0  0
  124.3071  135.2169  159.3272 H   0  0  0  0  0  0  0  0  0  0  0  0
  126.3722  134.9471  160.6393 H   0  0  0  0  0  0  0  0  0  0  0  0
  131.6209  129.9357  156.4062 H   0  0  0  0  0  0  0  0  0  0  0  0
  132.3223  128.8434  154.3179 H   0  0  0  0  0  0  0  0  0  0  0  0
  1  2  1  0
  1 33  1  0
  1 34  1  0
  2 32  2  0
  2  3  1  0
  3  4  2  0
  3 35  1  0
  4  5  1  0
  4 36  1  0
  5  6  1  0
  5 31  2  0
  6 29  1  0
  6  7  2  0
  7  8  1  0
  7 37  1  0
  8  9  1  0
  8 10  1  0
 10 11  1  0
 10 29  2  0
 11 12  1  0
 11 38  1  0
 12 13  1  1
 12 14  1  0
 12 22  1  0
 14 15  2  0
 14 39  1  0
 15 16  1  0
 15 40  1  0
 16 21  1  0
 16 17  2  0
 17 18  1  0
 17 41  1  0
 18 19  1  0
 19 20  1  0
 19 42  1  0
 19 43  1  0
 20 21  1  0
 20 44  1  0
 20 45  1  0
 21 46  1  0
 21 47  1  0
 22 28  1  0
 22 23  2  0
 23 24  1  0
 23 48  1  0
 24 25  2  0
 24 49  1  0
 25 26  1  0
 25 27  1  0
 26 50  1  0
 27 28  2  0
 27 51  1  0
 28 52  1  0
 29 30  1  0
 31 32  1  0
 31 53  1  0
 32 54  1  0
M  CHG  1  29   1
M  END
>  <DOCK_score>  (1) 
-60.315144

>  <SMILES>  (1) 
Nc1ccc(-c2c[nH]c(N[C@@H](C=CC3=COCCC3)c3ccc(O)cc3)[nH+]2)cc1

$$$$
