C[C@H](C=C1C=C(c2ccccc2)C1)CNc1[nH]cc(-c2ccccc2)[nH+]1
     RDKit          3D

 50 53  0  0  1  0  0  0  0  0999 V2000
  129.0623  137.2561  162.4334 C   0  0  0  0  0  0  0  0  0  0  0  0
  130.0048  136.8625  161.2941 C   0  0  2  0  0  0  0  0  0  0  0  0
  130.8825  136.3635  161.7047 H   0  0  0  0  0  0  0  0  0  0  0  0
  130.4336  138.0991  160.5470 C   0  0  0  0  0  0  0  0  0  0  0  0
  131.7246  138.4200  160.4756 C   0  0  0  0  0  0  0  0  0  0  0  0
  132.9630  137.8265  160.9841 C   0  0  0  0  0  0  0  0  0  0  0  0
  133.6843  138.8141  160.4268 C   0  0  0  0  0  0  0  0  0  0  0  0
  135.1311  139.0901  160.3996 C   0  0  0  0  0  0  0  0  0  0  0  0
  135.6992  139.7530  159.3080 C   0  0  0  0  0  0  0  0  0  0  0  0
  137.0537  140.0117  159.2916 C   0  0  0  0  0  0  0  0  0  0  0  0
  137.8515  139.6081  160.3479 C   0  0  0  0  0  0  0  0  0  0  0  0
  137.2971  138.9467  161.4297 C   0  0  0  0  0  0  0  0  0  0  0  0
  135.9435  138.6851  161.4626 C   0  0  0  0  0  0  0  0  0  0  0  0
  132.5043  139.5367  159.8336 C   0  0  0  0  0  0  0  0  0  0  0  0
  129.2799  135.9142  160.3371 C   0  0  0  0  0  0  0  0  0  0  0  0
  130.1822  135.5373  159.2462 N   0  0  0  0  0  0  0  0  0  0  0  0
  130.0518  134.3018  158.6356 C   0  0  0  0  0  0  0  0  0  0  0  0
  129.4270  133.2163  159.1682 N   0  0  0  0  0  0  0  0  0  0  0  0
  128.9965  133.1696  160.0361 H   0  0  0  0  0  0  0  0  0  0  0  0
  129.5157  132.2000  158.2482 C   0  0  0  0  0  0  0  0  0  0  0  0
  130.1988  132.6905  157.1844 C   0  0  0  0  0  0  0  0  0  0  0  0
  130.5399  131.9464  155.9476 C   0  0  0  0  0  0  0  0  0  0  0  0
  130.0730  132.3915  154.7121 C   0  0  0  0  0  0  0  0  0  0  0  0
  130.3987  131.6985  153.5638 C   0  0  0  0  0  0  0  0  0  0  0  0
  131.1766  130.5573  153.6389 C   0  0  0  0  0  0  0  0  0  0  0  0
  131.6381  130.1075  154.8629 C   0  0  0  0  0  0  0  0  0  0  0  0
  131.3238  130.7960  156.0171 C   0  0  0  0  0  0  0  0  0  0  0  0
  130.5145  133.9827  157.4515 N   0  0  0  0  0  0  0  0  0  0  0  0
  131.0043  134.5758  156.8605 H   0  0  0  0  0  0  0  0  0  0  0  0
  129.5788  137.9318  163.1152 H   0  0  0  0  0  0  0  0  0  0  0  0
  128.1846  137.7553  162.0228 H   0  0  0  0  0  0  0  0  0  0  0  0
  128.7522  136.3618  162.9736 H   0  0  0  0  0  0  0  0  0  0  0  0
  129.6944  138.7251  160.0695 H   0  0  0  0  0  0  0  0  0  0  0  0
  133.2002  136.9508  161.5699 H   0  0  0  0  0  0  0  0  0  0  0  0
  135.0784  140.0648  158.4810 H   0  0  0  0  0  0  0  0  0  0  0  0
  137.4937  140.5268  158.4505 H   0  0  0  0  0  0  0  0  0  0  0  0
  138.9122  139.8101  160.3278 H   0  0  0  0  0  0  0  0  0  0  0  0
  137.9261  138.6342  162.2501 H   0  0  0  0  0  0  0  0  0  0  0  0
  135.5121  138.1685  162.3073 H   0  0  0  0  0  0  0  0  0  0  0  0
  132.4785  139.5314  158.7440 H   0  0  0  0  0  0  0  0  0  0  0  0
  132.3172  140.5194  160.2667 H   0  0  0  0  0  0  0  0  0  0  0  0
  128.9697  135.0198  160.8775 H   0  0  0  0  0  0  0  0  0  0  0  0
  128.4021  136.4132  159.9265 H   0  0  0  0  0  0  0  0  0  0  0  0
  130.8712  136.1535  158.9519 H   0  0  0  0  0  0  0  0  0  0  0  0
  129.1210  131.2003  158.3539 H   0  0  0  0  0  0  0  0  0  0  0  0
  129.4615  133.2798  154.6529 H   0  0  0  0  0  0  0  0  0  0  0  0
  130.0416  132.0455  152.6055 H   0  0  0  0  0  0  0  0  0  0  0  0
  131.4249  130.0153  152.7383 H   0  0  0  0  0  0  0  0  0  0  0  0
  132.2457  129.2164  154.9156 H   0  0  0  0  0  0  0  0  0  0  0  0
  131.6850  130.4442  156.9722 H   0  0  0  0  0  0  0  0  0  0  0  0
  1  2  1  0
  1 30  1  0
  1 31  1  0
  1 32  1  0
  2  3  1  1
  2  4  1  0
  2 15  1  0
  4  5  2  0
  4 33  1  0
  5 14  1  0
  5  6  1  0
  6  7  2  0
  6 34  1  0
  7  8  1  0
  7 14  1  0
  8 13  1  0
  8  9  2  0
  9 10  1  0
  9 35  1  0
 10 11  2  0
 10 36  1  0
 11 12  1  0
 11 37  1  0
 12 13  2  0
 12 38  1  0
 13 39  1  0
 14 40  1  0
 14 41  1  0
 15 16  1  0
 15 42  1  0
 15 43  1  0
 16 44  1  0
 17 16  1  0
 17 28  2  0
 17 18  1  0
 18 19  1  0
 18 20  1  0
 20 21  2  0
 20 45  1  0
 21 22  1  0
 21 28  1  0
 22 27  1  0
 22 23  2  0
 23 24  1  0
 23 46  1  0
 24 25  2  0
 24 47  1  0
 25 26  1  0
 25 48  1  0
 26 27  2  0
 26 49  1  0
 27 50  1  0
 28 29  1  0
M  CHG  1  28   1
M  END
>  <DOCK_score>  (1) 
-57.478333

>  <SMILES>  (1) 
C[C@H](C=C1C=C(c2ccccc2)C1)CNc1[nH]cc(-c2ccccc2)[nH+]1

$$$$
