Cc1cccc(-c2cccc(-c3ccc(C[C@@H](Nc4[nH]cc(C)[nH+]4)c4ccccc4)cc3)c2)c1
     RDKit          3D

 64 68  0  0  1  0  0  0  0  0999 V2000
  135.5012  140.9911  167.2716 C   0  0  0  0  0  0  0  0  0  0  0  0
  136.0371  141.4874  165.9534 C   0  0  0  0  0  0  0  0  0  0  0  0
  136.9260  142.5472  165.9244 C   0  0  0  0  0  0  0  0  0  0  0  0
  137.4223  143.0071  164.7183 C   0  0  0  0  0  0  0  0  0  0  0  0
  137.0359  142.4078  163.5364 C   0  0  0  0  0  0  0  0  0  0  0  0
  136.1362  141.3443  163.5593 C   0  0  0  0  0  0  0  0  0  0  0  0
  135.7129  140.6997  162.2914 C   0  0  0  0  0  0  0  0  0  0  0  0
  136.5807  140.6676  161.2006 C   0  0  0  0  0  0  0  0  0  0  0  0
  136.1880  140.0686  160.0201 C   0  0  0  0  0  0  0  0  0  0  0  0
  134.9368  139.4931  159.9145 C   0  0  0  0  0  0  0  0  0  0  0  0
  134.0589  139.5243  160.9967 C   0  0  0  0  0  0  0  0  0  0  0  0
  132.7125  138.9111  160.8798 C   0  0  0  0  0  0  0  0  0  0  0  0
  132.0891  138.3735  162.0040 C   0  0  0  0  0  0  0  0  0  0  0  0
  130.8372  137.8041  161.8896 C   0  0  0  0  0  0  0  0  0  0  0  0
  130.2014  137.7661  160.6616 C   0  0  0  0  0  0  0  0  0  0  0  0
  128.8346  137.1424  160.5428 C   0  0  0  0  0  0  0  0  0  0  0  0
  128.9798  135.6509  160.2345 C   0  0  1  0  0  0  0  0  0  0  0  0
  127.9913  135.1998  160.1486 H   0  0  0  0  0  0  0  0  0  0  0  0
  129.7054  135.4812  158.9732 N   0  0  0  0  0  0  0  0  0  0  0  0
  129.9590  134.2099  158.4858 C   0  0  0  0  0  0  0  0  0  0  0  0
  130.6214  133.9168  157.3344 N   0  0  0  0  0  0  0  0  0  0  0  0
  131.0004  134.5538  156.7087 H   0  0  0  0  0  0  0  0  0  0  0  0
  130.6470  132.5449  157.2226 C   0  0  0  0  0  0  0  0  0  0  0  0
  130.0117  132.0522  158.2992 C   0  0  0  0  0  0  0  0  0  0  0  0
  129.7949  130.5925  158.6046 C   0  0  0  0  0  0  0  0  0  0  0  0
  129.6033  133.0839  159.0576 N   0  0  0  0  0  0  0  0  0  0  0  0
  129.1180  133.0080  159.8940 H   0  0  0  0  0  0  0  0  0  0  0  0
  129.7431  134.9799  161.3473 C   0  0  0  0  0  0  0  0  0  0  0  0
  131.1206  134.8857  161.2817 C   0  0  0  0  0  0  0  0  0  0  0  0
  131.8211  134.2742  162.3044 C   0  0  0  0  0  0  0  0  0  0  0  0
  131.1433  133.7487  163.3886 C   0  0  0  0  0  0  0  0  0  0  0  0
  129.7653  133.8383  163.4519 C   0  0  0  0  0  0  0  0  0  0  0  0
  129.0652  134.4537  162.4310 C   0  0  0  0  0  0  0  0  0  0  0  0
  130.8181  138.2932  159.5414 C   0  0  0  0  0  0  0  0  0  0  0  0
  132.0674  138.8705  159.6456 C   0  0  0  0  0  0  0  0  0  0  0  0
  134.4494  140.1267  162.1888 C   0  0  0  0  0  0  0  0  0  0  0  0
  135.6400  140.8842  164.7775 C   0  0  0  0  0  0  0  0  0  0  0  0
  136.1582  140.2135  167.6613 H   0  0  0  0  0  0  0  0  0  0  0  0
  135.4567  141.8180  167.9803 H   0  0  0  0  0  0  0  0  0  0  0  0
  134.5010  140.5826  167.1265 H   0  0  0  0  0  0  0  0  0  0  0  0
  137.2352  143.0153  166.8472 H   0  0  0  0  0  0  0  0  0  0  0  0
  138.1167  143.8341  164.7016 H   0  0  0  0  0  0  0  0  0  0  0  0
  137.4274  142.7651  162.5954 H   0  0  0  0  0  0  0  0  0  0  0  0
  137.5617  141.1124  161.2789 H   0  0  0  0  0  0  0  0  0  0  0  0
  136.8633  140.0460  159.1777 H   0  0  0  0  0  0  0  0  0  0  0  0
  134.6364  139.0219  158.9902 H   0  0  0  0  0  0  0  0  0  0  0  0
  132.5845  138.4027  162.9632 H   0  0  0  0  0  0  0  0  0  0  0  0
  130.3530  137.3871  162.7603 H   0  0  0  0  0  0  0  0  0  0  0  0
  128.2826  137.6278  159.7380 H   0  0  0  0  0  0  0  0  0  0  0  0
  128.2949  137.2686  161.4814 H   0  0  0  0  0  0  0  0  0  0  0  0
  130.0082  136.2593  158.4795 H   0  0  0  0  0  0  0  0  0  0  0  0
  131.0933  131.9734  156.4221 H   0  0  0  0  0  0  0  0  0  0  0  0
  128.8526  130.2654  158.1650 H   0  0  0  0  0  0  0  0  0  0  0  0
  130.6137  130.0080  158.1853 H   0  0  0  0  0  0  0  0  0  0  0  0
  129.7613  130.4483  159.6845 H   0  0  0  0  0  0  0  0  0  0  0  0
  131.6498  135.2930  160.4328 H   0  0  0  0  0  0  0  0  0  0  0  0
  132.8978  134.2045  162.2552 H   0  0  0  0  0  0  0  0  0  0  0  0
  131.6904  133.2685  164.1865 H   0  0  0  0  0  0  0  0  0  0  0  0
  129.2358  133.4278  164.2988 H   0  0  0  0  0  0  0  0  0  0  0  0
  127.9885  134.5237  162.4804 H   0  0  0  0  0  0  0  0  0  0  0  0
  130.3192  138.2569  158.5841 H   0  0  0  0  0  0  0  0  0  0  0  0
  132.5462  139.2855  158.7710 H   0  0  0  0  0  0  0  0  0  0  0  0
  133.7738  140.1497  163.0312 H   0  0  0  0  0  0  0  0  0  0  0  0
  134.9461  140.0569  164.8013 H   0  0  0  0  0  0  0  0  0  0  0  0
  1  2  1  0
  1 38  1  0
  1 39  1  0
  1 40  1  0
  2 37  2  0
  2  3  1  0
  3  4  2  0
  3 41  1  0
  4  5  1  0
  4 42  1  0
  5  6  2  0
  5 43  1  0
  6  7  1  0
  6 37  1  0
  7 36  1  0
  7  8  2  0
  8  9  1  0
  8 44  1  0
  9 10  2  0
  9 45  1  0
 10 11  1  0
 10 46  1  0
 11 12  1  0
 11 36  2  0
 12 35  1  0
 12 13  2  0
 13 14  1  0
 13 47  1  0
 14 15  2  0
 14 48  1  0
 15 16  1  0
 15 34  1  0
 16 17  1  0
 16 49  1  0
 16 50  1  0
 17 18  1  6
 17 19  1  0
 17 28  1  0
 19 51  1  0
 20 19  1  0
 20 26  2  0
 20 21  1  0
 21 22  1  0
 21 23  1  0
 23 24  2  0
 23 52  1  0
 24 25  1  0
 24 26  1  0
 25 53  1  0
 25 54  1  0
 25 55  1  0
 26 27  1  0
 28 33  1  0
 28 29  2  0
 29 30  1  0
 29 56  1  0
 30 31  2  0
 30 57  1  0
 31 32  1  0
 31 58  1  0
 32 33  2  0
 32 59  1  0
 33 60  1  0
 34 35  2  0
 34 61  1  0
 35 62  1  0
 36 63  1  0
 37 64  1  0
M  CHG  1  26   1
M  END
>  <DOCK_score>  (1) 
-60.783798

>  <SMILES>  (1) 
Cc1cccc(-c2cccc(-c3ccc(C[C@@H](Nc4[nH]cc(C)[nH+]4)c4ccccc4)cc3)c2)c1

$$$$
