C[C@@H](Nc1cccc(C(C=O)CNc2[nH]c3cccc(N)c3[nH+]2)c1)C1CCCC1
     RDKit          3D

 59 62  0  0  1  0  0  0  0  0999 V2000
  134.3588  140.0524  158.5571 C   0  0  0  0  0  0  0  0  0  0  0  0
  133.9598  139.2663  159.8076 C   0  0  1  0  0  0  0  0  0  0  0  0
  133.5757  139.9535  160.5615 H   0  0  0  0  0  0  0  0  0  0  0  0
  132.9224  138.2915  159.4615 N   0  0  0  0  0  0  0  0  0  0  0  0
  131.6729  138.3510  160.0828 C   0  0  0  0  0  0  0  0  0  0  0  0
  131.1652  139.5718  160.5099 C   0  0  0  0  0  0  0  0  0  0  0  0
  129.9294  139.6272  161.1233 C   0  0  0  0  0  0  0  0  0  0  0  0
  129.1969  138.4692  161.3125 C   0  0  0  0  0  0  0  0  0  0  0  0
  129.6992  137.2528  160.8888 C   0  0  0  0  0  0  0  0  0  0  0  0
  128.8977  135.9937  161.0971 C   0  0  1  0  0  0  0  0  0  0  0  0
  128.0468  136.1385  162.3324 C   0  0  0  0  0  0  0  0  0  0  0  0
  126.8447  136.0592  162.2502 O   0  0  0  0  0  0  0  0  0  0  0  0
  127.9975  135.7556  159.8830 C   0  0  0  0  0  0  0  0  0  0  0  0
  128.8245  135.6149  158.6820 N   0  0  0  0  0  0  0  0  0  0  0  0
  129.2793  134.3691  158.2993 C   0  0  0  0  0  0  0  0  0  0  0  0
  129.0171  133.2011  158.9576 N   0  0  0  0  0  0  0  0  0  0  0  0
  128.4868  133.1017  159.7637 H   0  0  0  0  0  0  0  0  0  0  0  0
  129.6488  132.1852  158.2594 C   0  0  0  0  0  0  0  0  0  0  0  0
  129.7439  130.8112  158.4367 C   0  0  0  0  0  0  0  0  0  0  0  0
  130.4674  130.0494  157.5431 C   0  0  0  0  0  0  0  0  0  0  0  0
  131.1040  130.6452  156.4647 C   0  0  0  0  0  0  0  0  0  0  0  0
  131.0209  132.0121  156.2706 C   0  0  0  0  0  0  0  0  0  0  0  0
  131.6647  132.6075  155.1818 N   0  0  0  0  0  0  0  0  0  0  0  0
  130.2883  132.7979  157.1721 C   0  0  0  0  0  0  0  0  0  0  0  0
  130.0217  134.1294  157.2482 N   0  0  0  0  0  0  0  0  0  0  0  0
  130.3354  134.7991  156.6205 H   0  0  0  0  0  0  0  0  0  0  0  0
  130.9327  137.1909  160.2700 C   0  0  0  0  0  0  0  0  0  0  0  0
  135.1836  138.5337  160.3615 C   0  0  0  0  0  0  0  0  0  0  0  0
  134.8122  137.7938  161.6632 C   0  0  0  0  0  0  0  0  0  0  0  0
  136.0676  137.9456  162.5577 C   0  0  0  0  0  0  0  0  0  0  0  0
  136.5402  139.3865  162.2421 C   0  0  0  0  0  0  0  0  0  0  0  0
  136.2821  139.5464  160.7296 C   0  0  0  0  0  0  0  0  0  0  0  0
  135.1306  140.7776  158.8145 H   0  0  0  0  0  0  0  0  0  0  0  0
  134.7429  139.3651  157.8031 H   0  0  0  0  0  0  0  0  0  0  0  0
  133.4868  140.5741  158.1625 H   0  0  0  0  0  0  0  0  0  0  0  0
  133.1020  137.6072  158.7979 H   0  0  0  0  0  0  0  0  0  0  0  0
  131.7366  140.4763  160.3623 H   0  0  0  0  0  0  0  0  0  0  0  0
  129.5341  140.5758  161.4554 H   0  0  0  0  0  0  0  0  0  0  0  0
  128.2307  138.5154  161.7926 H   0  0  0  0  0  0  0  0  0  0  0  0
  129.5745  135.1481  161.2191 H   0  0  0  0  0  0  0  0  0  0  0  0
  128.5123  136.3129  163.2913 H   0  0  0  0  0  0  0  0  0  0  0  0
  127.4177  134.8449  160.0336 H   0  0  0  0  0  0  0  0  0  0  0  0
  127.3207  136.6013  159.7611 H   0  0  0  0  0  0  0  0  0  0  0  0
  129.0525  136.3972  158.1557 H   0  0  0  0  0  0  0  0  0  0  0  0
  129.2517  130.3393  159.2742 H   0  0  0  0  0  0  0  0  0  0  0  0
  130.5390  128.9811  157.6844 H   0  0  0  0  0  0  0  0  0  0  0  0
  131.6680  130.0380  155.7720 H   0  0  0  0  0  0  0  0  0  0  0  0
  132.1712  132.0618  154.5602 H   0  0  0  0  0  0  0  0  0  0  0  0
  131.6048  133.5664  155.0480 H   0  0  0  0  0  0  0  0  0  0  0  0
  131.3226  136.2409  159.9353 H   0  0  0  0  0  0  0  0  0  0  0  0
  135.5604  137.8258  159.6232 H   0  0  0  0  0  0  0  0  0  0  0  0
  133.9486  138.2622  162.1352 H   0  0  0  0  0  0  0  0  0  0  0  0
  134.6133  136.7416  161.4603 H   0  0  0  0  0  0  0  0  0  0  0  0
  136.8307  137.2189  162.2788 H   0  0  0  0  0  0  0  0  0  0  0  0
  135.8086  137.8463  163.6117 H   0  0  0  0  0  0  0  0  0  0  0  0
  137.6021  139.4964  162.4615 H   0  0  0  0  0  0  0  0  0  0  0  0
  135.9574  140.1137  162.8073 H   0  0  0  0  0  0  0  0  0  0  0  0
  137.1924  139.3294  160.1705 H   0  0  0  0  0  0  0  0  0  0  0  0
  135.9435  140.5597  160.5136 H   0  0  0  0  0  0  0  0  0  0  0  0
  1  2  1  0
  1 33  1  0
  1 34  1  0
  1 35  1  0
  2  3  1  1
  2  4  1  0
  2 28  1  0
  4  5  1  0
  4 36  1  0
  5 27  1  0
  5  6  2  0
  6  7  1  0
  6 37  1  0
  7  8  2  0
  7 38  1  0
  8  9  1  0
  8 39  1  0
  9 10  1  0
  9 27  2  0
 10 11  1  0
 10 13  1  0
 10 40  1  1
 11 12  2  0
 11 41  1  0
 13 14  1  0
 13 42  1  0
 13 43  1  0
 14 44  1  0
 15 14  1  0
 15 25  2  0
 15 16  1  0
 16 17  1  0
 16 18  1  0
 18 24  2  0
 18 19  1  0
 19 20  2  0
 19 45  1  0
 20 21  1  0
 20 46  1  0
 21 22  2  0
 21 47  1  0
 22 23  1  0
 22 24  1  0
 23 48  1  0
 23 49  1  0
 24 25  1  0
 25 26  1  0
 27 50  1  0
 28 32  1  0
 28 29  1  0
 28 51  1  0
 29 30  1  0
 29 52  1  0
 29 53  1  0
 30 31  1  0
 30 54  1  0
 30 55  1  0
 31 32  1  0
 31 56  1  0
 31 57  1  0
 32 58  1  0
 32 59  1  0
M  CHG  1  25   1
M  END
>  <DOCK_score>  (1) 
-52.918041

>  <SMILES>  (1) 
C[C@@H](Nc1cccc(C(C=O)CNc2[nH]c3cccc(N)c3[nH+]2)c1)C1CCCC1

$$$$
