C1=CC[C@H](CC(Nc2[nH]cc(-c3ccc(-c4ccccc4)cc3)[nH+]2)c2ccccc2)CC1
     RDKit          3D

 62 66  0  0  1  0  0  0  0  0999 V2000
  135.4315  139.1960  161.6893 C   0  0  0  0  0  0  0  0  0  0  0  0
  134.8598  138.6273  160.6768 C   0  0  0  0  0  0  0  0  0  0  0  0
  133.4108  138.2386  160.6383 C   0  0  0  0  0  0  0  0  0  0  0  0
  132.8353  138.2095  162.0559 C   0  0  2  0  0  0  0  0  0  0  0  0
  133.2509  137.3632  162.6029 H   0  0  0  0  0  0  0  0  0  0  0  0
  131.3120  138.0810  161.9899 C   0  0  0  0  0  0  0  0  0  0  0  0
  130.9339  136.6202  161.7368 C   0  0  2  0  0  0  0  0  0  0  0  0
  131.0849  136.3165  160.3116 N   0  0  0  0  0  0  0  0  0  0  0  0
  130.7983  135.0468  159.8403 C   0  0  0  0  0  0  0  0  0  0  0  0
  130.3701  133.9989  160.5958 N   0  0  0  0  0  0  0  0  0  0  0  0
  130.2123  134.0072  161.5529 H   0  0  0  0  0  0  0  0  0  0  0  0
  130.1970  132.9289  159.7522 C   0  0  0  0  0  0  0  0  0  0  0  0
  130.5330  133.3508  158.5073 C   0  0  0  0  0  0  0  0  0  0  0  0
  130.5044  132.5327  157.2715 C   0  0  0  0  0  0  0  0  0  0  0  0
  130.2545  133.1380  156.0398 C   0  0  0  0  0  0  0  0  0  0  0  0
  130.2285  132.3777  154.8917 C   0  0  0  0  0  0  0  0  0  0  0  0
  130.4518  131.0028  154.9603 C   0  0  0  0  0  0  0  0  0  0  0  0
  130.4236  130.1843  153.7238 C   0  0  0  0  0  0  0  0  0  0  0  0
  131.2061  129.0349  153.6279 C   0  0  0  0  0  0  0  0  0  0  0  0
  131.1806  128.2806  152.4724 C   0  0  0  0  0  0  0  0  0  0  0  0
  130.3721  128.6573  151.4151 C   0  0  0  0  0  0  0  0  0  0  0  0
  129.5930  129.7968  151.5049 C   0  0  0  0  0  0  0  0  0  0  0  0
  129.6148  130.5620  152.6533 C   0  0  0  0  0  0  0  0  0  0  0  0
  130.6960  130.3966  156.1923 C   0  0  0  0  0  0  0  0  0  0  0  0
  130.7277  131.1573  157.3400 C   0  0  0  0  0  0  0  0  0  0  0  0
  130.8944  134.6560  158.5930 N   0  0  0  0  0  0  0  0  0  0  0  0
  131.1781  135.2110  157.8499 H   0  0  0  0  0  0  0  0  0  0  0  0
  129.5026  136.3930  162.1500 C   0  0  0  0  0  0  0  0  0  0  0  0
  129.2108  135.9978  163.4421 C   0  0  0  0  0  0  0  0  0  0  0  0
  127.8975  135.7930  163.8224 C   0  0  0  0  0  0  0  0  0  0  0  0
  126.8768  135.9756  162.9083 C   0  0  0  0  0  0  0  0  0  0  0  0
  127.1691  136.3659  161.6147 C   0  0  0  0  0  0  0  0  0  0  0  0
  128.4820  136.5742  161.2356 C   0  0  0  0  0  0  0  0  0  0  0  0
  133.2122  139.5168  162.7643 C   0  0  0  0  0  0  0  0  0  0  0  0
  134.7277  139.5373  162.9699 C   0  0  0  0  0  0  0  0  0  0  0  0
  136.4802  139.4403  161.6073 H   0  0  0  0  0  0  0  0  0  0  0  0
  135.4630  138.4201  159.8052 H   0  0  0  0  0  0  0  0  0  0  0  0
  133.3137  137.2505  160.1885 H   0  0  0  0  0  0  0  0  0  0  0  0
  132.8584  138.9621  160.0387 H   0  0  0  0  0  0  0  0  0  0  0  0
  130.9299  138.7009  161.1787 H   0  0  0  0  0  0  0  0  0  0  0  0
  130.8784  138.4102  162.9341 H   0  0  0  0  0  0  0  0  0  0  0  0
  131.5874  135.9698  162.3181 H   0  0  0  0  0  0  0  0  0  0  0  0
  131.3857  137.0051  159.6982 H   0  0  0  0  0  0  0  0  0  0  0  0
  129.8600  131.9404  160.0275 H   0  0  0  0  0  0  0  0  0  0  0  0
  130.0813  134.2026  155.9866 H   0  0  0  0  0  0  0  0  0  0  0  0
  130.0353  132.8464  153.9379 H   0  0  0  0  0  0  0  0  0  0  0  0
  131.8346  128.7376  154.4543 H   0  0  0  0  0  0  0  0  0  0  0  0
  131.7903  127.3925  152.3951 H   0  0  0  0  0  0  0  0  0  0  0  0
  130.3524  128.0618  150.5143 H   0  0  0  0  0  0  0  0  0  0  0  0
  128.9667  130.0884  150.6748 H   0  0  0  0  0  0  0  0  0  0  0  0
  129.0066  131.4519  152.7221 H   0  0  0  0  0  0  0  0  0  0  0  0
  130.8645  129.3312  156.2459 H   0  0  0  0  0  0  0  0  0  0  0  0
  130.9212  130.6886  158.2935 H   0  0  0  0  0  0  0  0  0  0  0  0
  130.0085  135.8518  164.1554 H   0  0  0  0  0  0  0  0  0  0  0  0
  127.6693  135.4879  164.8329 H   0  0  0  0  0  0  0  0  0  0  0  0
  125.8512  135.8132  163.2045 H   0  0  0  0  0  0  0  0  0  0  0  0
  126.3717  136.5082  160.9004 H   0  0  0  0  0  0  0  0  0  0  0  0
  128.7103  136.8791  160.2249 H   0  0  0  0  0  0  0  0  0  0  0  0
  132.9183  140.3658  162.1472 H   0  0  0  0  0  0  0  0  0  0  0  0
  132.7079  139.5692  163.7292 H   0  0  0  0  0  0  0  0  0  0  0  0
  134.9946  138.8076  163.7345 H   0  0  0  0  0  0  0  0  0  0  0  0
  135.0353  140.5302  163.2979 H   0  0  0  0  0  0  0  0  0  0  0  0
  1 35  1  0
  1  2  2  0
  1 36  1  0
  2  3  1  0
  2 37  1  0
  3  4  1  0
  3 38  1  0
  3 39  1  0
  4  5  1  1
  4  6  1  0
  4 34  1  0
  6  7  1  0
  6 40  1  0
  6 41  1  0
  7  8  1  0
  7 28  1  0
  7 42  1  1
  8 43  1  0
  9  8  1  0
  9 26  2  0
  9 10  1  0
 10 11  1  0
 10 12  1  0
 12 13  2  0
 12 44  1  0
 13 14  1  0
 13 26  1  0
 14 25  1  0
 14 15  2  0
 15 16  1  0
 15 45  1  0
 16 17  2  0
 16 46  1  0
 17 18  1  0
 17 24  1  0
 18 23  1  0
 18 19  2  0
 19 20  1  0
 19 47  1  0
 20 21  2  0
 20 48  1  0
 21 22  1  0
 21 49  1  0
 22 23  2  0
 22 50  1  0
 23 51  1  0
 24 25  2  0
 24 52  1  0
 25 53  1  0
 26 27  1  0
 28 33  1  0
 28 29  2  0
 29 30  1  0
 29 54  1  0
 30 31  2  0
 30 55  1  0
 31 32  1  0
 31 56  1  0
 32 33  2  0
 32 57  1  0
 33 58  1  0
 34 35  1  0
 34 59  1  0
 34 60  1  0
 35 61  1  0
 35 62  1  0
M  CHG  1  26   1
M  END
>  <DOCK_score>  (1) 
-58.687363

>  <SMILES>  (1) 
C1=CC[C@H](CC(Nc2[nH]cc(-c3ccc(-c4ccccc4)cc3)[nH+]2)c2ccccc2)CC1

$$$$
