O=C1CC[C@H](NC(NC2CC2)=[NH+][C@H]2COc3cc(F)ccc3C2)CN1
     RDKit          3D

 49 52  0  0  1  0  0  0  0  0999 V2000
  123.7074  133.6585  161.4662 O   0  0  0  0  0  0  0  0  0  0  0  0
  124.8770  133.8625  161.2184 C   0  0  0  0  0  0  0  0  0  0  0  0
  125.6814  132.7459  160.6172 C   0  0  0  0  0  0  0  0  0  0  0  0
  127.1758  133.0324  160.7835 C   0  0  0  0  0  0  0  0  0  0  0  0
  127.4489  134.4677  160.3177 C   0  0  2  0  0  0  0  0  0  0  0  0
  127.0422  134.6108  159.3165 H   0  0  0  0  0  0  0  0  0  0  0  0
  128.8931  134.7127  160.3012 N   0  0  0  0  0  0  0  0  0  0  0  0
  129.6217  134.4517  159.1649 C   0  0  0  0  0  0  0  0  0  0  0  0
  128.9950  133.9608  158.0441 N   0  0  0  0  0  0  0  0  0  0  0  0
  129.7254  133.0924  157.1175 C   0  0  0  0  0  0  0  0  0  0  0  0
  129.0728  131.7635  156.7314 C   0  0  0  0  0  0  0  0  0  0  0  0
  130.2810  131.7783  157.6702 C   0  0  0  0  0  0  0  0  0  0  0  0
  130.9068  134.6699  159.1502 N   0  0  0  0  0  0  0  0  0  0  0  0
  131.3479  134.9135  158.3214 H   0  0  0  0  0  0  0  0  0  0  0  0
  131.6837  134.5527  160.3866 C   0  0  1  0  0  0  0  0  0  0  0  0
  131.2222  133.8141  161.0420 H   0  0  0  0  0  0  0  0  0  0  0  0
  133.1199  134.1266  160.0564 C   0  0  0  0  0  0  0  0  0  0  0  0
  133.8214  133.9205  161.2835 O   0  0  0  0  0  0  0  0  0  0  0  0
  133.7458  134.8931  162.2290 C   0  0  0  0  0  0  0  0  0  0  0  0
  134.6824  134.8923  163.2574 C   0  0  0  0  0  0  0  0  0  0  0  0
  134.6336  135.8600  164.2426 C   0  0  0  0  0  0  0  0  0  0  0  0
  135.5443  135.8560  165.2407 F   0  0  0  0  0  0  0  0  0  0  0  0
  133.6492  136.8338  164.2059 C   0  0  0  0  0  0  0  0  0  0  0  0
  132.7200  136.8367  163.1847 C   0  0  0  0  0  0  0  0  0  0  0  0
  132.7658  135.8696  162.1940 C   0  0  0  0  0  0  0  0  0  0  0  0
  131.7355  135.9092  161.0939 C   0  0  0  0  0  0  0  0  0  0  0  0
  126.7749  135.4379  161.2887 C   0  0  0  0  0  0  0  0  0  0  0  0
  125.3798  135.0664  161.4940 N   0  0  0  0  0  0  0  0  0  0  0  0
  125.4451  132.6597  159.5567 H   0  0  0  0  0  0  0  0  0  0  0  0
  125.4341  131.8105  161.1192 H   0  0  0  0  0  0  0  0  0  0  0  0
  127.7531  132.3339  160.1778 H   0  0  0  0  0  0  0  0  0  0  0  0
  127.4552  132.9275  161.8319 H   0  0  0  0  0  0  0  0  0  0  0  0
  129.3354  135.0590  161.0920 H   0  0  0  0  0  0  0  0  0  0  0  0
  128.0692  134.1893  157.8668 H   0  0  0  0  0  0  0  0  0  0  0  0
  130.3117  133.6056  156.3553 H   0  0  0  0  0  0  0  0  0  0  0  0
  128.1000  131.5353  157.1669 H   0  0  0  0  0  0  0  0  0  0  0  0
  129.2296  131.4023  155.7151 H   0  0  0  0  0  0  0  0  0  0  0  0
  131.2326  131.4268  157.2712 H   0  0  0  0  0  0  0  0  0  0  0  0
  130.1029  131.5598  158.7232 H   0  0  0  0  0  0  0  0  0  0  0  0
  133.1051  133.2003  159.4820 H   0  0  0  0  0  0  0  0  0  0  0  0
  133.6117  134.9093  159.4790 H   0  0  0  0  0  0  0  0  0  0  0  0
  135.4501  134.1332  163.2861 H   0  0  0  0  0  0  0  0  0  0  0  0
  133.6087  137.5906  164.9754 H   0  0  0  0  0  0  0  0  0  0  0  0
  131.9536  137.5972  163.1580 H   0  0  0  0  0  0  0  0  0  0  0  0
  132.0027  136.6835  160.3746 H   0  0  0  0  0  0  0  0  0  0  0  0
  130.7580  136.1331  161.5212 H   0  0  0  0  0  0  0  0  0  0  0  0
  127.2970  135.4111  162.2452 H   0  0  0  0  0  0  0  0  0  0  0  0
  126.8257  136.4479  160.8822 H   0  0  0  0  0  0  0  0  0  0  0  0
  124.7791  135.7390  161.8514 H   0  0  0  0  0  0  0  0  0  0  0  0
  1  2  2  0
  2 28  1  0
  2  3  1  0
  3  4  1  0
  3 29  1  0
  3 30  1  0
  4  5  1  0
  4 31  1  0
  4 32  1  0
  5  6  1  6
  5  7  1  0
  5 27  1  0
  7 33  1  0
  8  7  1  0
  8  9  1  0
  8 13  2  0
  9 10  1  0
  9 34  1  0
 10 12  1  0
 10 11  1  0
 10 35  1  0
 11 12  1  0
 11 36  1  0
 11 37  1  0
 12 38  1  0
 12 39  1  0
 13 14  1  0
 13 15  1  0
 15 16  1  1
 15 26  1  0
 15 17  1  0
 17 18  1  0
 17 40  1  0
 17 41  1  0
 18 19  1  0
 19 25  2  0
 19 20  1  0
 20 21  2  0
 20 42  1  0
 21 22  1  0
 21 23  1  0
 23 24  2  0
 23 43  1  0
 24 25  1  0
 24 44  1  0
 25 26  1  0
 26 45  1  0
 26 46  1  0
 27 28  1  0
 27 47  1  0
 27 48  1  0
 28 49  1  0
M  CHG  1  13   1
M  END
>  <DOCK_score>  (1) 
-45.115173

>  <SMILES>  (1) 
O=C1CC[C@H](NC(NC2CC2)=[NH+][C@H]2COc3cc(F)ccc3C2)CN1

$$$$
