O[C@@H]1[C@H](O)C=C[C@H]1[NH+]=C(NC1CC=CC1)N[C@@H]1CCc2ccc(-c3ccccc3)cc21
     RDKit          3D

 61 65  0  0  1  0  0  0  0  0999 V2000
  126.3566  135.7595  162.5364 O   0  0  0  0  0  0  0  0  0  0  0  0
  126.3141  135.0499  161.2968 C   0  0  2  0  0  0  0  0  0  0  0  0
  126.4725  135.7254  160.4561 H   0  0  0  0  0  0  0  0  0  0  0  0
  124.9836  134.2766  161.1442 C   0  0  2  0  0  0  0  0  0  0  0  0
  124.6911  134.2273  160.0953 H   0  0  0  0  0  0  0  0  0  0  0  0
  123.9560  134.8960  161.9203 O   0  0  0  0  0  0  0  0  0  0  0  0
  125.2809  132.8927  161.6732 C   0  0  0  0  0  0  0  0  0  0  0  0
  126.5672  132.6847  161.7486 C   0  0  0  0  0  0  0  0  0  0  0  0
  127.3424  133.8951  161.2824 C   0  0  1  0  0  0  0  0  0  0  0  0
  128.1632  134.1092  161.9669 H   0  0  0  0  0  0  0  0  0  0  0  0
  127.8527  133.6829  159.9256 N   0  0  0  0  0  0  0  0  0  0  0  0
  127.4029  133.0636  159.3297 H   0  0  0  0  0  0  0  0  0  0  0  0
  128.9108  134.3264  159.5192 C   0  0  0  0  0  0  0  0  0  0  0  0
  129.3896  134.1272  158.2460 N   0  0  0  0  0  0  0  0  0  0  0  0
  129.2036  132.8317  157.5877 C   0  0  0  0  0  0  0  0  0  0  0  0
  130.0396  131.7313  158.2815 C   0  0  0  0  0  0  0  0  0  0  0  0
  130.5284  130.8523  157.1530 C   0  0  0  0  0  0  0  0  0  0  0  0
  130.4078  131.4548  156.0014 C   0  0  0  0  0  0  0  0  0  0  0  0
  129.8194  132.8364  156.1692 C   0  0  0  0  0  0  0  0  0  0  0  0
  129.5482  135.2041  160.3639 N   0  0  0  0  0  0  0  0  0  0  0  0
  130.9917  135.4219  160.2406 C   0  0  2  0  0  0  0  0  0  0  0  0
  131.2325  135.8038  159.2485 H   0  0  0  0  0  0  0  0  0  0  0  0
  131.7583  134.1097  160.5100 C   0  0  0  0  0  0  0  0  0  0  0  0
  133.0392  134.6117  161.2092 C   0  0  0  0  0  0  0  0  0  0  0  0
  132.6476  135.9205  161.8623 C   0  0  0  0  0  0  0  0  0  0  0  0
  133.2746  136.6439  162.8648 C   0  0  0  0  0  0  0  0  0  0  0  0
  132.7316  137.8293  163.3130 C   0  0  0  0  0  0  0  0  0  0  0  0
  131.5482  138.3051  162.7519 C   0  0  0  0  0  0  0  0  0  0  0  0
  130.9599  139.5829  163.2245 C   0  0  0  0  0  0  0  0  0  0  0  0
  129.5809  139.7773  163.1778 C   0  0  0  0  0  0  0  0  0  0  0  0
  129.0387  140.9654  163.6244 C   0  0  0  0  0  0  0  0  0  0  0  0
  129.8624  141.9667  164.1063 C   0  0  0  0  0  0  0  0  0  0  0  0
  131.2324  141.7812  164.1497 C   0  0  0  0  0  0  0  0  0  0  0  0
  131.7849  140.5948  163.7114 C   0  0  0  0  0  0  0  0  0  0  0  0
  130.9183  137.5740  161.7488 C   0  0  0  0  0  0  0  0  0  0  0  0
  131.4702  136.3861  161.3051 C   0  0  0  0  0  0  0  0  0  0  0  0
  127.2152  136.1589  162.7319 H   0  0  0  0  0  0  0  0  0  0  0  0
  123.7737  135.8126  161.6716 H   0  0  0  0  0  0  0  0  0  0  0  0
  124.5279  132.1708  161.9526 H   0  0  0  0  0  0  0  0  0  0  0  0
  127.0184  131.7677  162.0979 H   0  0  0  0  0  0  0  0  0  0  0  0
  129.8507  134.8445  157.7836 H   0  0  0  0  0  0  0  0  0  0  0  0
  128.1486  132.5596  157.5554 H   0  0  0  0  0  0  0  0  0  0  0  0
  130.8836  132.1731  158.8113 H   0  0  0  0  0  0  0  0  0  0  0  0
  129.4172  131.1578  158.9682 H   0  0  0  0  0  0  0  0  0  0  0  0
  130.9246  129.8560  157.2826 H   0  0  0  0  0  0  0  0  0  0  0  0
  130.6910  131.0225  155.0531 H   0  0  0  0  0  0  0  0  0  0  0  0
  129.0471  133.0137  155.4206 H   0  0  0  0  0  0  0  0  0  0  0  0
  130.6005  133.5932  156.0968 H   0  0  0  0  0  0  0  0  0  0  0  0
  129.0421  135.6793  161.0414 H   0  0  0  0  0  0  0  0  0  0  0  0
  131.1875  133.4561  161.1698 H   0  0  0  0  0  0  0  0  0  0  0  0
  131.9969  133.6016  159.5758 H   0  0  0  0  0  0  0  0  0  0  0  0
  133.3640  133.8951  161.9634 H   0  0  0  0  0  0  0  0  0  0  0  0
  133.8299  134.7761  160.4773 H   0  0  0  0  0  0  0  0  0  0  0  0
  134.1939  136.2771  163.2970 H   0  0  0  0  0  0  0  0  0  0  0  0
  133.2241  138.3894  164.0942 H   0  0  0  0  0  0  0  0  0  0  0  0
  128.9373  138.9982  162.7972 H   0  0  0  0  0  0  0  0  0  0  0  0
  127.9695  141.1156  163.5927 H   0  0  0  0  0  0  0  0  0  0  0  0
  129.4343  142.8965  164.4503 H   0  0  0  0  0  0  0  0  0  0  0  0
  131.8709  142.5663  164.5269 H   0  0  0  0  0  0  0  0  0  0  0  0
  132.8547  140.4507  163.7461 H   0  0  0  0  0  0  0  0  0  0  0  0
  129.9992  137.9372  161.3132 H   0  0  0  0  0  0  0  0  0  0  0  0
  1  2  1  0
  1 37  1  0
  2  3  1  6
  2  9  1  0
  2  4  1  0
  4  5  1  6
  4  6  1  0
  4  7  1  0
  6 38  1  0
  7  8  2  0
  7 39  1  0
  8  9  1  0
  8 40  1  0
  9 10  1  1
  9 11  1  0
 11 12  1  0
 13 11  2  0
 13 14  1  0
 13 20  1  0
 14 15  1  0
 14 41  1  0
 15 19  1  0
 15 16  1  0
 15 42  1  0
 16 17  1  0
 16 43  1  0
 16 44  1  0
 17 18  2  0
 17 45  1  0
 18 19  1  0
 18 46  1  0
 19 47  1  0
 19 48  1  0
 20 21  1  0
 20 49  1  0
 21 22  1  6
 21 36  1  0
 21 23  1  0
 23 24  1  0
 23 50  1  0
 23 51  1  0
 24 25  1  0
 24 52  1  0
 24 53  1  0
 25 36  2  0
 25 26  1  0
 26 27  2  0
 26 54  1  0
 27 28  1  0
 27 55  1  0
 28 29  1  0
 28 35  2  0
 29 34  1  0
 29 30  2  0
 30 31  1  0
 30 56  1  0
 31 32  2  0
 31 57  1  0
 32 33  1  0
 32 58  1  0
 33 34  2  0
 33 59  1  0
 34 60  1  0
 35 36  1  0
 35 61  1  0
M  CHG  1  11   1
M  END
>  <DOCK_score>  (1) 
-47.731606

>  <SMILES>  (1) 
O[C@@H]1[C@H](O)C=C[C@H]1[NH+]=C(NC1CC=CC1)N[C@@H]1CCc2ccc(-c3ccccc3)cc21

$$$$
