CCc1ccc(-c2c[nH]c(N[C@H](c3ccc(Cl)cc3)c3ccc(N4CC=C(C)C4)cc3)[nH+]2)cc1
     RDKit          3D

 64 68  0  0  1  0  0  0  0  0999 V2000
  132.1564  129.8307  152.9629 C   0  0  0  0  0  0  0  0  0  0  0  0
  130.7435  129.8671  153.5491 C   0  0  0  0  0  0  0  0  0  0  0  0
  130.7450  130.6893  154.8120 C   0  0  0  0  0  0  0  0  0  0  0  0
  130.5049  132.0496  154.7493 C   0  0  0  0  0  0  0  0  0  0  0  0
  130.4992  132.8060  155.9036 C   0  0  0  0  0  0  0  0  0  0  0  0
  130.7471  132.1983  157.1332 C   0  0  0  0  0  0  0  0  0  0  0  0
  130.7479  133.0070  158.3767 C   0  0  0  0  0  0  0  0  0  0  0  0
  130.4122  132.5674  159.6147 C   0  0  0  0  0  0  0  0  0  0  0  0
  130.5512  133.6349  160.4681 N   0  0  0  0  0  0  0  0  0  0  0  0
  130.3830  133.6324  161.4234 H   0  0  0  0  0  0  0  0  0  0  0  0
  130.9681  134.6966  159.7258 C   0  0  0  0  0  0  0  0  0  0  0  0
  131.2267  135.9673  160.2103 N   0  0  0  0  0  0  0  0  0  0  0  0
  131.0551  136.2566  161.6361 C   0  0  2  0  0  0  0  0  0  0  0  0
  130.1608  135.7536  162.0038 H   0  0  0  0  0  0  0  0  0  0  0  0
  130.9119  137.7437  161.8333 C   0  0  0  0  0  0  0  0  0  0  0  0
  131.3406  138.3293  163.0099 C   0  0  0  0  0  0  0  0  0  0  0  0
  131.2149  139.6940  163.1891 C   0  0  0  0  0  0  0  0  0  0  0  0
  130.6493  140.4726  162.1949 C   0  0  0  0  0  0  0  0  0  0  0  0
  130.4845  142.1858  162.4215 Cl  0  0  0  0  0  0  0  0  0  0  0  0
  130.2153  139.8853  161.0199 C   0  0  0  0  0  0  0  0  0  0  0  0
  130.3468  138.5213  160.8398 C   0  0  0  0  0  0  0  0  0  0  0  0
  132.2583  135.7625  162.3974 C   0  0  0  0  0  0  0  0  0  0  0  0
  133.4971  135.7301  161.7839 C   0  0  0  0  0  0  0  0  0  0  0  0
  134.6027  135.2831  162.4804 C   0  0  0  0  0  0  0  0  0  0  0  0
  134.4672  134.8554  163.7951 C   0  0  0  0  0  0  0  0  0  0  0  0
  135.5824  134.3978  164.5008 N   0  0  0  0  0  0  0  0  0  0  0  0
  135.5119  134.8019  165.9251 C   0  0  0  0  0  0  0  0  0  0  0  0
  136.9402  135.0782  166.3340 C   0  0  0  0  0  0  0  0  0  0  0  0
  137.6793  135.2279  165.2633 C   0  0  0  0  0  0  0  0  0  0  0  0
  139.1585  135.5163  165.2602 C   0  0  0  0  0  0  0  0  0  0  0  0
  136.8191  135.0667  164.0313 C   0  0  0  0  0  0  0  0  0  0  0  0
  133.2201  134.8841  164.4064 C   0  0  0  0  0  0  0  0  0  0  0  0
  132.1197  135.3374  163.7060 C   0  0  0  0  0  0  0  0  0  0  0  0
  131.0902  134.3160  158.4775 N   0  0  0  0  0  0  0  0  0  0  0  0
  131.3769  134.8806  157.7428 H   0  0  0  0  0  0  0  0  0  0  0  0
  130.9937  130.8277  157.1899 C   0  0  0  0  0  0  0  0  0  0  0  0
  130.9914  130.0802  156.0299 C   0  0  0  0  0  0  0  0  0  0  0  0
  132.1553  129.2364  152.0492 H   0  0  0  0  0  0  0  0  0  0  0  0
  132.4816  130.8459  152.7356 H   0  0  0  0  0  0  0  0  0  0  0  0
  132.8384  129.3839  153.6862 H   0  0  0  0  0  0  0  0  0  0  0  0
  130.0614  130.3137  152.8258 H   0  0  0  0  0  0  0  0  0  0  0  0
  130.4183  128.8518  153.7764 H   0  0  0  0  0  0  0  0  0  0  0  0
  130.3176  132.5204  153.7954 H   0  0  0  0  0  0  0  0  0  0  0  0
  130.3071  133.8677  155.8539 H   0  0  0  0  0  0  0  0  0  0  0  0
  130.0957  131.5692  159.8792 H   0  0  0  0  0  0  0  0  0  0  0  0
  131.5215  136.6663  159.6057 H   0  0  0  0  0  0  0  0  0  0  0  0
  131.7780  137.7206  163.7876 H   0  0  0  0  0  0  0  0  0  0  0  0
  131.5539  140.1518  164.1066 H   0  0  0  0  0  0  0  0  0  0  0  0
  129.7735  140.4926  160.2438 H   0  0  0  0  0  0  0  0  0  0  0  0
  130.0083  138.0629  159.9223 H   0  0  0  0  0  0  0  0  0  0  0  0
  133.6008  136.0583  160.7603 H   0  0  0  0  0  0  0  0  0  0  0  0
  135.5708  135.2620  162.0022 H   0  0  0  0  0  0  0  0  0  0  0  0
  134.9075  135.7024  166.0328 H   0  0  0  0  0  0  0  0  0  0  0  0
  135.0966  133.9933  166.5268 H   0  0  0  0  0  0  0  0  0  0  0  0
  137.2964  135.1427  167.3517 H   0  0  0  0  0  0  0  0  0  0  0  0
  139.3184  136.5945  165.2648 H   0  0  0  0  0  0  0  0  0  0  0  0
  139.6161  135.0773  166.1468 H   0  0  0  0  0  0  0  0  0  0  0  0
  139.6108  135.0857  164.3668 H   0  0  0  0  0  0  0  0  0  0  0  0
  137.3279  134.4454  163.2943 H   0  0  0  0  0  0  0  0  0  0  0  0
  136.5825  136.0412  163.6042 H   0  0  0  0  0  0  0  0  0  0  0  0
  133.1114  134.5524  165.4285 H   0  0  0  0  0  0  0  0  0  0  0  0
  131.1499  135.3602  164.1808 H   0  0  0  0  0  0  0  0  0  0  0  0
  131.1867  130.3517  158.1399 H   0  0  0  0  0  0  0  0  0  0  0  0
  131.1820  129.0180  156.0728 H   0  0  0  0  0  0  0  0  0  0  0  0
  1  2  1  0
  1 38  1  0
  1 39  1  0
  1 40  1  0
  2  3  1  0
  2 41  1  0
  2 42  1  0
  3 37  2  0
  3  4  1  0
  4  5  2  0
  4 43  1  0
  5  6  1  0
  5 44  1  0
  6  7  1  0
  6 36  2  0
  7 34  1  0
  7  8  2  0
  8  9  1  0
  8 45  1  0
  9 10  1  0
  9 11  1  0
 11 12  1  0
 11 34  2  0
 12 13  1  0
 12 46  1  0
 13 14  1  1
 13 15  1  0
 13 22  1  0
 15 21  1  0
 15 16  2  0
 16 17  1  0
 16 47  1  0
 17 18  2  0
 17 48  1  0
 18 19  1  0
 18 20  1  0
 20 21  2  0
 20 49  1  0
 21 50  1  0
 22 33  1  0
 22 23  2  0
 23 24  1  0
 23 51  1  0
 24 25  2  0
 24 52  1  0
 25 26  1  0
 25 32  1  0
 26 31  1  0
 26 27  1  0
 27 28  1  0
 27 53  1  0
 27 54  1  0
 28 29  2  0
 28 55  1  0
 29 30  1  0
 29 31  1  0
 30 56  1  0
 30 57  1  0
 30 58  1  0
 31 59  1  0
 31 60  1  0
 32 33  2  0
 32 61  1  0
 33 62  1  0
 34 35  1  0
 36 37  1  0
 36 63  1  0
 37 64  1  0
M  CHG  1  34   1
M  END
>  <DOCK_score>  (1) 
-58.415192

>  <SMILES>  (1) 
CCc1ccc(-c2c[nH]c(N[C@H](c3ccc(Cl)cc3)c3ccc(N4CC=C(C)C4)cc3)[nH+]2)cc1

$$$$
