C[C@H]1C(C(Nc2[nH]cc(-c3ccc(-c4ccccc4)cc3)[nH+]2)[C@H](C(N)=O)c2ccc(F)cc2)[C@@H]1C
     RDKit          3D

 65 69  0  0  1  0  0  0  0  0999 V2000
  133.3311  138.0843  163.9754 C   0  0  0  0  0  0  0  0  0  0  0  0
  132.9413  136.7572  163.3215 C   0  0  1  0  0  0  0  0  0  0  0  0
  132.3787  136.0694  163.9527 H   0  0  0  0  0  0  0  0  0  0  0  0
  132.6111  136.7758  161.8277 C   0  0  0  0  0  0  0  0  0  0  0  0
  131.5164  135.8275  161.3342 C   0  0  2  0  0  0  0  0  0  0  0  0
  131.6588  135.6264  159.8902 N   0  0  0  0  0  0  0  0  0  0  0  0
  131.2628  134.4310  159.3155 C   0  0  0  0  0  0  0  0  0  0  0  0
  130.7349  133.3679  159.9814 N   0  0  0  0  0  0  0  0  0  0  0  0
  130.5694  133.3123  160.9355 H   0  0  0  0  0  0  0  0  0  0  0  0
  130.4796  132.3882  159.0532 C   0  0  0  0  0  0  0  0  0  0  0  0
  130.8587  132.8804  157.8471 C   0  0  0  0  0  0  0  0  0  0  0  0
  130.7689  132.1716  156.5482 C   0  0  0  0  0  0  0  0  0  0  0  0
  130.0054  132.7089  155.5116 C   0  0  0  0  0  0  0  0  0  0  0  0
  129.9179  132.0477  154.3066 C   0  0  0  0  0  0  0  0  0  0  0  0
  130.6011  130.8463  154.1192 C   0  0  0  0  0  0  0  0  0  0  0  0
  130.5112  130.1372  152.8197 C   0  0  0  0  0  0  0  0  0  0  0  0
  130.6210  128.7485  152.7716 C   0  0  0  0  0  0  0  0  0  0  0  0
  130.5312  128.0936  151.5601 C   0  0  0  0  0  0  0  0  0  0  0  0
  130.3434  128.8132  150.3940 C   0  0  0  0  0  0  0  0  0  0  0  0
  130.2396  130.1921  150.4350 C   0  0  0  0  0  0  0  0  0  0  0  0
  130.3224  130.8574  151.6413 C   0  0  0  0  0  0  0  0  0  0  0  0
  131.3691  130.3119  155.1533 C   0  0  0  0  0  0  0  0  0  0  0  0
  131.4526  130.9703  156.3603 C   0  0  0  0  0  0  0  0  0  0  0  0
  131.3401  134.1342  158.0412 N   0  0  0  0  0  0  0  0  0  0  0  0
  131.6840  134.7183  157.3475 H   0  0  0  0  0  0  0  0  0  0  0  0
  130.1438  136.4345  161.6319 C   0  0  2  0  0  0  0  0  0  0  0  0
  130.0517  137.3928  161.1207 H   0  0  0  0  0  0  0  0  0  0  0  0
  129.9973  136.6412  163.1173 C   0  0  0  0  0  0  0  0  0  0  0  0
  129.7871  137.8788  163.6079 N   0  0  0  0  0  0  0  0  0  0  0  0
  130.0685  135.6940  163.8714 O   0  0  0  0  0  0  0  0  0  0  0  0
  129.0656  135.5005  161.1458 C   0  0  0  0  0  0  0  0  0  0  0  0
  128.5767  135.6201  159.8584 C   0  0  0  0  0  0  0  0  0  0  0  0
  127.5920  134.7604  159.4098 C   0  0  0  0  0  0  0  0  0  0  0  0
  127.0872  133.7861  160.2541 C   0  0  0  0  0  0  0  0  0  0  0  0
  126.1208  132.9487  159.8185 F   0  0  0  0  0  0  0  0  0  0  0  0
  127.5737  133.6709  161.5454 C   0  0  0  0  0  0  0  0  0  0  0  0
  128.5621  134.5283  161.9899 C   0  0  0  0  0  0  0  0  0  0  0  0
  133.9203  136.1511  162.3139 C   0  0  2  0  0  0  0  0  0  0  0  0
  134.8425  136.6978  162.1170 H   0  0  0  0  0  0  0  0  0  0  0  0
  134.0347  134.6260  162.2697 C   0  0  0  0  0  0  0  0  0  0  0  0
  132.5118  138.7955  163.8703 H   0  0  0  0  0  0  0  0  0  0  0  0
  133.5373  137.9214  165.0332 H   0  0  0  0  0  0  0  0  0  0  0  0
  134.2217  138.4816  163.4885 H   0  0  0  0  0  0  0  0  0  0  0  0
  132.6716  137.7336  161.3107 H   0  0  0  0  0  0  0  0  0  0  0  0
  131.6084  134.8692  161.8454 H   0  0  0  0  0  0  0  0  0  0  0  0
  132.0307  136.3310  159.3367 H   0  0  0  0  0  0  0  0  0  0  0  0
  130.0581  131.4128  159.2465 H   0  0  0  0  0  0  0  0  0  0  0  0
  129.4800  133.6414  155.6554 H   0  0  0  0  0  0  0  0  0  0  0  0
  129.3238  132.4616  153.5053 H   0  0  0  0  0  0  0  0  0  0  0  0
  130.7721  128.1859  153.6810 H   0  0  0  0  0  0  0  0  0  0  0  0
  130.6121  127.0173  151.5222 H   0  0  0  0  0  0  0  0  0  0  0  0
  130.2780  128.2968  149.4478 H   0  0  0  0  0  0  0  0  0  0  0  0
  130.0937  130.7491  149.5213 H   0  0  0  0  0  0  0  0  0  0  0  0
  130.2416  131.9339  151.6722 H   0  0  0  0  0  0  0  0  0  0  0  0
  131.8987  129.3820  155.0078 H   0  0  0  0  0  0  0  0  0  0  0  0
  132.0476  130.5566  157.1610 H   0  0  0  0  0  0  0  0  0  0  0  0
  129.7300  138.6364  163.0048 H   0  0  0  0  0  0  0  0  0  0  0  0
  129.6929  138.0119  164.5641 H   0  0  0  0  0  0  0  0  0  0  0  0
  128.9675  136.3830  159.2013 H   0  0  0  0  0  0  0  0  0  0  0  0
  127.2132  134.8515  158.4025 H   0  0  0  0  0  0  0  0  0  0  0  0
  127.1804  132.9114  162.2049 H   0  0  0  0  0  0  0  0  0  0  0  0
  128.9415  134.4384  162.9971 H   0  0  0  0  0  0  0  0  0  0  0  0
  133.8696  134.2787  161.2498 H   0  0  0  0  0  0  0  0  0  0  0  0
  135.0297  134.3266  162.5990 H   0  0  0  0  0  0  0  0  0  0  0  0
  133.2861  134.1862  162.9288 H   0  0  0  0  0  0  0  0  0  0  0  0
  1  2  1  0
  1 41  1  0
  1 42  1  0
  1 43  1  0
  2  3  1  1
  2 38  1  0
  2  4  1  0
  4  5  1  0
  4 38  1  0
  4 44  1  0
  5  6  1  0
  5 26  1  0
  5 45  1  1
  6 46  1  0
  7  6  1  0
  7 24  2  0
  7  8  1  0
  8  9  1  0
  8 10  1  0
 10 11  2  0
 10 47  1  0
 11 12  1  0
 11 24  1  0
 12 23  1  0
 12 13  2  0
 13 14  1  0
 13 48  1  0
 14 15  2  0
 14 49  1  0
 15 16  1  0
 15 22  1  0
 16 21  1  0
 16 17  2  0
 17 18  1  0
 17 50  1  0
 18 19  2  0
 18 51  1  0
 19 20  1  0
 19 52  1  0
 20 21  2  0
 20 53  1  0
 21 54  1  0
 22 23  2  0
 22 55  1  0
 23 56  1  0
 24 25  1  0
 26 27  1  6
 26 28  1  0
 26 31  1  0
 28 29  1  0
 28 30  2  0
 29 57  1  0
 29 58  1  0
 31 37  1  0
 31 32  2  0
 32 33  1  0
 32 59  1  0
 33 34  2  0
 33 60  1  0
 34 35  1  0
 34 36  1  0
 36 37  2  0
 36 61  1  0
 37 62  1  0
 38 39  1  6
 38 40  1  0
 40 63  1  0
 40 64  1  0
 40 65  1  0
M  CHG  1  24   1
M  END
>  <DOCK_score>  (1) 
-62.908165

>  <SMILES>  (1) 
C[C@H]1C(C(Nc2[nH]cc(-c3ccc(-c4ccccc4)cc3)[nH+]2)[C@H](C(N)=O)c2ccc(F)cc2)[C@@H]1C

$$$$
