COc1cccc2c1OC[C@H](NC(N[C@H]1CCC(=O)NC1)=[NH+]CCF)C2
     RDKit          3D

 52 54  0  0  1  0  0  0  0  0999 V2000
  134.8164  135.2965  166.0513 C   0  0  0  0  0  0  0  0  0  0  0  0
  133.9749  134.9682  164.9440 O   0  0  0  0  0  0  0  0  0  0  0  0
  134.2028  135.6298  163.7779 C   0  0  0  0  0  0  0  0  0  0  0  0
  135.2134  136.5728  163.7049 C   0  0  0  0  0  0  0  0  0  0  0  0
  135.4439  137.2452  162.5192 C   0  0  0  0  0  0  0  0  0  0  0  0
  134.6676  136.9749  161.4093 C   0  0  0  0  0  0  0  0  0  0  0  0
  133.6554  136.0304  161.4741 C   0  0  0  0  0  0  0  0  0  0  0  0
  133.4171  135.3570  162.6573 C   0  0  0  0  0  0  0  0  0  0  0  0
  132.4310  134.4278  162.7673 O   0  0  0  0  0  0  0  0  0  0  0  0
  131.8885  133.8845  161.5629 C   0  0  0  0  0  0  0  0  0  0  0  0
  131.5391  135.0458  160.6233 C   0  0  2  0  0  0  0  0  0  0  0  0
  130.8740  135.7432  161.1326 H   0  0  0  0  0  0  0  0  0  0  0  0
  130.8835  134.5275  159.4201 N   0  0  0  0  0  0  0  0  0  0  0  0
  129.5156  134.3944  159.3859 C   0  0  0  0  0  0  0  0  0  0  0  0
  128.7630  134.7477  160.4809 N   0  0  0  0  0  0  0  0  0  0  0  0
  127.3053  134.6058  160.4445 C   0  0  1  0  0  0  0  0  0  0  0  0
  126.9508  134.7347  159.4218 H   0  0  0  0  0  0  0  0  0  0  0  0
  126.9109  133.2144  160.9542 C   0  0  0  0  0  0  0  0  0  0  0  0
  125.4077  133.0263  160.7355 C   0  0  0  0  0  0  0  0  0  0  0  0
  124.6622  134.2219  161.2556 C   0  0  0  0  0  0  0  0  0  0  0  0
  123.4719  134.1116  161.4600 O   0  0  0  0  0  0  0  0  0  0  0  0
  125.2390  135.3980  161.5055 N   0  0  0  0  0  0  0  0  0  0  0  0
  126.6645  135.6587  161.3496 C   0  0  0  0  0  0  0  0  0  0  0  0
  128.9321  133.9335  158.3154 N   0  0  0  0  0  0  0  0  0  0  0  0
  128.1016  133.4382  158.3908 H   0  0  0  0  0  0  0  0  0  0  0  0
  129.5311  134.1633  156.9983 C   0  0  0  0  0  0  0  0  0  0  0  0
  130.4838  133.0136  156.6636 C   0  0  0  0  0  0  0  0  0  0  0  0
  129.7734  131.8086  156.6491 F   0  0  0  0  0  0  0  0  0  0  0  0
  132.8374  135.7587  160.2369 C   0  0  0  0  0  0  0  0  0  0  0  0
  134.7078  136.3547  166.2890 H   0  0  0  0  0  0  0  0  0  0  0  0
  134.5287  134.6984  166.9161 H   0  0  0  0  0  0  0  0  0  0  0  0
  135.8545  135.0866  165.7936 H   0  0  0  0  0  0  0  0  0  0  0  0
  135.8209  136.7828  164.5727 H   0  0  0  0  0  0  0  0  0  0  0  0
  136.2311  137.9823  162.4609 H   0  0  0  0  0  0  0  0  0  0  0  0
  134.8505  137.5031  160.4852 H   0  0  0  0  0  0  0  0  0  0  0  0
  130.9889  133.3130  161.7904 H   0  0  0  0  0  0  0  0  0  0  0  0
  132.6249  133.2365  161.0874 H   0  0  0  0  0  0  0  0  0  0  0  0
  131.4146  134.2781  158.6476 H   0  0  0  0  0  0  0  0  0  0  0  0
  129.1971  135.0909  161.2775 H   0  0  0  0  0  0  0  0  0  0  0  0
  127.4604  132.4520  160.4020 H   0  0  0  0  0  0  0  0  0  0  0  0
  127.1400  133.1343  162.0168 H   0  0  0  0  0  0  0  0  0  0  0  0
  125.2083  132.9118  159.6700 H   0  0  0  0  0  0  0  0  0  0  0  0
  125.0740  132.1328  161.2632 H   0  0  0  0  0  0  0  0  0  0  0  0
  124.6745  136.1257  161.8099 H   0  0  0  0  0  0  0  0  0  0  0  0
  127.1446  135.6330  162.3279 H   0  0  0  0  0  0  0  0  0  0  0  0
  126.8010  136.6454  160.9071 H   0  0  0  0  0  0  0  0  0  0  0  0
  128.7446  134.2141  156.2454 H   0  0  0  0  0  0  0  0  0  0  0  0
  130.0846  135.1022  157.0096 H   0  0  0  0  0  0  0  0  0  0  0  0
  130.9294  133.1846  155.6837 H   0  0  0  0  0  0  0  0  0  0  0  0
  131.2703  132.9627  157.4166 H   0  0  0  0  0  0  0  0  0  0  0  0
  133.4088  135.1278  159.5559 H   0  0  0  0  0  0  0  0  0  0  0  0
  132.6007  136.7017  159.7443 H   0  0  0  0  0  0  0  0  0  0  0  0
  1  2  1  0
  1 30  1  0
  1 31  1  0
  1 32  1  0
  2  3  1  0
  3  8  2  0
  3  4  1  0
  4  5  2  0
  4 33  1  0
  5  6  1  0
  5 34  1  0
  6  7  2  0
  6 35  1  0
  7 29  1  0
  7  8  1  0
  8  9  1  0
  9 10  1  0
 10 11  1  0
 10 36  1  0
 10 37  1  0
 11 12  1  1
 11 13  1  0
 11 29  1  0
 13 38  1  0
 14 13  1  0
 14 15  1  0
 14 24  2  0
 15 16  1  0
 15 39  1  0
 16 17  1  6
 16 23  1  0
 16 18  1  0
 18 19  1  0
 18 40  1  0
 18 41  1  0
 19 20  1  0
 19 42  1  0
 19 43  1  0
 20 21  2  0
 20 22  1  0
 22 23  1  0
 22 44  1  0
 23 45  1  0
 23 46  1  0
 24 25  1  0
 24 26  1  0
 26 27  1  0
 26 47  1  0
 26 48  1  0
 27 28  1  0
 27 49  1  0
 27 50  1  0
 29 51  1  0
 29 52  1  0
M  CHG  1  24   1
M  END
>  <DOCK_score>  (1) 
-43.840225

>  <SMILES>  (1) 
COc1cccc2c1OC[C@H](NC(N[C@H]1CCC(=O)NC1)=[NH+]CCF)C2

$$$$
