O=C1CCC(C[C@@H](Nc2[nH]cc(-c3ccc(-c4ccccc4)cc3)[nH+]2)c2ccccc2)CN1
     RDKit          3D

 62 66  0  0  1  0  0  0  0  0999 V2000
  126.2137  133.1582  162.4428 O   0  0  0  0  0  0  0  0  0  0  0  0
  127.1980  133.8506  162.2919 C   0  0  0  0  0  0  0  0  0  0  0  0
  128.5083  133.3490  162.8270 C   0  0  0  0  0  0  0  0  0  0  0  0
  129.5041  134.5065  162.9354 C   0  0  0  0  0  0  0  0  0  0  0  0
  129.4965  135.2719  161.6075 C   0  0  2  0  0  0  0  0  0  0  0  0
  130.6129  136.3182  161.6170 C   0  0  0  0  0  0  0  0  0  0  0  0
  131.9478  135.6425  161.2969 C   0  0  1  0  0  0  0  0  0  0  0  0
  131.9968  134.6774  161.8011 H   0  0  0  0  0  0  0  0  0  0  0  0
  132.0596  135.4436  159.8498 N   0  0  0  0  0  0  0  0  0  0  0  0
  131.5940  134.2740  159.2739 C   0  0  0  0  0  0  0  0  0  0  0  0
  131.0096  133.2407  159.9397 N   0  0  0  0  0  0  0  0  0  0  0  0
  130.8466  133.1915  160.8946 H   0  0  0  0  0  0  0  0  0  0  0  0
  130.6939  132.2802  159.0101 C   0  0  0  0  0  0  0  0  0  0  0  0
  131.0941  132.7537  157.8033 C   0  0  0  0  0  0  0  0  0  0  0  0
  130.9571  132.0553  156.5029 C   0  0  0  0  0  0  0  0  0  0  0  0
  130.2103  132.6331  155.4760 C   0  0  0  0  0  0  0  0  0  0  0  0
  130.0867  131.9862  154.2665 C   0  0  0  0  0  0  0  0  0  0  0  0
  130.6994  130.7494  154.0713 C   0  0  0  0  0  0  0  0  0  0  0  0
  130.5614  130.0493  152.7711 C   0  0  0  0  0  0  0  0  0  0  0  0
  130.5923  128.6567  152.7191 C   0  0  0  0  0  0  0  0  0  0  0  0
  130.4588  128.0113  151.5065 C   0  0  0  0  0  0  0  0  0  0  0  0
  130.3045  128.7437  150.3432 C   0  0  0  0  0  0  0  0  0  0  0  0
  130.2781  130.1262  150.3884 C   0  0  0  0  0  0  0  0  0  0  0  0
  130.4057  130.7823  151.5957 C   0  0  0  0  0  0  0  0  0  0  0  0
  131.4424  130.1687  155.0997 C   0  0  0  0  0  0  0  0  0  0  0  0
  131.5701  130.8176  156.3078 C   0  0  0  0  0  0  0  0  0  0  0  0
  131.6380  133.9817  157.9970 N   0  0  0  0  0  0  0  0  0  0  0  0
  132.0030  134.5512  157.3019 H   0  0  0  0  0  0  0  0  0  0  0  0
  133.0798  136.5161  161.7727 C   0  0  0  0  0  0  0  0  0  0  0  0
  134.2695  135.9438  162.1824 C   0  0  0  0  0  0  0  0  0  0  0  0
  135.3094  136.7454  162.6148 C   0  0  0  0  0  0  0  0  0  0  0  0
  135.1562  138.1189  162.6463 C   0  0  0  0  0  0  0  0  0  0  0  0
  133.9646  138.6909  162.2416 C   0  0  0  0  0  0  0  0  0  0  0  0
  132.9263  137.8896  161.8052 C   0  0  0  0  0  0  0  0  0  0  0  0
  128.1435  135.9668  161.4493 C   0  0  0  0  0  0  0  0  0  0  0  0
  127.0587  135.0163  161.6595 N   0  0  0  0  0  0  0  0  0  0  0  0
  128.3532  132.9113  163.8131 H   0  0  0  0  0  0  0  0  0  0  0  0
  128.9075  132.5899  162.1542 H   0  0  0  0  0  0  0  0  0  0  0  0
  129.2071  135.1712  163.7467 H   0  0  0  0  0  0  0  0  0  0  0  0
  130.5027  134.1148  163.1288 H   0  0  0  0  0  0  0  0  0  0  0  0
  129.6498  134.5776  160.7814 H   0  0  0  0  0  0  0  0  0  0  0  0
  130.4026  137.0807  160.8672 H   0  0  0  0  0  0  0  0  0  0  0  0
  130.6676  136.7823  162.6017 H   0  0  0  0  0  0  0  0  0  0  0  0
  132.4599  136.1313  159.2951 H   0  0  0  0  0  0  0  0  0  0  0  0
  130.2179  131.3300  159.2028 H   0  0  0  0  0  0  0  0  0  0  0  0
  129.7322  133.5895  155.6284 H   0  0  0  0  0  0  0  0  0  0  0  0
  129.5117  132.4353  153.4702 H   0  0  0  0  0  0  0  0  0  0  0  0
  130.7170  128.0840  153.6260 H   0  0  0  0  0  0  0  0  0  0  0  0
  130.4784  126.9322  151.4654 H   0  0  0  0  0  0  0  0  0  0  0  0
  130.2049  128.2345  149.3961 H   0  0  0  0  0  0  0  0  0  0  0  0
  130.1575  130.6929  149.4770 H   0  0  0  0  0  0  0  0  0  0  0  0
  130.3856  131.8615  151.6297 H   0  0  0  0  0  0  0  0  0  0  0  0
  131.9169  129.2104  154.9487 H   0  0  0  0  0  0  0  0  0  0  0  0
  132.1453  130.3683  157.1040 H   0  0  0  0  0  0  0  0  0  0  0  0
  134.3879  134.8705  162.1612 H   0  0  0  0  0  0  0  0  0  0  0  0
  136.2405  136.2985  162.9305 H   0  0  0  0  0  0  0  0  0  0  0  0
  135.9677  138.7450  162.9867 H   0  0  0  0  0  0  0  0  0  0  0  0
  133.8450  139.7640  162.2662 H   0  0  0  0  0  0  0  0  0  0  0  0
  131.9953  138.3365  161.4891 H   0  0  0  0  0  0  0  0  0  0  0  0
  128.0677  136.3838  160.4451 H   0  0  0  0  0  0  0  0  0  0  0  0
  128.0640  136.7714  162.1804 H   0  0  0  0  0  0  0  0  0  0  0  0
  126.1803  135.2463  161.3182 H   0  0  0  0  0  0  0  0  0  0  0  0
  1  2  2  0
  2 36  1  0
  2  3  1  0
  3  4  1  0
  3 37  1  0
  3 38  1  0
  4  5  1  0
  4 39  1  0
  4 40  1  0
  5  6  1  0
  5 35  1  0
  5 41  1  6
  6  7  1  0
  6 42  1  0
  6 43  1  0
  7  8  1  1
  7  9  1  0
  7 29  1  0
  9 44  1  0
 10  9  1  0
 10 27  2  0
 10 11  1  0
 11 12  1  0
 11 13  1  0
 13 14  2  0
 13 45  1  0
 14 15  1  0
 14 27  1  0
 15 26  1  0
 15 16  2  0
 16 17  1  0
 16 46  1  0
 17 18  2  0
 17 47  1  0
 18 19  1  0
 18 25  1  0
 19 24  1  0
 19 20  2  0
 20 21  1  0
 20 48  1  0
 21 22  2  0
 21 49  1  0
 22 23  1  0
 22 50  1  0
 23 24  2  0
 23 51  1  0
 24 52  1  0
 25 26  2  0
 25 53  1  0
 26 54  1  0
 27 28  1  0
 29 34  1  0
 29 30  2  0
 30 31  1  0
 30 55  1  0
 31 32  2  0
 31 56  1  0
 32 33  1  0
 32 57  1  0
 33 34  2  0
 33 58  1  0
 34 59  1  0
 35 36  1  0
 35 60  1  0
 35 61  1  0
 36 62  1  0
M  CHG  1  27   1
M  END
>  <DOCK_score>  (1) 
-59.241447

>  <SMILES>  (1) 
O=C1CCC(C[C@@H](Nc2[nH]cc(-c3ccc(-c4ccccc4)cc3)[nH+]2)c2ccccc2)CN1

$$$$
