CC[NH2+]C1=C[C@H](Nc2ccc(CO)cc2)CCC1
     RDKit          3D

 41 42  0  0  1  0  0  0  0  0999 V2000
  132.5179  137.3449  160.7956 C   0  0  0  0  0  0  0  0  0  0  0  0
  131.6014  136.1343  160.6078 C   0  0  0  0  0  0  0  0  0  0  0  0
  132.2111  135.2025  159.6497 N   0  0  0  0  0  0  0  0  0  0  0  0
  133.1056  134.8957  160.0016 H   0  0  0  0  0  0  0  0  0  0  0  0
  132.3396  135.6675  158.7636 H   0  0  0  0  0  0  0  0  0  0  0  0
  131.3736  134.0963  159.4782 C   0  0  0  0  0  0  0  0  0  0  0  0
  130.4795  134.1503  158.5463 C   0  0  0  0  0  0  0  0  0  0  0  0
  129.5193  133.0405  158.2328 C   0  0  2  0  0  0  0  0  0  0  0  0
  129.8541  132.5150  157.3383 H   0  0  0  0  0  0  0  0  0  0  0  0
  128.1875  133.6030  157.9957 N   0  0  0  0  0  0  0  0  0  0  0  0
  127.2964  133.7603  159.0598 C   0  0  0  0  0  0  0  0  0  0  0  0
  127.2836  134.9431  159.7879 C   0  0  0  0  0  0  0  0  0  0  0  0
  126.3978  135.0972  160.8363 C   0  0  0  0  0  0  0  0  0  0  0  0
  125.5317  134.0717  161.1680 C   0  0  0  0  0  0  0  0  0  0  0  0
  124.5702  134.2414  162.3160 C   0  0  0  0  0  0  0  0  0  0  0  0
  123.3460  134.7989  161.8336 O   0  0  0  0  0  0  0  0  0  0  0  0
  125.5454  132.8908  160.4486 C   0  0  0  0  0  0  0  0  0  0  0  0
  126.4250  132.7321  159.3956 C   0  0  0  0  0  0  0  0  0  0  0  0
  129.4536  132.0575  159.4038 C   0  0  0  0  0  0  0  0  0  0  0  0
  130.8863  131.6811  159.8022 C   0  0  0  0  0  0  0  0  0  0  0  0
  131.5665  132.9196  160.3894 C   0  0  0  0  0  0  0  0  0  0  0  0
  133.4843  137.0136  161.1756 H   0  0  0  0  0  0  0  0  0  0  0  0
  132.6569  137.8473  159.8384 H   0  0  0  0  0  0  0  0  0  0  0  0
  132.0655  138.0363  161.5065 H   0  0  0  0  0  0  0  0  0  0  0  0
  130.6350  136.4657  160.2277 H   0  0  0  0  0  0  0  0  0  0  0  0
  131.4623  135.6319  161.5650 H   0  0  0  0  0  0  0  0  0  0  0  0
  130.4225  135.0515  157.9542 H   0  0  0  0  0  0  0  0  0  0  0  0
  127.9230  133.8623  157.0992 H   0  0  0  0  0  0  0  0  0  0  0  0
  127.9628  135.7429  159.5321 H   0  0  0  0  0  0  0  0  0  0  0  0
  126.3844  136.0182  161.4002 H   0  0  0  0  0  0  0  0  0  0  0  0
  124.3730  133.2709  162.7713 H   0  0  0  0  0  0  0  0  0  0  0  0
  125.0057  134.9096  163.0590 H   0  0  0  0  0  0  0  0  0  0  0  0
  123.4463  135.6648  161.4148 H   0  0  0  0  0  0  0  0  0  0  0  0
  124.8678  132.0916  160.7105 H   0  0  0  0  0  0  0  0  0  0  0  0
  126.4349  131.8096  158.8339 H   0  0  0  0  0  0  0  0  0  0  0  0
  128.9498  132.5271  160.2485 H   0  0  0  0  0  0  0  0  0  0  0  0
  128.9072  131.1640  159.1019 H   0  0  0  0  0  0  0  0  0  0  0  0
  130.8624  130.8875  160.5489 H   0  0  0  0  0  0  0  0  0  0  0  0
  131.4336  131.3407  158.9231 H   0  0  0  0  0  0  0  0  0  0  0  0
  131.1325  133.1424  161.3641 H   0  0  0  0  0  0  0  0  0  0  0  0
  132.6325  132.7248  160.5070 H   0  0  0  0  0  0  0  0  0  0  0  0
  1  2  1  0
  1 22  1  0
  1 23  1  0
  1 24  1  0
  2  3  1  0
  2 25  1  0
  2 26  1  0
  3  4  1  0
  3  5  1  0
  3  6  1  0
  6 21  1  0
  6  7  2  0
  7  8  1  0
  7 27  1  0
  8  9  1  6
  8 10  1  0
  8 19  1  0
 10 11  1  0
 10 28  1  0
 11 18  1  0
 11 12  2  0
 12 13  1  0
 12 29  1  0
 13 14  2  0
 13 30  1  0
 14 15  1  0
 14 17  1  0
 15 16  1  0
 15 31  1  0
 15 32  1  0
 16 33  1  0
 17 18  2  0
 17 34  1  0
 18 35  1  0
 19 20  1  0
 19 36  1  0
 19 37  1  0
 20 21  1  0
 20 38  1  0
 20 39  1  0
 21 40  1  0
 21 41  1  0
M  CHG  1   3   1
M  END
>  <DOCK_score>  (1) 
-41.360218

>  <SMILES>  (1) 
CC[NH2+]C1=C[C@H](Nc2ccc(CO)cc2)CCC1

$$$$
