O=C1CC[C@H](NC(NC2CC=CC2)=[NH+]CC(=O)N2C[C@H]3CC[C@H]3C2)CN1
     RDKit          3D

 56 59  0  0  1  0  0  0  0  0999 V2000
  123.6549  133.8511  161.4222 O   0  0  0  0  0  0  0  0  0  0  0  0
  124.8405  134.0145  161.2258 C   0  0  0  0  0  0  0  0  0  0  0  0
  125.5754  132.9838  160.4175 C   0  0  0  0  0  0  0  0  0  0  0  0
  127.0829  133.1226  160.6438 C   0  0  0  0  0  0  0  0  0  0  0  0
  127.4653  134.5981  160.4762 C   0  0  2  0  0  0  0  0  0  0  0  0
  127.0861  134.9682  159.5235 H   0  0  0  0  0  0  0  0  0  0  0  0
  128.9233  134.7352  160.5116 N   0  0  0  0  0  0  0  0  0  0  0  0
  129.6499  134.6544  159.3472 C   0  0  0  0  0  0  0  0  0  0  0  0
  129.1962  133.8793  158.3061 N   0  0  0  0  0  0  0  0  0  0  0  0
  130.1512  133.2514  157.3897 C   0  0  0  0  0  0  0  0  0  0  0  0
  129.4368  132.2757  156.4260 C   0  0  0  0  0  0  0  0  0  0  0  0
  130.3992  131.1213  156.2660 C   0  0  0  0  0  0  0  0  0  0  0  0
  131.3066  131.1318  157.2043 C   0  0  0  0  0  0  0  0  0  0  0  0
  131.1005  132.2943  158.1473 C   0  0  0  0  0  0  0  0  0  0  0  0
  130.7689  135.3123  159.2301 N   0  0  0  0  0  0  0  0  0  0  0  0
  131.2814  135.2552  158.4086 H   0  0  0  0  0  0  0  0  0  0  0  0
  131.2527  136.1379  160.3394 C   0  0  0  0  0  0  0  0  0  0  0  0
  131.4647  135.2721  161.5546 C   0  0  0  0  0  0  0  0  0  0  0  0
  130.7813  134.2844  161.7222 O   0  0  0  0  0  0  0  0  0  0  0  0
  132.4140  135.5957  162.4551 N   0  0  0  0  0  0  0  0  0  0  0  0
  132.7235  134.8363  163.6709 C   0  0  0  0  0  0  0  0  0  0  0  0
  133.8464  135.5723  164.4170 C   0  0  1  0  0  0  0  0  0  0  0  0
  133.7805  135.5276  165.5041 H   0  0  0  0  0  0  0  0  0  0  0  0
  135.2430  135.3406  163.8210 C   0  0  0  0  0  0  0  0  0  0  0  0
  135.4230  136.8672  163.8339 C   0  0  0  0  0  0  0  0  0  0  0  0
  133.8708  136.9866  163.7854 C   0  0  1  0  0  0  0  0  0  0  0  0
  133.4155  137.7944  164.3583 H   0  0  0  0  0  0  0  0  0  0  0  0
  133.3037  136.7593  162.3692 C   0  0  0  0  0  0  0  0  0  0  0  0
  126.8434  135.3981  161.6215 C   0  0  0  0  0  0  0  0  0  0  0  0
  125.4217  135.0992  161.7396 N   0  0  0  0  0  0  0  0  0  0  0  0
  125.3532  133.1280  159.3602 H   0  0  0  0  0  0  0  0  0  0  0  0
  125.2539  131.9876  160.7212 H   0  0  0  0  0  0  0  0  0  0  0  0
  127.6208  132.5188  159.9129 H   0  0  0  0  0  0  0  0  0  0  0  0
  127.3349  132.7903  161.6508 H   0  0  0  0  0  0  0  0  0  0  0  0
  129.3763  134.8829  161.3565 H   0  0  0  0  0  0  0  0  0  0  0  0
  128.2436  133.7480  158.1785 H   0  0  0  0  0  0  0  0  0  0  0  0
  130.7136  134.0047  156.8379 H   0  0  0  0  0  0  0  0  0  0  0  0
  128.4990  131.9305  156.8616 H   0  0  0  0  0  0  0  0  0  0  0  0
  129.2556  132.7562  155.4644 H   0  0  0  0  0  0  0  0  0  0  0  0
  130.3435  130.3844  155.4782 H   0  0  0  0  0  0  0  0  0  0  0  0
  132.1000  130.4049  157.2949 H   0  0  0  0  0  0  0  0  0  0  0  0
  132.0501  132.7874  158.3552 H   0  0  0  0  0  0  0  0  0  0  0  0
  130.6373  131.9545  159.0735 H   0  0  0  0  0  0  0  0  0  0  0  0
  132.1955  136.6073  160.0587 H   0  0  0  0  0  0  0  0  0  0  0  0
  130.5165  136.9088  160.5665 H   0  0  0  0  0  0  0  0  0  0  0  0
  131.8380  134.7765  164.3036 H   0  0  0  0  0  0  0  0  0  0  0  0
  133.0544  133.8324  163.4043 H   0  0  0  0  0  0  0  0  0  0  0  0
  135.9221  134.8158  164.4926 H   0  0  0  0  0  0  0  0  0  0  0  0
  135.2236  134.9112  162.8192 H   0  0  0  0  0  0  0  0  0  0  0  0
  135.8460  137.2483  164.7635 H   0  0  0  0  0  0  0  0  0  0  0  0
  135.9291  137.2540  162.9494 H   0  0  0  0  0  0  0  0  0  0  0  0
  134.1137  136.5586  161.6679 H   0  0  0  0  0  0  0  0  0  0  0  0
  132.7411  137.6361  162.0487 H   0  0  0  0  0  0  0  0  0  0  0  0
  127.3445  135.1405  162.5545 H   0  0  0  0  0  0  0  0  0  0  0  0
  126.9695  136.4633  161.4270 H   0  0  0  0  0  0  0  0  0  0  0  0
  124.8633  135.7288  162.2219 H   0  0  0  0  0  0  0  0  0  0  0  0
  1  2  2  0
  2 30  1  0
  2  3  1  0
  3  4  1  0
  3 31  1  0
  3 32  1  0
  4  5  1  0
  4 33  1  0
  4 34  1  0
  5  6  1  6
  5  7  1  0
  5 29  1  0
  7 35  1  0
  8  7  1  0
  8  9  1  0
  8 15  2  0
  9 10  1  0
  9 36  1  0
 10 14  1  0
 10 11  1  0
 10 37  1  0
 11 12  1  0
 11 38  1  0
 11 39  1  0
 12 13  2  0
 12 40  1  0
 13 14  1  0
 13 41  1  0
 14 42  1  0
 14 43  1  0
 15 16  1  0
 15 17  1  0
 17 18  1  0
 17 44  1  0
 17 45  1  0
 18 19  2  0
 18 20  1  0
 20 28  1  0
 20 21  1  0
 21 22  1  0
 21 46  1  0
 21 47  1  0
 22 23  1  1
 22 26  1  0
 22 24  1  0
 24 25  1  0
 24 48  1  0
 24 49  1  0
 25 26  1  0
 25 50  1  0
 25 51  1  0
 26 27  1  1
 26 28  1  0
 28 52  1  0
 28 53  1  0
 29 30  1  0
 29 54  1  0
 29 55  1  0
 30 56  1  0
M  CHG  1  15   1
M  END
>  <DOCK_score>  (1) 
-44.139744

>  <SMILES>  (1) 
O=C1CC[C@H](NC(NC2CC=CC2)=[NH+]CC(=O)N2C[C@H]3CC[C@H]3C2)CN1

$$$$
