O=C1CCC(NC(NC2CNC(=O)C2)=[NH+][C@H]2COc3cc(Cl)ccc3C2)CN1
     RDKit          3D

 53 56  0  0  1  0  0  0  0  0999 V2000
  125.4213  135.5909  165.0670 O   0  0  0  0  0  0  0  0  0  0  0  0
  126.3171  135.7617  164.2673 C   0  0  0  0  0  0  0  0  0  0  0  0
  127.7197  135.4304  164.6899 C   0  0  0  0  0  0  0  0  0  0  0  0
  128.7202  136.1034  163.7471 C   0  0  0  0  0  0  0  0  0  0  0  0
  128.2991  135.8079  162.3024 C   0  0  2  0  0  0  0  0  0  0  0  0
  129.3310  136.2907  161.3813 N   0  0  0  0  0  0  0  0  0  0  0  0
  129.9648  135.4103  160.5365 C   0  0  0  0  0  0  0  0  0  0  0  0
  131.2617  135.6455  160.1457 N   0  0  0  0  0  0  0  0  0  0  0  0
  132.1766  136.3631  161.0368 C   0  0  1  0  0  0  0  0  0  0  0  0
  133.5100  136.6779  160.3232 C   0  0  0  0  0  0  0  0  0  0  0  0
  133.9172  137.9981  160.8187 N   0  0  0  0  0  0  0  0  0  0  0  0
  132.8878  138.6417  161.3958 C   0  0  0  0  0  0  0  0  0  0  0  0
  132.9471  139.7514  161.8816 O   0  0  0  0  0  0  0  0  0  0  0  0
  131.6448  137.7806  161.3511 C   0  0  0  0  0  0  0  0  0  0  0  0
  129.3359  134.3528  160.1061 N   0  0  0  0  0  0  0  0  0  0  0  0
  128.4209  134.1870  160.3819 H   0  0  0  0  0  0  0  0  0  0  0  0
  130.0113  133.4148  159.2061 C   0  0  1  0  0  0  0  0  0  0  0  0
  131.0824  133.4173  159.4081 H   0  0  0  0  0  0  0  0  0  0  0  0
  129.4491  132.0027  159.4141 C   0  0  0  0  0  0  0  0  0  0  0  0
  130.1958  131.0964  158.6011 O   0  0  0  0  0  0  0  0  0  0  0  0
  130.3844  131.4218  157.2958 C   0  0  0  0  0  0  0  0  0  0  0  0
  130.7855  130.4230  156.4142 C   0  0  0  0  0  0  0  0  0  0  0  0
  130.9868  130.7141  155.0795 C   0  0  0  0  0  0  0  0  0  0  0  0
  131.4824  129.4633  153.9825 Cl  0  0  0  0  0  0  0  0  0  0  0  0
  130.7982  132.0054  154.6184 C   0  0  0  0  0  0  0  0  0  0  0  0
  130.4030  132.9990  155.4920 C   0  0  0  0  0  0  0  0  0  0  0  0
  130.1942  132.7111  156.8307 C   0  0  0  0  0  0  0  0  0  0  0  0
  129.7594  133.8226  157.7522 C   0  0  0  0  0  0  0  0  0  0  0  0
  126.9807  136.5291  162.0195 C   0  0  0  0  0  0  0  0  0  0  0  0
  126.0039  136.2332  163.0599 N   0  0  0  0  0  0  0  0  0  0  0  0
  127.8619  134.3503  164.6576 H   0  0  0  0  0  0  0  0  0  0  0  0
  127.8840  135.7871  165.7066 H   0  0  0  0  0  0  0  0  0  0  0  0
  129.7188  135.7053  163.9268 H   0  0  0  0  0  0  0  0  0  0  0  0
  128.7183  137.1800  163.9169 H   0  0  0  0  0  0  0  0  0  0  0  0
  128.1666  134.7338  162.1726 H   0  0  0  0  0  0  0  0  0  0  0  0
  129.5671  137.2314  161.3673 H   0  0  0  0  0  0  0  0  0  0  0  0
  131.5710  135.3363  159.2799 H   0  0  0  0  0  0  0  0  0  0  0  0
  132.3483  135.7983  161.9532 H   0  0  0  0  0  0  0  0  0  0  0  0
  134.2608  135.9306  160.5801 H   0  0  0  0  0  0  0  0  0  0  0  0
  133.3622  136.7079  159.2437 H   0  0  0  0  0  0  0  0  0  0  0  0
  134.8138  138.3596  160.7397 H   0  0  0  0  0  0  0  0  0  0  0  0
  130.9739  138.1200  160.5618 H   0  0  0  0  0  0  0  0  0  0  0  0
  131.1376  137.7926  162.3157 H   0  0  0  0  0  0  0  0  0  0  0  0
  128.3993  131.9786  159.1217 H   0  0  0  0  0  0  0  0  0  0  0  0
  129.5452  131.7200  160.4624 H   0  0  0  0  0  0  0  0  0  0  0  0
  130.9365  129.4160  156.7742 H   0  0  0  0  0  0  0  0  0  0  0  0
  130.9597  132.2357  153.5757 H   0  0  0  0  0  0  0  0  0  0  0  0
  130.2564  134.0059  155.1296 H   0  0  0  0  0  0  0  0  0  0  0  0
  128.6966  134.0173  157.6090 H   0  0  0  0  0  0  0  0  0  0  0  0
  130.3268  134.7250  157.5252 H   0  0  0  0  0  0  0  0  0  0  0  0
  127.1578  137.6040  161.9868 H   0  0  0  0  0  0  0  0  0  0  0  0
  126.5907  136.2018  161.0556 H   0  0  0  0  0  0  0  0  0  0  0  0
  125.0671  136.3888  162.8616 H   0  0  0  0  0  0  0  0  0  0  0  0
  1  2  2  0
  2 30  1  0
  2  3  1  0
  3  4  1  0
  3 31  1  0
  3 32  1  0
  4  5  1  0
  4 33  1  0
  4 34  1  0
  5  6  1  0
  5 29  1  0
  5 35  1  1
  6 36  1  0
  7  6  1  0
  7  8  1  0
  7 15  2  0
  8  9  1  0
  8 37  1  0
  9 14  1  0
  9 10  1  0
  9 38  1  1
 10 11  1  0
 10 39  1  0
 10 40  1  0
 11 12  1  0
 11 41  1  0
 12 13  2  0
 12 14  1  0
 14 42  1  0
 14 43  1  0
 15 16  1  0
 15 17  1  0
 17 18  1  1
 17 28  1  0
 17 19  1  0
 19 20  1  0
 19 44  1  0
 19 45  1  0
 20 21  1  0
 21 27  2  0
 21 22  1  0
 22 23  2  0
 22 46  1  0
 23 24  1  0
 23 25  1  0
 25 26  2  0
 25 47  1  0
 26 27  1  0
 26 48  1  0
 27 28  1  0
 28 49  1  0
 28 50  1  0
 29 30  1  0
 29 51  1  0
 29 52  1  0
 30 53  1  0
M  CHG  1  15   1
M  END
>  <DOCK_score>  (1) 
-40.922104

>  <SMILES>  (1) 
O=C1CCC(NC(NC2CNC(=O)C2)=[NH+][C@H]2COc3cc(Cl)ccc3C2)CN1

$$$$
