c1ccc(CC(Cc2ccccc2)Nc2[nH]cc(Nc3ncccc3C3CC3)[nH+]2)cc1
     RDKit          3D

 59 63  0  0  1  0  0  0  0  0999 V2000
  128.4780  137.8658  161.7202 C   0  0  0  0  0  0  0  0  0  0  0  0
  127.5392  136.8583  161.5997 C   0  0  0  0  0  0  0  0  0  0  0  0
  127.5278  136.0550  160.4748 C   0  0  0  0  0  0  0  0  0  0  0  0
  128.4552  136.2593  159.4703 C   0  0  0  0  0  0  0  0  0  0  0  0
  128.4431  135.3832  158.2441 C   0  0  0  0  0  0  0  0  0  0  0  0
  129.3374  134.1643  158.4794 C   0  0  0  0  0  0  0  0  0  0  0  0
  129.3252  133.2747  157.2346 C   0  0  0  0  0  0  0  0  0  0  0  0
  130.2060  132.0741  157.4664 C   0  0  0  0  0  0  0  0  0  0  0  0
  130.8507  131.4739  156.4011 C   0  0  0  0  0  0  0  0  0  0  0  0
  131.6625  130.3756  156.6143 C   0  0  0  0  0  0  0  0  0  0  0  0
  131.8213  129.8710  157.8915 C   0  0  0  0  0  0  0  0  0  0  0  0
  131.1723  130.4681  158.9562 C   0  0  0  0  0  0  0  0  0  0  0  0
  130.3647  131.5696  158.7436 C   0  0  0  0  0  0  0  0  0  0  0  0
  130.7074  134.6082  158.7488 N   0  0  0  0  0  0  0  0  0  0  0  0
  131.1091  134.8644  160.0490 C   0  0  0  0  0  0  0  0  0  0  0  0
  130.6273  134.2525  161.1634 N   0  0  0  0  0  0  0  0  0  0  0  0
  129.9454  133.5635  161.1941 H   0  0  0  0  0  0  0  0  0  0  0  0
  131.2973  134.7950  162.2440 C   0  0  0  0  0  0  0  0  0  0  0  0
  132.1505  135.7170  161.7510 C   0  0  0  0  0  0  0  0  0  0  0  0
  133.0283  136.5129  162.5046 N   0  0  0  0  0  0  0  0  0  0  0  0
  133.8577  137.4283  161.8670 C   0  0  0  0  0  0  0  0  0  0  0  0
  133.8154  137.5449  160.5483 N   0  0  0  0  0  0  0  0  0  0  0  0
  134.5856  138.4010  159.9044 C   0  0  0  0  0  0  0  0  0  0  0  0
  135.4694  139.2117  160.5886 C   0  0  0  0  0  0  0  0  0  0  0  0
  135.5447  139.1207  161.9722 C   0  0  0  0  0  0  0  0  0  0  0  0
  134.7291  138.2097  162.6191 C   0  0  0  0  0  0  0  0  0  0  0  0
  134.7797  138.0697  164.1187 C   0  0  0  0  0  0  0  0  0  0  0  0
  136.1515  137.8588  164.7626 C   0  0  0  0  0  0  0  0  0  0  0  0
  135.1543  136.6999  164.6881 C   0  0  0  0  0  0  0  0  0  0  0  0
  132.0191  135.7379  160.4115 N   0  0  0  0  0  0  0  0  0  0  0  0
  132.5194  136.3093  159.8081 H   0  0  0  0  0  0  0  0  0  0  0  0
  129.3973  137.2633  159.5932 C   0  0  0  0  0  0  0  0  0  0  0  0
  129.4054  138.0699  160.7156 C   0  0  0  0  0  0  0  0  0  0  0  0
  128.4871  138.4932  162.5992 H   0  0  0  0  0  0  0  0  0  0  0  0
  126.8148  136.6984  162.3847 H   0  0  0  0  0  0  0  0  0  0  0  0
  126.7945  135.2677  160.3809 H   0  0  0  0  0  0  0  0  0  0  0  0
  128.8166  135.9482  157.3900 H   0  0  0  0  0  0  0  0  0  0  0  0
  127.4240  135.0528  158.0436 H   0  0  0  0  0  0  0  0  0  0  0  0
  128.9641  133.5992  159.3335 H   0  0  0  0  0  0  0  0  0  0  0  0
  128.3059  132.9444  157.0343 H   0  0  0  0  0  0  0  0  0  0  0  0
  129.6985  133.8399  156.3806 H   0  0  0  0  0  0  0  0  0  0  0  0
  130.7232  131.8654  155.4026 H   0  0  0  0  0  0  0  0  0  0  0  0
  132.1692  129.9089  155.7826 H   0  0  0  0  0  0  0  0  0  0  0  0
  132.4520  129.0102  158.0576 H   0  0  0  0  0  0  0  0  0  0  0  0
  131.2962  130.0736  159.9539 H   0  0  0  0  0  0  0  0  0  0  0  0
  129.8575  132.0359  159.5753 H   0  0  0  0  0  0  0  0  0  0  0  0
  131.3329  134.7229  158.0163 H   0  0  0  0  0  0  0  0  0  0  0  0
  131.1625  134.5328  163.2830 H   0  0  0  0  0  0  0  0  0  0  0  0
  133.0558  136.4241  163.4703 H   0  0  0  0  0  0  0  0  0  0  0  0
  134.5243  138.4684  158.8283 H   0  0  0  0  0  0  0  0  0  0  0  0
  136.0958  139.9098  160.0530 H   0  0  0  0  0  0  0  0  0  0  0  0
  136.2279  139.7437  162.5301 H   0  0  0  0  0  0  0  0  0  0  0  0
  134.0501  138.6619  164.6711 H   0  0  0  0  0  0  0  0  0  0  0  0
  137.0174  137.8215  164.1017 H   0  0  0  0  0  0  0  0  0  0  0  0
  136.3243  138.3120  165.7389 H   0  0  0  0  0  0  0  0  0  0  0  0
  134.6714  136.3911  165.6152 H   0  0  0  0  0  0  0  0  0  0  0  0
  135.3638  135.8999  163.9780 H   0  0  0  0  0  0  0  0  0  0  0  0
  130.1248  137.4200  158.8103 H   0  0  0  0  0  0  0  0  0  0  0  0
  130.1391  138.8569  160.8099 H   0  0  0  0  0  0  0  0  0  0  0  0
  1 33  2  0
  1  2  1  0
  1 34  1  0
  2  3  2  0
  2 35  1  0
  3  4  1  0
  3 36  1  0
  4  5  1  0
  4 32  2  0
  5  6  1  0
  5 37  1  0
  5 38  1  0
  6  7  1  0
  6 14  1  0
  6 39  1  0
  7  8  1  0
  7 40  1  0
  7 41  1  0
  8 13  1  0
  8  9  2  0
  9 10  1  0
  9 42  1  0
 10 11  2  0
 10 43  1  0
 11 12  1  0
 11 44  1  0
 12 13  2  0
 12 45  1  0
 13 46  1  0
 14 47  1  0
 15 14  1  0
 15 30  2  0
 15 16  1  0
 16 17  1  0
 16 18  1  0
 18 19  2  0
 18 48  1  0
 19 20  1  0
 19 30  1  0
 20 21  1  0
 20 49  1  0
 21 26  1  0
 21 22  2  0
 22 23  1  0
 23 24  2  0
 23 50  1  0
 24 25  1  0
 24 51  1  0
 25 26  2  0
 25 52  1  0
 26 27  1  0
 27 29  1  0
 27 28  1  0
 27 53  1  0
 28 29  1  0
 28 54  1  0
 28 55  1  0
 29 56  1  0
 29 57  1  0
 30 31  1  0
 32 33  1  0
 32 58  1  0
 33 59  1  0
M  CHG  1  30   1
M  END
>  <DOCK_score>  (1) 
-56.021362

>  <SMILES>  (1) 
c1ccc(CC(Cc2ccccc2)Nc2[nH]cc(Nc3ncccc3C3CC3)[nH+]2)cc1

$$$$
