CCc1ccc(-c2c[nH]c(N[C@@H](c3ccc(CC(C)C)nc3)c3cccs3)[nH+]2)cc1
     RDKit          3D

 59 62  0  0  1  0  0  0  0  0999 V2000
  130.2152  128.3094  151.4593 C   0  0  0  0  0  0  0  0  0  0  0  0
  131.2113  129.4614  151.6048 C   0  0  0  0  0  0  0  0  0  0  0  0
  130.9454  130.1957  152.8937 C   0  0  0  0  0  0  0  0  0  0  0  0
  131.5843  129.8023  154.0552 C   0  0  0  0  0  0  0  0  0  0  0  0
  131.3483  130.4741  155.2374 C   0  0  0  0  0  0  0  0  0  0  0  0
  130.4559  131.5445  155.2614 C   0  0  0  0  0  0  0  0  0  0  0  0
  130.1942  132.2672  156.5300 C   0  0  0  0  0  0  0  0  0  0  0  0
  129.6968  131.7253  157.6693 C   0  0  0  0  0  0  0  0  0  0  0  0
  129.6155  132.7404  158.5912 N   0  0  0  0  0  0  0  0  0  0  0  0
  129.2958  132.6635  159.5037 H   0  0  0  0  0  0  0  0  0  0  0  0
  130.0660  133.8741  157.9878 C   0  0  0  0  0  0  0  0  0  0  0  0
  130.1461  135.1241  158.5774 N   0  0  0  0  0  0  0  0  0  0  0  0
  129.7244  135.3062  159.9685 C   0  0  1  0  0  0  0  0  0  0  0  0
  130.0500  134.4516  160.5617 H   0  0  0  0  0  0  0  0  0  0  0  0
  130.3423  136.5652  160.5199 C   0  0  0  0  0  0  0  0  0  0  0  0
  131.1824  136.5107  161.6219 C   0  0  0  0  0  0  0  0  0  0  0  0
  131.7282  137.6939  162.0948 C   0  0  0  0  0  0  0  0  0  0  0  0
  131.4190  138.8806  161.4566 C   0  0  0  0  0  0  0  0  0  0  0  0
  132.0068  140.1730  161.9618 C   0  0  0  0  0  0  0  0  0  0  0  0
  131.0712  140.7850  163.0062 C   0  0  0  0  0  0  0  0  0  0  0  0
  131.6681  142.0972  163.5191 C   0  0  0  0  0  0  0  0  0  0  0  0
  129.7068  141.0594  162.3705 C   0  0  0  0  0  0  0  0  0  0  0  0
  130.6160  138.8947  160.4109 N   0  0  0  0  0  0  0  0  0  0  0  0
  130.0834  137.7879  159.9305 C   0  0  0  0  0  0  0  0  0  0  0  0
  128.2225  135.4159  160.0279 C   0  0  0  0  0  0  0  0  0  0  0  0
  127.5075  135.5876  161.1408 C   0  0  0  0  0  0  0  0  0  0  0  0
  126.1385  135.6611  160.9489 C   0  0  0  0  0  0  0  0  0  0  0  0
  125.7421  135.5492  159.6802 C   0  0  0  0  0  0  0  0  0  0  0  0
  127.1451  135.3451  158.6395 S   0  0  0  0  0  0  0  0  0  0  0  0
  130.4156  133.5862  156.7578 N   0  0  0  0  0  0  0  0  0  0  0  0
  130.7737  134.2161  156.1129 H   0  0  0  0  0  0  0  0  0  0  0  0
  129.8108  131.9335  154.0889 C   0  0  0  0  0  0  0  0  0  0  0  0
  130.0585  131.2577  152.9113 C   0  0  0  0  0  0  0  0  0  0  0  0
  129.2000  128.7057  151.4488 H   0  0  0  0  0  0  0  0  0  0  0  0
  130.4077  127.7783  150.5270 H   0  0  0  0  0  0  0  0  0  0  0  0
  130.3288  127.6232  152.2985 H   0  0  0  0  0  0  0  0  0  0  0  0
  132.2265  129.0656  151.6150 H   0  0  0  0  0  0  0  0  0  0  0  0
  131.0975  130.1482  150.7653 H   0  0  0  0  0  0  0  0  0  0  0  0
  132.2724  128.9700  154.0364 H   0  0  0  0  0  0  0  0  0  0  0  0
  131.8513  130.1687  156.1431 H   0  0  0  0  0  0  0  0  0  0  0  0
  129.4177  130.6933  157.8224 H   0  0  0  0  0  0  0  0  0  0  0  0
  130.4814  135.8793  158.0694 H   0  0  0  0  0  0  0  0  0  0  0  0
  131.4064  135.5685  162.1001 H   0  0  0  0  0  0  0  0  0  0  0  0
  132.3863  137.6889  162.9510 H   0  0  0  0  0  0  0  0  0  0  0  0
  132.9788  139.9776  162.4147 H   0  0  0  0  0  0  0  0  0  0  0  0
  132.1265  140.8673  161.1300 H   0  0  0  0  0  0  0  0  0  0  0  0
  130.9515  140.0907  163.8379 H   0  0  0  0  0  0  0  0  0  0  0  0
  131.7877  142.7914  162.6874 H   0  0  0  0  0  0  0  0  0  0  0  0
  131.0014  142.5331  164.2632 H   0  0  0  0  0  0  0  0  0  0  0  0
  132.6399  141.9017  163.9721 H   0  0  0  0  0  0  0  0  0  0  0  0
  129.0403  141.4953  163.1147 H   0  0  0  0  0  0  0  0  0  0  0  0
  129.8265  141.7536  161.5388 H   0  0  0  0  0  0  0  0  0  0  0  0
  129.2817  140.1246  162.0052 H   0  0  0  0  0  0  0  0  0  0  0  0
  129.4341  137.8383  159.0690 H   0  0  0  0  0  0  0  0  0  0  0  0
  127.9622  135.6638  162.1174 H   0  0  0  0  0  0  0  0  0  0  0  0
  125.4443  135.7983  161.7648 H   0  0  0  0  0  0  0  0  0  0  0  0
  124.7164  135.5825  159.3433 H   0  0  0  0  0  0  0  0  0  0  0  0
  129.1180  132.7620  154.1017 H   0  0  0  0  0  0  0  0  0  0  0  0
  129.5588  131.5580  152.0022 H   0  0  0  0  0  0  0  0  0  0  0  0
  1  2  1  0
  1 34  1  0
  1 35  1  0
  1 36  1  0
  2  3  1  0
  2 37  1  0
  2 38  1  0
  3 33  2  0
  3  4  1  0
  4  5  2  0
  4 39  1  0
  5  6  1  0
  5 40  1  0
  6  7  1  0
  6 32  2  0
  7 30  1  0
  7  8  2  0
  8  9  1  0
  8 41  1  0
  9 10  1  0
  9 11  1  0
 11 12  1  0
 11 30  2  0
 12 13  1  0
 12 42  1  0
 13 14  1  1
 13 15  1  0
 13 25  1  0
 15 24  1  0
 15 16  2  0
 16 17  1  0
 16 43  1  0
 17 18  2  0
 17 44  1  0
 18 19  1  0
 18 23  1  0
 19 20  1  0
 19 45  1  0
 19 46  1  0
 20 21  1  0
 20 22  1  0
 20 47  1  0
 21 48  1  0
 21 49  1  0
 21 50  1  0
 22 51  1  0
 22 52  1  0
 22 53  1  0
 23 24  2  0
 24 54  1  0
 25 29  1  0
 25 26  2  0
 26 27  1  0
 26 55  1  0
 27 28  2  0
 27 56  1  0
 28 29  1  0
 28 57  1  0
 30 31  1  0
 32 33  1  0
 32 58  1  0
 33 59  1  0
M  CHG  1  30   1
M  END
>  <DOCK_score>  (1) 
-62.016914

>  <SMILES>  (1) 
CCc1ccc(-c2c[nH]c(N[C@@H](c3ccc(CC(C)C)nc3)c3cccs3)[nH+]2)cc1

$$$$
