O=C1CC[C@H](NC(NC2CC2)=[NH+][C@H](Cc2ccccc2O)C(=O)Nc2cccc(O)c2)CN1
     RDKit          3D

 63 66  0  0  1  0  0  0  0  0999 V2000
  133.2552  138.0714  167.0259 O   0  0  0  0  0  0  0  0  0  0  0  0
  132.6162  137.4336  166.2159 C   0  0  0  0  0  0  0  0  0  0  0  0
  131.2318  136.9906  166.5929 C   0  0  0  0  0  0  0  0  0  0  0  0
  130.7749  135.8656  165.6609 C   0  0  0  0  0  0  0  0  0  0  0  0
  131.0372  136.2984  164.2136 C   0  0  2  0  0  0  0  0  0  0  0  0
  130.5956  137.2794  164.0381 H   0  0  0  0  0  0  0  0  0  0  0  0
  130.4505  135.3232  163.2911 N   0  0  0  0  0  0  0  0  0  0  0  0
  130.5629  135.5074  161.9333 C   0  0  0  0  0  0  0  0  0  0  0  0
  130.6346  136.7790  161.4157 N   0  0  0  0  0  0  0  0  0  0  0  0
  130.7543  136.9751  159.9688 C   0  0  0  0  0  0  0  0  0  0  0  0
  130.3364  138.3339  159.4032 C   0  0  0  0  0  0  0  0  0  0  0  0
  129.4596  137.1023  159.1636 C   0  0  0  0  0  0  0  0  0  0  0  0
  130.6012  134.4764  161.1367 N   0  0  0  0  0  0  0  0  0  0  0  0
  130.6805  134.6064  160.1787 H   0  0  0  0  0  0  0  0  0  0  0  0
  130.5247  133.1214  161.6883 C   0  0  2  0  0  0  0  0  0  0  0  0
  130.9606  133.1105  162.6872 H   0  0  0  0  0  0  0  0  0  0  0  0
  131.2970  132.1584  160.7842 C   0  0  0  0  0  0  0  0  0  0  0  0
  130.6941  132.1735  159.4031 C   0  0  0  0  0  0  0  0  0  0  0  0
  129.6743  131.2975  159.0842 C   0  0  0  0  0  0  0  0  0  0  0  0
  129.1202  131.3115  157.8178 C   0  0  0  0  0  0  0  0  0  0  0  0
  129.5852  132.2014  156.8669 C   0  0  0  0  0  0  0  0  0  0  0  0
  130.6044  133.0791  157.1806 C   0  0  0  0  0  0  0  0  0  0  0  0
  131.1586  133.0707  158.4527 C   0  0  0  0  0  0  0  0  0  0  0  0
  132.1577  133.9371  158.7657 O   0  0  0  0  0  0  0  0  0  0  0  0
  129.0824  132.6909  161.7649 C   0  0  0  0  0  0  0  0  0  0  0  0
  128.7993  131.5932  162.1962 O   0  0  0  0  0  0  0  0  0  0  0  0
  128.1074  133.5257  161.3538 N   0  0  0  0  0  0  0  0  0  0  0  0
  126.7684  133.1258  161.4246 C   0  0  0  0  0  0  0  0  0  0  0  0
  126.4368  131.7817  161.3077 C   0  0  0  0  0  0  0  0  0  0  0  0
  125.1153  131.3869  161.3784 C   0  0  0  0  0  0  0  0  0  0  0  0
  124.1195  132.3271  161.5648 C   0  0  0  0  0  0  0  0  0  0  0  0
  124.4447  133.6709  161.6820 C   0  0  0  0  0  0  0  0  0  0  0  0
  123.4644  134.5942  161.8651 O   0  0  0  0  0  0  0  0  0  0  0  0
  125.7706  134.0703  161.6176 C   0  0  0  0  0  0  0  0  0  0  0  0
  132.5486  136.3692  163.9922 C   0  0  0  0  0  0  0  0  0  0  0  0
  133.1809  137.1628  165.0385 N   0  0  0  0  0  0  0  0  0  0  0  0
  131.2345  136.6300  167.6216 H   0  0  0  0  0  0  0  0  0  0  0  0
  130.5459  137.8334  166.5065 H   0  0  0  0  0  0  0  0  0  0  0  0
  131.3352  134.9566  165.8807 H   0  0  0  0  0  0  0  0  0  0  0  0
  129.7094  135.6832  165.8006 H   0  0  0  0  0  0  0  0  0  0  0  0
  129.9828  134.5477  163.6384 H   0  0  0  0  0  0  0  0  0  0  0  0
  130.6058  137.5463  162.0084 H   0  0  0  0  0  0  0  0  0  0  0  0
  131.5948  136.4692  159.4936 H   0  0  0  0  0  0  0  0  0  0  0  0
  129.9723  139.0819  160.1075 H   0  0  0  0  0  0  0  0  0  0  0  0
  130.9017  138.7217  158.5556 H   0  0  0  0  0  0  0  0  0  0  0  0
  129.4483  136.6803  158.1586 H   0  0  0  0  0  0  0  0  0  0  0  0
  128.5187  137.0399  159.7103 H   0  0  0  0  0  0  0  0  0  0  0  0
  132.3401  132.4697  160.7288 H   0  0  0  0  0  0  0  0  0  0  0  0
  131.2400  131.1501  161.1945 H   0  0  0  0  0  0  0  0  0  0  0  0
  129.3094  130.6015  159.8251 H   0  0  0  0  0  0  0  0  0  0  0  0
  128.3226  130.6264  157.5708 H   0  0  0  0  0  0  0  0  0  0  0  0
  129.1507  132.2103  155.8782 H   0  0  0  0  0  0  0  0  0  0  0  0
  130.9669  133.7742  156.4378 H   0  0  0  0  0  0  0  0  0  0  0  0
  132.4129  134.5222  158.0392 H   0  0  0  0  0  0  0  0  0  0  0  0
  128.3338  134.4034  161.0089 H   0  0  0  0  0  0  0  0  0  0  0  0
  127.2131  131.0450  161.1616 H   0  0  0  0  0  0  0  0  0  0  0  0
  124.8594  130.3416  161.2877 H   0  0  0  0  0  0  0  0  0  0  0  0
  123.0868  132.0154  161.6191 H   0  0  0  0  0  0  0  0  0  0  0  0
  123.7880  135.5027  161.9355 H   0  0  0  0  0  0  0  0  0  0  0  0
  126.0259  135.1154  161.7128 H   0  0  0  0  0  0  0  0  0  0  0  0
  132.7498  136.8253  163.0229 H   0  0  0  0  0  0  0  0  0  0  0  0
  132.9596  135.3598  164.0076 H   0  0  0  0  0  0  0  0  0  0  0  0
  134.0678  137.5165  164.8677 H   0  0  0  0  0  0  0  0  0  0  0  0
  1  2  2  0
  2 36  1  0
  2  3  1  0
  3  4  1  0
  3 37  1  0
  3 38  1  0
  4  5  1  0
  4 39  1  0
  4 40  1  0
  5  6  1  6
  5  7  1  0
  5 35  1  0
  7 41  1  0
  8  7  1  0
  8  9  1  0
  8 13  2  0
  9 10  1  0
  9 42  1  0
 10 12  1  0
 10 11  1  0
 10 43  1  0
 11 12  1  0
 11 44  1  0
 11 45  1  0
 12 46  1  0
 12 47  1  0
 13 14  1  0
 13 15  1  0
 15 16  1  1
 15 17  1  0
 15 25  1  0
 17 18  1  0
 17 48  1  0
 17 49  1  0
 18 23  1  0
 18 19  2  0
 19 20  1  0
 19 50  1  0
 20 21  2  0
 20 51  1  0
 21 22  1  0
 21 52  1  0
 22 23  2  0
 22 53  1  0
 23 24  1  0
 24 54  1  0
 25 26  2  0
 25 27  1  0
 27 28  1  0
 27 55  1  0
 28 34  1  0
 28 29  2  0
 29 30  1  0
 29 56  1  0
 30 31  2  0
 30 57  1  0
 31 32  1  0
 31 58  1  0
 32 33  1  0
 32 34  2  0
 33 59  1  0
 34 60  1  0
 35 36  1  0
 35 61  1  0
 35 62  1  0
 36 63  1  0
M  CHG  1  13   1
M  END
>  <DOCK_score>  (1) 
-45.445747

>  <SMILES>  (1) 
O=C1CC[C@H](NC(NC2CC2)=[NH+][C@H](Cc2ccccc2O)C(=O)Nc2cccc(O)c2)CN1

$$$$
