O=C1CC[C@H](NC(NC2CC2)=[NH+][C@H]2COc3cc(Br)ccc3C2)CN1
     RDKit          3D

 49 52  0  0  1  0  0  0  0  0999 V2000
  123.7406  133.6886  161.4196 O   0  0  0  0  0  0  0  0  0  0  0  0
  124.9115  133.8692  161.1601 C   0  0  0  0  0  0  0  0  0  0  0  0
  125.7020  132.7192  160.6051 C   0  0  0  0  0  0  0  0  0  0  0  0
  127.1999  132.9965  160.7548 C   0  0  0  0  0  0  0  0  0  0  0  0
  127.4868  134.4075  160.2274 C   0  0  2  0  0  0  0  0  0  0  0  0
  127.0785  134.5121  159.2221 H   0  0  0  0  0  0  0  0  0  0  0  0
  128.9335  134.6360  160.1965 N   0  0  0  0  0  0  0  0  0  0  0  0
  129.6556  134.3188  159.0704 C   0  0  0  0  0  0  0  0  0  0  0  0
  129.0202  133.7873  157.9733 N   0  0  0  0  0  0  0  0  0  0  0  0
  129.7383  132.8723  157.0827 C   0  0  0  0  0  0  0  0  0  0  0  0
  129.0704  131.5353  156.7555 C   0  0  0  0  0  0  0  0  0  0  0  0
  130.2816  131.5771  157.6895 C   0  0  0  0  0  0  0  0  0  0  0  0
  130.9429  134.5223  159.0429 N   0  0  0  0  0  0  0  0  0  0  0  0
  131.3839  134.7256  158.2032 H   0  0  0  0  0  0  0  0  0  0  0  0
  131.7225  134.4496  160.2810 C   0  0  1  0  0  0  0  0  0  0  0  0
  131.2552  133.7448  160.9686 H   0  0  0  0  0  0  0  0  0  0  0  0
  133.1530  133.9943  159.9654 C   0  0  0  0  0  0  0  0  0  0  0  0
  133.8566  133.8336  161.1980 O   0  0  0  0  0  0  0  0  0  0  0  0
  133.7943  134.8465  162.1012 C   0  0  0  0  0  0  0  0  0  0  0  0
  134.7339  134.8798  163.1267 C   0  0  0  0  0  0  0  0  0  0  0  0
  134.6984  135.8882  164.0688 C   0  0  0  0  0  0  0  0  0  0  0  0
  135.9775  135.9284  165.4609 Br  0  0  0  0  0  0  0  0  0  0  0  0
  133.7255  136.8695  163.9937 C   0  0  0  0  0  0  0  0  0  0  0  0
  132.7926  136.8394  162.9762 C   0  0  0  0  0  0  0  0  0  0  0  0
  132.8242  135.8307  162.0275 C   0  0  0  0  0  0  0  0  0  0  0  0
  131.7910  135.8346  160.9295 C   0  0  0  0  0  0  0  0  0  0  0  0
  126.8263  135.4255  161.1579 C   0  0  0  0  0  0  0  0  0  0  0  0
  125.4281  135.0783  161.3826 N   0  0  0  0  0  0  0  0  0  0  0  0
  125.4614  132.5905  159.5497 H   0  0  0  0  0  0  0  0  0  0  0  0
  125.4463  131.8089  161.1472 H   0  0  0  0  0  0  0  0  0  0  0  0
  127.7677  132.2665  160.1779 H   0  0  0  0  0  0  0  0  0  0  0  0
  127.4815  132.9334  161.8060 H   0  0  0  0  0  0  0  0  0  0  0  0
  129.3820  135.0110  160.9706 H   0  0  0  0  0  0  0  0  0  0  0  0
  128.0963  134.0181  157.7889 H   0  0  0  0  0  0  0  0  0  0  0  0
  130.3276  133.3462  156.2977 H   0  0  0  0  0  0  0  0  0  0  0  0
  128.0965  131.3364  157.2030 H   0  0  0  0  0  0  0  0  0  0  0  0
  129.2200  131.1293  155.7552 H   0  0  0  0  0  0  0  0  0  0  0  0
  131.2281  131.1987  157.3033 H   0  0  0  0  0  0  0  0  0  0  0  0
  130.1045  131.4057  158.7513 H   0  0  0  0  0  0  0  0  0  0  0  0
  133.1265  133.0446  159.4313 H   0  0  0  0  0  0  0  0  0  0  0  0
  133.6512  134.7464  159.3537 H   0  0  0  0  0  0  0  0  0  0  0  0
  135.4938  134.1146  163.1855 H   0  0  0  0  0  0  0  0  0  0  0  0
  133.6962  137.6585  164.7305 H   0  0  0  0  0  0  0  0  0  0  0  0
  132.0345  137.6066  162.9194 H   0  0  0  0  0  0  0  0  0  0  0  0
  132.0641  136.5743  160.1770 H   0  0  0  0  0  0  0  0  0  0  0  0
  130.8174  136.0869  161.3496 H   0  0  0  0  0  0  0  0  0  0  0  0
  127.3512  135.4340  162.1132 H   0  0  0  0  0  0  0  0  0  0  0  0
  126.8866  136.4167  160.7084 H   0  0  0  0  0  0  0  0  0  0  0  0
  124.8357  135.7719  161.7126 H   0  0  0  0  0  0  0  0  0  0  0  0
  1  2  2  0
  2 28  1  0
  2  3  1  0
  3  4  1  0
  3 29  1  0
  3 30  1  0
  4  5  1  0
  4 31  1  0
  4 32  1  0
  5  6  1  6
  5  7  1  0
  5 27  1  0
  7 33  1  0
  8  7  1  0
  8  9  1  0
  8 13  2  0
  9 10  1  0
  9 34  1  0
 10 12  1  0
 10 11  1  0
 10 35  1  0
 11 12  1  0
 11 36  1  0
 11 37  1  0
 12 38  1  0
 12 39  1  0
 13 14  1  0
 13 15  1  0
 15 16  1  1
 15 26  1  0
 15 17  1  0
 17 18  1  0
 17 40  1  0
 17 41  1  0
 18 19  1  0
 19 25  2  0
 19 20  1  0
 20 21  2  0
 20 42  1  0
 21 22  1  0
 21 23  1  0
 23 24  2  0
 23 43  1  0
 24 25  1  0
 24 44  1  0
 25 26  1  0
 26 45  1  0
 26 46  1  0
 27 28  1  0
 27 47  1  0
 27 48  1  0
 28 49  1  0
M  CHG  1  13   1
M  END
>  <DOCK_score>  (1) 
-46.3862

>  <SMILES>  (1) 
O=C1CC[C@H](NC(NC2CC2)=[NH+][C@H]2COc3cc(Br)ccc3C2)CN1

$$$$
