C(=Cc1ccccc1)Sc1ccccc1C[NH2+]Cc1c[nH]nc1-c1ccc(NC[C@@H]2CC3CC2C3)o1
     RDKit          3D

 69 74  0  0  1  0  0  0  0  0999 V2000
  135.2821  137.0676  162.6880 C   0  0  0  0  0  0  0  0  0  0  0  0
  135.7989  135.8917  163.0643 C   0  0  0  0  0  0  0  0  0  0  0  0
  136.3279  135.7223  164.4304 C   0  0  0  0  0  0  0  0  0  0  0  0
  137.6664  135.3735  164.6264 C   0  0  0  0  0  0  0  0  0  0  0  0
  138.1529  135.2110  165.9068 C   0  0  0  0  0  0  0  0  0  0  0  0
  137.3185  135.3929  166.9957 C   0  0  0  0  0  0  0  0  0  0  0  0
  135.9916  135.7384  166.8092 C   0  0  0  0  0  0  0  0  0  0  0  0
  135.4914  135.9041  165.5345 C   0  0  0  0  0  0  0  0  0  0  0  0
  134.6500  137.2702  161.0557 S   0  0  0  0  0  0  0  0  0  0  0  0
  133.3986  138.4728  161.3593 C   0  0  0  0  0  0  0  0  0  0  0  0
  133.7001  139.8273  161.2800 C   0  0  0  0  0  0  0  0  0  0  0  0
  132.7170  140.7667  161.5185 C   0  0  0  0  0  0  0  0  0  0  0  0
  131.4331  140.3615  161.8362 C   0  0  0  0  0  0  0  0  0  0  0  0
  131.1296  139.0146  161.9164 C   0  0  0  0  0  0  0  0  0  0  0  0
  132.1065  138.0692  161.6730 C   0  0  0  0  0  0  0  0  0  0  0  0
  131.7731  136.6019  161.7541 C   0  0  0  0  0  0  0  0  0  0  0  0
  131.3380  136.1251  160.4344 N   0  0  0  0  0  0  0  0  0  0  0  0
  130.5207  136.6401  160.1433 H   0  0  0  0  0  0  0  0  0  0  0  0
  132.0798  136.2648  159.7649 H   0  0  0  0  0  0  0  0  0  0  0  0
  131.0128  134.6946  160.5134 C   0  0  0  0  0  0  0  0  0  0  0  0
  130.5665  134.2055  159.1596 C   0  0  0  0  0  0  0  0  0  0  0  0
  131.3644  133.7043  158.1925 C   0  0  0  0  0  0  0  0  0  0  0  0
  130.5876  133.3781  157.1366 N   0  0  0  0  0  0  0  0  0  0  0  0
  130.8957  132.9935  156.3012 H   0  0  0  0  0  0  0  0  0  0  0  0
  129.2610  133.6955  157.4552 N   0  0  0  0  0  0  0  0  0  0  0  0
  129.2415  134.1955  158.6751 C   0  0  0  0  0  0  0  0  0  0  0  0
  128.0446  134.6616  159.4053 C   0  0  0  0  0  0  0  0  0  0  0  0
  126.7838  134.1753  159.2598 C   0  0  0  0  0  0  0  0  0  0  0  0
  125.9615  134.9028  160.1427 C   0  0  0  0  0  0  0  0  0  0  0  0
  126.7587  135.7949  160.7816 C   0  0  0  0  0  0  0  0  0  0  0  0
  126.3452  136.7121  161.7408 N   0  0  0  0  0  0  0  0  0  0  0  0
  127.3177  137.6210  162.3526 C   0  0  0  0  0  0  0  0  0  0  0  0
  126.6078  138.5197  163.3671 C   0  0  2  0  0  0  0  0  0  0  0  0
  125.8284  139.1146  162.8909 H   0  0  0  0  0  0  0  0  0  0  0  0
  127.6204  139.4193  164.1388 C   0  0  0  0  0  0  0  0  0  0  0  0
  127.3796  138.8779  165.5895 C   0  0  2  0  0  0  0  0  0  0  0  0
  127.2466  137.3276  165.4927 C   0  0  0  0  0  0  0  0  0  0  0  0
  126.0429  137.6907  164.5709 C   0  0  1  0  0  0  0  0  0  0  0  0
  125.8349  138.7711  165.6627 C   0  0  0  0  0  0  0  0  0  0  0  0
  128.0167  135.6393  160.3353 O   0  0  0  0  0  0  0  0  0  0  0  0
  135.2525  137.8923  163.3847 H   0  0  0  0  0  0  0  0  0  0  0  0
  135.8286  135.0671  162.3676 H   0  0  0  0  0  0  0  0  0  0  0  0
  138.3187  135.2309  163.7775 H   0  0  0  0  0  0  0  0  0  0  0  0
  139.1875  134.9418  166.0599 H   0  0  0  0  0  0  0  0  0  0  0  0
  137.7047  135.2640  167.9960 H   0  0  0  0  0  0  0  0  0  0  0  0
  135.3462  135.8782  167.6637 H   0  0  0  0  0  0  0  0  0  0  0  0
  134.4556  136.1734  165.3903 H   0  0  0  0  0  0  0  0  0  0  0  0
  134.7023  140.1445  161.0324 H   0  0  0  0  0  0  0  0  0  0  0  0
  132.9507  141.8194  161.4575 H   0  0  0  0  0  0  0  0  0  0  0  0
  130.6661  141.0984  162.0222 H   0  0  0  0  0  0  0  0  0  0  0  0
  130.1263  138.7019  162.1649 H   0  0  0  0  0  0  0  0  0  0  0  0
  132.6559  136.0454  162.0684 H   0  0  0  0  0  0  0  0  0  0  0  0
  130.9717  136.4508  162.4773 H   0  0  0  0  0  0  0  0  0  0  0  0
  131.8957  134.1381  160.8279 H   0  0  0  0  0  0  0  0  0  0  0  0
  130.2115  134.5436  161.2367 H   0  0  0  0  0  0  0  0  0  0  0  0
  132.4359  133.5834  158.2533 H   0  0  0  0  0  0  0  0  0  0  0  0
  126.4721  133.3835  158.5948 H   0  0  0  0  0  0  0  0  0  0  0  0
  124.8985  134.7746  160.2837 H   0  0  0  0  0  0  0  0  0  0  0  0
  125.4126  136.7502  162.0052 H   0  0  0  0  0  0  0  0  0  0  0  0
  128.0892  137.0405  162.8587 H   0  0  0  0  0  0  0  0  0  0  0  0
  127.7755  138.2375  161.5790 H   0  0  0  0  0  0  0  0  0  0  0  0
  128.6441  139.2392  163.8109 H   0  0  0  0  0  0  0  0  0  0  0  0
  127.3591  140.4743  164.0575 H   0  0  0  0  0  0  0  0  0  0  0  0
  127.9420  139.3319  166.4055 H   0  0  0  0  0  0  0  0  0  0  0  0
  128.0736  136.8366  164.9798 H   0  0  0  0  0  0  0  0  0  0  0  0
  126.9665  136.8411  166.4272 H   0  0  0  0  0  0  0  0  0  0  0  0
  125.2656  136.9545  164.3657 H   0  0  0  0  0  0  0  0  0  0  0  0
  125.4575  138.3839  166.6090 H   0  0  0  0  0  0  0  0  0  0  0  0
  125.3081  139.6607  165.3170 H   0  0  0  0  0  0  0  0  0  0  0  0
  1  2  2  0
  1  9  1  0
  1 41  1  0
  2  3  1  0
  2 42  1  0
  3  8  1  0
  3  4  2  0
  4  5  1  0
  4 43  1  0
  5  6  2  0
  5 44  1  0
  6  7  1  0
  6 45  1  0
  7  8  2  0
  7 46  1  0
  8 47  1  0
  9 10  1  0
 10 15  1  0
 10 11  2  0
 11 12  1  0
 11 48  1  0
 12 13  2  0
 12 49  1  0
 13 14  1  0
 13 50  1  0
 14 15  2  0
 14 51  1  0
 15 16  1  0
 16 17  1  0
 16 52  1  0
 16 53  1  0
 17 18  1  0
 17 19  1  0
 17 20  1  0
 20 21  1  0
 20 54  1  0
 20 55  1  0
 21 26  1  0
 21 22  2  0
 22 23  1  0
 22 56  1  0
 23 24  1  0
 23 25  1  0
 25 26  2  0
 26 27  1  0
 27 40  1  0
 27 28  2  0
 28 29  1  0
 28 57  1  0
 29 30  2  0
 29 58  1  0
 30 31  1  0
 30 40  1  0
 31 32  1  0
 31 59  1  0
 32 33  1  0
 32 60  1  0
 32 61  1  0
 33 34  1  6
 33 38  1  0
 33 35  1  0
 35 36  1  0
 35 62  1  0
 35 63  1  0
 36 39  1  0
 36 37  1  0
 36 64  1  1
 37 38  1  0
 37 65  1  0
 37 66  1  0
 38 39  1  0
 38 67  1  6
 39 68  1  0
 39 69  1  0
M  CHG  1  17   1
M  END
>  <DOCK_score>  (1) 
-45.447556

>  <SMILES>  (1) 
C(=Cc1ccccc1)Sc1ccccc1C[NH2+]Cc1c[nH]nc1-c1ccc(NC[C@@H]2CC3CC2C3)o1

$$$$
