CCc1ccc(-c2c[nH]c(N[C@H](C)Cc3ccc(N[C@H]4[C@@H]5CC=CC[C@@H]54)cc3)[nH+]2)cc1
     RDKit          3D

 64 68  0  0  1  0  0  0  0  0999 V2000
  130.2566  128.6409  152.1977 C   0  0  0  0  0  0  0  0  0  0  0  0
  131.2347  129.8110  152.3225 C   0  0  0  0  0  0  0  0  0  0  0  0
  130.9613  130.5597  153.6014 C   0  0  0  0  0  0  0  0  0  0  0  0
  131.6099  130.1923  154.7673 C   0  0  0  0  0  0  0  0  0  0  0  0
  131.3675  130.8783  155.9401 C   0  0  0  0  0  0  0  0  0  0  0  0
  130.4591  131.9353  155.9510 C   0  0  0  0  0  0  0  0  0  0  0  0
  130.1894  132.6722  157.2098 C   0  0  0  0  0  0  0  0  0  0  0  0
  129.6918  132.1415  158.3543 C   0  0  0  0  0  0  0  0  0  0  0  0
  129.6042  133.1670  159.2641 N   0  0  0  0  0  0  0  0  0  0  0  0
  129.2847  133.0990  160.1774 H   0  0  0  0  0  0  0  0  0  0  0  0
  130.0425  134.2972  158.6455 C   0  0  0  0  0  0  0  0  0  0  0  0
  130.1090  135.5559  159.2182 N   0  0  0  0  0  0  0  0  0  0  0  0
  129.6852  135.7521  160.6067 C   0  0  2  0  0  0  0  0  0  0  0  0
  130.0200  134.9092  161.2114 H   0  0  0  0  0  0  0  0  0  0  0  0
  128.1593  135.8479  160.6655 C   0  0  0  0  0  0  0  0  0  0  0  0
  130.2987  137.0445  161.1494 C   0  0  0  0  0  0  0  0  0  0  0  0
  131.7283  136.7911  161.5529 C   0  0  0  0  0  0  0  0  0  0  0  0
  132.7461  136.9664  160.6332 C   0  0  0  0  0  0  0  0  0  0  0  0
  134.0578  136.7406  161.0012 C   0  0  0  0  0  0  0  0  0  0  0  0
  134.3535  136.3259  162.2937 C   0  0  0  0  0  0  0  0  0  0  0  0
  135.6786  136.0914  162.6677 N   0  0  0  0  0  0  0  0  0  0  0  0
  136.0959  136.3013  164.0563 C   0  0  1  0  0  0  0  0  0  0  0  0
  135.6723  137.1779  164.5465 H   0  0  0  0  0  0  0  0  0  0  0  0
  136.3348  135.0589  164.9165 C   0  0  2  0  0  0  0  0  0  0  0  0
  136.1779  134.0803  164.4631 H   0  0  0  0  0  0  0  0  0  0  0  0
  136.0233  135.1768  166.4171 C   0  0  0  0  0  0  0  0  0  0  0  0
  137.3257  135.1727  167.1791 C   0  0  0  0  0  0  0  0  0  0  0  0
  138.3386  135.8932  166.7660 C   0  0  0  0  0  0  0  0  0  0  0  0
  138.2189  136.7378  165.5211 C   0  0  0  0  0  0  0  0  0  0  0  0
  137.5255  135.9055  164.4308 C   0  0  2  0  0  0  0  0  0  0  0  0
  138.1672  135.4946  163.6512 H   0  0  0  0  0  0  0  0  0  0  0  0
  133.3281  136.1450  163.2133 C   0  0  0  0  0  0  0  0  0  0  0  0
  132.0190  136.3783  162.8402 C   0  0  0  0  0  0  0  0  0  0  0  0
  130.3914  133.9976  157.4182 N   0  0  0  0  0  0  0  0  0  0  0  0
  130.7387  134.6233  156.7634 H   0  0  0  0  0  0  0  0  0  0  0  0
  129.8046  132.2970  154.7749 C   0  0  0  0  0  0  0  0  0  0  0  0
  130.0589  131.6075  153.6068 C   0  0  0  0  0  0  0  0  0  0  0  0
  130.4546  128.0991  151.2727 H   0  0  0  0  0  0  0  0  0  0  0  0
  130.3829  127.9688  153.0465 H   0  0  0  0  0  0  0  0  0  0  0  0
  129.2354  129.0214  152.1844 H   0  0  0  0  0  0  0  0  0  0  0  0
  132.2565  129.4298  152.3362 H   0  0  0  0  0  0  0  0  0  0  0  0
  131.1088  130.4824  151.4741 H   0  0  0  0  0  0  0  0  0  0  0  0
  132.3103  129.3704  154.7586 H   0  0  0  0  0  0  0  0  0  0  0  0
  131.8774  130.5938  156.8486 H   0  0  0  0  0  0  0  0  0  0  0  0
  129.4186  131.1097  158.5194 H   0  0  0  0  0  0  0  0  0  0  0  0
  130.4363  136.3078  158.7001 H   0  0  0  0  0  0  0  0  0  0  0  0
  127.7224  134.9272  160.2790 H   0  0  0  0  0  0  0  0  0  0  0  0
  127.8439  135.9938  161.6987 H   0  0  0  0  0  0  0  0  0  0  0  0
  127.8246  136.6907  160.0610 H   0  0  0  0  0  0  0  0  0  0  0  0
  130.2698  137.8126  160.3766 H   0  0  0  0  0  0  0  0  0  0  0  0
  129.7303  137.3801  162.0168 H   0  0  0  0  0  0  0  0  0  0  0  0
  132.5152  137.2844  159.6272 H   0  0  0  0  0  0  0  0  0  0  0  0
  134.8527  136.8820  160.2838 H   0  0  0  0  0  0  0  0  0  0  0  0
  136.3225  135.7893  162.0081 H   0  0  0  0  0  0  0  0  0  0  0  0
  135.4901  136.1083  166.6083 H   0  0  0  0  0  0  0  0  0  0  0  0
  135.4123  134.3307  166.7317 H   0  0  0  0  0  0  0  0  0  0  0  0
  137.4233  134.5720  168.0713 H   0  0  0  0  0  0  0  0  0  0  0  0
  139.2657  135.8826  167.3197 H   0  0  0  0  0  0  0  0  0  0  0  0
  139.2119  137.0321  165.1812 H   0  0  0  0  0  0  0  0  0  0  0  0
  137.6248  137.6258  165.7372 H   0  0  0  0  0  0  0  0  0  0  0  0
  133.5545  135.8230  164.2189 H   0  0  0  0  0  0  0  0  0  0  0  0
  131.2214  136.2383  163.5549 H   0  0  0  0  0  0  0  0  0  0  0  0
  129.0993  133.1150  154.7777 H   0  0  0  0  0  0  0  0  0  0  0  0
  129.5526  131.8872  152.6947 H   0  0  0  0  0  0  0  0  0  0  0  0
  1  2  1  0
  1 38  1  0
  1 39  1  0
  1 40  1  0
  2  3  1  0
  2 41  1  0
  2 42  1  0
  3 37  2  0
  3  4  1  0
  4  5  2  0
  4 43  1  0
  5  6  1  0
  5 44  1  0
  6  7  1  0
  6 36  2  0
  7 34  1  0
  7  8  2  0
  8  9  1  0
  8 45  1  0
  9 10  1  0
  9 11  1  0
 11 12  1  0
 11 34  2  0
 12 13  1  0
 12 46  1  0
 13 14  1  1
 13 15  1  0
 13 16  1  0
 15 47  1  0
 15 48  1  0
 15 49  1  0
 16 17  1  0
 16 50  1  0
 16 51  1  0
 17 33  1  0
 17 18  2  0
 18 19  1  0
 18 52  1  0
 19 20  2  0
 19 53  1  0
 20 21  1  0
 20 32  1  0
 21 22  1  0
 21 54  1  0
 22 23  1  1
 22 30  1  0
 22 24  1  0
 24 25  1  6
 24 30  1  0
 24 26  1  0
 26 27  1  0
 26 55  1  0
 26 56  1  0
 27 28  2  0
 27 57  1  0
 28 29  1  0
 28 58  1  0
 29 30  1  0
 29 59  1  0
 29 60  1  0
 30 31  1  6
 32 33  2  0
 32 61  1  0
 33 62  1  0
 34 35  1  0
 36 37  1  0
 36 63  1  0
 37 64  1  0
M  CHG  1  34   1
M  END
>  <DOCK_score>  (1) 
-58.145138

>  <SMILES>  (1) 
CCc1ccc(-c2c[nH]c(N[C@H](C)Cc3ccc(N[C@H]4[C@@H]5CC=CC[C@@H]54)cc3)[nH+]2)cc1

$$$$
