O=C1CC[C@H](NC(N[C@H]2CCC(=O)NC2)=[NH+]Cc2ncccc2C2CC2)CN1
     RDKit          3D

 57 60  0  0  1  0  0  0  0  0999 V2000
  134.7668  135.5292  163.0388 O   0  0  0  0  0  0  0  0  0  0  0  0
  133.9353  135.3318  162.1783 C   0  0  0  0  0  0  0  0  0  0  0  0
  133.0828  134.0998  162.2831 C   0  0  0  0  0  0  0  0  0  0  0  0
  132.4310  133.8010  160.9306 C   0  0  0  0  0  0  0  0  0  0  0  0
  131.7938  135.0925  160.4039 C   0  0  2  0  0  0  0  0  0  0  0  0
  131.1409  135.5159  161.1672 H   0  0  0  0  0  0  0  0  0  0  0  0
  131.0150  134.8000  159.1982 N   0  0  0  0  0  0  0  0  0  0  0  0
  129.6867  134.4612  159.3031 C   0  0  0  0  0  0  0  0  0  0  0  0
  129.0892  134.3970  160.5396 N   0  0  0  0  0  0  0  0  0  0  0  0
  127.6739  134.0360  160.6516 C   0  0  1  0  0  0  0  0  0  0  0  0
  127.3999  133.3718  159.8318 H   0  0  0  0  0  0  0  0  0  0  0  0
  127.4272  133.3297  161.9901 C   0  0  0  0  0  0  0  0  0  0  0  0
  125.9899  132.8040  162.0022 C   0  0  0  0  0  0  0  0  0  0  0  0
  125.0446  133.8909  161.5775 C   0  0  0  0  0  0  0  0  0  0  0  0
  123.8667  133.7605  161.8358 O   0  0  0  0  0  0  0  0  0  0  0  0
  125.4310  134.9919  160.9321 N   0  0  0  0  0  0  0  0  0  0  0  0
  126.8162  135.3008  160.6001 C   0  0  0  0  0  0  0  0  0  0  0  0
  128.9937  134.2009  158.2302 N   0  0  0  0  0  0  0  0  0  0  0  0
  128.0418  134.3863  158.2109 H   0  0  0  0  0  0  0  0  0  0  0  0
  129.6525  133.6283  157.0536 C   0  0  0  0  0  0  0  0  0  0  0  0
  130.2698  132.3029  157.4189 C   0  0  0  0  0  0  0  0  0  0  0  0
  130.1513  131.8460  158.6503 N   0  0  0  0  0  0  0  0  0  0  0  0
  130.6743  130.6918  159.0150 C   0  0  0  0  0  0  0  0  0  0  0  0
  131.3716  129.9140  158.1096 C   0  0  0  0  0  0  0  0  0  0  0  0
  131.5169  130.3616  156.8057 C   0  0  0  0  0  0  0  0  0  0  0  0
  130.9485  131.5778  156.4581 C   0  0  0  0  0  0  0  0  0  0  0  0
  131.0743  132.1047  155.0519 C   0  0  0  0  0  0  0  0  0  0  0  0
  129.8872  131.8945  154.1098 C   0  0  0  0  0  0  0  0  0  0  0  0
  131.1686  131.0802  153.9194 C   0  0  0  0  0  0  0  0  0  0  0  0
  132.9067  136.0859  160.0676 C   0  0  0  0  0  0  0  0  0  0  0  0
  133.8272  136.2200  161.1896 N   0  0  0  0  0  0  0  0  0  0  0  0
  132.3067  134.2591  163.0318 H   0  0  0  0  0  0  0  0  0  0  0  0
  133.7044  133.2551  162.5799 H   0  0  0  0  0  0  0  0  0  0  0  0
  131.6636  133.0369  161.0541 H   0  0  0  0  0  0  0  0  0  0  0  0
  133.1870  133.4515  160.2275 H   0  0  0  0  0  0  0  0  0  0  0  0
  131.4365  134.8453  158.3256 H   0  0  0  0  0  0  0  0  0  0  0  0
  129.6049  134.5905  161.3380 H   0  0  0  0  0  0  0  0  0  0  0  0
  128.1232  132.4980  162.1000 H   0  0  0  0  0  0  0  0  0  0  0  0
  127.5671  134.0358  162.8088 H   0  0  0  0  0  0  0  0  0  0  0  0
  125.9063  131.9624  161.3145 H   0  0  0  0  0  0  0  0  0  0  0  0
  125.7329  132.4753  163.0092 H   0  0  0  0  0  0  0  0  0  0  0  0
  124.7475  135.6270  160.6671 H   0  0  0  0  0  0  0  0  0  0  0  0
  127.2039  136.0285  161.3130 H   0  0  0  0  0  0  0  0  0  0  0  0
  126.8601  135.7253  159.5970 H   0  0  0  0  0  0  0  0  0  0  0  0
  130.4305  134.3080  156.7061 H   0  0  0  0  0  0  0  0  0  0  0  0
  128.9182  133.4811  156.2618 H   0  0  0  0  0  0  0  0  0  0  0  0
  130.5569  130.3504  160.0328 H   0  0  0  0  0  0  0  0  0  0  0  0
  131.7974  128.9695  158.4143 H   0  0  0  0  0  0  0  0  0  0  0  0
  132.0562  129.7750  156.0767 H   0  0  0  0  0  0  0  0  0  0  0  0
  131.6450  133.0272  154.9448 H   0  0  0  0  0  0  0  0  0  0  0  0
  129.0152  131.3749  154.5072 H   0  0  0  0  0  0  0  0  0  0  0  0
  129.6766  132.6786  153.3828 H   0  0  0  0  0  0  0  0  0  0  0  0
  131.8008  131.3290  153.0672 H   0  0  0  0  0  0  0  0  0  0  0  0
  131.1399  130.0252  154.1916 H   0  0  0  0  0  0  0  0  0  0  0  0
  133.4533  135.7320  159.1935 H   0  0  0  0  0  0  0  0  0  0  0  0
  132.4668  137.0578  159.8442 H   0  0  0  0  0  0  0  0  0  0  0  0
  134.3968  137.0046  161.2190 H   0  0  0  0  0  0  0  0  0  0  0  0
  1  2  2  0
  2 31  1  0
  2  3  1  0
  3  4  1  0
  3 32  1  0
  3 33  1  0
  4  5  1  0
  4 34  1  0
  4 35  1  0
  5  6  1  1
  5  7  1  0
  5 30  1  0
  7 36  1  0
  8  7  1  0
  8  9  1  0
  8 18  2  0
  9 10  1  1
  9 37  1  0
 10 11  1  6
 10 17  1  0
 10 12  1  0
 12 13  1  0
 12 38  1  0
 12 39  1  0
 13 14  1  0
 13 40  1  0
 13 41  1  0
 14 15  2  0
 14 16  1  0
 16 17  1  0
 16 42  1  0
 17 43  1  0
 17 44  1  0
 18 19  1  0
 18 20  1  0
 20 21  1  0
 20 45  1  0
 20 46  1  0
 21 26  1  0
 21 22  2  0
 22 23  1  0
 23 24  2  0
 23 47  1  0
 24 25  1  0
 24 48  1  0
 25 26  2  0
 25 49  1  0
 26 27  1  0
 27 29  1  0
 27 28  1  0
 27 50  1  0
 28 29  1  0
 28 51  1  0
 28 52  1  0
 29 53  1  0
 29 54  1  0
 30 31  1  0
 30 55  1  0
 30 56  1  0
 31 57  1  0
M  CHG  1  18   1
M  END
>  <DOCK_score>  (1) 
-52.636124

>  <SMILES>  (1) 
O=C1CC[C@H](NC(N[C@H]2CCC(=O)NC2)=[NH+]Cc2ncccc2C2CC2)CN1

$$$$
