O=C1CC[C@H](NC(NC2CCCCCC2)=[NH+]CCc2ccccc2)CN1
     RDKit          3D

 59 61  0  0  1  0  0  0  0  0999 V2000
  123.6609  133.9004  161.3279 O   0  0  0  0  0  0  0  0  0  0  0  0
  124.8500  134.1170  161.2275 C   0  0  0  0  0  0  0  0  0  0  0  0
  125.7374  133.0038  160.7494 C   0  0  0  0  0  0  0  0  0  0  0  0
  127.1950  133.3127  161.0996 C   0  0  0  0  0  0  0  0  0  0  0  0
  127.5081  134.7454  160.6515 C   0  0  2  0  0  0  0  0  0  0  0  0
  127.2302  134.8702  159.6049 H   0  0  0  0  0  0  0  0  0  0  0  0
  128.9398  135.0097  160.8146 N   0  0  0  0  0  0  0  0  0  0  0  0
  129.8096  134.7439  159.7836 C   0  0  0  0  0  0  0  0  0  0  0  0
  129.3360  134.2303  158.5997 N   0  0  0  0  0  0  0  0  0  0  0  0
  130.1882  133.3600  157.7857 C   0  0  0  0  0  0  0  0  0  0  0  0
  129.4349  132.9930  156.4906 C   0  0  0  0  0  0  0  0  0  0  0  0
  130.4407  132.5558  155.4603 C   0  0  0  0  0  0  0  0  0  0  0  0
  130.6371  131.0278  155.4394 C   0  0  0  0  0  0  0  0  0  0  0  0
  130.6932  130.4135  156.8513 C   0  0  0  0  0  0  0  0  0  0  0  0
  131.5038  131.2442  157.8090 C   0  0  0  0  0  0  0  0  0  0  0  0
  130.5490  132.1875  158.5688 C   0  0  0  0  0  0  0  0  0  0  0  0
  131.0835  134.9791  159.9288 N   0  0  0  0  0  0  0  0  0  0  0  0
  131.6973  134.7916  159.2014 H   0  0  0  0  0  0  0  0  0  0  0  0
  131.5883  135.5262  161.1906 C   0  0  0  0  0  0  0  0  0  0  0  0
  133.1049  135.7061  161.0979 C   0  0  0  0  0  0  0  0  0  0  0  0
  133.6241  136.2690  162.3959 C   0  0  0  0  0  0  0  0  0  0  0  0
  133.7102  137.6376  162.5704 C   0  0  0  0  0  0  0  0  0  0  0  0
  134.1824  138.1542  163.7626 C   0  0  0  0  0  0  0  0  0  0  0  0
  134.5770  137.3019  164.7768 C   0  0  0  0  0  0  0  0  0  0  0  0
  134.4958  135.9332  164.6004 C   0  0  0  0  0  0  0  0  0  0  0  0
  134.0195  135.4167  163.4099 C   0  0  0  0  0  0  0  0  0  0  0  0
  126.7051  135.7160  161.5183 C   0  0  0  0  0  0  0  0  0  0  0  0
  125.2995  135.3311  161.5473 N   0  0  0  0  0  0  0  0  0  0  0  0
  125.6386  132.9008  159.6688 H   0  0  0  0  0  0  0  0  0  0  0  0
  125.4388  132.0724  161.2306 H   0  0  0  0  0  0  0  0  0  0  0  0
  127.8527  132.6143  160.5820 H   0  0  0  0  0  0  0  0  0  0  0  0
  127.3409  133.2248  162.1762 H   0  0  0  0  0  0  0  0  0  0  0  0
  129.2740  135.3722  161.6498 H   0  0  0  0  0  0  0  0  0  0  0  0
  128.4374  134.4440  158.3033 H   0  0  0  0  0  0  0  0  0  0  0  0
  131.0965  133.9021  157.5226 H   0  0  0  0  0  0  0  0  0  0  0  0
  128.7380  132.1792  156.6906 H   0  0  0  0  0  0  0  0  0  0  0  0
  128.8906  133.8634  156.1246 H   0  0  0  0  0  0  0  0  0  0  0  0
  131.3972  133.0314  155.6769 H   0  0  0  0  0  0  0  0  0  0  0  0
  130.1020  132.8812  154.4767 H   0  0  0  0  0  0  0  0  0  0  0  0
  131.5679  130.8001  154.9199 H   0  0  0  0  0  0  0  0  0  0  0  0
  129.8113  130.5746  154.8915 H   0  0  0  0  0  0  0  0  0  0  0  0
  131.1348  129.4190  156.7859 H   0  0  0  0  0  0  0  0  0  0  0  0
  129.6771  130.3231  157.2355 H   0  0  0  0  0  0  0  0  0  0  0  0
  132.2354  131.8322  157.2549 H   0  0  0  0  0  0  0  0  0  0  0  0
  132.0172  130.5944  158.5176 H   0  0  0  0  0  0  0  0  0  0  0  0
  131.0332  132.5131  159.4893 H   0  0  0  0  0  0  0  0  0  0  0  0
  129.6414  131.6404  158.8239 H   0  0  0  0  0  0  0  0  0  0  0  0
  131.3528  134.8403  162.0042 H   0  0  0  0  0  0  0  0  0  0  0  0
  131.1190  136.4913  161.3815 H   0  0  0  0  0  0  0  0  0  0  0  0
  133.5741  134.7410  160.9069 H   0  0  0  0  0  0  0  0  0  0  0  0
  133.3404  136.3920  160.2844 H   0  0  0  0  0  0  0  0  0  0  0  0
  133.4055  138.3034  161.7766 H   0  0  0  0  0  0  0  0  0  0  0  0
  134.2455  139.2233  163.9005 H   0  0  0  0  0  0  0  0  0  0  0  0
  134.9483  137.7052  165.7072 H   0  0  0  0  0  0  0  0  0  0  0  0
  134.8041  135.2672  165.3929 H   0  0  0  0  0  0  0  0  0  0  0  0
  133.9561  134.3476  163.2720 H   0  0  0  0  0  0  0  0  0  0  0  0
  127.1024  135.7058  162.5333 H   0  0  0  0  0  0  0  0  0  0  0  0
  126.7946  136.7225  161.1098 H   0  0  0  0  0  0  0  0  0  0  0  0
  124.6505  135.9999  161.8159 H   0  0  0  0  0  0  0  0  0  0  0  0
  1  2  2  0
  2 28  1  0
  2  3  1  0
  3  4  1  0
  3 29  1  0
  3 30  1  0
  4  5  1  0
  4 31  1  0
  4 32  1  0
  5  6  1  6
  5  7  1  0
  5 27  1  0
  7 33  1  0
  8  7  1  0
  8  9  1  0
  8 17  2  0
  9 10  1  0
  9 34  1  0
 10 16  1  0
 10 11  1  0
 10 35  1  0
 11 12  1  0
 11 36  1  0
 11 37  1  0
 12 13  1  0
 12 38  1  0
 12 39  1  0
 13 14  1  0
 13 40  1  0
 13 41  1  0
 14 15  1  0
 14 42  1  0
 14 43  1  0
 15 16  1  0
 15 44  1  0
 15 45  1  0
 16 46  1  0
 16 47  1  0
 17 18  1  0
 17 19  1  0
 19 20  1  0
 19 48  1  0
 19 49  1  0
 20 21  1  0
 20 50  1  0
 20 51  1  0
 21 26  1  0
 21 22  2  0
 22 23  1  0
 22 52  1  0
 23 24  2  0
 23 53  1  0
 24 25  1  0
 24 54  1  0
 25 26  2  0
 25 55  1  0
 26 56  1  0
 27 28  1  0
 27 57  1  0
 27 58  1  0
 28 59  1  0
M  CHG  1  17   1
M  END
>  <DOCK_score>  (1) 
-44.101921

>  <SMILES>  (1) 
O=C1CC[C@H](NC(NC2CCCCCC2)=[NH+]CCc2ccccc2)CN1

$$$$
