Fc1ccc2[nH]cc(C[NH2+]CC3=CCCC[C@H]3NCc3cnn(C4CCCCC4)c3)c2c1
     RDKit          3D

 67 71  0  0  1  0  0  0  0  0999 V2000
  137.9976  139.0415  161.4048 F   0  0  0  0  0  0  0  0  0  0  0  0
  136.7297  139.3441  161.0495 C   0  0  0  0  0  0  0  0  0  0  0  0
  136.4195  140.6302  160.6217 C   0  0  0  0  0  0  0  0  0  0  0  0
  135.1327  140.9572  160.2560 C   0  0  0  0  0  0  0  0  0  0  0  0
  134.1291  139.9958  160.3126 C   0  0  0  0  0  0  0  0  0  0  0  0
  132.7824  140.0148  160.0211 N   0  0  0  0  0  0  0  0  0  0  0  0
  132.2925  140.7878  159.6999 H   0  0  0  0  0  0  0  0  0  0  0  0
  132.2391  138.7806  160.2526 C   0  0  0  0  0  0  0  0  0  0  0  0
  133.1878  137.9380  160.6909 C   0  0  0  0  0  0  0  0  0  0  0  0
  132.9992  136.4886  161.0581 C   0  0  0  0  0  0  0  0  0  0  0  0
  132.1826  135.8260  160.0323 N   0  0  0  0  0  0  0  0  0  0  0  0
  131.2827  136.2783  159.9749 H   0  0  0  0  0  0  0  0  0  0  0  0
  132.6483  135.8890  159.1393 H   0  0  0  0  0  0  0  0  0  0  0  0
  131.9987  134.4131  160.3902 C   0  0  0  0  0  0  0  0  0  0  0  0
  131.1611  133.7334  159.3380 C   0  0  0  0  0  0  0  0  0  0  0  0
  131.6808  132.7336  158.7009 C   0  0  0  0  0  0  0  0  0  0  0  0
  130.9674  131.9523  157.6365 C   0  0  0  0  0  0  0  0  0  0  0  0
  129.7589  132.7397  157.1256 C   0  0  0  0  0  0  0  0  0  0  0  0
  128.9463  133.2200  158.3347 C   0  0  0  0  0  0  0  0  0  0  0  0
  129.7741  134.2538  159.0982 C   0  0  1  0  0  0  0  0  0  0  0  0
  129.8288  135.1716  158.5129 H   0  0  0  0  0  0  0  0  0  0  0  0
  129.1315  134.5395  160.3879 N   0  0  0  0  0  0  0  0  0  0  0  0
  128.0036  135.4656  160.2205 C   0  0  0  0  0  0  0  0  0  0  0  0
  127.3709  135.7345  161.5615 C   0  0  0  0  0  0  0  0  0  0  0  0
  125.9999  135.7395  161.8384 C   0  0  0  0  0  0  0  0  0  0  0  0
  125.8404  136.0115  163.1081 N   0  0  0  0  0  0  0  0  0  0  0  0
  127.1068  136.1884  163.6803 N   0  0  0  0  0  0  0  0  0  0  0  0
  127.3816  136.5072  165.0836 C   0  0  0  0  0  0  0  0  0  0  0  0
  128.1358  137.8359  165.1663 C   0  0  0  0  0  0  0  0  0  0  0  0
  128.4229  138.1689  166.6317 C   0  0  0  0  0  0  0  0  0  0  0  0
  129.2758  137.0590  167.2494 C   0  0  0  0  0  0  0  0  0  0  0  0
  128.5216  135.7303  167.1666 C   0  0  0  0  0  0  0  0  0  0  0  0
  128.2346  135.3974  165.7011 C   0  0  0  0  0  0  0  0  0  0  0  0
  128.0290  136.0078  162.7117 C   0  0  0  0  0  0  0  0  0  0  0  0
  134.4399  138.6962  160.7506 C   0  0  0  0  0  0  0  0  0  0  0  0
  135.7506  138.3767  161.1125 C   0  0  0  0  0  0  0  0  0  0  0  0
  137.1954  141.3802  160.5760 H   0  0  0  0  0  0  0  0  0  0  0  0
  134.9031  141.9593  159.9252 H   0  0  0  0  0  0  0  0  0  0  0  0
  131.2010  138.5225  160.1049 H   0  0  0  0  0  0  0  0  0  0  0  0
  133.9716  136.0000  161.1200 H   0  0  0  0  0  0  0  0  0  0  0  0
  132.4963  136.4207  162.0228 H   0  0  0  0  0  0  0  0  0  0  0  0
  132.9711  133.9245  160.4522 H   0  0  0  0  0  0  0  0  0  0  0  0
  131.4959  134.3451  161.3549 H   0  0  0  0  0  0  0  0  0  0  0  0
  132.6905  132.4434  158.9510 H   0  0  0  0  0  0  0  0  0  0  0  0
  131.6506  131.7618  156.8090 H   0  0  0  0  0  0  0  0  0  0  0  0
  130.6285  131.0029  158.0512 H   0  0  0  0  0  0  0  0  0  0  0  0
  130.0990  133.5991  156.5480 H   0  0  0  0  0  0  0  0  0  0  0  0
  129.1419  132.0971  156.4975 H   0  0  0  0  0  0  0  0  0  0  0  0
  128.0156  133.6736  157.9939 H   0  0  0  0  0  0  0  0  0  0  0  0
  128.7247  132.3748  158.9864 H   0  0  0  0  0  0  0  0  0  0  0  0
  128.8358  133.6879  160.8412 H   0  0  0  0  0  0  0  0  0  0  0  0
  128.3627  136.4022  159.7937 H   0  0  0  0  0  0  0  0  0  0  0  0
  127.2652  135.0217  159.5527 H   0  0  0  0  0  0  0  0  0  0  0  0
  125.2095  135.5517  161.1268 H   0  0  0  0  0  0  0  0  0  0  0  0
  126.4413  136.5887  165.6285 H   0  0  0  0  0  0  0  0  0  0  0  0
  129.0763  137.7544  164.6212 H   0  0  0  0  0  0  0  0  0  0  0  0
  127.5282  138.6266  164.7264 H   0  0  0  0  0  0  0  0  0  0  0  0
  127.4825  138.2505  167.1769 H   0  0  0  0  0  0  0  0  0  0  0  0
  128.9603  139.1153  166.6907 H   0  0  0  0  0  0  0  0  0  0  0  0
  129.4804  137.2963  168.2934 H   0  0  0  0  0  0  0  0  0  0  0  0
  130.2162  136.9775  166.7043 H   0  0  0  0  0  0  0  0  0  0  0  0
  127.5813  135.8118  167.7116 H   0  0  0  0  0  0  0  0  0  0  0  0
  129.1293  134.9397  167.6066 H   0  0  0  0  0  0  0  0  0  0  0  0
  127.6972  134.4507  165.6422 H   0  0  0  0  0  0  0  0  0  0  0  0
  129.1750  135.3158  165.1562 H   0  0  0  0  0  0  0  0  0  0  0  0
  129.1003  136.0726  162.8325 H   0  0  0  0  0  0  0  0  0  0  0  0
  135.9942  137.3786  161.4452 H   0  0  0  0  0  0  0  0  0  0  0  0
  1  2  1  0
  2 36  2  0
  2  3  1  0
  3  4  2  0
  3 37  1  0
  4  5  1  0
  4 38  1  0
  5 35  2  0
  5  6  1  0
  6  7  1  0
  6  8  1  0
  8  9  2  0
  8 39  1  0
  9 10  1  0
  9 35  1  0
 10 11  1  0
 10 40  1  0
 10 41  1  0
 11 12  1  0
 11 13  1  0
 11 14  1  0
 14 15  1  0
 14 42  1  0
 14 43  1  0
 15 20  1  0
 15 16  2  0
 16 17  1  0
 16 44  1  0
 17 18  1  0
 17 45  1  0
 17 46  1  0
 18 19  1  0
 18 47  1  0
 18 48  1  0
 19 20  1  0
 19 49  1  0
 19 50  1  0
 20 21  1  6
 20 22  1  0
 22 23  1  0
 22 51  1  0
 23 24  1  0
 23 52  1  0
 23 53  1  0
 24 34  2  0
 24 25  1  0
 25 26  2  0
 25 54  1  0
 26 27  1  0
 27 28  1  0
 27 34  1  0
 28 33  1  0
 28 29  1  0
 28 55  1  0
 29 30  1  0
 29 56  1  0
 29 57  1  0
 30 31  1  0
 30 58  1  0
 30 59  1  0
 31 32  1  0
 31 60  1  0
 31 61  1  0
 32 33  1  0
 32 62  1  0
 32 63  1  0
 33 64  1  0
 33 65  1  0
 34 66  1  0
 35 36  1  0
 36 67  1  0
M  CHG  1  11   1
M  END
>  <DOCK_score>  (1) 
-41.637394

>  <SMILES>  (1) 
Fc1ccc2[nH]cc(C[NH2+]CC3=CCCC[C@H]3NCc3cnn(C4CCCCC4)c3)c2c1

$$$$
