OC[C@H](c1ccccc1)[NH+]1CCN(C(Cc2ccc(Cl)cc2)C(F)F)CC1
     RDKit          3D

 53 55  0  0  1  0  0  0  0  0999 V2000
  128.7361  137.3797  160.0662 O   0  0  0  0  0  0  0  0  0  0  0  0
  130.1574  137.5203  160.0202 C   0  0  0  0  0  0  0  0  0  0  0  0
  130.8140  136.2177  160.4818 C   0  0  2  0  0  0  0  0  0  0  0  0
  130.2572  135.8091  161.3251 H   0  0  0  0  0  0  0  0  0  0  0  0
  132.2343  136.4929  160.9036 C   0  0  0  0  0  0  0  0  0  0  0  0
  132.8241  135.7237  161.8893 C   0  0  0  0  0  0  0  0  0  0  0  0
  134.1284  135.9733  162.2731 C   0  0  0  0  0  0  0  0  0  0  0  0
  134.8402  136.9974  161.6774 C   0  0  0  0  0  0  0  0  0  0  0  0
  134.2486  137.7704  160.6955 C   0  0  0  0  0  0  0  0  0  0  0  0
  132.9457  137.5181  160.3086 C   0  0  0  0  0  0  0  0  0  0  0  0
  130.8101  135.2493  159.3772 N   0  0  0  0  0  0  0  0  0  0  0  0
  131.3254  135.6277  158.5965 H   0  0  0  0  0  0  0  0  0  0  0  0
  131.4413  133.9991  159.8201 C   0  0  0  0  0  0  0  0  0  0  0  0
  131.4545  132.9966  158.6641 C   0  0  0  0  0  0  0  0  0  0  0  0
  130.0751  132.7406  158.2258 N   0  0  0  0  0  0  0  0  0  0  0  0
  130.0413  131.7380  157.1526 C   0  0  1  0  0  0  0  0  0  0  0  0
  131.2064  131.9809  156.1911 C   0  0  0  0  0  0  0  0  0  0  0  0
  130.9163  131.3133  154.8715 C   0  0  0  0  0  0  0  0  0  0  0  0
  131.3129  130.0067  154.6563 C   0  0  0  0  0  0  0  0  0  0  0  0
  131.0472  129.3937  153.4463 C   0  0  0  0  0  0  0  0  0  0  0  0
  130.3836  130.0881  152.4505 C   0  0  0  0  0  0  0  0  0  0  0  0
  130.0494  129.3190  150.9305 Cl  0  0  0  0  0  0  0  0  0  0  0  0
  129.9915  131.3976  152.6646 C   0  0  0  0  0  0  0  0  0  0  0  0
  130.2532  132.0076  153.8770 C   0  0  0  0  0  0  0  0  0  0  0  0
  130.1632  130.3383  157.7583 C   0  0  0  0  0  0  0  0  0  0  0  0
  131.5055  130.0710  158.0485 F   0  0  0  0  0  0  0  0  0  0  0  0
  129.4095  130.2720  158.9350 F   0  0  0  0  0  0  0  0  0  0  0  0
  129.4220  133.9874  157.8026 C   0  0  0  0  0  0  0  0  0  0  0  0
  129.4256  134.9818  158.9658 C   0  0  0  0  0  0  0  0  0  0  0  0
  128.3887  137.1815  160.9465 H   0  0  0  0  0  0  0  0  0  0  0  0
  130.4635  138.3342  160.6775 H   0  0  0  0  0  0  0  0  0  0  0  0
  130.4678  137.7416  158.9991 H   0  0  0  0  0  0  0  0  0  0  0  0
  132.2668  134.9256  162.3571 H   0  0  0  0  0  0  0  0  0  0  0  0
  134.5905  135.3695  163.0400 H   0  0  0  0  0  0  0  0  0  0  0  0
  135.8580  137.1954  161.9794 H   0  0  0  0  0  0  0  0  0  0  0  0
  134.8046  138.5710  160.2303 H   0  0  0  0  0  0  0  0  0  0  0  0
  132.4836  138.1216  159.5415 H   0  0  0  0  0  0  0  0  0  0  0  0
  130.8775  133.5834  160.6552 H   0  0  0  0  0  0  0  0  0  0  0  0
  132.4644  134.2012  160.1374 H   0  0  0  0  0  0  0  0  0  0  0  0
  131.9093  132.0636  158.9970 H   0  0  0  0  0  0  0  0  0  0  0  0
  132.0299  133.4058  157.8338 H   0  0  0  0  0  0  0  0  0  0  0  0
  129.0995  131.8182  156.6098 H   0  0  0  0  0  0  0  0  0  0  0  0
  132.1204  131.5651  156.6153 H   0  0  0  0  0  0  0  0  0  0  0  0
  131.3325  133.0524  156.0362 H   0  0  0  0  0  0  0  0  0  0  0  0
  131.8310  129.4647  155.4337 H   0  0  0  0  0  0  0  0  0  0  0  0
  131.3578  128.3732  153.2781 H   0  0  0  0  0  0  0  0  0  0  0  0
  129.4777  131.9416  151.8859 H   0  0  0  0  0  0  0  0  0  0  0  0
  129.9434  133.0284  154.0457 H   0  0  0  0  0  0  0  0  0  0  0  0
  129.7916  129.6008  157.0467 H   0  0  0  0  0  0  0  0  0  0  0  0
  129.9638  134.4134  156.9582 H   0  0  0  0  0  0  0  0  0  0  0  0
  128.3941  133.7774  157.5069 H   0  0  0  0  0  0  0  0  0  0  0  0
  128.8720  134.5610  159.8052 H   0  0  0  0  0  0  0  0  0  0  0  0
  128.9544  135.9124  158.6496 H   0  0  0  0  0  0  0  0  0  0  0  0
  1  2  1  0
  1 30  1  0
  2  3  1  0
  2 31  1  0
  2 32  1  0
  3  4  1  1
  3  5  1  0
  3 11  1  0
  5 10  1  0
  5  6  2  0
  6  7  1  0
  6 33  1  0
  7  8  2  0
  7 34  1  0
  8  9  1  0
  8 35  1  0
  9 10  2  0
  9 36  1  0
 10 37  1  0
 11 12  1  0
 11 29  1  0
 11 13  1  0
 13 14  1  0
 13 38  1  0
 13 39  1  0
 14 15  1  0
 14 40  1  0
 14 41  1  0
 15 16  1  0
 15 28  1  0
 16 17  1  0
 16 25  1  0
 16 42  1  6
 17 18  1  0
 17 43  1  0
 17 44  1  0
 18 24  1  0
 18 19  2  0
 19 20  1  0
 19 45  1  0
 20 21  2  0
 20 46  1  0
 21 22  1  0
 21 23  1  0
 23 24  2  0
 23 47  1  0
 24 48  1  0
 25 26  1  0
 25 27  1  0
 25 49  1  0
 28 29  1  0
 28 50  1  0
 28 51  1  0
 29 52  1  0
 29 53  1  0
M  CHG  1  11   1
M  END
>  <DOCK_score>  (1) 
-57.157459

>  <SMILES>  (1) 
OC[C@H](c1ccccc1)[NH+]1CCN(C(Cc2ccc(Cl)cc2)C(F)F)CC1

$$$$
