Nc1cc(Sc2ccccc2)c(NC(=O)[C@@H]([NH3+])CC2CCCCCC2)cc1Cl
     RDKit          3D

 57 59  0  0  1  0  0  0  0  0999 V2000
  125.8470  138.8242  163.1975 N   0  0  0  0  0  0  0  0  0  0  0  0
  127.1284  138.3488  162.8970 C   0  0  0  0  0  0  0  0  0  0  0  0
  127.3097  137.0186  162.5444 C   0  0  0  0  0  0  0  0  0  0  0  0
  128.5795  136.5498  162.2412 C   0  0  0  0  0  0  0  0  0  0  0  0
  128.8123  134.8638  161.7857 S   0  0  0  0  0  0  0  0  0  0  0  0
  128.6232  134.8966  160.0342 C   0  0  0  0  0  0  0  0  0  0  0  0
  128.3555  136.0958  159.3849 C   0  0  0  0  0  0  0  0  0  0  0  0
  128.2128  136.1186  158.0117 C   0  0  0  0  0  0  0  0  0  0  0  0
  128.3253  134.9481  157.2836 C   0  0  0  0  0  0  0  0  0  0  0  0
  128.5865  133.7519  157.9269 C   0  0  0  0  0  0  0  0  0  0  0  0
  128.7357  133.7224  159.2992 C   0  0  0  0  0  0  0  0  0  0  0  0
  129.6727  137.4145  162.3022 C   0  0  0  0  0  0  0  0  0  0  0  0
  130.9591  136.9421  162.0008 N   0  0  0  0  0  0  0  0  0  0  0  0
  131.6577  137.4900  160.9866 C   0  0  0  0  0  0  0  0  0  0  0  0
  131.1743  138.3913  160.3345 O   0  0  0  0  0  0  0  0  0  0  0  0
  133.0393  136.9826  160.6630 C   0  0  1  0  0  0  0  0  0  0  0  0
  133.5129  136.6129  161.5723 H   0  0  0  0  0  0  0  0  0  0  0  0
  132.9435  135.8926  159.6829 N   0  0  0  0  0  0  0  0  0  0  0  0
  133.8558  135.4848  159.5432 H   0  0  0  0  0  0  0  0  0  0  0  0
  132.3085  135.1872  160.0253 H   0  0  0  0  0  0  0  0  0  0  0  0
  132.6003  136.2572  158.8068 H   0  0  0  0  0  0  0  0  0  0  0  0
  133.8770  138.1218  160.0785 C   0  0  0  0  0  0  0  0  0  0  0  0
  134.3959  139.0074  161.2131 C   0  0  0  0  0  0  0  0  0  0  0  0
  135.6116  138.3770  161.8365 C   0  0  0  0  0  0  0  0  0  0  0  0
  135.7048  138.6468  163.3505 C   0  0  0  0  0  0  0  0  0  0  0  0
  135.3361  140.0956  163.7231 C   0  0  0  0  0  0  0  0  0  0  0  0
  135.9105  141.1011  162.7622 C   0  0  0  0  0  0  0  0  0  0  0  0
  134.8503  141.4114  161.6858 C   0  0  0  0  0  0  0  0  0  0  0  0
  134.7932  140.3883  160.6521 C   0  0  0  0  0  0  0  0  0  0  0  0
  129.4863  138.7421  162.6555 C   0  0  0  0  0  0  0  0  0  0  0  0
  128.2187  139.2087  162.9522 C   0  0  0  0  0  0  0  0  0  0  0  0
  127.9890  140.8717  163.3941 Cl  0  0  0  0  0  0  0  0  0  0  0  0
  125.7200  139.7536  163.4442 H   0  0  0  0  0  0  0  0  0  0  0  0
  125.0857  138.2241  163.1590 H   0  0  0  0  0  0  0  0  0  0  0  0
  126.4624  136.3503  162.5019 H   0  0  0  0  0  0  0  0  0  0  0  0
  128.2631  137.0095  159.9532 H   0  0  0  0  0  0  0  0  0  0  0  0
  128.0084  137.0507  157.5060 H   0  0  0  0  0  0  0  0  0  0  0  0
  128.2087  134.9681  156.2101 H   0  0  0  0  0  0  0  0  0  0  0  0
  128.6741  132.8399  157.3551 H   0  0  0  0  0  0  0  0  0  0  0  0
  128.9393  132.7879  159.8010 H   0  0  0  0  0  0  0  0  0  0  0  0
  131.3457  136.2214  162.5222 H   0  0  0  0  0  0  0  0  0  0  0  0
  133.2606  138.7176  159.4053 H   0  0  0  0  0  0  0  0  0  0  0  0
  134.7204  137.7065  159.5269 H   0  0  0  0  0  0  0  0  0  0  0  0
  133.6186  139.1287  161.9676 H   0  0  0  0  0  0  0  0  0  0  0  0
  135.5740  137.3001  161.6719 H   0  0  0  0  0  0  0  0  0  0  0  0
  136.5031  138.7749  161.3518 H   0  0  0  0  0  0  0  0  0  0  0  0
  136.7243  138.4476  163.6809 H   0  0  0  0  0  0  0  0  0  0  0  0
  135.0299  137.9673  163.8709 H   0  0  0  0  0  0  0  0  0  0  0  0
  135.7121  140.3091  164.7236 H   0  0  0  0  0  0  0  0  0  0  0  0
  134.2502  140.1916  163.7269 H   0  0  0  0  0  0  0  0  0  0  0  0
  136.8019  140.6885  162.2898 H   0  0  0  0  0  0  0  0  0  0  0  0
  136.1662  142.0150  163.2983 H   0  0  0  0  0  0  0  0  0  0  0  0
  135.0878  142.3688  161.2219 H   0  0  0  0  0  0  0  0  0  0  0  0
  133.8733  141.4854  162.1635 H   0  0  0  0  0  0  0  0  0  0  0  0
  135.7722  140.3089  160.1797 H   0  0  0  0  0  0  0  0  0  0  0  0
  134.0624  140.6877  159.9010 H   0  0  0  0  0  0  0  0  0  0  0  0
  130.3319  139.4126  162.6991 H   0  0  0  0  0  0  0  0  0  0  0  0
  1  2  1  0
  1 33  1  0
  1 34  1  0
  2 31  2  0
  2  3  1  0
  3  4  2  0
  3 35  1  0
  4  5  1  0
  4 12  1  0
  5  6  1  0
  6 11  1  0
  6  7  2  0
  7  8  1  0
  7 36  1  0
  8  9  2  0
  8 37  1  0
  9 10  1  0
  9 38  1  0
 10 11  2  0
 10 39  1  0
 11 40  1  0
 12 13  1  0
 12 30  2  0
 13 14  1  0
 13 41  1  0
 14 15  2  0
 14 16  1  0
 16 17  1  1
 16 18  1  0
 16 22  1  0
 18 19  1  0
 18 20  1  0
 18 21  1  0
 22 23  1  0
 22 42  1  0
 22 43  1  0
 23 29  1  0
 23 24  1  0
 23 44  1  0
 24 25  1  0
 24 45  1  0
 24 46  1  0
 25 26  1  0
 25 47  1  0
 25 48  1  0
 26 27  1  0
 26 49  1  0
 26 50  1  0
 27 28  1  0
 27 51  1  0
 27 52  1  0
 28 29  1  0
 28 53  1  0
 28 54  1  0
 29 55  1  0
 29 56  1  0
 30 31  1  0
 30 57  1  0
 31 32  1  0
M  CHG  1  18   1
M  END
>  <DOCK_score>  (1) 
-43.381618

>  <SMILES>  (1) 
Nc1cc(Sc2ccccc2)c(NC(=O)[C@@H]([NH3+])CC2CCCCCC2)cc1Cl

$$$$
