C[C@@H](c1ccccc1Br)C(Nc1[nH]cc(-c2cccnc2)[nH+]1)C1=CCCC1
     RDKit          3D

 51 54  0  0  1  0  0  0  0  0999 V2000
  129.5368  136.8975  162.3145 C   0  0  0  0  0  0  0  0  0  0  0  0
  129.7362  136.8171  160.7997 C   0  0  1  0  0  0  0  0  0  0  0  0
  129.0158  137.4673  160.3034 H   0  0  0  0  0  0  0  0  0  0  0  0
  131.1343  137.2596  160.4529 C   0  0  0  0  0  0  0  0  0  0  0  0
  132.1602  136.3341  160.4042 C   0  0  0  0  0  0  0  0  0  0  0  0
  133.4417  136.7390  160.0810 C   0  0  0  0  0  0  0  0  0  0  0  0
  133.7003  138.0714  159.8173 C   0  0  0  0  0  0  0  0  0  0  0  0
  132.6765  138.9980  159.8709 C   0  0  0  0  0  0  0  0  0  0  0  0
  131.3926  138.5923  160.1888 C   0  0  0  0  0  0  0  0  0  0  0  0
  129.9914  139.8600  160.2627 Br  0  0  0  0  0  0  0  0  0  0  0  0
  129.5272  135.3749  160.3336 C   0  0  2  0  0  0  0  0  0  0  0  0
  130.1622  135.1871  159.0267 N   0  0  0  0  0  0  0  0  0  0  0  0
  130.1048  133.9541  158.4000 C   0  0  0  0  0  0  0  0  0  0  0  0
  129.4866  132.8445  158.8887 N   0  0  0  0  0  0  0  0  0  0  0  0
  129.0113  132.7758  159.7315 H   0  0  0  0  0  0  0  0  0  0  0  0
  129.6602  131.8397  157.9683 C   0  0  0  0  0  0  0  0  0  0  0  0
  130.3788  132.3636  156.9446 C   0  0  0  0  0  0  0  0  0  0  0  0
  130.8077  131.6434  155.7207 C   0  0  0  0  0  0  0  0  0  0  0  0
  130.9612  132.3272  154.5111 C   0  0  0  0  0  0  0  0  0  0  0  0
  131.3679  131.6106  153.3991 C   0  0  0  0  0  0  0  0  0  0  0  0
  131.5973  130.2517  153.5165 C   0  0  0  0  0  0  0  0  0  0  0  0
  131.4392  129.6326  154.6703 N   0  0  0  0  0  0  0  0  0  0  0  0
  131.0587  130.2733  155.7567 C   0  0  0  0  0  0  0  0  0  0  0  0
  130.6319  133.6643  157.2355 N   0  0  0  0  0  0  0  0  0  0  0  0
  131.1261  134.2807  156.6728 H   0  0  0  0  0  0  0  0  0  0  0  0
  128.0513  135.0925  160.2202 C   0  0  0  0  0  0  0  0  0  0  0  0
  127.4228  134.1669  160.8925 C   0  0  0  0  0  0  0  0  0  0  0  0
  125.9521  134.1468  160.5465 C   0  0  0  0  0  0  0  0  0  0  0  0
  125.8477  134.9471  159.2274 C   0  0  0  0  0  0  0  0  0  0  0  0
  127.1033  135.8479  159.3180 C   0  0  0  0  0  0  0  0  0  0  0  0
  128.4967  136.6786  162.5562 H   0  0  0  0  0  0  0  0  0  0  0  0
  130.1845  136.1709  162.8053 H   0  0  0  0  0  0  0  0  0  0  0  0
  129.7872  137.9001  162.6613 H   0  0  0  0  0  0  0  0  0  0  0  0
  131.9594  135.2941  160.6149 H   0  0  0  0  0  0  0  0  0  0  0  0
  134.2420  136.0150  160.0388 H   0  0  0  0  0  0  0  0  0  0  0  0
  134.7027  138.3879  159.5692 H   0  0  0  0  0  0  0  0  0  0  0  0
  132.8786  140.0387  159.6643 H   0  0  0  0  0  0  0  0  0  0  0  0
  129.9735  134.6914  161.0560 H   0  0  0  0  0  0  0  0  0  0  0  0
  130.6228  135.9268  158.6007 H   0  0  0  0  0  0  0  0  0  0  0  0
  129.2940  130.8265  158.0449 H   0  0  0  0  0  0  0  0  0  0  0  0
  130.7712  133.3885  154.4470 H   0  0  0  0  0  0  0  0  0  0  0  0
  131.5005  132.1065  152.4487 H   0  0  0  0  0  0  0  0  0  0  0  0
  131.9110  129.6887  152.6499 H   0  0  0  0  0  0  0  0  0  0  0  0
  130.9402  129.7317  156.6836 H   0  0  0  0  0  0  0  0  0  0  0  0
  127.8925  133.5024  161.6027 H   0  0  0  0  0  0  0  0  0  0  0  0
  125.6112  133.1223  160.3970 H   0  0  0  0  0  0  0  0  0  0  0  0
  125.3707  134.6307  161.3313 H   0  0  0  0  0  0  0  0  0  0  0  0
  125.8980  134.2851  158.3630 H   0  0  0  0  0  0  0  0  0  0  0  0
  124.9384  135.5477  159.2051 H   0  0  0  0  0  0  0  0  0  0  0  0
  126.8503  136.8134  159.7563 H   0  0  0  0  0  0  0  0  0  0  0  0
  127.5449  135.9823  158.3306 H   0  0  0  0  0  0  0  0  0  0  0  0
  1  2  1  0
  1 31  1  0
  1 32  1  0
  1 33  1  0
  2  3  1  6
  2  4  1  0
  2 11  1  0
  4  9  1  0
  4  5  2  0
  5  6  1  0
  5 34  1  0
  6  7  2  0
  6 35  1  0
  7  8  1  0
  7 36  1  0
  8  9  2  0
  8 37  1  0
  9 10  1  0
 11 12  1  0
 11 26  1  0
 11 38  1  1
 12 39  1  0
 13 12  1  0
 13 24  2  0
 13 14  1  0
 14 15  1  0
 14 16  1  0
 16 17  2  0
 16 40  1  0
 17 18  1  0
 17 24  1  0
 18 23  1  0
 18 19  2  0
 19 20  1  0
 19 41  1  0
 20 21  2  0
 20 42  1  0
 21 22  1  0
 21 43  1  0
 22 23  2  0
 23 44  1  0
 24 25  1  0
 26 30  1  0
 26 27  2  0
 27 28  1  0
 27 45  1  0
 28 29  1  0
 28 46  1  0
 28 47  1  0
 29 30  1  0
 29 48  1  0
 29 49  1  0
 30 50  1  0
 30 51  1  0
M  CHG  1  24   1
M  END
>  <DOCK_score>  (1) 
-57.802063

>  <SMILES>  (1) 
C[C@@H](c1ccccc1Br)C(Nc1[nH]cc(-c2cccnc2)[nH+]1)C1=CCCC1

$$$$
