CCc1ccc(-c2c[nH]c(N[C@@H](c3ccc(C)cc3)C(F)(F)F)[nH+]2)cc1
     RDKit          3D

 47 49  0  0  1  0  0  0  0  0999 V2000
  130.5879  128.4041  152.0089 C   0  0  0  0  0  0  0  0  0  0  0  0
  131.6421  129.4698  152.3147 C   0  0  0  0  0  0  0  0  0  0  0  0
  131.2184  130.2632  153.5238 C   0  0  0  0  0  0  0  0  0  0  0  0
  131.6022  129.8517  154.7870 C   0  0  0  0  0  0  0  0  0  0  0  0
  131.2211  130.5771  155.8975 C   0  0  0  0  0  0  0  0  0  0  0  0
  130.4391  131.7207  155.7450 C   0  0  0  0  0  0  0  0  0  0  0  0
  130.0222  132.5016  156.9351 C   0  0  0  0  0  0  0  0  0  0  0  0
  129.2831  132.0395  157.9739 C   0  0  0  0  0  0  0  0  0  0  0  0
  129.1310  133.0855  158.8514 N   0  0  0  0  0  0  0  0  0  0  0  0
  128.6483  133.0643  159.6925 H   0  0  0  0  0  0  0  0  0  0  0  0
  129.7823  134.1572  158.3226 C   0  0  0  0  0  0  0  0  0  0  0  0
  129.8688  135.4129  158.8988 N   0  0  0  0  0  0  0  0  0  0  0  0
  128.7860  135.9015  159.7561 C   0  0  1  0  0  0  0  0  0  0  0  0
  128.6640  135.2299  160.6058 H   0  0  0  0  0  0  0  0  0  0  0  0
  129.1234  137.2838  160.2529 C   0  0  0  0  0  0  0  0  0  0  0  0
  129.9021  138.1250  159.4802 C   0  0  0  0  0  0  0  0  0  0  0  0
  130.2081  139.3944  159.9340 C   0  0  0  0  0  0  0  0  0  0  0  0
  129.7431  139.8194  161.1642 C   0  0  0  0  0  0  0  0  0  0  0  0
  130.0796  141.2017  161.6610 C   0  0  0  0  0  0  0  0  0  0  0  0
  128.9687  138.9762  161.9394 C   0  0  0  0  0  0  0  0  0  0  0  0
  128.6592  137.7084  161.4837 C   0  0  0  0  0  0  0  0  0  0  0  0
  127.4837  135.9517  158.9545 C   0  0  0  0  0  0  0  0  0  0  0  0
  127.1705  134.6686  158.4932 F   0  0  0  0  0  0  0  0  0  0  0  0
  126.4498  136.4182  159.7731 F   0  0  0  0  0  0  0  0  0  0  0  0
  127.6404  136.8140  157.8640 F   0  0  0  0  0  0  0  0  0  0  0  0
  130.3178  133.8029  157.1799 N   0  0  0  0  0  0  0  0  0  0  0  0
  130.8404  134.3796  156.6009 H   0  0  0  0  0  0  0  0  0  0  0  0
  130.0509  132.1280  154.4699 C   0  0  0  0  0  0  0  0  0  0  0  0
  130.4422  131.3978  153.3661 C   0  0  0  0  0  0  0  0  0  0  0  0
  130.8945  127.8303  151.1343 H   0  0  0  0  0  0  0  0  0  0  0  0
  130.4878  127.7365  152.8647 H   0  0  0  0  0  0  0  0  0  0  0  0
  129.6308  128.8860  151.8101 H   0  0  0  0  0  0  0  0  0  0  0  0
  132.5993  128.9883  152.5132 H   0  0  0  0  0  0  0  0  0  0  0  0
  131.7421  130.1379  151.4585 H   0  0  0  0  0  0  0  0  0  0  0  0
  132.2045  128.9629  154.9044 H   0  0  0  0  0  0  0  0  0  0  0  0
  131.5253  130.2571  156.8833 H   0  0  0  0  0  0  0  0  0  0  0  0
  128.8891  131.0406  158.0892 H   0  0  0  0  0  0  0  0  0  0  0  0
  130.6462  135.9693  158.7348 H   0  0  0  0  0  0  0  0  0  0  0  0
  130.2687  137.7916  158.5206 H   0  0  0  0  0  0  0  0  0  0  0  0
  130.8127  140.0532  159.3284 H   0  0  0  0  0  0  0  0  0  0  0  0
  131.0094  141.1676  162.2285 H   0  0  0  0  0  0  0  0  0  0  0  0
  130.1972  141.8743  160.8110 H   0  0  0  0  0  0  0  0  0  0  0  0
  129.2756  141.5636  162.3017 H   0  0  0  0  0  0  0  0  0  0  0  0
  128.6052  139.3082  162.9008 H   0  0  0  0  0  0  0  0  0  0  0  0
  128.0543  137.0497  162.0893 H   0  0  0  0  0  0  0  0  0  0  0  0
  129.4447  133.0132  154.3458 H   0  0  0  0  0  0  0  0  0  0  0  0
  130.1416  131.7123  152.3776 H   0  0  0  0  0  0  0  0  0  0  0  0
  1  2  1  0
  1 30  1  0
  1 31  1  0
  1 32  1  0
  2  3  1  0
  2 33  1  0
  2 34  1  0
  3 29  2  0
  3  4  1  0
  4  5  2  0
  4 35  1  0
  5  6  1  0
  5 36  1  0
  6  7  1  0
  6 28  2  0
  7 26  1  0
  7  8  2  0
  8  9  1  0
  8 37  1  0
  9 10  1  0
  9 11  1  0
 11 12  1  0
 11 26  2  0
 12 13  1  0
 12 38  1  0
 13 14  1  1
 13 15  1  0
 13 22  1  0
 15 21  1  0
 15 16  2  0
 16 17  1  0
 16 39  1  0
 17 18  2  0
 17 40  1  0
 18 19  1  0
 18 20  1  0
 19 41  1  0
 19 42  1  0
 19 43  1  0
 20 21  2  0
 20 44  1  0
 21 45  1  0
 22 23  1  0
 22 24  1  0
 22 25  1  0
 26 27  1  0
 28 29  1  0
 28 46  1  0
 29 47  1  0
M  CHG  1  26   1
M  END
>  <DOCK_score>  (1) 
-56.252342

>  <SMILES>  (1) 
CCc1ccc(-c2c[nH]c(N[C@@H](c3ccc(C)cc3)C(F)(F)F)[nH+]2)cc1

$$$$
