Cc1cccc(C[NH2+][C@@H]2CC(C)CN(Cc3cnn4ccccc34)C2)c1C(O)(C=O)C(F)(F)F
     RDKit          3D

 64 67  0  0  1  0  0  0  0  0999 V2000
  133.1327  140.8688  162.3860 C   0  0  0  0  0  0  0  0  0  0  0  0
  133.3400  139.7219  161.4306 C   0  0  0  0  0  0  0  0  0  0  0  0
  134.3497  139.7813  160.4879 C   0  0  0  0  0  0  0  0  0  0  0  0
  134.5394  138.7296  159.6114 C   0  0  0  0  0  0  0  0  0  0  0  0
  133.7197  137.6182  159.6773 C   0  0  0  0  0  0  0  0  0  0  0  0
  132.7103  137.5589  160.6196 C   0  0  0  0  0  0  0  0  0  0  0  0
  131.8164  136.3478  160.6912 C   0  0  0  0  0  0  0  0  0  0  0  0
  132.2196  135.3802  159.6620 N   0  0  0  0  0  0  0  0  0  0  0  0
  133.1767  135.1016  159.8188 H   0  0  0  0  0  0  0  0  0  0  0  0
  132.1380  135.8051  158.7505 H   0  0  0  0  0  0  0  0  0  0  0  0
  131.3483  134.1995  159.7318 C   0  0  2  0  0  0  0  0  0  0  0  0
  131.1543  133.9508  160.7752 H   0  0  0  0  0  0  0  0  0  0  0  0
  132.0345  133.0164  159.0433 C   0  0  0  0  0  0  0  0  0  0  0  0
  131.0955  131.8072  159.0676 C   0  0  2  0  0  0  0  0  0  0  0  0
  131.7493  130.6378  158.3289 C   0  0  0  0  0  0  0  0  0  0  0  0
  129.7797  132.1754  158.3783 C   0  0  0  0  0  0  0  0  0  0  0  0
  129.1621  133.3114  159.0744 N   0  0  0  0  0  0  0  0  0  0  0  0
  127.8311  133.6043  158.5262 C   0  0  0  0  0  0  0  0  0  0  0  0
  127.0395  134.4033  159.5292 C   0  0  0  0  0  0  0  0  0  0  0  0
  127.0060  135.7846  159.6324 C   0  0  0  0  0  0  0  0  0  0  0  0
  126.2062  136.1209  160.6203 N   0  0  0  0  0  0  0  0  0  0  0  0
  125.6931  134.9567  161.2055 N   0  0  0  0  0  0  0  0  0  0  0  0
  124.8374  134.7502  162.2492 C   0  0  0  0  0  0  0  0  0  0  0  0
  124.4950  133.4992  162.6212 C   0  0  0  0  0  0  0  0  0  0  0  0
  125.0146  132.3867  161.9389 C   0  0  0  0  0  0  0  0  0  0  0  0
  125.8687  132.5764  160.8967 C   0  0  0  0  0  0  0  0  0  0  0  0
  126.2153  133.8886  160.5220 C   0  0  0  0  0  0  0  0  0  0  0  0
  130.0252  134.4984  159.0232 C   0  0  0  0  0  0  0  0  0  0  0  0
  132.5171  138.6131  161.4930 C   0  0  0  0  0  0  0  0  0  0  0  0
  131.4127  138.5512  162.5163 C   0  0  1  0  0  0  0  0  0  0  0  0
  130.9497  139.8734  162.7981 O   0  0  0  0  0  0  0  0  0  0  0  0
  130.2739  137.7244  161.9770 C   0  0  0  0  0  0  0  0  0  0  0  0
  129.7124  138.0594  160.9618 O   0  0  0  0  0  0  0  0  0  0  0  0
  131.9430  137.9119  163.8012 C   0  0  0  0  0  0  0  0  0  0  0  0
  133.0000  138.6794  164.3019 F   0  0  0  0  0  0  0  0  0  0  0  0
  130.9176  137.8543  164.7512 F   0  0  0  0  0  0  0  0  0  0  0  0
  132.3964  136.6174  163.5253 F   0  0  0  0  0  0  0  0  0  0  0  0
  132.3359  141.5126  162.0134 H   0  0  0  0  0  0  0  0  0  0  0  0
  132.8572  140.4799  163.3662 H   0  0  0  0  0  0  0  0  0  0  0  0
  134.0551  141.4436  162.4692 H   0  0  0  0  0  0  0  0  0  0  0  0
  134.9898  140.6495  160.4363 H   0  0  0  0  0  0  0  0  0  0  0  0
  135.3279  138.7761  158.8748 H   0  0  0  0  0  0  0  0  0  0  0  0
  133.8677  136.7967  158.9922 H   0  0  0  0  0  0  0  0  0  0  0  0
  130.7825  136.6486  160.5218 H   0  0  0  0  0  0  0  0  0  0  0  0
  131.9045  135.8888  161.6759 H   0  0  0  0  0  0  0  0  0  0  0  0
  132.9563  132.7724  159.5713 H   0  0  0  0  0  0  0  0  0  0  0  0
  132.2638  133.2789  158.0106 H   0  0  0  0  0  0  0  0  0  0  0  0
  130.8975  131.5209  160.1005 H   0  0  0  0  0  0  0  0  0  0  0  0
  131.9485  130.9258  157.2966 H   0  0  0  0  0  0  0  0  0  0  0  0
  132.6864  130.3760  158.8202 H   0  0  0  0  0  0  0  0  0  0  0  0
  131.0790  129.7784  158.3434 H   0  0  0  0  0  0  0  0  0  0  0  0
  129.9768  132.4483  157.3416 H   0  0  0  0  0  0  0  0  0  0  0  0
  129.1034  131.3210  158.4065 H   0  0  0  0  0  0  0  0  0  0  0  0
  127.9356  134.1782  157.6055 H   0  0  0  0  0  0  0  0  0  0  0  0
  127.3115  132.6696  158.3147 H   0  0  0  0  0  0  0  0  0  0  0  0
  127.5477  136.4738  159.0018 H   0  0  0  0  0  0  0  0  0  0  0  0
  124.4308  135.5967  162.7826 H   0  0  0  0  0  0  0  0  0  0  0  0
  123.8167  133.3523  163.4486 H   0  0  0  0  0  0  0  0  0  0  0  0
  124.7379  131.3870  162.2395 H   0  0  0  0  0  0  0  0  0  0  0  0
  126.2761  131.7303  160.3634 H   0  0  0  0  0  0  0  0  0  0  0  0
  130.2211  134.7603  157.9835 H   0  0  0  0  0  0  0  0  0  0  0  0
  129.5274  135.3310  159.5201 H   0  0  0  0  0  0  0  0  0  0  0  0
  130.3439  140.2281  162.1329 H   0  0  0  0  0  0  0  0  0  0  0  0
  129.9599  136.8322  162.4985 H   0  0  0  0  0  0  0  0  0  0  0  0
  1  2  1  0
  1 38  1  0
  1 39  1  0
  1 40  1  0
  2 29  2  0
  2  3  1  0
  3  4  2  0
  3 41  1  0
  4  5  1  0
  4 42  1  0
  5  6  2  0
  5 43  1  0
  6  7  1  0
  6 29  1  0
  7  8  1  0
  7 44  1  0
  7 45  1  0
  8  9  1  0
  8 10  1  0
  8 11  1  0
 11 12  1  1
 11 28  1  0
 11 13  1  0
 13 14  1  0
 13 46  1  0
 13 47  1  0
 14 15  1  0
 14 16  1  0
 14 48  1  1
 15 49  1  0
 15 50  1  0
 15 51  1  0
 16 17  1  0
 16 52  1  0
 16 53  1  0
 17 18  1  0
 17 28  1  0
 18 19  1  0
 18 54  1  0
 18 55  1  0
 19 27  2  0
 19 20  1  0
 20 21  2  0
 20 56  1  0
 21 22  1  0
 22 27  1  0
 22 23  1  0
 23 24  2  0
 23 57  1  0
 24 25  1  0
 24 58  1  0
 25 26  2  0
 25 59  1  0
 26 27  1  0
 26 60  1  0
 28 61  1  0
 28 62  1  0
 29 30  1  0
 30 31  1  1
 30 32  1  0
 30 34  1  0
 31 63  1  0
 32 33  2  0
 32 64  1  0
 34 35  1  0
 34 36  1  0
 34 37  1  0
M  CHG  1   8   1
M  END
>  <DOCK_score>  (1) 
-44.317406

>  <SMILES>  (1) 
Cc1cccc(C[NH2+][C@@H]2CC(C)CN(Cc3cnn4ccccc34)C2)c1C(O)(C=O)C(F)(F)F

$$$$
