CCc1ccc(-c2c[nH]c(N[C@@H](c3ccccc3)c3ccnn3C)[nH+]2)cc1
     RDKit          3D

 51 54  0  0  1  0  0  0  0  0999 V2000
  130.0568  129.1205  151.3247 C   0  0  0  0  0  0  0  0  0  0  0  0
  131.3573  129.6761  151.9088 C   0  0  0  0  0  0  0  0  0  0  0  0
  131.0635  130.3810  153.2080 C   0  0  0  0  0  0  0  0  0  0  0  0
  131.1004  129.6764  154.3978 C   0  0  0  0  0  0  0  0  0  0  0  0
  130.8378  130.3180  155.5911 C   0  0  0  0  0  0  0  0  0  0  0  0
  130.5240  131.6760  155.5947 C   0  0  0  0  0  0  0  0  0  0  0  0
  130.2354  132.3700  156.8735 C   0  0  0  0  0  0  0  0  0  0  0  0
  129.6941  131.8075  157.9824 C   0  0  0  0  0  0  0  0  0  0  0  0
  129.6007  132.7998  158.9277 N   0  0  0  0  0  0  0  0  0  0  0  0
  129.2515  132.7049  159.8277 H   0  0  0  0  0  0  0  0  0  0  0  0
  130.0882  133.9407  158.3684 C   0  0  0  0  0  0  0  0  0  0  0  0
  130.1707  135.1734  158.9929 N   0  0  0  0  0  0  0  0  0  0  0  0
  129.7095  135.3268  160.3750 C   0  0  1  0  0  0  0  0  0  0  0  0
  130.0025  134.4518  160.9549 H   0  0  0  0  0  0  0  0  0  0  0  0
  130.3307  136.5603  160.9779 C   0  0  0  0  0  0  0  0  0  0  0  0
  129.6523  137.2713  161.9501 C   0  0  0  0  0  0  0  0  0  0  0  0
  130.2240  138.4004  162.5062 C   0  0  0  0  0  0  0  0  0  0  0  0
  131.4700  138.8233  162.0844 C   0  0  0  0  0  0  0  0  0  0  0  0
  132.1465  138.1156  161.1076 C   0  0  0  0  0  0  0  0  0  0  0  0
  131.5765  136.9842  160.5548 C   0  0  0  0  0  0  0  0  0  0  0  0
  128.2085  135.4610  160.3915 C   0  0  0  0  0  0  0  0  0  0  0  0
  127.4448  135.9992  159.4128 C   0  0  0  0  0  0  0  0  0  0  0  0
  126.1089  135.9286  159.8214 C   0  0  0  0  0  0  0  0  0  0  0  0
  126.0728  135.3751  161.0063 N   0  0  0  0  0  0  0  0  0  0  0  0
  127.3860  135.0710  161.3877 N   0  0  0  0  0  0  0  0  0  0  0  0
  127.7942  134.4413  162.6459 C   0  0  0  0  0  0  0  0  0  0  0  0
  130.4718  133.6785  157.1428 N   0  0  0  0  0  0  0  0  0  0  0  0
  130.8605  134.3185  156.5261 H   0  0  0  0  0  0  0  0  0  0  0  0
  130.4828  132.3796  154.3922 C   0  0  0  0  0  0  0  0  0  0  0  0
  130.7526  131.7289  153.2055 C   0  0  0  0  0  0  0  0  0  0  0  0
  129.6144  128.4155  152.0287 H   0  0  0  0  0  0  0  0  0  0  0  0
  129.3604  129.9392  151.1444 H   0  0  0  0  0  0  0  0  0  0  0  0
  130.2694  128.6105  150.3851 H   0  0  0  0  0  0  0  0  0  0  0  0
  132.0537  128.8572  152.0891 H   0  0  0  0  0  0  0  0  0  0  0  0
  131.7997  130.3810  151.2049 H   0  0  0  0  0  0  0  0  0  0  0  0
  131.3391  128.6231  154.3933 H   0  0  0  0  0  0  0  0  0  0  0  0
  130.8715  129.7681  156.5201 H   0  0  0  0  0  0  0  0  0  0  0  0
  129.3936  130.7768  158.0997 H   0  0  0  0  0  0  0  0  0  0  0  0
  130.5341  135.9357  158.5155 H   0  0  0  0  0  0  0  0  0  0  0  0
  128.6770  136.9427  162.2775 H   0  0  0  0  0  0  0  0  0  0  0  0
  129.6958  138.9534  163.2689 H   0  0  0  0  0  0  0  0  0  0  0  0
  131.9156  139.7075  162.5158 H   0  0  0  0  0  0  0  0  0  0  0  0
  133.1202  138.4463  160.7776 H   0  0  0  0  0  0  0  0  0  0  0  0
  132.1049  136.4310  159.7922 H   0  0  0  0  0  0  0  0  0  0  0  0
  127.8031  136.4089  158.4800 H   0  0  0  0  0  0  0  0  0  0  0  0
  125.2551  136.2747  159.2578 H   0  0  0  0  0  0  0  0  0  0  0  0
  127.9833  135.2119  163.3933 H   0  0  0  0  0  0  0  0  0  0  0  0
  127.0002  133.7821  162.9966 H   0  0  0  0  0  0  0  0  0  0  0  0
  128.7028  133.8615  162.4840 H   0  0  0  0  0  0  0  0  0  0  0  0
  130.2399  133.4320  154.3892 H   0  0  0  0  0  0  0  0  0  0  0  0
  130.7207  132.2730  152.2732 H   0  0  0  0  0  0  0  0  0  0  0  0
  1  2  1  0
  1 31  1  0
  1 32  1  0
  1 33  1  0
  2  3  1  0
  2 34  1  0
  2 35  1  0
  3 30  2  0
  3  4  1  0
  4  5  2  0
  4 36  1  0
  5  6  1  0
  5 37  1  0
  6  7  1  0
  6 29  2  0
  7 27  1  0
  7  8  2  0
  8  9  1  0
  8 38  1  0
  9 10  1  0
  9 11  1  0
 11 12  1  0
 11 27  2  0
 12 13  1  0
 12 39  1  0
 13 14  1  1
 13 15  1  0
 13 21  1  0
 15 20  1  0
 15 16  2  0
 16 17  1  0
 16 40  1  0
 17 18  2  0
 17 41  1  0
 18 19  1  0
 18 42  1  0
 19 20  2  0
 19 43  1  0
 20 44  1  0
 21 25  1  0
 21 22  2  0
 22 23  1  0
 22 45  1  0
 23 24  2  0
 23 46  1  0
 24 25  1  0
 25 26  1  0
 26 47  1  0
 26 48  1  0
 26 49  1  0
 27 28  1  0
 29 30  1  0
 29 50  1  0
 30 51  1  0
M  CHG  1  27   1
M  END
>  <DOCK_score>  (1) 
-55.602272

>  <SMILES>  (1) 
CCc1ccc(-c2c[nH]c(N[C@@H](c3ccccc3)c3ccnn3C)[nH+]2)cc1

$$$$
