OCC(O)(CO)c1cccc(C2CC[N@@H+](C3CCC(c4ccccc4)CC3)C2)c1
     RDKit          3D

 63 66  0  0  1  0  0  0  0  0999 V2000
  125.1244  130.9883  161.9747 O   0  0  0  0  0  0  0  0  0  0  0  0
  124.4532  131.8909  161.0931 C   0  0  0  0  0  0  0  0  0  0  0  0
  125.3190  133.1343  160.8801 C   0  0  0  0  0  0  0  0  0  0  0  0
  124.6478  134.0367  159.9986 O   0  0  0  0  0  0  0  0  0  0  0  0
  125.5635  133.8219  162.2247 C   0  0  0  0  0  0  0  0  0  0  0  0
  125.9483  135.1800  162.0022 O   0  0  0  0  0  0  0  0  0  0  0  0
  126.6388  132.7297  160.2754 C   0  0  0  0  0  0  0  0  0  0  0  0
  126.8962  131.3986  160.0050 C   0  0  0  0  0  0  0  0  0  0  0  0
  128.1065  131.0276  159.4501 C   0  0  0  0  0  0  0  0  0  0  0  0
  129.0619  131.9872  159.1706 C   0  0  0  0  0  0  0  0  0  0  0  0
  128.8030  133.3184  159.4372 C   0  0  0  0  0  0  0  0  0  0  0  0
  129.8425  134.3649  159.1282 C   0  0  1  0  0  0  0  0  0  0  0  0
  129.2530  135.4481  158.2015 C   0  0  0  0  0  0  0  0  0  0  0  0
  129.3514  136.7616  159.0066 C   0  0  0  0  0  0  0  0  0  0  0  0
  130.4463  136.5219  159.9817 N   0  0  1  0  0  0  0  0  0  0  0  0
  131.3453  136.6302  159.5366 H   0  0  0  0  0  0  0  0  0  0  0  0
  130.3255  137.4364  161.1249 C   0  0  2  0  0  0  0  0  0  0  0  0
  130.4065  138.8826  160.6319 C   0  0  0  0  0  0  0  0  0  0  0  0
  131.7504  139.1099  159.9367 C   0  0  0  0  0  0  0  0  0  0  0  0
  132.8875  138.8437  160.9251 C   0  0  2  0  0  0  0  0  0  0  0  0
  134.2110  139.0676  160.2402 C   0  0  0  0  0  0  0  0  0  0  0  0
  135.3012  139.5046  160.9691 C   0  0  0  0  0  0  0  0  0  0  0  0
  136.5164  139.7063  160.3417 C   0  0  0  0  0  0  0  0  0  0  0  0
  136.6390  139.4793  158.9836 C   0  0  0  0  0  0  0  0  0  0  0  0
  135.5476  139.0468  158.2539 C   0  0  0  0  0  0  0  0  0  0  0  0
  134.3335  138.8415  158.8820 C   0  0  0  0  0  0  0  0  0  0  0  0
  132.8065  137.3976  161.4181 C   0  0  0  0  0  0  0  0  0  0  0  0
  131.4626  137.1702  162.1133 C   0  0  0  0  0  0  0  0  0  0  0  0
  130.2473  135.1150  160.4153 C   0  0  0  0  0  0  0  0  0  0  0  0
  127.5920  133.6895  159.9916 C   0  0  0  0  0  0  0  0  0  0  0  0
  124.6322  130.1759  162.1551 H   0  0  0  0  0  0  0  0  0  0  0  0
  123.4986  132.1835  161.5305 H   0  0  0  0  0  0  0  0  0  0  0  0
  124.2790  131.4010  160.1351 H   0  0  0  0  0  0  0  0  0  0  0  0
  125.1400  134.8493  159.8181 H   0  0  0  0  0  0  0  0  0  0  0  0
  124.6492  133.7959  162.8178 H   0  0  0  0  0  0  0  0  0  0  0  0
  126.3583  133.3020  162.7596 H   0  0  0  0  0  0  0  0  0  0  0  0
  125.2868  135.7039  161.5299 H   0  0  0  0  0  0  0  0  0  0  0  0
  126.1516  130.6486  160.2272 H   0  0  0  0  0  0  0  0  0  0  0  0
  128.3076  129.9878  159.2389 H   0  0  0  0  0  0  0  0  0  0  0  0
  130.0093  131.6968  158.7412 H   0  0  0  0  0  0  0  0  0  0  0  0
  130.7157  133.9050  158.6654 H   0  0  0  0  0  0  0  0  0  0  0  0
  129.8381  135.5212  157.2847 H   0  0  0  0  0  0  0  0  0  0  0  0
  128.2119  135.2229  157.9701 H   0  0  0  0  0  0  0  0  0  0  0  0
  129.6038  137.5930  158.3484 H   0  0  0  0  0  0  0  0  0  0  0  0
  128.4139  136.9602  159.5261 H   0  0  0  0  0  0  0  0  0  0  0  0
  129.3681  137.2744  161.6202 H   0  0  0  0  0  0  0  0  0  0  0  0
  129.5964  139.0722  159.9277 H   0  0  0  0  0  0  0  0  0  0  0  0
  130.3169  139.5611  161.4802 H   0  0  0  0  0  0  0  0  0  0  0  0
  131.8080  140.1401  159.5854 H   0  0  0  0  0  0  0  0  0  0  0  0
  131.8399  138.4314  159.0883 H   0  0  0  0  0  0  0  0  0  0  0  0
  132.7979  139.5223  161.7733 H   0  0  0  0  0  0  0  0  0  0  0  0
  135.2043  139.6856  162.0294 H   0  0  0  0  0  0  0  0  0  0  0  0
  137.3689  140.0445  160.9119 H   0  0  0  0  0  0  0  0  0  0  0  0
  137.5875  139.6402  158.4928 H   0  0  0  0  0  0  0  0  0  0  0  0
  135.6434  138.8698  157.1927 H   0  0  0  0  0  0  0  0  0  0  0  0
  133.4807  138.5040  158.3117 H   0  0  0  0  0  0  0  0  0  0  0  0
  133.6167  137.2079  162.1223 H   0  0  0  0  0  0  0  0  0  0  0  0
  132.8961  136.7190  160.5698 H   0  0  0  0  0  0  0  0  0  0  0  0
  131.3731  137.8488  162.9616 H   0  0  0  0  0  0  0  0  0  0  0  0
  131.4050  136.1399  162.4646 H   0  0  0  0  0  0  0  0  0  0  0  0
  129.4508  135.0547  161.1569 H   0  0  0  0  0  0  0  0  0  0  0  0
  131.1743  134.7064  160.8178 H   0  0  0  0  0  0  0  0  0  0  0  0
  127.3910  134.7293  160.2030 H   0  0  0  0  0  0  0  0  0  0  0  0
  1  2  1  0
  1 31  1  0
  2  3  1  0
  2 32  1  0
  2 33  1  0
  3  4  1  0
  3  5  1  0
  3  7  1  0
  4 34  1  0
  5  6  1  0
  5 35  1  0
  5 36  1  0
  6 37  1  0
  7 30  2  0
  7  8  1  0
  8  9  2  0
  8 38  1  0
  9 10  1  0
  9 39  1  0
 10 11  2  0
 10 40  1  0
 11 12  1  0
 11 30  1  0
 12 29  1  0
 12 13  1  0
 12 41  1  6
 13 14  1  0
 13 42  1  0
 13 43  1  0
 14 15  1  0
 14 44  1  0
 14 45  1  0
 15 16  1  6
 15 17  1  0
 15 29  1  0
 17 28  1  0
 17 18  1  0
 17 46  1  1
 18 19  1  0
 18 47  1  0
 18 48  1  0
 19 20  1  0
 19 49  1  0
 19 50  1  0
 20 21  1  0
 20 27  1  0
 20 51  1  1
 21 26  1  0
 21 22  2  0
 22 23  1  0
 22 52  1  0
 23 24  2  0
 23 53  1  0
 24 25  1  0
 24 54  1  0
 25 26  2  0
 25 55  1  0
 26 56  1  0
 27 28  1  0
 27 57  1  0
 27 58  1  0
 28 59  1  0
 28 60  1  0
 29 61  1  0
 29 62  1  0
 30 63  1  0
M  CHG  1  15   1
M  END
>  <DOCK_score>  (1) 
-41.436504

>  <SMILES>  (1) 
OCC(O)(CO)c1cccc(C2CC[N@@H+](C3CCC(c4ccccc4)CC3)C2)c1

$$$$
