Cc1ccc2c(c1)C[C@@H]([NH+]=C(NCC=CCl)N[C@H]1CCC(=O)NC1)CO2
     RDKit          3D

 52 54  0  0  1  0  0  0  0  0999 V2000
  133.3858  138.5027  164.9932 C   0  0  0  0  0  0  0  0  0  0  0  0
  133.5007  137.3653  164.0112 C   0  0  0  0  0  0  0  0  0  0  0  0
  134.5176  136.4375  164.1435 C   0  0  0  0  0  0  0  0  0  0  0  0
  134.6205  135.3953  163.2453 C   0  0  0  0  0  0  0  0  0  0  0  0
  133.7045  135.2746  162.2047 C   0  0  0  0  0  0  0  0  0  0  0  0
  132.6868  136.2033  162.0764 C   0  0  0  0  0  0  0  0  0  0  0  0
  132.5902  137.2492  162.9793 C   0  0  0  0  0  0  0  0  0  0  0  0
  131.6834  136.1190  160.9541 C   0  0  0  0  0  0  0  0  0  0  0  0
  131.6948  134.7083  160.3599 C   0  0  1  0  0  0  0  0  0  0  0  0
  131.2466  134.0088  161.0653 H   0  0  0  0  0  0  0  0  0  0  0  0
  130.9405  134.6945  159.1041 N   0  0  0  0  0  0  0  0  0  0  0  0
  131.3923  134.8741  158.2648 H   0  0  0  0  0  0  0  0  0  0  0  0
  129.6620  134.4409  159.1147 C   0  0  0  0  0  0  0  0  0  0  0  0
  129.0732  133.8309  158.0324 N   0  0  0  0  0  0  0  0  0  0  0  0
  129.8472  132.9033  157.2036 C   0  0  0  0  0  0  0  0  0  0  0  0
  130.3290  131.7543  158.0513 C   0  0  0  0  0  0  0  0  0  0  0  0
  129.5898  130.6784  158.1788 C   0  0  0  0  0  0  0  0  0  0  0  0
  130.1447  129.3548  159.1554 Cl  0  0  0  0  0  0  0  0  0  0  0  0
  128.9023  134.7830  160.2083 N   0  0  0  0  0  0  0  0  0  0  0  0
  127.4655  134.4978  160.2203 C   0  0  1  0  0  0  0  0  0  0  0  0
  127.0775  134.5310  159.2023 H   0  0  0  0  0  0  0  0  0  0  0  0
  127.2218  133.1070  160.8186 C   0  0  0  0  0  0  0  0  0  0  0  0
  125.7401  132.7614  160.6518 C   0  0  0  0  0  0  0  0  0  0  0  0
  124.8918  133.9066  161.1252 C   0  0  0  0  0  0  0  0  0  0  0  0
  123.7233  133.6927  161.3695 O   0  0  0  0  0  0  0  0  0  0  0  0
  125.3547  135.1460  161.2917 N   0  0  0  0  0  0  0  0  0  0  0  0
  126.7432  135.5372  161.0786 C   0  0  0  0  0  0  0  0  0  0  0  0
  133.1520  134.3102  160.0920 C   0  0  0  0  0  0  0  0  0  0  0  0
  133.8352  134.2321  161.3438 O   0  0  0  0  0  0  0  0  0  0  0  0
  132.7539  138.1995  165.8280 H   0  0  0  0  0  0  0  0  0  0  0  0
  134.3770  138.7641  165.3640 H   0  0  0  0  0  0  0  0  0  0  0  0
  132.9435  139.3670  164.4979 H   0  0  0  0  0  0  0  0  0  0  0  0
  135.2312  136.5290  164.9491 H   0  0  0  0  0  0  0  0  0  0  0  0
  135.4145  134.6707  163.3501 H   0  0  0  0  0  0  0  0  0  0  0  0
  131.7967  137.9746  162.8786 H   0  0  0  0  0  0  0  0  0  0  0  0
  131.9389  136.8412  160.1789 H   0  0  0  0  0  0  0  0  0  0  0  0
  130.6896  136.3406  161.3430 H   0  0  0  0  0  0  0  0  0  0  0  0
  128.1454  134.0147  157.8174 H   0  0  0  0  0  0  0  0  0  0  0  0
  129.2174  132.5226  156.3994 H   0  0  0  0  0  0  0  0  0  0  0  0
  130.7043  133.4251  156.7777 H   0  0  0  0  0  0  0  0  0  0  0  0
  131.2829  131.8168  158.5539 H   0  0  0  0  0  0  0  0  0  0  0  0
  128.6358  130.6159  157.6763 H   0  0  0  0  0  0  0  0  0  0  0  0
  129.3178  135.2133  160.9720 H   0  0  0  0  0  0  0  0  0  0  0  0
  127.8316  132.3705  160.2954 H   0  0  0  0  0  0  0  0  0  0  0  0
  127.4810  133.1125  161.8773 H   0  0  0  0  0  0  0  0  0  0  0  0
  125.5301  132.5657  159.6003 H   0  0  0  0  0  0  0  0  0  0  0  0
  125.5072  131.8730  161.2389 H   0  0  0  0  0  0  0  0  0  0  0  0
  124.7278  135.8319  161.5699 H   0  0  0  0  0  0  0  0  0  0  0  0
  127.2443  135.6188  162.0431 H   0  0  0  0  0  0  0  0  0  0  0  0
  126.7751  136.5041  160.5765 H   0  0  0  0  0  0  0  0  0  0  0  0
  133.6275  135.0610  159.4607 H   0  0  0  0  0  0  0  0  0  0  0  0
  133.1829  133.3403  159.5956 H   0  0  0  0  0  0  0  0  0  0  0  0
  1  2  1  0
  1 30  1  0
  1 31  1  0
  1 32  1  0
  2  7  2  0
  2  3  1  0
  3  4  2  0
  3 33  1  0
  4  5  1  0
  4 34  1  0
  5 29  1  0
  5  6  2  0
  6  7  1  0
  6  8  1  0
  7 35  1  0
  8  9  1  0
  8 36  1  0
  8 37  1  0
  9 10  1  1
  9 11  1  0
  9 28  1  0
 11 12  1  0
 13 11  2  0
 13 14  1  0
 13 19  1  0
 14 15  1  0
 14 38  1  0
 15 16  1  0
 15 39  1  0
 15 40  1  0
 16 17  2  0
 16 41  1  0
 17 18  1  0
 17 42  1  0
 19 20  1  0
 19 43  1  0
 20 21  1  6
 20 27  1  0
 20 22  1  0
 22 23  1  0
 22 44  1  0
 22 45  1  0
 23 24  1  0
 23 46  1  0
 23 47  1  0
 24 25  2  0
 24 26  1  0
 26 27  1  0
 26 48  1  0
 27 49  1  0
 27 50  1  0
 28 29  1  0
 28 51  1  0
 28 52  1  0
M  CHG  1  11   1
M  END
>  <DOCK_score>  (1) 
-47.410835

>  <SMILES>  (1) 
Cc1ccc2c(c1)C[C@@H]([NH+]=C(NCC=CCl)N[C@H]1CCC(=O)NC1)CO2

$$$$
