Brc1ccc(-c2c[nH]c(N[C@@H](CC3CC3)c3ccccc3)[nH+]2)cc1
     RDKit          3D

 45 48  0  0  1  0  0  0  0  0999 V2000
  130.6597  129.3521  150.0670 Br  0  0  0  0  0  0  0  0  0  0  0  0
  130.6561  130.0755  151.8141 C   0  0  0  0  0  0  0  0  0  0  0  0
  130.0130  131.2765  152.0615 C   0  0  0  0  0  0  0  0  0  0  0  0
  130.0077  131.8095  153.3344 C   0  0  0  0  0  0  0  0  0  0  0  0
  130.6510  131.1365  154.3717 C   0  0  0  0  0  0  0  0  0  0  0  0
  130.6489  131.7049  155.7418 C   0  0  0  0  0  0  0  0  0  0  0  0
  130.1380  131.1138  156.8502 C   0  0  0  0  0  0  0  0  0  0  0  0
  130.3460  131.9803  157.8958 N   0  0  0  0  0  0  0  0  0  0  0  0
  130.0890  131.8375  158.8202 H   0  0  0  0  0  0  0  0  0  0  0  0
  130.9784  133.0764  157.3952 C   0  0  0  0  0  0  0  0  0  0  0  0
  131.3681  134.1862  158.1254 N   0  0  0  0  0  0  0  0  0  0  0  0
  131.1049  134.2450  159.5654 C   0  0  1  0  0  0  0  0  0  0  0  0
  131.2869  133.2659  160.0083 H   0  0  0  0  0  0  0  0  0  0  0  0
  132.0312  135.2772  160.2114 C   0  0  0  0  0  0  0  0  0  0  0  0
  132.1296  135.0046  161.7137 C   0  0  0  0  0  0  0  0  0  0  0  0
  131.1238  135.7084  162.6268 C   0  0  0  0  0  0  0  0  0  0  0  0
  132.5869  136.1554  162.6122 C   0  0  0  0  0  0  0  0  0  0  0  0
  129.6699  134.6426  159.7978 C   0  0  0  0  0  0  0  0  0  0  0  0
  129.0007  134.1912  160.9200 C   0  0  0  0  0  0  0  0  0  0  0  0
  127.6858  134.5596  161.1354 C   0  0  0  0  0  0  0  0  0  0  0  0
  127.0374  135.3718  160.2239 C   0  0  0  0  0  0  0  0  0  0  0  0
  127.7051  135.8189  159.0990 C   0  0  0  0  0  0  0  0  0  0  0  0
  129.0212  135.4541  158.8859 C   0  0  0  0  0  0  0  0  0  0  0  0
  131.1576  132.9082  156.1078 N   0  0  0  0  0  0  0  0  0  0  0  0
  131.5860  133.5424  155.5119 H   0  0  0  0  0  0  0  0  0  0  0  0
  131.3010  129.9304  154.1160 C   0  0  0  0  0  0  0  0  0  0  0  0
  131.2960  129.4035  152.8406 C   0  0  0  0  0  0  0  0  0  0  0  0
  129.5147  131.7972  151.2570 H   0  0  0  0  0  0  0  0  0  0  0  0
  129.5057  132.7462  153.5266 H   0  0  0  0  0  0  0  0  0  0  0  0
  129.6629  130.1453  156.9019 H   0  0  0  0  0  0  0  0  0  0  0  0
  131.8154  134.9248  157.6835 H   0  0  0  0  0  0  0  0  0  0  0  0
  133.0224  135.2064  159.7637 H   0  0  0  0  0  0  0  0  0  0  0  0
  131.6297  136.2775  160.0492 H   0  0  0  0  0  0  0  0  0  0  0  0
  132.4406  133.9969  161.9892 H   0  0  0  0  0  0  0  0  0  0  0  0
  130.3920  136.3657  162.1572 H   0  0  0  0  0  0  0  0  0  0  0  0
  130.7727  135.1636  163.5033 H   0  0  0  0  0  0  0  0  0  0  0  0
  133.1985  135.9050  163.4788 H   0  0  0  0  0  0  0  0  0  0  0  0
  132.8180  137.1068  162.1328 H   0  0  0  0  0  0  0  0  0  0  0  0
  129.5061  133.5536  161.6302 H   0  0  0  0  0  0  0  0  0  0  0  0
  127.1643  134.2105  162.0143 H   0  0  0  0  0  0  0  0  0  0  0  0
  126.0093  135.6574  160.3908 H   0  0  0  0  0  0  0  0  0  0  0  0
  127.1984  136.4536  158.3870 H   0  0  0  0  0  0  0  0  0  0  0  0
  129.5428  135.8034  158.0071 H   0  0  0  0  0  0  0  0  0  0  0  0
  131.8045  129.4072  154.9154 H   0  0  0  0  0  0  0  0  0  0  0  0
  131.7956  128.4669  152.6422 H   0  0  0  0  0  0  0  0  0  0  0  0
  1  2  1  0
  2 27  2  0
  2  3  1  0
  3  4  2  0
  3 28  1  0
  4  5  1  0
  4 29  1  0
  5  6  1  0
  5 26  2  0
  6 24  1  0
  6  7  2  0
  7  8  1  0
  7 30  1  0
  8  9  1  0
  8 10  1  0
 10 11  1  0
 10 24  2  0
 11 12  1  0
 11 31  1  0
 12 13  1  1
 12 14  1  0
 12 18  1  0
 14 15  1  0
 14 32  1  0
 14 33  1  0
 15 17  1  0
 15 16  1  0
 15 34  1  0
 16 17  1  0
 16 35  1  0
 16 36  1  0
 17 37  1  0
 17 38  1  0
 18 23  1  0
 18 19  2  0
 19 20  1  0
 19 39  1  0
 20 21  2  0
 20 40  1  0
 21 22  1  0
 21 41  1  0
 22 23  2  0
 22 42  1  0
 23 43  1  0
 24 25  1  0
 26 27  1  0
 26 44  1  0
 27 45  1  0
M  CHG  1  24   1
M  END
>  <DOCK_score>  (1) 
-57.758224

>  <SMILES>  (1) 
Brc1ccc(-c2c[nH]c(N[C@@H](CC3CC3)c3ccccc3)[nH+]2)cc1

$$$$
