C[N@@H+](Cc1c[nH]nc1-c1ccc(Nc2nc3ccccc3[nH]2)o1)C1CC1
     RDKit          3D

 47 51  0  0  1  0  0  0  0  0999 V2000
  132.9370  135.6125  161.1322 C   0  0  0  0  0  0  0  0  0  0  0  0
  132.0906  136.4308  160.2535 N   0  0  1  0  0  0  0  0  0  0  0  0
  132.4469  136.3904  159.3104 H   0  0  0  0  0  0  0  0  0  0  0  0
  130.7151  135.9155  160.2799 C   0  0  0  0  0  0  0  0  0  0  0  0
  130.6105  134.7165  159.3729 C   0  0  0  0  0  0  0  0  0  0  0  0
  131.6124  134.1823  158.6421 C   0  0  0  0  0  0  0  0  0  0  0  0
  131.1183  133.1222  157.9666 N   0  0  0  0  0  0  0  0  0  0  0  0
  131.6169  132.5498  157.3628 H   0  0  0  0  0  0  0  0  0  0  0  0
  129.7626  132.9890  158.2930 N   0  0  0  0  0  0  0  0  0  0  0  0
  129.4485  133.9519  159.1371 C   0  0  0  0  0  0  0  0  0  0  0  0
  128.1176  134.1849  159.7350 C   0  0  0  0  0  0  0  0  0  0  0  0
  127.0007  133.4449  159.5050 C   0  0  0  0  0  0  0  0  0  0  0  0
  125.9692  134.0118  160.2788 C   0  0  0  0  0  0  0  0  0  0  0  0
  126.5031  135.0723  160.9342 C   0  0  0  0  0  0  0  0  0  0  0  0
  125.8220  135.9153  161.8067 N   0  0  0  0  0  0  0  0  0  0  0  0
  126.4965  136.5233  162.8460 C   0  0  0  0  0  0  0  0  0  0  0  0
  127.7727  136.3777  163.1025 N   0  0  0  0  0  0  0  0  0  0  0  0
  128.1059  137.1153  164.1938 C   0  0  0  0  0  0  0  0  0  0  0  0
  129.3027  137.3201  164.8852 C   0  0  0  0  0  0  0  0  0  0  0  0
  129.3251  138.1521  165.9819 C   0  0  0  0  0  0  0  0  0  0  0  0
  128.1671  138.7844  166.4097 C   0  0  0  0  0  0  0  0  0  0  0  0
  126.9760  138.5878  165.7417 C   0  0  0  0  0  0  0  0  0  0  0  0
  126.9348  137.7532  164.6351 C   0  0  0  0  0  0  0  0  0  0  0  0
  125.9299  137.3567  163.7682 N   0  0  0  0  0  0  0  0  0  0  0  0
  124.9995  137.6287  163.8032 H   0  0  0  0  0  0  0  0  0  0  0  0
  127.8023  135.1684  160.6033 O   0  0  0  0  0  0  0  0  0  0  0  0
  132.1009  137.8230  160.7218 C   0  0  0  0  0  0  0  0  0  0  0  0
  131.9520  138.9235  159.6692 C   0  0  0  0  0  0  0  0  0  0  0  0
  133.3057  138.6869  160.3433 C   0  0  0  0  0  0  0  0  0  0  0  0
  133.9278  136.0613  161.2032 H   0  0  0  0  0  0  0  0  0  0  0  0
  132.4889  135.5623  162.1246 H   0  0  0  0  0  0  0  0  0  0  0  0
  133.0224  134.6068  160.7207 H   0  0  0  0  0  0  0  0  0  0  0  0
  130.0299  136.6909  159.9376 H   0  0  0  0  0  0  0  0  0  0  0  0
  130.4556  135.6248  161.2978 H   0  0  0  0  0  0  0  0  0  0  0  0
  132.6308  134.5398  158.6048 H   0  0  0  0  0  0  0  0  0  0  0  0
  126.9207  132.5851  158.8565 H   0  0  0  0  0  0  0  0  0  0  0  0
  124.9468  133.6686  160.3370 H   0  0  0  0  0  0  0  0  0  0  0  0
  124.8732  136.0757  161.6847 H   0  0  0  0  0  0  0  0  0  0  0  0
  130.2081  136.8309  164.5576 H   0  0  0  0  0  0  0  0  0  0  0  0
  130.2514  138.3139  166.5130 H   0  0  0  0  0  0  0  0  0  0  0  0
  128.1978  139.4346  167.2714 H   0  0  0  0  0  0  0  0  0  0  0  0
  126.0776  139.0825  166.0803 H   0  0  0  0  0  0  0  0  0  0  0  0
  131.6452  137.9946  161.6970 H   0  0  0  0  0  0  0  0  0  0  0  0
  131.8464  138.6143  158.6293 H   0  0  0  0  0  0  0  0  0  0  0  0
  131.3987  139.8190  159.9519 H   0  0  0  0  0  0  0  0  0  0  0  0
  133.6424  139.4267  161.0695 H   0  0  0  0  0  0  0  0  0  0  0  0
  134.0910  138.2218  159.7474 H   0  0  0  0  0  0  0  0  0  0  0  0
  1  2  1  0
  1 30  1  0
  1 31  1  0
  1 32  1  0
  2  3  1  6
  2  4  1  0
  2 27  1  0
  4  5  1  0
  4 33  1  0
  4 34  1  0
  5 10  1  0
  5  6  2  0
  6  7  1  0
  6 35  1  0
  7  8  1  0
  7  9  1  0
  9 10  2  0
 10 11  1  0
 11 26  1  0
 11 12  2  0
 12 13  1  0
 12 36  1  0
 13 14  2  0
 13 37  1  0
 14 15  1  0
 14 26  1  0
 15 16  1  0
 15 38  1  0
 16 24  1  0
 16 17  2  0
 17 18  1  0
 18 23  2  0
 18 19  1  0
 19 20  2  0
 19 39  1  0
 20 21  1  0
 20 40  1  0
 21 22  2  0
 21 41  1  0
 22 23  1  0
 22 42  1  0
 23 24  1  0
 24 25  1  0
 27 29  1  0
 27 28  1  0
 27 43  1  0
 28 29  1  0
 28 44  1  0
 28 45  1  0
 29 46  1  0
 29 47  1  0
M  CHG  1   2   1
M  END
>  <DOCK_score>  (1) 
-42.33778

>  <SMILES>  (1) 
C[N@@H+](Cc1c[nH]nc1-c1ccc(Nc2nc3ccccc3[nH]2)o1)C1CC1

$$$$
