Nc1ccccc1Nc1ccccc1Nc1[nH]c2c(Nc3ccc(-c4ccccc4)cc3)cccc2[nH+]1
     RDKit          3D

 64 69  0  0  1  0  0  0  0  0999 V2000
  130.3696  132.5526  155.5707 N   0  0  0  0  0  0  0  0  0  0  0  0
  130.3481  132.0827  156.8891 C   0  0  0  0  0  0  0  0  0  0  0  0
  130.7381  130.7821  157.1703 C   0  0  0  0  0  0  0  0  0  0  0  0
  130.7165  130.3202  158.4733 C   0  0  0  0  0  0  0  0  0  0  0  0
  130.3073  131.1519  159.4994 C   0  0  0  0  0  0  0  0  0  0  0  0
  129.9168  132.4501  159.2284 C   0  0  0  0  0  0  0  0  0  0  0  0
  129.9348  132.9217  157.9241 C   0  0  0  0  0  0  0  0  0  0  0  0
  129.5398  134.2359  157.6473 N   0  0  0  0  0  0  0  0  0  0  0  0
  128.5836  134.8635  158.4533 C   0  0  0  0  0  0  0  0  0  0  0  0
  127.3132  134.3203  158.5769 C   0  0  0  0  0  0  0  0  0  0  0  0
  126.3702  134.9421  159.3736 C   0  0  0  0  0  0  0  0  0  0  0  0
  126.6886  136.1062  160.0488 C   0  0  0  0  0  0  0  0  0  0  0  0
  127.9520  136.6547  159.9314 C   0  0  0  0  0  0  0  0  0  0  0  0
  128.9066  136.0345  159.1394 C   0  0  0  0  0  0  0  0  0  0  0  0
  130.1890  136.5853  159.0237 N   0  0  0  0  0  0  0  0  0  0  0  0
  130.7300  137.3005  160.0726 C   0  0  0  0  0  0  0  0  0  0  0  0
  130.4585  137.0838  161.3929 N   0  0  0  0  0  0  0  0  0  0  0  0
  129.8603  136.4113  161.7545 H   0  0  0  0  0  0  0  0  0  0  0  0
  131.1968  138.0050  162.1201 C   0  0  0  0  0  0  0  0  0  0  0  0
  131.3371  138.2728  163.4796 C   0  0  0  0  0  0  0  0  0  0  0  0
  130.6302  137.5175  164.4208 N   0  0  0  0  0  0  0  0  0  0  0  0
  129.7820  136.4929  163.9981 C   0  0  0  0  0  0  0  0  0  0  0  0
  128.4440  136.7637  163.7339 C   0  0  0  0  0  0  0  0  0  0  0  0
  127.6059  135.7541  163.3117 C   0  0  0  0  0  0  0  0  0  0  0  0
  128.0979  134.4585  163.1601 C   0  0  0  0  0  0  0  0  0  0  0  0
  127.1961  133.3693  162.7119 C   0  0  0  0  0  0  0  0  0  0  0  0
  127.7026  132.3015  161.9731 C   0  0  0  0  0  0  0  0  0  0  0  0
  126.8600  131.2883  161.5632 C   0  0  0  0  0  0  0  0  0  0  0  0
  125.5132  131.3363  161.8754 C   0  0  0  0  0  0  0  0  0  0  0  0
  125.0041  132.3967  162.6035 C   0  0  0  0  0  0  0  0  0  0  0  0
  125.8384  133.4128  163.0231 C   0  0  0  0  0  0  0  0  0  0  0  0
  129.4385  134.1880  163.4307 C   0  0  0  0  0  0  0  0  0  0  0  0
  130.2747  135.2014  163.8475 C   0  0  0  0  0  0  0  0  0  0  0  0
  132.1788  139.2924  163.8959 C   0  0  0  0  0  0  0  0  0  0  0  0
  132.8811  140.0443  162.9664 C   0  0  0  0  0  0  0  0  0  0  0  0
  132.7527  139.7901  161.6195 C   0  0  0  0  0  0  0  0  0  0  0  0
  131.9073  138.7656  161.1801 C   0  0  0  0  0  0  0  0  0  0  0  0
  131.5851  138.2855  159.9506 N   0  0  0  0  0  0  0  0  0  0  0  0
  131.9335  138.6223  159.1102 H   0  0  0  0  0  0  0  0  0  0  0  0
  130.6575  131.9681  154.8521 H   0  0  0  0  0  0  0  0  0  0  0  0
  130.0965  133.4627  155.3756 H   0  0  0  0  0  0  0  0  0  0  0  0
  131.0590  130.1300  156.3715 H   0  0  0  0  0  0  0  0  0  0  0  0
  131.0207  129.3069  158.6905 H   0  0  0  0  0  0  0  0  0  0  0  0
  130.2931  130.7863  160.5155 H   0  0  0  0  0  0  0  0  0  0  0  0
  129.5935  133.0956  160.0316 H   0  0  0  0  0  0  0  0  0  0  0  0
  129.9290  134.7115  156.8969 H   0  0  0  0  0  0  0  0  0  0  0  0
  127.0608  133.4117  158.0504 H   0  0  0  0  0  0  0  0  0  0  0  0
  125.3815  134.5177  159.4687 H   0  0  0  0  0  0  0  0  0  0  0  0
  125.9480  136.5879  160.6699 H   0  0  0  0  0  0  0  0  0  0  0  0
  128.1972  137.5638  160.4606 H   0  0  0  0  0  0  0  0  0  0  0  0
  130.6972  136.4640  158.2064 H   0  0  0  0  0  0  0  0  0  0  0  0
  130.7295  137.7056  165.3670 H   0  0  0  0  0  0  0  0  0  0  0  0
  128.0622  137.7666  163.8553 H   0  0  0  0  0  0  0  0  0  0  0  0
  126.5676  135.9657  163.1026 H   0  0  0  0  0  0  0  0  0  0  0  0
  128.7531  132.2652  161.7250 H   0  0  0  0  0  0  0  0  0  0  0  0
  127.2520  130.4583  160.9942 H   0  0  0  0  0  0  0  0  0  0  0  0
  124.8568  130.5433  161.5492 H   0  0  0  0  0  0  0  0  0  0  0  0
  123.9518  132.4294  162.8438 H   0  0  0  0  0  0  0  0  0  0  0  0
  125.4398  134.2403  163.5912 H   0  0  0  0  0  0  0  0  0  0  0  0
  129.8215  133.1848  163.3141 H   0  0  0  0  0  0  0  0  0  0  0  0
  131.3132  134.9921  164.0576 H   0  0  0  0  0  0  0  0  0  0  0  0
  132.2885  139.5020  164.9496 H   0  0  0  0  0  0  0  0  0  0  0  0
  133.5349  140.8356  163.3020 H   0  0  0  0  0  0  0  0  0  0  0  0
  133.3040  140.3807  160.9029 H   0  0  0  0  0  0  0  0  0  0  0  0
  1  2  1  0
  1 40  1  0
  1 41  1  0
  2  7  2  0
  2  3  1  0
  3  4  2  0
  3 42  1  0
  4  5  1  0
  4 43  1  0
  5  6  2  0
  5 44  1  0
  6  7  1  0
  6 45  1  0
  7  8  1  0
  8  9  1  0
  8 46  1  0
  9 14  1  0
  9 10  2  0
 10 11  1  0
 10 47  1  0
 11 12  2  0
 11 48  1  0
 12 13  1  0
 12 49  1  0
 13 14  2  0
 13 50  1  0
 14 15  1  0
 15 51  1  0
 16 15  1  0
 16 38  2  0
 16 17  1  0
 17 18  1  0
 17 19  1  0
 19 37  2  0
 19 20  1  0
 20 21  1  0
 20 34  2  0
 21 22  1  0
 21 52  1  0
 22 33  1  0
 22 23  2  0
 23 24  1  0
 23 53  1  0
 24 25  2  0
 24 54  1  0
 25 26  1  0
 25 32  1  0
 26 31  1  0
 26 27  2  0
 27 28  1  0
 27 55  1  0
 28 29  2  0
 28 56  1  0
 29 30  1  0
 29 57  1  0
 30 31  2  0
 30 58  1  0
 31 59  1  0
 32 33  2  0
 32 60  1  0
 33 61  1  0
 34 35  1  0
 34 62  1  0
 35 36  2  0
 35 63  1  0
 36 37  1  0
 36 64  1  0
 37 38  1  0
 38 39  1  0
M  CHG  1  38   1
M  END
>  <DOCK_score>  (1) 
-56.49913

>  <SMILES>  (1) 
Nc1ccccc1Nc1ccccc1Nc1[nH]c2c(Nc3ccc(-c4ccccc4)cc3)cccc2[nH+]1

$$$$
