ClC[C@H](Cc1ccc(Br)cc1)N1CC[NH+](Cc2cccc3ccccc23)CC1
     RDKit          3D

 55 58  0  0  1  0  0  0  0  0999 V2000
  128.8002  130.1806  159.0676 Cl  0  0  0  0  0  0  0  0  0  0  0  0
  130.1491  130.4791  157.9091 C   0  0  0  0  0  0  0  0  0  0  0  0
  129.9538  131.8405  157.2389 C   0  0  2  0  0  0  0  0  0  0  0  0
  129.0052  131.8485  156.7020 H   0  0  0  0  0  0  0  0  0  0  0  0
  131.0984  132.0938  156.2556 C   0  0  0  0  0  0  0  0  0  0  0  0
  130.8317  131.3504  154.9720 C   0  0  0  0  0  0  0  0  0  0  0  0
  131.2908  130.0559  154.8151 C   0  0  0  0  0  0  0  0  0  0  0  0
  131.0511  129.3756  153.6360 C   0  0  0  0  0  0  0  0  0  0  0  0
  130.3430  129.9867  152.6169 C   0  0  0  0  0  0  0  0  0  0  0  0
  130.0090  129.0542  151.0061 Br  0  0  0  0  0  0  0  0  0  0  0  0
  129.8835  131.2820  152.7746 C   0  0  0  0  0  0  0  0  0  0  0  0
  130.1279  131.9631  153.9522 C   0  0  0  0  0  0  0  0  0  0  0  0
  129.9460  132.8937  158.2628 N   0  0  0  0  0  0  0  0  0  0  0  0
  129.2289  134.0853  157.7875 C   0  0  0  0  0  0  0  0  0  0  0  0
  129.1921  135.1334  158.9019 C   0  0  0  0  0  0  0  0  0  0  0  0
  130.5647  135.4877  159.2865 N   0  0  0  0  0  0  0  0  0  0  0  0
  131.0548  135.8531  158.4837 H   0  0  0  0  0  0  0  0  0  0  0  0
  130.5290  136.5070  160.3438 C   0  0  0  0  0  0  0  0  0  0  0  0
  131.8557  137.2197  160.3994 C   0  0  0  0  0  0  0  0  0  0  0  0
  132.0671  138.3320  159.6436 C   0  0  0  0  0  0  0  0  0  0  0  0
  133.2853  139.0069  159.6852 C   0  0  0  0  0  0  0  0  0  0  0  0
  134.3030  138.5679  160.4757 C   0  0  0  0  0  0  0  0  0  0  0  0
  134.1240  137.4202  161.2660 C   0  0  0  0  0  0  0  0  0  0  0  0
  135.1512  136.9373  162.0948 C   0  0  0  0  0  0  0  0  0  0  0  0
  134.9415  135.8227  162.8468 C   0  0  0  0  0  0  0  0  0  0  0  0
  133.7216  135.1499  162.8083 C   0  0  0  0  0  0  0  0  0  0  0  0
  132.7040  135.5885  162.0183 C   0  0  0  0  0  0  0  0  0  0  0  0
  132.8830  136.7362  161.2271 C   0  0  0  0  0  0  0  0  0  0  0  0
  131.2602  134.2927  159.7822 C   0  0  0  0  0  0  0  0  0  0  0  0
  131.3142  133.2377  158.6750 C   0  0  0  0  0  0  0  0  0  0  0  0
  130.1550  129.6976  157.1492 H   0  0  0  0  0  0  0  0  0  0  0  0
  131.0976  130.4710  158.4459 H   0  0  0  0  0  0  0  0  0  0  0  0
  132.0348  131.7440  156.6902 H   0  0  0  0  0  0  0  0  0  0  0  0
  131.1702  133.1615  156.0488 H   0  0  0  0  0  0  0  0  0  0  0  0
  131.8407  129.5776  155.6122 H   0  0  0  0  0  0  0  0  0  0  0  0
  131.4133  128.3658  153.5119 H   0  0  0  0  0  0  0  0  0  0  0  0
  129.3342  131.7609  151.9776 H   0  0  0  0  0  0  0  0  0  0  0  0
  129.7691  132.9743  154.0754 H   0  0  0  0  0  0  0  0  0  0  0  0
  129.7428  134.4964  156.9185 H   0  0  0  0  0  0  0  0  0  0  0  0
  128.2105  133.8112  157.5122 H   0  0  0  0  0  0  0  0  0  0  0  0
  128.6663  134.7267  159.7658 H   0  0  0  0  0  0  0  0  0  0  0  0
  128.6731  136.0235  158.5465 H   0  0  0  0  0  0  0  0  0  0  0  0
  129.7389  137.2262  160.1286 H   0  0  0  0  0  0  0  0  0  0  0  0
  130.3333  136.0284  161.3033 H   0  0  0  0  0  0  0  0  0  0  0  0
  131.2773  138.6989  159.0048 H   0  0  0  0  0  0  0  0  0  0  0  0
  133.4256  139.8892  159.0784 H   0  0  0  0  0  0  0  0  0  0  0  0
  135.2430  139.0995  160.4955 H   0  0  0  0  0  0  0  0  0  0  0  0
  136.1020  137.4480  162.1343 H   0  0  0  0  0  0  0  0  0  0  0  0
  135.7327  135.4536  163.4830 H   0  0  0  0  0  0  0  0  0  0  0  0
  133.5815  134.2673  163.4149 H   0  0  0  0  0  0  0  0  0  0  0  0
  131.7640  135.0571  161.9991 H   0  0  0  0  0  0  0  0  0  0  0  0
  130.7237  133.8904  160.6415 H   0  0  0  0  0  0  0  0  0  0  0  0
  132.2744  134.5596  160.0795 H   0  0  0  0  0  0  0  0  0  0  0  0
  131.8171  132.3452  159.0474 H   0  0  0  0  0  0  0  0  0  0  0  0
  131.8624  133.6348  157.8207 H   0  0  0  0  0  0  0  0  0  0  0  0
  1  2  1  0
  2  3  1  0
  2 31  1  0
  2 32  1  0
  3  4  1  6
  3  5  1  0
  3 13  1  0
  5  6  1  0
  5 33  1  0
  5 34  1  0
  6 12  1  0
  6  7  2  0
  7  8  1  0
  7 35  1  0
  8  9  2  0
  8 36  1  0
  9 10  1  0
  9 11  1  0
 11 12  2  0
 11 37  1  0
 12 38  1  0
 13 30  1  0
 13 14  1  0
 14 15  1  0
 14 39  1  0
 14 40  1  0
 15 16  1  0
 15 41  1  0
 15 42  1  0
 16 17  1  0
 16 18  1  0
 16 29  1  0
 18 19  1  0
 18 43  1  0
 18 44  1  0
 19 28  1  0
 19 20  2  0
 20 21  1  0
 20 45  1  0
 21 22  2  0
 21 46  1  0
 22 23  1  0
 22 47  1  0
 23 28  2  0
 23 24  1  0
 24 25  2  0
 24 48  1  0
 25 26  1  0
 25 49  1  0
 26 27  2  0
 26 50  1  0
 27 28  1  0
 27 51  1  0
 29 30  1  0
 29 52  1  0
 29 53  1  0
 30 54  1  0
 30 55  1  0
M  CHG  1  16   1
M  END
>  <DOCK_score>  (1) 
-58.013363

>  <SMILES>  (1) 
ClC[C@H](Cc1ccc(Br)cc1)N1CC[NH+](Cc2cccc3ccccc23)CC1

$$$$
