C[C@H]1CCCCC1Nc1ccc(CNC2=[NH+]CCN2CCO)cc1
     RDKit          3D

 55 57  0  0  1  0  0  0  0  0999 V2000
  125.3996  135.6825  164.8937 C   0  0  0  0  0  0  0  0  0  0  0  0
  126.3401  136.8404  164.5539 C   0  0  1  0  0  0  0  0  0  0  0  0
  125.7529  137.7168  164.2790 H   0  0  0  0  0  0  0  0  0  0  0  0
  127.2061  137.1684  165.7719 C   0  0  0  0  0  0  0  0  0  0  0  0
  128.1465  138.3263  165.4320 C   0  0  0  0  0  0  0  0  0  0  0  0
  129.0453  137.9265  164.2600 C   0  0  0  0  0  0  0  0  0  0  0  0
  128.1792  137.5985  163.0420 C   0  0  0  0  0  0  0  0  0  0  0  0
  127.2386  136.4406  163.3819 C   0  0  2  0  0  0  0  0  0  0  0  0
  126.4100  136.1275  162.2157 N   0  0  0  0  0  0  0  0  0  0  0  0
  127.0100  135.7333  161.0175 C   0  0  0  0  0  0  0  0  0  0  0  0
  128.2197  135.0512  161.0360 C   0  0  0  0  0  0  0  0  0  0  0  0
  128.8102  134.6634  159.8492 C   0  0  0  0  0  0  0  0  0  0  0  0
  128.1982  134.9533  158.6436 C   0  0  0  0  0  0  0  0  0  0  0  0
  128.8455  134.5284  157.3506 C   0  0  0  0  0  0  0  0  0  0  0  0
  129.3158  133.1462  157.4710 N   0  0  0  0  0  0  0  0  0  0  0  0
  129.9437  132.5389  156.4094 C   0  0  0  0  0  0  0  0  0  0  0  0
  130.1432  133.1333  155.2785 N   0  0  0  0  0  0  0  0  0  0  0  0
  129.8758  134.0429  155.0739 H   0  0  0  0  0  0  0  0  0  0  0  0
  130.8366  132.2305  154.3492 C   0  0  0  0  0  0  0  0  0  0  0  0
  131.0167  130.9299  155.1571 C   0  0  0  0  0  0  0  0  0  0  0  0
  130.4056  131.2522  156.4574 N   0  0  0  0  0  0  0  0  0  0  0  0
  130.3087  130.3489  157.6066 C   0  0  0  0  0  0  0  0  0  0  0  0
  131.5491  130.5098  158.4877 C   0  0  0  0  0  0  0  0  0  0  0  0
  131.6341  131.8597  158.9489 O   0  0  0  0  0  0  0  0  0  0  0  0
  126.9965  135.6372  158.6212 C   0  0  0  0  0  0  0  0  0  0  0  0
  126.3978  136.0229  159.8045 C   0  0  0  0  0  0  0  0  0  0  0  0
  125.9868  134.8063  165.1686 H   0  0  0  0  0  0  0  0  0  0  0  0
  124.7595  135.9674  165.7286 H   0  0  0  0  0  0  0  0  0  0  0  0
  124.7826  135.4488  164.0261 H   0  0  0  0  0  0  0  0  0  0  0  0
  127.7932  136.2921  166.0466 H   0  0  0  0  0  0  0  0  0  0  0  0
  126.5659  137.4532  166.6068 H   0  0  0  0  0  0  0  0  0  0  0  0
  128.7636  138.5600  166.2997 H   0  0  0  0  0  0  0  0  0  0  0  0
  127.5595  139.2026  165.1571 H   0  0  0  0  0  0  0  0  0  0  0  0
  129.6323  137.0502  164.5349 H   0  0  0  0  0  0  0  0  0  0  0  0
  129.7152  138.7513  164.0179 H   0  0  0  0  0  0  0  0  0  0  0  0
  128.8194  137.3137  162.2071 H   0  0  0  0  0  0  0  0  0  0  0  0
  127.5920  138.4749  162.7673 H   0  0  0  0  0  0  0  0  0  0  0  0
  127.8258  135.5643  163.6568 H   0  0  0  0  0  0  0  0  0  0  0  0
  125.4434  136.1917  162.2758 H   0  0  0  0  0  0  0  0  0  0  0  0
  128.6979  134.8242  161.9772 H   0  0  0  0  0  0  0  0  0  0  0  0
  129.7511  134.1333  159.8630 H   0  0  0  0  0  0  0  0  0  0  0  0
  129.6907  135.1824  157.1355 H   0  0  0  0  0  0  0  0  0  0  0  0
  128.1187  134.5958  156.5412 H   0  0  0  0  0  0  0  0  0  0  0  0
  129.1877  132.6609  158.3011 H   0  0  0  0  0  0  0  0  0  0  0  0
  131.8054  132.6408  154.0644 H   0  0  0  0  0  0  0  0  0  0  0  0
  130.2226  132.0503  153.4668 H   0  0  0  0  0  0  0  0  0  0  0  0
  132.0743  130.6950  155.2770 H   0  0  0  0  0  0  0  0  0  0  0  0
  130.4902  130.1040  154.6788 H   0  0  0  0  0  0  0  0  0  0  0  0
  129.4178  130.5918  158.1856 H   0  0  0  0  0  0  0  0  0  0  0  0
  130.2439  129.3192  157.2549 H   0  0  0  0  0  0  0  0  0  0  0  0
  131.4771  129.8376  159.3428 H   0  0  0  0  0  0  0  0  0  0  0  0
  132.4401  130.2669  157.9088 H   0  0  0  0  0  0  0  0  0  0  0  0
  131.7010  132.5141  158.2401 H   0  0  0  0  0  0  0  0  0  0  0  0
  126.5237  135.8662  157.6778 H   0  0  0  0  0  0  0  0  0  0  0  0
  125.4570  136.5531  159.7865 H   0  0  0  0  0  0  0  0  0  0  0  0
  1  2  1  0
  1 27  1  0
  1 28  1  0
  1 29  1  0
  2  3  1  6
  2  8  1  0
  2  4  1  0
  4  5  1  0
  4 30  1  0
  4 31  1  0
  5  6  1  0
  5 32  1  0
  5 33  1  0
  6  7  1  0
  6 34  1  0
  6 35  1  0
  7  8  1  0
  7 36  1  0
  7 37  1  0
  8  9  1  0
  8 38  1  1
  9 10  1  0
  9 39  1  0
 10 26  1  0
 10 11  2  0
 11 12  1  0
 11 40  1  0
 12 13  2  0
 12 41  1  0
 13 14  1  0
 13 25  1  0
 14 15  1  0
 14 42  1  0
 14 43  1  0
 15 44  1  0
 16 15  1  0
 16 21  1  0
 16 17  2  0
 17 18  1  0
 17 19  1  0
 19 20  1  0
 19 45  1  0
 19 46  1  0
 20 21  1  0
 20 47  1  0
 20 48  1  0
 21 22  1  0
 22 23  1  0
 22 49  1  0
 22 50  1  0
 23 24  1  0
 23 51  1  0
 23 52  1  0
 24 53  1  0
 25 26  2  0
 25 54  1  0
 26 55  1  0
M  CHG  1  17   1
M  END
>  <DOCK_score>  (1) 
-41.320045

>  <SMILES>  (1) 
C[C@H]1CCCCC1Nc1ccc(CNC2=[NH+]CCN2CCO)cc1

$$$$
