C=C/C=C/CNC(N[C@H]1CCC(=O)NC1)=[NH+]C1COc2cc(Cl)ccc2C1
     RDKit          3D

 53 55  0  0  1  0  0  0  0  0999 V2000
  129.8840  129.0920  159.4450 C   0  0  0  0  0  0  0  0  0  0  0  0
  130.7013  130.0736  159.0795 C   0  0  0  0  0  0  0  0  0  0  0  0
  130.1610  131.2757  158.4255 C   0  0  0  0  0  0  0  0  0  0  0  0
  130.9784  132.2573  158.0601 C   0  0  0  0  0  0  0  0  0  0  0  0
  130.4249  133.4887  157.3904 C   0  0  0  0  0  0  0  0  0  0  0  0
  129.4655  134.1415  158.2845 N   0  0  0  0  0  0  0  0  0  0  0  0
  129.8713  134.5891  159.5193 C   0  0  0  0  0  0  0  0  0  0  0  0
  128.9709  135.2016  160.3585 N   0  0  0  0  0  0  0  0  0  0  0  0
  127.5535  134.8347  160.3058 C   0  0  1  0  0  0  0  0  0  0  0  0
  127.1584  135.0344  159.3097 H   0  0  0  0  0  0  0  0  0  0  0  0
  127.3953  133.3449  160.6329 C   0  0  0  0  0  0  0  0  0  0  0  0
  125.9362  132.9492  160.3929 C   0  0  0  0  0  0  0  0  0  0  0  0
  125.0241  133.9355  161.0641 C   0  0  0  0  0  0  0  0  0  0  0  0
  123.8706  133.6130  161.2547 O   0  0  0  0  0  0  0  0  0  0  0  0
  125.4114  135.1460  161.4624 N   0  0  0  0  0  0  0  0  0  0  0  0
  126.7741  135.6484  161.3397 C   0  0  0  0  0  0  0  0  0  0  0  0
  131.1097  134.4329  159.8946 N   0  0  0  0  0  0  0  0  0  0  0  0
  131.7450  134.0007  159.3025 H   0  0  0  0  0  0  0  0  0  0  0  0
  131.5422  134.9099  161.2105 C   0  0  1  0  0  0  0  0  0  0  0  0
  130.7550  134.1832  162.3084 C   0  0  0  0  0  0  0  0  0  0  0  0
  131.1229  134.7411  163.5706 O   0  0  0  0  0  0  0  0  0  0  0  0
  132.4469  134.8716  163.8453 C   0  0  0  0  0  0  0  0  0  0  0  0
  132.8347  135.0611  165.1679 C   0  0  0  0  0  0  0  0  0  0  0  0
  134.1709  135.2025  165.4866 C   0  0  0  0  0  0  0  0  0  0  0  0
  134.6498  135.4382  167.1385 Cl  0  0  0  0  0  0  0  0  0  0  0  0
  135.1279  135.1554  164.4878 C   0  0  0  0  0  0  0  0  0  0  0  0
  134.7455  134.9657  163.1746 C   0  0  0  0  0  0  0  0  0  0  0  0
  133.4067  134.8217  162.8496 C   0  0  0  0  0  0  0  0  0  0  0  0
  133.0300  134.6074  161.4055 C   0  0  0  0  0  0  0  0  0  0  0  0
  128.8229  129.1765  159.2621 H   0  0  0  0  0  0  0  0  0  0  0  0
  130.2805  128.2096  159.9250 H   0  0  0  0  0  0  0  0  0  0  0  0
  131.7624  129.9891  159.2622 H   0  0  0  0  0  0  0  0  0  0  0  0
  129.1001  131.3602  158.2426 H   0  0  0  0  0  0  0  0  0  0  0  0
  132.0394  132.1730  158.2431 H   0  0  0  0  0  0  0  0  0  0  0  0
  129.9240  133.2048  156.4647 H   0  0  0  0  0  0  0  0  0  0  0  0
  131.2394  134.1776  157.1661 H   0  0  0  0  0  0  0  0  0  0  0  0
  128.5438  134.2578  158.0052 H   0  0  0  0  0  0  0  0  0  0  0  0
  129.2740  135.8768  160.9855 H   0  0  0  0  0  0  0  0  0  0  0  0
  127.6565  133.1685  161.6763 H   0  0  0  0  0  0  0  0  0  0  0  0
  128.0462  132.7557  159.9870 H   0  0  0  0  0  0  0  0  0  0  0  0
  125.7349  132.9408  159.3217 H   0  0  0  0  0  0  0  0  0  0  0  0
  125.7587  131.9549  160.8025 H   0  0  0  0  0  0  0  0  0  0  0  0
  124.7456  135.7297  161.8584 H   0  0  0  0  0  0  0  0  0  0  0  0
  127.2733  135.5760  162.3059 H   0  0  0  0  0  0  0  0  0  0  0  0
  126.7432  136.6924  161.0276 H   0  0  0  0  0  0  0  0  0  0  0  0
  131.3721  135.9838  161.2860 H   0  0  0  0  0  0  0  0  0  0  0  0
  129.6859  134.3189  162.1446 H   0  0  0  0  0  0  0  0  0  0  0  0
  130.9969  133.1205  162.2915 H   0  0  0  0  0  0  0  0  0  0  0  0
  132.0884  135.0983  165.9477 H   0  0  0  0  0  0  0  0  0  0  0  0
  136.1732  135.2674  164.7354 H   0  0  0  0  0  0  0  0  0  0  0  0
  135.4940  134.9296  162.3969 H   0  0  0  0  0  0  0  0  0  0  0  0
  133.2290  133.5721  161.1287 H   0  0  0  0  0  0  0  0  0  0  0  0
  133.6209  135.2710  160.7741 H   0  0  0  0  0  0  0  0  0  0  0  0
  1  2  2  0
  1 30  1  0
  1 31  1  0
  2  3  1  0
  2 32  1  0
  3  4  2  0
  3 33  1  0
  4  5  1  0
  4 34  1  0
  5  6  1  0
  5 35  1  0
  5 36  1  0
  6 37  1  0
  7  6  1  0
  7  8  1  0
  7 17  2  0
  8  9  1  0
  8 38  1  0
  9 10  1  6
  9 16  1  0
  9 11  1  0
 11 12  1  0
 11 39  1  0
 11 40  1  0
 12 13  1  0
 12 41  1  0
 12 42  1  0
 13 14  2  0
 13 15  1  0
 15 16  1  0
 15 43  1  0
 16 44  1  0
 16 45  1  0
 17 18  1  0
 17 19  1  0
 19 29  1  0
 19 20  1  0
 19 46  1  6
 20 21  1  0
 20 47  1  0
 20 48  1  0
 21 22  1  0
 22 28  2  0
 22 23  1  0
 23 24  2  0
 23 49  1  0
 24 25  1  0
 24 26  1  0
 26 27  2  0
 26 50  1  0
 27 28  1  0
 27 51  1  0
 28 29  1  0
 29 52  1  0
 29 53  1  0
M  CHG  1  17   1
M  END
>  <DOCK_score>  (1) 
-43.450237

>  <SMILES>  (1) 
C=C/C=C/CNC(N[C@H]1CCC(=O)NC1)=[NH+]C1COc2cc(Cl)ccc2C1

$$$$
