Cc1cccc(NCCc2noc(-c3n[nH]cc3C[NH2+]C3CC=CC3)n2)c1
     RDKit          3D

 52 55  0  0  1  0  0  0  0  0999 V2000
  130.6795  140.1655  164.5359 C   0  0  0  0  0  0  0  0  0  0  0  0
  129.2029  140.2299  164.2415 C   0  0  0  0  0  0  0  0  0  0  0  0
  128.4902  141.3792  164.5314 C   0  0  0  0  0  0  0  0  0  0  0  0
  127.1364  141.4445  164.2578 C   0  0  0  0  0  0  0  0  0  0  0  0
  126.4890  140.3571  163.7042 C   0  0  0  0  0  0  0  0  0  0  0  0
  127.2005  139.1995  163.4170 C   0  0  0  0  0  0  0  0  0  0  0  0
  126.5489  138.0980  162.8575 N   0  0  0  0  0  0  0  0  0  0  0  0
  127.3205  137.0677  162.1581 C   0  0  0  0  0  0  0  0  0  0  0  0
  126.3733  135.9813  161.6450 C   0  0  0  0  0  0  0  0  0  0  0  0
  127.1672  134.9215  160.9256 C   0  0  0  0  0  0  0  0  0  0  0  0
  126.6864  133.8549  160.3579 N   0  0  0  0  0  0  0  0  0  0  0  0
  127.5782  133.1986  159.8630 O   0  0  0  0  0  0  0  0  0  0  0  0
  128.7567  133.8046  160.0746 C   0  0  0  0  0  0  0  0  0  0  0  0
  130.0847  133.3309  159.6327 C   0  0  0  0  0  0  0  0  0  0  0  0
  130.3284  132.2301  158.9487 N   0  0  0  0  0  0  0  0  0  0  0  0
  131.7101  132.1491  158.7340 N   0  0  0  0  0  0  0  0  0  0  0  0
  132.1712  131.4414  158.2571 H   0  0  0  0  0  0  0  0  0  0  0  0
  132.2897  133.2275  159.3056 C   0  0  0  0  0  0  0  0  0  0  0  0
  131.3166  133.9790  159.8625 C   0  0  0  0  0  0  0  0  0  0  0  0
  131.5118  135.2774  160.6023 C   0  0  0  0  0  0  0  0  0  0  0  0
  132.4376  136.1350  159.8504 N   0  0  0  0  0  0  0  0  0  0  0  0
  133.3260  135.6666  159.7530 H   0  0  0  0  0  0  0  0  0  0  0  0
  132.0544  136.3231  158.9361 H   0  0  0  0  0  0  0  0  0  0  0  0
  132.6278  137.4006  160.5714 C   0  0  0  0  0  0  0  0  0  0  0  0
  131.3302  138.2417  160.5683 C   0  0  0  0  0  0  0  0  0  0  0  0
  131.7994  139.6709  160.4261 C   0  0  0  0  0  0  0  0  0  0  0  0
  133.0363  139.7207  160.0125 C   0  0  0  0  0  0  0  0  0  0  0  0
  133.5984  138.3329  159.8099 C   0  0  0  0  0  0  0  0  0  0  0  0
  128.4977  134.9107  160.7499 N   0  0  0  0  0  0  0  0  0  0  0  0
  128.5618  139.1393  163.6880 C   0  0  0  0  0  0  0  0  0  0  0  0
  131.2387  140.5083  163.6654 H   0  0  0  0  0  0  0  0  0  0  0  0
  130.9080  140.8040  165.3891 H   0  0  0  0  0  0  0  0  0  0  0  0
  130.9596  139.1375  164.7659 H   0  0  0  0  0  0  0  0  0  0  0  0
  128.9930  142.2290  164.9688 H   0  0  0  0  0  0  0  0  0  0  0  0
  126.5838  142.3450  164.4814 H   0  0  0  0  0  0  0  0  0  0  0  0
  125.4305  140.4071  163.4950 H   0  0  0  0  0  0  0  0  0  0  0  0
  125.5853  138.0154  162.9318 H   0  0  0  0  0  0  0  0  0  0  0  0
  127.8479  137.5173  161.3166 H   0  0  0  0  0  0  0  0  0  0  0  0
  128.0423  136.6256  162.8449 H   0  0  0  0  0  0  0  0  0  0  0  0
  125.8461  135.5319  162.4864 H   0  0  0  0  0  0  0  0  0  0  0  0
  125.6514  136.4234  160.9582 H   0  0  0  0  0  0  0  0  0  0  0  0
  133.3461  133.4516  159.3116 H   0  0  0  0  0  0  0  0  0  0  0  0
  130.5521  135.7834  160.7075 H   0  0  0  0  0  0  0  0  0  0  0  0
  131.9256  135.0742  161.5900 H   0  0  0  0  0  0  0  0  0  0  0  0
  132.9756  137.2204  161.5887 H   0  0  0  0  0  0  0  0  0  0  0  0
  130.6994  137.9634  159.7241 H   0  0  0  0  0  0  0  0  0  0  0  0
  130.7905  138.1107  161.5063 H   0  0  0  0  0  0  0  0  0  0  0  0
  131.1911  140.5376  160.6391 H   0  0  0  0  0  0  0  0  0  0  0  0
  133.5860  140.6339  159.8384 H   0  0  0  0  0  0  0  0  0  0  0  0
  134.6010  138.2639  160.2323 H   0  0  0  0  0  0  0  0  0  0  0  0
  133.6155  138.0792  158.7501 H   0  0  0  0  0  0  0  0  0  0  0  0
  129.1181  138.2408  163.4656 H   0  0  0  0  0  0  0  0  0  0  0  0
  1  2  1  0
  1 31  1  0
  1 32  1  0
  1 33  1  0
  2 30  2  0
  2  3  1  0
  3  4  2  0
  3 34  1  0
  4  5  1  0
  4 35  1  0
  5  6  2  0
  5 36  1  0
  6  7  1  0
  6 30  1  0
  7  8  1  0
  7 37  1  0
  8  9  1  0
  8 38  1  0
  8 39  1  0
  9 10  1  0
  9 40  1  0
  9 41  1  0
 10 29  1  0
 10 11  2  0
 11 12  1  0
 12 13  1  0
 13 14  1  0
 13 29  2  0
 14 19  1  0
 14 15  2  0
 15 16  1  0
 16 17  1  0
 16 18  1  0
 18 19  2  0
 18 42  1  0
 19 20  1  0
 20 21  1  0
 20 43  1  0
 20 44  1  0
 21 22  1  0
 21 23  1  0
 21 24  1  0
 24 28  1  0
 24 25  1  0
 24 45  1  0
 25 26  1  0
 25 46  1  0
 25 47  1  0
 26 27  2  0
 26 48  1  0
 27 28  1  0
 27 49  1  0
 28 50  1  0
 28 51  1  0
 30 52  1  0
M  CHG  1  21   1
M  END
>  <DOCK_score>  (1) 
-41.863312

>  <SMILES>  (1) 
Cc1cccc(NCCc2noc(-c3n[nH]cc3C[NH2+]C3CC=CC3)n2)c1

$$$$
