C[C@@H](CC1=CCCCC1)NC(NC1CC=CCC1)=[NH+]C1CCC(=O)NC1
     RDKit          3D

 61 63  0  0  1  0  0  0  0  0999 V2000
  132.8692  133.6809  161.4574 C   0  0  0  0  0  0  0  0  0  0  0  0
  131.7858  134.5468  160.8114 C   0  0  1  0  0  0  0  0  0  0  0  0
  130.9715  134.6986  161.5200 H   0  0  0  0  0  0  0  0  0  0  0  0
  132.3809  135.9009  160.4203 C   0  0  0  0  0  0  0  0  0  0  0  0
  132.4556  136.7870  161.6371 C   0  0  0  0  0  0  0  0  0  0  0  0
  133.5346  136.7475  162.3513 C   0  0  0  0  0  0  0  0  0  0  0  0
  133.7515  137.5622  163.5927 C   0  0  0  0  0  0  0  0  0  0  0  0
  132.7462  138.7146  163.6490 C   0  0  0  0  0  0  0  0  0  0  0  0
  131.3438  138.1480  163.3940 C   0  0  0  0  0  0  0  0  0  0  0  0
  131.2771  137.6644  161.9420 C   0  0  0  0  0  0  0  0  0  0  0  0
  131.2728  133.8749  159.6148 N   0  0  0  0  0  0  0  0  0  0  0  0
  129.9711  134.0740  159.2195 C   0  0  0  0  0  0  0  0  0  0  0  0
  129.4896  133.4435  158.0966 N   0  0  0  0  0  0  0  0  0  0  0  0
  130.3636  132.5597  157.3213 C   0  0  2  0  0  0  0  0  0  0  0  0
  129.9309  132.5666  155.8536 C   0  0  0  0  0  0  0  0  0  0  0  0
  130.6338  131.4722  155.1032 C   0  0  0  0  0  0  0  0  0  0  0  0
  131.2284  130.4704  155.6674 C   0  0  0  0  0  0  0  0  0  0  0  0
  131.3035  130.2645  157.1521 C   0  0  0  0  0  0  0  0  0  0  0  0
  130.2540  131.1264  157.8573 C   0  0  0  0  0  0  0  0  0  0  0  0
  129.1935  134.8604  159.9093 N   0  0  0  0  0  0  0  0  0  0  0  0
  129.5703  135.6110  160.3945 H   0  0  0  0  0  0  0  0  0  0  0  0
  127.7505  134.6106  159.9516 C   0  0  1  0  0  0  0  0  0  0  0  0
  127.4854  133.2272  160.5576 C   0  0  0  0  0  0  0  0  0  0  0  0
  125.9925  132.9178  160.4223 C   0  0  0  0  0  0  0  0  0  0  0  0
  125.1825  134.0843  160.9109 C   0  0  0  0  0  0  0  0  0  0  0  0
  124.0144  133.8995  161.1798 O   0  0  0  0  0  0  0  0  0  0  0  0
  125.6791  135.3122  161.0653 N   0  0  0  0  0  0  0  0  0  0  0  0
  127.0721  135.6687  160.8226 C   0  0  0  0  0  0  0  0  0  0  0  0
  133.6833  133.5290  160.7486 H   0  0  0  0  0  0  0  0  0  0  0  0
  132.4452  132.7162  161.7359 H   0  0  0  0  0  0  0  0  0  0  0  0
  133.2509  134.1807  162.3476 H   0  0  0  0  0  0  0  0  0  0  0  0
  133.3822  135.7543  160.0155 H   0  0  0  0  0  0  0  0  0  0  0  0
  131.7495  136.3713  159.6666 H   0  0  0  0  0  0  0  0  0  0  0  0
  134.3283  136.0874  162.0336 H   0  0  0  0  0  0  0  0  0  0  0  0
  133.6223  136.9270  164.4689 H   0  0  0  0  0  0  0  0  0  0  0  0
  134.7639  137.9660  163.5875 H   0  0  0  0  0  0  0  0  0  0  0  0
  132.7792  139.1818  164.6332 H   0  0  0  0  0  0  0  0  0  0  0  0
  132.9912  139.4524  162.8849 H   0  0  0  0  0  0  0  0  0  0  0  0
  131.1570  137.3141  164.0705 H   0  0  0  0  0  0  0  0  0  0  0  0
  130.5986  138.9265  163.5577 H   0  0  0  0  0  0  0  0  0  0  0  0
  131.2831  138.5235  161.2711 H   0  0  0  0  0  0  0  0  0  0  0  0
  130.3574  137.0988  161.7933 H   0  0  0  0  0  0  0  0  0  0  0  0
  131.8515  133.2898  159.1014 H   0  0  0  0  0  0  0  0  0  0  0  0
  128.5712  133.5839  157.8177 H   0  0  0  0  0  0  0  0  0  0  0  0
  131.3951  132.9027  157.4008 H   0  0  0  0  0  0  0  0  0  0  0  0
  128.8541  132.4081  155.7935 H   0  0  0  0  0  0  0  0  0  0  0  0
  130.1774  133.5306  155.4087 H   0  0  0  0  0  0  0  0  0  0  0  0
  130.6464  131.5265  154.0247 H   0  0  0  0  0  0  0  0  0  0  0  0
  131.7004  129.7372  155.0300 H   0  0  0  0  0  0  0  0  0  0  0  0
  132.2962  130.5425  157.5057 H   0  0  0  0  0  0  0  0  0  0  0  0
  131.1214  129.2144  157.3808 H   0  0  0  0  0  0  0  0  0  0  0  0
  130.4380  131.1221  158.9316 H   0  0  0  0  0  0  0  0  0  0  0  0
  129.2572  130.7347  157.6546 H   0  0  0  0  0  0  0  0  0  0  0  0
  127.3425  134.6518  158.9417 H   0  0  0  0  0  0  0  0  0  0  0  0
  128.0659  132.4751  160.0233 H   0  0  0  0  0  0  0  0  0  0  0  0
  127.7660  133.2281  161.6108 H   0  0  0  0  0  0  0  0  0  0  0  0
  125.7559  132.7258  159.3757 H   0  0  0  0  0  0  0  0  0  0  0  0
  125.7501  132.0364  161.0159 H   0  0  0  0  0  0  0  0  0  0  0  0
  125.0751  136.0137  161.3551 H   0  0  0  0  0  0  0  0  0  0  0  0
  127.5950  135.7395  161.7764 H   0  0  0  0  0  0  0  0  0  0  0  0
  127.1173  136.6339  160.3179 H   0  0  0  0  0  0  0  0  0  0  0  0
  1  2  1  0
  1 29  1  0
  1 30  1  0
  1 31  1  0
  2  3  1  1
  2  4  1  0
  2 11  1  0
  4  5  1  0
  4 32  1  0
  4 33  1  0
  5 10  1  0
  5  6  2  0
  6  7  1  0
  6 34  1  0
  7  8  1  0
  7 35  1  0
  7 36  1  0
  8  9  1  0
  8 37  1  0
  8 38  1  0
  9 10  1  0
  9 39  1  0
  9 40  1  0
 10 41  1  0
 10 42  1  0
 11 43  1  0
 12 11  1  0
 12 13  1  0
 12 20  2  0
 13 14  1  0
 13 44  1  0
 14 19  1  0
 14 15  1  0
 14 45  1  6
 15 16  1  0
 15 46  1  0
 15 47  1  0
 16 17  2  0
 16 48  1  0
 17 18  1  0
 17 49  1  0
 18 19  1  0
 18 50  1  0
 18 51  1  0
 19 52  1  0
 19 53  1  0
 20 21  1  0
 20 22  1  0
 22 28  1  0
 22 23  1  0
 22 54  1  6
 23 24  1  0
 23 55  1  0
 23 56  1  0
 24 25  1  0
 24 57  1  0
 24 58  1  0
 25 26  2  0
 25 27  1  0
 27 28  1  0
 27 59  1  0
 28 60  1  0
 28 61  1  0
M  CHG  1  20   1
M  END
>  <DOCK_score>  (1) 
-41.222195

>  <SMILES>  (1) 
C[C@@H](CC1=CCCCC1)NC(NC1CC=CCC1)=[NH+]C1CCC(=O)NC1

$$$$
