CCc1ccc(-c2c[nH]c(N[C@H](c3ccccc3)[C@H](O)c3ccccc3)[nH+]2)cc1
     RDKit          3D

 55 58  0  0  1  0  0  0  0  0999 V2000
  130.3075  128.6326  151.2901 C   0  0  0  0  0  0  0  0  0  0  0  0
  131.4376  129.5917  151.6690 C   0  0  0  0  0  0  0  0  0  0  0  0
  131.1203  130.2453  152.9893 C   0  0  0  0  0  0  0  0  0  0  0  0
  131.5378  129.6551  154.1681 C   0  0  0  0  0  0  0  0  0  0  0  0
  131.2543  130.2516  155.3799 C   0  0  0  0  0  0  0  0  0  0  0  0
  130.5366  131.4459  155.4148 C   0  0  0  0  0  0  0  0  0  0  0  0
  130.2244  132.0892  156.7143 C   0  0  0  0  0  0  0  0  0  0  0  0
  129.5086  131.5383  157.7259 C   0  0  0  0  0  0  0  0  0  0  0  0
  129.4618  132.4699  158.7344 N   0  0  0  0  0  0  0  0  0  0  0  0
  129.0190  132.3671  159.5913 H   0  0  0  0  0  0  0  0  0  0  0  0
  130.1510  133.5637  158.3093 C   0  0  0  0  0  0  0  0  0  0  0  0
  130.3404  134.7288  159.0326 N   0  0  0  0  0  0  0  0  0  0  0  0
  129.3309  135.1612  160.0022 C   0  0  2  0  0  0  0  0  0  0  0  0
  129.2088  134.3937  160.7665 H   0  0  0  0  0  0  0  0  0  0  0  0
  128.0177  135.3804  159.2962 C   0  0  0  0  0  0  0  0  0  0  0  0
  126.8281  135.1756  159.9700 C   0  0  0  0  0  0  0  0  0  0  0  0
  125.6235  135.3809  159.3237 C   0  0  0  0  0  0  0  0  0  0  0  0
  125.6085  135.7823  158.0010 C   0  0  0  0  0  0  0  0  0  0  0  0
  126.7980  135.9821  157.3258 C   0  0  0  0  0  0  0  0  0  0  0  0
  128.0027  135.7809  157.9733 C   0  0  0  0  0  0  0  0  0  0  0  0
  129.7813  136.4677  160.6590 C   0  0  2  0  0  0  0  0  0  0  0  0
  129.0302  136.7895  161.3804 H   0  0  0  0  0  0  0  0  0  0  0  0
  129.9413  137.4740  159.6570 O   0  0  0  0  0  0  0  0  0  0  0  0
  131.0945  136.2484  161.3651 C   0  0  0  0  0  0  0  0  0  0  0  0
  131.1095  135.8535  162.6898 C   0  0  0  0  0  0  0  0  0  0  0  0
  132.3141  135.6481  163.3361 C   0  0  0  0  0  0  0  0  0  0  0  0
  133.5037  135.8464  162.6605 C   0  0  0  0  0  0  0  0  0  0  0  0
  133.4886  136.2463  161.3373 C   0  0  0  0  0  0  0  0  0  0  0  0
  132.2840  136.4476  160.6896 C   0  0  0  0  0  0  0  0  0  0  0  0
  130.6094  133.3305  157.1037 N   0  0  0  0  0  0  0  0  0  0  0  0
  131.1380  133.9476  156.5738 H   0  0  0  0  0  0  0  0  0  0  0  0
  130.1138  132.0337  154.2239 C   0  0  0  0  0  0  0  0  0  0  0  0
  130.4075  131.4310  153.0176 C   0  0  0  0  0  0  0  0  0  0  0  0
  130.5371  128.1598  150.3351 H   0  0  0  0  0  0  0  0  0  0  0  0
  130.2079  127.8671  152.0598 H   0  0  0  0  0  0  0  0  0  0  0  0
  129.3730  129.1869  151.2059 H   0  0  0  0  0  0  0  0  0  0  0  0
  132.3722  129.0378  151.7531 H   0  0  0  0  0  0  0  0  0  0  0  0
  131.5372  130.3577  150.8991 H   0  0  0  0  0  0  0  0  0  0  0  0
  132.0902  128.7274  154.1402 H   0  0  0  0  0  0  0  0  0  0  0  0
  131.5848  129.7920  156.2997 H   0  0  0  0  0  0  0  0  0  0  0  0
  129.0609  130.5556  157.7365 H   0  0  0  0  0  0  0  0  0  0  0  0
  131.1414  135.2588  158.8975 H   0  0  0  0  0  0  0  0  0  0  0  0
  126.8398  134.8583  161.0023 H   0  0  0  0  0  0  0  0  0  0  0  0
  124.6941  135.2251  159.8513 H   0  0  0  0  0  0  0  0  0  0  0  0
  124.6674  135.9402  157.4952 H   0  0  0  0  0  0  0  0  0  0  0  0
  126.7863  136.2958  156.2924 H   0  0  0  0  0  0  0  0  0  0  0  0
  128.9320  135.9371  157.4459 H   0  0  0  0  0  0  0  0  0  0  0  0
  130.5961  137.2544  158.9801 H   0  0  0  0  0  0  0  0  0  0  0  0
  130.1801  135.7023  163.2187 H   0  0  0  0  0  0  0  0  0  0  0  0
  132.3257  135.3353  164.3697 H   0  0  0  0  0  0  0  0  0  0  0  0
  134.4448  135.6885  163.1662 H   0  0  0  0  0  0  0  0  0  0  0  0
  134.4180  136.4013  160.8094 H   0  0  0  0  0  0  0  0  0  0  0  0
  132.2723  136.7600  159.6560 H   0  0  0  0  0  0  0  0  0  0  0  0
  129.5571  132.9589  154.2449 H   0  0  0  0  0  0  0  0  0  0  0  0
  130.0801  131.8854  152.0942 H   0  0  0  0  0  0  0  0  0  0  0  0
  1  2  1  0
  1 34  1  0
  1 35  1  0
  1 36  1  0
  2  3  1  0
  2 37  1  0
  2 38  1  0
  3 33  2  0
  3  4  1  0
  4  5  2  0
  4 39  1  0
  5  6  1  0
  5 40  1  0
  6  7  1  0
  6 32  2  0
  7 30  1  0
  7  8  2  0
  8  9  1  0
  8 41  1  0
  9 10  1  0
  9 11  1  0
 11 12  1  0
 11 30  2  0
 12 13  1  0
 12 42  1  0
 13 14  1  1
 13 15  1  0
 13 21  1  0
 15 20  1  0
 15 16  2  0
 16 17  1  0
 16 43  1  0
 17 18  2  0
 17 44  1  0
 18 19  1  0
 18 45  1  0
 19 20  2  0
 19 46  1  0
 20 47  1  0
 21 22  1  1
 21 23  1  0
 21 24  1  0
 23 48  1  0
 24 29  1  0
 24 25  2  0
 25 26  1  0
 25 49  1  0
 26 27  2  0
 26 50  1  0
 27 28  1  0
 27 51  1  0
 28 29  2  0
 28 52  1  0
 29 53  1  0
 30 31  1  0
 32 33  1  0
 32 54  1  0
 33 55  1  0
M  CHG  1  30   1
M  END
>  <DOCK_score>  (1) 
-66.367821

>  <SMILES>  (1) 
CCc1ccc(-c2c[nH]c(N[C@H](c3ccccc3)[C@H](O)c3ccccc3)[nH+]2)cc1

$$$$
