CC(C)c1ccc([C@@H](C)CNc2[nH]cc(-c3ccc(Br)cc3)[nH+]2)cc1
     RDKit          3D

 50 52  0  0  1  0  0  0  0  0999 V2000
  134.7829  140.6595  161.7926 C   0  0  0  0  0  0  0  0  0  0  0  0
  134.4871  139.9299  160.4808 C   0  0  0  0  0  0  0  0  0  0  0  0
  135.7371  139.1752  160.0238 C   0  0  0  0  0  0  0  0  0  0  0  0
  133.3598  138.9525  160.6927 C   0  0  0  0  0  0  0  0  0  0  0  0
  132.1929  139.0741  159.9614 C   0  0  0  0  0  0  0  0  0  0  0  0
  131.1587  138.1778  160.1562 C   0  0  0  0  0  0  0  0  0  0  0  0
  131.2917  137.1594  161.0814 C   0  0  0  0  0  0  0  0  0  0  0  0
  130.1641  136.1823  161.2937 C   0  0  1  0  0  0  0  0  0  0  0  0
  130.5714  135.2177  161.5963 H   0  0  0  0  0  0  0  0  0  0  0  0
  129.2327  136.7084  162.3876 C   0  0  0  0  0  0  0  0  0  0  0  0
  129.3791  136.0186  159.9907 C   0  0  0  0  0  0  0  0  0  0  0  0
  130.2711  135.5149  158.9433 N   0  0  0  0  0  0  0  0  0  0  0  0
  129.9993  134.3068  158.3244 C   0  0  0  0  0  0  0  0  0  0  0  0
  129.1998  133.3239  158.8213 N   0  0  0  0  0  0  0  0  0  0  0  0
  128.7225  133.3434  159.6655 H   0  0  0  0  0  0  0  0  0  0  0  0
  129.1890  132.3013  157.9038 C   0  0  0  0  0  0  0  0  0  0  0  0
  129.9889  132.6846  156.8780 C   0  0  0  0  0  0  0  0  0  0  0  0
  130.2819  131.8946  155.6572 C   0  0  0  0  0  0  0  0  0  0  0  0
  129.9527  132.4007  154.4010 C   0  0  0  0  0  0  0  0  0  0  0  0
  130.2279  131.6620  153.2684 C   0  0  0  0  0  0  0  0  0  0  0  0
  130.8244  130.4178  153.3788 C   0  0  0  0  0  0  0  0  0  0  0  0
  131.1909  129.4072  151.8230 Br  0  0  0  0  0  0  0  0  0  0  0  0
  131.1585  129.9130  154.6236 C   0  0  0  0  0  0  0  0  0  0  0  0
  130.8877  130.6438  155.7624 C   0  0  0  0  0  0  0  0  0  0  0  0
  130.4689  133.9212  157.1631 N   0  0  0  0  0  0  0  0  0  0  0  0
  131.0643  134.4376  156.5976 H   0  0  0  0  0  0  0  0  0  0  0  0
  132.4566  137.0407  161.8161 C   0  0  0  0  0  0  0  0  0  0  0  0
  133.4923  137.9346  161.6187 C   0  0  0  0  0  0  0  0  0  0  0  0
  135.0688  139.9349  162.5549 H   0  0  0  0  0  0  0  0  0  0  0  0
  135.5983  141.3665  161.6394 H   0  0  0  0  0  0  0  0  0  0  0  0
  133.8924  141.1971  162.1182 H   0  0  0  0  0  0  0  0  0  0  0  0
  134.2012  140.6547  159.7185 H   0  0  0  0  0  0  0  0  0  0  0  0
  135.5265  138.6555  159.0892 H   0  0  0  0  0  0  0  0  0  0  0  0
  136.5526  139.8822  159.8705 H   0  0  0  0  0  0  0  0  0  0  0  0
  136.0231  138.4506  160.7860 H   0  0  0  0  0  0  0  0  0  0  0  0
  132.0894  139.8695  159.2384 H   0  0  0  0  0  0  0  0  0  0  0  0
  130.2470  138.2729  159.5852 H   0  0  0  0  0  0  0  0  0  0  0  0
  128.8253  137.6731  162.0851 H   0  0  0  0  0  0  0  0  0  0  0  0
  128.4171  136.0016  162.5411 H   0  0  0  0  0  0  0  0  0  0  0  0
  129.7920  136.8250  163.3159 H   0  0  0  0  0  0  0  0  0  0  0  0
  128.9720  136.9833  159.6882 H   0  0  0  0  0  0  0  0  0  0  0  0
  128.5636  135.3117  160.1442 H   0  0  0  0  0  0  0  0  0  0  0  0
  131.0523  136.0280  158.6835 H   0  0  0  0  0  0  0  0  0  0  0  0
  128.6492  131.3696  157.9851 H   0  0  0  0  0  0  0  0  0  0  0  0
  129.4829  133.3693  154.3142 H   0  0  0  0  0  0  0  0  0  0  0  0
  129.9733  132.0532  152.2945 H   0  0  0  0  0  0  0  0  0  0  0  0
  131.6276  128.9436  154.7041 H   0  0  0  0  0  0  0  0  0  0  0  0
  131.1450  130.2472  156.7335 H   0  0  0  0  0  0  0  0  0  0  0  0
  132.5587  136.2477  162.5421 H   0  0  0  0  0  0  0  0  0  0  0  0
  134.4038  137.8400  162.1901 H   0  0  0  0  0  0  0  0  0  0  0  0
  1  2  1  0
  1 29  1  0
  1 30  1  0
  1 31  1  0
  2  3  1  0
  2  4  1  0
  2 32  1  0
  3 33  1  0
  3 34  1  0
  3 35  1  0
  4 28  2  0
  4  5  1  0
  5  6  2  0
  5 36  1  0
  6  7  1  0
  6 37  1  0
  7  8  1  0
  7 27  2  0
  8  9  1  1
  8 10  1  0
  8 11  1  0
 10 38  1  0
 10 39  1  0
 10 40  1  0
 11 12  1  0
 11 41  1  0
 11 42  1  0
 12 43  1  0
 13 12  1  0
 13 25  2  0
 13 14  1  0
 14 15  1  0
 14 16  1  0
 16 17  2  0
 16 44  1  0
 17 18  1  0
 17 25  1  0
 18 24  1  0
 18 19  2  0
 19 20  1  0
 19 45  1  0
 20 21  2  0
 20 46  1  0
 21 22  1  0
 21 23  1  0
 23 24  2  0
 23 47  1  0
 24 48  1  0
 25 26  1  0
 27 28  1  0
 27 49  1  0
 28 50  1  0
M  CHG  1  25   1
M  END
>  <DOCK_score>  (1) 
-56.283913

>  <SMILES>  (1) 
CC(C)c1ccc([C@@H](C)CNc2[nH]cc(-c3ccc(Br)cc3)[nH+]2)cc1

$$$$
