O=C1CC[C@H]([NH+]=C(NC2CC=CC2)NC2CC[C@@H]3COCCC3C2)CN1
     RDKit          3D

 59 62  0  0  1  0  0  0  0  0999 V2000
  124.0407  133.6918  161.2661 O   0  0  0  0  0  0  0  0  0  0  0  0
  125.1626  134.1186  161.0927 C   0  0  0  0  0  0  0  0  0  0  0  0
  126.1336  133.2720  160.3208 C   0  0  0  0  0  0  0  0  0  0  0  0
  127.5636  133.7527  160.5795 C   0  0  0  0  0  0  0  0  0  0  0  0
  127.6051  135.2742  160.3920 C   0  0  2  0  0  0  0  0  0  0  0  0
  127.1794  135.5376  159.4238 H   0  0  0  0  0  0  0  0  0  0  0  0
  128.9922  135.7402  160.4623 N   0  0  0  0  0  0  0  0  0  0  0  0
  129.2553  136.3797  161.1427 H   0  0  0  0  0  0  0  0  0  0  0  0
  129.8729  135.2957  159.6106 C   0  0  0  0  0  0  0  0  0  0  0  0
  129.5003  134.3895  158.6461 N   0  0  0  0  0  0  0  0  0  0  0  0
  130.4715  133.4150  158.1423 C   0  0  0  0  0  0  0  0  0  0  0  0
  129.7898  132.3783  157.2195 C   0  0  0  0  0  0  0  0  0  0  0  0
  130.4851  131.0726  157.5304 C   0  0  0  0  0  0  0  0  0  0  0  0
  131.1426  131.1460  158.6555 C   0  0  0  0  0  0  0  0  0  0  0  0
  130.9953  132.5124  159.2835 C   0  0  0  0  0  0  0  0  0  0  0  0
  131.1747  135.7331  159.6764 N   0  0  0  0  0  0  0  0  0  0  0  0
  131.7519  136.1237  160.9650 C   0  0  1  0  0  0  0  0  0  0  0  0
  133.2552  135.8427  160.9556 C   0  0  0  0  0  0  0  0  0  0  0  0
  133.8671  136.2608  162.2950 C   0  0  0  0  0  0  0  0  0  0  0  0
  133.6237  137.7540  162.5147 C   0  0  2  0  0  0  0  0  0  0  0  0
  134.0760  138.3196  161.7003 H   0  0  0  0  0  0  0  0  0  0  0  0
  134.2346  138.1978  163.8448 C   0  0  0  0  0  0  0  0  0  0  0  0
  133.9519  139.5844  164.0513 O   0  0  0  0  0  0  0  0  0  0  0  0
  132.5580  139.9001  164.1202 C   0  0  0  0  0  0  0  0  0  0  0  0
  131.8788  139.5089  162.8041 C   0  0  0  0  0  0  0  0  0  0  0  0
  132.1151  138.0193  162.5447 C   0  0  1  0  0  0  0  0  0  0  0  0
  131.5072  137.6165  161.2009 C   0  0  0  0  0  0  0  0  0  0  0  0
  126.7873  135.9273  161.5069 C   0  0  0  0  0  0  0  0  0  0  0  0
  125.4680  135.3143  161.5978 N   0  0  0  0  0  0  0  0  0  0  0  0
  126.0383  132.2331  160.6362 H   0  0  0  0  0  0  0  0  0  0  0  0
  125.9141  133.3488  159.2560 H   0  0  0  0  0  0  0  0  0  0  0  0
  128.2440  133.2772  159.8730 H   0  0  0  0  0  0  0  0  0  0  0  0
  127.8566  133.5003  161.5985 H   0  0  0  0  0  0  0  0  0  0  0  0
  128.5945  134.3951  158.2995 H   0  0  0  0  0  0  0  0  0  0  0  0
  131.2936  133.9145  157.6297 H   0  0  0  0  0  0  0  0  0  0  0  0
  128.7267  132.3064  157.4492 H   0  0  0  0  0  0  0  0  0  0  0  0
  129.9358  132.6473  156.1733 H   0  0  0  0  0  0  0  0  0  0  0  0
  130.4433  130.1941  156.9035 H   0  0  0  0  0  0  0  0  0  0  0  0
  131.7168  130.3366  159.0816 H   0  0  0  0  0  0  0  0  0  0  0  0
  131.9604  132.8726  159.6398 H   0  0  0  0  0  0  0  0  0  0  0  0
  130.2768  132.4805  160.1026 H   0  0  0  0  0  0  0  0  0  0  0  0
  131.7111  135.7829  158.8697 H   0  0  0  0  0  0  0  0  0  0  0  0
  131.2805  135.5494  161.7625 H   0  0  0  0  0  0  0  0  0  0  0  0
  133.7247  136.4077  160.1503 H   0  0  0  0  0  0  0  0  0  0  0  0
  133.4239  134.7777  160.7965 H   0  0  0  0  0  0  0  0  0  0  0  0
  134.9393  136.0646  162.2826 H   0  0  0  0  0  0  0  0  0  0  0  0
  133.4017  135.6934  163.1010 H   0  0  0  0  0  0  0  0  0  0  0  0
  133.8030  137.6131  164.6572 H   0  0  0  0  0  0  0  0  0  0  0  0
  135.3136  138.0449  163.8192 H   0  0  0  0  0  0  0  0  0  0  0  0
  132.4334  140.9697  164.2887 H   0  0  0  0  0  0  0  0  0  0  0  0
  132.1017  139.3484  164.9420 H   0  0  0  0  0  0  0  0  0  0  0  0
  132.3019  140.0932  161.9871 H   0  0  0  0  0  0  0  0  0  0  0  0
  130.8083  139.7017  162.8745 H   0  0  0  0  0  0  0  0  0  0  0  0
  131.6584  137.4340  163.3428 H   0  0  0  0  0  0  0  0  0  0  0  0
  130.4350  137.8124  161.2130 H   0  0  0  0  0  0  0  0  0  0  0  0
  131.9747  138.1927  160.4025 H   0  0  0  0  0  0  0  0  0  0  0  0
  127.3084  135.8031  162.4561 H   0  0  0  0  0  0  0  0  0  0  0  0
  126.6766  136.9910  161.2966 H   0  0  0  0  0  0  0  0  0  0  0  0
  124.7684  135.8070  162.0548 H   0  0  0  0  0  0  0  0  0  0  0  0
  1  2  2  0
  2 29  1  0
  2  3  1  0
  3  4  1  0
  3 30  1  0
  3 31  1  0
  4  5  1  0
  4 32  1  0
  4 33  1  0
  5  6  1  6
  5  7  1  0
  5 28  1  0
  7  8  1  0
  9  7  2  0
  9 10  1  0
  9 16  1  0
 10 11  1  0
 10 34  1  0
 11 15  1  0
 11 12  1  0
 11 35  1  0
 12 13  1  0
 12 36  1  0
 12 37  1  0
 13 14  2  0
 13 38  1  0
 14 15  1  0
 14 39  1  0
 15 40  1  0
 15 41  1  0
 16 17  1  0
 16 42  1  0
 17 27  1  0
 17 18  1  0
 17 43  1  1
 18 19  1  0
 18 44  1  0
 18 45  1  0
 19 20  1  0
 19 46  1  0
 19 47  1  0
 20 21  1  6
 20 26  1  0
 20 22  1  0
 22 23  1  0
 22 48  1  0
 22 49  1  0
 23 24  1  0
 24 25  1  0
 24 50  1  0
 24 51  1  0
 25 26  1  0
 25 52  1  0
 25 53  1  0
 26 27  1  0
 26 54  1  1
 27 55  1  0
 27 56  1  0
 28 29  1  0
 28 57  1  0
 28 58  1  0
 29 59  1  0
M  CHG  1   7   1
M  END
>  <DOCK_score>  (1) 
-41.198425

>  <SMILES>  (1) 
O=C1CC[C@H]([NH+]=C(NC2CC=CC2)NC2CC[C@@H]3COCCC3C2)CN1

$$$$
