Fc1cccc(C[C@H](Nc2[nH]cc(-c3ccc(Br)cc3)[nH+]2)c2cccc(F)c2)c1
     RDKit          3D

 48 51  0  0  1  0  0  0  0  0999 V2000
  133.7818  139.3888  158.7291 F   0  0  0  0  0  0  0  0  0  0  0  0
  132.9718  139.1601  159.7860 C   0  0  0  0  0  0  0  0  0  0  0  0
  133.3976  139.4736  161.0659 C   0  0  0  0  0  0  0  0  0  0  0  0
  132.5708  139.2339  162.1466 C   0  0  0  0  0  0  0  0  0  0  0  0
  131.3144  138.6914  161.9495 C   0  0  0  0  0  0  0  0  0  0  0  0
  130.8861  138.3833  160.6719 C   0  0  0  0  0  0  0  0  0  0  0  0
  129.5162  137.7924  160.4587 C   0  0  0  0  0  0  0  0  0  0  0  0
  129.6038  136.2662  160.5212 C   0  0  2  0  0  0  0  0  0  0  0  0
  129.9820  135.9638  161.4977 H   0  0  0  0  0  0  0  0  0  0  0  0
  130.5110  135.7858  159.4760 N   0  0  0  0  0  0  0  0  0  0  0  0
  130.3143  134.5387  158.9082 C   0  0  0  0  0  0  0  0  0  0  0  0
  129.7575  133.4636  159.5298 N   0  0  0  0  0  0  0  0  0  0  0  0
  129.4301  133.4335  160.4424 H   0  0  0  0  0  0  0  0  0  0  0  0
  129.7447  132.4289  158.6261 C   0  0  0  0  0  0  0  0  0  0  0  0
  130.2935  132.9010  157.4795 C   0  0  0  0  0  0  0  0  0  0  0  0
  130.4875  132.1345  156.2244 C   0  0  0  0  0  0  0  0  0  0  0  0
  129.8740  132.5556  155.0459 C   0  0  0  0  0  0  0  0  0  0  0  0
  130.0627  131.8425  153.8797 C   0  0  0  0  0  0  0  0  0  0  0  0
  130.8497  130.7038  153.8817 C   0  0  0  0  0  0  0  0  0  0  0  0
  131.0972  129.7267  152.2817 Br  0  0  0  0  0  0  0  0  0  0  0  0
  131.4566  130.2781  155.0506 C   0  0  0  0  0  0  0  0  0  0  0  0
  131.2794  130.9875  156.2208 C   0  0  0  0  0  0  0  0  0  0  0  0
  130.6285  134.2000  157.6817 N   0  0  0  0  0  0  0  0  0  0  0  0
  131.0375  134.7843  157.0241 H   0  0  0  0  0  0  0  0  0  0  0  0
  128.2339  135.6753  160.3080 C   0  0  0  0  0  0  0  0  0  0  0  0
  127.6617  134.8858  161.2883 C   0  0  0  0  0  0  0  0  0  0  0  0
  126.4055  134.3428  161.0939 C   0  0  0  0  0  0  0  0  0  0  0  0
  125.7197  134.5893  159.9195 C   0  0  0  0  0  0  0  0  0  0  0  0
  126.2915  135.3799  158.9375 C   0  0  0  0  0  0  0  0  0  0  0  0
  125.6222  135.6212  157.7890 F   0  0  0  0  0  0  0  0  0  0  0  0
  127.5481  135.9273  159.1354 C   0  0  0  0  0  0  0  0  0  0  0  0
  131.7136  138.6173  159.5898 C   0  0  0  0  0  0  0  0  0  0  0  0
  134.3771  139.9019  161.2197 H   0  0  0  0  0  0  0  0  0  0  0  0
  132.9042  139.4747  163.1453 H   0  0  0  0  0  0  0  0  0  0  0  0
  130.6669  138.5085  162.7943 H   0  0  0  0  0  0  0  0  0  0  0  0
  128.8412  138.1498  161.2363 H   0  0  0  0  0  0  0  0  0  0  0  0
  129.1381  138.0949  159.4821 H   0  0  0  0  0  0  0  0  0  0  0  0
  131.2494  136.3417  159.1817 H   0  0  0  0  0  0  0  0  0  0  0  0
  129.3689  131.4308  158.7962 H   0  0  0  0  0  0  0  0  0  0  0  0
  129.2556  133.4411  155.0445 H   0  0  0  0  0  0  0  0  0  0  0  0
  129.5918  132.1706  152.9649 H   0  0  0  0  0  0  0  0  0  0  0  0
  132.0696  129.3890  155.0468 H   0  0  0  0  0  0  0  0  0  0  0  0
  131.7536  130.6546  157.1322 H   0  0  0  0  0  0  0  0  0  0  0  0
  128.1967  134.6930  162.2064 H   0  0  0  0  0  0  0  0  0  0  0  0
  125.9597  133.7260  161.8601 H   0  0  0  0  0  0  0  0  0  0  0  0
  124.7379  134.1654  159.7681 H   0  0  0  0  0  0  0  0  0  0  0  0
  127.9933  136.5480  158.3718 H   0  0  0  0  0  0  0  0  0  0  0  0
  131.3788  138.3764  158.5917 H   0  0  0  0  0  0  0  0  0  0  0  0
  1  2  1  0
  2 32  2  0
  2  3  1  0
  3  4  2  0
  3 33  1  0
  4  5  1  0
  4 34  1  0
  5  6  2  0
  5 35  1  0
  6  7  1  0
  6 32  1  0
  7  8  1  0
  7 36  1  0
  7 37  1  0
  8  9  1  1
  8 10  1  0
  8 25  1  0
 10 38  1  0
 11 10  1  0
 11 23  2  0
 11 12  1  0
 12 13  1  0
 12 14  1  0
 14 15  2  0
 14 39  1  0
 15 16  1  0
 15 23  1  0
 16 22  1  0
 16 17  2  0
 17 18  1  0
 17 40  1  0
 18 19  2  0
 18 41  1  0
 19 20  1  0
 19 21  1  0
 21 22  2  0
 21 42  1  0
 22 43  1  0
 23 24  1  0
 25 31  1  0
 25 26  2  0
 26 27  1  0
 26 44  1  0
 27 28  2  0
 27 45  1  0
 28 29  1  0
 28 46  1  0
 29 30  1  0
 29 31  2  0
 31 47  1  0
 32 48  1  0
M  CHG  1  23   1
M  END
>  <DOCK_score>  (1) 
-56.989571

>  <SMILES>  (1) 
Fc1cccc(C[C@H](Nc2[nH]cc(-c3ccc(Br)cc3)[nH+]2)c2cccc(F)c2)c1

$$$$
