c1ccc(Nc2ccc(Nc3ccc(Nc4[nH]c5ccccc5[nH+]4)cc3)cc2)cc1
     RDKit          3D

 52 56  0  0  0  0  0  0  0  0999 V2000
  129.0458  128.8930  150.8010 C   0  0  0  0  0  0  0  0  0  0  0  0
  128.4555  129.5884  151.8404 C   0  0  0  0  0  0  0  0  0  0  0  0
  129.2270  130.3736  152.6741 C   0  0  0  0  0  0  0  0  0  0  0  0
  130.5981  130.4645  152.4678 C   0  0  0  0  0  0  0  0  0  0  0  0
  131.3816  131.2578  153.3092 N   0  0  0  0  0  0  0  0  0  0  0  0
  131.0047  131.4463  154.6442 C   0  0  0  0  0  0  0  0  0  0  0  0
  130.7473  132.7262  155.1189 C   0  0  0  0  0  0  0  0  0  0  0  0
  130.3764  132.9123  156.4356 C   0  0  0  0  0  0  0  0  0  0  0  0
  130.2601  131.8198  157.2855 C   0  0  0  0  0  0  0  0  0  0  0  0
  129.8847  132.0085  158.6206 N   0  0  0  0  0  0  0  0  0  0  0  0
  130.2183  133.1967  159.2800 C   0  0  0  0  0  0  0  0  0  0  0  0
  129.2166  134.0138  159.7882 C   0  0  0  0  0  0  0  0  0  0  0  0
  129.5457  135.1892  160.4334 C   0  0  0  0  0  0  0  0  0  0  0  0
  130.8781  135.5544  160.5747 C   0  0  0  0  0  0  0  0  0  0  0  0
  131.2119  136.7468  161.2298 N   0  0  0  0  0  0  0  0  0  0  0  0
  132.3520  137.4306  160.8755 C   0  0  0  0  0  0  0  0  0  0  0  0
  133.0731  138.1891  161.6985 N   0  0  0  0  0  0  0  0  0  0  0  0
  132.8825  138.3483  162.6362 H   0  0  0  0  0  0  0  0  0  0  0  0
  134.1319  138.7037  160.9979 C   0  0  0  0  0  0  0  0  0  0  0  0
  135.1918  139.5418  161.3322 C   0  0  0  0  0  0  0  0  0  0  0  0
  136.1167  139.8924  160.3727 C   0  0  0  0  0  0  0  0  0  0  0  0
  135.9994  139.4159  159.0751 C   0  0  0  0  0  0  0  0  0  0  0  0
  134.9562  138.5853  158.7273 C   0  0  0  0  0  0  0  0  0  0  0  0
  134.0131  138.2213  159.6842 C   0  0  0  0  0  0  0  0  0  0  0  0
  132.8917  137.4348  159.6584 N   0  0  0  0  0  0  0  0  0  0  0  0
  132.5489  136.9612  158.8845 H   0  0  0  0  0  0  0  0  0  0  0  0
  131.8797  134.7373  160.0669 C   0  0  0  0  0  0  0  0  0  0  0  0
  131.5509  133.5622  159.4214 C   0  0  0  0  0  0  0  0  0  0  0  0
  130.5223  130.5406  156.8121 C   0  0  0  0  0  0  0  0  0  0  0  0
  130.8885  130.3539  155.4940 C   0  0  0  0  0  0  0  0  0  0  0  0
  131.1870  129.7689  151.4191 C   0  0  0  0  0  0  0  0  0  0  0  0
  130.4101  128.9810  150.5928 C   0  0  0  0  0  0  0  0  0  0  0  0
  128.4400  128.2799  150.1503 H   0  0  0  0  0  0  0  0  0  0  0  0
  127.3897  129.5177  152.0001 H   0  0  0  0  0  0  0  0  0  0  0  0
  128.7653  130.9167  153.4855 H   0  0  0  0  0  0  0  0  0  0  0  0
  132.1868  131.6777  152.9686 H   0  0  0  0  0  0  0  0  0  0  0  0
  130.8375  133.5754  154.4581 H   0  0  0  0  0  0  0  0  0  0  0  0
  130.1762  133.9073  156.8047 H   0  0  0  0  0  0  0  0  0  0  0  0
  129.3930  131.3156  159.0886 H   0  0  0  0  0  0  0  0  0  0  0  0
  128.1804  133.7302  159.6781 H   0  0  0  0  0  0  0  0  0  0  0  0
  128.7669  135.8248  160.8283 H   0  0  0  0  0  0  0  0  0  0  0  0
  130.6392  137.0903  161.9333 H   0  0  0  0  0  0  0  0  0  0  0  0
  135.2890  139.9163  162.3406 H   0  0  0  0  0  0  0  0  0  0  0  0
  136.9389  140.5424  160.6328 H   0  0  0  0  0  0  0  0  0  0  0  0
  136.7309  139.6976  158.3324 H   0  0  0  0  0  0  0  0  0  0  0  0
  134.8710  138.2176  157.7155 H   0  0  0  0  0  0  0  0  0  0  0  0
  132.9158  135.0215  160.1769 H   0  0  0  0  0  0  0  0  0  0  0  0
  132.3300  132.9268  159.0266 H   0  0  0  0  0  0  0  0  0  0  0  0
  130.4362  129.6916  157.4740 H   0  0  0  0  0  0  0  0  0  0  0  0
  131.0890  129.3589  155.1250 H   0  0  0  0  0  0  0  0  0  0  0  0
  132.2516  129.8411  151.2530 H   0  0  0  0  0  0  0  0  0  0  0  0
  130.8680  128.4368  149.7800 H   0  0  0  0  0  0  0  0  0  0  0  0
  1 32  2  0
  1  2  1  0
  1 33  1  0
  2  3  2  0
  2 34  1  0
  3  4  1  0
  3 35  1  0
  4  5  1  0
  4 31  2  0
  5  6  1  0
  5 36  1  0
  6 30  1  0
  6  7  2  0
  7  8  1  0
  7 37  1  0
  8  9  2  0
  8 38  1  0
  9 10  1  0
  9 29  1  0
 10 11  1  0
 10 39  1  0
 11 28  1  0
 11 12  2  0
 12 13  1  0
 12 40  1  0
 13 14  2  0
 13 41  1  0
 14 15  1  0
 14 27  1  0
 15 16  1  0
 15 42  1  0
 16 25  1  0
 16 17  2  0
 17 18  1  0
 17 19  1  0
 19 24  2  0
 19 20  1  0
 20 21  2  0
 20 43  1  0
 21 22  1  0
 21 44  1  0
 22 23  2  0
 22 45  1  0
 23 24  1  0
 23 46  1  0
 24 25  1  0
 25 26  1  0
 27 28  2  0
 27 47  1  0
 28 48  1  0
 29 30  2  0
 29 49  1  0
 30 50  1  0
 31 32  1  0
 31 51  1  0
 32 52  1  0
M  CHG  1  17   1
M  END
>  <DOCK_score>  (1) 
-58.626545

>  <SMILES>  (1) 
c1ccc(Nc2ccc(Nc3ccc(Nc4[nH]c5ccccc5[nH+]4)cc3)cc2)cc1

$$$$
