Cc1c(N)ccc(Nc2[nH]c3c(N)cccc3[nH+]2)c1Nc1ccccc1Nc1ccccc1Cl
     RDKit          3D

 59 63  0  0  1  0  0  0  0  0999 V2000
  131.1677  130.5207  157.6736 C   0  0  0  0  0  0  0  0  0  0  0  0
  130.4458  131.8197  157.4234 C   0  0  0  0  0  0  0  0  0  0  0  0
  130.4989  132.4141  156.1697 C   0  0  0  0  0  0  0  0  0  0  0  0
  131.2226  131.8062  155.1379 N   0  0  0  0  0  0  0  0  0  0  0  0
  129.8346  133.6114  155.9391 C   0  0  0  0  0  0  0  0  0  0  0  0
  129.1186  134.2147  156.9563 C   0  0  0  0  0  0  0  0  0  0  0  0
  129.0574  133.6230  158.2083 C   0  0  0  0  0  0  0  0  0  0  0  0
  128.3260  134.2336  159.2385 N   0  0  0  0  0  0  0  0  0  0  0  0
  128.6611  135.5024  159.6642 C   0  0  0  0  0  0  0  0  0  0  0  0
  129.6771  136.2583  159.1543 N   0  0  0  0  0  0  0  0  0  0  0  0
  130.2821  136.0031  158.4403 H   0  0  0  0  0  0  0  0  0  0  0  0
  129.6830  137.4591  159.8483 C   0  0  0  0  0  0  0  0  0  0  0  0
  130.4675  138.6077  159.7836 C   0  0  0  0  0  0  0  0  0  0  0  0
  131.5114  138.6938  158.8569 N   0  0  0  0  0  0  0  0  0  0  0  0
  130.2095  139.6654  160.6412 C   0  0  0  0  0  0  0  0  0  0  0  0
  129.1753  139.5847  161.5615 C   0  0  0  0  0  0  0  0  0  0  0  0
  128.3919  138.4554  161.6367 C   0  0  0  0  0  0  0  0  0  0  0  0
  128.6372  137.3776  160.7790 C   0  0  0  0  0  0  0  0  0  0  0  0
  128.0483  136.1642  160.6144 N   0  0  0  0  0  0  0  0  0  0  0  0
  127.2908  135.8370  161.1243 H   0  0  0  0  0  0  0  0  0  0  0  0
  129.7285  132.4229  158.4451 C   0  0  0  0  0  0  0  0  0  0  0  0
  129.6727  131.8262  159.7093 N   0  0  0  0  0  0  0  0  0  0  0  0
  128.4385  131.4507  160.2519 C   0  0  0  0  0  0  0  0  0  0  0  0
  127.6396  130.5291  159.5912 C   0  0  0  0  0  0  0  0  0  0  0  0
  126.4207  130.1600  160.1290 C   0  0  0  0  0  0  0  0  0  0  0  0
  125.9938  130.7068  161.3252 C   0  0  0  0  0  0  0  0  0  0  0  0
  126.7834  131.6259  161.9908 C   0  0  0  0  0  0  0  0  0  0  0  0
  128.0078  132.0023  161.4590 C   0  0  0  0  0  0  0  0  0  0  0  0
  128.8088  132.9331  162.1308 N   0  0  0  0  0  0  0  0  0  0  0  0
  128.2174  133.9226  162.9207 C   0  0  0  0  0  0  0  0  0  0  0  0
  126.9531  134.4031  162.6039 C   0  0  0  0  0  0  0  0  0  0  0  0
  126.3714  135.3811  163.3866 C   0  0  0  0  0  0  0  0  0  0  0  0
  127.0458  135.8825  164.4851 C   0  0  0  0  0  0  0  0  0  0  0  0
  128.3047  135.4073  164.8038 C   0  0  0  0  0  0  0  0  0  0  0  0
  128.8904  134.4244  164.0289 C   0  0  0  0  0  0  0  0  0  0  0  0
  130.4676  133.8226  164.4338 Cl  0  0  0  0  0  0  0  0  0  0  0  0
  130.5021  129.6866  157.4518 H   0  0  0  0  0  0  0  0  0  0  0  0
  132.0471  130.4643  157.0320 H   0  0  0  0  0  0  0  0  0  0  0  0
  131.4762  130.4717  158.7179 H   0  0  0  0  0  0  0  0  0  0  0  0
  131.6871  130.9700  155.2986 H   0  0  0  0  0  0  0  0  0  0  0  0
  131.2599  132.2211  154.2620 H   0  0  0  0  0  0  0  0  0  0  0  0
  129.8771  134.0720  154.9633 H   0  0  0  0  0  0  0  0  0  0  0  0
  128.6025  135.1458  156.7740 H   0  0  0  0  0  0  0  0  0  0  0  0
  127.5847  133.7634  159.6514 H   0  0  0  0  0  0  0  0  0  0  0  0
  131.6902  137.9525  158.2573 H   0  0  0  0  0  0  0  0  0  0  0  0
  132.0567  139.4948  158.8135 H   0  0  0  0  0  0  0  0  0  0  0  0
  130.8167  140.5571  160.5922 H   0  0  0  0  0  0  0  0  0  0  0  0
  128.9830  140.4149  162.2247 H   0  0  0  0  0  0  0  0  0  0  0  0
  127.5891  138.4012  162.3572 H   0  0  0  0  0  0  0  0  0  0  0  0
  130.4895  131.6729  160.2097 H   0  0  0  0  0  0  0  0  0  0  0  0
  127.9699  130.0998  158.6570 H   0  0  0  0  0  0  0  0  0  0  0  0
  125.7998  129.4426  159.6130 H   0  0  0  0  0  0  0  0  0  0  0  0
  125.0407  130.4149  161.7408 H   0  0  0  0  0  0  0  0  0  0  0  0
  126.4488  132.0476  162.9272 H   0  0  0  0  0  0  0  0  0  0  0  0
  129.7744  132.8913  162.0481 H   0  0  0  0  0  0  0  0  0  0  0  0
  126.4257  134.0126  161.7462 H   0  0  0  0  0  0  0  0  0  0  0  0
  125.3887  135.7552  163.1403 H   0  0  0  0  0  0  0  0  0  0  0  0
  126.5882  136.6473  165.0952 H   0  0  0  0  0  0  0  0  0  0  0  0
  128.8286  135.8013  165.6622 H   0  0  0  0  0  0  0  0  0  0  0  0
  1  2  1  0
  1 37  1  0
  1 38  1  0
  1 39  1  0
  2 21  2  0
  2  3  1  0
  3  4  1  0
  3  5  2  0
  4 40  1  0
  4 41  1  0
  5  6  1  0
  5 42  1  0
  6  7  2  0
  6 43  1  0
  7  8  1  0
  7 21  1  0
  8 44  1  0
  9  8  1  0
  9 19  2  0
  9 10  1  0
 10 11  1  0
 10 12  1  0
 12 18  2  0
 12 13  1  0
 13 14  1  0
 13 15  2  0
 14 45  1  0
 14 46  1  0
 15 16  1  0
 15 47  1  0
 16 17  2  0
 16 48  1  0
 17 18  1  0
 17 49  1  0
 18 19  1  0
 19 20  1  0
 21 22  1  0
 22 23  1  0
 22 50  1  0
 23 28  1  0
 23 24  2  0
 24 25  1  0
 24 51  1  0
 25 26  2  0
 25 52  1  0
 26 27  1  0
 26 53  1  0
 27 28  2  0
 27 54  1  0
 28 29  1  0
 29 30  1  0
 29 55  1  0
 30 35  1  0
 30 31  2  0
 31 32  1  0
 31 56  1  0
 32 33  2  0
 32 57  1  0
 33 34  1  0
 33 58  1  0
 34 35  2  0
 34 59  1  0
 35 36  1  0
M  CHG  1  19   1
M  END
>  <DOCK_score>  (1) 
-58.536251

>  <SMILES>  (1) 
Cc1c(N)ccc(Nc2[nH]c3c(N)cccc3[nH+]2)c1Nc1ccccc1Nc1ccccc1Cl

$$$$
