Cc1c(Cl)cccc1N1CC[NH+]([C@@H](c2ccccc2)c2ccccc2Br)CC1
     RDKit          3D

 53 56  0  0  1  0  0  0  0  0999 V2000
  133.8607  139.1160  163.1461 C   0  0  0  0  0  0  0  0  0  0  0  0
  134.3307  139.5100  161.7694 C   0  0  0  0  0  0  0  0  0  0  0  0
  135.2542  140.5275  161.6182 C   0  0  0  0  0  0  0  0  0  0  0  0
  135.8730  141.3520  163.0150 Cl  0  0  0  0  0  0  0  0  0  0  0  0
  135.6815  140.8932  160.3538 C   0  0  0  0  0  0  0  0  0  0  0  0
  135.1903  140.2390  159.2388 C   0  0  0  0  0  0  0  0  0  0  0  0
  134.2719  139.2181  159.3837 C   0  0  0  0  0  0  0  0  0  0  0  0
  133.8404  138.8480  160.6515 C   0  0  0  0  0  0  0  0  0  0  0  0
  132.9111  137.8160  160.8009 N   0  0  0  0  0  0  0  0  0  0  0  0
  131.6290  138.1669  160.1741 C   0  0  0  0  0  0  0  0  0  0  0  0
  130.6230  137.0384  160.4110 C   0  0  0  0  0  0  0  0  0  0  0  0
  131.1429  135.7903  159.8371 N   0  0  0  0  0  0  0  0  0  0  0  0
  131.2975  135.9140  158.8478 H   0  0  0  0  0  0  0  0  0  0  0  0
  130.1688  134.7112  160.0489 C   0  0  1  0  0  0  0  0  0  0  0  0
  130.0012  134.5776  161.1177 H   0  0  0  0  0  0  0  0  0  0  0  0
  128.8681  135.0696  159.3773 C   0  0  0  0  0  0  0  0  0  0  0  0
  127.6732  134.6010  159.8906 C   0  0  0  0  0  0  0  0  0  0  0  0
  126.4799  134.9334  159.2770 C   0  0  0  0  0  0  0  0  0  0  0  0
  126.4822  135.7263  158.1447 C   0  0  0  0  0  0  0  0  0  0  0  0
  127.6775  136.1909  157.6288 C   0  0  0  0  0  0  0  0  0  0  0  0
  128.8706  135.8622  158.2448 C   0  0  0  0  0  0  0  0  0  0  0  0
  130.7019  133.4305  159.4603 C   0  0  0  0  0  0  0  0  0  0  0  0
  130.9921  133.3582  158.1106 C   0  0  0  0  0  0  0  0  0  0  0  0
  131.4859  132.1851  157.5715 C   0  0  0  0  0  0  0  0  0  0  0  0
  131.6792  131.0801  158.3798 C   0  0  0  0  0  0  0  0  0  0  0  0
  131.3845  131.1498  159.7281 C   0  0  0  0  0  0  0  0  0  0  0  0
  130.8956  132.3255  160.2692 C   0  0  0  0  0  0  0  0  0  0  0  0
  130.4914  132.4213  162.1139 Br  0  0  0  0  0  0  0  0  0  0  0  0
  132.4109  135.4401  160.4906 C   0  0  0  0  0  0  0  0  0  0  0  0
  133.4318  136.5551  160.2539 C   0  0  0  0  0  0  0  0  0  0  0  0
  134.5144  138.3403  163.5449 H   0  0  0  0  0  0  0  0  0  0  0  0
  133.8874  139.9862  163.8019 H   0  0  0  0  0  0  0  0  0  0  0  0
  132.8405  138.7368  163.0871 H   0  0  0  0  0  0  0  0  0  0  0  0
  136.4002  141.6909  160.2376 H   0  0  0  0  0  0  0  0  0  0  0  0
  135.5257  140.5267  158.2534 H   0  0  0  0  0  0  0  0  0  0  0  0
  133.8895  138.7074  158.5123 H   0  0  0  0  0  0  0  0  0  0  0  0
  131.7740  138.3058  159.1027 H   0  0  0  0  0  0  0  0  0  0  0  0
  131.2502  139.0900  160.6129 H   0  0  0  0  0  0  0  0  0  0  0  0
  129.6755  137.2903  159.9346 H   0  0  0  0  0  0  0  0  0  0  0  0
  130.4680  136.9088  161.4822 H   0  0  0  0  0  0  0  0  0  0  0  0
  127.6717  133.9781  160.7728 H   0  0  0  0  0  0  0  0  0  0  0  0
  125.5460  134.5707  159.6804 H   0  0  0  0  0  0  0  0  0  0  0  0
  125.5501  135.9832  157.6635 H   0  0  0  0  0  0  0  0  0  0  0  0
  127.6794  136.8104  156.7442 H   0  0  0  0  0  0  0  0  0  0  0  0
  129.8044  136.2249  157.8414 H   0  0  0  0  0  0  0  0  0  0  0  0
  130.8368  134.2196  157.4781 H   0  0  0  0  0  0  0  0  0  0  0  0
  131.7168  132.1304  156.5180 H   0  0  0  0  0  0  0  0  0  0  0  0
  132.0610  130.1624  157.9573 H   0  0  0  0  0  0  0  0  0  0  0  0
  131.5355  130.2866  160.3592 H   0  0  0  0  0  0  0  0  0  0  0  0
  132.2465  135.3189  161.5613 H   0  0  0  0  0  0  0  0  0  0  0  0
  132.7890  134.5068  160.0732 H   0  0  0  0  0  0  0  0  0  0  0  0
  133.6065  136.6675  159.1839 H   0  0  0  0  0  0  0  0  0  0  0  0
  134.3686  136.3024  160.7507 H   0  0  0  0  0  0  0  0  0  0  0  0
  1  2  1  0
  1 31  1  0
  1 32  1  0
  1 33  1  0
  2  8  2  0
  2  3  1  0
  3  4  1  0
  3  5  2  0
  5  6  1  0
  5 34  1  0
  6  7  2  0
  6 35  1  0
  7  8  1  0
  7 36  1  0
  8  9  1  0
  9 30  1  0
  9 10  1  0
 10 11  1  0
 10 37  1  0
 10 38  1  0
 11 12  1  0
 11 39  1  0
 11 40  1  0
 12 13  1  0
 12 14  1  0
 12 29  1  0
 14 15  1  1
 14 16  1  0
 14 22  1  0
 16 21  1  0
 16 17  2  0
 17 18  1  0
 17 41  1  0
 18 19  2  0
 18 42  1  0
 19 20  1  0
 19 43  1  0
 20 21  2  0
 20 44  1  0
 21 45  1  0
 22 27  1  0
 22 23  2  0
 23 24  1  0
 23 46  1  0
 24 25  2  0
 24 47  1  0
 25 26  1  0
 25 48  1  0
 26 27  2  0
 26 49  1  0
 27 28  1  0
 29 30  1  0
 29 50  1  0
 29 51  1  0
 30 52  1  0
 30 53  1  0
M  CHG  1  12   1
M  END
>  <DOCK_score>  (1) 
-57.094612

>  <SMILES>  (1) 
Cc1c(Cl)cccc1N1CC[NH+]([C@@H](c2ccccc2)c2ccccc2Br)CC1

$$$$
