Cc1cccc([C@H](Nc2[nH]cc(-c3ccc(N)cc3)[nH+]2)c2cccc(F)c2)c1
     RDKit          3D

 50 53  0  0  1  0  0  0  0  0999 V2000
  131.1948  139.9808  159.4310 C   0  0  0  0  0  0  0  0  0  0  0  0
  130.4727  138.9697  160.2839 C   0  0  0  0  0  0  0  0  0  0  0  0
  130.1181  139.2875  161.5819 C   0  0  0  0  0  0  0  0  0  0  0  0
  129.4555  138.3603  162.3639 C   0  0  0  0  0  0  0  0  0  0  0  0
  129.1473  137.1151  161.8483 C   0  0  0  0  0  0  0  0  0  0  0  0
  129.4971  136.7993  160.5490 C   0  0  0  0  0  0  0  0  0  0  0  0
  129.1557  135.4443  159.9848 C   0  0  2  0  0  0  0  0  0  0  0  0
  129.1476  134.7076  160.7881 H   0  0  0  0  0  0  0  0  0  0  0  0
  130.1568  135.0654  158.9846 N   0  0  0  0  0  0  0  0  0  0  0  0
  130.0520  133.8525  158.3253 C   0  0  0  0  0  0  0  0  0  0  0  0
  129.4923  132.7206  158.8322 N   0  0  0  0  0  0  0  0  0  0  0  0
  129.0988  132.6189  159.7130 H   0  0  0  0  0  0  0  0  0  0  0  0
  129.5879  131.7478  157.8655 C   0  0  0  0  0  0  0  0  0  0  0  0
  130.2026  132.3137  156.7977 C   0  0  0  0  0  0  0  0  0  0  0  0
  130.5202  131.6396  155.5148 C   0  0  0  0  0  0  0  0  0  0  0  0
  129.9804  132.1185  154.3223 C   0  0  0  0  0  0  0  0  0  0  0  0
  130.2815  131.4940  153.1304 C   0  0  0  0  0  0  0  0  0  0  0  0
  131.1133  130.3805  153.1189 C   0  0  0  0  0  0  0  0  0  0  0  0
  131.4128  129.7458  151.9109 N   0  0  0  0  0  0  0  0  0  0  0  0
  131.6480  129.8977  154.3074 C   0  0  0  0  0  0  0  0  0  0  0  0
  131.3542  130.5226  155.5009 C   0  0  0  0  0  0  0  0  0  0  0  0
  130.4706  133.6069  157.1076 N   0  0  0  0  0  0  0  0  0  0  0  0
  130.9047  134.2471  156.5223 H   0  0  0  0  0  0  0  0  0  0  0  0
  127.7952  135.4976  159.3385 C   0  0  0  0  0  0  0  0  0  0  0  0
  127.6780  135.8278  158.0009 C   0  0  0  0  0  0  0  0  0  0  0  0
  126.4310  135.8767  157.4069 C   0  0  0  0  0  0  0  0  0  0  0  0
  125.2996  135.5954  158.1492 C   0  0  0  0  0  0  0  0  0  0  0  0
  125.4157  135.2650  159.4886 C   0  0  0  0  0  0  0  0  0  0  0  0
  124.3104  134.9903  160.2154 F   0  0  0  0  0  0  0  0  0  0  0  0
  126.6660  135.2108  160.0815 C   0  0  0  0  0  0  0  0  0  0  0  0
  130.1647  137.7248  159.7684 C   0  0  0  0  0  0  0  0  0  0  0  0
  130.4671  140.5863  158.8909 H   0  0  0  0  0  0  0  0  0  0  0  0
  131.8027  140.6246  160.0668 H   0  0  0  0  0  0  0  0  0  0  0  0
  131.8368  139.4629  158.7186 H   0  0  0  0  0  0  0  0  0  0  0  0
  130.3586  140.2602  161.9847 H   0  0  0  0  0  0  0  0  0  0  0  0
  129.1782  138.6087  163.3777 H   0  0  0  0  0  0  0  0  0  0  0  0
  128.6293  136.3908  162.4592 H   0  0  0  0  0  0  0  0  0  0  0  0
  130.8931  135.6642  158.7845 H   0  0  0  0  0  0  0  0  0  0  0  0
  129.2399  130.7282  157.9421 H   0  0  0  0  0  0  0  0  0  0  0  0
  129.3301  132.9808  154.3312 H   0  0  0  0  0  0  0  0  0  0  0  0
  129.8673  131.8676  152.2056 H   0  0  0  0  0  0  0  0  0  0  0  0
  131.9934  128.9690  151.9021 H   0  0  0  0  0  0  0  0  0  0  0  0
  131.0399  130.0823  151.0810 H   0  0  0  0  0  0  0  0  0  0  0  0
  132.2938  129.0321  154.2963 H   0  0  0  0  0  0  0  0  0  0  0  0
  131.7702  130.1472  156.4243 H   0  0  0  0  0  0  0  0  0  0  0  0
  128.5616  136.0475  157.4200 H   0  0  0  0  0  0  0  0  0  0  0  0
  126.3407  136.1345  156.3619 H   0  0  0  0  0  0  0  0  0  0  0  0
  124.3254  135.6329  157.6846 H   0  0  0  0  0  0  0  0  0  0  0  0
  126.7582  134.9483  161.1250 H   0  0  0  0  0  0  0  0  0  0  0  0
  130.4414  137.4768  158.7543 H   0  0  0  0  0  0  0  0  0  0  0  0
  1  2  1  0
  1 32  1  0
  1 33  1  0
  1 34  1  0
  2 31  2  0
  2  3  1  0
  3  4  2  0
  3 35  1  0
  4  5  1  0
  4 36  1  0
  5  6  2  0
  5 37  1  0
  6  7  1  0
  6 31  1  0
  7  8  1  1
  7  9  1  0
  7 24  1  0
  9 38  1  0
 10  9  1  0
 10 22  2  0
 10 11  1  0
 11 12  1  0
 11 13  1  0
 13 14  2  0
 13 39  1  0
 14 15  1  0
 14 22  1  0
 15 21  1  0
 15 16  2  0
 16 17  1  0
 16 40  1  0
 17 18  2  0
 17 41  1  0
 18 19  1  0
 18 20  1  0
 19 42  1  0
 19 43  1  0
 20 21  2  0
 20 44  1  0
 21 45  1  0
 22 23  1  0
 24 30  1  0
 24 25  2  0
 25 26  1  0
 25 46  1  0
 26 27  2  0
 26 47  1  0
 27 28  1  0
 27 48  1  0
 28 29  1  0
 28 30  2  0
 30 49  1  0
 31 50  1  0
M  CHG  1  22   1
M  END
>  <DOCK_score>  (1) 
-63.212425

>  <SMILES>  (1) 
Cc1cccc([C@H](Nc2[nH]cc(-c3ccc(N)cc3)[nH+]2)c2cccc(F)c2)c1

$$$$
