FC1(F)C[C@H]1CNc1ccc(NCc2ccccc2)c(Nc2[nH]c3ccccc3[nH+]2)c1
     RDKit          3D

 55 59  0  0  1  0  0  0  0  0999 V2000
  123.0158  131.6034  160.1218 F   0  0  0  0  0  0  0  0  0  0  0  0
  124.3248  131.9017  160.5153 C   0  0  0  0  0  0  0  0  0  0  0  0
  125.3272  131.1423  159.9024 F   0  0  0  0  0  0  0  0  0  0  0  0
  124.5467  132.3231  161.9701 C   0  0  0  0  0  0  0  0  0  0  0  0
  124.6472  133.3596  160.8492 C   0  0  1  0  0  0  0  0  0  0  0  0
  123.8397  134.0864  160.7617 H   0  0  0  0  0  0  0  0  0  0  0  0
  126.0414  133.8755  160.4870 C   0  0  0  0  0  0  0  0  0  0  0  0
  126.3385  135.0742  161.2752 N   0  0  0  0  0  0  0  0  0  0  0  0
  127.5652  135.7297  161.1168 C   0  0  0  0  0  0  0  0  0  0  0  0
  127.8441  136.8689  161.8602 C   0  0  0  0  0  0  0  0  0  0  0  0
  129.0570  137.5150  161.7106 C   0  0  0  0  0  0  0  0  0  0  0  0
  129.9964  137.0300  160.8137 C   0  0  0  0  0  0  0  0  0  0  0  0
  131.2272  137.6858  160.6632 N   0  0  0  0  0  0  0  0  0  0  0  0
  131.5204  138.8836  161.4541 C   0  0  0  0  0  0  0  0  0  0  0  0
  132.8964  139.3906  161.1065 C   0  0  0  0  0  0  0  0  0  0  0  0
  133.1762  140.7418  161.1886 C   0  0  0  0  0  0  0  0  0  0  0  0
  134.4397  141.2063  160.8744 C   0  0  0  0  0  0  0  0  0  0  0  0
  135.4204  140.3207  160.4680 C   0  0  0  0  0  0  0  0  0  0  0  0
  135.1390  138.9702  160.3810 C   0  0  0  0  0  0  0  0  0  0  0  0
  133.8770  138.5051  160.7001 C   0  0  0  0  0  0  0  0  0  0  0  0
  129.7171  135.8897  160.0616 C   0  0  0  0  0  0  0  0  0  0  0  0
  130.6649  135.3974  159.1547 N   0  0  0  0  0  0  0  0  0  0  0  0
  130.7213  134.0499  158.8823 C   0  0  0  0  0  0  0  0  0  0  0  0
  131.1075  133.5218  157.7226 N   0  0  0  0  0  0  0  0  0  0  0  0
  131.3922  134.0190  156.9399 H   0  0  0  0  0  0  0  0  0  0  0  0
  131.0374  132.1575  157.8231 C   0  0  0  0  0  0  0  0  0  0  0  0
  131.3144  131.1120  156.9469 C   0  0  0  0  0  0  0  0  0  0  0  0
  131.1321  129.8088  157.3561 C   0  0  0  0  0  0  0  0  0  0  0  0
  130.6742  129.5308  158.6358 C   0  0  0  0  0  0  0  0  0  0  0  0
  130.3956  130.5539  159.5159 C   0  0  0  0  0  0  0  0  0  0  0  0
  130.5739  131.8761  159.1187 C   0  0  0  0  0  0  0  0  0  0  0  0
  130.3920  133.0844  159.7379 N   0  0  0  0  0  0  0  0  0  0  0  0
  130.0773  133.2145  160.6461 H   0  0  0  0  0  0  0  0  0  0  0  0
  128.4997  135.2435  160.2129 C   0  0  0  0  0  0  0  0  0  0  0  0
  125.4736  132.0088  162.4496 H   0  0  0  0  0  0  0  0  0  0  0  0
  123.6729  132.3681  162.6202 H   0  0  0  0  0  0  0  0  0  0  0  0
  126.0735  134.1214  159.4257 H   0  0  0  0  0  0  0  0  0  0  0  0
  126.7816  133.1052  160.7041 H   0  0  0  0  0  0  0  0  0  0  0  0
  125.6852  135.4136  161.9068 H   0  0  0  0  0  0  0  0  0  0  0  0
  127.1141  137.2483  162.5598 H   0  0  0  0  0  0  0  0  0  0  0  0
  129.2732  138.3983  162.2932 H   0  0  0  0  0  0  0  0  0  0  0  0
  131.8841  137.3461  160.0355 H   0  0  0  0  0  0  0  0  0  0  0  0
  130.7824  139.6546  161.2329 H   0  0  0  0  0  0  0  0  0  0  0  0
  131.4815  138.6370  162.5151 H   0  0  0  0  0  0  0  0  0  0  0  0
  132.4088  141.4342  161.5018 H   0  0  0  0  0  0  0  0  0  0  0  0
  134.6595  142.2616  160.9421 H   0  0  0  0  0  0  0  0  0  0  0  0
  136.4064  140.6842  160.2183 H   0  0  0  0  0  0  0  0  0  0  0  0
  135.9051  138.2784  160.0631 H   0  0  0  0  0  0  0  0  0  0  0  0
  133.6571  137.4499  160.6317 H   0  0  0  0  0  0  0  0  0  0  0  0
  131.2814  136.0065  158.7191 H   0  0  0  0  0  0  0  0  0  0  0  0
  131.6714  131.3214  155.9494 H   0  0  0  0  0  0  0  0  0  0  0  0
  131.3468  128.9981  156.6757 H   0  0  0  0  0  0  0  0  0  0  0  0
  130.5354  128.5053  158.9445 H   0  0  0  0  0  0  0  0  0  0  0  0
  130.0397  130.3306  160.5109 H   0  0  0  0  0  0  0  0  0  0  0  0
  128.2806  134.3603  159.6312 H   0  0  0  0  0  0  0  0  0  0  0  0
  1  2  1  0
  2  5  1  0
  2  3  1  0
  2  4  1  0
  4  5  1  0
  4 35  1  0
  4 36  1  0
  5  6  1  1
  5  7  1  0
  7  8  1  0
  7 37  1  0
  7 38  1  0
  8  9  1  0
  8 39  1  0
  9 34  1  0
  9 10  2  0
 10 11  1  0
 10 40  1  0
 11 12  2  0
 11 41  1  0
 12 13  1  0
 12 21  1  0
 13 14  1  0
 13 42  1  0
 14 15  1  0
 14 43  1  0
 14 44  1  0
 15 20  1  0
 15 16  2  0
 16 17  1  0
 16 45  1  0
 17 18  2  0
 17 46  1  0
 18 19  1  0
 18 47  1  0
 19 20  2  0
 19 48  1  0
 20 49  1  0
 21 22  1  0
 21 34  2  0
 22 23  1  0
 22 50  1  0
 23 32  1  0
 23 24  2  0
 24 25  1  0
 24 26  1  0
 26 31  2  0
 26 27  1  0
 27 28  2  0
 27 51  1  0
 28 29  1  0
 28 52  1  0
 29 30  2  0
 29 53  1  0
 30 31  1  0
 30 54  1  0
 31 32  1  0
 32 33  1  0
 34 55  1  0
M  CHG  1  24   1
M  END
>  <DOCK_score>  (1) 
-53.185139

>  <SMILES>  (1) 
FC1(F)C[C@H]1CNc1ccc(NCc2ccccc2)c(Nc2[nH]c3ccccc3[nH+]2)c1

$$$$
