Cc1nocc1C[NH2+]Cc1c[nH]nc1-c1ccc(Nc2cncc(-c3ccc(CCl)cc3)n2)o1
     RDKit          3D

 57 61  0  0  0  0  0  0  0  0999 V2000
  131.7508  139.7063  158.6317 C   0  0  0  0  0  0  0  0  0  0  0  0
  133.1244  139.3887  159.1644 C   0  0  0  0  0  0  0  0  0  0  0  0
  134.2420  139.9691  158.8348 N   0  0  0  0  0  0  0  0  0  0  0  0
  135.1818  139.4964  159.4311 O   0  0  0  0  0  0  0  0  0  0  0  0
  134.7966  138.5166  160.2606 C   0  0  0  0  0  0  0  0  0  0  0  0
  133.4543  138.4011  160.1208 C   0  0  0  0  0  0  0  0  0  0  0  0
  132.5265  137.4457  160.8261 C   0  0  0  0  0  0  0  0  0  0  0  0
  132.4043  136.2113  160.0394 N   0  0  0  0  0  0  0  0  0  0  0  0
  133.3133  135.7849  159.9390 H   0  0  0  0  0  0  0  0  0  0  0  0
  132.0325  136.4294  159.1269 H   0  0  0  0  0  0  0  0  0  0  0  0
  131.4999  135.2800  160.7268 C   0  0  0  0  0  0  0  0  0  0  0  0
  131.3744  134.0136  159.9196 C   0  0  0  0  0  0  0  0  0  0  0  0
  132.3894  133.3318  159.3470 C   0  0  0  0  0  0  0  0  0  0  0  0
  131.8676  132.2609  158.7105 N   0  0  0  0  0  0  0  0  0  0  0  0
  132.3675  131.5974  158.2096 H   0  0  0  0  0  0  0  0  0  0  0  0
  130.4795  132.2742  158.8982 N   0  0  0  0  0  0  0  0  0  0  0  0
  130.1758  133.3281  159.6301 C   0  0  0  0  0  0  0  0  0  0  0  0
  128.8203  133.7242  160.0644 C   0  0  0  0  0  0  0  0  0  0  0  0
  127.6681  133.0603  159.7828 C   0  0  0  0  0  0  0  0  0  0  0  0
  126.6219  133.7829  160.3891 C   0  0  0  0  0  0  0  0  0  0  0  0
  127.1853  134.8496  161.0093 C   0  0  0  0  0  0  0  0  0  0  0  0
  126.5033  135.8230  161.7317 N   0  0  0  0  0  0  0  0  0  0  0  0
  127.1297  136.4684  162.7921 C   0  0  0  0  0  0  0  0  0  0  0  0
  126.4444  137.4398  163.5202 C   0  0  0  0  0  0  0  0  0  0  0  0
  127.0377  138.0537  164.5269 N   0  0  0  0  0  0  0  0  0  0  0  0
  128.2824  137.7505  164.8493 C   0  0  0  0  0  0  0  0  0  0  0  0
  128.9741  136.7810  164.1269 C   0  0  0  0  0  0  0  0  0  0  0  0
  130.3717  136.4406  164.4891 C   0  0  0  0  0  0  0  0  0  0  0  0
  130.6982  135.1411  164.8725 C   0  0  0  0  0  0  0  0  0  0  0  0
  132.0013  134.8288  165.2030 C   0  0  0  0  0  0  0  0  0  0  0  0
  132.9801  135.8054  165.1650 C   0  0  0  0  0  0  0  0  0  0  0  0
  134.4002  135.4594  165.5323 C   0  0  0  0  0  0  0  0  0  0  0  0
  134.6414  135.7104  167.3014 Cl  0  0  0  0  0  0  0  0  0  0  0  0
  132.6608  137.0981  164.7906 C   0  0  0  0  0  0  0  0  0  0  0  0
  131.3621  137.4204  164.4525 C   0  0  0  0  0  0  0  0  0  0  0  0
  128.3770  136.1566  163.1152 N   0  0  0  0  0  0  0  0  0  0  0  0
  128.5137  134.8073  160.8086 O   0  0  0  0  0  0  0  0  0  0  0  0
  131.2858  140.4683  159.2572 H   0  0  0  0  0  0  0  0  0  0  0  0
  131.8341  140.0762  157.6097 H   0  0  0  0  0  0  0  0  0  0  0  0
  131.1393  138.8042  158.6428 H   0  0  0  0  0  0  0  0  0  0  0  0
  135.4315  137.9332  160.9112 H   0  0  0  0  0  0  0  0  0  0  0  0
  131.5446  137.9063  160.9345 H   0  0  0  0  0  0  0  0  0  0  0  0
  132.9282  137.2102  161.8116 H   0  0  0  0  0  0  0  0  0  0  0  0
  130.5179  135.7406  160.8352 H   0  0  0  0  0  0  0  0  0  0  0  0
  131.9015  135.0443  161.7124 H   0  0  0  0  0  0  0  0  0  0  0  0
  133.4353  133.5983  159.3873 H   0  0  0  0  0  0  0  0  0  0  0  0
  127.5734  132.1507  159.2083 H   0  0  0  0  0  0  0  0  0  0  0  0
  125.5711  133.5347  160.3650 H   0  0  0  0  0  0  0  0  0  0  0  0
  125.5906  136.0515  161.4957 H   0  0  0  0  0  0  0  0  0  0  0  0
  125.4269  137.6908  163.2601 H   0  0  0  0  0  0  0  0  0  0  0  0
  128.7645  138.2550  165.6738 H   0  0  0  0  0  0  0  0  0  0  0  0
  129.9338  134.3790  164.9069 H   0  0  0  0  0  0  0  0  0  0  0  0
  132.2563  133.8211  165.4960 H   0  0  0  0  0  0  0  0  0  0  0  0
  134.5962  134.4165  165.2833 H   0  0  0  0  0  0  0  0  0  0  0  0
  135.0855  136.1005  164.9778 H   0  0  0  0  0  0  0  0  0  0  0  0
  133.4290  137.8568  164.7630 H   0  0  0  0  0  0  0  0  0  0  0  0
  131.1138  138.4300  164.1601 H   0  0  0  0  0  0  0  0  0  0  0  0
  1  2  1  0
  1 38  1  0
  1 39  1  0
  1 40  1  0
  2  6  1  0
  2  3  2  0
  3  4  1  0
  4  5  1  0
  5  6  2  0
  5 41  1  0
  6  7  1  0
  7  8  1  0
  7 42  1  0
  7 43  1  0
  8  9  1  0
  8 10  1  0
  8 11  1  0
 11 12  1  0
 11 44  1  0
 11 45  1  0
 12 17  1  0
 12 13  2  0
 13 14  1  0
 13 46  1  0
 14 15  1  0
 14 16  1  0
 16 17  2  0
 17 18  1  0
 18 37  1  0
 18 19  2  0
 19 20  1  0
 19 47  1  0
 20 21  2  0
 20 48  1  0
 21 22  1  0
 21 37  1  0
 22 23  1  0
 22 49  1  0
 23 36  1  0
 23 24  2  0
 24 25  1  0
 24 50  1  0
 25 26  2  0
 26 27  1  0
 26 51  1  0
 27 28  1  0
 27 36  2  0
 28 35  1  0
 28 29  2  0
 29 30  1  0
 29 52  1  0
 30 31  2  0
 30 53  1  0
 31 32  1  0
 31 34  1  0
 32 33  1  0
 32 54  1  0
 32 55  1  0
 34 35  2  0
 34 56  1  0
 35 57  1  0
M  CHG  1   8   1
M  END
>  <DOCK_score>  (1) 
-46.192497

>  <SMILES>  (1) 
Cc1nocc1C[NH2+]Cc1c[nH]nc1-c1ccc(Nc2cncc(-c3ccc(CCl)cc3)n2)o1

$$$$
