Nc1ccc(-c2c[nH]c(N[C@H](Cc3ccc(-c4ccccc4)cc3)c3ccccc3)[nH+]2)cc1
     RDKit          3D

 60 64  0  0  1  0  0  0  0  0999 V2000
  131.6978  129.9940  152.3167 N   0  0  0  0  0  0  0  0  0  0  0  0
  131.4058  130.6516  153.5141 C   0  0  0  0  0  0  0  0  0  0  0  0
  130.9701  131.9712  153.4928 C   0  0  0  0  0  0  0  0  0  0  0  0
  130.6818  132.6223  154.6735 C   0  0  0  0  0  0  0  0  0  0  0  0
  130.8273  131.9559  155.8893 C   0  0  0  0  0  0  0  0  0  0  0  0
  130.5182  132.6545  157.1611 C   0  0  0  0  0  0  0  0  0  0  0  0
  130.0560  132.0763  158.2971 C   0  0  0  0  0  0  0  0  0  0  0  0
  129.9077  133.0809  159.2238 N   0  0  0  0  0  0  0  0  0  0  0  0
  129.5928  132.9795  160.1357 H   0  0  0  0  0  0  0  0  0  0  0  0
  130.2841  134.2436  158.6255 C   0  0  0  0  0  0  0  0  0  0  0  0
  130.2826  135.4937  159.2202 N   0  0  0  0  0  0  0  0  0  0  0  0
  129.3110  135.8036  160.2718 C   0  0  2  0  0  0  0  0  0  0  0  0
  128.3441  135.3725  160.0116 H   0  0  0  0  0  0  0  0  0  0  0  0
  129.1727  137.3213  160.4073 C   0  0  0  0  0  0  0  0  0  0  0  0
  130.5092  137.9173  160.7670 C   0  0  0  0  0  0  0  0  0  0  0  0
  131.3770  138.3172  159.7668 C   0  0  0  0  0  0  0  0  0  0  0  0
  132.6026  138.8633  160.0906 C   0  0  0  0  0  0  0  0  0  0  0  0
  132.9650  139.0114  161.4277 C   0  0  0  0  0  0  0  0  0  0  0  0
  134.2815  139.5973  161.7819 C   0  0  0  0  0  0  0  0  0  0  0  0
  134.9246  139.2132  162.9568 C   0  0  0  0  0  0  0  0  0  0  0  0
  136.1487  139.7617  163.2817 C   0  0  0  0  0  0  0  0  0  0  0  0
  136.7372  140.6912  162.4432 C   0  0  0  0  0  0  0  0  0  0  0  0
  136.1008  141.0802  161.2783 C   0  0  0  0  0  0  0  0  0  0  0  0
  134.8790  140.5341  160.9411 C   0  0  0  0  0  0  0  0  0  0  0  0
  132.0891  138.6020  162.4312 C   0  0  0  0  0  0  0  0  0  0  0  0
  130.8640  138.0621  162.0960 C   0  0  0  0  0  0  0  0  0  0  0  0
  129.7840  135.2234  161.5797 C   0  0  0  0  0  0  0  0  0  0  0  0
  128.8644  134.8277  162.5331 C   0  0  0  0  0  0  0  0  0  0  0  0
  129.2983  134.2913  163.7311 C   0  0  0  0  0  0  0  0  0  0  0  0
  130.6517  134.1592  163.9792 C   0  0  0  0  0  0  0  0  0  0  0  0
  131.5713  134.5598  163.0280 C   0  0  0  0  0  0  0  0  0  0  0  0
  131.1373  135.0921  161.8283 C   0  0  0  0  0  0  0  0  0  0  0  0
  130.6428  133.9855  157.3914 N   0  0  0  0  0  0  0  0  0  0  0  0
  130.9503  134.6414  156.7464 H   0  0  0  0  0  0  0  0  0  0  0  0
  131.2690  130.6339  155.9085 C   0  0  0  0  0  0  0  0  0  0  0  0
  131.5512  129.9850  154.7250 C   0  0  0  0  0  0  0  0  0  0  0  0
  131.5964  130.4585  151.4711 H   0  0  0  0  0  0  0  0  0  0  0  0
  132.0019  129.0731  152.3306 H   0  0  0  0  0  0  0  0  0  0  0  0
  130.8575  132.4871  152.5506 H   0  0  0  0  0  0  0  0  0  0  0  0
  130.3432  133.6478  154.6565 H   0  0  0  0  0  0  0  0  0  0  0  0
  129.8444  131.0277  158.4453 H   0  0  0  0  0  0  0  0  0  0  0  0
  130.9252  136.1646  158.9406 H   0  0  0  0  0  0  0  0  0  0  0  0
  128.4497  137.5519  161.1897 H   0  0  0  0  0  0  0  0  0  0  0  0
  128.8305  137.7409  159.4613 H   0  0  0  0  0  0  0  0  0  0  0  0
  131.0952  138.2015  158.7307 H   0  0  0  0  0  0  0  0  0  0  0  0
  133.2796  139.1748  159.3088 H   0  0  0  0  0  0  0  0  0  0  0  0
  134.4657  138.4877  163.6123 H   0  0  0  0  0  0  0  0  0  0  0  0
  136.6482  139.4644  164.1919 H   0  0  0  0  0  0  0  0  0  0  0  0
  137.6950  141.1182  162.7015 H   0  0  0  0  0  0  0  0  0  0  0  0
  136.5630  141.8093  160.6293 H   0  0  0  0  0  0  0  0  0  0  0  0
  134.3848  140.8356  160.0294 H   0  0  0  0  0  0  0  0  0  0  0  0
  132.3667  138.7108  163.4692 H   0  0  0  0  0  0  0  0  0  0  0  0
  130.1825  137.7483  162.8730 H   0  0  0  0  0  0  0  0  0  0  0  0
  127.8071  134.9344  162.3405 H   0  0  0  0  0  0  0  0  0  0  0  0
  128.5798  133.9782  164.4741 H   0  0  0  0  0  0  0  0  0  0  0  0
  130.9906  133.7427  164.9164 H   0  0  0  0  0  0  0  0  0  0  0  0
  132.6286  134.4565  163.2220 H   0  0  0  0  0  0  0  0  0  0  0  0
  131.8558  135.4051  161.0852 H   0  0  0  0  0  0  0  0  0  0  0  0
  131.3863  130.1169  156.8495 H   0  0  0  0  0  0  0  0  0  0  0  0
  131.8895  128.9595  154.7393 H   0  0  0  0  0  0  0  0  0  0  0  0
  1  2  1  0
  1 37  1  0
  1 38  1  0
  2 36  2  0
  2  3  1  0
  3  4  2  0
  3 39  1  0
  4  5  1  0
  4 40  1  0
  5  6  1  0
  5 35  2  0
  6 33  1  0
  6  7  2  0
  7  8  1  0
  7 41  1  0
  8  9  1  0
  8 10  1  0
 10 11  1  0
 10 33  2  0
 11 12  1  0
 11 42  1  0
 12 13  1  6
 12 14  1  0
 12 27  1  0
 14 15  1  0
 14 43  1  0
 14 44  1  0
 15 26  1  0
 15 16  2  0
 16 17  1  0
 16 45  1  0
 17 18  2  0
 17 46  1  0
 18 19  1  0
 18 25  1  0
 19 24  1  0
 19 20  2  0
 20 21  1  0
 20 47  1  0
 21 22  2  0
 21 48  1  0
 22 23  1  0
 22 49  1  0
 23 24  2  0
 23 50  1  0
 24 51  1  0
 25 26  2  0
 25 52  1  0
 26 53  1  0
 27 32  1  0
 27 28  2  0
 28 29  1  0
 28 54  1  0
 29 30  2  0
 29 55  1  0
 30 31  1  0
 30 56  1  0
 31 32  2  0
 31 57  1  0
 32 58  1  0
 33 34  1  0
 35 36  1  0
 35 59  1  0
 36 60  1  0
M  CHG  1  33   1
M  END
>  <DOCK_score>  (1) 
-62.472275

>  <SMILES>  (1) 
Nc1ccc(-c2c[nH]c(N[C@H](Cc3ccc(-c4ccccc4)cc3)c3ccccc3)[nH+]2)cc1

$$$$
