CCc1ccc(-c2c[nH]c(N[C@@H](Cc3ccc(C)cc3)c3ccccc3C3CC3)[nH+]2)cc1
     RDKit          3D

 64 68  0  0  1  0  0  0  0  0999 V2000
  130.2999  128.5723  151.3316 C   0  0  0  0  0  0  0  0  0  0  0  0
  131.3795  129.6104  151.6439 C   0  0  0  0  0  0  0  0  0  0  0  0
  131.0616  130.2881  152.9518 C   0  0  0  0  0  0  0  0  0  0  0  0
  131.5492  129.7645  154.1352 C   0  0  0  0  0  0  0  0  0  0  0  0
  131.2661  130.3840  155.3355 C   0  0  0  0  0  0  0  0  0  0  0  0
  130.4776  131.5331  155.3546 C   0  0  0  0  0  0  0  0  0  0  0  0
  130.1653  132.2003  156.6421 C   0  0  0  0  0  0  0  0  0  0  0  0
  129.5152  131.6421  157.6932 C   0  0  0  0  0  0  0  0  0  0  0  0
  129.4405  132.6032  158.6718 N   0  0  0  0  0  0  0  0  0  0  0  0
  129.0304  132.5033  159.5451 H   0  0  0  0  0  0  0  0  0  0  0  0
  130.0477  133.7217  158.1897 C   0  0  0  0  0  0  0  0  0  0  0  0
  130.1863  134.9202  158.8685 N   0  0  0  0  0  0  0  0  0  0  0  0
  129.1815  135.3236  159.8553 C   0  0  1  0  0  0  0  0  0  0  0  0
  129.1300  134.5767  160.6475 H   0  0  0  0  0  0  0  0  0  0  0  0
  129.5696  136.6768  160.4546 C   0  0  0  0  0  0  0  0  0  0  0  0
  130.6228  136.4739  161.5131 C   0  0  0  0  0  0  0  0  0  0  0  0
  131.9617  136.5021  161.1704 C   0  0  0  0  0  0  0  0  0  0  0  0
  132.9279  136.3204  162.1422 C   0  0  0  0  0  0  0  0  0  0  0  0
  132.5550  136.1010  163.4551 C   0  0  0  0  0  0  0  0  0  0  0  0
  133.6082  135.8982  164.5138 C   0  0  0  0  0  0  0  0  0  0  0  0
  131.2159  136.0681  163.7970 C   0  0  0  0  0  0  0  0  0  0  0  0
  130.2498  136.2541  162.8260 C   0  0  0  0  0  0  0  0  0  0  0  0
  127.8367  135.4383  159.1849 C   0  0  0  0  0  0  0  0  0  0  0  0
  127.7575  135.7914  157.8504 C   0  0  0  0  0  0  0  0  0  0  0  0
  126.5240  135.8960  157.2355 C   0  0  0  0  0  0  0  0  0  0  0  0
  125.3697  135.6481  157.9547 C   0  0  0  0  0  0  0  0  0  0  0  0
  125.4489  135.2948  159.2885 C   0  0  0  0  0  0  0  0  0  0  0  0
  126.6828  135.1848  159.9024 C   0  0  0  0  0  0  0  0  0  0  0  0
  126.7696  134.7939  161.3552 C   0  0  0  0  0  0  0  0  0  0  0  0
  125.5258  135.0082  162.2200 C   0  0  0  0  0  0  0  0  0  0  0  0
  126.7443  135.9185  162.3922 C   0  0  0  0  0  0  0  0  0  0  0  0
  130.4846  133.4752  156.9787 N   0  0  0  0  0  0  0  0  0  0  0  0
  130.9585  134.1045  156.4128 H   0  0  0  0  0  0  0  0  0  0  0  0
  129.9841  132.0533  154.1595 C   0  0  0  0  0  0  0  0  0  0  0  0
  130.2784  131.4287  152.9645 C   0  0  0  0  0  0  0  0  0  0  0  0
  129.3308  129.0659  151.2591 H   0  0  0  0  0  0  0  0  0  0  0  0
  130.5297  128.0823  150.3856 H   0  0  0  0  0  0  0  0  0  0  0  0
  130.2702  127.8288  152.1281 H   0  0  0  0  0  0  0  0  0  0  0  0
  132.3483  129.1173  151.7159 H   0  0  0  0  0  0  0  0  0  0  0  0
  131.4089  130.3545  150.8469 H   0  0  0  0  0  0  0  0  0  0  0  0
  132.1561  128.8713  154.1196 H   0  0  0  0  0  0  0  0  0  0  0  0
  131.6512  129.9768  156.2587 H   0  0  0  0  0  0  0  0  0  0  0  0
  129.1297  130.6348  157.7499 H   0  0  0  0  0  0  0  0  0  0  0  0
  130.9488  135.4929  158.6908 H   0  0  0  0  0  0  0  0  0  0  0  0
  129.9630  137.3224  159.6694 H   0  0  0  0  0  0  0  0  0  0  0  0
  128.6906  137.1419  160.9010 H   0  0  0  0  0  0  0  0  0  0  0  0
  132.2530  136.6695  160.1440 H   0  0  0  0  0  0  0  0  0  0  0  0
  133.9740  136.3466  161.8752 H   0  0  0  0  0  0  0  0  0  0  0  0
  133.8424  134.8366  164.5945 H   0  0  0  0  0  0  0  0  0  0  0  0
  134.5081  136.4492  164.2411 H   0  0  0  0  0  0  0  0  0  0  0  0
  133.2355  136.2619  165.4714 H   0  0  0  0  0  0  0  0  0  0  0  0
  130.9245  135.8966  164.8227 H   0  0  0  0  0  0  0  0  0  0  0  0
  129.2037  136.2279  163.0930 H   0  0  0  0  0  0  0  0  0  0  0  0
  128.6592  135.9851  157.2886 H   0  0  0  0  0  0  0  0  0  0  0  0
  126.4622  136.1720  156.1931 H   0  0  0  0  0  0  0  0  0  0  0  0
  124.4059  135.7304  157.4742 H   0  0  0  0  0  0  0  0  0  0  0  0
  124.5471  135.1007  159.8503 H   0  0  0  0  0  0  0  0  0  0  0  0
  127.3892  133.9236  161.5716 H   0  0  0  0  0  0  0  0  0  0  0  0
  124.6447  135.4319  161.7379 H   0  0  0  0  0  0  0  0  0  0  0  0
  125.3273  134.2792  163.0055 H   0  0  0  0  0  0  0  0  0  0  0  0
  127.3468  135.7880  163.2911 H   0  0  0  0  0  0  0  0  0  0  0  0
  126.6648  136.9413  162.0235 H   0  0  0  0  0  0  0  0  0  0  0  0
  129.3725  132.9435  154.1684 H   0  0  0  0  0  0  0  0  0  0  0  0
  129.8963  131.8308  152.0378 H   0  0  0  0  0  0  0  0  0  0  0  0
  1  2  1  0
  1 36  1  0
  1 37  1  0
  1 38  1  0
  2  3  1  0
  2 39  1  0
  2 40  1  0
  3 35  2  0
  3  4  1  0
  4  5  2  0
  4 41  1  0
  5  6  1  0
  5 42  1  0
  6  7  1  0
  6 34  2  0
  7 32  1  0
  7  8  2  0
  8  9  1  0
  8 43  1  0
  9 10  1  0
  9 11  1  0
 11 12  1  0
 11 32  2  0
 12 13  1  0
 12 44  1  0
 13 14  1  1
 13 15  1  0
 13 23  1  0
 15 16  1  0
 15 45  1  0
 15 46  1  0
 16 22  1  0
 16 17  2  0
 17 18  1  0
 17 47  1  0
 18 19  2  0
 18 48  1  0
 19 20  1  0
 19 21  1  0
 20 49  1  0
 20 50  1  0
 20 51  1  0
 21 22  2  0
 21 52  1  0
 22 53  1  0
 23 28  1  0
 23 24  2  0
 24 25  1  0
 24 54  1  0
 25 26  2  0
 25 55  1  0
 26 27  1  0
 26 56  1  0
 27 28  2  0
 27 57  1  0
 28 29  1  0
 29 31  1  0
 29 30  1  0
 29 58  1  0
 30 31  1  0
 30 59  1  0
 30 60  1  0
 31 61  1  0
 31 62  1  0
 32 33  1  0
 34 35  1  0
 34 63  1  0
 35 64  1  0
M  CHG  1  32   1
M  END
>  <DOCK_score>  (1) 
-65.018974

>  <SMILES>  (1) 
CCc1ccc(-c2c[nH]c(N[C@@H](Cc3ccc(C)cc3)c3ccccc3C3CC3)[nH+]2)cc1

$$$$
