O=C1CC[C@H](NC(NC2CC2)=[NH+][C@@H](CO)Cc2ccccc2Cl)CN1
     RDKit          3D

 51 53  0  0  1  0  0  0  0  0999 V2000
  123.6574  133.9501  161.7224 O   0  0  0  0  0  0  0  0  0  0  0  0
  124.8207  134.1613  161.4518 C   0  0  0  0  0  0  0  0  0  0  0  0
  125.6470  133.0212  160.9295 C   0  0  0  0  0  0  0  0  0  0  0  0
  127.1349  133.3545  161.0636 C   0  0  0  0  0  0  0  0  0  0  0  0
  127.3709  134.7574  160.4913 C   0  0  2  0  0  0  0  0  0  0  0  0
  126.9531  134.8175  159.4864 H   0  0  0  0  0  0  0  0  0  0  0  0
  128.8088  135.0346  160.4467 N   0  0  0  0  0  0  0  0  0  0  0  0
  129.5374  134.7076  159.3276 C   0  0  0  0  0  0  0  0  0  0  0  0
  128.9167  134.1206  158.2505 N   0  0  0  0  0  0  0  0  0  0  0  0
  129.6931  133.7721  157.0580 C   0  0  0  0  0  0  0  0  0  0  0  0
  129.5634  132.3446  156.5226 C   0  0  0  0  0  0  0  0  0  0  0  0
  130.8478  132.7832  157.2308 C   0  0  0  0  0  0  0  0  0  0  0  0
  130.8167  134.9543  159.2878 N   0  0  0  0  0  0  0  0  0  0  0  0
  131.2475  135.1463  158.4403 H   0  0  0  0  0  0  0  0  0  0  0  0
  131.6039  134.9413  160.5233 C   0  0  1  0  0  0  0  0  0  0  0  0
  131.2125  135.6906  161.2113 H   0  0  0  0  0  0  0  0  0  0  0  0
  131.5140  133.5580  161.1708 C   0  0  0  0  0  0  0  0  0  0  0  0
  130.1491  133.2610  161.4725 O   0  0  0  0  0  0  0  0  0  0  0  0
  133.0653  135.2592  160.2001 C   0  0  0  0  0  0  0  0  0  0  0  0
  133.7657  135.7265  161.4500 C   0  0  0  0  0  0  0  0  0  0  0  0
  134.3840  134.8100  162.2797 C   0  0  0  0  0  0  0  0  0  0  0  0
  135.0306  135.2390  163.4235 C   0  0  0  0  0  0  0  0  0  0  0  0
  135.0504  136.5838  163.7441 C   0  0  0  0  0  0  0  0  0  0  0  0
  134.4281  137.5005  162.9180 C   0  0  0  0  0  0  0  0  0  0  0  0
  133.7851  137.0723  161.7700 C   0  0  0  0  0  0  0  0  0  0  0  0
  133.0037  138.2232  160.7317 Cl  0  0  0  0  0  0  0  0  0  0  0  0
  126.6795  135.7781  161.3963 C   0  0  0  0  0  0  0  0  0  0  0  0
  125.2944  135.3924  161.6349 N   0  0  0  0  0  0  0  0  0  0  0  0
  125.4072  132.8514  159.8798 H   0  0  0  0  0  0  0  0  0  0  0  0
  125.4246  132.1208  161.5020 H   0  0  0  0  0  0  0  0  0  0  0  0
  127.4223  133.3338  162.1149 H   0  0  0  0  0  0  0  0  0  0  0  0
  127.7256  132.6270  160.5069 H   0  0  0  0  0  0  0  0  0  0  0  0
  129.2468  135.4488  161.2067 H   0  0  0  0  0  0  0  0  0  0  0  0
  127.9647  133.9371  158.2800 H   0  0  0  0  0  0  0  0  0  0  0  0
  129.8211  134.5730  156.3298 H   0  0  0  0  0  0  0  0  0  0  0  0
  128.9004  131.6648  157.0577 H   0  0  0  0  0  0  0  0  0  0  0  0
  129.6065  132.2064  155.4423 H   0  0  0  0  0  0  0  0  0  0  0  0
  131.7352  132.9333  156.6160 H   0  0  0  0  0  0  0  0  0  0  0  0
  131.0299  132.3922  158.2318 H   0  0  0  0  0  0  0  0  0  0  0  0
  131.9053  132.8086  160.4826 H   0  0  0  0  0  0  0  0  0  0  0  0
  132.0997  133.5483  162.0900 H   0  0  0  0  0  0  0  0  0  0  0  0
  129.5683  133.2524  160.6994 H   0  0  0  0  0  0  0  0  0  0  0  0
  133.5569  134.3632  159.8215 H   0  0  0  0  0  0  0  0  0  0  0  0
  133.1080  136.0438  159.4447 H   0  0  0  0  0  0  0  0  0  0  0  0
  134.3653  133.7589  162.0321 H   0  0  0  0  0  0  0  0  0  0  0  0
  135.5168  134.5230  164.0695 H   0  0  0  0  0  0  0  0  0  0  0  0
  135.5526  136.9180  164.6399 H   0  0  0  0  0  0  0  0  0  0  0  0
  134.4438  138.5510  163.1684 H   0  0  0  0  0  0  0  0  0  0  0  0
  127.2078  135.8315  162.3482 H   0  0  0  0  0  0  0  0  0  0  0  0
  126.7005  136.7568  160.9172 H   0  0  0  0  0  0  0  0  0  0  0  0
  124.6796  136.0752  161.9461 H   0  0  0  0  0  0  0  0  0  0  0  0
  1  2  2  0
  2 28  1  0
  2  3  1  0
  3  4  1  0
  3 29  1  0
  3 30  1  0
  4  5  1  0
  4 31  1  0
  4 32  1  0
  5  6  1  6
  5  7  1  0
  5 27  1  0
  7 33  1  0
  8  7  1  0
  8  9  1  0
  8 13  2  0
  9 10  1  0
  9 34  1  0
 10 12  1  0
 10 11  1  0
 10 35  1  0
 11 12  1  0
 11 36  1  0
 11 37  1  0
 12 38  1  0
 12 39  1  0
 13 14  1  0
 13 15  1  0
 15 16  1  1
 15 17  1  0
 15 19  1  0
 17 18  1  0
 17 40  1  0
 17 41  1  0
 18 42  1  0
 19 20  1  0
 19 43  1  0
 19 44  1  0
 20 25  1  0
 20 21  2  0
 21 22  1  0
 21 45  1  0
 22 23  2  0
 22 46  1  0
 23 24  1  0
 23 47  1  0
 24 25  2  0
 24 48  1  0
 25 26  1  0
 27 28  1  0
 27 49  1  0
 27 50  1  0
 28 51  1  0
M  CHG  1  13   1
M  END
>  <DOCK_score>  (1) 
-50.492954

>  <SMILES>  (1) 
O=C1CC[C@H](NC(NC2CC2)=[NH+][C@@H](CO)Cc2ccccc2Cl)CN1

$$$$
