Nc1ccccc1[C@@H](c1ccccc1)[NH+]1CCN(c2cccc3cc[nH]c23)CC1
     RDKit          3D

 56 60  0  0  1  0  0  0  0  0999 V2000
  127.6562  133.7010  160.8626 N   0  0  0  0  0  0  0  0  0  0  0  0
  127.6578  134.5454  159.7499 C   0  0  0  0  0  0  0  0  0  0  0  0
  126.4603  134.8893  159.1352 C   0  0  0  0  0  0  0  0  0  0  0  0
  126.4654  135.7245  158.0357 C   0  0  0  0  0  0  0  0  0  0  0  0
  127.6608  136.2186  157.5462 C   0  0  0  0  0  0  0  0  0  0  0  0
  128.8541  135.8826  158.1588 C   0  0  0  0  0  0  0  0  0  0  0  0
  128.8564  135.0434  159.2559 C   0  0  0  0  0  0  0  0  0  0  0  0
  130.1578  134.6735  159.9197 C   0  0  1  0  0  0  0  0  0  0  0  0
  129.9868  134.4974  160.9818 H   0  0  0  0  0  0  0  0  0  0  0  0
  130.7076  133.4221  159.2851 C   0  0  0  0  0  0  0  0  0  0  0  0
  130.4370  133.1436  157.9584 C   0  0  0  0  0  0  0  0  0  0  0  0
  130.9445  131.9977  157.3753 C   0  0  0  0  0  0  0  0  0  0  0  0
  131.7155  131.1258  158.1212 C   0  0  0  0  0  0  0  0  0  0  0  0
  131.9821  131.4018  159.4492 C   0  0  0  0  0  0  0  0  0  0  0  0
  131.4778  132.5497  160.0312 C   0  0  0  0  0  0  0  0  0  0  0  0
  131.1211  135.7702  159.7542 N   0  0  0  0  0  0  0  0  0  0  0  0
  131.2792  135.9329  158.7710 H   0  0  0  0  0  0  0  0  0  0  0  0
  130.5845  136.9900  160.3720 C   0  0  0  0  0  0  0  0  0  0  0  0
  131.5792  138.1375  160.1834 C   0  0  0  0  0  0  0  0  0  0  0  0
  132.8619  137.7771  160.8037 N   0  0  0  0  0  0  0  0  0  0  0  0
  133.7815  138.8252  160.6985 C   0  0  0  0  0  0  0  0  0  0  0  0
  134.1615  139.2949  159.4531 C   0  0  0  0  0  0  0  0  0  0  0  0
  135.0680  140.3392  159.3392 C   0  0  0  0  0  0  0  0  0  0  0  0
  135.6112  140.9130  160.4538 C   0  0  0  0  0  0  0  0  0  0  0  0
  135.2483  140.4518  161.7224 C   0  0  0  0  0  0  0  0  0  0  0  0
  135.6244  140.8273  163.0872 C   0  0  0  0  0  0  0  0  0  0  0  0
  134.9432  140.0223  163.9184 C   0  0  0  0  0  0  0  0  0  0  0  0
  134.1619  139.1624  163.1974 N   0  0  0  0  0  0  0  0  0  0  0  0
  133.5789  138.4867  163.5775 H   0  0  0  0  0  0  0  0  0  0  0  0
  134.3259  139.3997  161.8493 C   0  0  0  0  0  0  0  0  0  0  0  0
  133.3993  136.5435  160.2124 C   0  0  0  0  0  0  0  0  0  0  0  0
  132.3896  135.4092  160.4007 C   0  0  0  0  0  0  0  0  0  0  0  0
  128.4929  133.4620  161.2912 H   0  0  0  0  0  0  0  0  0  0  0  0
  126.8183  133.3539  161.2068 H   0  0  0  0  0  0  0  0  0  0  0  0
  125.5264  134.5041  159.5171 H   0  0  0  0  0  0  0  0  0  0  0  0
  125.5349  135.9926  157.5575 H   0  0  0  0  0  0  0  0  0  0  0  0
  127.6621  136.8715  156.6859 H   0  0  0  0  0  0  0  0  0  0  0  0
  129.7855  136.2737  157.7768 H   0  0  0  0  0  0  0  0  0  0  0  0
  129.8316  133.8229  157.3767 H   0  0  0  0  0  0  0  0  0  0  0  0
  130.7359  131.7818  156.3378 H   0  0  0  0  0  0  0  0  0  0  0  0
  132.1093  130.2288  157.6664 H   0  0  0  0  0  0  0  0  0  0  0  0
  132.5842  130.7204  160.0320 H   0  0  0  0  0  0  0  0  0  0  0  0
  131.6858  132.7653  161.0689 H   0  0  0  0  0  0  0  0  0  0  0  0
  129.6367  137.2496  159.9001 H   0  0  0  0  0  0  0  0  0  0  0  0
  130.4255  136.8185  161.4365 H   0  0  0  0  0  0  0  0  0  0  0  0
  131.7281  138.3185  159.1189 H   0  0  0  0  0  0  0  0  0  0  0  0
  131.1880  139.0391  160.6547 H   0  0  0  0  0  0  0  0  0  0  0  0
  133.7448  138.8482  158.5626 H   0  0  0  0  0  0  0  0  0  0  0  0
  135.3506  140.6981  158.3606 H   0  0  0  0  0  0  0  0  0  0  0  0
  136.3199  141.7220  160.3549 H   0  0  0  0  0  0  0  0  0  0  0  0
  136.3188  141.6042  163.3713 H   0  0  0  0  0  0  0  0  0  0  0  0
  135.0038  140.0495  164.9963 H   0  0  0  0  0  0  0  0  0  0  0  0
  134.3359  136.2821  160.7049 H   0  0  0  0  0  0  0  0  0  0  0  0
  133.5785  136.6979  159.1484 H   0  0  0  0  0  0  0  0  0  0  0  0
  132.2212  135.2456  161.4651 H   0  0  0  0  0  0  0  0  0  0  0  0
  132.7801  134.4966  159.9502 H   0  0  0  0  0  0  0  0  0  0  0  0
  1  2  1  0
  1 33  1  0
  1 34  1  0
  2  7  2  0
  2  3  1  0
  3  4  2  0
  3 35  1  0
  4  5  1  0
  4 36  1  0
  5  6  2  0
  5 37  1  0
  6  7  1  0
  6 38  1  0
  7  8  1  0
  8  9  1  1
  8 10  1  0
  8 16  1  0
 10 15  1  0
 10 11  2  0
 11 12  1  0
 11 39  1  0
 12 13  2  0
 12 40  1  0
 13 14  1  0
 13 41  1  0
 14 15  2  0
 14 42  1  0
 15 43  1  0
 16 17  1  0
 16 32  1  0
 16 18  1  0
 18 19  1  0
 18 44  1  0
 18 45  1  0
 19 20  1  0
 19 46  1  0
 19 47  1  0
 20 21  1  0
 20 31  1  0
 21 30  1  0
 21 22  2  0
 22 23  1  0
 22 48  1  0
 23 24  2  0
 23 49  1  0
 24 25  1  0
 24 50  1  0
 25 30  2  0
 25 26  1  0
 26 27  2  0
 26 51  1  0
 27 28  1  0
 27 52  1  0
 28 29  1  0
 28 30  1  0
 31 32  1  0
 31 53  1  0
 31 54  1  0
 32 55  1  0
 32 56  1  0
M  CHG  1  16   1
M  END
>  <DOCK_score>  (1) 
-56.222355

>  <SMILES>  (1) 
Nc1ccccc1[C@@H](c1ccccc1)[NH+]1CCN(c2cccc3cc[nH]c23)CC1

$$$$
