[NH3+][C@H](C(=O)Nc1cccc(O)c1)c1cccc(NCc2ccccc2)c1
     RDKit          3D

 48 50  0  0  1  0  0  0  0  0999 V2000
  129.8388  134.8690  157.4188 N   0  0  0  0  0  0  0  0  0  0  0  0
  129.3716  134.2149  156.8087 H   0  0  0  0  0  0  0  0  0  0  0  0
  129.2906  135.7130  157.4899 H   0  0  0  0  0  0  0  0  0  0  0  0
  130.7485  135.0893  157.0422 H   0  0  0  0  0  0  0  0  0  0  0  0
  129.9923  134.2710  158.7517 C   0  0  2  0  0  0  0  0  0  0  0  0
  130.5845  133.3591  158.6750 H   0  0  0  0  0  0  0  0  0  0  0  0
  128.6336  133.9419  159.3143 C   0  0  0  0  0  0  0  0  0  0  0  0
  127.6701  134.6093  159.0023 O   0  0  0  0  0  0  0  0  0  0  0  0
  128.4890  132.9056  160.1639 N   0  0  0  0  0  0  0  0  0  0  0  0
  127.2274  132.5999  160.6860 C   0  0  0  0  0  0  0  0  0  0  0  0
  126.9095  131.2877  161.0138 C   0  0  0  0  0  0  0  0  0  0  0  0
  125.6641  130.9860  161.5292 C   0  0  0  0  0  0  0  0  0  0  0  0
  124.7328  131.9885  161.7246 C   0  0  0  0  0  0  0  0  0  0  0  0
  125.0428  133.3000  161.3937 C   0  0  0  0  0  0  0  0  0  0  0  0
  124.1243  134.2838  161.5815 O   0  0  0  0  0  0  0  0  0  0  0  0
  126.2918  133.6068  160.8766 C   0  0  0  0  0  0  0  0  0  0  0  0
  130.6901  135.2478  159.6631 C   0  0  0  0  0  0  0  0  0  0  0  0
  130.1232  136.4841  159.9142 C   0  0  0  0  0  0  0  0  0  0  0  0
  130.7598  137.3830  160.7500 C   0  0  0  0  0  0  0  0  0  0  0  0
  131.9645  137.0488  161.3370 C   0  0  0  0  0  0  0  0  0  0  0  0
  132.5364  135.8081  161.0870 C   0  0  0  0  0  0  0  0  0  0  0  0
  133.7548  135.4669  161.6786 N   0  0  0  0  0  0  0  0  0  0  0  0
  134.4310  136.4184  162.5641 C   0  0  0  0  0  0  0  0  0  0  0  0
  135.7154  135.8112  163.0668 C   0  0  0  0  0  0  0  0  0  0  0  0
  136.7936  136.6234  163.3648 C   0  0  0  0  0  0  0  0  0  0  0  0
  137.9702  136.0669  163.8305 C   0  0  0  0  0  0  0  0  0  0  0  0
  138.0720  134.6974  163.9883 C   0  0  0  0  0  0  0  0  0  0  0  0
  136.9956  133.8848  163.6853 C   0  0  0  0  0  0  0  0  0  0  0  0
  135.8173  134.4417  163.2246 C   0  0  0  0  0  0  0  0  0  0  0  0
  131.8916  134.9051  160.2509 C   0  0  0  0  0  0  0  0  0  0  0  0
  129.2595  132.3718  160.4134 H   0  0  0  0  0  0  0  0  0  0  0  0
  127.6369  130.5032  160.8659 H   0  0  0  0  0  0  0  0  0  0  0  0
  125.4189  129.9655  161.7837 H   0  0  0  0  0  0  0  0  0  0  0  0
  123.7612  131.7502  162.1316 H   0  0  0  0  0  0  0  0  0  0  0  0
  124.4313  135.1634  161.3219 H   0  0  0  0  0  0  0  0  0  0  0  0
  126.5363  134.6276  160.6223 H   0  0  0  0  0  0  0  0  0  0  0  0
  129.1811  136.7478  159.4567 H   0  0  0  0  0  0  0  0  0  0  0  0
  130.3143  138.3475  160.9442 H   0  0  0  0  0  0  0  0  0  0  0  0
  132.4610  137.7513  161.9901 H   0  0  0  0  0  0  0  0  0  0  0  0
  134.1533  134.6002  161.5033 H   0  0  0  0  0  0  0  0  0  0  0  0
  134.6525  137.3327  162.0136 H   0  0  0  0  0  0  0  0  0  0  0  0
  133.7837  136.6511  163.4096 H   0  0  0  0  0  0  0  0  0  0  0  0
  136.7155  137.6931  163.2372 H   0  0  0  0  0  0  0  0  0  0  0  0
  138.8114  136.7018  164.0669 H   0  0  0  0  0  0  0  0  0  0  0  0
  138.9927  134.2622  164.3479 H   0  0  0  0  0  0  0  0  0  0  0  0
  137.0752  132.8148  163.8082 H   0  0  0  0  0  0  0  0  0  0  0  0
  134.9763  133.8068  162.9875 H   0  0  0  0  0  0  0  0  0  0  0  0
  132.3317  133.9380  160.0575 H   0  0  0  0  0  0  0  0  0  0  0  0
  1  2  1  0
  1  3  1  0
  1  4  1  0
  1  5  1  0
  5  6  1  6
  5  7  1  0
  5 17  1  0
  7  8  2  0
  7  9  1  0
  9 10  1  0
  9 31  1  0
 10 16  1  0
 10 11  2  0
 11 12  1  0
 11 32  1  0
 12 13  2  0
 12 33  1  0
 13 14  1  0
 13 34  1  0
 14 15  1  0
 14 16  2  0
 15 35  1  0
 16 36  1  0
 17 30  1  0
 17 18  2  0
 18 19  1  0
 18 37  1  0
 19 20  2  0
 19 38  1  0
 20 21  1  0
 20 39  1  0
 21 22  1  0
 21 30  2  0
 22 23  1  0
 22 40  1  0
 23 24  1  0
 23 41  1  0
 23 42  1  0
 24 29  1  0
 24 25  2  0
 25 26  1  0
 25 43  1  0
 26 27  2  0
 26 44  1  0
 27 28  1  0
 27 45  1  0
 28 29  2  0
 28 46  1  0
 29 47  1  0
 30 48  1  0
M  CHG  1   1   1
M  END
>  <DOCK_score>  (1) 
-46.49136

>  <SMILES>  (1) 
[NH3+][C@H](C(=O)Nc1cccc(O)c1)c1cccc(NCc2ccccc2)c1

$$$$
