CC=CN(C[C@H](Nc1[nH]cc(-c2ccc(N)cc2)[nH+]1)c1cccs1)c1cc(-c2cccs2)ncn1
     RDKit          3D

 61 65  0  0  1  0  0  0  0  0999 V2000
  131.3812  139.5866  158.4617 C   0  0  0  0  0  0  0  0  0  0  0  0
  130.8288  138.4871  159.3318 C   0  0  0  0  0  0  0  0  0  0  0  0
  131.4173  138.1923  160.4758 C   0  0  0  0  0  0  0  0  0  0  0  0
  130.9781  137.1057  161.2237 N   0  0  0  0  0  0  0  0  0  0  0  0
  129.5725  136.6970  161.1663 C   0  0  0  0  0  0  0  0  0  0  0  0
  129.4802  135.2576  160.6559 C   0  0  2  0  0  0  0  0  0  0  0  0
  130.0234  134.5970  161.3317 H   0  0  0  0  0  0  0  0  0  0  0  0
  130.0676  135.1760  159.3163 N   0  0  0  0  0  0  0  0  0  0  0  0
  130.0985  133.9646  158.6468 C   0  0  0  0  0  0  0  0  0  0  0  0
  129.6191  132.7835  159.1228 N   0  0  0  0  0  0  0  0  0  0  0  0
  129.1977  132.6398  159.9846 H   0  0  0  0  0  0  0  0  0  0  0  0
  129.8428  131.8312  158.1567 C   0  0  0  0  0  0  0  0  0  0  0  0
  130.4464  132.4594  157.1177 C   0  0  0  0  0  0  0  0  0  0  0  0
  130.8725  131.8284  155.8445 C   0  0  0  0  0  0  0  0  0  0  0  0
  130.8844  132.5731  154.6661 C   0  0  0  0  0  0  0  0  0  0  0  0
  131.2863  131.9861  153.4848 C   0  0  0  0  0  0  0  0  0  0  0  0
  131.6681  130.6502  153.4662 C   0  0  0  0  0  0  0  0  0  0  0  0
  132.0691  130.0563  152.2670 N   0  0  0  0  0  0  0  0  0  0  0  0
  131.6516  129.9040  154.6389 C   0  0  0  0  0  0  0  0  0  0  0  0
  131.2560  130.4884  155.8236 C   0  0  0  0  0  0  0  0  0  0  0  0
  130.5951  133.7662  157.4500 N   0  0  0  0  0  0  0  0  0  0  0  0
  131.0006  134.4463  156.8896 H   0  0  0  0  0  0  0  0  0  0  0  0
  128.0342  134.8372  160.5969 C   0  0  0  0  0  0  0  0  0  0  0  0
  127.0900  135.4309  159.8652 C   0  0  0  0  0  0  0  0  0  0  0  0
  125.8306  134.8659  159.9685 C   0  0  0  0  0  0  0  0  0  0  0  0
  125.7501  133.8190  160.7914 C   0  0  0  0  0  0  0  0  0  0  0  0
  127.3318  133.4936  161.4883 S   0  0  0  0  0  0  0  0  0  0  0  0
  131.8711  136.4083  162.0244 C   0  0  0  0  0  0  0  0  0  0  0  0
  133.2081  136.7916  162.0909 C   0  0  0  0  0  0  0  0  0  0  0  0
  134.0651  136.0564  162.9122 C   0  0  0  0  0  0  0  0  0  0  0  0
  135.4920  136.4172  163.0210 C   0  0  0  0  0  0  0  0  0  0  0  0
  136.4010  135.7789  163.7874 C   0  0  0  0  0  0  0  0  0  0  0  0
  137.6755  136.2979  163.7223 C   0  0  0  0  0  0  0  0  0  0  0  0
  137.8155  137.3581  162.9188 C   0  0  0  0  0  0  0  0  0  0  0  0
  136.2697  137.7504  162.1776 S   0  0  0  0  0  0  0  0  0  0  0  0
  133.5725  135.0206  163.5979 N   0  0  0  0  0  0  0  0  0  0  0  0
  132.3011  134.6934  163.5050 C   0  0  0  0  0  0  0  0  0  0  0  0
  131.4606  135.3663  162.7446 N   0  0  0  0  0  0  0  0  0  0  0  0
  131.3702  140.5267  159.0133 H   0  0  0  0  0  0  0  0  0  0  0  0
  132.4049  139.3446  158.1764 H   0  0  0  0  0  0  0  0  0  0  0  0
  130.7677  139.6839  157.5659 H   0  0  0  0  0  0  0  0  0  0  0  0
  129.9514  137.9404  159.0192 H   0  0  0  0  0  0  0  0  0  0  0  0
  132.2399  138.7952  160.8311 H   0  0  0  0  0  0  0  0  0  0  0  0
  129.0294  137.3577  160.4906 H   0  0  0  0  0  0  0  0  0  0  0  0
  129.1354  136.7578  162.1631 H   0  0  0  0  0  0  0  0  0  0  0  0
  130.4348  135.9706  158.8985 H   0  0  0  0  0  0  0  0  0  0  0  0
  129.5830  130.7843  158.2126 H   0  0  0  0  0  0  0  0  0  0  0  0
  130.5831  133.6101  154.6791 H   0  0  0  0  0  0  0  0  0  0  0  0
  131.2999  132.5640  152.5724 H   0  0  0  0  0  0  0  0  0  0  0  0
  132.3353  129.1231  152.2534 H   0  0  0  0  0  0  0  0  0  0  0  0
  132.0801  130.5754  151.4483 H   0  0  0  0  0  0  0  0  0  0  0  0
  131.9488  128.8658  154.6222 H   0  0  0  0  0  0  0  0  0  0  0  0
  131.2436  129.9084  156.7345 H   0  0  0  0  0  0  0  0  0  0  0  0
  127.2935  136.2860  159.2376 H   0  0  0  0  0  0  0  0  0  0  0  0
  124.9771  135.2463  159.4272 H   0  0  0  0  0  0  0  0  0  0  0  0
  124.8511  133.2573  160.9979 H   0  0  0  0  0  0  0  0  0  0  0  0
  133.5721  137.6348  161.5230 H   0  0  0  0  0  0  0  0  0  0  0  0
  136.1497  134.9264  164.4010 H   0  0  0  0  0  0  0  0  0  0  0  0
  138.5001  135.8819  164.2821 H   0  0  0  0  0  0  0  0  0  0  0  0
  138.7389  137.8924  162.7503 H   0  0  0  0  0  0  0  0  0  0  0  0
  131.9344  133.8508  164.0722 H   0  0  0  0  0  0  0  0  0  0  0  0
  1  2  1  0
  1 39  1  0
  1 40  1  0
  1 41  1  0
  2  3  2  0
  2 42  1  0
  3  4  1  0
  3 43  1  0
  4  5  1  0
  4 28  1  0
  5  6  1  0
  5 44  1  0
  5 45  1  0
  6  7  1  1
  6  8  1  0
  6 23  1  0
  8 46  1  0
  9  8  1  0
  9 21  2  0
  9 10  1  0
 10 11  1  0
 10 12  1  0
 12 13  2  0
 12 47  1  0
 13 14  1  0
 13 21  1  0
 14 20  1  0
 14 15  2  0
 15 16  1  0
 15 48  1  0
 16 17  2  0
 16 49  1  0
 17 18  1  0
 17 19  1  0
 18 50  1  0
 18 51  1  0
 19 20  2  0
 19 52  1  0
 20 53  1  0
 21 22  1  0
 23 27  1  0
 23 24  2  0
 24 25  1  0
 24 54  1  0
 25 26  2  0
 25 55  1  0
 26 27  1  0
 26 56  1  0
 28 38  1  0
 28 29  2  0
 29 30  1  0
 29 57  1  0
 30 31  1  0
 30 36  2  0
 31 35  1  0
 31 32  2  0
 32 33  1  0
 32 58  1  0
 33 34  2  0
 33 59  1  0
 34 35  1  0
 34 60  1  0
 36 37  1  0
 37 38  2  0
 37 61  1  0
M  CHG  1  21   1
M  END
>  <DOCK_score>  (1) 
-62.496941

>  <SMILES>  (1) 
CC=CN(C[C@H](Nc1[nH]cc(-c2ccc(N)cc2)[nH+]1)c1cccs1)c1cc(-c2cccs2)ncn1

$$$$
