c1ccc(-c2c[nH]c(N[C@H](c3ccccc3)c3cccnc3)[nH+]2)cc1
     RDKit          3D

 44 47  0  0  1  0  0  0  0  0999 V2000
  131.3863  130.3950  153.1208 C   0  0  0  0  0  0  0  0  0  0  0  0
  130.5931  131.5275  153.0811 C   0  0  0  0  0  0  0  0  0  0  0  0
  130.2268  132.1582  154.2526 C   0  0  0  0  0  0  0  0  0  0  0  0
  130.6581  131.6522  155.4776 C   0  0  0  0  0  0  0  0  0  0  0  0
  130.2675  132.3256  156.7402 C   0  0  0  0  0  0  0  0  0  0  0  0
  129.5599  131.7703  157.7550 C   0  0  0  0  0  0  0  0  0  0  0  0
  129.4274  132.7355  158.7235 N   0  0  0  0  0  0  0  0  0  0  0  0
  128.9715  132.6372  159.5740 H   0  0  0  0  0  0  0  0  0  0  0  0
  130.0515  133.8559  158.2683 C   0  0  0  0  0  0  0  0  0  0  0  0
  130.1447  135.0591  158.9466 N   0  0  0  0  0  0  0  0  0  0  0  0
  129.0853  135.4600  159.8757 C   0  0  2  0  0  0  0  0  0  0  0  0
  128.9967  134.7171  160.6683 H   0  0  0  0  0  0  0  0  0  0  0  0
  127.7777  135.5608  159.1333 C   0  0  0  0  0  0  0  0  0  0  0  0
  126.5887  135.3025  159.7895 C   0  0  0  0  0  0  0  0  0  0  0  0
  125.3890  135.3992  159.1095 C   0  0  0  0  0  0  0  0  0  0  0  0
  125.3788  135.7447  157.7712 C   0  0  0  0  0  0  0  0  0  0  0  0
  126.5683  135.9984  157.1138 C   0  0  0  0  0  0  0  0  0  0  0  0
  127.7677  135.9060  157.7948 C   0  0  0  0  0  0  0  0  0  0  0  0
  129.4255  136.7989  160.4779 C   0  0  0  0  0  0  0  0  0  0  0  0
  128.9949  137.1239  161.7555 C   0  0  0  0  0  0  0  0  0  0  0  0
  129.3266  138.3691  162.2665 C   0  0  0  0  0  0  0  0  0  0  0  0
  130.0704  139.2390  161.4916 C   0  0  0  0  0  0  0  0  0  0  0  0
  130.4629  138.8960  160.2804 N   0  0  0  0  0  0  0  0  0  0  0  0
  130.1655  137.7204  159.7620 C   0  0  0  0  0  0  0  0  0  0  0  0
  130.5549  133.6061  157.0841 N   0  0  0  0  0  0  0  0  0  0  0  0
  131.0534  134.2362  156.5406 H   0  0  0  0  0  0  0  0  0  0  0  0
  131.4622  130.5143  155.5114 C   0  0  0  0  0  0  0  0  0  0  0  0
  131.8172  129.8883  154.3338 C   0  0  0  0  0  0  0  0  0  0  0  0
  131.6699  129.9048  152.2012 H   0  0  0  0  0  0  0  0  0  0  0  0
  130.2595  131.9187  152.1312 H   0  0  0  0  0  0  0  0  0  0  0  0
  129.6069  133.0420  154.2202 H   0  0  0  0  0  0  0  0  0  0  0  0
  129.1770  130.7612  157.7956 H   0  0  0  0  0  0  0  0  0  0  0  0
  130.9114  135.6367  158.8067 H   0  0  0  0  0  0  0  0  0  0  0  0
  126.5969  135.0284  160.8340 H   0  0  0  0  0  0  0  0  0  0  0  0
  124.4598  135.2013  159.6232 H   0  0  0  0  0  0  0  0  0  0  0  0
  124.4418  135.8170  157.2391 H   0  0  0  0  0  0  0  0  0  0  0  0
  126.5603  136.2684  156.0682 H   0  0  0  0  0  0  0  0  0  0  0  0
  128.6969  136.1039  157.2811 H   0  0  0  0  0  0  0  0  0  0  0  0
  128.4150  136.4238  162.3383 H   0  0  0  0  0  0  0  0  0  0  0  0
  129.0078  138.6561  163.2577 H   0  0  0  0  0  0  0  0  0  0  0  0
  130.3336  140.2106  161.8827 H   0  0  0  0  0  0  0  0  0  0  0  0
  130.5046  137.4748  158.7663 H   0  0  0  0  0  0  0  0  0  0  0  0
  131.8032  130.1206  156.4575 H   0  0  0  0  0  0  0  0  0  0  0  0
  132.4365  129.0037  154.3591 H   0  0  0  0  0  0  0  0  0  0  0  0
  1 28  2  0
  1  2  1  0
  1 29  1  0
  2  3  2  0
  2 30  1  0
  3  4  1  0
  3 31  1  0
  4  5  1  0
  4 27  2  0
  5 25  1  0
  5  6  2  0
  6  7  1  0
  6 32  1  0
  7  8  1  0
  7  9  1  0
  9 10  1  0
  9 25  2  0
 10 11  1  0
 10 33  1  0
 11 12  1  1
 11 13  1  0
 11 19  1  0
 13 18  1  0
 13 14  2  0
 14 15  1  0
 14 34  1  0
 15 16  2  0
 15 35  1  0
 16 17  1  0
 16 36  1  0
 17 18  2  0
 17 37  1  0
 18 38  1  0
 19 24  1  0
 19 20  2  0
 20 21  1  0
 20 39  1  0
 21 22  2  0
 21 40  1  0
 22 23  1  0
 22 41  1  0
 23 24  2  0
 24 42  1  0
 25 26  1  0
 27 28  1  0
 27 43  1  0
 28 44  1  0
M  CHG  1  25   1
M  END
>  <DOCK_score>  (1) 
-60.969296

>  <SMILES>  (1) 
c1ccc(-c2c[nH]c(N[C@H](c3ccccc3)c3cccnc3)[nH+]2)cc1

$$$$
