CC1=CCC(O)(C[C@H](Nc2[nH]cc(-c3ccc(N)cc3)[nH+]2)C2CCC2)CC1
     RDKit          3D

 58 61  0  0  1  0  0  0  0  0999 V2000
  135.7121  135.1667  163.3428 C   0  0  0  0  0  0  0  0  0  0  0  0
  134.4018  135.5515  162.7056 C   0  0  0  0  0  0  0  0  0  0  0  0
  134.3626  136.6420  162.0092 C   0  0  0  0  0  0  0  0  0  0  0  0
  133.1309  137.1591  161.3255 C   0  0  0  0  0  0  0  0  0  0  0  0
  132.0876  136.0462  161.2061 C   0  0  2  0  0  0  0  0  0  0  0  0
  132.5225  135.0747  160.2527 O   0  0  0  0  0  0  0  0  0  0  0  0
  130.7500  136.6408  160.7609 C   0  0  0  0  0  0  0  0  0  0  0  0
  129.8725  135.5360  160.1691 C   0  0  2  0  0  0  0  0  0  0  0  0
  129.9820  134.6281  160.7623 H   0  0  0  0  0  0  0  0  0  0  0  0
  130.2862  135.2704  158.7891 N   0  0  0  0  0  0  0  0  0  0  0  0
  130.1343  134.0032  158.2526 C   0  0  0  0  0  0  0  0  0  0  0  0
  129.6113  132.9262  158.8993 N   0  0  0  0  0  0  0  0  0  0  0  0
  129.2811  132.9081  159.8112 H   0  0  0  0  0  0  0  0  0  0  0  0
  129.6377  131.8685  158.0214 C   0  0  0  0  0  0  0  0  0  0  0  0
  130.1756  132.3302  156.8656 C   0  0  0  0  0  0  0  0  0  0  0  0
  130.4010  131.5396  155.6307 C   0  0  0  0  0  0  0  0  0  0  0  0
  129.7785  131.9119  154.4402 C   0  0  0  0  0  0  0  0  0  0  0  0
  129.9941  131.1789  153.2922 C   0  0  0  0  0  0  0  0  0  0  0  0
  130.8223  130.0630  153.3242 C   0  0  0  0  0  0  0  0  0  0  0  0
  131.0351  129.3186  152.1613 N   0  0  0  0  0  0  0  0  0  0  0  0
  131.4393  129.6868  154.5112 C   0  0  0  0  0  0  0  0  0  0  0  0
  131.2312  130.4202  155.6602 C   0  0  0  0  0  0  0  0  0  0  0  0
  130.4655  133.6444  157.0361 N   0  0  0  0  0  0  0  0  0  0  0  0
  130.8574  134.2254  156.3655 H   0  0  0  0  0  0  0  0  0  0  0  0
  128.4093  135.9828  160.1859 C   0  0  0  0  0  0  0  0  0  0  0  0
  127.8575  136.2322  161.5994 C   0  0  0  0  0  0  0  0  0  0  0  0
  126.5545  135.5660  161.1212 C   0  0  0  0  0  0  0  0  0  0  0  0
  127.4087  134.8195  160.0830 C   0  0  0  0  0  0  0  0  0  0  0  0
  131.9255  135.3838  162.5801 C   0  0  0  0  0  0  0  0  0  0  0  0
  133.2233  134.6469  162.9182 C   0  0  0  0  0  0  0  0  0  0  0  0
  136.2824  134.5442  162.6534 H   0  0  0  0  0  0  0  0  0  0  0  0
  136.2811  136.0666  163.5754 H   0  0  0  0  0  0  0  0  0  0  0  0
  135.5202  134.6107  164.2605 H   0  0  0  0  0  0  0  0  0  0  0  0
  135.2730  137.2153  161.9147 H   0  0  0  0  0  0  0  0  0  0  0  0
  133.3935  137.5166  160.3298 H   0  0  0  0  0  0  0  0  0  0  0  0
  132.7161  137.9825  161.9072 H   0  0  0  0  0  0  0  0  0  0  0  0
  132.6452  135.4268  159.3605 H   0  0  0  0  0  0  0  0  0  0  0  0
  130.2459  137.0845  161.6194 H   0  0  0  0  0  0  0  0  0  0  0  0
  130.9264  137.4077  160.0068 H   0  0  0  0  0  0  0  0  0  0  0  0
  130.6666  135.9823  158.2512 H   0  0  0  0  0  0  0  0  0  0  0  0
  129.2955  130.8626  158.2153 H   0  0  0  0  0  0  0  0  0  0  0  0
  129.1312  132.7760  154.4160 H   0  0  0  0  0  0  0  0  0  0  0  0
  129.5154  131.4693  152.3688 H   0  0  0  0  0  0  0  0  0  0  0  0
  131.6131  128.5404  152.1824 H   0  0  0  0  0  0  0  0  0  0  0  0
  130.6046  129.5810  151.3322 H   0  0  0  0  0  0  0  0  0  0  0  0
  132.0822  128.8193  154.5338 H   0  0  0  0  0  0  0  0  0  0  0  0
  131.7112  130.1276  156.5825 H   0  0  0  0  0  0  0  0  0  0  0  0
  128.2070  136.7957  159.4886 H   0  0  0  0  0  0  0  0  0  0  0  0
  128.3759  135.6697  162.3760 H   0  0  0  0  0  0  0  0  0  0  0  0
  127.7447  137.2883  161.8442 H   0  0  0  0  0  0  0  0  0  0  0  0
  125.8443  136.2657  160.6806 H   0  0  0  0  0  0  0  0  0  0  0  0
  126.0983  134.9110  161.8635 H   0  0  0  0  0  0  0  0  0  0  0  0
  126.9342  134.7370  159.1051 H   0  0  0  0  0  0  0  0  0  0  0  0
  127.8042  133.8702  160.4442 H   0  0  0  0  0  0  0  0  0  0  0  0
  131.0987  134.6742  162.5495 H   0  0  0  0  0  0  0  0  0  0  0  0
  131.7282  136.1438  163.3360 H   0  0  0  0  0  0  0  0  0  0  0  0
  133.1965  134.3273  163.9600 H   0  0  0  0  0  0  0  0  0  0  0  0
  133.3194  133.7713  162.2763 H   0  0  0  0  0  0  0  0  0  0  0  0
  1  2  1  0
  1 31  1  0
  1 32  1  0
  1 33  1  0
  2 30  1  0
  2  3  2  0
  3  4  1  0
  3 34  1  0
  4  5  1  0
  4 35  1  0
  4 36  1  0
  5  6  1  6
  5  7  1  0
  5 29  1  0
  6 37  1  0
  7  8  1  0
  7 38  1  0
  7 39  1  0
  8  9  1  1
  8 10  1  0
  8 25  1  0
 10 40  1  0
 11 10  1  0
 11 23  2  0
 11 12  1  0
 12 13  1  0
 12 14  1  0
 14 15  2  0
 14 41  1  0
 15 16  1  0
 15 23  1  0
 16 22  1  0
 16 17  2  0
 17 18  1  0
 17 42  1  0
 18 19  2  0
 18 43  1  0
 19 20  1  0
 19 21  1  0
 20 44  1  0
 20 45  1  0
 21 22  2  0
 21 46  1  0
 22 47  1  0
 23 24  1  0
 25 28  1  0
 25 26  1  0
 25 48  1  0
 26 27  1  0
 26 49  1  0
 26 50  1  0
 27 28  1  0
 27 51  1  0
 27 52  1  0
 28 53  1  0
 28 54  1  0
 29 30  1  0
 29 55  1  0
 29 56  1  0
 30 57  1  0
 30 58  1  0
M  CHG  1  23   1
M  END
>  <DOCK_score>  (1) 
-60.393116

>  <SMILES>  (1) 
CC1=CCC(O)(C[C@H](Nc2[nH]cc(-c3ccc(N)cc3)[nH+]2)C2CCC2)CC1

$$$$
