OC[C@H](NC1CC[NH+]2CCCCC2C1)c1cccs1
     RDKit          3D

 44 46  0  0  1  0  0  0  0  0999 V2000
  126.0286  135.8458  161.3839 O   0  0  0  0  0  0  0  0  0  0  0  0
  126.9910  135.1416  162.1712 C   0  0  0  0  0  0  0  0  0  0  0  0
  127.5308  133.9527  161.3735 C   0  0  2  0  0  0  0  0  0  0  0  0
  128.4837  133.6343  161.7960 H   0  0  0  0  0  0  0  0  0  0  0  0
  127.7246  134.3504  159.9727 N   0  0  0  0  0  0  0  0  0  0  0  0
  128.9796  135.0954  159.8058 C   0  0  2  0  0  0  0  0  0  0  0  0
  128.9337  135.8937  158.4986 C   0  0  0  0  0  0  0  0  0  0  0  0
  128.8017  134.9184  157.3293 C   0  0  0  0  0  0  0  0  0  0  0  0
  129.9568  134.0089  157.2951 N   0  0  2  0  0  0  0  0  0  0  0  0
  130.8062  134.5470  157.2117 H   0  0  0  0  0  0  0  0  0  0  0  0
  129.8128  133.1354  156.1209 C   0  0  0  0  0  0  0  0  0  0  0  0
  131.0234  132.2098  156.0014 C   0  0  0  0  0  0  0  0  0  0  0  0
  131.1092  131.3426  157.2617 C   0  0  0  0  0  0  0  0  0  0  0  0
  131.2106  132.2602  158.4815 C   0  0  0  0  0  0  0  0  0  0  0  0
  130.0053  133.2056  158.5206 C   0  0  1  0  0  0  0  0  0  0  0  0
  130.1555  134.1190  159.7418 C   0  0  0  0  0  0  0  0  0  0  0  0
  126.5461  132.8139  161.4408 C   0  0  0  0  0  0  0  0  0  0  0  0
  126.7033  131.6259  160.8553 C   0  0  0  0  0  0  0  0  0  0  0  0
  125.6651  130.7332  161.0592 C   0  0  0  0  0  0  0  0  0  0  0  0
  124.6607  131.1995  161.8029 C   0  0  0  0  0  0  0  0  0  0  0  0
  125.0102  132.8510  162.2973 S   0  0  0  0  0  0  0  0  0  0  0  0
  125.6434  136.6137  161.8277 H   0  0  0  0  0  0  0  0  0  0  0  0
  126.5192  134.7816  163.0854 H   0  0  0  0  0  0  0  0  0  0  0  0
  127.8124  135.8114  162.4256 H   0  0  0  0  0  0  0  0  0  0  0  0
  126.9385  134.8864  159.6369 H   0  0  0  0  0  0  0  0  0  0  0  0
  129.1151  135.7766  160.6458 H   0  0  0  0  0  0  0  0  0  0  0  0
  128.0763  136.5666  158.5115 H   0  0  0  0  0  0  0  0  0  0  0  0
  129.8509  136.4729  158.3919 H   0  0  0  0  0  0  0  0  0  0  0  0
  127.8874  134.3367  157.4455 H   0  0  0  0  0  0  0  0  0  0  0  0
  128.7550  135.4783  156.3953 H   0  0  0  0  0  0  0  0  0  0  0  0
  128.9086  132.5358  156.2254 H   0  0  0  0  0  0  0  0  0  0  0  0
  129.7361  133.7475  155.2223 H   0  0  0  0  0  0  0  0  0  0  0  0
  130.9097  131.5711  155.1256 H   0  0  0  0  0  0  0  0  0  0  0  0
  131.9308  132.8060  155.9057 H   0  0  0  0  0  0  0  0  0  0  0  0
  130.2148  130.7247  157.3422 H   0  0  0  0  0  0  0  0  0  0  0  0
  131.9925  130.7063  157.2083 H   0  0  0  0  0  0  0  0  0  0  0  0
  131.2272  131.6564  159.3888 H   0  0  0  0  0  0  0  0  0  0  0  0
  132.1277  132.8459  158.4192 H   0  0  0  0  0  0  0  0  0  0  0  0
  129.0885  132.6230  158.6104 H   0  0  0  0  0  0  0  0  0  0  0  0
  131.0874  134.6788  159.6633 H   0  0  0  0  0  0  0  0  0  0  0  0
  130.1730  133.5130  160.6477 H   0  0  0  0  0  0  0  0  0  0  0  0
  127.5755  131.3781  160.2686 H   0  0  0  0  0  0  0  0  0  0  0  0
  125.6664  129.7361  160.6444 H   0  0  0  0  0  0  0  0  0  0  0  0
  123.7693  130.6475  162.0622 H   0  0  0  0  0  0  0  0  0  0  0  0
  1  2  1  0
  1 22  1  0
  2  3  1  0
  2 23  1  0
  2 24  1  0
  3  4  1  1
  3  5  1  0
  3 17  1  0
  5  6  1  0
  5 25  1  0
  6 16  1  0
  6  7  1  0
  6 26  1  1
  7  8  1  0
  7 27  1  0
  7 28  1  0
  8  9  1  0
  8 29  1  0
  8 30  1  0
  9 10  1  6
  9 15  1  0
  9 11  1  0
 11 12  1  0
 11 31  1  0
 11 32  1  0
 12 13  1  0
 12 33  1  0
 12 34  1  0
 13 14  1  0
 13 35  1  0
 13 36  1  0
 14 15  1  0
 14 37  1  0
 14 38  1  0
 15 16  1  0
 15 39  1  1
 16 40  1  0
 16 41  1  0
 17 21  1  0
 17 18  2  0
 18 19  1  0
 18 42  1  0
 19 20  2  0
 19 43  1  0
 20 21  1  0
 20 44  1  0
M  CHG  1   9   1
M  END
>  <DOCK_score>  (1) 
-41.258926

>  <SMILES>  (1) 
OC[C@H](NC1CC[NH+]2CCCCC2C1)c1cccs1

$$$$
