Nc1ccc(Nc2[nH]cc(-c3ccc(F)cc3)[nH+]2)c(-c2ccccc2-c2cccnc2)c1
     RDKit          3D

 53 57  0  0  1  0  0  0  0  0999 V2000
  127.1932  137.4573  163.3292 N   0  0  0  0  0  0  0  0  0  0  0  0
  127.8207  137.0798  162.1364 C   0  0  0  0  0  0  0  0  0  0  0  0
  127.0619  136.5981  161.0758 C   0  0  0  0  0  0  0  0  0  0  0  0
  127.6738  136.2246  159.8954 C   0  0  0  0  0  0  0  0  0  0  0  0
  129.0503  136.3324  159.7601 C   0  0  0  0  0  0  0  0  0  0  0  0
  129.6679  135.9589  158.5627 N   0  0  0  0  0  0  0  0  0  0  0  0
  129.5507  134.6590  158.0993 C   0  0  0  0  0  0  0  0  0  0  0  0
  128.8605  133.6581  158.7114 N   0  0  0  0  0  0  0  0  0  0  0  0
  128.3668  133.7260  159.5435 H   0  0  0  0  0  0  0  0  0  0  0  0
  128.9928  132.5338  157.9332 C   0  0  0  0  0  0  0  0  0  0  0  0
  129.7594  132.8796  156.8691 C   0  0  0  0  0  0  0  0  0  0  0  0
  130.1679  131.9836  155.7596 C   0  0  0  0  0  0  0  0  0  0  0  0
  129.7979  132.2803  154.4490 C   0  0  0  0  0  0  0  0  0  0  0  0
  130.1843  131.4467  153.4197 C   0  0  0  0  0  0  0  0  0  0  0  0
  130.9294  130.3106  153.6880 C   0  0  0  0  0  0  0  0  0  0  0  0
  131.3009  129.4937  152.6782 F   0  0  0  0  0  0  0  0  0  0  0  0
  131.2955  130.0086  154.9903 C   0  0  0  0  0  0  0  0  0  0  0  0
  130.9181  130.8393  156.0253 C   0  0  0  0  0  0  0  0  0  0  0  0
  130.0817  134.1908  156.9958 N   0  0  0  0  0  0  0  0  0  0  0  0
  130.6208  134.7004  156.3708 H   0  0  0  0  0  0  0  0  0  0  0  0
  129.8202  136.8118  160.8267 C   0  0  0  0  0  0  0  0  0  0  0  0
  131.2910  136.9249  160.6903 C   0  0  0  0  0  0  0  0  0  0  0  0
  132.0586  135.7938  160.4231 C   0  0  0  0  0  0  0  0  0  0  0  0
  133.4285  135.9038  160.2970 C   0  0  0  0  0  0  0  0  0  0  0  0
  134.0478  137.1347  160.4348 C   0  0  0  0  0  0  0  0  0  0  0  0
  133.3024  138.2655  160.7001 C   0  0  0  0  0  0  0  0  0  0  0  0
  131.9192  138.1728  160.8302 C   0  0  0  0  0  0  0  0  0  0  0  0
  131.1145  139.3847  161.1151 C   0  0  0  0  0  0  0  0  0  0  0  0
  130.1149  139.7985  160.2291 C   0  0  0  0  0  0  0  0  0  0  0  0
  129.3917  140.9364  160.5409 C   0  0  0  0  0  0  0  0  0  0  0  0
  129.6780  141.6217  161.7079 C   0  0  0  0  0  0  0  0  0  0  0  0
  130.6272  141.2075  162.5244 N   0  0  0  0  0  0  0  0  0  0  0  0
  131.3377  140.1270  162.2736 C   0  0  0  0  0  0  0  0  0  0  0  0
  129.1970  137.1875  162.0149 C   0  0  0  0  0  0  0  0  0  0  0  0
  127.7215  137.7937  164.0697 H   0  0  0  0  0  0  0  0  0  0  0  0
  126.2299  137.3823  163.4152 H   0  0  0  0  0  0  0  0  0  0  0  0
  125.9896  136.5160  161.1751 H   0  0  0  0  0  0  0  0  0  0  0  0
  127.0790  135.8518  159.0746 H   0  0  0  0  0  0  0  0  0  0  0  0
  130.1783  136.6101  158.0566 H   0  0  0  0  0  0  0  0  0  0  0  0
  128.5675  131.5609  158.1305 H   0  0  0  0  0  0  0  0  0  0  0  0
  129.2131  133.1638  154.2391 H   0  0  0  0  0  0  0  0  0  0  0  0
  129.9015  131.6781  152.4034 H   0  0  0  0  0  0  0  0  0  0  0  0
  131.8769  129.1218  155.1952 H   0  0  0  0  0  0  0  0  0  0  0  0
  131.2040  130.6036  157.0397 H   0  0  0  0  0  0  0  0  0  0  0  0
  131.5819  134.8308  160.3139 H   0  0  0  0  0  0  0  0  0  0  0  0
  134.0208  135.0250  160.0890 H   0  0  0  0  0  0  0  0  0  0  0  0
  135.1200  137.2109  160.3296 H   0  0  0  0  0  0  0  0  0  0  0  0
  133.7918  139.2222  160.8065 H   0  0  0  0  0  0  0  0  0  0  0  0
  129.9127  139.2444  159.3244 H   0  0  0  0  0  0  0  0  0  0  0  0
  128.6120  141.2856  159.8802 H   0  0  0  0  0  0  0  0  0  0  0  0
  129.1155  142.5102  161.9541 H   0  0  0  0  0  0  0  0  0  0  0  0
  132.1035  139.8164  162.9689 H   0  0  0  0  0  0  0  0  0  0  0  0
  129.7854  137.5615  162.8397 H   0  0  0  0  0  0  0  0  0  0  0  0
  1  2  1  0
  1 35  1  0
  1 36  1  0
  2 34  2  0
  2  3  1  0
  3  4  2  0
  3 37  1  0
  4  5  1  0
  4 38  1  0
  5  6  1  0
  5 21  2  0
  6 39  1  0
  7  6  1  0
  7 19  2  0
  7  8  1  0
  8  9  1  0
  8 10  1  0
 10 11  2  0
 10 40  1  0
 11 12  1  0
 11 19  1  0
 12 18  1  0
 12 13  2  0
 13 14  1  0
 13 41  1  0
 14 15  2  0
 14 42  1  0
 15 16  1  0
 15 17  1  0
 17 18  2  0
 17 43  1  0
 18 44  1  0
 19 20  1  0
 21 22  1  0
 21 34  1  0
 22 27  1  0
 22 23  2  0
 23 24  1  0
 23 45  1  0
 24 25  2  0
 24 46  1  0
 25 26  1  0
 25 47  1  0
 26 27  2  0
 26 48  1  0
 27 28  1  0
 28 33  1  0
 28 29  2  0
 29 30  1  0
 29 49  1  0
 30 31  2  0
 30 50  1  0
 31 32  1  0
 31 51  1  0
 32 33  2  0
 33 52  1  0
 34 53  1  0
M  CHG  1  19   1
M  END
>  <DOCK_score>  (1) 
-52.708221

>  <SMILES>  (1) 
Nc1ccc(Nc2[nH]cc(-c3ccc(F)cc3)[nH+]2)c(-c2ccccc2-c2cccnc2)c1

$$$$
