CC1=CCC=C([C@H](Nc2[nH]cc(-c3ccc(F)cc3)[nH+]2)c2ccccc2)C1
     RDKit          3D

 50 53  0  0  1  0  0  0  0  0999 V2000
  130.6937  140.0503  159.4630 C   0  0  0  0  0  0  0  0  0  0  0  0
  130.2488  138.8909  160.3168 C   0  0  0  0  0  0  0  0  0  0  0  0
  129.7917  139.1355  161.5069 C   0  0  0  0  0  0  0  0  0  0  0  0
  129.3236  138.0558  162.4357 C   0  0  0  0  0  0  0  0  0  0  0  0
  129.0051  136.7980  161.6852 C   0  0  0  0  0  0  0  0  0  0  0  0
  129.4666  136.5511  160.4971 C   0  0  0  0  0  0  0  0  0  0  0  0
  129.0891  135.2521  159.8327 C   0  0  2  0  0  0  0  0  0  0  0  0
  128.9290  134.4880  160.5934 H   0  0  0  0  0  0  0  0  0  0  0  0
  130.1685  134.8304  158.9364 N   0  0  0  0  0  0  0  0  0  0  0  0
  130.0477  133.6571  158.2116 C   0  0  0  0  0  0  0  0  0  0  0  0
  129.3495  132.5548  158.5985 N   0  0  0  0  0  0  0  0  0  0  0  0
  128.8489  132.4517  159.4228 H   0  0  0  0  0  0  0  0  0  0  0  0
  129.4799  131.6168  157.6027 C   0  0  0  0  0  0  0  0  0  0  0  0
  130.2532  132.1726  156.6375 C   0  0  0  0  0  0  0  0  0  0  0  0
  130.6629  131.5257  155.3669 C   0  0  0  0  0  0  0  0  0  0  0  0
  130.3006  132.0918  154.1458 C   0  0  0  0  0  0  0  0  0  0  0  0
  130.6884  131.4894  152.9666 C   0  0  0  0  0  0  0  0  0  0  0  0
  131.4269  130.3176  152.9949 C   0  0  0  0  0  0  0  0  0  0  0  0
  131.7997  129.7283  151.8378 F   0  0  0  0  0  0  0  0  0  0  0  0
  131.7848  129.7486  154.2064 C   0  0  0  0  0  0  0  0  0  0  0  0
  131.4063  130.3470  155.3905 C   0  0  0  0  0  0  0  0  0  0  0  0
  130.5862  133.4249  157.0394 N   0  0  0  0  0  0  0  0  0  0  0  0
  131.1346  134.0490  156.5389 H   0  0  0  0  0  0  0  0  0  0  0  0
  127.8227  135.4435  159.0387 C   0  0  0  0  0  0  0  0  0  0  0  0
  126.5943  135.2231  159.6331 C   0  0  0  0  0  0  0  0  0  0  0  0
  125.4324  135.4023  158.9057 C   0  0  0  0  0  0  0  0  0  0  0  0
  125.4993  135.7939  157.5817 C   0  0  0  0  0  0  0  0  0  0  0  0
  126.7279  136.0097  156.9860 C   0  0  0  0  0  0  0  0  0  0  0  0
  127.8895  135.8342  157.7143 C   0  0  0  0  0  0  0  0  0  0  0  0
  130.3536  137.5049  159.7551 C   0  0  0  0  0  0  0  0  0  0  0  0
  129.8507  140.4130  158.8747 H   0  0  0  0  0  0  0  0  0  0  0  0
  131.0621  140.8523  160.1027 H   0  0  0  0  0  0  0  0  0  0  0  0
  131.4901  139.7243  158.7940 H   0  0  0  0  0  0  0  0  0  0  0  0
  129.7464  140.1611  161.8423 H   0  0  0  0  0  0  0  0  0  0  0  0
  130.1046  137.8510  163.1679 H   0  0  0  0  0  0  0  0  0  0  0  0
  128.4279  138.3955  162.9558 H   0  0  0  0  0  0  0  0  0  0  0  0
  128.3676  136.0636  162.1548 H   0  0  0  0  0  0  0  0  0  0  0  0
  130.9677  135.3733  158.8507 H   0  0  0  0  0  0  0  0  0  0  0  0
  129.0488  130.6266  157.5910 H   0  0  0  0  0  0  0  0  0  0  0  0
  129.7209  133.0026  154.1228 H   0  0  0  0  0  0  0  0  0  0  0  0
  130.4120  131.9297  152.0199 H   0  0  0  0  0  0  0  0  0  0  0  0
  132.3606  128.8350  154.2237 H   0  0  0  0  0  0  0  0  0  0  0  0
  131.6860  129.9030  156.3346 H   0  0  0  0  0  0  0  0  0  0  0  0
  126.5422  134.9135  160.6664 H   0  0  0  0  0  0  0  0  0  0  0  0
  124.4726  135.2334  159.3710 H   0  0  0  0  0  0  0  0  0  0  0  0
  124.5917  135.9308  157.0125 H   0  0  0  0  0  0  0  0  0  0  0  0
  126.7802  136.3154  155.9514 H   0  0  0  0  0  0  0  0  0  0  0  0
  128.8494  136.0026  157.2488 H   0  0  0  0  0  0  0  0  0  0  0  0
  131.3867  137.1655  159.8318 H   0  0  0  0  0  0  0  0  0  0  0  0
  130.0611  137.5217  158.7052 H   0  0  0  0  0  0  0  0  0  0  0  0
  1  2  1  0
  1 31  1  0
  1 32  1  0
  1 33  1  0
  2 30  1  0
  2  3  2  0
  3  4  1  0
  3 34  1  0
  4  5  1  0
  4 35  1  0
  4 36  1  0
  5  6  2  0
  5 37  1  0
  6  7  1  0
  6 30  1  0
  7  8  1  1
  7  9  1  0
  7 24  1  0
  9 38  1  0
 10  9  1  0
 10 22  2  0
 10 11  1  0
 11 12  1  0
 11 13  1  0
 13 14  2  0
 13 39  1  0
 14 15  1  0
 14 22  1  0
 15 21  1  0
 15 16  2  0
 16 17  1  0
 16 40  1  0
 17 18  2  0
 17 41  1  0
 18 19  1  0
 18 20  1  0
 20 21  2  0
 20 42  1  0
 21 43  1  0
 22 23  1  0
 24 29  1  0
 24 25  2  0
 25 26  1  0
 25 44  1  0
 26 27  2  0
 26 45  1  0
 27 28  1  0
 27 46  1  0
 28 29  2  0
 28 47  1  0
 29 48  1  0
 30 49  1  0
 30 50  1  0
M  CHG  1  22   1
M  END
>  <DOCK_score>  (1) 
-60.069412

>  <SMILES>  (1) 
CC1=CCC=C([C@H](Nc2[nH]cc(-c3ccc(F)cc3)[nH+]2)c2ccccc2)C1

$$$$
