BrC1(Br)C[C@@H]1C[NH2+]Cc1c[nH]nc1-c1ccc(NC2CC23CCCC3)o1
     RDKit          3D

 51 55  0  0  1  0  0  0  0  0999 V2000
  132.6812  140.5417  161.8834 Br  0  0  0  0  0  0  0  0  0  0  0  0
  133.8570  139.9361  160.4288 C   0  0  0  0  0  0  0  0  0  0  0  0
  135.6306  140.7816  160.3639 Br  0  0  0  0  0  0  0  0  0  0  0  0
  133.2006  139.5683  159.0965 C   0  0  0  0  0  0  0  0  0  0  0  0
  133.7575  138.4695  160.0040 C   0  0  2  0  0  0  0  0  0  0  0  0
  134.6756  137.9735  159.6890 H   0  0  0  0  0  0  0  0  0  0  0  0
  132.7507  137.5865  160.7439 C   0  0  0  0  0  0  0  0  0  0  0  0
  132.4458  136.4029  159.9290 N   0  0  0  0  0  0  0  0  0  0  0  0
  133.2934  135.8809  159.7639 H   0  0  0  0  0  0  0  0  0  0  0  0
  132.0528  136.6942  159.0466 H   0  0  0  0  0  0  0  0  0  0  0  0
  131.4792  135.5551  160.6394 C   0  0  0  0  0  0  0  0  0  0  0  0
  131.1663  134.3409  159.8035 C   0  0  0  0  0  0  0  0  0  0  0  0
  132.0644  133.5700  159.1536 C   0  0  0  0  0  0  0  0  0  0  0  0
  131.3898  132.5886  158.5163 N   0  0  0  0  0  0  0  0  0  0  0  0
  131.7829  131.8918  157.9677 H   0  0  0  0  0  0  0  0  0  0  0  0
  130.0247  132.7514  158.7839 N   0  0  0  0  0  0  0  0  0  0  0  0
  129.8833  133.8054  159.5633 C   0  0  0  0  0  0  0  0  0  0  0  0
  128.6074  134.3355  160.0867 C   0  0  0  0  0  0  0  0  0  0  0  0
  127.3734  133.8166  159.8517 C   0  0  0  0  0  0  0  0  0  0  0  0
  126.4514  134.6273  160.5429 C   0  0  0  0  0  0  0  0  0  0  0  0
  127.1653  135.6034  161.1570 C   0  0  0  0  0  0  0  0  0  0  0  0
  126.6394  136.6202  161.9457 N   0  0  0  0  0  0  0  0  0  0  0  0
  127.5305  137.6130  162.5511 C   0  0  1  0  0  0  0  0  0  0  0  0
  126.8833  138.8172  163.2400 C   0  0  0  0  0  0  0  0  0  0  0  0
  127.5373  137.7188  164.0729 C   0  0  0  0  0  0  0  0  0  0  0  0
  126.6805  136.7715  164.9344 C   0  0  0  0  0  0  0  0  0  0  0  0
  127.2147  136.9884  166.3731 C   0  0  0  0  0  0  0  0  0  0  0  0
  128.7376  137.1707  166.1551 C   0  0  0  0  0  0  0  0  0  0  0  0
  128.8390  137.9784  164.8433 C   0  0  0  0  0  0  0  0  0  0  0  0
  128.4672  135.4188  160.8796 O   0  0  0  0  0  0  0  0  0  0  0  0
  133.7521  139.7951  158.1842 H   0  0  0  0  0  0  0  0  0  0  0  0
  132.1169  139.6621  159.0266 H   0  0  0  0  0  0  0  0  0  0  0  0
  131.8351  138.1505  160.9223 H   0  0  0  0  0  0  0  0  0  0  0  0
  133.1752  137.2718  161.6973 H   0  0  0  0  0  0  0  0  0  0  0  0
  130.5636  136.1189  160.8181 H   0  0  0  0  0  0  0  0  0  0  0  0
  131.9038  135.2402  161.5927 H   0  0  0  0  0  0  0  0  0  0  0  0
  133.1346  133.7154  159.1416 H   0  0  0  0  0  0  0  0  0  0  0  0
  127.1441  132.9471  159.2537 H   0  0  0  0  0  0  0  0  0  0  0  0
  125.3798  134.4974  160.5757 H   0  0  0  0  0  0  0  0  0  0  0  0
  125.6824  136.6723  162.0953 H   0  0  0  0  0  0  0  0  0  0  0  0
  128.4740  137.7778  162.0306 H   0  0  0  0  0  0  0  0  0  0  0  0
  125.7946  138.8705  163.2430 H   0  0  0  0  0  0  0  0  0  0  0  0
  127.4011  139.7740  163.1730 H   0  0  0  0  0  0  0  0  0  0  0  0
  126.8282  135.7369  164.6242 H   0  0  0  0  0  0  0  0  0  0  0  0
  125.6266  137.0428  164.8733 H   0  0  0  0  0  0  0  0  0  0  0  0
  127.0153  136.1155  166.9947 H   0  0  0  0  0  0  0  0  0  0  0  0
  126.7782  137.8836  166.8160 H   0  0  0  0  0  0  0  0  0  0  0  0
  129.1770  137.7292  166.9818 H   0  0  0  0  0  0  0  0  0  0  0  0
  129.2262  136.2023  166.0479 H   0  0  0  0  0  0  0  0  0  0  0  0
  128.9370  139.0412  165.0650 H   0  0  0  0  0  0  0  0  0  0  0  0
  129.6939  137.6374  164.2593 H   0  0  0  0  0  0  0  0  0  0  0  0
  1  2  1  0
  2  5  1  0
  2  3  1  0
  2  4  1  0
  4  5  1  0
  4 31  1  0
  4 32  1  0
  5  6  1  6
  5  7  1  0
  7  8  1  0
  7 33  1  0
  7 34  1  0
  8  9  1  0
  8 10  1  0
  8 11  1  0
 11 12  1  0
 11 35  1  0
 11 36  1  0
 12 17  1  0
 12 13  2  0
 13 14  1  0
 13 37  1  0
 14 15  1  0
 14 16  1  0
 16 17  2  0
 17 18  1  0
 18 30  1  0
 18 19  2  0
 19 20  1  0
 19 38  1  0
 20 21  2  0
 20 39  1  0
 21 22  1  0
 21 30  1  0
 22 23  1  0
 22 40  1  0
 23 25  1  0
 23 24  1  0
 23 41  1  6
 24 25  1  0
 24 42  1  0
 24 43  1  0
 25 29  1  0
 25 26  1  0
 26 27  1  0
 26 44  1  0
 26 45  1  0
 27 28  1  0
 27 46  1  0
 27 47  1  0
 28 29  1  0
 28 48  1  0
 28 49  1  0
 29 50  1  0
 29 51  1  0
M  CHG  1   8   1
M  END
>  <DOCK_score>  (1) 
-46.385601

>  <SMILES>  (1) 
BrC1(Br)C[C@@H]1C[NH2+]Cc1c[nH]nc1-c1ccc(NC2CC23CCCC3)o1

$$$$
