O[C@@H]1[C@H](O)C=C[C@H]1[NH+]=C(NC1CC=CC1)N[C@@H]1CCc2cc(Br)ccc2C1
     RDKit          3D

 54 57  0  0  1  0  0  0  0  0999 V2000
  126.3976  135.8697  163.2155 O   0  0  0  0  0  0  0  0  0  0  0  0
  126.3579  135.6062  161.8115 C   0  0  2  0  0  0  0  0  0  0  0  0
  126.3850  136.5340  161.2400 H   0  0  0  0  0  0  0  0  0  0  0  0
  125.1169  134.7617  161.4401 C   0  0  2  0  0  0  0  0  0  0  0  0
  124.7660  135.0212  160.4413 H   0  0  0  0  0  0  0  0  0  0  0  0
  124.0769  134.9561  162.4005 O   0  0  0  0  0  0  0  0  0  0  0  0
  125.6024  133.3311  161.4723 C   0  0  0  0  0  0  0  0  0  0  0  0
  126.9062  133.2765  161.4456 C   0  0  0  0  0  0  0  0  0  0  0  0
  127.5077  134.6616  161.3914 C   0  0  1  0  0  0  0  0  0  0  0  0
  128.3399  134.7417  162.0906 H   0  0  0  0  0  0  0  0  0  0  0  0
  127.9518  134.9721  160.0302 N   0  0  0  0  0  0  0  0  0  0  0  0
  127.3277  134.9094  159.2903 H   0  0  0  0  0  0  0  0  0  0  0  0
  129.1855  135.3325  159.8135 C   0  0  0  0  0  0  0  0  0  0  0  0
  129.7860  135.0404  158.6116 N   0  0  0  0  0  0  0  0  0  0  0  0
  129.3850  133.8465  157.8634 C   0  0  0  0  0  0  0  0  0  0  0  0
  129.0987  132.6637  158.8175 C   0  0  0  0  0  0  0  0  0  0  0  0
  129.6180  131.4470  158.0873 C   0  0  0  0  0  0  0  0  0  0  0  0
  130.4172  131.7887  157.1135 C   0  0  0  0  0  0  0  0  0  0  0  0
  130.5641  133.2904  157.0320 C   0  0  0  0  0  0  0  0  0  0  0  0
  129.8863  136.0045  160.7867 N   0  0  0  0  0  0  0  0  0  0  0  0
  131.2731  136.4096  160.5432 C   0  0  2  0  0  0  0  0  0  0  0  0
  131.7473  135.7039  159.8610 H   0  0  0  0  0  0  0  0  0  0  0  0
  132.0421  136.4420  161.8693 C   0  0  0  0  0  0  0  0  0  0  0  0
  133.5261  136.6296  161.5610 C   0  0  0  0  0  0  0  0  0  0  0  0
  133.7311  137.8000  160.6353 C   0  0  0  0  0  0  0  0  0  0  0  0
  135.0073  138.3421  160.5510 C   0  0  0  0  0  0  0  0  0  0  0  0
  135.2610  139.4120  159.7169 C   0  0  0  0  0  0  0  0  0  0  0  0
  137.0027  140.1408  159.6111 Br  0  0  0  0  0  0  0  0  0  0  0  0
  134.2363  139.9491  158.9580 C   0  0  0  0  0  0  0  0  0  0  0  0
  132.9684  139.4130  159.0426 C   0  0  0  0  0  0  0  0  0  0  0  0
  132.7109  138.3376  159.8833 C   0  0  0  0  0  0  0  0  0  0  0  0
  131.3006  137.8105  159.9352 C   0  0  0  0  0  0  0  0  0  0  0  0
  127.2162  136.2893  163.5138 H   0  0  0  0  0  0  0  0  0  0  0  0
  123.7763  135.8721  162.4748 H   0  0  0  0  0  0  0  0  0  0  0  0
  124.9554  132.4673  161.5123 H   0  0  0  0  0  0  0  0  0  0  0  0
  127.4799  132.3615  161.4602 H   0  0  0  0  0  0  0  0  0  0  0  0
  130.4751  135.6250  158.2592 H   0  0  0  0  0  0  0  0  0  0  0  0
  128.5235  134.0558  157.2293 H   0  0  0  0  0  0  0  0  0  0  0  0
  129.6316  132.7977  159.7589 H   0  0  0  0  0  0  0  0  0  0  0  0
  128.0275  132.5707  158.9964 H   0  0  0  0  0  0  0  0  0  0  0  0
  129.3613  130.4283  158.3380 H   0  0  0  0  0  0  0  0  0  0  0  0
  130.9092  131.0900  156.4532 H   0  0  0  0  0  0  0  0  0  0  0  0
  130.4894  133.6236  155.9968 H   0  0  0  0  0  0  0  0  0  0  0  0
  131.5145  133.6046  157.4635 H   0  0  0  0  0  0  0  0  0  0  0  0
  129.4627  136.2106  161.6346 H   0  0  0  0  0  0  0  0  0  0  0  0
  131.6861  137.2719  162.4799 H   0  0  0  0  0  0  0  0  0  0  0  0
  131.8936  135.5031  162.4027 H   0  0  0  0  0  0  0  0  0  0  0  0
  134.0666  136.8077  162.4908 H   0  0  0  0  0  0  0  0  0  0  0  0
  133.9122  135.7261  161.0891 H   0  0  0  0  0  0  0  0  0  0  0  0
  135.8075  137.9227  161.1428 H   0  0  0  0  0  0  0  0  0  0  0  0
  134.4286  140.7853  158.3021 H   0  0  0  0  0  0  0  0  0  0  0  0
  132.1691  139.8326  158.4496 H   0  0  0  0  0  0  0  0  0  0  0  0
  130.8934  137.7718  158.9248 H   0  0  0  0  0  0  0  0  0  0  0  0
  130.6899  138.4781  160.5429 H   0  0  0  0  0  0  0  0  0  0  0  0
  1  2  1  0
  1 33  1  0
  2  3  1  6
  2  9  1  0
  2  4  1  0
  4  5  1  6
  4  6  1  0
  4  7  1  0
  6 34  1  0
  7  8  2  0
  7 35  1  0
  8  9  1  0
  8 36  1  0
  9 10  1  1
  9 11  1  0
 11 12  1  0
 13 11  2  0
 13 14  1  0
 13 20  1  0
 14 15  1  0
 14 37  1  0
 15 19  1  0
 15 16  1  0
 15 38  1  0
 16 17  1  0
 16 39  1  0
 16 40  1  0
 17 18  2  0
 17 41  1  0
 18 19  1  0
 18 42  1  0
 19 43  1  0
 19 44  1  0
 20 21  1  0
 20 45  1  0
 21 22  1  6
 21 32  1  0
 21 23  1  0
 23 24  1  0
 23 46  1  0
 23 47  1  0
 24 25  1  0
 24 48  1  0
 24 49  1  0
 25 31  2  0
 25 26  1  0
 26 27  2  0
 26 50  1  0
 27 28  1  0
 27 29  1  0
 29 30  2  0
 29 51  1  0
 30 31  1  0
 30 52  1  0
 31 32  1  0
 32 53  1  0
 32 54  1  0
M  CHG  1  11   1
M  END
>  <DOCK_score>  (1) 
-50.880417

>  <SMILES>  (1) 
O[C@@H]1[C@H](O)C=C[C@H]1[NH+]=C(NC1CC=CC1)N[C@@H]1CCc2cc(Br)ccc2C1

$$$$
