Cc1nn(-c2ccc(F)cc2)cc1C[NH+]=C(NC=C1NCCN1C)NC1CC=CC1
     RDKit          3D

 59 62  0  0  1  0  0  0  0  0999 V2000
  135.3128  138.9526  158.1463 C   0  0  0  0  0  0  0  0  0  0  0  0
  135.0283  139.2701  159.5918 C   0  0  0  0  0  0  0  0  0  0  0  0
  135.7463  140.0475  160.3621 N   0  0  0  0  0  0  0  0  0  0  0  0
  135.1523  140.0765  161.6304 N   0  0  0  0  0  0  0  0  0  0  0  0
  135.6184  140.7906  162.7439 C   0  0  0  0  0  0  0  0  0  0  0  0
  134.9251  140.7344  163.9455 C   0  0  0  0  0  0  0  0  0  0  0  0
  135.3882  141.4343  165.0423 C   0  0  0  0  0  0  0  0  0  0  0  0
  136.5376  142.2003  164.9411 C   0  0  0  0  0  0  0  0  0  0  0  0
  136.9859  142.8889  166.0135 F   0  0  0  0  0  0  0  0  0  0  0  0
  137.2274  142.2617  163.7419 C   0  0  0  0  0  0  0  0  0  0  0  0
  136.7702  141.5590  162.6444 C   0  0  0  0  0  0  0  0  0  0  0  0
  134.0502  139.2942  161.5911 C   0  0  0  0  0  0  0  0  0  0  0  0
  133.9496  138.7872  160.3404 C   0  0  0  0  0  0  0  0  0  0  0  0
  132.8698  137.8606  159.8437 C   0  0  0  0  0  0  0  0  0  0  0  0
  131.9229  137.5886  160.9279 N   0  0  0  0  0  0  0  0  0  0  0  0
  131.7662  138.2563  161.6138 H   0  0  0  0  0  0  0  0  0  0  0  0
  131.2865  136.4502  160.9679 C   0  0  0  0  0  0  0  0  0  0  0  0
  131.5041  135.5075  159.9937 N   0  0  0  0  0  0  0  0  0  0  0  0
  131.3746  134.1359  160.2980 C   0  0  0  0  0  0  0  0  0  0  0  0
  130.9913  133.2776  159.3541 C   0  0  0  0  0  0  0  0  0  0  0  0
  130.6921  133.6415  158.0448 N   0  0  0  0  0  0  0  0  0  0  0  0
  130.3131  132.4393  157.2916 C   0  0  0  0  0  0  0  0  0  0  0  0
  130.4054  131.2853  158.3035 C   0  0  0  0  0  0  0  0  0  0  0  0
  130.8363  131.9105  159.5603 N   0  0  0  0  0  0  0  0  0  0  0  0
  131.0661  131.2086  160.8256 C   0  0  0  0  0  0  0  0  0  0  0  0
  130.3971  136.1945  161.9862 N   0  0  0  0  0  0  0  0  0  0  0  0
  130.1648  137.2005  163.0256 C   0  0  0  0  0  0  0  0  0  0  0  0
  129.6006  136.5510  164.3105 C   0  0  0  0  0  0  0  0  0  0  0  0
  128.6014  137.5529  164.8403 C   0  0  0  0  0  0  0  0  0  0  0  0
  128.2794  138.4251  163.9243 C   0  0  0  0  0  0  0  0  0  0  0  0
  129.0102  138.1503  162.6306 C   0  0  0  0  0  0  0  0  0  0  0  0
  134.8186  139.6859  157.5091 H   0  0  0  0  0  0  0  0  0  0  0  0
  136.3883  138.9858  157.9719 H   0  0  0  0  0  0  0  0  0  0  0  0
  134.9374  137.9564  157.9125 H   0  0  0  0  0  0  0  0  0  0  0  0
  134.0264  140.1406  164.0235 H   0  0  0  0  0  0  0  0  0  0  0  0
  134.8513  141.3879  165.9782 H   0  0  0  0  0  0  0  0  0  0  0  0
  138.1233  142.8600  163.6647 H   0  0  0  0  0  0  0  0  0  0  0  0
  137.3088  141.6068  161.7096 H   0  0  0  0  0  0  0  0  0  0  0  0
  133.3722  139.1073  162.4108 H   0  0  0  0  0  0  0  0  0  0  0  0
  133.3190  136.9252  159.5102 H   0  0  0  0  0  0  0  0  0  0  0  0
  132.3444  138.3284  159.0112 H   0  0  0  0  0  0  0  0  0  0  0  0
  131.7471  135.7844  159.0964 H   0  0  0  0  0  0  0  0  0  0  0  0
  131.5861  133.7818  161.2960 H   0  0  0  0  0  0  0  0  0  0  0  0
  130.7302  134.5423  157.6873 H   0  0  0  0  0  0  0  0  0  0  0  0
  131.0033  132.2734  156.4645 H   0  0  0  0  0  0  0  0  0  0  0  0
  129.2932  132.5350  156.9190 H   0  0  0  0  0  0  0  0  0  0  0  0
  131.1412  130.5515  157.9742 H   0  0  0  0  0  0  0  0  0  0  0  0
  129.4314  130.8127  158.4304 H   0  0  0  0  0  0  0  0  0  0  0  0
  131.3785  131.9240  161.5863 H   0  0  0  0  0  0  0  0  0  0  0  0
  130.1447  130.7202  161.1426 H   0  0  0  0  0  0  0  0  0  0  0  0
  131.8460  130.4595  160.6891 H   0  0  0  0  0  0  0  0  0  0  0  0
  129.9239  135.3483  162.0159 H   0  0  0  0  0  0  0  0  0  0  0  0
  131.0764  137.7594  163.2368 H   0  0  0  0  0  0  0  0  0  0  0  0
  129.1051  135.6094  164.0739 H   0  0  0  0  0  0  0  0  0  0  0  0
  130.3979  136.3898  165.0360 H   0  0  0  0  0  0  0  0  0  0  0  0
  128.2058  137.5483  165.8452 H   0  0  0  0  0  0  0  0  0  0  0  0
  127.5823  139.2369  164.0716 H   0  0  0  0  0  0  0  0  0  0  0  0
  129.4061  139.0765  162.2141 H   0  0  0  0  0  0  0  0  0  0  0  0
  128.3477  137.6652  161.9140 H   0  0  0  0  0  0  0  0  0  0  0  0
  1  2  1  0
  1 32  1  0
  1 33  1  0
  1 34  1  0
  2 13  1  0
  2  3  2  0
  3  4  1  0
  4  5  1  0
  4 12  1  0
  5 11  1  0
  5  6  2  0
  6  7  1  0
  6 35  1  0
  7  8  2  0
  7 36  1  0
  8  9  1  0
  8 10  1  0
 10 11  2  0
 10 37  1  0
 11 38  1  0
 12 13  2  0
 12 39  1  0
 13 14  1  0
 14 15  1  0
 14 40  1  0
 14 41  1  0
 15 16  1  0
 17 15  2  0
 17 18  1  0
 17 26  1  0
 18 19  1  0
 18 42  1  0
 19 20  2  0
 19 43  1  0
 20 24  1  0
 20 21  1  0
 21 22  1  0
 21 44  1  0
 22 23  1  0
 22 45  1  0
 22 46  1  0
 23 24  1  0
 23 47  1  0
 23 48  1  0
 24 25  1  0
 25 49  1  0
 25 50  1  0
 25 51  1  0
 26 27  1  0
 26 52  1  0
 27 31  1  0
 27 28  1  0
 27 53  1  0
 28 29  1  0
 28 54  1  0
 28 55  1  0
 29 30  2  0
 29 56  1  0
 30 31  1  0
 30 57  1  0
 31 58  1  0
 31 59  1  0
M  CHG  1  15   1
M  END
>  <DOCK_score>  (1) 
-59.347111

>  <SMILES>  (1) 
Cc1nn(-c2ccc(F)cc2)cc1C[NH+]=C(NC=C1NCCN1C)NC1CC=CC1

$$$$
