CCc1ccc(-c2c[nH]c(N[C@H](c3ccc(Cl)cc3)c3ccccn3)[nH+]2)cc1
     RDKit          3D

 50 53  0  0  1  0  0  0  0  0999 V2000
  130.3801  128.4169  151.7471 C   0  0  0  0  0  0  0  0  0  0  0  0
  131.5134  129.3916  152.0729 C   0  0  0  0  0  0  0  0  0  0  0  0
  131.1470  130.1990  153.2916 C   0  0  0  0  0  0  0  0  0  0  0  0
  131.4903  129.7405  154.5502 C   0  0  0  0  0  0  0  0  0  0  0  0
  131.1624  130.4783  155.6696 C   0  0  0  0  0  0  0  0  0  0  0  0
  130.4738  131.6820  155.5303 C   0  0  0  0  0  0  0  0  0  0  0  0
  130.1137  132.4767  156.7299 C   0  0  0  0  0  0  0  0  0  0  0  0
  129.3352  132.0600  157.7591 C   0  0  0  0  0  0  0  0  0  0  0  0
  129.2610  133.1027  158.6503 N   0  0  0  0  0  0  0  0  0  0  0  0
  128.7740  133.1079  159.4893 H   0  0  0  0  0  0  0  0  0  0  0  0
  129.9970  134.1270  158.1393 C   0  0  0  0  0  0  0  0  0  0  0  0
  130.1791  135.3640  158.7335 N   0  0  0  0  0  0  0  0  0  0  0  0
  129.5507  135.6562  160.0243 C   0  0  2  0  0  0  0  0  0  0  0  0
  128.4685  135.5659  159.9302 H   0  0  0  0  0  0  0  0  0  0  0  0
  129.9027  137.0588  160.4483 C   0  0  0  0  0  0  0  0  0  0  0  0
  129.9864  137.3741  161.7917 C   0  0  0  0  0  0  0  0  0  0  0  0
  130.3148  138.6590  162.1812 C   0  0  0  0  0  0  0  0  0  0  0  0
  130.5486  139.6325  161.2262 C   0  0  0  0  0  0  0  0  0  0  0  0
  130.9537  141.2485  161.7141 Cl  0  0  0  0  0  0  0  0  0  0  0  0
  130.4593  139.3177  159.8819 C   0  0  0  0  0  0  0  0  0  0  0  0
  130.1364  138.0311  159.4938 C   0  0  0  0  0  0  0  0  0  0  0  0
  130.0486  134.6791  161.0580 C   0  0  0  0  0  0  0  0  0  0  0  0
  131.3992  134.6174  161.3449 C   0  0  0  0  0  0  0  0  0  0  0  0
  131.8461  133.7186  162.3013 C   0  0  0  0  0  0  0  0  0  0  0  0
  130.9148  132.9045  162.9282 C   0  0  0  0  0  0  0  0  0  0  0  0
  129.5812  133.0192  162.5855 C   0  0  0  0  0  0  0  0  0  0  0  0
  129.1912  133.8894  161.6743 N   0  0  0  0  0  0  0  0  0  0  0  0
  130.5097  133.7471  156.9944 N   0  0  0  0  0  0  0  0  0  0  0  0
  131.0794  134.2886  156.4259 H   0  0  0  0  0  0  0  0  0  0  0  0
  130.1253  132.1366  154.2597 C   0  0  0  0  0  0  0  0  0  0  0  0
  130.4634  131.3933  153.1470 C   0  0  0  0  0  0  0  0  0  0  0  0
  130.6451  127.8331  150.8656 H   0  0  0  0  0  0  0  0  0  0  0  0
  130.2232  127.7473  152.5927 H   0  0  0  0  0  0  0  0  0  0  0  0
  129.4649  128.9756  151.5513 H   0  0  0  0  0  0  0  0  0  0  0  0
  132.4285  128.8336  152.2682 H   0  0  0  0  0  0  0  0  0  0  0  0
  131.6702  130.0619  151.2268 H   0  0  0  0  0  0  0  0  0  0  0  0
  132.0197  128.8053  154.6572 H   0  0  0  0  0  0  0  0  0  0  0  0
  131.4351  130.1216  156.6517 H   0  0  0  0  0  0  0  0  0  0  0  0
  128.8635  131.0936  157.8587 H   0  0  0  0  0  0  0  0  0  0  0  0
  130.7229  136.0373  158.2953 H   0  0  0  0  0  0  0  0  0  0  0  0
  129.7996  136.6152  162.5370 H   0  0  0  0  0  0  0  0  0  0  0  0
  130.3844  138.9042  163.2306 H   0  0  0  0  0  0  0  0  0  0  0  0
  130.6421  140.0771  159.1362 H   0  0  0  0  0  0  0  0  0  0  0  0
  130.0670  137.7852  158.4444 H   0  0  0  0  0  0  0  0  0  0  0  0
  132.0972  135.2636  160.8334 H   0  0  0  0  0  0  0  0  0  0  0  0
  132.8951  133.6513  162.5491 H   0  0  0  0  0  0  0  0  0  0  0  0
  131.2281  132.1897  163.6747 H   0  0  0  0  0  0  0  0  0  0  0  0
  128.8497  132.3889  163.0692 H   0  0  0  0  0  0  0  0  0  0  0  0
  129.5915  133.0686  154.1459 H   0  0  0  0  0  0  0  0  0  0  0  0
  130.1943  131.7449  152.1620 H   0  0  0  0  0  0  0  0  0  0  0  0
  1  2  1  0
  1 32  1  0
  1 33  1  0
  1 34  1  0
  2  3  1  0
  2 35  1  0
  2 36  1  0
  3 31  2  0
  3  4  1  0
  4  5  2  0
  4 37  1  0
  5  6  1  0
  5 38  1  0
  6  7  1  0
  6 30  2  0
  7 28  1  0
  7  8  2  0
  8  9  1  0
  8 39  1  0
  9 10  1  0
  9 11  1  0
 11 12  1  0
 11 28  2  0
 12 13  1  0
 12 40  1  0
 13 14  1  6
 13 15  1  0
 13 22  1  0
 15 21  1  0
 15 16  2  0
 16 17  1  0
 16 41  1  0
 17 18  2  0
 17 42  1  0
 18 19  1  0
 18 20  1  0
 20 21  2  0
 20 43  1  0
 21 44  1  0
 22 27  1  0
 22 23  2  0
 23 24  1  0
 23 45  1  0
 24 25  2  0
 24 46  1  0
 25 26  1  0
 25 47  1  0
 26 27  2  0
 26 48  1  0
 28 29  1  0
 30 31  1  0
 30 49  1  0
 31 50  1  0
M  CHG  1  28   1
M  END
>  <DOCK_score>  (1) 
-59.11837

>  <SMILES>  (1) 
CCc1ccc(-c2c[nH]c(N[C@H](c3ccc(Cl)cc3)c3ccccn3)[nH+]2)cc1

$$$$
