Cc1c[nH]c(N[C@@H](c2ccccc2)c2ccc(O)cc2)[nH+]1
     RDKit          3D

 39 41  0  0  1  0  0  0  0  0999 V2000
  129.8878  131.5672  156.9086 C   0  0  0  0  0  0  0  0  0  0  0  0
  130.0883  132.4830  158.0885 C   0  0  0  0  0  0  0  0  0  0  0  0
  129.7419  132.2164  159.3592 C   0  0  0  0  0  0  0  0  0  0  0  0
  130.1037  133.3109  160.1117 N   0  0  0  0  0  0  0  0  0  0  0  0
  129.9856  133.4176  161.0686 H   0  0  0  0  0  0  0  0  0  0  0  0
  130.6556  134.2155  159.2589 C   0  0  0  0  0  0  0  0  0  0  0  0
  131.1518  135.4603  159.6085 N   0  0  0  0  0  0  0  0  0  0  0  0
  131.1072  135.9008  161.0050 C   0  0  1  0  0  0  0  0  0  0  0  0
  131.6772  135.2072  161.6231 H   0  0  0  0  0  0  0  0  0  0  0  0
  131.7049  137.2798  161.1159 C   0  0  0  0  0  0  0  0  0  0  0  0
  132.3350  137.6682  162.2834 C   0  0  0  0  0  0  0  0  0  0  0  0
  132.8770  138.9356  162.3877 C   0  0  0  0  0  0  0  0  0  0  0  0
  132.7908  139.8139  161.3236 C   0  0  0  0  0  0  0  0  0  0  0  0
  132.1611  139.4253  160.1560 C   0  0  0  0  0  0  0  0  0  0  0  0
  131.6180  138.1584  160.0522 C   0  0  0  0  0  0  0  0  0  0  0  0
  129.6760  135.9341  161.4759 C   0  0  0  0  0  0  0  0  0  0  0  0
  128.6594  136.1956  160.5761 C   0  0  0  0  0  0  0  0  0  0  0  0
  127.3461  136.2210  161.0043 C   0  0  0  0  0  0  0  0  0  0  0  0
  127.0490  135.9953  162.3405 C   0  0  0  0  0  0  0  0  0  0  0  0
  125.7584  136.0248  162.7651 O   0  0  0  0  0  0  0  0  0  0  0  0
  128.0716  135.7387  163.2424 C   0  0  0  0  0  0  0  0  0  0  0  0
  129.3826  135.7087  162.8081 C   0  0  0  0  0  0  0  0  0  0  0  0
  130.6434  133.7063  158.0498 N   0  0  0  0  0  0  0  0  0  0  0  0
  130.9821  134.1439  157.2531 H   0  0  0  0  0  0  0  0  0  0  0  0
  130.7652  130.9316  156.7888 H   0  0  0  0  0  0  0  0  0  0  0  0
  129.0087  130.9452  157.0766 H   0  0  0  0  0  0  0  0  0  0  0  0
  129.7446  132.1626  156.0068 H   0  0  0  0  0  0  0  0  0  0  0  0
  129.2724  131.3139  159.7216 H   0  0  0  0  0  0  0  0  0  0  0  0
  131.5288  136.0405  158.9288 H   0  0  0  0  0  0  0  0  0  0  0  0
  132.4030  136.9818  163.1145 H   0  0  0  0  0  0  0  0  0  0  0  0
  133.3695  139.2389  163.2997 H   0  0  0  0  0  0  0  0  0  0  0  0
  133.2157  140.8034  161.4045 H   0  0  0  0  0  0  0  0  0  0  0  0
  132.0939  140.1115  159.3247 H   0  0  0  0  0  0  0  0  0  0  0  0
  131.1260  137.8548  159.1400 H   0  0  0  0  0  0  0  0  0  0  0  0
  128.8916  136.3757  159.5370 H   0  0  0  0  0  0  0  0  0  0  0  0
  126.5520  136.4210  160.3003 H   0  0  0  0  0  0  0  0  0  0  0  0
  125.1181  136.2106  162.0647 H   0  0  0  0  0  0  0  0  0  0  0  0
  127.8427  135.5629  164.2830 H   0  0  0  0  0  0  0  0  0  0  0  0
  130.1789  135.5088  163.5098 H   0  0  0  0  0  0  0  0  0  0  0  0
  1  2  1  0
  1 25  1  0
  1 26  1  0
  1 27  1  0
  2 23  1  0
  2  3  2  0
  3  4  1  0
  3 28  1  0
  4  5  1  0
  4  6  1  0
  6  7  1  0
  6 23  2  0
  7  8  1  0
  7 29  1  0
  8  9  1  1
  8 10  1  0
  8 16  1  0
 10 15  1  0
 10 11  2  0
 11 12  1  0
 11 30  1  0
 12 13  2  0
 12 31  1  0
 13 14  1  0
 13 32  1  0
 14 15  2  0
 14 33  1  0
 15 34  1  0
 16 22  1  0
 16 17  2  0
 17 18  1  0
 17 35  1  0
 18 19  2  0
 18 36  1  0
 19 20  1  0
 19 21  1  0
 20 37  1  0
 21 22  2  0
 21 38  1  0
 22 39  1  0
 23 24  1  0
M  CHG  1  23   1
M  END
>  <DOCK_score>  (1) 
-43.718304

>  <SMILES>  (1) 
Cc1c[nH]c(N[C@@H](c2ccccc2)c2ccc(O)cc2)[nH+]1

$$$$
