Cc1cc(O)cc(CNC(NC2CC=CC2)=[NH+]Cc2ccccc2)c1
     RDKit          3D

 51 53  0  0  1  0  0  0  0  0999 V2000
  127.5590  135.1955  167.3435 C   0  0  0  0  0  0  0  0  0  0  0  0
  127.3921  135.6105  165.9044 C   0  0  0  0  0  0  0  0  0  0  0  0
  126.1379  135.6036  165.3251 C   0  0  0  0  0  0  0  0  0  0  0  0
  125.9848  135.9858  164.0004 C   0  0  0  0  0  0  0  0  0  0  0  0
  124.7520  135.9804  163.4285 O   0  0  0  0  0  0  0  0  0  0  0  0
  127.0918  136.3787  163.2619 C   0  0  0  0  0  0  0  0  0  0  0  0
  128.3445  136.3782  163.8440 C   0  0  0  0  0  0  0  0  0  0  0  0
  129.5480  136.7993  163.0407 C   0  0  0  0  0  0  0  0  0  0  0  0
  129.4980  136.1689  161.7191 N   0  0  0  0  0  0  0  0  0  0  0  0
  130.4975  136.4072  160.8056 C   0  0  0  0  0  0  0  0  0  0  0  0
  130.4505  135.8157  159.5654 N   0  0  0  0  0  0  0  0  0  0  0  0
  129.3355  134.9316  159.2172 C   0  0  0  0  0  0  0  0  0  0  0  0
  129.3796  133.6287  160.0489 C   0  0  0  0  0  0  0  0  0  0  0  0
  128.9286  132.5480  159.0939 C   0  0  0  0  0  0  0  0  0  0  0  0
  128.9890  132.9591  157.8565 C   0  0  0  0  0  0  0  0  0  0  0  0
  129.4904  134.3825  157.7800 C   0  0  0  0  0  0  0  0  0  0  0  0
  131.4895  137.1938  161.1154 N   0  0  0  0  0  0  0  0  0  0  0  0
  131.5225  137.6111  161.9904 H   0  0  0  0  0  0  0  0  0  0  0  0
  132.5546  137.4477  160.1422 C   0  0  0  0  0  0  0  0  0  0  0  0
  133.5721  138.3828  160.7434 C   0  0  0  0  0  0  0  0  0  0  0  0
  133.4305  139.7492  160.5898 C   0  0  0  0  0  0  0  0  0  0  0  0
  134.3612  140.6071  161.1454 C   0  0  0  0  0  0  0  0  0  0  0  0
  135.4391  140.0982  161.8455 C   0  0  0  0  0  0  0  0  0  0  0  0
  135.5833  138.7315  161.9945 C   0  0  0  0  0  0  0  0  0  0  0  0
  134.6498  137.8738  161.4433 C   0  0  0  0  0  0  0  0  0  0  0  0
  128.4942  135.9973  165.1648 C   0  0  0  0  0  0  0  0  0  0  0  0
  127.4571  136.0688  167.9876 H   0  0  0  0  0  0  0  0  0  0  0  0
  126.7945  134.4626  167.6013 H   0  0  0  0  0  0  0  0  0  0  0  0
  128.5462  134.7548  167.4823 H   0  0  0  0  0  0  0  0  0  0  0  0
  125.2773  135.3008  165.9030 H   0  0  0  0  0  0  0  0  0  0  0  0
  124.7462  136.2621  162.5035 H   0  0  0  0  0  0  0  0  0  0  0  0
  126.9747  136.6805  162.2315 H   0  0  0  0  0  0  0  0  0  0  0  0
  129.5475  137.8833  162.9264 H   0  0  0  0  0  0  0  0  0  0  0  0
  130.4563  136.4888  163.5572 H   0  0  0  0  0  0  0  0  0  0  0  0
  128.7596  135.5835  161.4888 H   0  0  0  0  0  0  0  0  0  0  0  0
  131.1558  135.9838  158.9209 H   0  0  0  0  0  0  0  0  0  0  0  0
  128.3806  135.4428  159.3400 H   0  0  0  0  0  0  0  0  0  0  0  0
  130.3949  133.4319  160.3928 H   0  0  0  0  0  0  0  0  0  0  0  0
  128.6971  133.6958  160.8961 H   0  0  0  0  0  0  0  0  0  0  0  0
  128.5991  131.5647  159.3956 H   0  0  0  0  0  0  0  0  0  0  0  0
  128.7162  132.3606  157.0000 H   0  0  0  0  0  0  0  0  0  0  0  0
  128.8833  134.9620  157.0845 H   0  0  0  0  0  0  0  0  0  0  0  0
  130.5372  134.4024  157.4767 H   0  0  0  0  0  0  0  0  0  0  0  0
  133.0372  136.5066  159.8782 H   0  0  0  0  0  0  0  0  0  0  0  0
  132.1284  137.9010  159.2473 H   0  0  0  0  0  0  0  0  0  0  0  0
  132.5908  140.1467  160.0390 H   0  0  0  0  0  0  0  0  0  0  0  0
  134.2486  141.6750  161.0285 H   0  0  0  0  0  0  0  0  0  0  0  0
  136.1686  140.7684  162.2757 H   0  0  0  0  0  0  0  0  0  0  0  0
  136.4256  138.3339  162.5412 H   0  0  0  0  0  0  0  0  0  0  0  0
  134.7628  136.8060  161.5595 H   0  0  0  0  0  0  0  0  0  0  0  0
  129.4740  136.0016  165.6194 H   0  0  0  0  0  0  0  0  0  0  0  0
  1  2  1  0
  1 27  1  0
  1 28  1  0
  1 29  1  0
  2 26  2  0
  2  3  1  0
  3  4  2  0
  3 30  1  0
  4  5  1  0
  4  6  1  0
  5 31  1  0
  6  7  2  0
  6 32  1  0
  7  8  1  0
  7 26  1  0
  8  9  1  0
  8 33  1  0
  8 34  1  0
  9 35  1  0
 10  9  1  0
 10 11  1  0
 10 17  2  0
 11 12  1  0
 11 36  1  0
 12 16  1  0
 12 13  1  0
 12 37  1  0
 13 14  1  0
 13 38  1  0
 13 39  1  0
 14 15  2  0
 14 40  1  0
 15 16  1  0
 15 41  1  0
 16 42  1  0
 16 43  1  0
 17 18  1  0
 17 19  1  0
 19 20  1  0
 19 44  1  0
 19 45  1  0
 20 25  1  0
 20 21  2  0
 21 22  1  0
 21 46  1  0
 22 23  2  0
 22 47  1  0
 23 24  1  0
 23 48  1  0
 24 25  2  0
 24 49  1  0
 25 50  1  0
 26 51  1  0
M  CHG  1  17   1
M  END
>  <DOCK_score>  (1) 
-41.140175

>  <SMILES>  (1) 
Cc1cc(O)cc(CNC(NC2CC=CC2)=[NH+]Cc2ccccc2)c1

$$$$
