CCc1ccc(-c2c[nH]c(N[C@@H](c3ccc(C4=CCC4)cc3)C3CC3)[nH+]2)cc1
     RDKit          3D

 56 60  0  0  1  0  0  0  0  0999 V2000
  130.0101  129.0534  151.2390 C   0  0  0  0  0  0  0  0  0  0  0  0
  131.3099  129.6641  151.7667 C   0  0  0  0  0  0  0  0  0  0  0  0
  131.0417  130.3632  153.0746 C   0  0  0  0  0  0  0  0  0  0  0  0
  131.1564  129.6667  154.2642 C   0  0  0  0  0  0  0  0  0  0  0  0
  130.9168  130.3030  155.4652 C   0  0  0  0  0  0  0  0  0  0  0  0
  130.5487  131.6471  155.4774 C   0  0  0  0  0  0  0  0  0  0  0  0
  130.2852  132.3354  156.7646 C   0  0  0  0  0  0  0  0  0  0  0  0
  129.8021  131.7596  157.8933 C   0  0  0  0  0  0  0  0  0  0  0  0
  129.7147  132.7507  158.8405 N   0  0  0  0  0  0  0  0  0  0  0  0
  129.4046  132.6468  159.7537 H   0  0  0  0  0  0  0  0  0  0  0  0
  130.1395  133.9060  158.2598 C   0  0  0  0  0  0  0  0  0  0  0  0
  130.2014  135.1434  158.8773 N   0  0  0  0  0  0  0  0  0  0  0  0
  129.2544  135.4781  159.9439 C   0  0  1  0  0  0  0  0  0  0  0  0
  129.1038  134.6076  160.5823 H   0  0  0  0  0  0  0  0  0  0  0  0
  129.8048  136.6147  160.7659 C   0  0  0  0  0  0  0  0  0  0  0  0
  130.0775  137.8306  160.1649 C   0  0  0  0  0  0  0  0  0  0  0  0
  130.5770  138.8769  160.9130 C   0  0  0  0  0  0  0  0  0  0  0  0
  130.8173  138.7032  162.2765 C   0  0  0  0  0  0  0  0  0  0  0  0
  131.3582  139.8178  163.0827 C   0  0  0  0  0  0  0  0  0  0  0  0
  131.6937  141.0553  162.7910 C   0  0  0  0  0  0  0  0  0  0  0  0
  132.1126  141.3825  164.1925 C   0  0  0  0  0  0  0  0  0  0  0  0
  131.7177  139.9512  164.5316 C   0  0  0  0  0  0  0  0  0  0  0  0
  130.5452  137.4727  162.8756 C   0  0  0  0  0  0  0  0  0  0  0  0
  130.0410  136.4361  162.1174 C   0  0  0  0  0  0  0  0  0  0  0  0
  127.9179  135.8955  159.3268 C   0  0  0  0  0  0  0  0  0  0  0  0
  126.6465  135.5852  160.1192 C   0  0  0  0  0  0  0  0  0  0  0  0
  126.9775  134.7828  158.8593 C   0  0  0  0  0  0  0  0  0  0  0  0
  130.4796  133.6538  157.0195 N   0  0  0  0  0  0  0  0  0  0  0  0
  130.8166  134.3056  156.3850 H   0  0  0  0  0  0  0  0  0  0  0  0
  130.4296  132.3425  154.2752 C   0  0  0  0  0  0  0  0  0  0  0  0
  130.6763  131.6973  153.0806 C   0  0  0  0  0  0  0  0  0  0  0  0
  129.6262  128.3348  151.9631 H   0  0  0  0  0  0  0  0  0  0  0  0
  129.2742  129.8424  151.0851 H   0  0  0  0  0  0  0  0  0  0  0  0
  130.2041  128.5477  150.2931 H   0  0  0  0  0  0  0  0  0  0  0  0
  132.0459  128.8751  151.9207 H   0  0  0  0  0  0  0  0  0  0  0  0
  131.6939  130.3828  151.0427 H   0  0  0  0  0  0  0  0  0  0  0  0
  131.4381  128.6242  154.2534 H   0  0  0  0  0  0  0  0  0  0  0  0
  131.0109  129.7594  156.3937 H   0  0  0  0  0  0  0  0  0  0  0  0
  129.5387  130.7203  158.0233 H   0  0  0  0  0  0  0  0  0  0  0  0
  130.8718  135.7889  158.6038 H   0  0  0  0  0  0  0  0  0  0  0  0
  129.8948  137.9625  159.1086 H   0  0  0  0  0  0  0  0  0  0  0  0
  130.7855  139.8268  160.4434 H   0  0  0  0  0  0  0  0  0  0  0  0
  131.6745  141.6274  161.8753 H   0  0  0  0  0  0  0  0  0  0  0  0
  133.1785  141.5853  164.2967 H   0  0  0  0  0  0  0  0  0  0  0  0
  131.4875  142.1345  164.6739 H   0  0  0  0  0  0  0  0  0  0  0  0
  130.8637  139.8786  165.2049 H   0  0  0  0  0  0  0  0  0  0  0  0
  132.5559  139.3243  164.8361 H   0  0  0  0  0  0  0  0  0  0  0  0
  130.7288  137.3322  163.9306 H   0  0  0  0  0  0  0  0  0  0  0  0
  129.8303  135.4832  162.5798 H   0  0  0  0  0  0  0  0  0  0  0  0
  127.9364  136.8167  158.7444 H   0  0  0  0  0  0  0  0  0  0  0  0
  126.7620  135.0838  161.0802 H   0  0  0  0  0  0  0  0  0  0  0  0
  125.8280  136.3025  160.0585 H   0  0  0  0  0  0  0  0  0  0  0  0
  126.3770  134.9722  157.9696 H   0  0  0  0  0  0  0  0  0  0  0  0
  127.3110  133.7534  158.9914 H   0  0  0  0  0  0  0  0  0  0  0  0
  130.1444  133.3841  154.2788 H   0  0  0  0  0  0  0  0  0  0  0  0
  130.5844  132.2351  152.1485 H   0  0  0  0  0  0  0  0  0  0  0  0
  1  2  1  0
  1 32  1  0
  1 33  1  0
  1 34  1  0
  2  3  1  0
  2 35  1  0
  2 36  1  0
  3 31  2  0
  3  4  1  0
  4  5  2  0
  4 37  1  0
  5  6  1  0
  5 38  1  0
  6  7  1  0
  6 30  2  0
  7 28  1  0
  7  8  2  0
  8  9  1  0
  8 39  1  0
  9 10  1  0
  9 11  1  0
 11 12  1  0
 11 28  2  0
 12 13  1  0
 12 40  1  0
 13 14  1  1
 13 15  1  0
 13 25  1  0
 15 24  1  0
 15 16  2  0
 16 17  1  0
 16 41  1  0
 17 18  2  0
 17 42  1  0
 18 19  1  0
 18 23  1  0
 19 22  1  0
 19 20  2  0
 20 21  1  0
 20 43  1  0
 21 22  1  0
 21 44  1  0
 21 45  1  0
 22 46  1  0
 22 47  1  0
 23 24  2  0
 23 48  1  0
 24 49  1  0
 25 27  1  0
 25 26  1  0
 25 50  1  0
 26 27  1  0
 26 51  1  0
 26 52  1  0
 27 53  1  0
 27 54  1  0
 28 29  1  0
 30 31  1  0
 30 55  1  0
 31 56  1  0
M  CHG  1  28   1
M  END
>  <DOCK_score>  (1) 
-58.881542

>  <SMILES>  (1) 
CCc1ccc(-c2c[nH]c(N[C@@H](c3ccc(C4=CCC4)cc3)C3CC3)[nH+]2)cc1

$$$$
