O[C@@H](C1=COCCC1)c1ccccc1C(C[NH2+]C1C=CCCC1)Nc1cccnc1
     RDKit          3D

 62 65  0  0  1  0  0  0  0  0999 V2000
  130.9750  138.3138  164.1808 O   0  0  0  0  0  0  0  0  0  0  0  0
  130.0060  137.8003  163.2646 C   0  0  1  0  0  0  0  0  0  0  0  0
  130.1973  136.7417  163.0890 H   0  0  0  0  0  0  0  0  0  0  0  0
  128.6257  137.9721  163.8444 C   0  0  0  0  0  0  0  0  0  0  0  0
  127.6973  137.1102  163.5235 C   0  0  0  0  0  0  0  0  0  0  0  0
  126.4281  137.1801  163.9824 O   0  0  0  0  0  0  0  0  0  0  0  0
  126.1790  138.0097  165.1206 C   0  0  0  0  0  0  0  0  0  0  0  0
  126.8589  139.3658  164.8852 C   0  0  0  0  0  0  0  0  0  0  0  0
  128.3704  139.1257  164.7757 C   0  0  0  0  0  0  0  0  0  0  0  0
  130.1002  138.5506  161.9610 C   0  0  0  0  0  0  0  0  0  0  0  0
  129.3433  139.6905  161.7633 C   0  0  0  0  0  0  0  0  0  0  0  0
  129.4299  140.3788  160.5679 C   0  0  0  0  0  0  0  0  0  0  0  0
  130.2732  139.9273  159.5697 C   0  0  0  0  0  0  0  0  0  0  0  0
  131.0332  138.7901  159.7691 C   0  0  0  0  0  0  0  0  0  0  0  0
  130.9429  138.0989  160.9630 C   0  0  0  0  0  0  0  0  0  0  0  0
  131.7679  136.8562  161.1785 C   0  0  1  0  0  0  0  0  0  0  0  0
  130.9775  135.6321  160.7122 C   0  0  0  0  0  0  0  0  0  0  0  0
  130.6613  135.7683  159.2841 N   0  0  0  0  0  0  0  0  0  0  0  0
  130.1089  136.6002  159.1399 H   0  0  0  0  0  0  0  0  0  0  0  0
  131.5177  135.8372  158.7550 H   0  0  0  0  0  0  0  0  0  0  0  0
  129.9024  134.5929  158.8364 C   0  0  1  0  0  0  0  0  0  0  0  0
  129.5690  134.7409  157.3807 C   0  0  0  0  0  0  0  0  0  0  0  0
  129.6590  133.7827  156.5151 C   0  0  0  0  0  0  0  0  0  0  0  0
  130.1184  132.3925  156.8442 C   0  0  0  0  0  0  0  0  0  0  0  0
  130.0495  132.1585  158.3549 C   0  0  0  0  0  0  0  0  0  0  0  0
  130.7424  133.3328  159.0565 C   0  0  0  0  0  0  0  0  0  0  0  0
  133.0114  136.9565  160.4105 N   0  0  0  0  0  0  0  0  0  0  0  0
  133.9042  138.0017  160.6597 C   0  0  0  0  0  0  0  0  0  0  0  0
  134.7109  138.5006  159.6393 C   0  0  0  0  0  0  0  0  0  0  0  0
  135.5839  139.5340  159.9367 C   0  0  0  0  0  0  0  0  0  0  0  0
  135.6271  140.0317  161.2261 C   0  0  0  0  0  0  0  0  0  0  0  0
  134.8501  139.5375  162.1697 N   0  0  0  0  0  0  0  0  0  0  0  0
  134.0047  138.5551  161.9295 C   0  0  0  0  0  0  0  0  0  0  0  0
  131.8880  138.2362  163.8721 H   0  0  0  0  0  0  0  0  0  0  0  0
  127.9577  136.3006  162.8578 H   0  0  0  0  0  0  0  0  0  0  0  0
  125.1054  138.1531  165.2430 H   0  0  0  0  0  0  0  0  0  0  0  0
  126.5914  137.5414  166.0143 H   0  0  0  0  0  0  0  0  0  0  0  0
  126.4849  139.8095  163.9625 H   0  0  0  0  0  0  0  0  0  0  0  0
  126.6526  140.0313  165.7235 H   0  0  0  0  0  0  0  0  0  0  0  0
  128.7775  138.8950  165.7602 H   0  0  0  0  0  0  0  0  0  0  0  0
  128.8517  140.0220  164.3844 H   0  0  0  0  0  0  0  0  0  0  0  0
  128.6845  140.0432  162.5430 H   0  0  0  0  0  0  0  0  0  0  0  0
  128.8387  141.2692  160.4135 H   0  0  0  0  0  0  0  0  0  0  0  0
  130.3408  140.4650  158.6355 H   0  0  0  0  0  0  0  0  0  0  0  0
  131.6951  138.4397  158.9910 H   0  0  0  0  0  0  0  0  0  0  0  0
  132.0025  136.7553  162.2381 H   0  0  0  0  0  0  0  0  0  0  0  0
  131.5743  134.7334  160.8681 H   0  0  0  0  0  0  0  0  0  0  0  0
  130.0524  135.5575  161.2837 H   0  0  0  0  0  0  0  0  0  0  0  0
  128.9801  134.5174  159.4125 H   0  0  0  0  0  0  0  0  0  0  0  0
  129.2335  135.7070  157.0337 H   0  0  0  0  0  0  0  0  0  0  0  0
  129.3861  133.9970  155.4923 H   0  0  0  0  0  0  0  0  0  0  0  0
  129.4780  131.6708  156.3371 H   0  0  0  0  0  0  0  0  0  0  0  0
  131.1469  132.2625  156.5072 H   0  0  0  0  0  0  0  0  0  0  0  0
  129.0074  132.1040  158.6700 H   0  0  0  0  0  0  0  0  0  0  0  0
  130.5602  131.2287  158.6053 H   0  0  0  0  0  0  0  0  0  0  0  0
  131.7374  133.4776  158.6355 H   0  0  0  0  0  0  0  0  0  0  0  0
  130.8194  133.1255  160.1237 H   0  0  0  0  0  0  0  0  0  0  0  0
  133.2150  136.2969  159.7289 H   0  0  0  0  0  0  0  0  0  0  0  0
  134.6569  138.0919  158.6412 H   0  0  0  0  0  0  0  0  0  0  0  0
  136.2238  139.9459  159.1704 H   0  0  0  0  0  0  0  0  0  0  0  0
  136.3066  140.8369  161.4633 H   0  0  0  0  0  0  0  0  0  0  0  0
  133.3844  138.1764  162.7284 H   0  0  0  0  0  0  0  0  0  0  0  0
  1  2  1  0
  1 34  1  0
  2  3  1  6
  2  4  1  0
  2 10  1  0
  4  9  1  0
  4  5  2  0
  5  6  1  0
  5 35  1  0
  6  7  1  0
  7  8  1  0
  7 36  1  0
  7 37  1  0
  8  9  1  0
  8 38  1  0
  8 39  1  0
  9 40  1  0
  9 41  1  0
 10 15  1  0
 10 11  2  0
 11 12  1  0
 11 42  1  0
 12 13  2  0
 12 43  1  0
 13 14  1  0
 13 44  1  0
 14 15  2  0
 14 45  1  0
 15 16  1  0
 16 17  1  0
 16 27  1  0
 16 46  1  1
 17 18  1  0
 17 47  1  0
 17 48  1  0
 18 19  1  0
 18 20  1  0
 18 21  1  0
 21 26  1  0
 21 22  1  0
 21 49  1  1
 22 23  2  0
 22 50  1  0
 23 24  1  0
 23 51  1  0
 24 25  1  0
 24 52  1  0
 24 53  1  0
 25 26  1  0
 25 54  1  0
 25 55  1  0
 26 56  1  0
 26 57  1  0
 27 28  1  0
 27 58  1  0
 28 33  1  0
 28 29  2  0
 29 30  1  0
 29 59  1  0
 30 31  2  0
 30 60  1  0
 31 32  1  0
 31 61  1  0
 32 33  2  0
 33 62  1  0
M  CHG  1  18   1
M  END
>  <DOCK_score>  (1) 
-53.348637

>  <SMILES>  (1) 
O[C@@H](C1=COCCC1)c1ccccc1C(C[NH2+]C1C=CCCC1)Nc1cccnc1

$$$$
