Oc1cc(C[NH+]=C(NCc2cncs2)NC2CC=CC2)cc(OC2CC=CC2)c1
     RDKit          3D

 56 59  0  0  1  0  0  0  0  0999 V2000
  124.5244  135.5271  163.2569 O   0  0  0  0  0  0  0  0  0  0  0  0
  125.7410  135.7180  163.8316 C   0  0  0  0  0  0  0  0  0  0  0  0
  126.7961  136.2116  163.0769 C   0  0  0  0  0  0  0  0  0  0  0  0
  128.0330  136.4057  163.6608 C   0  0  0  0  0  0  0  0  0  0  0  0
  129.1768  136.9423  162.8391 C   0  0  0  0  0  0  0  0  0  0  0  0
  129.2211  136.2465  161.5507 N   0  0  0  0  0  0  0  0  0  0  0  0
  128.5686  135.5578  161.3488 H   0  0  0  0  0  0  0  0  0  0  0  0
  130.1374  136.5528  160.6756 C   0  0  0  0  0  0  0  0  0  0  0  0
  131.0623  137.5289  160.9618 N   0  0  0  0  0  0  0  0  0  0  0  0
  132.0921  137.8732  159.9785 C   0  0  0  0  0  0  0  0  0  0  0  0
  132.9721  138.9633  160.5335 C   0  0  0  0  0  0  0  0  0  0  0  0
  134.0174  139.5211  159.9153 C   0  0  0  0  0  0  0  0  0  0  0  0
  134.6258  140.4609  160.6106 N   0  0  0  0  0  0  0  0  0  0  0  0
  134.1583  140.7197  161.7850 C   0  0  0  0  0  0  0  0  0  0  0  0
  132.8094  139.7223  162.1153 S   0  0  0  0  0  0  0  0  0  0  0  0
  130.1790  135.8997  159.4666 N   0  0  0  0  0  0  0  0  0  0  0  0
  129.1935  134.8595  159.1616 C   0  0  0  0  0  0  0  0  0  0  0  0
  129.4030  133.6166  160.0575 C   0  0  0  0  0  0  0  0  0  0  0  0
  129.1065  132.4399  159.1572 C   0  0  0  0  0  0  0  0  0  0  0  0
  129.1219  132.7937  157.9008 C   0  0  0  0  0  0  0  0  0  0  0  0
  129.4312  134.2655  157.7539 C   0  0  0  0  0  0  0  0  0  0  0  0
  128.2250  136.1033  164.9956 C   0  0  0  0  0  0  0  0  0  0  0  0
  127.1721  135.6145  165.7555 C   0  0  0  0  0  0  0  0  0  0  0  0
  127.3599  135.3224  167.0694 O   0  0  0  0  0  0  0  0  0  0  0  0
  127.7746  136.3938  167.9193 C   0  0  0  0  0  0  0  0  0  0  0  0
  129.0314  136.0036  168.7312 C   0  0  0  0  0  0  0  0  0  0  0  0
  128.8241  136.6384  170.0873 C   0  0  0  0  0  0  0  0  0  0  0  0
  127.5774  136.9849  170.2589 C   0  0  0  0  0  0  0  0  0  0  0  0
  126.7447  136.6385  169.0465 C   0  0  0  0  0  0  0  0  0  0  0  0
  125.9294  135.4186  165.1716 C   0  0  0  0  0  0  0  0  0  0  0  0
  124.4906  135.7636  162.3200 H   0  0  0  0  0  0  0  0  0  0  0  0
  126.6497  136.4446  162.0325 H   0  0  0  0  0  0  0  0  0  0  0  0
  130.1140  136.7807  163.3717 H   0  0  0  0  0  0  0  0  0  0  0  0
  129.0339  138.0098  162.6708 H   0  0  0  0  0  0  0  0  0  0  0  0
  131.0304  137.9925  161.8134 H   0  0  0  0  0  0  0  0  0  0  0  0
  132.6970  136.9926  159.7624 H   0  0  0  0  0  0  0  0  0  0  0  0
  131.6169  138.2214  159.0614 H   0  0  0  0  0  0  0  0  0  0  0  0
  134.3356  139.2280  158.9256 H   0  0  0  0  0  0  0  0  0  0  0  0
  134.5610  141.4587  162.4617 H   0  0  0  0  0  0  0  0  0  0  0  0
  130.8609  136.1277  158.8154 H   0  0  0  0  0  0  0  0  0  0  0  0
  128.1785  135.2451  159.2573 H   0  0  0  0  0  0  0  0  0  0  0  0
  130.4327  133.5734  160.4121 H   0  0  0  0  0  0  0  0  0  0  0  0
  128.7108  133.6345  160.8994 H   0  0  0  0  0  0  0  0  0  0  0  0
  128.9077  131.4377  159.5072 H   0  0  0  0  0  0  0  0  0  0  0  0
  128.9374  132.1227  157.0749 H   0  0  0  0  0  0  0  0  0  0  0  0
  128.7582  134.7243  157.0295 H   0  0  0  0  0  0  0  0  0  0  0  0
  130.4684  134.4088  157.4513 H   0  0  0  0  0  0  0  0  0  0  0  0
  129.1942  136.2514  165.4483 H   0  0  0  0  0  0  0  0  0  0  0  0
  127.9474  137.3027  167.3431 H   0  0  0  0  0  0  0  0  0  0  0  0
  129.1010  134.9200  168.8260 H   0  0  0  0  0  0  0  0  0  0  0  0
  129.9284  136.4026  168.2576 H   0  0  0  0  0  0  0  0  0  0  0  0
  129.6055  136.7867  170.8181 H   0  0  0  0  0  0  0  0  0  0  0  0
  127.1917  137.4574  171.1502 H   0  0  0  0  0  0  0  0  0  0  0  0
  126.0878  137.4686  168.7872 H   0  0  0  0  0  0  0  0  0  0  0  0
  126.1623  135.7357  169.2314 H   0  0  0  0  0  0  0  0  0  0  0  0
  125.1102  135.0348  165.7616 H   0  0  0  0  0  0  0  0  0  0  0  0
  1  2  1  0
  1 31  1  0
  2 30  2  0
  2  3  1  0
  3  4  2  0
  3 32  1  0
  4  5  1  0
  4 22  1  0
  5  6  1  0
  5 33  1  0
  5 34  1  0
  6  7  1  0
  8  6  2  0
  8  9  1  0
  8 16  1  0
  9 10  1  0
  9 35  1  0
 10 11  1  0
 10 36  1  0
 10 37  1  0
 11 15  1  0
 11 12  2  0
 12 13  1  0
 12 38  1  0
 13 14  2  0
 14 15  1  0
 14 39  1  0
 16 17  1  0
 16 40  1  0
 17 21  1  0
 17 18  1  0
 17 41  1  0
 18 19  1  0
 18 42  1  0
 18 43  1  0
 19 20  2  0
 19 44  1  0
 20 21  1  0
 20 45  1  0
 21 46  1  0
 21 47  1  0
 22 23  2  0
 22 48  1  0
 23 24  1  0
 23 30  1  0
 24 25  1  0
 25 29  1  0
 25 26  1  0
 25 49  1  0
 26 27  1  0
 26 50  1  0
 26 51  1  0
 27 28  2  0
 27 52  1  0
 28 29  1  0
 28 53  1  0
 29 54  1  0
 29 55  1  0
 30 56  1  0
M  CHG  1   6   1
M  END
>  <DOCK_score>  (1) 
-43.958282

>  <SMILES>  (1) 
Oc1cc(C[NH+]=C(NCc2cncs2)NC2CC=CC2)cc(OC2CC=CC2)c1

$$$$
