Cc1ccc(C[C@@H](CCl)N2CC[NH+](CC=Cc3ccccc3)CC2)cc1
     RDKit          3D

 56 58  0  0  1  0  0  0  0  0999 V2000
  130.1316  129.2989  151.3768 C   0  0  0  0  0  0  0  0  0  0  0  0
  130.3800  130.0610  152.6530 C   0  0  0  0  0  0  0  0  0  0  0  0
  131.1055  129.4789  153.6756 C   0  0  0  0  0  0  0  0  0  0  0  0
  131.3381  130.1800  154.8439 C   0  0  0  0  0  0  0  0  0  0  0  0
  130.8409  131.4614  154.9918 C   0  0  0  0  0  0  0  0  0  0  0  0
  131.0946  132.2258  156.2654 C   0  0  0  0  0  0  0  0  0  0  0  0
  129.9661  131.9476  157.2605 C   0  0  1  0  0  0  0  0  0  0  0  0
  129.0134  131.9209  156.7315 H   0  0  0  0  0  0  0  0  0  0  0  0
  130.2085  130.5999  157.9429 C   0  0  0  0  0  0  0  0  0  0  0  0
  128.8786  130.2720  159.1155 Cl  0  0  0  0  0  0  0  0  0  0  0  0
  129.9337  133.0107  158.2739 N   0  0  0  0  0  0  0  0  0  0  0  0
  129.1765  134.1746  157.7922 C   0  0  0  0  0  0  0  0  0  0  0  0
  129.1159  135.2324  158.8963 C   0  0  0  0  0  0  0  0  0  0  0  0
  130.4798  135.6329  159.2663 N   0  0  0  0  0  0  0  0  0  0  0  0
  130.9523  136.0051  158.4562 H   0  0  0  0  0  0  0  0  0  0  0  0
  130.4204  136.6613  160.3136 C   0  0  0  0  0  0  0  0  0  0  0  0
  131.7245  137.4155  160.3517 C   0  0  0  0  0  0  0  0  0  0  0  0
  132.1577  137.9332  161.4926 C   0  0  0  0  0  0  0  0  0  0  0  0
  133.4369  138.6728  161.5299 C   0  0  0  0  0  0  0  0  0  0  0  0
  134.3825  138.4887  160.5204 C   0  0  0  0  0  0  0  0  0  0  0  0
  135.5723  139.1864  160.5581 C   0  0  0  0  0  0  0  0  0  0  0  0
  135.8332  140.0589  161.5996 C   0  0  0  0  0  0  0  0  0  0  0  0
  134.9025  140.2414  162.6068 C   0  0  0  0  0  0  0  0  0  0  0  0
  133.7064  139.5539  162.5778 C   0  0  0  0  0  0  0  0  0  0  0  0
  131.2156  134.4651  159.7685 C   0  0  0  0  0  0  0  0  0  0  0  0
  131.2937  133.4009  158.6716 C   0  0  0  0  0  0  0  0  0  0  0  0
  130.1106  132.0414  153.9714 C   0  0  0  0  0  0  0  0  0  0  0  0
  129.8780  131.3402  152.8030 C   0  0  0  0  0  0  0  0  0  0  0  0
  129.2047  128.7326  151.4663 H   0  0  0  0  0  0  0  0  0  0  0  0
  130.0507  129.9992  150.5453 H   0  0  0  0  0  0  0  0  0  0  0  0
  130.9599  128.6139  151.1955 H   0  0  0  0  0  0  0  0  0  0  0  0
  131.4942  128.4779  153.5599 H   0  0  0  0  0  0  0  0  0  0  0  0
  131.9087  129.7269  155.6411 H   0  0  0  0  0  0  0  0  0  0  0  0
  132.0447  131.9095  156.6960 H   0  0  0  0  0  0  0  0  0  0  0  0
  131.1318  133.2931  156.0474 H   0  0  0  0  0  0  0  0  0  0  0  0
  130.2325  129.8110  157.1910 H   0  0  0  0  0  0  0  0  0  0  0  0
  131.1610  130.6265  158.4720 H   0  0  0  0  0  0  0  0  0  0  0  0
  129.6706  134.5924  156.9151 H   0  0  0  0  0  0  0  0  0  0  0  0
  128.1649  133.8664  157.5280 H   0  0  0  0  0  0  0  0  0  0  0  0
  128.6095  134.8187  159.7684 H   0  0  0  0  0  0  0  0  0  0  0  0
  128.5668  136.1024  158.5362 H   0  0  0  0  0  0  0  0  0  0  0  0
  129.6066  137.3535  160.0975 H   0  0  0  0  0  0  0  0  0  0  0  0
  130.2468  136.1868  161.2794 H   0  0  0  0  0  0  0  0  0  0  0  0
  132.3063  137.5340  159.4496 H   0  0  0  0  0  0  0  0  0  0  0  0
  131.5759  137.8147  162.3947 H   0  0  0  0  0  0  0  0  0  0  0  0
  134.1818  137.8046  159.7093 H   0  0  0  0  0  0  0  0  0  0  0  0
  136.3031  139.0481  159.7751 H   0  0  0  0  0  0  0  0  0  0  0  0
  136.7677  140.5996  161.6266 H   0  0  0  0  0  0  0  0  0  0  0  0
  135.1123  140.9237  163.4173 H   0  0  0  0  0  0  0  0  0  0  0  0
  132.9807  139.6973  163.3647 H   0  0  0  0  0  0  0  0  0  0  0  0
  130.6985  134.0553  160.6361 H   0  0  0  0  0  0  0  0  0  0  0  0
  132.2234  134.7662  160.0548 H   0  0  0  0  0  0  0  0  0  0  0  0
  131.8268  132.5283  159.0488 H   0  0  0  0  0  0  0  0  0  0  0  0
  131.8228  133.8059  157.8089 H   0  0  0  0  0  0  0  0  0  0  0  0
  129.7216  133.0421  154.0872 H   0  0  0  0  0  0  0  0  0  0  0  0
  129.3071  131.7932  152.0060 H   0  0  0  0  0  0  0  0  0  0  0  0
  1  2  1  0
  1 29  1  0
  1 30  1  0
  1 31  1  0
  2 28  2  0
  2  3  1  0
  3  4  2  0
  3 32  1  0
  4  5  1  0
  4 33  1  0
  5  6  1  0
  5 27  2  0
  6  7  1  0
  6 34  1  0
  6 35  1  0
  7  8  1  6
  7  9  1  0
  7 11  1  0
  9 10  1  0
  9 36  1  0
  9 37  1  0
 11 26  1  0
 11 12  1  0
 12 13  1  0
 12 38  1  0
 12 39  1  0
 13 14  1  0
 13 40  1  0
 13 41  1  0
 14 15  1  0
 14 16  1  0
 14 25  1  0
 16 17  1  0
 16 42  1  0
 16 43  1  0
 17 18  2  0
 17 44  1  0
 18 19  1  0
 18 45  1  0
 19 24  1  0
 19 20  2  0
 20 21  1  0
 20 46  1  0
 21 22  2  0
 21 47  1  0
 22 23  1  0
 22 48  1  0
 23 24  2  0
 23 49  1  0
 24 50  1  0
 25 26  1  0
 25 51  1  0
 25 52  1  0
 26 53  1  0
 26 54  1  0
 27 28  1  0
 27 55  1  0
 28 56  1  0
M  CHG  1  14   1
M  END
>  <DOCK_score>  (1) 
-55.973404

>  <SMILES>  (1) 
Cc1ccc(C[C@@H](CCl)N2CC[NH+](CC=Cc3ccccc3)CC2)cc1

$$$$
