CCc1ccc(-c2c[nH]c(N[C@H](c3ccccc3)c3ccc(Oc4ccccc4)cc3)[nH+]2)cc1
     RDKit          3D

 62 66  0  0  1  0  0  0  0  0999 V2000
  130.3669  128.1330  151.6678 C   0  0  0  0  0  0  0  0  0  0  0  0
  131.3487  129.2991  151.7973 C   0  0  0  0  0  0  0  0  0  0  0  0
  131.0681  130.0528  153.0717 C   0  0  0  0  0  0  0  0  0  0  0  0
  131.7063  129.6874  154.2430 C   0  0  0  0  0  0  0  0  0  0  0  0
  131.4574  130.3776  155.4119 C   0  0  0  0  0  0  0  0  0  0  0  0
  130.5524  131.4376  155.4130 C   0  0  0  0  0  0  0  0  0  0  0  0
  130.2766  132.1796  156.6674 C   0  0  0  0  0  0  0  0  0  0  0  0
  129.7802  131.6522  157.8139 C   0  0  0  0  0  0  0  0  0  0  0  0
  129.6820  132.6826  158.7169 N   0  0  0  0  0  0  0  0  0  0  0  0
  129.3589  132.6183  159.6292 H   0  0  0  0  0  0  0  0  0  0  0  0
  130.1216  133.8107  158.0952 C   0  0  0  0  0  0  0  0  0  0  0  0
  130.1840  135.0720  158.6626 N   0  0  0  0  0  0  0  0  0  0  0  0
  129.7540  135.2738  160.0486 C   0  0  2  0  0  0  0  0  0  0  0  0
  130.0873  134.4341  160.6584 H   0  0  0  0  0  0  0  0  0  0  0  0
  128.2507  135.3663  160.0996 C   0  0  0  0  0  0  0  0  0  0  0  0
  127.5697  134.9398  161.2242 C   0  0  0  0  0  0  0  0  0  0  0  0
  126.1911  135.0287  161.2726 C   0  0  0  0  0  0  0  0  0  0  0  0
  125.4928  135.5357  160.1928 C   0  0  0  0  0  0  0  0  0  0  0  0
  126.1734  135.9575  159.0660 C   0  0  0  0  0  0  0  0  0  0  0  0
  127.5523  135.8726  159.0192 C   0  0  0  0  0  0  0  0  0  0  0  0
  130.3542  136.5500  160.5799 C   0  0  0  0  0  0  0  0  0  0  0  0
  130.0717  137.7547  159.9628 C   0  0  0  0  0  0  0  0  0  0  0  0
  130.6168  138.9265  160.4509 C   0  0  0  0  0  0  0  0  0  0  0  0
  131.4571  138.8925  161.5546 C   0  0  0  0  0  0  0  0  0  0  0  0
  131.9993  140.0429  162.0329 O   0  0  0  0  0  0  0  0  0  0  0  0
  133.3201  140.0412  162.3521 C   0  0  0  0  0  0  0  0  0  0  0  0
  133.7243  139.7078  163.6369 C   0  0  0  0  0  0  0  0  0  0  0  0
  135.0680  139.7017  163.9573 C   0  0  0  0  0  0  0  0  0  0  0  0
  136.0093  140.0374  163.0018 C   0  0  0  0  0  0  0  0  0  0  0  0
  135.6089  140.3757  161.7221 C   0  0  0  0  0  0  0  0  0  0  0  0
  134.2667  140.3782  161.3952 C   0  0  0  0  0  0  0  0  0  0  0  0
  131.7430  137.6814  162.1686 C   0  0  0  0  0  0  0  0  0  0  0  0
  131.1909  136.5133  161.6801 C   0  0  0  0  0  0  0  0  0  0  0  0
  130.4814  133.5050  156.8726 N   0  0  0  0  0  0  0  0  0  0  0  0
  130.8353  134.1274  156.2181 H   0  0  0  0  0  0  0  0  0  0  0  0
  129.9078  131.7979  154.2309 C   0  0  0  0  0  0  0  0  0  0  0  0
  130.1685  131.1042  153.0667 C   0  0  0  0  0  0  0  0  0  0  0  0
  130.4846  127.4630  152.5194 H   0  0  0  0  0  0  0  0  0  0  0  0
  129.3470  128.5170  151.6458 H   0  0  0  0  0  0  0  0  0  0  0  0
  130.5697  127.5879  150.7458 H   0  0  0  0  0  0  0  0  0  0  0  0
  132.3683  128.9155  151.8189 H   0  0  0  0  0  0  0  0  0  0  0  0
  131.2307  129.9695  150.9452 H   0  0  0  0  0  0  0  0  0  0  0  0
  132.4038  128.8629  154.2419 H   0  0  0  0  0  0  0  0  0  0  0  0
  131.9600  130.0943  156.3249 H   0  0  0  0  0  0  0  0  0  0  0  0
  129.5131  130.6197  157.9843 H   0  0  0  0  0  0  0  0  0  0  0  0
  130.5125  135.8219  158.1426 H   0  0  0  0  0  0  0  0  0  0  0  0
  128.1151  134.5401  162.0665 H   0  0  0  0  0  0  0  0  0  0  0  0
  125.6593  134.6994  162.1532 H   0  0  0  0  0  0  0  0  0  0  0  0
  124.4154  135.6027  160.2296 H   0  0  0  0  0  0  0  0  0  0  0  0
  125.6279  136.3536  158.2223 H   0  0  0  0  0  0  0  0  0  0  0  0
  128.0842  136.2022  158.1389 H   0  0  0  0  0  0  0  0  0  0  0  0
  129.4215  137.7800  159.1010 H   0  0  0  0  0  0  0  0  0  0  0  0
  130.3926  139.8677  159.9711 H   0  0  0  0  0  0  0  0  0  0  0  0
  132.9892  139.4497  164.3848 H   0  0  0  0  0  0  0  0  0  0  0  0
  135.3833  139.4387  164.9561 H   0  0  0  0  0  0  0  0  0  0  0  0
  137.0591  140.0360  163.2555 H   0  0  0  0  0  0  0  0  0  0  0  0
  136.3460  140.6383  160.9778 H   0  0  0  0  0  0  0  0  0  0  0  0
  133.9545  140.6428  160.3956 H   0  0  0  0  0  0  0  0  0  0  0  0
  132.3972  137.6521  163.0276 H   0  0  0  0  0  0  0  0  0  0  0  0
  131.4132  135.5705  162.1577 H   0  0  0  0  0  0  0  0  0  0  0  0
  129.2053  132.6182  154.2261 H   0  0  0  0  0  0  0  0  0  0  0  0
  129.6700  131.3829  152.1501 H   0  0  0  0  0  0  0  0  0  0  0  0
  1  2  1  0
  1 38  1  0
  1 39  1  0
  1 40  1  0
  2  3  1  0
  2 41  1  0
  2 42  1  0
  3 37  2  0
  3  4  1  0
  4  5  2  0
  4 43  1  0
  5  6  1  0
  5 44  1  0
  6  7  1  0
  6 36  2  0
  7 34  1  0
  7  8  2  0
  8  9  1  0
  8 45  1  0
  9 10  1  0
  9 11  1  0
 11 12  1  0
 11 34  2  0
 12 13  1  0
 12 46  1  0
 13 14  1  1
 13 15  1  0
 13 21  1  0
 15 20  1  0
 15 16  2  0
 16 17  1  0
 16 47  1  0
 17 18  2  0
 17 48  1  0
 18 19  1  0
 18 49  1  0
 19 20  2  0
 19 50  1  0
 20 51  1  0
 21 33  1  0
 21 22  2  0
 22 23  1  0
 22 52  1  0
 23 24  2  0
 23 53  1  0
 24 25  1  0
 24 32  1  0
 25 26  1  0
 26 31  1  0
 26 27  2  0
 27 28  1  0
 27 54  1  0
 28 29  2  0
 28 55  1  0
 29 30  1  0
 29 56  1  0
 30 31  2  0
 30 57  1  0
 31 58  1  0
 32 33  2  0
 32 59  1  0
 33 60  1  0
 34 35  1  0
 36 37  1  0
 36 61  1  0
 37 62  1  0
M  CHG  1  34   1
M  END
>  <DOCK_score>  (1) 
-62.408058

>  <SMILES>  (1) 
CCc1ccc(-c2c[nH]c(N[C@H](c3ccccc3)c3ccc(Oc4ccccc4)cc3)[nH+]2)cc1

$$$$
