BrCCC[NH2+]Cc1c[nH]nc1-c1ccc(NCCc2cccc3ccccc23)o1
     RDKit          3D

 55 58  0  0  0  0  0  0  0  0999 V2000
  136.3119  139.6453  161.4019 Br  0  0  0  0  0  0  0  0  0  0  0  0
  134.4363  139.0948  161.6132 C   0  0  0  0  0  0  0  0  0  0  0  0
  134.1641  137.8665  160.7425 C   0  0  0  0  0  0  0  0  0  0  0  0
  132.7047  137.4381  160.9070 C   0  0  0  0  0  0  0  0  0  0  0  0
  132.4432  136.2588  160.0710 N   0  0  0  0  0  0  0  0  0  0  0  0
  133.0494  135.5040  160.3553 H   0  0  0  0  0  0  0  0  0  0  0  0
  132.6201  136.4860  159.1040 H   0  0  0  0  0  0  0  0  0  0  0  0
  131.0418  135.8474  160.2288 C   0  0  0  0  0  0  0  0  0  0  0  0
  130.7738  134.6376  159.3712 C   0  0  0  0  0  0  0  0  0  0  0  0
  131.6679  134.0137  158.5747 C   0  0  0  0  0  0  0  0  0  0  0  0
  131.0426  132.9771  157.9756 N   0  0  0  0  0  0  0  0  0  0  0  0
  131.4450  132.3548  157.3497 H   0  0  0  0  0  0  0  0  0  0  0  0
  129.7127  132.9556  158.4149 N   0  0  0  0  0  0  0  0  0  0  0  0
  129.5441  133.9555  159.2577 C   0  0  0  0  0  0  0  0  0  0  0  0
  128.2900  134.3001  159.9590 C   0  0  0  0  0  0  0  0  0  0  0  0
  127.1090  133.6363  159.8508 C   0  0  0  0  0  0  0  0  0  0  0  0
  126.1893  134.3007  160.6859 C   0  0  0  0  0  0  0  0  0  0  0  0
  126.8525  135.3346  161.2612 C   0  0  0  0  0  0  0  0  0  0  0  0
  126.3113  136.2474  162.1592 N   0  0  0  0  0  0  0  0  0  0  0  0
  127.1460  137.3203  162.7055 C   0  0  0  0  0  0  0  0  0  0  0  0
  126.3136  138.1775  163.6610 C   0  0  0  0  0  0  0  0  0  0  0  0
  127.1721  139.2812  164.2231 C   0  0  0  0  0  0  0  0  0  0  0  0
  127.2561  140.4778  163.5796 C   0  0  0  0  0  0  0  0  0  0  0  0
  128.0409  141.5115  164.0865 C   0  0  0  0  0  0  0  0  0  0  0  0
  128.7541  141.3516  165.2349 C   0  0  0  0  0  0  0  0  0  0  0  0
  128.6965  140.1287  165.9244 C   0  0  0  0  0  0  0  0  0  0  0  0
  129.4184  139.9265  167.1131 C   0  0  0  0  0  0  0  0  0  0  0  0
  129.3380  138.7287  167.7541 C   0  0  0  0  0  0  0  0  0  0  0  0
  128.5499  137.6959  167.2493 C   0  0  0  0  0  0  0  0  0  0  0  0
  127.8367  137.8556  166.1013 C   0  0  0  0  0  0  0  0  0  0  0  0
  127.8945  139.0785  165.4111 C   0  0  0  0  0  0  0  0  0  0  0  0
  128.1224  135.3247  160.8214 O   0  0  0  0  0  0  0  0  0  0  0  0
  133.7815  139.9102  161.3061 H   0  0  0  0  0  0  0  0  0  0  0  0
  134.2453  138.8491  162.6579 H   0  0  0  0  0  0  0  0  0  0  0  0
  134.8190  137.0510  161.0497 H   0  0  0  0  0  0  0  0  0  0  0  0
  134.3552  138.1121  159.6979 H   0  0  0  0  0  0  0  0  0  0  0  0
  132.0498  138.2535  160.5998 H   0  0  0  0  0  0  0  0  0  0  0  0
  132.5135  137.1924  161.9517 H   0  0  0  0  0  0  0  0  0  0  0  0
  130.3871  136.6629  159.9217 H   0  0  0  0  0  0  0  0  0  0  0  0
  130.8508  135.6018  161.2735 H   0  0  0  0  0  0  0  0  0  0  0  0
  132.7021  134.2944  158.4402 H   0  0  0  0  0  0  0  0  0  0  0  0
  126.9132  132.7661  159.2417 H   0  0  0  0  0  0  0  0  0  0  0  0
  125.1533  134.0368  160.8392 H   0  0  0  0  0  0  0  0  0  0  0  0
  125.3811  136.1738  162.4242 H   0  0  0  0  0  0  0  0  0  0  0  0
  127.9875  136.8867  163.2458 H   0  0  0  0  0  0  0  0  0  0  0  0
  127.5184  137.9414  161.8909 H   0  0  0  0  0  0  0  0  0  0  0  0
  125.4721  138.6111  163.1208 H   0  0  0  0  0  0  0  0  0  0  0  0
  125.9411  137.5565  164.4757 H   0  0  0  0  0  0  0  0  0  0  0  0
  126.7034  140.6294  162.6643 H   0  0  0  0  0  0  0  0  0  0  0  0
  128.0871  142.4524  163.5584 H   0  0  0  0  0  0  0  0  0  0  0  0
  129.3607  142.1606  165.6143 H   0  0  0  0  0  0  0  0  0  0  0  0
  130.0338  140.7175  167.5157 H   0  0  0  0  0  0  0  0  0  0  0  0
  129.8938  138.5759  168.6675 H   0  0  0  0  0  0  0  0  0  0  0  0
  128.5039  136.7550  167.7774 H   0  0  0  0  0  0  0  0  0  0  0  0
  127.2297  137.0467  165.7223 H   0  0  0  0  0  0  0  0  0  0  0  0
  1  2  1  0
  2  3  1  0
  2 33  1  0
  2 34  1  0
  3  4  1  0
  3 35  1  0
  3 36  1  0
  4  5  1  0
  4 37  1  0
  4 38  1  0
  5  6  1  0
  5  7  1  0
  5  8  1  0
  8  9  1  0
  8 39  1  0
  8 40  1  0
  9 14  1  0
  9 10  2  0
 10 11  1  0
 10 41  1  0
 11 12  1  0
 11 13  1  0
 13 14  2  0
 14 15  1  0
 15 32  1  0
 15 16  2  0
 16 17  1  0
 16 42  1  0
 17 18  2  0
 17 43  1  0
 18 19  1  0
 18 32  1  0
 19 20  1  0
 19 44  1  0
 20 21  1  0
 20 45  1  0
 20 46  1  0
 21 22  1  0
 21 47  1  0
 21 48  1  0
 22 31  1  0
 22 23  2  0
 23 24  1  0
 23 49  1  0
 24 25  2  0
 24 50  1  0
 25 26  1  0
 25 51  1  0
 26 31  2  0
 26 27  1  0
 27 28  2  0
 27 52  1  0
 28 29  1  0
 28 53  1  0
 29 30  2  0
 29 54  1  0
 30 31  1  0
 30 55  1  0
M  CHG  1   5   1
M  END
>  <DOCK_score>  (1) 
-43.959404

>  <SMILES>  (1) 
BrCCC[NH2+]Cc1c[nH]nc1-c1ccc(NCCc2cccc3ccccc23)o1

$$$$
