CC=Cc1c(N2CC[NH+](CCC3=CC[C@@H](Br)CC3)CC2)ccc2cc[nH]c12
     RDKit          3D

 58 61  0  0  1  0  0  0  0  0999 V2000
  124.4833  134.2063  161.2686 C   0  0  0  0  0  0  0  0  0  0  0  0
  125.7621  134.9457  161.5665 C   0  0  0  0  0  0  0  0  0  0  0  0
  126.3644  135.6420  160.6101 C   0  0  0  0  0  0  0  0  0  0  0  0
  127.6164  136.3661  160.9017 C   0  0  0  0  0  0  0  0  0  0  0  0
  128.7872  136.0607  160.2010 C   0  0  0  0  0  0  0  0  0  0  0  0
  128.7713  135.0668  159.2223 N   0  0  0  0  0  0  0  0  0  0  0  0
  129.0670  135.6282  157.8966 C   0  0  0  0  0  0  0  0  0  0  0  0
  128.9812  134.5192  156.8457 C   0  0  0  0  0  0  0  0  0  0  0  0
  129.9433  133.4586  157.1730 N   0  0  0  0  0  0  0  0  0  0  0  0
  130.8752  133.8449  157.1934 H   0  0  0  0  0  0  0  0  0  0  0  0
  129.8733  132.4028  156.1540 C   0  0  0  0  0  0  0  0  0  0  0  0
  130.6667  132.8332  154.9185 C   0  0  0  0  0  0  0  0  0  0  0  0
  130.5949  131.7501  153.8732 C   0  0  0  0  0  0  0  0  0  0  0  0
  130.0758  132.0477  152.7254 C   0  0  0  0  0  0  0  0  0  0  0  0
  129.9499  131.0819  151.5836 C   0  0  0  0  0  0  0  0  0  0  0  0
  130.1009  129.6460  152.0907 C   0  0  1  0  0  0  0  0  0  0  0  0
  129.2288  129.3697  152.6832 H   0  0  0  0  0  0  0  0  0  0  0  0
  130.2771  128.4210  150.5631 Br  0  0  0  0  0  0  0  0  0  0  0  0
  131.3614  129.5690  152.9614 C   0  0  0  0  0  0  0  0  0  0  0  0
  131.1245  130.3919  154.2296 C   0  0  0  0  0  0  0  0  0  0  0  0
  129.6202  132.8911  158.4887 C   0  0  0  0  0  0  0  0  0  0  0  0
  129.7113  133.9865  159.5533 C   0  0  0  0  0  0  0  0  0  0  0  0
  129.9698  136.7397  160.4793 C   0  0  0  0  0  0  0  0  0  0  0  0
  130.0021  137.7203  161.4300 C   0  0  0  0  0  0  0  0  0  0  0  0
  128.8457  138.0443  162.1450 C   0  0  0  0  0  0  0  0  0  0  0  0
  128.5448  139.0114  163.2050 C   0  0  0  0  0  0  0  0  0  0  0  0
  127.2451  138.8697  163.5069 C   0  0  0  0  0  0  0  0  0  0  0  0
  126.6902  137.8905  162.7261 N   0  0  0  0  0  0  0  0  0  0  0  0
  125.7627  137.6081  162.7621 H   0  0  0  0  0  0  0  0  0  0  0  0
  127.6426  137.3677  161.8844 C   0  0  0  0  0  0  0  0  0  0  0  0
  123.7225  134.9141  160.9393 H   0  0  0  0  0  0  0  0  0  0  0  0
  124.6622  133.4732  160.4820 H   0  0  0  0  0  0  0  0  0  0  0  0
  124.1401  133.6968  162.1689 H   0  0  0  0  0  0  0  0  0  0  0  0
  126.1887  134.9093  162.5579 H   0  0  0  0  0  0  0  0  0  0  0  0
  125.9378  135.6786  159.6185 H   0  0  0  0  0  0  0  0  0  0  0  0
  130.0712  136.0520  157.8969 H   0  0  0  0  0  0  0  0  0  0  0  0
  128.3430  136.4084  157.6619 H   0  0  0  0  0  0  0  0  0  0  0  0
  129.2141  134.9306  155.8635 H   0  0  0  0  0  0  0  0  0  0  0  0
  127.9730  134.1048  156.8362 H   0  0  0  0  0  0  0  0  0  0  0  0
  128.8328  132.2337  155.8768 H   0  0  0  0  0  0  0  0  0  0  0  0
  130.2968  131.4820  156.5552 H   0  0  0  0  0  0  0  0  0  0  0  0
  130.2433  133.7539  154.5173 H   0  0  0  0  0  0  0  0  0  0  0  0
  131.7072  133.0024  155.1957 H   0  0  0  0  0  0  0  0  0  0  0  0
  129.7138  133.0548  152.5792 H   0  0  0  0  0  0  0  0  0  0  0  0
  130.7247  131.2877  150.8450 H   0  0  0  0  0  0  0  0  0  0  0  0
  128.9698  131.2009  151.1217 H   0  0  0  0  0  0  0  0  0  0  0  0
  132.2108  129.9767  152.4134 H   0  0  0  0  0  0  0  0  0  0  0  0
  131.5623  128.5319  153.2298 H   0  0  0  0  0  0  0  0  0  0  0  0
  132.0646  130.5011  154.7704 H   0  0  0  0  0  0  0  0  0  0  0  0
  130.4015  129.8769  154.8623 H   0  0  0  0  0  0  0  0  0  0  0  0
  128.6088  132.4851  158.4708 H   0  0  0  0  0  0  0  0  0  0  0  0
  130.3270  132.0955  158.7245 H   0  0  0  0  0  0  0  0  0  0  0  0
  130.7262  134.3834  159.5808 H   0  0  0  0  0  0  0  0  0  0  0  0
  129.4571  133.5689  160.5275 H   0  0  0  0  0  0  0  0  0  0  0  0
  130.8693  136.4922  159.9353 H   0  0  0  0  0  0  0  0  0  0  0  0
  130.9250  138.2429  161.6335 H   0  0  0  0  0  0  0  0  0  0  0  0
  129.2377  139.7058  163.6569 H   0  0  0  0  0  0  0  0  0  0  0  0
  126.7157  139.4420  164.2542 H   0  0  0  0  0  0  0  0  0  0  0  0
  1  2  1  0
  1 31  1  0
  1 32  1  0
  1 33  1  0
  2  3  2  0
  2 34  1  0
  3  4  1  0
  3 35  1  0
  4 30  2  0
  4  5  1  0
  5  6  1  0
  5 23  2  0
  6 22  1  0
  6  7  1  0
  7  8  1  0
  7 36  1  0
  7 37  1  0
  8  9  1  0
  8 38  1  0
  8 39  1  0
  9 10  1  0
  9 11  1  0
  9 21  1  0
 11 12  1  0
 11 40  1  0
 11 41  1  0
 12 13  1  0
 12 42  1  0
 12 43  1  0
 13 20  1  0
 13 14  2  0
 14 15  1  0
 14 44  1  0
 15 16  1  0
 15 45  1  0
 15 46  1  0
 16 17  1  1
 16 18  1  0
 16 19  1  0
 19 20  1  0
 19 47  1  0
 19 48  1  0
 20 49  1  0
 20 50  1  0
 21 22  1  0
 21 51  1  0
 21 52  1  0
 22 53  1  0
 22 54  1  0
 23 24  1  0
 23 55  1  0
 24 25  2  0
 24 56  1  0
 25 30  1  0
 25 26  1  0
 26 27  2  0
 26 57  1  0
 27 28  1  0
 27 58  1  0
 28 29  1  0
 28 30  1  0
M  CHG  1   9   1
M  END
>  <DOCK_score>  (1) 
-43.228355

>  <SMILES>  (1) 
CC=Cc1c(N2CC[NH+](CCC3=CC[C@@H](Br)CC3)CC2)ccc2cc[nH]c12

$$$$
