Oc1cc(Cl)cc(C[NH+]=C(NCc2cncs2)NC2CC=CC2)c1
     RDKit          3D

 44 46  0  0  1  0  0  0  0  0999 V2000
  124.5942  135.5000  163.2169 O   0  0  0  0  0  0  0  0  0  0  0  0
  125.7993  135.7364  163.7989 C   0  0  0  0  0  0  0  0  0  0  0  0
  125.9767  135.4924  165.1530 C   0  0  0  0  0  0  0  0  0  0  0  0
  127.2034  135.7342  165.7425 C   0  0  0  0  0  0  0  0  0  0  0  0
  127.4267  135.4301  167.4370 Cl  0  0  0  0  0  0  0  0  0  0  0  0
  128.2553  136.2138  164.9814 C   0  0  0  0  0  0  0  0  0  0  0  0
  128.0783  136.4626  163.6333 C   0  0  0  0  0  0  0  0  0  0  0  0
  129.2238  136.9906  162.8085 C   0  0  0  0  0  0  0  0  0  0  0  0
  129.2968  136.2527  161.5451 N   0  0  0  0  0  0  0  0  0  0  0  0
  128.6585  135.5465  161.3583 H   0  0  0  0  0  0  0  0  0  0  0  0
  130.2160  136.5485  160.6697 C   0  0  0  0  0  0  0  0  0  0  0  0
  131.1172  137.5532  160.9321 N   0  0  0  0  0  0  0  0  0  0  0  0
  132.1504  137.8856  159.9482 C   0  0  0  0  0  0  0  0  0  0  0  0
  133.0015  139.0123  160.4748 C   0  0  0  0  0  0  0  0  0  0  0  0
  134.0418  139.5708  159.8487 C   0  0  0  0  0  0  0  0  0  0  0  0
  134.6229  140.5462  160.5177 N   0  0  0  0  0  0  0  0  0  0  0  0
  134.1371  140.8348  161.6777 C   0  0  0  0  0  0  0  0  0  0  0  0
  132.8056  139.8210  162.0280 S   0  0  0  0  0  0  0  0  0  0  0  0
  130.2847  135.8558  159.4841 N   0  0  0  0  0  0  0  0  0  0  0  0
  129.3245  134.7853  159.2047 C   0  0  0  0  0  0  0  0  0  0  0  0
  129.5500  133.5782  160.1446 C   0  0  0  0  0  0  0  0  0  0  0  0
  129.2880  132.3656  159.2820 C   0  0  0  0  0  0  0  0  0  0  0  0
  129.3098  132.6768  158.0145 C   0  0  0  0  0  0  0  0  0  0  0  0
  129.5899  134.1489  157.8206 C   0  0  0  0  0  0  0  0  0  0  0  0
  126.8538  136.2224  163.0398 C   0  0  0  0  0  0  0  0  0  0  0  0
  124.5680  135.7002  162.2711 H   0  0  0  0  0  0  0  0  0  0  0  0
  125.1571  135.1144  165.7461 H   0  0  0  0  0  0  0  0  0  0  0  0
  129.2144  136.3980  165.4423 H   0  0  0  0  0  0  0  0  0  0  0  0
  130.1563  136.8631  163.3582 H   0  0  0  0  0  0  0  0  0  0  0  0
  129.0653  138.0492  162.6024 H   0  0  0  0  0  0  0  0  0  0  0  0
  131.0688  138.0419  161.7686 H   0  0  0  0  0  0  0  0  0  0  0  0
  132.7759  137.0112  159.7686 H   0  0  0  0  0  0  0  0  0  0  0  0
  131.6783  138.1925  159.0150 H   0  0  0  0  0  0  0  0  0  0  0  0
  134.3768  139.2509  158.8731 H   0  0  0  0  0  0  0  0  0  0  0  0
  134.5170  141.6046  162.3329 H   0  0  0  0  0  0  0  0  0  0  0  0
  130.9688  136.0761  158.8326 H   0  0  0  0  0  0  0  0  0  0  0  0
  128.3007  135.1522  159.2768 H   0  0  0  0  0  0  0  0  0  0  0  0
  130.5764  133.5689  160.5112 H   0  0  0  0  0  0  0  0  0  0  0  0
  128.8484  133.6099  160.9783 H   0  0  0  0  0  0  0  0  0  0  0  0
  129.1062  131.3719  159.6640 H   0  0  0  0  0  0  0  0  0  0  0  0
  129.1485  131.9744  157.2101 H   0  0  0  0  0  0  0  0  0  0  0  0
  128.9157  134.5686  157.0741 H   0  0  0  0  0  0  0  0  0  0  0  0
  130.6273  134.3040  157.5240 H   0  0  0  0  0  0  0  0  0  0  0  0
  126.7177  136.4133  161.9855 H   0  0  0  0  0  0  0  0  0  0  0  0
  1  2  1  0
  1 26  1  0
  2 25  2  0
  2  3  1  0
  3  4  2  0
  3 27  1  0
  4  5  1  0
  4  6  1  0
  6  7  2  0
  6 28  1  0
  7  8  1  0
  7 25  1  0
  8  9  1  0
  8 29  1  0
  8 30  1  0
  9 10  1  0
 11  9  2  0
 11 12  1  0
 11 19  1  0
 12 13  1  0
 12 31  1  0
 13 14  1  0
 13 32  1  0
 13 33  1  0
 14 18  1  0
 14 15  2  0
 15 16  1  0
 15 34  1  0
 16 17  2  0
 17 18  1  0
 17 35  1  0
 19 20  1  0
 19 36  1  0
 20 24  1  0
 20 21  1  0
 20 37  1  0
 21 22  1  0
 21 38  1  0
 21 39  1  0
 22 23  2  0
 22 40  1  0
 23 24  1  0
 23 41  1  0
 24 42  1  0
 24 43  1  0
 25 44  1  0
M  CHG  1   9   1
M  END
>  <DOCK_score>  (1) 
-41.889713

>  <SMILES>  (1) 
Oc1cc(Cl)cc(C[NH+]=C(NCc2cncs2)NC2CC=CC2)c1

$$$$
