CC=CNc1cccc(N2CC[NH+](C(c3ccccc3)c3ccccc3)CC2)c1CO
     RDKit          3D

 63 66  0  0  1  0  0  0  0  0999 V2000
  134.9649  142.1537  166.4379 C   0  0  0  0  0  0  0  0  0  0  0  0
  135.6204  141.0283  165.6799 C   0  0  0  0  0  0  0  0  0  0  0  0
  135.1555  140.6701  164.4973 C   0  0  0  0  0  0  0  0  0  0  0  0
  135.7599  139.6323  163.7984 N   0  0  0  0  0  0  0  0  0  0  0  0
  135.2680  139.2532  162.5470 C   0  0  0  0  0  0  0  0  0  0  0  0
  135.7634  139.8516  161.3942 C   0  0  0  0  0  0  0  0  0  0  0  0
  135.2776  139.4772  160.1566 C   0  0  0  0  0  0  0  0  0  0  0  0
  134.2988  138.5066  160.0597 C   0  0  0  0  0  0  0  0  0  0  0  0
  133.7995  137.9041  161.2080 C   0  0  0  0  0  0  0  0  0  0  0  0
  132.8098  136.9235  161.1092 N   0  0  0  0  0  0  0  0  0  0  0  0
  133.3078  135.7433  160.3885 C   0  0  0  0  0  0  0  0  0  0  0  0
  132.2157  134.6719  160.3541 C   0  0  0  0  0  0  0  0  0  0  0  0
  131.0239  135.2090  159.6846 N   0  0  0  0  0  0  0  0  0  0  0  0
  131.2634  135.4891  158.7453 H   0  0  0  0  0  0  0  0  0  0  0  0
  129.9821  134.1743  159.6357 C   0  0  0  0  0  0  0  0  0  0  0  0
  128.7590  134.7250  158.9487 C   0  0  0  0  0  0  0  0  0  0  0  0
  127.5046  134.2530  159.2876 C   0  0  0  0  0  0  0  0  0  0  0  0
  126.3824  134.7615  158.6609 C   0  0  0  0  0  0  0  0  0  0  0  0
  126.5151  135.7344  157.6879 C   0  0  0  0  0  0  0  0  0  0  0  0
  127.7699  136.2026  157.3453 C   0  0  0  0  0  0  0  0  0  0  0  0
  128.8918  135.6978  157.9757 C   0  0  0  0  0  0  0  0  0  0  0  0
  130.4941  132.9816  158.8700 C   0  0  0  0  0  0  0  0  0  0  0  0
  130.3031  132.9038  157.5031 C   0  0  0  0  0  0  0  0  0  0  0  0
  130.7770  131.8121  156.8000 C   0  0  0  0  0  0  0  0  0  0  0  0
  131.4328  130.7932  157.4652 C   0  0  0  0  0  0  0  0  0  0  0  0
  131.6193  130.8685  158.8329 C   0  0  0  0  0  0  0  0  0  0  0  0
  131.1500  131.9628  159.5352 C   0  0  0  0  0  0  0  0  0  0  0  0
  130.5238  136.3721  160.4294 C   0  0  0  0  0  0  0  0  0  0  0  0
  131.6019  137.4575  160.4644 C   0  0  0  0  0  0  0  0  0  0  0  0
  134.2847  138.2783  162.4532 C   0  0  0  0  0  0  0  0  0  0  0  0
  133.7449  137.6279  163.7009 C   0  0  0  0  0  0  0  0  0  0  0  0
  132.6236  138.3731  164.1797 O   0  0  0  0  0  0  0  0  0  0  0  0
  135.4828  142.3041  167.3851 H   0  0  0  0  0  0  0  0  0  0  0  0
  135.0160  143.0681  165.8467 H   0  0  0  0  0  0  0  0  0  0  0  0
  133.9215  141.9034  166.6299 H   0  0  0  0  0  0  0  0  0  0  0  0
  136.4705  140.5147  166.1041 H   0  0  0  0  0  0  0  0  0  0  0  0
  134.3054  141.1836  164.0732 H   0  0  0  0  0  0  0  0  0  0  0  0
  136.5235  139.1709  164.1795 H   0  0  0  0  0  0  0  0  0  0  0  0
  136.5287  140.6102  161.4664 H   0  0  0  0  0  0  0  0  0  0  0  0
  135.6638  139.9439  159.2625 H   0  0  0  0  0  0  0  0  0  0  0  0
  133.9182  138.2192  159.0907 H   0  0  0  0  0  0  0  0  0  0  0  0
  133.5735  136.0246  159.3696 H   0  0  0  0  0  0  0  0  0  0  0  0
  134.1872  135.3499  160.8986 H   0  0  0  0  0  0  0  0  0  0  0  0
  131.9599  134.3810  161.3730 H   0  0  0  0  0  0  0  0  0  0  0  0
  132.5780  133.8012  159.8078 H   0  0  0  0  0  0  0  0  0  0  0  0
  129.7233  133.8710  160.6501 H   0  0  0  0  0  0  0  0  0  0  0  0
  127.4012  133.4898  160.0446 H   0  0  0  0  0  0  0  0  0  0  0  0
  125.4020  134.3955  158.9283 H   0  0  0  0  0  0  0  0  0  0  0  0
  125.6386  136.1285  157.1950 H   0  0  0  0  0  0  0  0  0  0  0  0
  127.8737  136.9624  156.5848 H   0  0  0  0  0  0  0  0  0  0  0  0
  129.8720  136.0633  157.7078 H   0  0  0  0  0  0  0  0  0  0  0  0
  129.7868  133.6978  156.9840 H   0  0  0  0  0  0  0  0  0  0  0  0
  130.6310  131.7531  155.7315 H   0  0  0  0  0  0  0  0  0  0  0  0
  131.7993  129.9382  156.9165 H   0  0  0  0  0  0  0  0  0  0  0  0
  132.1314  130.0723  159.3527 H   0  0  0  0  0  0  0  0  0  0  0  0
  131.2954  132.0214  160.6037 H   0  0  0  0  0  0  0  0  0  0  0  0
  130.2767  136.0723  161.4478 H   0  0  0  0  0  0  0  0  0  0  0  0
  129.6319  136.7615  159.9389 H   0  0  0  0  0  0  0  0  0  0  0  0
  131.2365  138.3147  161.0298 H   0  0  0  0  0  0  0  0  0  0  0  0
  131.8394  137.7670  159.4467 H   0  0  0  0  0  0  0  0  0  0  0  0
  133.4332  136.6084  163.4732 H   0  0  0  0  0  0  0  0  0  0  0  0
  134.5215  137.6082  164.4655 H   0  0  0  0  0  0  0  0  0  0  0  0
  131.8926  138.4321  163.5493 H   0  0  0  0  0  0  0  0  0  0  0  0
  1  2  1  0
  1 33  1  0
  1 34  1  0
  1 35  1  0
  2  3  2  0
  2 36  1  0
  3  4  1  0
  3 37  1  0
  4  5  1  0
  4 38  1  0
  5 30  2  0
  5  6  1  0
  6  7  2  0
  6 39  1  0
  7  8  1  0
  7 40  1  0
  8  9  2  0
  8 41  1  0
  9 10  1  0
  9 30  1  0
 10 29  1  0
 10 11  1  0
 11 12  1  0
 11 42  1  0
 11 43  1  0
 12 13  1  0
 12 44  1  0
 12 45  1  0
 13 14  1  0
 13 15  1  0
 13 28  1  0
 15 16  1  0
 15 22  1  0
 15 46  1  0
 16 21  1  0
 16 17  2  0
 17 18  1  0
 17 47  1  0
 18 19  2  0
 18 48  1  0
 19 20  1  0
 19 49  1  0
 20 21  2  0
 20 50  1  0
 21 51  1  0
 22 27  1  0
 22 23  2  0
 23 24  1  0
 23 52  1  0
 24 25  2  0
 24 53  1  0
 25 26  1  0
 25 54  1  0
 26 27  2  0
 26 55  1  0
 27 56  1  0
 28 29  1  0
 28 57  1  0
 28 58  1  0
 29 59  1  0
 29 60  1  0
 30 31  1  0
 31 32  1  0
 31 61  1  0
 31 62  1  0
 32 63  1  0
M  CHG  1  13   1
M  END
>  <DOCK_score>  (1) 
-57.172512

>  <SMILES>  (1) 
CC=CNc1cccc(N2CC[NH+](C(c3ccccc3)c3ccccc3)CC2)c1CO

$$$$
