Fc1ccc([C@H]2C[C@H](Nc3ccc(-c4n[nH]cc4C[NH2+]CC4CC(C5CC5)C4)o3)C2)c(F)c1
     RDKit          3D

 64 69  0  0  1  0  0  0  0  0999 V2000
  127.9503  140.5904  169.2951 F   0  0  0  0  0  0  0  0  0  0  0  0
  127.6687  139.8869  168.1766 C   0  0  0  0  0  0  0  0  0  0  0  0
  126.7635  138.8396  168.2267 C   0  0  0  0  0  0  0  0  0  0  0  0
  126.4714  138.1229  167.0819 C   0  0  0  0  0  0  0  0  0  0  0  0
  127.0906  138.4426  165.8883 C   0  0  0  0  0  0  0  0  0  0  0  0
  126.7756  137.6562  164.6420 C   0  0  1  0  0  0  0  0  0  0  0  0
  126.0464  136.8645  164.8139 H   0  0  0  0  0  0  0  0  0  0  0  0
  126.4535  138.5365  163.4206 C   0  0  0  0  0  0  0  0  0  0  0  0
  127.2669  137.5344  162.5846 C   0  0  2  0  0  0  0  0  0  0  0  0
  127.8914  138.0049  161.8252 H   0  0  0  0  0  0  0  0  0  0  0  0
  126.4682  136.4254  162.0571 N   0  0  0  0  0  0  0  0  0  0  0  0
  127.0712  135.4415  161.2821 C   0  0  0  0  0  0  0  0  0  0  0  0
  126.4461  134.3684  160.7370 C   0  0  0  0  0  0  0  0  0  0  0  0
  127.4238  133.6359  160.0351 C   0  0  0  0  0  0  0  0  0  0  0  0
  128.5991  134.3010  160.1879 C   0  0  0  0  0  0  0  0  0  0  0  0
  129.9023  133.8970  159.6207 C   0  0  0  0  0  0  0  0  0  0  0  0
  130.1281  132.8336  158.8746 N   0  0  0  0  0  0  0  0  0  0  0  0
  131.4895  132.8150  158.5453 N   0  0  0  0  0  0  0  0  0  0  0  0
  131.9347  132.1440  158.0043 H   0  0  0  0  0  0  0  0  0  0  0  0
  132.0751  133.8923  159.1115 C   0  0  0  0  0  0  0  0  0  0  0  0
  131.1247  134.5838  159.7765 C   0  0  0  0  0  0  0  0  0  0  0  0
  131.3337  135.8597  160.5506 C   0  0  0  0  0  0  0  0  0  0  0  0
  131.1331  137.0109  159.6602 N   0  0  0  0  0  0  0  0  0  0  0  0
  131.7944  136.9670  158.8994 H   0  0  0  0  0  0  0  0  0  0  0  0
  130.1942  136.9913  159.2914 H   0  0  0  0  0  0  0  0  0  0  0  0
  131.3367  138.2547  160.4148 C   0  0  0  0  0  0  0  0  0  0  0  0
  132.7604  138.2845  160.9743 C   0  0  2  0  0  0  0  0  0  0  0  0
  133.2682  139.7011  161.2913 C   0  0  0  0  0  0  0  0  0  0  0  0
  134.6259  139.2569  160.7217 C   0  0  2  0  0  0  0  0  0  0  0  0
  135.3175  140.3279  159.8758 C   0  0  0  0  0  0  0  0  0  0  0  0
  136.8475  140.3484  159.8752 C   0  0  0  0  0  0  0  0  0  0  0  0
  136.0680  141.4370  160.6158 C   0  0  0  0  0  0  0  0  0  0  0  0
  133.8498  138.2217  159.8906 C   0  0  0  0  0  0  0  0  0  0  0  0
  128.3705  135.3968  160.9420 O   0  0  0  0  0  0  0  0  0  0  0  0
  128.0247  137.1876  163.8770 C   0  0  0  0  0  0  0  0  0  0  0  0
  127.9959  139.4889  165.8359 C   0  0  0  0  0  0  0  0  0  0  0  0
  128.5965  139.8050  164.6677 F   0  0  0  0  0  0  0  0  0  0  0  0
  128.2850  140.2112  166.9809 C   0  0  0  0  0  0  0  0  0  0  0  0
  126.2821  138.5863  169.1597 H   0  0  0  0  0  0  0  0  0  0  0  0
  125.7618  137.3096  167.1208 H   0  0  0  0  0  0  0  0  0  0  0  0
  126.9003  139.5296  163.4683 H   0  0  0  0  0  0  0  0  0  0  0  0
  125.3941  138.5596  163.1652 H   0  0  0  0  0  0  0  0  0  0  0  0
  125.5185  136.3776  162.2487 H   0  0  0  0  0  0  0  0  0  0  0  0
  125.3981  134.1223  160.8241 H   0  0  0  0  0  0  0  0  0  0  0  0
  127.2690  132.7211  159.4822 H   0  0  0  0  0  0  0  0  0  0  0  0
  133.1197  134.1571  159.0409 H   0  0  0  0  0  0  0  0  0  0  0  0
  130.6193  135.9073  161.3725 H   0  0  0  0  0  0  0  0  0  0  0  0
  132.3480  135.8809  160.9490 H   0  0  0  0  0  0  0  0  0  0  0  0
  131.1880  139.1089  159.7544 H   0  0  0  0  0  0  0  0  0  0  0  0
  130.6224  138.3022  161.2367 H   0  0  0  0  0  0  0  0  0  0  0  0
  132.9111  137.5734  161.7865 H   0  0  0  0  0  0  0  0  0  0  0  0
  132.7824  140.4806  160.7045 H   0  0  0  0  0  0  0  0  0  0  0  0
  133.2950  139.9270  162.3573 H   0  0  0  0  0  0  0  0  0  0  0  0
  135.2872  138.8126  161.4655 H   0  0  0  0  0  0  0  0  0  0  0  0
  134.8100  140.5953  158.9490 H   0  0  0  0  0  0  0  0  0  0  0  0
  137.3612  139.5991  160.4774 H   0  0  0  0  0  0  0  0  0  0  0  0
  137.3466  140.6294  158.9478 H   0  0  0  0  0  0  0  0  0  0  0  0
  136.0544  142.4341  160.1757 H   0  0  0  0  0  0  0  0  0  0  0  0
  136.0689  141.4038  161.7053 H   0  0  0  0  0  0  0  0  0  0  0  0
  134.3457  137.2533  159.8257 H   0  0  0  0  0  0  0  0  0  0  0  0
  133.5224  138.5955  158.9203 H   0  0  0  0  0  0  0  0  0  0  0  0
  128.2320  136.1236  163.9896 H   0  0  0  0  0  0  0  0  0  0  0  0
  128.9027  137.8103  164.0489 H   0  0  0  0  0  0  0  0  0  0  0  0
  128.9914  141.0273  166.9412 H   0  0  0  0  0  0  0  0  0  0  0  0
  1  2  1  0
  2 38  2  0
  2  3  1  0
  3  4  2  0
  3 39  1  0
  4  5  1  0
  4 40  1  0
  5  6  1  0
  5 36  2  0
  6  7  1  1
  6 35  1  0
  6  8  1  0
  8  9  1  0
  8 41  1  0
  8 42  1  0
  9 10  1  6
  9 11  1  0
  9 35  1  0
 11 12  1  0
 11 43  1  0
 12 34  1  0
 12 13  2  0
 13 14  1  0
 13 44  1  0
 14 15  2  0
 14 45  1  0
 15 16  1  0
 15 34  1  0
 16 21  1  0
 16 17  2  0
 17 18  1  0
 18 19  1  0
 18 20  1  0
 20 21  2  0
 20 46  1  0
 21 22  1  0
 22 23  1  0
 22 47  1  0
 22 48  1  0
 23 24  1  0
 23 25  1  0
 23 26  1  0
 26 27  1  0
 26 49  1  0
 26 50  1  0
 27 33  1  0
 27 28  1  0
 27 51  1  1
 28 29  1  0
 28 52  1  0
 28 53  1  0
 29 30  1  0
 29 33  1  0
 29 54  1  1
 30 32  1  0
 30 31  1  0
 30 55  1  0
 31 32  1  0
 31 56  1  0
 31 57  1  0
 32 58  1  0
 32 59  1  0
 33 60  1  0
 33 61  1  0
 35 62  1  0
 35 63  1  0
 36 37  1  0
 36 38  1  0
 38 64  1  0
M  CHG  1  23   1
M  END
>  <DOCK_score>  (1) 
-46.893944

>  <SMILES>  (1) 
Fc1ccc([C@H]2C[C@H](Nc3ccc(-c4n[nH]cc4C[NH2+]CC4CC(C5CC5)C4)o3)C2)c(F)c1

$$$$
