CCc1ccc(-c2c[nH]c(N[C@@H](CC3=CCCC3)c3ccnn3C)[nH+]2)cc1
     RDKit          3D

 55 58  0  0  1  0  0  0  0  0999 V2000
  129.9730  128.7527  151.3280 C   0  0  0  0  0  0  0  0  0  0  0  0
  131.1569  129.6493  151.6954 C   0  0  0  0  0  0  0  0  0  0  0  0
  130.8591  130.3716  152.9841 C   0  0  0  0  0  0  0  0  0  0  0  0
  131.2145  129.8003  154.1921 C   0  0  0  0  0  0  0  0  0  0  0  0
  130.9487  130.4594  155.3751 C   0  0  0  0  0  0  0  0  0  0  0  0
  130.3111  131.6986  155.3514 C   0  0  0  0  0  0  0  0  0  0  0  0
  130.0181  132.4095  156.6198 C   0  0  0  0  0  0  0  0  0  0  0  0
  129.2487  131.9452  157.6354 C   0  0  0  0  0  0  0  0  0  0  0  0
  129.2450  132.9152  158.6082 N   0  0  0  0  0  0  0  0  0  0  0  0
  128.7805  132.8740  159.4587 H   0  0  0  0  0  0  0  0  0  0  0  0
  130.0129  133.9448  158.1581 C   0  0  0  0  0  0  0  0  0  0  0  0
  130.2656  135.1213  158.8423 N   0  0  0  0  0  0  0  0  0  0  0  0
  129.6845  135.3359  160.1700 C   0  0  1  0  0  0  0  0  0  0  0  0
  130.0316  134.5567  160.8487 H   0  0  0  0  0  0  0  0  0  0  0  0
  130.1167  136.7043  160.7008 C   0  0  0  0  0  0  0  0  0  0  0  0
  129.5189  136.9248  162.0665 C   0  0  0  0  0  0  0  0  0  0  0  0
  129.7404  136.1612  163.1015 C   0  0  0  0  0  0  0  0  0  0  0  0
  128.9910  136.6590  164.3155 C   0  0  0  0  0  0  0  0  0  0  0  0
  127.9289  137.6306  163.7507 C   0  0  0  0  0  0  0  0  0  0  0  0
  128.5896  138.0630  162.4191 C   0  0  0  0  0  0  0  0  0  0  0  0
  128.1814  135.2859  160.0745 C   0  0  0  0  0  0  0  0  0  0  0  0
  127.4020  136.1009  159.3267 C   0  0  0  0  0  0  0  0  0  0  0  0
  126.0702  135.7198  159.5207 C   0  0  0  0  0  0  0  0  0  0  0  0
  126.0508  134.7122  160.3552 N   0  0  0  0  0  0  0  0  0  0  0  0
  127.3719  134.4166  160.7150 N   0  0  0  0  0  0  0  0  0  0  0  0
  127.7992  133.3536  161.6281 C   0  0  0  0  0  0  0  0  0  0  0  0
  130.4772  133.6367  156.9717 N   0  0  0  0  0  0  0  0  0  0  0  0
  131.0553  134.1974  156.4310 H   0  0  0  0  0  0  0  0  0  0  0  0
  129.9505  132.2674  154.1312 C   0  0  0  0  0  0  0  0  0  0  0  0
  130.2260  131.6017  152.9542 C   0  0  0  0  0  0  0  0  0  0  0  0
  129.0789  129.3635  151.2039 H   0  0  0  0  0  0  0  0  0  0  0  0
  130.1885  128.2302  150.3959 H   0  0  0  0  0  0  0  0  0  0  0  0
  129.8085  128.0250  152.1227 H   0  0  0  0  0  0  0  0  0  0  0  0
  132.0510  129.0389  151.8192 H   0  0  0  0  0  0  0  0  0  0  0  0
  131.3213  130.3776  150.9004 H   0  0  0  0  0  0  0  0  0  0  0  0
  131.7046  128.8379  154.2096 H   0  0  0  0  0  0  0  0  0  0  0  0
  131.2308  130.0141  156.3178 H   0  0  0  0  0  0  0  0  0  0  0  0
  128.7367  130.9951  157.6724 H   0  0  0  0  0  0  0  0  0  0  0  0
  130.8272  135.8037  158.4428 H   0  0  0  0  0  0  0  0  0  0  0  0
  131.2038  136.7404  160.7699 H   0  0  0  0  0  0  0  0  0  0  0  0
  129.7696  137.4833  160.0221 H   0  0  0  0  0  0  0  0  0  0  0  0
  130.3757  135.2877  163.0915 H   0  0  0  0  0  0  0  0  0  0  0  0
  128.5098  135.8285  164.8317 H   0  0  0  0  0  0  0  0  0  0  0  0
  129.6670  137.1857  164.9894 H   0  0  0  0  0  0  0  0  0  0  0  0
  126.9837  137.1171  163.5741 H   0  0  0  0  0  0  0  0  0  0  0  0
  127.7897  138.4857  164.4119 H   0  0  0  0  0  0  0  0  0  0  0  0
  129.1536  138.9857  162.5543 H   0  0  0  0  0  0  0  0  0  0  0  0
  127.8330  138.1893  161.6446 H   0  0  0  0  0  0  0  0  0  0  0  0
  127.7471  136.9039  158.6923 H   0  0  0  0  0  0  0  0  0  0  0  0
  125.2070  136.1784  159.0614 H   0  0  0  0  0  0  0  0  0  0  0  0
  127.8327  133.7409  162.6464 H   0  0  0  0  0  0  0  0  0  0  0  0
  127.0924  132.5253  161.5774 H   0  0  0  0  0  0  0  0  0  0  0  0
  128.7903  133.0035  161.3397 H   0  0  0  0  0  0  0  0  0  0  0  0
  129.4559  133.2272  154.1068 H   0  0  0  0  0  0  0  0  0  0  0  0
  129.9466  132.0414  152.0081 H   0  0  0  0  0  0  0  0  0  0  0  0
  1  2  1  0
  1 31  1  0
  1 32  1  0
  1 33  1  0
  2  3  1  0
  2 34  1  0
  2 35  1  0
  3 30  2  0
  3  4  1  0
  4  5  2  0
  4 36  1  0
  5  6  1  0
  5 37  1  0
  6  7  1  0
  6 29  2  0
  7 27  1  0
  7  8  2  0
  8  9  1  0
  8 38  1  0
  9 10  1  0
  9 11  1  0
 11 12  1  0
 11 27  2  0
 12 13  1  0
 12 39  1  0
 13 14  1  1
 13 15  1  0
 13 21  1  0
 15 16  1  0
 15 40  1  0
 15 41  1  0
 16 20  1  0
 16 17  2  0
 17 18  1  0
 17 42  1  0
 18 19  1  0
 18 43  1  0
 18 44  1  0
 19 20  1  0
 19 45  1  0
 19 46  1  0
 20 47  1  0
 20 48  1  0
 21 25  1  0
 21 22  2  0
 22 23  1  0
 22 49  1  0
 23 24  2  0
 23 50  1  0
 24 25  1  0
 25 26  1  0
 26 51  1  0
 26 52  1  0
 26 53  1  0
 27 28  1  0
 29 30  1  0
 29 54  1  0
 30 55  1  0
M  CHG  1  27   1
M  END
>  <DOCK_score>  (1) 
-56.23502

>  <SMILES>  (1) 
CCc1ccc(-c2c[nH]c(N[C@@H](CC3=CCCC3)c3ccnn3C)[nH+]2)cc1

$$$$
