Fc1ccc(NCc2cccc(CC3=CCC[N@@H+](Cc4cccc5cccnc45)CC3)c2)cc1
     RDKit          3D

 65 69  0  0  1  0  0  0  0  0999 V2000
  127.6216  131.2964  161.9835 F   0  0  0  0  0  0  0  0  0  0  0  0
  127.2937  132.5649  162.3132 C   0  0  0  0  0  0  0  0  0  0  0  0
  127.8066  133.1340  163.4665 C   0  0  0  0  0  0  0  0  0  0  0  0
  127.4726  134.4306  163.8056 C   0  0  0  0  0  0  0  0  0  0  0  0
  126.6215  135.1636  162.9888 C   0  0  0  0  0  0  0  0  0  0  0  0
  126.2816  136.4761  163.3303 N   0  0  0  0  0  0  0  0  0  0  0  0
  126.8232  137.0791  164.5506 C   0  0  0  0  0  0  0  0  0  0  0  0
  128.3282  137.1008  164.4749 C   0  0  0  0  0  0  0  0  0  0  0  0
  129.0809  136.7070  165.5657 C   0  0  0  0  0  0  0  0  0  0  0  0
  130.4610  136.7265  165.4962 C   0  0  0  0  0  0  0  0  0  0  0  0
  131.0891  137.1401  164.3359 C   0  0  0  0  0  0  0  0  0  0  0  0
  130.3366  137.5333  163.2454 C   0  0  0  0  0  0  0  0  0  0  0  0
  131.0211  137.9837  161.9806 C   0  0  0  0  0  0  0  0  0  0  0  0
  131.2496  136.7952  161.0825 C   0  0  0  0  0  0  0  0  0  0  0  0
  132.3488  136.1124  161.1764 C   0  0  0  0  0  0  0  0  0  0  0  0
  132.5746  134.9145  160.2765 C   0  0  0  0  0  0  0  0  0  0  0  0
  131.6227  133.7947  160.7052 C   0  0  0  0  0  0  0  0  0  0  0  0
  130.3240  133.9446  160.0672 N   0  0  1  0  0  0  0  0  0  0  0  0
  130.4655  134.0291  159.0719 H   0  0  0  0  0  0  0  0  0  0  0  0
  129.5405  132.7275  160.3179 C   0  0  0  0  0  0  0  0  0  0  0  0
  129.9708  131.6469  159.3598 C   0  0  0  0  0  0  0  0  0  0  0  0
  130.1894  130.3814  159.8106 C   0  0  0  0  0  0  0  0  0  0  0  0
  130.5830  129.3665  158.9413 C   0  0  0  0  0  0  0  0  0  0  0  0
  130.7697  129.6153  157.6155 C   0  0  0  0  0  0  0  0  0  0  0  0
  130.5585  130.9104  157.1164 C   0  0  0  0  0  0  0  0  0  0  0  0
  130.7409  131.2094  155.7528 C   0  0  0  0  0  0  0  0  0  0  0  0
  130.5175  132.4915  155.3389 C   0  0  0  0  0  0  0  0  0  0  0  0
  130.1205  133.4601  156.2586 C   0  0  0  0  0  0  0  0  0  0  0  0
  129.9520  133.1784  157.5276 N   0  0  0  0  0  0  0  0  0  0  0  0
  130.1535  131.9433  157.9979 C   0  0  0  0  0  0  0  0  0  0  0  0
  129.5513  135.0904  160.5208 C   0  0  0  0  0  0  0  0  0  0  0  0
  130.1983  136.4009  160.0650 C   0  0  0  0  0  0  0  0  0  0  0  0
  128.9559  137.5089  163.3131 C   0  0  0  0  0  0  0  0  0  0  0  0
  126.1042  134.5889  161.8352 C   0  0  0  0  0  0  0  0  0  0  0  0
  126.4451  133.2938  161.4972 C   0  0  0  0  0  0  0  0  0  0  0  0
  128.4682  132.5635  164.1017 H   0  0  0  0  0  0  0  0  0  0  0  0
  127.8725  134.8740  164.7055 H   0  0  0  0  0  0  0  0  0  0  0  0
  125.6871  136.9873  162.7592 H   0  0  0  0  0  0  0  0  0  0  0  0
  126.4496  138.0984  164.6489 H   0  0  0  0  0  0  0  0  0  0  0  0
  126.5112  136.4929  165.4150 H   0  0  0  0  0  0  0  0  0  0  0  0
  128.5903  136.3838  166.4720 H   0  0  0  0  0  0  0  0  0  0  0  0
  131.0490  136.4188  166.3482 H   0  0  0  0  0  0  0  0  0  0  0  0
  132.1676  137.1556  164.2818 H   0  0  0  0  0  0  0  0  0  0  0  0
  130.3931  138.7117  161.4670 H   0  0  0  0  0  0  0  0  0  0  0  0
  131.9788  138.4409  162.2289 H   0  0  0  0  0  0  0  0  0  0  0  0
  133.1008  136.3954  161.8981 H   0  0  0  0  0  0  0  0  0  0  0  0
  133.6061  134.5752  160.3703 H   0  0  0  0  0  0  0  0  0  0  0  0
  132.3719  135.1927  159.2422 H   0  0  0  0  0  0  0  0  0  0  0  0
  131.4962  133.8267  161.7874 H   0  0  0  0  0  0  0  0  0  0  0  0
  132.0512  132.8329  160.4237 H   0  0  0  0  0  0  0  0  0  0  0  0
  129.7069  132.3927  161.3417 H   0  0  0  0  0  0  0  0  0  0  0  0
  128.4814  132.9409  160.1730 H   0  0  0  0  0  0  0  0  0  0  0  0
  130.0524  130.1597  160.8587 H   0  0  0  0  0  0  0  0  0  0  0  0
  130.7453  128.3698  159.3243 H   0  0  0  0  0  0  0  0  0  0  0  0
  131.0780  128.8211  156.9519 H   0  0  0  0  0  0  0  0  0  0  0  0
  131.0493  130.4462  155.0537 H   0  0  0  0  0  0  0  0  0  0  0  0
  130.6481  132.7544  154.2995 H   0  0  0  0  0  0  0  0  0  0  0  0
  129.9478  134.4700  155.9168 H   0  0  0  0  0  0  0  0  0  0  0  0
  129.4966  135.0775  161.6094 H   0  0  0  0  0  0  0  0  0  0  0  0
  128.5431  135.0273  160.1115 H   0  0  0  0  0  0  0  0  0  0  0  0
  129.4401  137.1812  159.9996 H   0  0  0  0  0  0  0  0  0  0  0  0
  130.6656  136.2605  159.0903 H   0  0  0  0  0  0  0  0  0  0  0  0
  128.3679  137.8123  162.4596 H   0  0  0  0  0  0  0  0  0  0  0  0
  125.4390  135.1556  161.2006 H   0  0  0  0  0  0  0  0  0  0  0  0
  126.0460  132.8478  160.5983 H   0  0  0  0  0  0  0  0  0  0  0  0
  1  2  1  0
  2 35  2  0
  2  3  1  0
  3  4  2  0
  3 36  1  0
  4  5  1  0
  4 37  1  0
  5  6  1  0
  5 34  2  0
  6  7  1  0
  6 38  1  0
  7  8  1  0
  7 39  1  0
  7 40  1  0
  8 33  1  0
  8  9  2  0
  9 10  1  0
  9 41  1  0
 10 11  2  0
 10 42  1  0
 11 12  1  0
 11 43  1  0
 12 13  1  0
 12 33  2  0
 13 14  1  0
 13 44  1  0
 13 45  1  0
 14 32  1  0
 14 15  2  0
 15 16  1  0
 15 46  1  0
 16 17  1  0
 16 47  1  0
 16 48  1  0
 17 18  1  0
 17 49  1  0
 17 50  1  0
 18 19  1  6
 18 20  1  0
 18 31  1  0
 20 21  1  0
 20 51  1  0
 20 52  1  0
 21 30  1  0
 21 22  2  0
 22 23  1  0
 22 53  1  0
 23 24  2  0
 23 54  1  0
 24 25  1  0
 24 55  1  0
 25 30  2  0
 25 26  1  0
 26 27  2  0
 26 56  1  0
 27 28  1  0
 27 57  1  0
 28 29  2  0
 28 58  1  0
 29 30  1  0
 31 32  1  0
 31 59  1  0
 31 60  1  0
 32 61  1  0
 32 62  1  0
 33 63  1  0
 34 35  1  0
 34 64  1  0
 35 65  1  0
M  CHG  1  18   1
M  END
>  <DOCK_score>  (1) 
-44.452507

>  <SMILES>  (1) 
Fc1ccc(NCc2cccc(CC3=CCC[N@@H+](Cc4cccc5cccnc45)CC3)c2)cc1

$$$$
