Nc1ccc(-c2c[nH]c(N[C@H]3c4ccccc4-c4ccc(O)cc43)[nH+]2)cc1
     RDKit          3D

 46 50  0  0  1  0  0  0  0  0999 V2000
  131.2255  130.0218  151.6108 N   0  0  0  0  0  0  0  0  0  0  0  0
  131.0228  130.5897  152.8709 C   0  0  0  0  0  0  0  0  0  0  0  0
  130.6433  131.9223  152.9787 C   0  0  0  0  0  0  0  0  0  0  0  0
  130.4422  132.4848  154.2214 C   0  0  0  0  0  0  0  0  0  0  0  0
  130.6203  131.7157  155.3704 C   0  0  0  0  0  0  0  0  0  0  0  0
  130.4106  132.3203  156.7088 C   0  0  0  0  0  0  0  0  0  0  0  0
  129.9822  131.6711  157.8195 C   0  0  0  0  0  0  0  0  0  0  0  0
  129.9314  132.6015  158.8304 N   0  0  0  0  0  0  0  0  0  0  0  0
  129.6624  132.4387  159.7481 H   0  0  0  0  0  0  0  0  0  0  0  0
  130.3226  133.7939  158.3044 C   0  0  0  0  0  0  0  0  0  0  0  0
  130.4050  134.9913  158.9943 N   0  0  0  0  0  0  0  0  0  0  0  0
  129.5053  135.2511  160.1208 C   0  0  1  0  0  0  0  0  0  0  0  0
  129.3094  136.3201  160.2056 H   0  0  0  0  0  0  0  0  0  0  0  0
  128.2104  134.4986  159.9358 C   0  0  0  0  0  0  0  0  0  0  0  0
  127.2416  134.5476  158.9575 C   0  0  0  0  0  0  0  0  0  0  0  0
  126.1321  133.7251  159.0382 C   0  0  0  0  0  0  0  0  0  0  0  0
  125.9923  132.8512  160.1016 C   0  0  0  0  0  0  0  0  0  0  0  0
  126.9567  132.7942  161.0858 C   0  0  0  0  0  0  0  0  0  0  0  0
  128.0794  133.6212  161.0105 C   0  0  0  0  0  0  0  0  0  0  0  0
  129.2491  133.7648  161.9120 C   0  0  0  0  0  0  0  0  0  0  0  0
  129.5748  133.1152  163.1048 C   0  0  0  0  0  0  0  0  0  0  0  0
  130.7416  133.4315  163.7664 C   0  0  0  0  0  0  0  0  0  0  0  0
  131.5972  134.3961  163.2510 C   0  0  0  0  0  0  0  0  0  0  0  0
  132.7464  134.7053  163.9066 O   0  0  0  0  0  0  0  0  0  0  0  0
  131.2778  135.0445  162.0655 C   0  0  0  0  0  0  0  0  0  0  0  0
  130.1121  134.7310  161.4010 C   0  0  0  0  0  0  0  0  0  0  0  0
  130.6081  133.6218  157.0366 N   0  0  0  0  0  0  0  0  0  0  0  0
  130.9118  134.3147  156.4296 H   0  0  0  0  0  0  0  0  0  0  0  0
  131.0014  130.3795  155.2601 C   0  0  0  0  0  0  0  0  0  0  0  0
  131.2005  129.8210  154.0151 C   0  0  0  0  0  0  0  0  0  0  0  0
  131.1015  130.5576  150.8118 H   0  0  0  0  0  0  0  0  0  0  0  0
  131.4904  129.0918  151.5348 H   0  0  0  0  0  0  0  0  0  0  0  0
  130.5055  132.5178  152.0882 H   0  0  0  0  0  0  0  0  0  0  0  0
  130.1466  133.5201  154.3047 H   0  0  0  0  0  0  0  0  0  0  0  0
  129.7310  130.6235  157.8957 H   0  0  0  0  0  0  0  0  0  0  0  0
  131.0585  135.6583  158.7316 H   0  0  0  0  0  0  0  0  0  0  0  0
  127.3486  135.2292  158.1265 H   0  0  0  0  0  0  0  0  0  0  0  0
  125.3738  133.7657  158.2703 H   0  0  0  0  0  0  0  0  0  0  0  0
  125.1248  132.2108  160.1609 H   0  0  0  0  0  0  0  0  0  0  0  0
  126.8436  132.1108  161.9144 H   0  0  0  0  0  0  0  0  0  0  0  0
  128.9117  132.3646  163.5092 H   0  0  0  0  0  0  0  0  0  0  0  0
  130.9913  132.9275  164.6884 H   0  0  0  0  0  0  0  0  0  0  0  0
  133.2761  135.3874  163.4714 H   0  0  0  0  0  0  0  0  0  0  0  0
  131.9428  135.7950  161.6643 H   0  0  0  0  0  0  0  0  0  0  0  0
  131.1404  129.7819  156.1489 H   0  0  0  0  0  0  0  0  0  0  0  0
  131.4948  128.7853  153.9291 H   0  0  0  0  0  0  0  0  0  0  0  0
  1  2  1  0
  1 31  1  0
  1 32  1  0
  2 30  2  0
  2  3  1  0
  3  4  2  0
  3 33  1  0
  4  5  1  0
  4 34  1  0
  5  6  1  0
  5 29  2  0
  6 27  1  0
  6  7  2  0
  7  8  1  0
  7 35  1  0
  8  9  1  0
  8 10  1  0
 10 11  1  0
 10 27  2  0
 11 12  1  0
 11 36  1  0
 12 13  1  1
 12 26  1  0
 12 14  1  0
 14 19  1  0
 14 15  2  0
 15 16  1  0
 15 37  1  0
 16 17  2  0
 16 38  1  0
 17 18  1  0
 17 39  1  0
 18 19  2  0
 18 40  1  0
 19 20  1  0
 20 26  2  0
 20 21  1  0
 21 22  2  0
 21 41  1  0
 22 23  1  0
 22 42  1  0
 23 24  1  0
 23 25  2  0
 24 43  1  0
 25 26  1  0
 25 44  1  0
 27 28  1  0
 29 30  1  0
 29 45  1  0
 30 46  1  0
M  CHG  1  27   1
M  END
>  <DOCK_score>  (1) 
-56.125397

>  <SMILES>  (1) 
Nc1ccc(-c2c[nH]c(N[C@H]3c4ccccc4-c4ccc(O)cc43)[nH+]2)cc1

$$$$
