Nc1ccc(-c2c[nH]c(N[C@H](c3ccccc3)c3ccccc3N)[nH+]2)cc1
     RDKit          3D

 49 52  0  0  1  0  0  0  0  0999 V2000
  131.2526  129.4077  151.9570 N   0  0  0  0  0  0  0  0  0  0  0  0
  130.9993  130.0796  153.1553 C   0  0  0  0  0  0  0  0  0  0  0  0
  130.0885  131.1290  153.1833 C   0  0  0  0  0  0  0  0  0  0  0  0
  129.8371  131.7937  154.3650 C   0  0  0  0  0  0  0  0  0  0  0  0
  130.4972  131.4123  155.5320 C   0  0  0  0  0  0  0  0  0  0  0  0
  130.2283  132.1259  156.8046 C   0  0  0  0  0  0  0  0  0  0  0  0
  129.7375  131.5727  157.9411 C   0  0  0  0  0  0  0  0  0  0  0  0
  129.6457  132.5832  158.8688 N   0  0  0  0  0  0  0  0  0  0  0  0
  129.3278  132.4984  159.7814 H   0  0  0  0  0  0  0  0  0  0  0  0
  130.0837  133.7241  158.2706 C   0  0  0  0  0  0  0  0  0  0  0  0
  130.1514  134.9721  158.8661 N   0  0  0  0  0  0  0  0  0  0  0  0
  129.7293  135.1431  160.2585 C   0  0  2  0  0  0  0  0  0  0  0  0
  130.0643  134.2892  160.8473 H   0  0  0  0  0  0  0  0  0  0  0  0
  128.2264  135.2369  160.3199 C   0  0  0  0  0  0  0  0  0  0  0  0
  127.5508  134.7858  161.4385 C   0  0  0  0  0  0  0  0  0  0  0  0
  126.1727  134.8755  161.4965 C   0  0  0  0  0  0  0  0  0  0  0  0
  125.4693  135.4081  160.4323 C   0  0  0  0  0  0  0  0  0  0  0  0
  126.1444  135.8546  159.3118 C   0  0  0  0  0  0  0  0  0  0  0  0
  127.5228  135.7686  159.2554 C   0  0  0  0  0  0  0  0  0  0  0  0
  130.3345  136.4058  160.8154 C   0  0  0  0  0  0  0  0  0  0  0  0
  129.5172  137.4183  161.2789 C   0  0  0  0  0  0  0  0  0  0  0  0
  130.0716  138.5768  161.7909 C   0  0  0  0  0  0  0  0  0  0  0  0
  131.4457  138.7265  161.8401 C   0  0  0  0  0  0  0  0  0  0  0  0
  132.2685  137.7185  161.3781 C   0  0  0  0  0  0  0  0  0  0  0  0
  131.7148  136.5505  160.8687 C   0  0  0  0  0  0  0  0  0  0  0  0
  132.5443  135.5265  160.4057 N   0  0  0  0  0  0  0  0  0  0  0  0
  130.4255  133.4480  157.0356 N   0  0  0  0  0  0  0  0  0  0  0  0
  130.7672  134.0867  156.3905 H   0  0  0  0  0  0  0  0  0  0  0  0
  131.4147  130.3634  155.5004 C   0  0  0  0  0  0  0  0  0  0  0  0
  131.6585  129.6975  154.3176 C   0  0  0  0  0  0  0  0  0  0  0  0
  130.7929  129.6737  151.1452 H   0  0  0  0  0  0  0  0  0  0  0  0
  131.8883  128.6753  151.9365 H   0  0  0  0  0  0  0  0  0  0  0  0
  129.5776  131.4243  152.2787 H   0  0  0  0  0  0  0  0  0  0  0  0
  129.1288  132.6088  154.3864 H   0  0  0  0  0  0  0  0  0  0  0  0
  129.4697  130.5369  158.0892 H   0  0  0  0  0  0  0  0  0  0  0  0
  130.4745  135.7341  158.3602 H   0  0  0  0  0  0  0  0  0  0  0  0
  128.1001  134.3663  162.2684 H   0  0  0  0  0  0  0  0  0  0  0  0
  125.6451  134.5261  162.3718 H   0  0  0  0  0  0  0  0  0  0  0  0
  124.3922  135.4750  160.4763 H   0  0  0  0  0  0  0  0  0  0  0  0
  125.5949  136.2705  158.4802 H   0  0  0  0  0  0  0  0  0  0  0  0
  128.0504  136.1173  158.3798 H   0  0  0  0  0  0  0  0  0  0  0  0
  128.4438  137.3048  161.2416 H   0  0  0  0  0  0  0  0  0  0  0  0
  129.4304  139.3668  162.1530 H   0  0  0  0  0  0  0  0  0  0  0  0
  131.8756  139.6330  162.2400 H   0  0  0  0  0  0  0  0  0  0  0  0
  133.3415  137.8359  161.4168 H   0  0  0  0  0  0  0  0  0  0  0  0
  132.1565  134.7131  160.0466 H   0  0  0  0  0  0  0  0  0  0  0  0
  133.5082  135.6287  160.4435 H   0  0  0  0  0  0  0  0  0  0  0  0
  131.9306  130.0691  156.4024 H   0  0  0  0  0  0  0  0  0  0  0  0
  132.3654  128.8813  154.2937 H   0  0  0  0  0  0  0  0  0  0  0  0
  1  2  1  0
  1 31  1  0
  1 32  1  0
  2 30  2  0
  2  3  1  0
  3  4  2  0
  3 33  1  0
  4  5  1  0
  4 34  1  0
  5  6  1  0
  5 29  2  0
  6 27  1  0
  6  7  2  0
  7  8  1  0
  7 35  1  0
  8  9  1  0
  8 10  1  0
 10 11  1  0
 10 27  2  0
 11 12  1  0
 11 36  1  0
 12 13  1  1
 12 14  1  0
 12 20  1  0
 14 19  1  0
 14 15  2  0
 15 16  1  0
 15 37  1  0
 16 17  2  0
 16 38  1  0
 17 18  1  0
 17 39  1  0
 18 19  2  0
 18 40  1  0
 19 41  1  0
 20 25  1  0
 20 21  2  0
 21 22  1  0
 21 42  1  0
 22 23  2  0
 22 43  1  0
 23 24  1  0
 23 44  1  0
 24 25  2  0
 24 45  1  0
 25 26  1  0
 26 46  1  0
 26 47  1  0
 27 28  1  0
 29 30  1  0
 29 48  1  0
 30 49  1  0
M  CHG  1  27   1
M  END
>  <DOCK_score>  (1) 
-58.688473

>  <SMILES>  (1) 
Nc1ccc(-c2c[nH]c(N[C@H](c3ccccc3)c3ccccc3N)[nH+]2)cc1

$$$$
