OCC[NH2+]Cc1c[nH]nc1-c1ccc(N[C@@H]2CC23CCOC3)o1
     RDKit          3D

 46 49  0  0  1  0  0  0  0  0999 V2000
  132.2202  139.3534  158.6255 O   0  0  0  0  0  0  0  0  0  0  0  0
  131.2867  139.4120  159.7059 C   0  0  0  0  0  0  0  0  0  0  0  0
  131.4810  138.1964  160.6143 C   0  0  0  0  0  0  0  0  0  0  0  0
  131.2590  136.9670  159.8415 N   0  0  0  0  0  0  0  0  0  0  0  0
  131.9182  136.9257  159.0787 H   0  0  0  0  0  0  0  0  0  0  0  0
  130.3192  136.9655  159.4742 H   0  0  0  0  0  0  0  0  0  0  0  0
  131.4456  135.7998  160.7137 C   0  0  0  0  0  0  0  0  0  0  0  0
  131.2179  134.5386  159.9209 C   0  0  0  0  0  0  0  0  0  0  0  0
  132.1567  133.8462  159.2410 C   0  0  0  0  0  0  0  0  0  0  0  0
  131.5567  132.7814  158.6660 N   0  0  0  0  0  0  0  0  0  0  0  0
  131.9923  132.1110  158.1167 H   0  0  0  0  0  0  0  0  0  0  0  0
  130.1979  132.8094  159.0047 N   0  0  0  0  0  0  0  0  0  0  0  0
  129.9858  133.8709  159.7575 C   0  0  0  0  0  0  0  0  0  0  0  0
  128.6892  134.2844  160.3331 C   0  0  0  0  0  0  0  0  0  0  0  0
  127.5045  133.6380  160.1723 C   0  0  0  0  0  0  0  0  0  0  0  0
  126.5382  134.3734  160.8867 C   0  0  0  0  0  0  0  0  0  0  0  0
  127.1791  135.4295  161.4469 C   0  0  0  0  0  0  0  0  0  0  0  0
  126.5900  136.4123  162.2339 N   0  0  0  0  0  0  0  0  0  0  0  0
  127.3708  137.0792  163.2789 C   0  0  2  0  0  0  0  0  0  0  0  0
  127.4721  138.1594  163.1733 H   0  0  0  0  0  0  0  0  0  0  0  0
  128.5546  136.3124  163.8761 C   0  0  0  0  0  0  0  0  0  0  0  0
  127.2831  136.5158  164.6894 C   0  0  2  0  0  0  0  0  0  0  0  0
  126.3484  135.3395  165.0287 C   0  0  0  0  0  0  0  0  0  0  0  0
  126.2969  135.4108  166.5781 C   0  0  0  0  0  0  0  0  0  0  0  0
  126.3227  136.8283  166.8548 O   0  0  0  0  0  0  0  0  0  0  0  0
  127.2473  137.4230  165.9248 C   0  0  0  0  0  0  0  0  0  0  0  0
  128.4782  135.3690  161.1080 O   0  0  0  0  0  0  0  0  0  0  0  0
  132.1316  138.5660  158.0713 H   0  0  0  0  0  0  0  0  0  0  0  0
  130.2714  139.4105  159.3092 H   0  0  0  0  0  0  0  0  0  0  0  0
  131.4515  140.3242  160.2794 H   0  0  0  0  0  0  0  0  0  0  0  0
  130.7688  138.2411  161.4383 H   0  0  0  0  0  0  0  0  0  0  0  0
  132.4962  138.1977  161.0111 H   0  0  0  0  0  0  0  0  0  0  0  0
  130.7334  135.8444  161.5377 H   0  0  0  0  0  0  0  0  0  0  0  0
  132.4608  135.8012  161.1105 H   0  0  0  0  0  0  0  0  0  0  0  0
  133.2041  134.0999  159.1689 H   0  0  0  0  0  0  0  0  0  0  0  0
  127.3363  132.7339  159.6061 H   0  0  0  0  0  0  0  0  0  0  0  0
  125.4870  134.1407  160.9719 H   0  0  0  0  0  0  0  0  0  0  0  0
  125.6623  136.6565  162.0914 H   0  0  0  0  0  0  0  0  0  0  0  0
  128.7523  135.3118  163.4913 H   0  0  0  0  0  0  0  0  0  0  0  0
  129.4342  136.8882  164.1641 H   0  0  0  0  0  0  0  0  0  0  0  0
  125.3584  135.4915  164.5983 H   0  0  0  0  0  0  0  0  0  0  0  0
  126.7755  134.3936  164.6959 H   0  0  0  0  0  0  0  0  0  0  0  0
  127.1669  134.9192  167.0134 H   0  0  0  0  0  0  0  0  0  0  0  0
  125.3770  134.9633  166.9544 H   0  0  0  0  0  0  0  0  0  0  0  0
  128.2394  137.4820  166.3724 H   0  0  0  0  0  0  0  0  0  0  0  0
  126.9055  138.4196  165.6452 H   0  0  0  0  0  0  0  0  0  0  0  0
  1  2  1  0
  1 28  1  0
  2  3  1  0
  2 29  1  0
  2 30  1  0
  3  4  1  0
  3 31  1  0
  3 32  1  0
  4  5  1  0
  4  6  1  0
  4  7  1  0
  7  8  1  0
  7 33  1  0
  7 34  1  0
  8 13  1  0
  8  9  2  0
  9 10  1  0
  9 35  1  0
 10 11  1  0
 10 12  1  0
 12 13  2  0
 13 14  1  0
 14 27  1  0
 14 15  2  0
 15 16  1  0
 15 36  1  0
 16 17  2  0
 16 37  1  0
 17 18  1  0
 17 27  1  0
 18 19  1  0
 18 38  1  0
 19 20  1  1
 19 22  1  0
 19 21  1  0
 21 39  1  0
 21 40  1  0
 22 21  1  1
 22 26  1  0
 22 23  1  0
 23 24  1  0
 23 41  1  0
 23 42  1  0
 24 25  1  0
 24 43  1  0
 24 44  1  0
 25 26  1  0
 26 45  1  0
 26 46  1  0
M  CHG  1   4   1
M  END
>  <DOCK_score>  (1) 
-43.595436

>  <SMILES>  (1) 
OCC[NH2+]Cc1c[nH]nc1-c1ccc(N[C@@H]2CC23CCOC3)o1

$$$$
