C/C=C/CN[C@@H]1c2cc(O)ccc2-c2ccc(Oc3ccc(Nc4[nH]cc(C)[nH+]4)cc3)cc21
     RDKit          3D

 60 64  0  0  1  0  0  0  0  0999 V2000
  130.3098  142.0158  161.4766 C   0  0  0  0  0  0  0  0  0  0  0  0
  129.6489  141.1531  162.5206 C   0  0  0  0  0  0  0  0  0  0  0  0
  129.0331  141.7081  163.5349 C   0  0  0  0  0  0  0  0  0  0  0  0
  128.3722  140.8454  164.5789 C   0  0  0  0  0  0  0  0  0  0  0  0
  126.9364  141.1518  164.6302 N   0  0  0  0  0  0  0  0  0  0  0  0
  126.2579  140.3278  165.6394 C   0  0  2  0  0  0  0  0  0  0  0  0
  125.1946  140.5667  165.6652 H   0  0  0  0  0  0  0  0  0  0  0  0
  126.8761  140.5554  166.9972 C   0  0  0  0  0  0  0  0  0  0  0  0
  126.9964  141.6825  167.7808 C   0  0  0  0  0  0  0  0  0  0  0  0
  127.6267  141.6055  169.0156 C   0  0  0  0  0  0  0  0  0  0  0  0
  127.7451  142.7168  169.7887 O   0  0  0  0  0  0  0  0  0  0  0  0
  128.1355  140.3926  169.4604 C   0  0  0  0  0  0  0  0  0  0  0  0
  128.0172  139.2631  168.6798 C   0  0  0  0  0  0  0  0  0  0  0  0
  127.3840  139.3355  167.4367 C   0  0  0  0  0  0  0  0  0  0  0  0
  127.1244  138.2942  166.4120 C   0  0  0  0  0  0  0  0  0  0  0  0
  127.4362  136.9327  166.3864 C   0  0  0  0  0  0  0  0  0  0  0  0
  127.0812  136.1640  165.2993 C   0  0  0  0  0  0  0  0  0  0  0  0
  126.4134  136.7386  164.2256 C   0  0  0  0  0  0  0  0  0  0  0  0
  126.0656  135.9772  163.1555 O   0  0  0  0  0  0  0  0  0  0  0  0
  126.9543  135.8708  162.1321 C   0  0  0  0  0  0  0  0  0  0  0  0
  126.6421  135.1030  161.0195 C   0  0  0  0  0  0  0  0  0  0  0  0
  127.5447  134.9932  159.9804 C   0  0  0  0  0  0  0  0  0  0  0  0
  128.7658  135.6515  160.0493 C   0  0  0  0  0  0  0  0  0  0  0  0
  129.6814  135.5408  158.9964 N   0  0  0  0  0  0  0  0  0  0  0  0
  129.7166  134.3889  158.2270 C   0  0  0  0  0  0  0  0  0  0  0  0
  129.3997  133.1366  158.6544 N   0  0  0  0  0  0  0  0  0  0  0  0
  129.1103  132.8872  159.5460 H   0  0  0  0  0  0  0  0  0  0  0  0
  129.5686  132.2906  157.5821 C   0  0  0  0  0  0  0  0  0  0  0  0
  129.9724  133.0462  156.5466 C   0  0  0  0  0  0  0  0  0  0  0  0
  130.2767  132.5488  155.1570 C   0  0  0  0  0  0  0  0  0  0  0  0
  130.0615  134.3205  156.9628 N   0  0  0  0  0  0  0  0  0  0  0  0
  130.3338  135.0724  156.4141 H   0  0  0  0  0  0  0  0  0  0  0  0
  129.0802  136.4152  161.1660 C   0  0  0  0  0  0  0  0  0  0  0  0
  128.1743  136.5284  162.2020 C   0  0  0  0  0  0  0  0  0  0  0  0
  126.1064  138.0928  164.2440 C   0  0  0  0  0  0  0  0  0  0  0  0
  126.4542  138.8634  165.3322 C   0  0  0  0  0  0  0  0  0  0  0  0
  130.7666  141.3814  160.7171 H   0  0  0  0  0  0  0  0  0  0  0  0
  129.5631  142.6593  161.0112 H   0  0  0  0  0  0  0  0  0  0  0  0
  131.0775  142.6308  161.9462 H   0  0  0  0  0  0  0  0  0  0  0  0
  129.6830  140.0773  162.4326 H   0  0  0  0  0  0  0  0  0  0  0  0
  128.9990  142.7841  163.6229 H   0  0  0  0  0  0  0  0  0  0  0  0
  128.8212  141.0445  165.5519 H   0  0  0  0  0  0  0  0  0  0  0  0
  128.5106  139.7949  164.3230 H   0  0  0  0  0  0  0  0  0  0  0  0
  126.5096  141.0369  163.7231 H   0  0  0  0  0  0  0  0  0  0  0  0
  126.6002  142.6256  167.4346 H   0  0  0  0  0  0  0  0  0  0  0  0
  128.1981  142.5644  170.6295 H   0  0  0  0  0  0  0  0  0  0  0  0
  128.6252  140.3341  170.4212 H   0  0  0  0  0  0  0  0  0  0  0  0
  128.4139  138.3214  169.0294 H   0  0  0  0  0  0  0  0  0  0  0  0
  127.9560  136.4825  167.2193 H   0  0  0  0  0  0  0  0  0  0  0  0
  127.3233  135.1117  165.2820 H   0  0  0  0  0  0  0  0  0  0  0  0
  125.6926  134.5912  160.9661 H   0  0  0  0  0  0  0  0  0  0  0  0
  127.3014  134.3959  159.1142 H   0  0  0  0  0  0  0  0  0  0  0  0
  130.2913  136.2704  158.8053 H   0  0  0  0  0  0  0  0  0  0  0  0
  129.4035  131.2233  157.5733 H   0  0  0  0  0  0  0  0  0  0  0  0
  131.3290  132.2720  155.0925 H   0  0  0  0  0  0  0  0  0  0  0  0
  129.6580  131.6782  154.9392 H   0  0  0  0  0  0  0  0  0  0  0  0
  130.0632  133.3362  154.4342 H   0  0  0  0  0  0  0  0  0  0  0  0
  130.0314  136.9235  161.2224 H   0  0  0  0  0  0  0  0  0  0  0  0
  128.4168  137.1255  163.0685 H   0  0  0  0  0  0  0  0  0  0  0  0
  125.5910  138.5410  163.4073 H   0  0  0  0  0  0  0  0  0  0  0  0
  1  2  1  0
  1 37  1  0
  1 38  1  0
  1 39  1  0
  2  3  2  0
  2 40  1  0
  3  4  1  0
  3 41  1  0
  4  5  1  0
  4 42  1  0
  4 43  1  0
  5  6  1  0
  5 44  1  0
  6  7  1  1
  6 36  1  0
  6  8  1  0
  8 14  2  0
  8  9  1  0
  9 10  2  0
  9 45  1  0
 10 11  1  0
 10 12  1  0
 11 46  1  0
 12 13  2  0
 12 47  1  0
 13 14  1  0
 13 48  1  0
 14 15  1  0
 15 36  2  0
 15 16  1  0
 16 17  2  0
 16 49  1  0
 17 18  1  0
 17 50  1  0
 18 19  1  0
 18 35  2  0
 19 20  1  0
 20 34  1  0
 20 21  2  0
 21 22  1  0
 21 51  1  0
 22 23  2  0
 22 52  1  0
 23 24  1  0
 23 33  1  0
 24 53  1  0
 25 24  1  0
 25 31  2  0
 25 26  1  0
 26 27  1  0
 26 28  1  0
 28 29  2  0
 28 54  1  0
 29 30  1  0
 29 31  1  0
 30 55  1  0
 30 56  1  0
 30 57  1  0
 31 32  1  0
 33 34  2  0
 33 58  1  0
 34 59  1  0
 35 36  1  0
 35 60  1  0
M  CHG  1  31   1
M  END
>  <DOCK_score>  (1) 
-46.402039

>  <SMILES>  (1) 
C/C=C/CN[C@@H]1c2cc(O)ccc2-c2ccc(Oc3ccc(Nc4[nH]cc(C)[nH+]4)cc3)cc21

$$$$
