c1ccc(-c2ccc([C@H](Nc3[nH]cc(-c4ccccc4)[nH+]3)c3ccccc3)cc2)cc1
     RDKit          3D

 55 59  0  0  1  0  0  0  0  0999 V2000
  137.6750  139.3867  161.8629 C   0  0  0  0  0  0  0  0  0  0  0  0
  137.2546  138.4196  162.7570 C   0  0  0  0  0  0  0  0  0  0  0  0
  136.0750  137.7379  162.5365 C   0  0  0  0  0  0  0  0  0  0  0  0
  135.3126  138.0179  161.4042 C   0  0  0  0  0  0  0  0  0  0  0  0
  134.0464  137.2842  161.1589 C   0  0  0  0  0  0  0  0  0  0  0  0
  133.8986  135.9743  161.6102 C   0  0  0  0  0  0  0  0  0  0  0  0
  132.7165  135.2986  161.3843 C   0  0  0  0  0  0  0  0  0  0  0  0
  131.6838  135.9156  160.7015 C   0  0  0  0  0  0  0  0  0  0  0  0
  130.3977  135.1706  160.4527 C   0  0  2  0  0  0  0  0  0  0  0  0
  130.4687  134.1704  160.8803 H   0  0  0  0  0  0  0  0  0  0  0  0
  130.1632  135.0694  159.0101 N   0  0  0  0  0  0  0  0  0  0  0  0
  130.0672  133.8255  158.4100 C   0  0  0  0  0  0  0  0  0  0  0  0
  129.6107  132.6906  159.0065 N   0  0  0  0  0  0  0  0  0  0  0  0
  129.2964  132.6085  159.9205 H   0  0  0  0  0  0  0  0  0  0  0  0
  129.6740  131.6836  158.0744 C   0  0  0  0  0  0  0  0  0  0  0  0
  130.1749  132.2296  156.9386 C   0  0  0  0  0  0  0  0  0  0  0  0
  130.4246  131.5150  155.6629 C   0  0  0  0  0  0  0  0  0  0  0  0
  129.7717  131.9142  154.4982 C   0  0  0  0  0  0  0  0  0  0  0  0
  130.0127  131.2497  153.3128 C   0  0  0  0  0  0  0  0  0  0  0  0
  130.8908  130.1811  153.2821 C   0  0  0  0  0  0  0  0  0  0  0  0
  131.5375  129.7773  154.4361 C   0  0  0  0  0  0  0  0  0  0  0  0
  131.3090  130.4383  155.6258 C   0  0  0  0  0  0  0  0  0  0  0  0
  130.4065  133.5453  157.1753 N   0  0  0  0  0  0  0  0  0  0  0  0
  130.7656  134.1776  156.5334 H   0  0  0  0  0  0  0  0  0  0  0  0
  129.2547  135.9122  161.0966 C   0  0  0  0  0  0  0  0  0  0  0  0
  129.4723  136.6608  162.2380 C   0  0  0  0  0  0  0  0  0  0  0  0
  128.4248  137.3447  162.8262 C   0  0  0  0  0  0  0  0  0  0  0  0
  127.1578  137.2725  162.2780 C   0  0  0  0  0  0  0  0  0  0  0  0
  126.9393  136.5197  161.1395 C   0  0  0  0  0  0  0  0  0  0  0  0
  127.9876  135.8393  160.5488 C   0  0  0  0  0  0  0  0  0  0  0  0
  131.8274  137.2136  160.2458 C   0  0  0  0  0  0  0  0  0  0  0  0
  133.0029  137.9007  160.4711 C   0  0  0  0  0  0  0  0  0  0  0  0
  135.7435  138.9897  160.5035 C   0  0  0  0  0  0  0  0  0  0  0  0
  136.9218  139.6694  160.7368 C   0  0  0  0  0  0  0  0  0  0  0  0
  138.5961  139.9216  162.0411 H   0  0  0  0  0  0  0  0  0  0  0  0
  137.8486  138.2001  163.6319 H   0  0  0  0  0  0  0  0  0  0  0  0
  135.7457  136.9854  163.2379 H   0  0  0  0  0  0  0  0  0  0  0  0
  134.7059  135.4901  162.1396 H   0  0  0  0  0  0  0  0  0  0  0  0
  132.5992  134.2847  161.7375 H   0  0  0  0  0  0  0  0  0  0  0  0
  130.0749  135.8739  158.4754 H   0  0  0  0  0  0  0  0  0  0  0  0
  129.3837  130.6534  158.2193 H   0  0  0  0  0  0  0  0  0  0  0  0
  129.0821  132.7451  154.5221 H   0  0  0  0  0  0  0  0  0  0  0  0
  129.5111  131.5613  152.4085 H   0  0  0  0  0  0  0  0  0  0  0  0
  131.0728  129.6608  152.3535 H   0  0  0  0  0  0  0  0  0  0  0  0
  132.2228  128.9430  154.4061 H   0  0  0  0  0  0  0  0  0  0  0  0
  131.8146  130.1221  156.5263 H   0  0  0  0  0  0  0  0  0  0  0  0
  130.4613  136.7141  162.6684 H   0  0  0  0  0  0  0  0  0  0  0  0
  128.5956  137.9331  163.7156 H   0  0  0  0  0  0  0  0  0  0  0  0
  126.3388  137.8046  162.7390 H   0  0  0  0  0  0  0  0  0  0  0  0
  125.9492  136.4633  160.7111 H   0  0  0  0  0  0  0  0  0  0  0  0
  127.8168  135.2511  159.6593 H   0  0  0  0  0  0  0  0  0  0  0  0
  131.0181  137.6904  159.7128 H   0  0  0  0  0  0  0  0  0  0  0  0
  133.1142  138.9141  160.1149 H   0  0  0  0  0  0  0  0  0  0  0  0
  135.1562  139.2112  159.6246 H   0  0  0  0  0  0  0  0  0  0  0  0
  137.2564  140.4232  160.0395 H   0  0  0  0  0  0  0  0  0  0  0  0
  1 34  2  0
  1  2  1  0
  1 35  1  0
  2  3  2  0
  2 36  1  0
  3  4  1  0
  3 37  1  0
  4  5  1  0
  4 33  2  0
  5 32  1  0
  5  6  2  0
  6  7  1  0
  6 38  1  0
  7  8  2  0
  7 39  1  0
  8  9  1  0
  8 31  1  0
  9 10  1  1
  9 11  1  0
  9 25  1  0
 11 40  1  0
 12 11  1  0
 12 23  2  0
 12 13  1  0
 13 14  1  0
 13 15  1  0
 15 16  2  0
 15 41  1  0
 16 17  1  0
 16 23  1  0
 17 22  1  0
 17 18  2  0
 18 19  1  0
 18 42  1  0
 19 20  2  0
 19 43  1  0
 20 21  1  0
 20 44  1  0
 21 22  2  0
 21 45  1  0
 22 46  1  0
 23 24  1  0
 25 30  1  0
 25 26  2  0
 26 27  1  0
 26 47  1  0
 27 28  2  0
 27 48  1  0
 28 29  1  0
 28 49  1  0
 29 30  2  0
 29 50  1  0
 30 51  1  0
 31 32  2  0
 31 52  1  0
 32 53  1  0
 33 34  1  0
 33 54  1  0
 34 55  1  0
M  CHG  1  23   1
M  END
>  <DOCK_score>  (1) 
-59.432495

>  <SMILES>  (1) 
c1ccc(-c2ccc([C@H](Nc3[nH]cc(-c4ccccc4)[nH+]3)c3ccccc3)cc2)cc1

$$$$
