C[C@@H]([NH2+][C@@H]1C[C@@H]1Nc1ccc(O)cc1)c1cccc(C2=CCCC2)c1
     RDKit          3D

 52 55  0  0  1  0  0  0  0  0999 V2000
  130.4503  137.2143  160.3815 C   0  0  0  0  0  0  0  0  0  0  0  0
  131.0083  135.7948  160.5030 C   0  0  1  0  0  0  0  0  0  0  0  0
  130.3514  135.1992  161.1369 H   0  0  0  0  0  0  0  0  0  0  0  0
  131.0876  135.1841  159.1693 N   0  0  0  0  0  0  0  0  0  0  0  0
  130.2701  135.4367  158.6345 H   0  0  0  0  0  0  0  0  0  0  0  0
  131.9148  135.5159  158.6961 H   0  0  0  0  0  0  0  0  0  0  0  0
  131.1530  133.7227  159.3030 C   0  0  2  0  0  0  0  0  0  0  0  0
  131.7736  133.3526  160.1191 H   0  0  0  0  0  0  0  0  0  0  0  0
  131.1068  132.8930  158.0184 C   0  0  0  0  0  0  0  0  0  0  0  0
  129.8957  132.9243  158.9528 C   0  0  2  0  0  0  0  0  0  0  0  0
  129.6888  132.0287  159.5387 H   0  0  0  0  0  0  0  0  0  0  0  0
  128.7187  133.6757  158.5098 N   0  0  0  0  0  0  0  0  0  0  0  0
  127.7806  134.1229  159.4469 C   0  0  0  0  0  0  0  0  0  0  0  0
  127.9648  133.8546  160.7968 C   0  0  0  0  0  0  0  0  0  0  0  0
  127.0411  134.3008  161.7214 C   0  0  0  0  0  0  0  0  0  0  0  0
  125.9243  135.0077  161.3011 C   0  0  0  0  0  0  0  0  0  0  0  0
  125.0124  135.4422  162.2117 O   0  0  0  0  0  0  0  0  0  0  0  0
  125.7365  135.2712  159.9523 C   0  0  0  0  0  0  0  0  0  0  0  0
  126.6620  134.8302  159.0267 C   0  0  0  0  0  0  0  0  0  0  0  0
  132.3848  135.8469  161.1143 C   0  0  0  0  0  0  0  0  0  0  0  0
  132.8407  134.7882  161.8797 C   0  0  0  0  0  0  0  0  0  0  0  0
  134.1028  134.8284  162.4444 C   0  0  0  0  0  0  0  0  0  0  0  0
  134.9156  135.9260  162.2474 C   0  0  0  0  0  0  0  0  0  0  0  0
  134.4618  136.9966  161.4766 C   0  0  0  0  0  0  0  0  0  0  0  0
  135.3273  138.1754  161.2609 C   0  0  0  0  0  0  0  0  0  0  0  0
  135.3026  138.9367  160.1808 C   0  0  0  0  0  0  0  0  0  0  0  0
  136.3126  140.0554  160.2887 C   0  0  0  0  0  0  0  0  0  0  0  0
  136.6841  140.1116  161.7882 C   0  0  0  0  0  0  0  0  0  0  0  0
  136.3646  138.6689  162.2427 C   0  0  0  0  0  0  0  0  0  0  0  0
  133.1875  136.9500  160.9096 C   0  0  0  0  0  0  0  0  0  0  0  0
  129.4546  137.1766  159.9393 H   0  0  0  0  0  0  0  0  0  0  0  0
  130.3914  137.6674  161.3710 H   0  0  0  0  0  0  0  0  0  0  0  0
  131.1071  137.8099  159.7475 H   0  0  0  0  0  0  0  0  0  0  0  0
  131.0278  133.4315  157.0740 H   0  0  0  0  0  0  0  0  0  0  0  0
  131.6970  131.9770  157.9893 H   0  0  0  0  0  0  0  0  0  0  0  0
  128.5899  133.8634  157.5669 H   0  0  0  0  0  0  0  0  0  0  0  0
  128.8323  133.3006  161.1239 H   0  0  0  0  0  0  0  0  0  0  0  0
  127.1862  134.0954  162.7718 H   0  0  0  0  0  0  0  0  0  0  0  0
  124.2691  135.9248  161.8248 H   0  0  0  0  0  0  0  0  0  0  0  0
  124.8662  135.8210  159.6257 H   0  0  0  0  0  0  0  0  0  0  0  0
  126.5157  135.0359  157.9767 H   0  0  0  0  0  0  0  0  0  0  0  0
  132.2102  133.9250  162.0333 H   0  0  0  0  0  0  0  0  0  0  0  0
  134.4530  133.9987  163.0407 H   0  0  0  0  0  0  0  0  0  0  0  0
  135.9009  135.9560  162.6885 H   0  0  0  0  0  0  0  0  0  0  0  0
  134.6471  138.7818  159.3365 H   0  0  0  0  0  0  0  0  0  0  0  0
  135.8715  141.0005  159.9715 H   0  0  0  0  0  0  0  0  0  0  0  0
  137.1931  139.8281  159.6879 H   0  0  0  0  0  0  0  0  0  0  0  0
  136.0632  140.8343  162.3177 H   0  0  0  0  0  0  0  0  0  0  0  0
  137.7422  140.3375  161.9208 H   0  0  0  0  0  0  0  0  0  0  0  0
  135.9590  138.6708  163.2543 H   0  0  0  0  0  0  0  0  0  0  0  0
  137.2595  138.0485  162.1930 H   0  0  0  0  0  0  0  0  0  0  0  0
  132.8304  137.7758  160.3122 H   0  0  0  0  0  0  0  0  0  0  0  0
  1  2  1  0
  1 31  1  0
  1 32  1  0
  1 33  1  0
  2  3  1  1
  2  4  1  0
  2 20  1  0
  4  5  1  0
  4  6  1  0
  4  7  1  0
  7  8  1  1
  7 10  1  0
  7  9  1  0
  9 10  1  0
  9 34  1  0
  9 35  1  0
 10 11  1  1
 10 12  1  0
 12 13  1  0
 12 36  1  0
 13 19  1  0
 13 14  2  0
 14 15  1  0
 14 37  1  0
 15 16  2  0
 15 38  1  0
 16 17  1  0
 16 18  1  0
 17 39  1  0
 18 19  2  0
 18 40  1  0
 19 41  1  0
 20 30  1  0
 20 21  2  0
 21 22  1  0
 21 42  1  0
 22 23  2  0
 22 43  1  0
 23 24  1  0
 23 44  1  0
 24 25  1  0
 24 30  2  0
 25 29  1  0
 25 26  2  0
 26 27  1  0
 26 45  1  0
 27 28  1  0
 27 46  1  0
 27 47  1  0
 28 29  1  0
 28 48  1  0
 28 49  1  0
 29 50  1  0
 29 51  1  0
 30 52  1  0
M  CHG  1   4   1
M  END
>  <DOCK_score>  (1) 
-46.088978

>  <SMILES>  (1) 
C[C@@H]([NH2+][C@@H]1C[C@@H]1Nc1ccc(O)cc1)c1cccc(C2=CCCC2)c1

$$$$
