Nc1cc(Nc2[nH]cc(-c3ccc([N+](=O)[O-])cc3)[nH+]2)ccc1NC(c1ccccc1)c1ccccc1
     RDKit          3D

 61 65  0  0  1  0  0  0  0  0999 V2000
  126.1434  135.4952  161.3575 N   0  0  0  0  0  0  0  0  0  0  0  0
  127.3694  136.1119  161.1216 C   0  0  0  0  0  0  0  0  0  0  0  0
  128.1768  135.6754  160.0934 C   0  0  0  0  0  0  0  0  0  0  0  0
  129.4075  136.3003  159.8619 C   0  0  0  0  0  0  0  0  0  0  0  0
  130.2155  135.8658  158.8445 N   0  0  0  0  0  0  0  0  0  0  0  0
  130.1895  134.5774  158.4709 C   0  0  0  0  0  0  0  0  0  0  0  0
  129.8992  133.5215  159.3047 N   0  0  0  0  0  0  0  0  0  0  0  0
  129.6820  133.5815  160.2481 H   0  0  0  0  0  0  0  0  0  0  0  0
  129.9704  132.3945  158.5802 C   0  0  0  0  0  0  0  0  0  0  0  0
  130.3302  132.8160  157.2142 C   0  0  0  0  0  0  0  0  0  0  0  0
  130.5286  131.9400  156.0472 C   0  0  0  0  0  0  0  0  0  0  0  0
  130.2448  132.4093  154.7568 C   0  0  0  0  0  0  0  0  0  0  0  0
  130.4383  131.5850  153.6705 C   0  0  0  0  0  0  0  0  0  0  0  0
  130.9018  130.2916  153.8509 C   0  0  0  0  0  0  0  0  0  0  0  0
  131.1018  129.4088  152.6750 N   0  0  0  0  0  0  0  0  0  0  0  0
  130.8391  129.8551  151.4642 O   0  0  0  0  0  0  0  0  0  0  0  0
  131.5419  128.1787  152.8422 O   0  0  0  0  0  0  0  0  0  0  0  0
  131.1798  129.8174  155.1236 C   0  0  0  0  0  0  0  0  0  0  0  0
  130.9971  130.6298  156.2206 C   0  0  0  0  0  0  0  0  0  0  0  0
  130.4354  134.1366  157.2392 N   0  0  0  0  0  0  0  0  0  0  0  0
  130.6595  134.6953  156.4785 H   0  0  0  0  0  0  0  0  0  0  0  0
  129.8185  137.3719  160.6780 C   0  0  0  0  0  0  0  0  0  0  0  0
  129.0224  137.8047  161.6946 C   0  0  0  0  0  0  0  0  0  0  0  0
  127.7899  137.1873  161.9350 C   0  0  0  0  0  0  0  0  0  0  0  0
  126.9867  137.6283  162.9657 N   0  0  0  0  0  0  0  0  0  0  0  0
  127.5899  138.2169  164.1640 C   0  0  0  0  0  0  0  0  0  0  0  0
  127.0951  139.6302  164.3330 C   0  0  0  0  0  0  0  0  0  0  0  0
  127.8974  140.5751  164.9448 C   0  0  0  0  0  0  0  0  0  0  0  0
  127.4452  141.8727  165.0953 C   0  0  0  0  0  0  0  0  0  0  0  0
  126.1867  142.2229  164.6435 C   0  0  0  0  0  0  0  0  0  0  0  0
  125.3823  141.2767  164.0364 C   0  0  0  0  0  0  0  0  0  0  0  0
  125.8365  139.9804  163.8811 C   0  0  0  0  0  0  0  0  0  0  0  0
  127.2052  137.4021  165.3720 C   0  0  0  0  0  0  0  0  0  0  0  0
  128.0628  137.3217  166.4532 C   0  0  0  0  0  0  0  0  0  0  0  0
  127.7076  136.5782  167.5632 C   0  0  0  0  0  0  0  0  0  0  0  0
  126.4997  135.9066  167.5876 C   0  0  0  0  0  0  0  0  0  0  0  0
  125.6444  135.9828  166.5042 C   0  0  0  0  0  0  0  0  0  0  0  0
  125.9972  136.7306  165.3965 C   0  0  0  0  0  0  0  0  0  0  0  0
  125.8562  134.7570  160.7976 H   0  0  0  0  0  0  0  0  0  0  0  0
  125.5767  135.8038  162.0816 H   0  0  0  0  0  0  0  0  0  0  0  0
  127.8609  134.8533  159.4683 H   0  0  0  0  0  0  0  0  0  0  0  0
  130.8062  136.4894  158.3943 H   0  0  0  0  0  0  0  0  0  0  0  0
  129.7993  131.3860  158.9265 H   0  0  0  0  0  0  0  0  0  0  0  0
  129.8794  133.4158  154.6148 H   0  0  0  0  0  0  0  0  0  0  0  0
  130.2240  131.9464  152.6755 H   0  0  0  0  0  0  0  0  0  0  0  0
  131.5405  128.8079  155.2552 H   0  0  0  0  0  0  0  0  0  0  0  0
  131.2143  130.2589  157.2114 H   0  0  0  0  0  0  0  0  0  0  0  0
  130.7688  137.8520  160.4972 H   0  0  0  0  0  0  0  0  0  0  0  0
  129.3431  138.6269  162.3170 H   0  0  0  0  0  0  0  0  0  0  0  0
  126.0225  137.5486  162.8971 H   0  0  0  0  0  0  0  0  0  0  0  0
  128.6750  138.2218  164.0595 H   0  0  0  0  0  0  0  0  0  0  0  0
  128.8789  140.3004  165.3017 H   0  0  0  0  0  0  0  0  0  0  0  0
  128.0735  142.6118  165.5700 H   0  0  0  0  0  0  0  0  0  0  0  0
  125.8317  143.2356  164.7652 H   0  0  0  0  0  0  0  0  0  0  0  0
  124.3988  141.5502  163.6837 H   0  0  0  0  0  0  0  0  0  0  0  0
  125.2078  139.2411  163.4070 H   0  0  0  0  0  0  0  0  0  0  0  0
  129.0084  137.8427  166.4322 H   0  0  0  0  0  0  0  0  0  0  0  0
  128.3760  136.5184  168.4094 H   0  0  0  0  0  0  0  0  0  0  0  0
  126.2242  135.3222  168.4531 H   0  0  0  0  0  0  0  0  0  0  0  0
  124.7007  135.4579  166.5232 H   0  0  0  0  0  0  0  0  0  0  0  0
  125.3293  136.7898  164.5498 H   0  0  0  0  0  0  0  0  0  0  0  0
  1  2  1  0
  1 39  1  0
  1 40  1  0
  2 24  2  0
  2  3  1  0
  3  4  2  0
  3 41  1  0
  4  5  1  0
  4 22  1  0
  5 42  1  0
  6  5  1  0
  6 20  2  0
  6  7  1  0
  7  8  1  0
  7  9  1  0
  9 10  2  0
  9 43  1  0
 10 11  1  0
 10 20  1  0
 11 19  1  0
 11 12  2  0
 12 13  1  0
 12 44  1  0
 13 14  2  0
 13 45  1  0
 14 15  1  0
 14 18  1  0
 15 16  2  0
 15 17  1  0
 18 19  2  0
 18 46  1  0
 19 47  1  0
 20 21  1  0
 22 23  2  0
 22 48  1  0
 23 24  1  0
 23 49  1  0
 24 25  1  0
 25 26  1  0
 25 50  1  0
 26 27  1  0
 26 33  1  0
 26 51  1  0
 27 32  1  0
 27 28  2  0
 28 29  1  0
 28 52  1  0
 29 30  2  0
 29 53  1  0
 30 31  1  0
 30 54  1  0
 31 32  2  0
 31 55  1  0
 32 56  1  0
 33 38  1  0
 33 34  2  0
 34 35  1  0
 34 57  1  0
 35 36  2  0
 35 58  1  0
 36 37  1  0
 36 59  1  0
 37 38  2  0
 37 60  1  0
 38 61  1  0
M  CHG  3  15   1  17  -1  20   1
M  END
>  <DOCK_score>  (1) 
-57.222115

>  <SMILES>  (1) 
Nc1cc(Nc2[nH]cc(-c3ccc([N+](=O)[O-])cc3)[nH+]2)ccc1NC(c1ccccc1)c1ccccc1

$$$$
