[NH3+][C@@H](C(=O)Nc1cccc(O)c1)c1cccc(Oc2cccc3ccccc23)c1
     RDKit          3D

 50 53  0  0  1  0  0  0  0  0999 V2000
  130.7021  134.0348  157.4442 N   0  0  0  0  0  0  0  0  0  0  0  0
  130.1025  134.2351  156.6577 H   0  0  0  0  0  0  0  0  0  0  0  0
  131.6154  134.4310  157.2801 H   0  0  0  0  0  0  0  0  0  0  0  0
  130.7844  133.0357  157.5583 H   0  0  0  0  0  0  0  0  0  0  0  0
  130.1254  134.6210  158.6615 C   0  0  1  0  0  0  0  0  0  0  0  0
  130.0365  135.7003  158.5380 H   0  0  0  0  0  0  0  0  0  0  0  0
  128.7613  134.0292  158.9064 C   0  0  0  0  0  0  0  0  0  0  0  0
  128.3135  133.2006  158.1420 O   0  0  0  0  0  0  0  0  0  0  0  0
  128.0387  134.4207  159.9746 N   0  0  0  0  0  0  0  0  0  0  0  0
  126.7722  133.8710  160.2021 C   0  0  0  0  0  0  0  0  0  0  0  0
  126.4904  132.5768  159.7835 C   0  0  0  0  0  0  0  0  0  0  0  0
  125.2420  132.0322  160.0132 C   0  0  0  0  0  0  0  0  0  0  0  0
  124.2668  132.7768  160.6495 C   0  0  0  0  0  0  0  0  0  0  0  0
  124.5410  134.0721  161.0648 C   0  0  0  0  0  0  0  0  0  0  0  0
  123.5810  134.8033  161.6900 O   0  0  0  0  0  0  0  0  0  0  0  0
  125.7946  134.6201  160.8412 C   0  0  0  0  0  0  0  0  0  0  0  0
  131.0210  134.3217  159.8360 C   0  0  0  0  0  0  0  0  0  0  0  0
  130.8273  133.1699  160.5766 C   0  0  0  0  0  0  0  0  0  0  0  0
  131.6474  132.8921  161.6544 C   0  0  0  0  0  0  0  0  0  0  0  0
  132.6666  133.7621  161.9908 C   0  0  0  0  0  0  0  0  0  0  0  0
  132.8594  134.9212  161.2529 C   0  0  0  0  0  0  0  0  0  0  0  0
  133.8574  135.7813  161.5852 O   0  0  0  0  0  0  0  0  0  0  0  0
  133.5764  136.7729  162.4692 C   0  0  0  0  0  0  0  0  0  0  0  0
  133.1454  136.4680  163.7408 C   0  0  0  0  0  0  0  0  0  0  0  0
  132.8556  137.4766  164.6554 C   0  0  0  0  0  0  0  0  0  0  0  0
  132.9884  138.7893  164.3194 C   0  0  0  0  0  0  0  0  0  0  0  0
  133.4252  139.1423  163.0314 C   0  0  0  0  0  0  0  0  0  0  0  0
  133.5724  140.4888  162.6557 C   0  0  0  0  0  0  0  0  0  0  0  0
  133.9989  140.7952  161.4001 C   0  0  0  0  0  0  0  0  0  0  0  0
  134.2923  139.7926  160.4777 C   0  0  0  0  0  0  0  0  0  0  0  0
  134.1610  138.4781  160.8065 C   0  0  0  0  0  0  0  0  0  0  0  0
  133.7237  138.1237  162.0928 C   0  0  0  0  0  0  0  0  0  0  0  0
  132.0346  135.1976  160.1715 C   0  0  0  0  0  0  0  0  0  0  0  0
  128.3969  135.0833  160.5858 H   0  0  0  0  0  0  0  0  0  0  0  0
  127.2492  131.9944  159.2820 H   0  0  0  0  0  0  0  0  0  0  0  0
  125.0258  131.0244  159.6907 H   0  0  0  0  0  0  0  0  0  0  0  0
  123.2903  132.3497  160.8242 H   0  0  0  0  0  0  0  0  0  0  0  0
  123.8653  135.6927  161.9415 H   0  0  0  0  0  0  0  0  0  0  0  0
  126.0098  135.6280  161.1639 H   0  0  0  0  0  0  0  0  0  0  0  0
  130.0338  132.4863  160.3127 H   0  0  0  0  0  0  0  0  0  0  0  0
  131.4941  131.9919  162.2312 H   0  0  0  0  0  0  0  0  0  0  0  0
  133.3099  133.5422  162.8299 H   0  0  0  0  0  0  0  0  0  0  0  0
  133.0317  135.4343  164.0324 H   0  0  0  0  0  0  0  0  0  0  0  0
  132.5193  137.2136  165.6475 H   0  0  0  0  0  0  0  0  0  0  0  0
  132.7627  139.5582  165.0433 H   0  0  0  0  0  0  0  0  0  0  0  0
  133.3488  141.2765  163.3601 H   0  0  0  0  0  0  0  0  0  0  0  0
  134.1115  141.8305  161.1142 H   0  0  0  0  0  0  0  0  0  0  0  0
  134.6285  140.0624  159.4875 H   0  0  0  0  0  0  0  0  0  0  0  0
  134.3922  137.7116  160.0816 H   0  0  0  0  0  0  0  0  0  0  0  0
  132.1857  136.0967  159.5925 H   0  0  0  0  0  0  0  0  0  0  0  0
  1  2  1  0
  1  3  1  0
  1  4  1  0
  1  5  1  0
  5  6  1  6
  5  7  1  0
  5 17  1  0
  7  8  2  0
  7  9  1  0
  9 10  1  0
  9 34  1  0
 10 16  1  0
 10 11  2  0
 11 12  1  0
 11 35  1  0
 12 13  2  0
 12 36  1  0
 13 14  1  0
 13 37  1  0
 14 15  1  0
 14 16  2  0
 15 38  1  0
 16 39  1  0
 17 33  1  0
 17 18  2  0
 18 19  1  0
 18 40  1  0
 19 20  2  0
 19 41  1  0
 20 21  1  0
 20 42  1  0
 21 22  1  0
 21 33  2  0
 22 23  1  0
 23 32  1  0
 23 24  2  0
 24 25  1  0
 24 43  1  0
 25 26  2  0
 25 44  1  0
 26 27  1  0
 26 45  1  0
 27 32  2  0
 27 28  1  0
 28 29  2  0
 28 46  1  0
 29 30  1  0
 29 47  1  0
 30 31  2  0
 30 48  1  0
 31 32  1  0
 31 49  1  0
 33 50  1  0
M  CHG  1   1   1
M  END
>  <DOCK_score>  (1) 
-47.240524

>  <SMILES>  (1) 
[NH3+][C@@H](C(=O)Nc1cccc(O)c1)c1cccc(Oc2cccc3ccccc23)c1

$$$$
