Cc1ccc([C@H](CC2=CCC=CC2)Nc2[nH]cc(-c3ccc(N)cc3)[nH+]2)cc1
     RDKit          3D

 55 58  0  0  1  0  0  0  0  0999 V2000
  124.5094  134.0372  161.7688 C   0  0  0  0  0  0  0  0  0  0  0  0
  125.9281  134.4066  161.4201 C   0  0  0  0  0  0  0  0  0  0  0  0
  126.9781  133.6447  161.8979 C   0  0  0  0  0  0  0  0  0  0  0  0
  128.2795  133.9839  161.5785 C   0  0  0  0  0  0  0  0  0  0  0  0
  128.5312  135.0856  160.7825 C   0  0  0  0  0  0  0  0  0  0  0  0
  129.9502  135.4555  160.4346 C   0  0  2  0  0  0  0  0  0  0  0  0
  130.6348  134.7445  160.8973 H   0  0  0  0  0  0  0  0  0  0  0  0
  130.2513  136.8637  160.9516 C   0  0  0  0  0  0  0  0  0  0  0  0
  131.6701  137.2337  160.6037 C   0  0  0  0  0  0  0  0  0  0  0  0
  131.8749  138.2739  159.8543 C   0  0  0  0  0  0  0  0  0  0  0  0
  133.2453  138.7276  159.4501 C   0  0  0  0  0  0  0  0  0  0  0  0
  134.2936  138.1628  160.3608 C   0  0  0  0  0  0  0  0  0  0  0  0
  134.0891  137.1224  161.1099 C   0  0  0  0  0  0  0  0  0  0  0  0
  132.7845  136.3884  161.1430 C   0  0  0  0  0  0  0  0  0  0  0  0
  130.1209  135.4223  158.9800 N   0  0  0  0  0  0  0  0  0  0  0  0
  129.9018  134.2457  158.2841 C   0  0  0  0  0  0  0  0  0  0  0  0
  129.0242  133.2677  158.6371 N   0  0  0  0  0  0  0  0  0  0  0  0
  128.4446  133.2691  159.4150 H   0  0  0  0  0  0  0  0  0  0  0  0
  129.1109  132.2770  157.6878 C   0  0  0  0  0  0  0  0  0  0  0  0
  130.0382  132.6788  156.7838 C   0  0  0  0  0  0  0  0  0  0  0  0
  130.4663  131.9263  155.5791 C   0  0  0  0  0  0  0  0  0  0  0  0
  130.2979  132.4828  154.3121 C   0  0  0  0  0  0  0  0  0  0  0  0
  130.7013  131.7838  153.1940 C   0  0  0  0  0  0  0  0  0  0  0  0
  131.2649  130.5204  153.3289 C   0  0  0  0  0  0  0  0  0  0  0  0
  131.6676  129.8117  152.1945 N   0  0  0  0  0  0  0  0  0  0  0  0
  131.4290  129.9615  154.5908 C   0  0  0  0  0  0  0  0  0  0  0  0
  131.0322  130.6593  155.7120 C   0  0  0  0  0  0  0  0  0  0  0  0
  130.5017  133.8929  157.1732 N   0  0  0  0  0  0  0  0  0  0  0  0
  131.1718  134.4155  156.7055 H   0  0  0  0  0  0  0  0  0  0  0  0
  127.4815  135.8482  160.3058 C   0  0  0  0  0  0  0  0  0  0  0  0
  126.1799  135.5089  160.6249 C   0  0  0  0  0  0  0  0  0  0  0  0
  124.1158  133.3555  161.0149 H   0  0  0  0  0  0  0  0  0  0  0  0
  124.4896  133.5510  162.7440 H   0  0  0  0  0  0  0  0  0  0  0  0
  123.8964  134.9380  161.7994 H   0  0  0  0  0  0  0  0  0  0  0  0
  126.7813  132.7838  162.5195 H   0  0  0  0  0  0  0  0  0  0  0  0
  129.0994  133.3854  161.9472 H   0  0  0  0  0  0  0  0  0  0  0  0
  129.5666  137.5746  160.4890 H   0  0  0  0  0  0  0  0  0  0  0  0
  130.1243  136.8883  162.0338 H   0  0  0  0  0  0  0  0  0  0  0  0
  131.0210  138.8368  159.5074 H   0  0  0  0  0  0  0  0  0  0  0  0
  133.4439  138.3994  158.4299 H   0  0  0  0  0  0  0  0  0  0  0  0
  133.2876  139.8161  159.4898 H   0  0  0  0  0  0  0  0  0  0  0  0
  135.2610  138.6419  160.3949 H   0  0  0  0  0  0  0  0  0  0  0  0
  134.8936  136.7733  161.7402 H   0  0  0  0  0  0  0  0  0  0  0  0
  132.5555  136.1088  162.1713 H   0  0  0  0  0  0  0  0  0  0  0  0
  132.8721  135.4850  160.5393 H   0  0  0  0  0  0  0  0  0  0  0  0
  130.3875  136.2247  158.5045 H   0  0  0  0  0  0  0  0  0  0  0  0
  128.5484  131.3553  157.6663 H   0  0  0  0  0  0  0  0  0  0  0  0
  129.8556  133.4623  154.2065 H   0  0  0  0  0  0  0  0  0  0  0  0
  130.5751  132.2163  152.2126 H   0  0  0  0  0  0  0  0  0  0  0  0
  132.0613  128.9301  152.2877 H   0  0  0  0  0  0  0  0  0  0  0  0
  131.5534  130.2010  151.3134 H   0  0  0  0  0  0  0  0  0  0  0  0
  131.8671  128.9797  154.6933 H   0  0  0  0  0  0  0  0  0  0  0  0
  131.1602  130.2248  156.6923 H   0  0  0  0  0  0  0  0  0  0  0  0
  127.6781  136.7095  159.6845 H   0  0  0  0  0  0  0  0  0  0  0  0
  125.3598  136.1052  160.2530 H   0  0  0  0  0  0  0  0  0  0  0  0
  1  2  1  0
  1 32  1  0
  1 33  1  0
  1 34  1  0
  2 31  2  0
  2  3  1  0
  3  4  2  0
  3 35  1  0
  4  5  1  0
  4 36  1  0
  5  6  1  0
  5 30  2  0
  6  7  1  1
  6  8  1  0
  6 15  1  0
  8  9  1  0
  8 37  1  0
  8 38  1  0
  9 14  1  0
  9 10  2  0
 10 11  1  0
 10 39  1  0
 11 12  1  0
 11 40  1  0
 11 41  1  0
 12 13  2  0
 12 42  1  0
 13 14  1  0
 13 43  1  0
 14 44  1  0
 14 45  1  0
 15 46  1  0
 16 15  1  0
 16 28  2  0
 16 17  1  0
 17 18  1  0
 17 19  1  0
 19 20  2  0
 19 47  1  0
 20 21  1  0
 20 28  1  0
 21 27  1  0
 21 22  2  0
 22 23  1  0
 22 48  1  0
 23 24  2  0
 23 49  1  0
 24 25  1  0
 24 26  1  0
 25 50  1  0
 25 51  1  0
 26 27  2  0
 26 52  1  0
 27 53  1  0
 28 29  1  0
 30 31  1  0
 30 54  1  0
 31 55  1  0
M  CHG  1  28   1
M  END
>  <DOCK_score>  (1) 
-58.414764

>  <SMILES>  (1) 
Cc1ccc([C@H](CC2=CCC=CC2)Nc2[nH]cc(-c3ccc(N)cc3)[nH+]2)cc1

$$$$
