[NH3+][C@@H](C(=O)Nc1cccc(O)c1)c1cccc(OCc2ccccc2)c1
     RDKit          3D

 47 49  0  0  1  0  0  0  0  0999 V2000
  131.6575  133.6332  158.4464 N   0  0  0  0  0  0  0  0  0  0  0  0
  131.2454  133.3528  157.5690 H   0  0  0  0  0  0  0  0  0  0  0  0
  132.5299  134.1090  158.2712 H   0  0  0  0  0  0  0  0  0  0  0  0
  131.8278  132.8168  159.0142 H   0  0  0  0  0  0  0  0  0  0  0  0
  130.7396  134.5376  159.1517 C   0  0  1  0  0  0  0  0  0  0  0  0
  130.5557  135.4196  158.5382 H   0  0  0  0  0  0  0  0  0  0  0  0
  129.4367  133.8270  159.4132 C   0  0  0  0  0  0  0  0  0  0  0  0
  129.4228  132.6246  159.5717 O   0  0  0  0  0  0  0  0  0  0  0  0
  128.2867  134.5276  159.4710 N   0  0  0  0  0  0  0  0  0  0  0  0
  127.0770  133.8678  159.7137 C   0  0  0  0  0  0  0  0  0  0  0  0
  126.9053  132.5540  159.2961 C   0  0  0  0  0  0  0  0  0  0  0  0
  125.7110  131.9028  159.5356 C   0  0  0  0  0  0  0  0  0  0  0  0
  124.6866  132.5535  160.1969 C   0  0  0  0  0  0  0  0  0  0  0  0
  124.8504  133.8677  160.6112 C   0  0  0  0  0  0  0  0  0  0  0  0
  123.8400  134.5083  161.2559 O   0  0  0  0  0  0  0  0  0  0  0  0
  126.0474  134.5248  160.3723 C   0  0  0  0  0  0  0  0  0  0  0  0
  131.3552  134.9565  160.4619 C   0  0  0  0  0  0  0  0  0  0  0  0
  131.1268  134.2089  161.6027 C   0  0  0  0  0  0  0  0  0  0  0  0
  131.6947  134.5872  162.8050 C   0  0  0  0  0  0  0  0  0  0  0  0
  132.4829  135.7200  162.8719 C   0  0  0  0  0  0  0  0  0  0  0  0
  132.7087  136.4747  161.7301 C   0  0  0  0  0  0  0  0  0  0  0  0
  133.4834  137.5896  161.7935 O   0  0  0  0  0  0  0  0  0  0  0  0
  133.6728  138.3178  160.5787 C   0  0  0  0  0  0  0  0  0  0  0  0
  134.5522  139.5130  160.8412 C   0  0  0  0  0  0  0  0  0  0  0  0
  135.3759  139.9979  159.8427 C   0  0  0  0  0  0  0  0  0  0  0  0
  136.1790  141.0972  160.0820 C   0  0  0  0  0  0  0  0  0  0  0  0
  136.1661  141.7054  161.3233 C   0  0  0  0  0  0  0  0  0  0  0  0
  135.3462  141.2174  162.3236 C   0  0  0  0  0  0  0  0  0  0  0  0
  134.5392  140.1213  162.0826 C   0  0  0  0  0  0  0  0  0  0  0  0
  132.1422  136.0896  160.5235 C   0  0  0  0  0  0  0  0  0  0  0  0
  128.2979  135.4893  159.3444 H   0  0  0  0  0  0  0  0  0  0  0  0
  127.7060  132.0417  158.7834 H   0  0  0  0  0  0  0  0  0  0  0  0
  125.5792  130.8815  159.2099 H   0  0  0  0  0  0  0  0  0  0  0  0
  123.7557  132.0400  160.3874 H   0  0  0  0  0  0  0  0  0  0  0  0
  124.0475  135.4193  161.5050 H   0  0  0  0  0  0  0  0  0  0  0  0
  126.1782  135.5463  160.6976 H   0  0  0  0  0  0  0  0  0  0  0  0
  130.5071  133.3256  161.5535 H   0  0  0  0  0  0  0  0  0  0  0  0
  131.5182  133.9995  163.6937 H   0  0  0  0  0  0  0  0  0  0  0  0
  132.9224  136.0178  163.8123 H   0  0  0  0  0  0  0  0  0  0  0  0
  134.1472  137.6731  159.8388 H   0  0  0  0  0  0  0  0  0  0  0  0
  132.7066  138.6535  160.2017 H   0  0  0  0  0  0  0  0  0  0  0  0
  135.3894  139.5200  158.8741 H   0  0  0  0  0  0  0  0  0  0  0  0
  136.8199  141.4783  159.3007 H   0  0  0  0  0  0  0  0  0  0  0  0
  136.7968  142.5617  161.5117 H   0  0  0  0  0  0  0  0  0  0  0  0
  135.3363  141.6924  163.2936 H   0  0  0  0  0  0  0  0  0  0  0  0
  133.8990  139.7398  162.8642 H   0  0  0  0  0  0  0  0  0  0  0  0
  132.3165  136.6758  159.6333 H   0  0  0  0  0  0  0  0  0  0  0  0
  1  2  1  0
  1  3  1  0
  1  4  1  0
  1  5  1  0
  5  6  1  6
  5  7  1  0
  5 17  1  0
  7  8  2  0
  7  9  1  0
  9 10  1  0
  9 31  1  0
 10 16  1  0
 10 11  2  0
 11 12  1  0
 11 32  1  0
 12 13  2  0
 12 33  1  0
 13 14  1  0
 13 34  1  0
 14 15  1  0
 14 16  2  0
 15 35  1  0
 16 36  1  0
 17 30  1  0
 17 18  2  0
 18 19  1  0
 18 37  1  0
 19 20  2  0
 19 38  1  0
 20 21  1  0
 20 39  1  0
 21 22  1  0
 21 30  2  0
 22 23  1  0
 23 24  1  0
 23 40  1  0
 23 41  1  0
 24 29  1  0
 24 25  2  0
 25 26  1  0
 25 42  1  0
 26 27  2  0
 26 43  1  0
 27 28  1  0
 27 44  1  0
 28 29  2  0
 28 45  1  0
 29 46  1  0
 30 47  1  0
M  CHG  1   1   1
M  END
>  <DOCK_score>  (1) 
-42.73278

>  <SMILES>  (1) 
[NH3+][C@@H](C(=O)Nc1cccc(O)c1)c1cccc(OCc2ccccc2)c1

$$$$
