C#CCNC(N[C@H]1CCC(=O)NC1)=[NH+]C1CC1
     RDKit          3D

 36 37  0  0  1  0  0  0  0  0999 V2000
  130.7627  131.1788  158.5523 C   0  0  0  0  0  0  0  0  0  0  0  0
  130.3791  132.1048  157.9411 C   0  0  0  0  0  0  0  0  0  0  0  0
  129.8982  133.2658  157.1746 C   0  0  0  0  0  0  0  0  0  0  0  0
  129.0841  134.1206  158.0424 N   0  0  0  0  0  0  0  0  0  0  0  0
  129.6348  134.6745  159.1738 C   0  0  0  0  0  0  0  0  0  0  0  0
  128.8440  134.9289  160.2694 N   0  0  0  0  0  0  0  0  0  0  0  0
  127.4147  134.6097  160.2312 C   0  0  1  0  0  0  0  0  0  0  0  0
  127.0476  134.6980  159.2087 H   0  0  0  0  0  0  0  0  0  0  0  0
  127.1936  133.1784  160.7354 C   0  0  0  0  0  0  0  0  0  0  0  0
  125.7247  132.8091  160.5140 C   0  0  0  0  0  0  0  0  0  0  0  0
  124.8383  133.9017  161.0392 C   0  0  0  0  0  0  0  0  0  0  0  0
  123.6707  133.6452  161.2432 O   0  0  0  0  0  0  0  0  0  0  0  0
  125.2666  135.1388  161.2934 N   0  0  0  0  0  0  0  0  0  0  0  0
  126.6485  135.5742  161.1341 C   0  0  0  0  0  0  0  0  0  0  0  0
  130.9064  134.9585  159.2079 N   0  0  0  0  0  0  0  0  0  0  0  0
  131.3710  135.2015  158.3918 H   0  0  0  0  0  0  0  0  0  0  0  0
  131.6338  134.9105  160.4785 C   0  0  0  0  0  0  0  0  0  0  0  0
  132.6896  135.9893  160.7293 C   0  0  0  0  0  0  0  0  0  0  0  0
  133.1206  134.5524  160.4284 C   0  0  0  0  0  0  0  0  0  0  0  0
  131.1058  130.3506  159.0990 H   0  0  0  0  0  0  0  0  0  0  0  0
  129.2950  132.9219  156.3343 H   0  0  0  0  0  0  0  0  0  0  0  0
  130.7507  133.8335  156.8018 H   0  0  0  0  0  0  0  0  0  0  0  0
  128.1566  134.2957  157.8187 H   0  0  0  0  0  0  0  0  0  0  0  0
  129.2326  135.3196  161.0677 H   0  0  0  0  0  0  0  0  0  0  0  0
  127.4297  133.1232  161.7981 H   0  0  0  0  0  0  0  0  0  0  0  0
  127.8325  132.4911  160.1809 H   0  0  0  0  0  0  0  0  0  0  0  0
  125.5023  131.8793  161.0377 H   0  0  0  0  0  0  0  0  0  0  0  0
  125.5417  132.6754  159.4478 H   0  0  0  0  0  0  0  0  0  0  0  0
  124.6170  135.7907  161.5999 H   0  0  0  0  0  0  0  0  0  0  0  0
  126.6634  136.5714  160.6941 H   0  0  0  0  0  0  0  0  0  0  0  0
  127.1306  135.6075  162.1111 H   0  0  0  0  0  0  0  0  0  0  0  0
  131.0601  134.5585  161.3358 H   0  0  0  0  0  0  0  0  0  0  0  0
  132.8428  136.7347  159.9488 H   0  0  0  0  0  0  0  0  0  0  0  0
  132.8103  136.3472  161.7517 H   0  0  0  0  0  0  0  0  0  0  0  0
  133.5249  133.9651  161.2528 H   0  0  0  0  0  0  0  0  0  0  0  0
  133.5573  134.3520  159.4499 H   0  0  0  0  0  0  0  0  0  0  0  0
  1  2  3  0
  1 20  1  0
  2  3  1  0
  3  4  1  0
  3 21  1  0
  3 22  1  0
  4 23  1  0
  5  4  1  0
  5  6  1  0
  5 15  2  0
  6  7  1  0
  6 24  1  0
  7  8  1  6
  7 14  1  0
  7  9  1  0
  9 10  1  0
  9 25  1  0
  9 26  1  0
 10 11  1  0
 10 27  1  0
 10 28  1  0
 11 12  2  0
 11 13  1  0
 13 14  1  0
 13 29  1  0
 14 30  1  0
 14 31  1  0
 15 16  1  0
 15 17  1  0
 17 19  1  0
 17 18  1  0
 17 32  1  0
 18 19  1  0
 18 33  1  0
 18 34  1  0
 19 35  1  0
 19 36  1  0
M  CHG  1  15   1
M  END
>  <DOCK_score>  (1) 
-42.443573

>  <SMILES>  (1) 
C#CCNC(N[C@H]1CCC(=O)NC1)=[NH+]C1CC1

$$$$
