Cc1ccc([C@H](C)C2=C(c3ccc(Cl)cc3)CCC2Nc2[nH]c(-c3ccccc3)c(C)[nH+]2)cc1
     RDKit          3D

 65 69  0  0  1  0  0  0  0  0999 V2000
  135.9698  139.6760  160.3552 C   0  0  0  0  0  0  0  0  0  0  0  0
  134.9341  138.7018  160.8545 C   0  0  0  0  0  0  0  0  0  0  0  0
  134.7023  138.5746  162.2114 C   0  0  0  0  0  0  0  0  0  0  0  0
  133.7525  137.6808  162.6695 C   0  0  0  0  0  0  0  0  0  0  0  0
  133.0348  136.9140  161.7708 C   0  0  0  0  0  0  0  0  0  0  0  0
  131.9996  135.9391  162.2703 C   0  0  2  0  0  0  0  0  0  0  0  0
  131.9587  135.9786  163.3588 H   0  0  0  0  0  0  0  0  0  0  0  0
  132.3750  134.5242  161.8250 C   0  0  0  0  0  0  0  0  0  0  0  0
  130.6517  136.3033  161.7033 C   0  0  0  0  0  0  0  0  0  0  0  0
  130.0418  137.4590  161.9015 C   0  0  0  0  0  0  0  0  0  0  0  0
  130.5895  138.5689  162.7093 C   0  0  0  0  0  0  0  0  0  0  0  0
  130.8256  139.8126  162.1219 C   0  0  0  0  0  0  0  0  0  0  0  0
  131.3320  140.8464  162.8820 C   0  0  0  0  0  0  0  0  0  0  0  0
  131.6160  140.6488  164.2230 C   0  0  0  0  0  0  0  0  0  0  0  0
  132.2593  141.9524  165.1717 Cl  0  0  0  0  0  0  0  0  0  0  0  0
  131.3891  139.4155  164.8097 C   0  0  0  0  0  0  0  0  0  0  0  0
  130.8779  138.3758  164.0609 C   0  0  0  0  0  0  0  0  0  0  0  0
  128.7090  137.4922  161.1903 C   0  0  0  0  0  0  0  0  0  0  0  0
  128.3966  136.0106  160.8642 C   0  0  0  0  0  0  0  0  0  0  0  0
  129.8149  135.3968  160.8307 C   0  0  1  0  0  0  0  0  0  0  0  0
  130.3338  135.3862  159.4608 N   0  0  0  0  0  0  0  0  0  0  0  0
  130.1853  134.2590  158.6739 C   0  0  0  0  0  0  0  0  0  0  0  0
  130.6257  134.1218  157.3939 N   0  0  0  0  0  0  0  0  0  0  0  0
  131.0971  134.7888  156.8705 H   0  0  0  0  0  0  0  0  0  0  0  0
  130.2696  132.8498  156.9801 C   0  0  0  0  0  0  0  0  0  0  0  0
  130.5329  132.2453  155.6575 C   0  0  0  0  0  0  0  0  0  0  0  0
  131.2973  131.0814  155.5582 C   0  0  0  0  0  0  0  0  0  0  0  0
  131.5397  130.5226  154.3204 C   0  0  0  0  0  0  0  0  0  0  0  0
  131.0270  131.1131  153.1790 C   0  0  0  0  0  0  0  0  0  0  0  0
  130.2686  132.2667  153.2703 C   0  0  0  0  0  0  0  0  0  0  0  0
  130.0186  132.8360  154.5018 C   0  0  0  0  0  0  0  0  0  0  0  0
  129.6360  132.2634  158.0292 C   0  0  0  0  0  0  0  0  0  0  0  0
  129.0708  130.8666  158.0517 C   0  0  0  0  0  0  0  0  0  0  0  0
  129.6004  133.1414  159.0401 N   0  0  0  0  0  0  0  0  0  0  0  0
  129.2034  132.9770  159.9097 H   0  0  0  0  0  0  0  0  0  0  0  0
  133.2703  137.0373  160.4143 C   0  0  0  0  0  0  0  0  0  0  0  0
  134.2163  137.9350  159.9559 C   0  0  0  0  0  0  0  0  0  0  0  0
  136.9362  139.1763  160.2885 H   0  0  0  0  0  0  0  0  0  0  0  0
  135.6804  140.0404  159.3695 H   0  0  0  0  0  0  0  0  0  0  0  0
  136.0419  140.5157  161.0463 H   0  0  0  0  0  0  0  0  0  0  0  0
  135.2634  139.1735  162.9136 H   0  0  0  0  0  0  0  0  0  0  0  0
  133.5716  137.5811  163.7296 H   0  0  0  0  0  0  0  0  0  0  0  0
  133.3499  134.2609  162.2352 H   0  0  0  0  0  0  0  0  0  0  0  0
  131.6262  133.8192  162.1863 H   0  0  0  0  0  0  0  0  0  0  0  0
  132.4158  134.4847  160.7366 H   0  0  0  0  0  0  0  0  0  0  0  0
  130.6084  139.9666  161.0752 H   0  0  0  0  0  0  0  0  0  0  0  0
  131.5113  141.8105  162.4296 H   0  0  0  0  0  0  0  0  0  0  0  0
  131.6123  139.2672  165.8559 H   0  0  0  0  0  0  0  0  0  0  0  0
  130.7017  137.4141  164.5196 H   0  0  0  0  0  0  0  0  0  0  0  0
  127.9409  137.9068  161.8430 H   0  0  0  0  0  0  0  0  0  0  0  0
  128.7828  138.0769  160.2735 H   0  0  0  0  0  0  0  0  0  0  0  0
  127.9076  135.9171  159.8946 H   0  0  0  0  0  0  0  0  0  0  0  0
  127.7928  135.5562  161.6498 H   0  0  0  0  0  0  0  0  0  0  0  0
  129.8004  134.3858  161.2379 H   0  0  0  0  0  0  0  0  0  0  0  0
  130.7815  136.1700  159.1058 H   0  0  0  0  0  0  0  0  0  0  0  0
  131.6979  130.6193  156.4484 H   0  0  0  0  0  0  0  0  0  0  0  0
  132.1273  129.6198  154.2427 H   0  0  0  0  0  0  0  0  0  0  0  0
  131.2200  130.6718  152.2123 H   0  0  0  0  0  0  0  0  0  0  0  0
  129.8717  132.7229  152.3753 H   0  0  0  0  0  0  0  0  0  0  0  0
  129.4268  133.7367  154.5716 H   0  0  0  0  0  0  0  0  0  0  0  0
  129.8344  130.1712  158.4001 H   0  0  0  0  0  0  0  0  0  0  0  0
  128.2138  130.8321  158.7243 H   0  0  0  0  0  0  0  0  0  0  0  0
  128.7553  130.5860  157.0466 H   0  0  0  0  0  0  0  0  0  0  0  0
  132.7125  136.4351  159.7125 H   0  0  0  0  0  0  0  0  0  0  0  0
  134.3976  138.0341  158.8958 H   0  0  0  0  0  0  0  0  0  0  0  0
  1  2  1  0
  1 38  1  0
  1 39  1  0
  1 40  1  0
  2 37  2  0
  2  3  1  0
  3  4  2  0
  3 41  1  0
  4  5  1  0
  4 42  1  0
  5  6  1  0
  5 36  2  0
  6  7  1  1
  6  8  1  0
  6  9  1  0
  8 43  1  0
  8 44  1  0
  8 45  1  0
  9 20  1  0
  9 10  2  0
 10 11  1  0
 10 18  1  0
 11 17  1  0
 11 12  2  0
 12 13  1  0
 12 46  1  0
 13 14  2  0
 13 47  1  0
 14 15  1  0
 14 16  1  0
 16 17  2  0
 16 48  1  0
 17 49  1  0
 18 19  1  0
 18 50  1  0
 18 51  1  0
 19 20  1  0
 19 52  1  0
 19 53  1  0
 20 21  1  0
 20 54  1  1
 21 55  1  0
 22 21  1  0
 22 34  2  0
 22 23  1  0
 23 24  1  0
 23 25  1  0
 25 26  1  0
 25 32  2  0
 26 31  1  0
 26 27  2  0
 27 28  1  0
 27 56  1  0
 28 29  2  0
 28 57  1  0
 29 30  1  0
 29 58  1  0
 30 31  2  0
 30 59  1  0
 31 60  1  0
 32 33  1  0
 32 34  1  0
 33 61  1  0
 33 62  1  0
 33 63  1  0
 34 35  1  0
 36 37  1  0
 36 64  1  0
 37 65  1  0
M  CHG  1  34   1
M  END
>  <DOCK_score>  (1) 
-57.464882

>  <SMILES>  (1) 
Cc1ccc([C@H](C)C2=C(c3ccc(Cl)cc3)CCC2Nc2[nH]c(-c3ccccc3)c(C)[nH+]2)cc1

$$$$
