Clc1ccc([C@@H](c2ccccc2)[NH+]2CCN(c3ccc4c(c3NC3CC=CC3)CCC4)CC2)cc1
     RDKit          3D

 70 75  0  0  1  0  0  0  0  0999 V2000
  124.5508  135.7978  156.9776 Cl  0  0  0  0  0  0  0  0  0  0  0  0
  125.9803  135.2275  157.7808 C   0  0  0  0  0  0  0  0  0  0  0  0
  125.8739  134.3338  158.8315 C   0  0  0  0  0  0  0  0  0  0  0  0
  127.0124  133.8805  159.4708 C   0  0  0  0  0  0  0  0  0  0  0  0
  128.2572  134.3197  159.0602 C   0  0  0  0  0  0  0  0  0  0  0  0
  129.4982  133.8250  159.7577 C   0  0  1  0  0  0  0  0  0  0  0  0
  129.2644  133.5984  160.7979 H   0  0  0  0  0  0  0  0  0  0  0  0
  129.9970  132.5792  159.0721 C   0  0  0  0  0  0  0  0  0  0  0  0
  129.5548  131.3372  159.4878 C   0  0  0  0  0  0  0  0  0  0  0  0
  130.0091  130.1947  158.8560 C   0  0  0  0  0  0  0  0  0  0  0  0
  130.9126  130.2936  157.8145 C   0  0  0  0  0  0  0  0  0  0  0  0
  131.3590  131.5354  157.4023 C   0  0  0  0  0  0  0  0  0  0  0  0
  130.9014  132.6781  158.0311 C   0  0  0  0  0  0  0  0  0  0  0  0
  130.5367  134.8627  159.7040 N   0  0  0  0  0  0  0  0  0  0  0  0
  130.7528  135.0721  158.7410 H   0  0  0  0  0  0  0  0  0  0  0  0
  131.7462  134.3800  160.3832 C   0  0  0  0  0  0  0  0  0  0  0  0
  132.8346  135.4533  160.3111 C   0  0  0  0  0  0  0  0  0  0  0  0
  132.3492  136.6831  160.9531 N   0  0  0  0  0  0  0  0  0  0  0  0
  133.3394  137.6730  160.9545 C   0  0  0  0  0  0  0  0  0  0  0  0
  133.1143  138.8838  160.3174 C   0  0  0  0  0  0  0  0  0  0  0  0
  134.0939  139.8578  160.3218 C   0  0  0  0  0  0  0  0  0  0  0  0
  135.3034  139.6338  160.9589 C   0  0  0  0  0  0  0  0  0  0  0  0
  135.5360  138.4289  161.5965 C   0  0  0  0  0  0  0  0  0  0  0  0
  134.5532  137.4476  161.6011 C   0  0  0  0  0  0  0  0  0  0  0  0
  134.7841  136.2290  162.2510 N   0  0  0  0  0  0  0  0  0  0  0  0
  135.0444  136.4364  163.6818 C   0  0  0  0  0  0  0  0  0  0  0  0
  136.3526  135.7353  164.1154 C   0  0  0  0  0  0  0  0  0  0  0  0
  136.0620  135.2039  165.5003 C   0  0  0  0  0  0  0  0  0  0  0  0
  134.7785  135.1840  165.7367 C   0  0  0  0  0  0  0  0  0  0  0  0
  133.9986  135.6981  164.5490 C   0  0  0  0  0  0  0  0  0  0  0  0
  136.9199  138.4333  162.2100 C   0  0  0  0  0  0  0  0  0  0  0  0
  137.6681  139.5879  161.5106 C   0  0  0  0  0  0  0  0  0  0  0  0
  136.5158  140.5295  161.1010 C   0  0  0  0  0  0  0  0  0  0  0  0
  131.1240  137.1646  160.2994 C   0  0  0  0  0  0  0  0  0  0  0  0
  130.0497  136.0771  160.3716 C   0  0  0  0  0  0  0  0  0  0  0  0
  128.3639  135.2168  158.0139 C   0  0  0  0  0  0  0  0  0  0  0  0
  127.2264  135.6670  157.3706 C   0  0  0  0  0  0  0  0  0  0  0  0
  124.9014  133.9907  159.1524 H   0  0  0  0  0  0  0  0  0  0  0  0
  126.9295  133.1828  160.2910 H   0  0  0  0  0  0  0  0  0  0  0  0
  128.8517  131.2597  160.3038 H   0  0  0  0  0  0  0  0  0  0  0  0
  129.6602  129.2246  159.1778 H   0  0  0  0  0  0  0  0  0  0  0  0
  131.2696  129.4009  157.3227 H   0  0  0  0  0  0  0  0  0  0  0  0
  132.0648  131.6126  156.5887 H   0  0  0  0  0  0  0  0  0  0  0  0
  131.2500  133.6482  157.7092 H   0  0  0  0  0  0  0  0  0  0  0  0
  132.0991  133.4716  159.8950 H   0  0  0  0  0  0  0  0  0  0  0  0
  131.5160  134.1656  161.4268 H   0  0  0  0  0  0  0  0  0  0  0  0
  133.7274  135.1013  160.8279 H   0  0  0  0  0  0  0  0  0  0  0  0
  133.0748  135.6582  159.2678 H   0  0  0  0  0  0  0  0  0  0  0  0
  132.1740  139.0651  159.8181 H   0  0  0  0  0  0  0  0  0  0  0  0
  133.9157  140.7999  159.8248 H   0  0  0  0  0  0  0  0  0  0  0  0
  135.5415  135.7245  161.8150 H   0  0  0  0  0  0  0  0  0  0  0  0
  135.0718  137.4993  163.9221 H   0  0  0  0  0  0  0  0  0  0  0  0
  136.5875  134.9161  163.4360 H   0  0  0  0  0  0  0  0  0  0  0  0
  137.1743  136.4508  164.1472 H   0  0  0  0  0  0  0  0  0  0  0  0
  136.8174  134.8833  166.2024 H   0  0  0  0  0  0  0  0  0  0  0  0
  134.3325  134.8451  166.6601 H   0  0  0  0  0  0  0  0  0  0  0  0
  133.2205  136.3881  164.8754 H   0  0  0  0  0  0  0  0  0  0  0  0
  133.5608  134.8693  163.9926 H   0  0  0  0  0  0  0  0  0  0  0  0
  137.4221  137.4853  162.0169 H   0  0  0  0  0  0  0  0  0  0  0  0
  136.8576  138.6177  163.2824 H   0  0  0  0  0  0  0  0  0  0  0  0
  138.2039  139.2268  160.6328 H   0  0  0  0  0  0  0  0  0  0  0  0
  138.3491  140.0863  162.2004 H   0  0  0  0  0  0  0  0  0  0  0  0
  136.7422  141.0131  160.1507 H   0  0  0  0  0  0  0  0  0  0  0  0
  136.3449  141.2772  161.8755 H   0  0  0  0  0  0  0  0  0  0  0  0
  130.7688  138.0610  160.8077 H   0  0  0  0  0  0  0  0  0  0  0  0
  131.3361  137.3976  159.2559 H   0  0  0  0  0  0  0  0  0  0  0  0
  129.8281  135.8541  161.4153 H   0  0  0  0  0  0  0  0  0  0  0  0
  129.1448  136.4269  159.8747 H   0  0  0  0  0  0  0  0  0  0  0  0
  129.3365  135.5627  157.6963 H   0  0  0  0  0  0  0  0  0  0  0  0
  127.3101  136.3648  156.5505 H   0  0  0  0  0  0  0  0  0  0  0  0
  1  2  1  0
  2 37  2  0
  2  3  1  0
  3  4  2  0
  3 38  1  0
  4  5  1  0
  4 39  1  0
  5  6  1  0
  5 36  2  0
  6  7  1  1
  6  8  1  0
  6 14  1  0
  8 13  1  0
  8  9  2  0
  9 10  1  0
  9 40  1  0
 10 11  2  0
 10 41  1  0
 11 12  1  0
 11 42  1  0
 12 13  2  0
 12 43  1  0
 13 44  1  0
 14 15  1  0
 14 35  1  0
 14 16  1  0
 16 17  1  0
 16 45  1  0
 16 46  1  0
 17 18  1  0
 17 47  1  0
 17 48  1  0
 18 19  1  0
 18 34  1  0
 19 24  1  0
 19 20  2  0
 20 21  1  0
 20 49  1  0
 21 22  2  0
 21 50  1  0
 22 33  1  0
 22 23  1  0
 23 24  2  0
 23 31  1  0
 24 25  1  0
 25 26  1  0
 25 51  1  0
 26 30  1  0
 26 27  1  0
 26 52  1  0
 27 28  1  0
 27 53  1  0
 27 54  1  0
 28 29  2  0
 28 55  1  0
 29 30  1  0
 29 56  1  0
 30 57  1  0
 30 58  1  0
 31 32  1  0
 31 59  1  0
 31 60  1  0
 32 33  1  0
 32 61  1  0
 32 62  1  0
 33 63  1  0
 33 64  1  0
 34 35  1  0
 34 65  1  0
 34 66  1  0
 35 67  1  0
 35 68  1  0
 36 37  1  0
 36 69  1  0
 37 70  1  0
M  CHG  1  14   1
M  END
>  <DOCK_score>  (1) 
-56.805328

>  <SMILES>  (1) 
Clc1ccc([C@@H](c2ccccc2)[NH+]2CCN(c3ccc4c(c3NC3CC=CC3)CCC4)CC2)cc1

$$$$
