c1ccc(Nc2ccc(-c3n[nH]cc3C[NH2+]C[C@H]3CC4CCC3CC4)o2)cc1
     RDKit          3D

 57 61  0  0  1  0  0  0  0  0999 V2000
  128.2481  137.3091  164.9632 C   0  0  0  0  0  0  0  0  0  0  0  0
  128.5222  136.0799  164.3916 C   0  0  0  0  0  0  0  0  0  0  0  0
  127.7211  135.5942  163.3771 C   0  0  0  0  0  0  0  0  0  0  0  0
  126.6386  136.3419  162.9306 C   0  0  0  0  0  0  0  0  0  0  0  0
  125.8260  135.8537  161.9046 N   0  0  0  0  0  0  0  0  0  0  0  0
  126.3625  135.0192  160.9305 C   0  0  0  0  0  0  0  0  0  0  0  0
  125.6908  134.0500  160.2599 C   0  0  0  0  0  0  0  0  0  0  0  0
  126.6064  133.4569  159.3688 C   0  0  0  0  0  0  0  0  0  0  0  0
  127.7962  134.0895  159.5475 C   0  0  0  0  0  0  0  0  0  0  0  0
  129.0503  133.7946  158.8243 C   0  0  0  0  0  0  0  0  0  0  0  0
  129.2122  132.8743  157.8939 N   0  0  0  0  0  0  0  0  0  0  0  0
  130.5433  132.9232  157.4611 N   0  0  0  0  0  0  0  0  0  0  0  0
  130.9408  132.3597  156.7789 H   0  0  0  0  0  0  0  0  0  0  0  0
  131.1787  133.8889  158.1598 C   0  0  0  0  0  0  0  0  0  0  0  0
  130.2874  134.4481  159.0059 C   0  0  0  0  0  0  0  0  0  0  0  0
  130.5646  135.5709  159.9722 C   0  0  0  0  0  0  0  0  0  0  0  0
  131.9717  135.9775  159.8597 N   0  0  0  0  0  0  0  0  0  0  0  0
  132.5671  135.1924  160.0767 H   0  0  0  0  0  0  0  0  0  0  0  0
  132.1572  136.2902  158.9185 H   0  0  0  0  0  0  0  0  0  0  0  0
  132.2419  137.0721  160.8015 C   0  0  0  0  0  0  0  0  0  0  0  0
  133.7075  137.4956  160.6843 C   0  0  1  0  0  0  0  0  0  0  0  0
  134.3328  136.6110  160.5642 H   0  0  0  0  0  0  0  0  0  0  0  0
  133.8786  138.4098  159.4695 C   0  0  0  0  0  0  0  0  0  0  0  0
  134.4092  139.7704  159.9258 C   0  0  1  0  0  0  0  0  0  0  0  0
  133.4174  140.4026  160.9042 C   0  0  0  0  0  0  0  0  0  0  0  0
  133.2463  139.4884  162.1191 C   0  0  0  0  0  0  0  0  0  0  0  0
  134.1240  138.2466  161.9505 C   0  0  2  0  0  0  0  0  0  0  0  0
  135.5896  138.6702  161.8335 C   0  0  0  0  0  0  0  0  0  0  0  0
  135.7607  139.5844  160.6186 C   0  0  0  0  0  0  0  0  0  0  0  0
  127.6339  135.0370  160.4945 O   0  0  0  0  0  0  0  0  0  0  0  0
  126.3695  137.5791  163.5031 C   0  0  0  0  0  0  0  0  0  0  0  0
  127.1716  138.0561  164.5208 C   0  0  0  0  0  0  0  0  0  0  0  0
  128.8762  137.6865  165.7565 H   0  0  0  0  0  0  0  0  0  0  0  0
  129.3642  135.4994  164.7391 H   0  0  0  0  0  0  0  0  0  0  0  0
  127.9361  134.6344  162.9311 H   0  0  0  0  0  0  0  0  0  0  0  0
  124.8876  136.0967  161.8720 H   0  0  0  0  0  0  0  0  0  0  0  0
  124.6507  133.7862  160.3827 H   0  0  0  0  0  0  0  0  0  0  0  0
  126.4028  132.6520  158.6781 H   0  0  0  0  0  0  0  0  0  0  0  0
  132.2168  134.1681  158.0565 H   0  0  0  0  0  0  0  0  0  0  0  0
  129.9214  136.4191  159.7377 H   0  0  0  0  0  0  0  0  0  0  0  0
  130.3642  135.2331  160.9889 H   0  0  0  0  0  0  0  0  0  0  0  0
  131.5986  137.9202  160.5670 H   0  0  0  0  0  0  0  0  0  0  0  0
  132.0414  136.7343  161.8183 H   0  0  0  0  0  0  0  0  0  0  0  0
  134.5852  137.9594  158.7725 H   0  0  0  0  0  0  0  0  0  0  0  0
  132.9158  138.5423  158.9759 H   0  0  0  0  0  0  0  0  0  0  0  0
  134.5311  140.4217  159.0604 H   0  0  0  0  0  0  0  0  0  0  0  0
  133.7953  141.3719  161.2293 H   0  0  0  0  0  0  0  0  0  0  0  0
  132.4546  140.5351  160.4107 H   0  0  0  0  0  0  0  0  0  0  0  0
  132.2021  139.1866  162.2025 H   0  0  0  0  0  0  0  0  0  0  0  0
  133.5430  140.0234  163.0211 H   0  0  0  0  0  0  0  0  0  0  0  0
  134.0021  137.5952  162.8160 H   0  0  0  0  0  0  0  0  0  0  0  0
  136.2150  137.7855  161.7133 H   0  0  0  0  0  0  0  0  0  0  0  0
  135.8863  139.2052  162.7355 H   0  0  0  0  0  0  0  0  0  0  0  0
  136.4673  139.1339  159.9215 H   0  0  0  0  0  0  0  0  0  0  0  0
  136.1388  140.5537  160.9436 H   0  0  0  0  0  0  0  0  0  0  0  0
  125.5317  138.1649  163.1551 H   0  0  0  0  0  0  0  0  0  0  0  0
  126.9605  139.0158  164.9691 H   0  0  0  0  0  0  0  0  0  0  0  0
  1 32  2  0
  1  2  1  0
  1 33  1  0
  2  3  2  0
  2 34  1  0
  3  4  1  0
  3 35  1  0
  4  5  1  0
  4 31  2  0
  5  6  1  0
  5 36  1  0
  6 30  1  0
  6  7  2  0
  7  8  1  0
  7 37  1  0
  8  9  2  0
  8 38  1  0
  9 10  1  0
  9 30  1  0
 10 15  1  0
 10 11  2  0
 11 12  1  0
 12 13  1  0
 12 14  1  0
 14 15  2  0
 14 39  1  0
 15 16  1  0
 16 17  1  0
 16 40  1  0
 16 41  1  0
 17 18  1  0
 17 19  1  0
 17 20  1  0
 20 21  1  0
 20 42  1  0
 20 43  1  0
 21 22  1  6
 21 27  1  0
 21 23  1  0
 23 24  1  0
 23 44  1  0
 23 45  1  0
 24 29  1  0
 24 25  1  0
 24 46  1  6
 25 26  1  0
 25 47  1  0
 25 48  1  0
 26 27  1  0
 26 49  1  0
 26 50  1  0
 27 28  1  0
 27 51  1  1
 28 29  1  0
 28 52  1  0
 28 53  1  0
 29 54  1  0
 29 55  1  0
 31 32  1  0
 31 56  1  0
 32 57  1  0
M  CHG  1  17   1
M  END
>  <DOCK_score>  (1) 
-47.515579

>  <SMILES>  (1) 
c1ccc(Nc2ccc(-c3n[nH]cc3C[NH2+]C[C@H]3CC4CCC3CC4)o2)cc1

$$$$
