COc1cccc(N2CC[NH+](C(c3ccccc3)c3ccccc3)CC2)c1C[C@@H]1C[C@H]2CC[C@H]2C1
     RDKit          3D

 74 79  0  0  1  0  0  0  0  0999 V2000
  136.7930  141.1370  162.6756 C   0  0  0  0  0  0  0  0  0  0  0  0
  135.6107  141.6227  162.0365 O   0  0  0  0  0  0  0  0  0  0  0  0
  135.0784  140.8495  161.0540 C   0  0  0  0  0  0  0  0  0  0  0  0
  135.4815  141.0247  159.7372 C   0  0  0  0  0  0  0  0  0  0  0  0
  134.9415  140.2391  158.7369 C   0  0  0  0  0  0  0  0  0  0  0  0
  133.9990  139.2767  159.0437 C   0  0  0  0  0  0  0  0  0  0  0  0
  133.5956  139.0932  160.3605 C   0  0  0  0  0  0  0  0  0  0  0  0
  132.6469  138.1166  160.6717 N   0  0  0  0  0  0  0  0  0  0  0  0
  133.1543  136.7721  160.3628 C   0  0  0  0  0  0  0  0  0  0  0  0
  132.1113  135.7300  160.7725 C   0  0  0  0  0  0  0  0  0  0  0  0
  130.8591  135.9784  160.0459 N   0  0  0  0  0  0  0  0  0  0  0  0
  131.0302  135.9247  159.0531 H   0  0  0  0  0  0  0  0  0  0  0  0
  129.8638  134.9669  160.4261 C   0  0  0  0  0  0  0  0  0  0  0  0
  128.5790  135.2215  159.6808 C   0  0  0  0  0  0  0  0  0  0  0  0
  127.3692  134.8669  160.2475 C   0  0  0  0  0  0  0  0  0  0  0  0
  126.1904  135.1045  159.5657 C   0  0  0  0  0  0  0  0  0  0  0  0
  126.2219  135.6882  158.3133 C   0  0  0  0  0  0  0  0  0  0  0  0
  127.4324  136.0383  157.7440 C   0  0  0  0  0  0  0  0  0  0  0  0
  128.6109  135.8046  158.4278 C   0  0  0  0  0  0  0  0  0  0  0  0
  130.3832  133.5957  160.0782 C   0  0  0  0  0  0  0  0  0  0  0  0
  130.0051  132.5013  160.8332 C   0  0  0  0  0  0  0  0  0  0  0  0
  130.4781  131.2428  160.5114 C   0  0  0  0  0  0  0  0  0  0  0  0
  131.3364  131.0802  159.4401 C   0  0  0  0  0  0  0  0  0  0  0  0
  131.7187  132.1754  158.6882 C   0  0  0  0  0  0  0  0  0  0  0  0
  131.2422  133.4332  159.0074 C   0  0  0  0  0  0  0  0  0  0  0  0
  130.3519  137.3150  160.3835 C   0  0  0  0  0  0  0  0  0  0  0  0
  131.3803  138.3703  159.9706 C   0  0  0  0  0  0  0  0  0  0  0  0
  134.1332  139.8854  161.3660 C   0  0  0  0  0  0  0  0  0  0  0  0
  133.6943  139.6930  162.7947 C   0  0  0  0  0  0  0  0  0  0  0  0
  132.1884  139.9402  162.9034 C   0  0  2  0  0  0  0  0  0  0  0  0
  131.6770  139.5144  162.0400 H   0  0  0  0  0  0  0  0  0  0  0  0
  131.9110  141.4475  162.9835 C   0  0  0  0  0  0  0  0  0  0  0  0
  131.1894  141.7116  164.3149 C   0  0  1  0  0  0  0  0  0  0  0  0
  131.7580  142.2988  165.0360 H   0  0  0  0  0  0  0  0  0  0  0  0
  129.7101  142.0943  164.1274 C   0  0  0  0  0  0  0  0  0  0  0  0
  129.4238  140.5934  163.9531 C   0  0  0  0  0  0  0  0  0  0  0  0
  130.6775  140.3363  164.8006 C   0  0  1  0  0  0  0  0  0  0  0  0
  130.5201  140.2349  165.8744 H   0  0  0  0  0  0  0  0  0  0  0  0
  131.6469  139.3092  164.1948 C   0  0  0  0  0  0  0  0  0  0  0  0
  137.1121  141.8478  163.4379 H   0  0  0  0  0  0  0  0  0  0  0  0
  136.5846  140.1738  163.1414 H   0  0  0  0  0  0  0  0  0  0  0  0
  137.5840  141.0190  161.9349 H   0  0  0  0  0  0  0  0  0  0  0  0
  136.2184  141.7759  159.4942 H   0  0  0  0  0  0  0  0  0  0  0  0
  135.2573  140.3773  157.7134 H   0  0  0  0  0  0  0  0  0  0  0  0
  133.5785  138.6639  158.2601 H   0  0  0  0  0  0  0  0  0  0  0  0
  133.3467  136.6930  159.2928 H   0  0  0  0  0  0  0  0  0  0  0  0
  134.0788  136.5971  160.9129 H   0  0  0  0  0  0  0  0  0  0  0  0
  131.9292  135.8004  161.8449 H   0  0  0  0  0  0  0  0  0  0  0  0
  132.4796  134.7330  160.5312 H   0  0  0  0  0  0  0  0  0  0  0  0
  129.6792  135.0241  161.4988 H   0  0  0  0  0  0  0  0  0  0  0  0
  127.3447  134.4072  161.2245 H   0  0  0  0  0  0  0  0  0  0  0  0
  125.2448  134.8316  160.0105 H   0  0  0  0  0  0  0  0  0  0  0  0
  125.3016  135.8714  157.7789 H   0  0  0  0  0  0  0  0  0  0  0  0
  127.4572  136.4945  156.7655 H   0  0  0  0  0  0  0  0  0  0  0  0
  129.5564  136.0779  157.9831 H   0  0  0  0  0  0  0  0  0  0  0  0
  129.3374  132.6290  161.6724 H   0  0  0  0  0  0  0  0  0  0  0  0
  130.1791  130.3872  161.0987 H   0  0  0  0  0  0  0  0  0  0  0  0
  131.7080  130.0974  159.1904 H   0  0  0  0  0  0  0  0  0  0  0  0
  132.3893  132.0483  157.8513 H   0  0  0  0  0  0  0  0  0  0  0  0
  131.5410  134.2888  158.4200 H   0  0  0  0  0  0  0  0  0  0  0  0
  130.1789  137.3772  161.4580 H   0  0  0  0  0  0  0  0  0  0  0  0
  129.4160  137.4929  159.8539 H   0  0  0  0  0  0  0  0  0  0  0  0
  131.0106  139.3611  160.2346 H   0  0  0  0  0  0  0  0  0  0  0  0
  131.5435  138.3174  158.8943 H   0  0  0  0  0  0  0  0  0  0  0  0
  134.2252  140.3967  163.4357 H   0  0  0  0  0  0  0  0  0  0  0  0
  133.9188  138.6739  163.1097 H   0  0  0  0  0  0  0  0  0  0  0  0
  131.2762  141.7520  162.1514 H   0  0  0  0  0  0  0  0  0  0  0  0
  132.8508  141.9991  162.9558 H   0  0  0  0  0  0  0  0  0  0  0  0
  129.2543  142.5249  165.0189 H   0  0  0  0  0  0  0  0  0  0  0  0
  129.5218  142.6817  163.2287 H   0  0  0  0  0  0  0  0  0  0  0  0
  129.5145  140.2483  162.9232 H   0  0  0  0  0  0  0  0  0  0  0  0
  128.4998  140.2668  164.4302 H   0  0  0  0  0  0  0  0  0  0  0  0
  132.4654  139.1127  164.8874 H   0  0  0  0  0  0  0  0  0  0  0  0
  131.1182  138.3835  163.9677 H   0  0  0  0  0  0  0  0  0  0  0  0
  1  2  1  0
  1 40  1  0
  1 41  1  0
  1 42  1  0
  2  3  1  0
  3 28  2  0
  3  4  1  0
  4  5  2  0
  4 43  1  0
  5  6  1  0
  5 44  1  0
  6  7  2  0
  6 45  1  0
  7  8  1  0
  7 28  1  0
  8 27  1  0
  8  9  1  0
  9 10  1  0
  9 46  1  0
  9 47  1  0
 10 11  1  0
 10 48  1  0
 10 49  1  0
 11 12  1  0
 11 13  1  0
 11 26  1  0
 13 14  1  0
 13 20  1  0
 13 50  1  0
 14 19  1  0
 14 15  2  0
 15 16  1  0
 15 51  1  0
 16 17  2  0
 16 52  1  0
 17 18  1  0
 17 53  1  0
 18 19  2  0
 18 54  1  0
 19 55  1  0
 20 25  1  0
 20 21  2  0
 21 22  1  0
 21 56  1  0
 22 23  2  0
 22 57  1  0
 23 24  1  0
 23 58  1  0
 24 25  2  0
 24 59  1  0
 25 60  1  0
 26 27  1  0
 26 61  1  0
 26 62  1  0
 27 63  1  0
 27 64  1  0
 28 29  1  0
 29 30  1  0
 29 65  1  0
 29 66  1  0
 30 31  1  6
 30 39  1  0
 30 32  1  0
 32 33  1  0
 32 67  1  0
 32 68  1  0
 33 34  1  1
 33 37  1  0
 33 35  1  0
 35 36  1  0
 35 69  1  0
 35 70  1  0
 36 37  1  0
 36 71  1  0
 36 72  1  0
 37 38  1  1
 37 39  1  0
 39 73  1  0
 39 74  1  0
M  CHG  1  11   1
M  END
>  <DOCK_score>  (1) 
-56.287071

>  <SMILES>  (1) 
COc1cccc(N2CC[NH+](C(c3ccccc3)c3ccccc3)CC2)c1C[C@@H]1C[C@H]2CC[C@H]2C1

$$$$
