C[C@@H](Nc1[nH]cc(-c2ccc(-c3ccccc3)cc2)[nH+]1)c1cnn(Cc2ccccc2)c1
     RDKit          3D

 58 62  0  0  1  0  0  0  0  0999 V2000
  130.7795  136.8295  161.6236 C   0  0  0  0  0  0  0  0  0  0  0  0
  131.6647  135.6129  161.3460 C   0  0  1  0  0  0  0  0  0  0  0  0
  131.2133  134.7261  161.7912 H   0  0  0  0  0  0  0  0  0  0  0  0
  131.7926  135.4219  159.8992 N   0  0  0  0  0  0  0  0  0  0  0  0
  131.3635  134.2419  159.3163 C   0  0  0  0  0  0  0  0  0  0  0  0
  130.8139  133.1859  159.9760 N   0  0  0  0  0  0  0  0  0  0  0  0
  130.6543  133.1251  160.9309 H   0  0  0  0  0  0  0  0  0  0  0  0
  130.5278  132.2218  159.0405 C   0  0  0  0  0  0  0  0  0  0  0  0
  130.9105  132.7160  157.8363 C   0  0  0  0  0  0  0  0  0  0  0  0
  130.7933  132.0224  156.5314 C   0  0  0  0  0  0  0  0  0  0  0  0
  130.0319  132.5863  155.5076 C   0  0  0  0  0  0  0  0  0  0  0  0
  129.9235  131.9421  154.2950 C   0  0  0  0  0  0  0  0  0  0  0  0
  130.5756  130.7255  154.0911 C   0  0  0  0  0  0  0  0  0  0  0  0
  130.4586  130.0326  152.7850 C   0  0  0  0  0  0  0  0  0  0  0  0
  130.5283  128.6419  152.7230 C   0  0  0  0  0  0  0  0  0  0  0  0
  130.4194  128.0019  151.5052 C   0  0  0  0  0  0  0  0  0  0  0  0
  130.2406  128.7381  150.3474 C   0  0  0  0  0  0  0  0  0  0  0  0
  130.1763  130.1186  150.4025 C   0  0  0  0  0  0  0  0  0  0  0  0
  130.2791  130.7691  151.6153 C   0  0  0  0  0  0  0  0  0  0  0  0
  131.3324  130.1598  155.1160 C   0  0  0  0  0  0  0  0  0  0  0  0
  131.4449  130.8061  156.3270 C   0  0  0  0  0  0  0  0  0  0  0  0
  131.4250  133.9551  158.0388 N   0  0  0  0  0  0  0  0  0  0  0  0
  131.7791  134.5370  157.3482 H   0  0  0  0  0  0  0  0  0  0  0  0
  133.0290  135.8370  161.9458 C   0  0  0  0  0  0  0  0  0  0  0  0
  133.6392  135.0428  162.9221 C   0  0  0  0  0  0  0  0  0  0  0  0
  134.8161  135.5505  163.1850 N   0  0  0  0  0  0  0  0  0  0  0  0
  134.9879  136.6912  162.3903 N   0  0  0  0  0  0  0  0  0  0  0  0
  136.1651  137.5633  162.3775 C   0  0  0  0  0  0  0  0  0  0  0  0
  135.9879  138.6613  163.3944 C   0  0  0  0  0  0  0  0  0  0  0  0
  135.3937  139.8542  163.0270 C   0  0  0  0  0  0  0  0  0  0  0  0
  135.2267  140.8595  163.9610 C   0  0  0  0  0  0  0  0  0  0  0  0
  135.6637  140.6761  165.2596 C   0  0  0  0  0  0  0  0  0  0  0  0
  136.2626  139.4853  165.6257 C   0  0  0  0  0  0  0  0  0  0  0  0
  136.4248  138.4779  164.6930 C   0  0  0  0  0  0  0  0  0  0  0  0
  133.8776  136.8454  161.6390 C   0  0  0  0  0  0  0  0  0  0  0  0
  129.7928  136.6674  161.1898 H   0  0  0  0  0  0  0  0  0  0  0  0
  130.6844  136.9716  162.7001 H   0  0  0  0  0  0  0  0  0  0  0  0
  131.2307  137.7163  161.1785 H   0  0  0  0  0  0  0  0  0  0  0  0
  132.1779  136.1222  159.3498 H   0  0  0  0  0  0  0  0  0  0  0  0
  130.0830  131.2556  159.2276 H   0  0  0  0  0  0  0  0  0  0  0  0
  129.5271  133.5280  155.6658 H   0  0  0  0  0  0  0  0  0  0  0  0
  129.3340  132.3787  153.5024 H   0  0  0  0  0  0  0  0  0  0  0  0
  130.6669  128.0663  153.6263 H   0  0  0  0  0  0  0  0  0  0  0  0
  130.4733  126.9244  151.4559 H   0  0  0  0  0  0  0  0  0  0  0  0
  130.1558  128.2333  149.3964 H   0  0  0  0  0  0  0  0  0  0  0  0
  130.0413  130.6884  149.4950 H   0  0  0  0  0  0  0  0  0  0  0  0
  130.2243  131.8469  151.6575 H   0  0  0  0  0  0  0  0  0  0  0  0
  131.8337  129.2161  154.9588 H   0  0  0  0  0  0  0  0  0  0  0  0
  132.0347  130.3696  157.1193 H   0  0  0  0  0  0  0  0  0  0  0  0
  133.2137  134.1610  163.3779 H   0  0  0  0  0  0  0  0  0  0  0  0
  137.0522  136.9797  162.6237 H   0  0  0  0  0  0  0  0  0  0  0  0
  136.2819  138.0014  161.3863 H   0  0  0  0  0  0  0  0  0  0  0  0
  135.0564  139.9992  162.0114 H   0  0  0  0  0  0  0  0  0  0  0  0
  134.7590  141.7901  163.6750 H   0  0  0  0  0  0  0  0  0  0  0  0
  135.5373  141.4632  165.9882 H   0  0  0  0  0  0  0  0  0  0  0  0
  136.6042  139.3419  166.6400 H   0  0  0  0  0  0  0  0  0  0  0  0
  136.8931  137.5476  164.9789 H   0  0  0  0  0  0  0  0  0  0  0  0
  133.6985  137.6322  160.9213 H   0  0  0  0  0  0  0  0  0  0  0  0
  1  2  1  0
  1 36  1  0
  1 37  1  0
  1 38  1  0
  2  3  1  1
  2  4  1  0
  2 24  1  0
  4 39  1  0
  5  4  1  0
  5 22  2  0
  5  6  1  0
  6  7  1  0
  6  8  1  0
  8  9  2  0
  8 40  1  0
  9 10  1  0
  9 22  1  0
 10 21  1  0
 10 11  2  0
 11 12  1  0
 11 41  1  0
 12 13  2  0
 12 42  1  0
 13 14  1  0
 13 20  1  0
 14 19  1  0
 14 15  2  0
 15 16  1  0
 15 43  1  0
 16 17  2  0
 16 44  1  0
 17 18  1  0
 17 45  1  0
 18 19  2  0
 18 46  1  0
 19 47  1  0
 20 21  2  0
 20 48  1  0
 21 49  1  0
 22 23  1  0
 24 35  2  0
 24 25  1  0
 25 26  2  0
 25 50  1  0
 26 27  1  0
 27 28  1  0
 27 35  1  0
 28 29  1  0
 28 51  1  0
 28 52  1  0
 29 34  1  0
 29 30  2  0
 30 31  1  0
 30 53  1  0
 31 32  2  0
 31 54  1  0
 32 33  1  0
 32 55  1  0
 33 34  2  0
 33 56  1  0
 34 57  1  0
 35 58  1  0
M  CHG  1  22   1
M  END
>  <DOCK_score>  (1) 
-61.093224

>  <SMILES>  (1) 
C[C@@H](Nc1[nH]cc(-c2ccc(-c3ccccc3)cc2)[nH+]1)c1cnn(Cc2ccccc2)c1

$$$$
