Cc1ccc(-c2c[nH]c(NC(c3ccnn3C)c3ccnn3C)[nH+]2)c(C)c1
     RDKit          3D

 51 54  0  0  1  0  0  0  0  0999 V2000
  131.3527  129.5895  152.1377 C   0  0  0  0  0  0  0  0  0  0  0  0
  131.0682  130.3319  153.4179 C   0  0  0  0  0  0  0  0  0  0  0  0
  130.4640  131.5757  153.3737 C   0  0  0  0  0  0  0  0  0  0  0  0
  130.2009  132.2597  154.5428 C   0  0  0  0  0  0  0  0  0  0  0  0
  130.5451  131.6952  155.7701 C   0  0  0  0  0  0  0  0  0  0  0  0
  130.2703  132.4284  157.0299 C   0  0  0  0  0  0  0  0  0  0  0  0
  129.4780  132.0023  158.0447 C   0  0  0  0  0  0  0  0  0  0  0  0
  129.5058  132.9799  159.0095 N   0  0  0  0  0  0  0  0  0  0  0  0
  129.0367  132.9627  159.8583 H   0  0  0  0  0  0  0  0  0  0  0  0
  130.3075  133.9797  158.5516 C   0  0  0  0  0  0  0  0  0  0  0  0
  130.5947  135.1550  159.2244 N   0  0  0  0  0  0  0  0  0  0  0  0
  130.0158  135.4020  160.5473 C   0  0  0  0  0  0  0  0  0  0  0  0
  130.4819  136.7413  161.0575 C   0  0  0  0  0  0  0  0  0  0  0  0
  130.7967  137.8178  160.3005 C   0  0  0  0  0  0  0  0  0  0  0  0
  131.1796  138.8519  161.1609 C   0  0  0  0  0  0  0  0  0  0  0  0
  131.0976  138.4120  162.3905 N   0  0  0  0  0  0  0  0  0  0  0  0
  130.6543  137.0837  162.3513 N   0  0  0  0  0  0  0  0  0  0  0  0
  130.4221  136.2181  163.5103 C   0  0  0  0  0  0  0  0  0  0  0  0
  128.5122  135.3984  160.4465 C   0  0  0  0  0  0  0  0  0  0  0  0
  127.7617  136.2296  159.6868 C   0  0  0  0  0  0  0  0  0  0  0  0
  126.4179  135.8929  159.8796 C   0  0  0  0  0  0  0  0  0  0  0  0
  126.3636  134.8955  160.7245 N   0  0  0  0  0  0  0  0  0  0  0  0
  127.6734  134.5621  161.0928 N   0  0  0  0  0  0  0  0  0  0  0  0
  128.0634  133.4958  162.0188 C   0  0  0  0  0  0  0  0  0  0  0  0
  130.7626  133.6466  157.3684 N   0  0  0  0  0  0  0  0  0  0  0  0
  131.3563  134.1850  156.8222 H   0  0  0  0  0  0  0  0  0  0  0  0
  131.1535  130.4422  155.8085 C   0  0  0  0  0  0  0  0  0  0  0  0
  131.5292  129.8255  157.1313 C   0  0  0  0  0  0  0  0  0  0  0  0
  131.4120  129.7670  154.6327 C   0  0  0  0  0  0  0  0  0  0  0  0
  132.3450  129.8574  151.7751 H   0  0  0  0  0  0  0  0  0  0  0  0
  131.3111  128.5162  152.3231 H   0  0  0  0  0  0  0  0  0  0  0  0
  130.6074  129.8579  151.3889 H   0  0  0  0  0  0  0  0  0  0  0  0
  130.1974  132.0118  152.4224 H   0  0  0  0  0  0  0  0  0  0  0  0
  129.7288  133.2305  154.5072 H   0  0  0  0  0  0  0  0  0  0  0  0
  128.9316  131.0718  158.0871 H   0  0  0  0  0  0  0  0  0  0  0  0
  131.1792  135.8150  158.8199 H   0  0  0  0  0  0  0  0  0  0  0  0
  130.3355  134.6197  161.2356 H   0  0  0  0  0  0  0  0  0  0  0  0
  130.7594  137.8693  159.2224 H   0  0  0  0  0  0  0  0  0  0  0  0
  131.4899  139.8422  160.8621 H   0  0  0  0  0  0  0  0  0  0  0  0
  131.3396  135.6819  163.7528 H   0  0  0  0  0  0  0  0  0  0  0  0
  130.1204  136.8261  164.3632 H   0  0  0  0  0  0  0  0  0  0  0  0
  129.6338  135.5025  163.2771 H   0  0  0  0  0  0  0  0  0  0  0  0
  128.1344  137.0145  159.0454 H   0  0  0  0  0  0  0  0  0  0  0  0
  125.5713  136.3737  159.4121 H   0  0  0  0  0  0  0  0  0  0  0  0
  128.1055  133.8929  163.0330 H   0  0  0  0  0  0  0  0  0  0  0  0
  127.3309  132.6899  161.9740 H   0  0  0  0  0  0  0  0  0  0  0  0
  129.0441  133.1116  161.7380 H   0  0  0  0  0  0  0  0  0  0  0  0
  130.6958  129.2300  157.5043 H   0  0  0  0  0  0  0  0  0  0  0  0
  132.4022  129.1865  156.9995 H   0  0  0  0  0  0  0  0  0  0  0  0
  131.7609  130.6143  157.8471 H   0  0  0  0  0  0  0  0  0  0  0  0
  131.8835  128.7957  154.6614 H   0  0  0  0  0  0  0  0  0  0  0  0
  1  2  1  0
  1 30  1  0
  1 31  1  0
  1 32  1  0
  2 29  2  0
  2  3  1  0
  3  4  2  0
  3 33  1  0
  4  5  1  0
  4 34  1  0
  5  6  1  0
  5 27  2  0
  6 25  1  0
  6  7  2  0
  7  8  1  0
  7 35  1  0
  8  9  1  0
  8 10  1  0
 10 11  1  0
 10 25  2  0
 11 12  1  0
 11 36  1  0
 12 13  1  0
 12 19  1  0
 12 37  1  0
 13 17  1  0
 13 14  2  0
 14 15  1  0
 14 38  1  0
 15 16  2  0
 15 39  1  0
 16 17  1  0
 17 18  1  0
 18 40  1  0
 18 41  1  0
 18 42  1  0
 19 23  1  0
 19 20  2  0
 20 21  1  0
 20 43  1  0
 21 22  2  0
 21 44  1  0
 22 23  1  0
 23 24  1  0
 24 45  1  0
 24 46  1  0
 24 47  1  0
 25 26  1  0
 27 28  1  0
 27 29  1  0
 28 48  1  0
 28 49  1  0
 28 50  1  0
 29 51  1  0
M  CHG  1  25   1
M  END
>  <DOCK_score>  (1) 
-56.156445

>  <SMILES>  (1) 
Cc1ccc(-c2c[nH]c(NC(c3ccnn3C)c3ccnn3C)[nH+]2)c(C)c1

$$$$
