O=C1CCC(NC(NC2CC=CC2)=[NH+][C@H]2COc3cc(F)ccc3C2)CN1
     RDKit          3D

 53 56  0  0  1  0  0  0  0  0999 V2000
  123.8164  133.4739  161.2563 O   0  0  0  0  0  0  0  0  0  0  0  0
  124.9428  133.8374  160.9920 C   0  0  0  0  0  0  0  0  0  0  0  0
  125.7931  132.9478  160.1313 C   0  0  0  0  0  0  0  0  0  0  0  0
  127.2659  133.3406  160.2716 C   0  0  0  0  0  0  0  0  0  0  0  0
  127.3811  134.8596  160.0967 C   0  0  2  0  0  0  0  0  0  0  0  0
  128.7943  135.2435  160.0526 N   0  0  0  0  0  0  0  0  0  0  0  0
  129.6145  134.7352  159.0733 C   0  0  0  0  0  0  0  0  0  0  0  0
  129.1087  133.8667  158.1354 N   0  0  0  0  0  0  0  0  0  0  0  0
  129.9745  132.8456  157.5405 C   0  0  0  0  0  0  0  0  0  0  0  0
  129.2061  131.5201  157.3305 C   0  0  0  0  0  0  0  0  0  0  0  0
  130.2143  130.4385  157.6443 C   0  0  0  0  0  0  0  0  0  0  0  0
  131.2348  130.9223  158.2988 C   0  0  0  0  0  0  0  0  0  0  0  0
  131.0775  132.4070  158.5316 C   0  0  0  0  0  0  0  0  0  0  0  0
  130.8717  135.0770  159.0343 N   0  0  0  0  0  0  0  0  0  0  0  0
  131.3397  135.1079  158.1851 H   0  0  0  0  0  0  0  0  0  0  0  0
  131.5780  135.4140  160.2726 C   0  0  1  0  0  0  0  0  0  0  0  0
  131.1480  134.8558  161.1043 H   0  0  0  0  0  0  0  0  0  0  0  0
  133.0656  135.0673  160.1303 C   0  0  0  0  0  0  0  0  0  0  0  0
  133.7056  135.3084  161.3844 O   0  0  0  0  0  0  0  0  0  0  0  0
  133.4803  136.5020  161.9925 C   0  0  0  0  0  0  0  0  0  0  0  0
  134.3477  136.9059  163.0023 C   0  0  0  0  0  0  0  0  0  0  0  0
  134.1490  138.1111  163.6486 C   0  0  0  0  0  0  0  0  0  0  0  0
  134.9928  138.5000  164.6292 F   0  0  0  0  0  0  0  0  0  0  0  0
  133.0831  138.9196  163.2896 C   0  0  0  0  0  0  0  0  0  0  0  0
  132.2226  138.5209  162.2862 C   0  0  0  0  0  0  0  0  0  0  0  0
  132.4182  137.3140  161.6348 C   0  0  0  0  0  0  0  0  0  0  0  0
  131.4582  136.9160  160.5426 C   0  0  0  0  0  0  0  0  0  0  0  0
  126.7009  135.5423  161.2841 C   0  0  0  0  0  0  0  0  0  0  0  0
  125.3602  135.0054  161.4816 N   0  0  0  0  0  0  0  0  0  0  0  0
  125.4881  133.0524  159.0901 H   0  0  0  0  0  0  0  0  0  0  0  0
  125.6636  131.9113  160.4428 H   0  0  0  0  0  0  0  0  0  0  0  0
  127.8545  132.8372  159.5047 H   0  0  0  0  0  0  0  0  0  0  0  0
  127.6296  133.0562  161.2589 H   0  0  0  0  0  0  0  0  0  0  0  0
  126.8917  135.1593  159.1700 H   0  0  0  0  0  0  0  0  0  0  0  0
  129.1521  135.8531  160.7169 H   0  0  0  0  0  0  0  0  0  0  0  0
  128.1785  133.9299  157.8675 H   0  0  0  0  0  0  0  0  0  0  0  0
  130.4073  133.1993  156.6048 H   0  0  0  0  0  0  0  0  0  0  0  0
  128.3593  131.4597  158.0141 H   0  0  0  0  0  0  0  0  0  0  0  0
  128.8680  131.4369  156.2976 H   0  0  0  0  0  0  0  0  0  0  0  0
  130.1047  129.4013  157.3634 H   0  0  0  0  0  0  0  0  0  0  0  0
  132.0806  130.3382  158.6301 H   0  0  0  0  0  0  0  0  0  0  0  0
  132.0110  132.9263  158.3149 H   0  0  0  0  0  0  0  0  0  0  0  0
  130.7642  132.5993  159.5578 H   0  0  0  0  0  0  0  0  0  0  0  0
  133.1736  134.0170  159.8591 H   0  0  0  0  0  0  0  0  0  0  0  0
  133.5167  135.6940  159.3610 H   0  0  0  0  0  0  0  0  0  0  0  0
  135.1788  136.2756  163.2822 H   0  0  0  0  0  0  0  0  0  0  0  0
  132.9254  139.8613  163.7941 H   0  0  0  0  0  0  0  0  0  0  0  0
  131.3924  139.1530  162.0080 H   0  0  0  0  0  0  0  0  0  0  0  0
  131.6946  137.4678  159.6329 H   0  0  0  0  0  0  0  0  0  0  0  0
  130.4396  137.1483  160.8534 H   0  0  0  0  0  0  0  0  0  0  0  0
  127.2926  135.3738  162.1839 H   0  0  0  0  0  0  0  0  0  0  0  0
  126.6357  136.6137  161.0948 H   0  0  0  0  0  0  0  0  0  0  0  0
  124.7323  135.5308  162.0018 H   0  0  0  0  0  0  0  0  0  0  0  0
  1  2  2  0
  2 29  1  0
  2  3  1  0
  3  4  1  0
  3 30  1  0
  3 31  1  0
  4  5  1  0
  4 32  1  0
  4 33  1  0
  5  6  1  0
  5 28  1  0
  5 34  1  6
  6 35  1  0
  7  6  1  0
  7  8  1  0
  7 14  2  0
  8  9  1  0
  8 36  1  0
  9 13  1  0
  9 10  1  0
  9 37  1  0
 10 11  1  0
 10 38  1  0
 10 39  1  0
 11 12  2  0
 11 40  1  0
 12 13  1  0
 12 41  1  0
 13 42  1  0
 13 43  1  0
 14 15  1  0
 14 16  1  0
 16 17  1  1
 16 27  1  0
 16 18  1  0
 18 19  1  0
 18 44  1  0
 18 45  1  0
 19 20  1  0
 20 26  2  0
 20 21  1  0
 21 22  2  0
 21 46  1  0
 22 23  1  0
 22 24  1  0
 24 25  2  0
 24 47  1  0
 25 26  1  0
 25 48  1  0
 26 27  1  0
 27 49  1  0
 27 50  1  0
 28 29  1  0
 28 51  1  0
 28 52  1  0
 29 53  1  0
M  CHG  1  14   1
M  END
>  <DOCK_score>  (1) 
-43.46619

>  <SMILES>  (1) 
O=C1CCC(NC(NC2CC=CC2)=[NH+][C@H]2COc3cc(F)ccc3C2)CN1

$$$$
