Cc1ccc(-c2ccccc2Nc2[nH]cc(-c3ccccc3)[nH+]2)[nH]1
     RDKit          3D

 43 46  0  0  1  0  0  0  0  0999 V2000
  134.5538  138.5600  159.6868 C   0  0  0  0  0  0  0  0  0  0  0  0
  133.5085  137.8080  160.4697 C   0  0  0  0  0  0  0  0  0  0  0  0
  133.6948  137.2166  161.6693 C   0  0  0  0  0  0  0  0  0  0  0  0
  132.4757  136.6323  162.0511 C   0  0  0  0  0  0  0  0  0  0  0  0
  131.5768  136.8819  161.0579 C   0  0  0  0  0  0  0  0  0  0  0  0
  130.1633  136.4507  161.0351 C   0  0  0  0  0  0  0  0  0  0  0  0
  129.2866  136.8683  162.0362 C   0  0  0  0  0  0  0  0  0  0  0  0
  127.9681  136.4621  162.0101 C   0  0  0  0  0  0  0  0  0  0  0  0
  127.5105  135.6408  160.9941 C   0  0  0  0  0  0  0  0  0  0  0  0
  128.3670  135.2248  159.9928 C   0  0  0  0  0  0  0  0  0  0  0  0
  129.6968  135.6194  160.0074 C   0  0  0  0  0  0  0  0  0  0  0  0
  130.5652  135.1950  159.0000 N   0  0  0  0  0  0  0  0  0  0  0  0
  130.3631  133.9724  158.3809 C   0  0  0  0  0  0  0  0  0  0  0  0
  129.7979  132.8759  158.9565 N   0  0  0  0  0  0  0  0  0  0  0  0
  129.4670  132.8107  159.8660 H   0  0  0  0  0  0  0  0  0  0  0  0
  129.7820  131.8797  158.0117 C   0  0  0  0  0  0  0  0  0  0  0  0
  130.3328  132.3965  156.8850 C   0  0  0  0  0  0  0  0  0  0  0  0
  130.5204  131.6826  155.5984 C   0  0  0  0  0  0  0  0  0  0  0  0
  129.9084  132.1570  154.4395 C   0  0  0  0  0  0  0  0  0  0  0  0
  130.0912  131.4921  153.2440 C   0  0  0  0  0  0  0  0  0  0  0  0
  130.8708  130.3503  153.1969 C   0  0  0  0  0  0  0  0  0  0  0  0
  131.4758  129.8716  154.3450 C   0  0  0  0  0  0  0  0  0  0  0  0
  131.3046  130.5316  155.5449 C   0  0  0  0  0  0  0  0  0  0  0  0
  130.6840  133.6806  157.1439 N   0  0  0  0  0  0  0  0  0  0  0  0
  131.1020  134.2875  156.5132 H   0  0  0  0  0  0  0  0  0  0  0  0
  132.2147  137.6092  160.0859 N   0  0  0  0  0  0  0  0  0  0  0  0
  131.8129  137.9287  159.2628 H   0  0  0  0  0  0  0  0  0  0  0  0
  134.5321  139.6125  159.9695 H   0  0  0  0  0  0  0  0  0  0  0  0
  135.5383  138.1458  159.9040 H   0  0  0  0  0  0  0  0  0  0  0  0
  134.3469  138.4658  158.6208 H   0  0  0  0  0  0  0  0  0  0  0  0
  134.6145  137.1991  162.2351 H   0  0  0  0  0  0  0  0  0  0  0  0
  132.2864  136.0846  162.9625 H   0  0  0  0  0  0  0  0  0  0  0  0
  129.6392  137.5091  162.8309 H   0  0  0  0  0  0  0  0  0  0  0  0
  127.2903  136.7863  162.7859 H   0  0  0  0  0  0  0  0  0  0  0  0
  126.4771  135.3269  160.9816 H   0  0  0  0  0  0  0  0  0  0  0  0
  128.0019  134.5883  159.2004 H   0  0  0  0  0  0  0  0  0  0  0  0
  131.3102  135.7562  158.7336 H   0  0  0  0  0  0  0  0  0  0  0  0
  129.4003  130.8775  158.1399 H   0  0  0  0  0  0  0  0  0  0  0  0
  129.2960  133.0458  154.4760 H   0  0  0  0  0  0  0  0  0  0  0  0
  129.6211  131.8612  152.3447 H   0  0  0  0  0  0  0  0  0  0  0  0
  131.0077  129.8305  152.2601 H   0  0  0  0  0  0  0  0  0  0  0  0
  132.0836  128.9799  154.3023 H   0  0  0  0  0  0  0  0  0  0  0  0
  131.7778  130.1573  156.4406 H   0  0  0  0  0  0  0  0  0  0  0  0
  1  2  1  0
  1 28  1  0
  1 29  1  0
  1 30  1  0
  2 26  1  0
  2  3  2  0
  3  4  1  0
  3 31  1  0
  4  5  2  0
  4 32  1  0
  5  6  1  0
  5 26  1  0
  6 11  1  0
  6  7  2  0
  7  8  1  0
  7 33  1  0
  8  9  2  0
  8 34  1  0
  9 10  1  0
  9 35  1  0
 10 11  2  0
 10 36  1  0
 11 12  1  0
 12 37  1  0
 13 12  1  0
 13 24  2  0
 13 14  1  0
 14 15  1  0
 14 16  1  0
 16 17  2  0
 16 38  1  0
 17 18  1  0
 17 24  1  0
 18 23  1  0
 18 19  2  0
 19 20  1  0
 19 39  1  0
 20 21  2  0
 20 40  1  0
 21 22  1  0
 21 41  1  0
 22 23  2  0
 22 42  1  0
 23 43  1  0
 24 25  1  0
 26 27  1  0
M  CHG  1  24   1
M  END
>  <DOCK_score>  (1) 
-56.682301

>  <SMILES>  (1) 
Cc1ccc(-c2ccccc2Nc2[nH]cc(-c3ccccc3)[nH+]2)[nH]1

$$$$
