O=C(NCc1n[nH]cc1C(=O)N[C@H]1CC[NH2+]C2(CC2)C1)c1ccc2nc(SC3=CCC3)ccc2c1
     RDKit          3D

 64 69  0  0  1  0  0  0  0  0999 V2000
  131.4401  138.0334  162.3416 O   0  0  0  0  0  0  0  0  0  0  0  0
  131.3623  139.1533  162.8084 C   0  0  0  0  0  0  0  0  0  0  0  0
  130.2091  139.8443  162.7137 N   0  0  0  0  0  0  0  0  0  0  0  0
  129.0492  139.2461  162.0481 C   0  0  0  0  0  0  0  0  0  0  0  0
  128.2222  138.4947  163.0593 C   0  0  0  0  0  0  0  0  0  0  0  0
  127.8875  138.9219  164.2455 N   0  0  0  0  0  0  0  0  0  0  0  0
  127.1200  137.9396  164.8812 N   0  0  0  0  0  0  0  0  0  0  0  0
  126.7432  138.0035  165.7727 H   0  0  0  0  0  0  0  0  0  0  0  0
  126.9929  136.8938  164.0489 C   0  0  0  0  0  0  0  0  0  0  0  0
  127.6737  137.2039  162.8887 C   0  0  0  0  0  0  0  0  0  0  0  0
  127.8040  136.3483  161.6952 C   0  0  0  0  0  0  0  0  0  0  0  0
  126.8105  135.9913  161.0916 O   0  0  0  0  0  0  0  0  0  0  0  0
  129.0242  135.9619  161.2730 N   0  0  0  0  0  0  0  0  0  0  0  0
  129.1536  135.1118  160.0869 C   0  0  1  0  0  0  0  0  0  0  0  0
  128.2714  134.4784  159.9940 H   0  0  0  0  0  0  0  0  0  0  0  0
  129.2874  135.9896  158.8397 C   0  0  0  0  0  0  0  0  0  0  0  0
  129.4323  135.1031  157.6019 C   0  0  0  0  0  0  0  0  0  0  0  0
  130.6650  134.3098  157.7000 N   0  0  0  0  0  0  0  0  0  0  0  0
  131.4600  134.9286  157.7557 H   0  0  0  0  0  0  0  0  0  0  0  0
  130.7523  133.7213  156.8849 H   0  0  0  0  0  0  0  0  0  0  0  0
  130.6098  133.4722  158.9060 C   0  0  0  0  0  0  0  0  0  0  0  0
  129.9693  132.0896  158.7817 C   0  0  0  0  0  0  0  0  0  0  0  0
  131.4853  132.2198  158.9430 C   0  0  0  0  0  0  0  0  0  0  0  0
  130.4034  134.2340  160.2190 C   0  0  0  0  0  0  0  0  0  0  0  0
  132.5314  139.7563  163.4792 C   0  0  0  0  0  0  0  0  0  0  0  0
  133.8293  139.3549  163.1167 C   0  0  0  0  0  0  0  0  0  0  0  0
  134.9191  139.8981  163.7161 C   0  0  0  0  0  0  0  0  0  0  0  0
  134.7612  140.8699  164.7221 C   0  0  0  0  0  0  0  0  0  0  0  0
  135.8260  141.4100  165.3230 N   0  0  0  0  0  0  0  0  0  0  0  0
  135.6916  142.3215  166.2666 C   0  0  0  0  0  0  0  0  0  0  0  0
  137.1330  142.9970  167.0219 S   0  0  0  0  0  0  0  0  0  0  0  0
  137.8438  141.5299  167.6908 C   0  0  0  0  0  0  0  0  0  0  0  0
  138.9297  141.2493  168.3900 C   0  0  0  0  0  0  0  0  0  0  0  0
  138.7288  139.7602  168.5148 C   0  0  0  0  0  0  0  0  0  0  0  0
  137.4709  140.0691  167.6993 C   0  0  0  0  0  0  0  0  0  0  0  0
  134.4276  142.7659  166.6833 C   0  0  0  0  0  0  0  0  0  0  0  0
  133.3054  142.2526  166.1083 C   0  0  0  0  0  0  0  0  0  0  0  0
  133.4567  141.2774  165.0983 C   0  0  0  0  0  0  0  0  0  0  0  0
  132.3429  140.7113  164.4674 C   0  0  0  0  0  0  0  0  0  0  0  0
  130.1472  140.7378  163.0860 H   0  0  0  0  0  0  0  0  0  0  0  0
  129.3893  138.5585  161.2737 H   0  0  0  0  0  0  0  0  0  0  0  0
  128.4444  140.0322  161.5960 H   0  0  0  0  0  0  0  0  0  0  0  0
  126.4531  135.9798  164.2485 H   0  0  0  0  0  0  0  0  0  0  0  0
  129.8167  136.2466  161.7544 H   0  0  0  0  0  0  0  0  0  0  0  0
  128.3998  136.6142  158.7386 H   0  0  0  0  0  0  0  0  0  0  0  0
  130.1684  136.6243  158.9353 H   0  0  0  0  0  0  0  0  0  0  0  0
  129.4739  135.7291  156.7106 H   0  0  0  0  0  0  0  0  0  0  0  0
  128.5746  134.4338  157.5352 H   0  0  0  0  0  0  0  0  0  0  0  0
  129.4021  131.7190  159.6356 H   0  0  0  0  0  0  0  0  0  0  0  0
  129.5906  131.7965  157.8024 H   0  0  0  0  0  0  0  0  0  0  0  0
  132.1041  132.0122  158.0700 H   0  0  0  0  0  0  0  0  0  0  0  0
  131.9159  131.9349  159.9030 H   0  0  0  0  0  0  0  0  0  0  0  0
  131.2720  134.8619  160.4177 H   0  0  0  0  0  0  0  0  0  0  0  0
  130.2676  133.5249  161.0356 H   0  0  0  0  0  0  0  0  0  0  0  0
  133.9609  138.6071  162.3489 H   0  0  0  0  0  0  0  0  0  0  0  0
  135.9093  139.5815  163.4233 H   0  0  0  0  0  0  0  0  0  0  0  0
  139.7180  141.8891  168.7580 H   0  0  0  0  0  0  0  0  0  0  0  0
  138.5338  139.4119  169.5289 H   0  0  0  0  0  0  0  0  0  0  0  0
  139.4722  139.1626  167.9869 H   0  0  0  0  0  0  0  0  0  0  0  0
  136.5476  139.8653  168.2416 H   0  0  0  0  0  0  0  0  0  0  0  0
  137.4802  139.6182  166.7070 H   0  0  0  0  0  0  0  0  0  0  0  0
  134.3452  143.5131  167.4588 H   0  0  0  0  0  0  0  0  0  0  0  0
  132.3245  142.5832  166.4163 H   0  0  0  0  0  0  0  0  0  0  0  0
  131.3452  141.0154  164.7477 H   0  0  0  0  0  0  0  0  0  0  0  0
  1  2  2  0
  2  3  1  0
  2 25  1  0
  3  4  1  0
  3 40  1  0
  4  5  1  0
  4 41  1  0
  4 42  1  0
  5 10  1  0
  5  6  2  0
  6  7  1  0
  7  8  1  0
  7  9  1  0
  9 10  2  0
  9 43  1  0
 10 11  1  0
 11 12  2  0
 11 13  1  0
 13 14  1  0
 13 44  1  0
 14 15  1  6
 14 24  1  0
 14 16  1  0
 16 17  1  0
 16 45  1  0
 16 46  1  0
 17 18  1  0
 17 47  1  0
 17 48  1  0
 18 19  1  0
 18 20  1  0
 18 21  1  0
 21 23  1  0
 21 22  1  0
 21 24  1  0
 22 23  1  0
 22 49  1  0
 22 50  1  0
 23 51  1  0
 23 52  1  0
 24 53  1  0
 24 54  1  0
 25 39  1  0
 25 26  2  0
 26 27  1  0
 26 55  1  0
 27 28  2  0
 27 56  1  0
 28 38  1  0
 28 29  1  0
 29 30  2  0
 30 31  1  0
 30 36  1  0
 31 32  1  0
 32 35  1  0
 32 33  2  0
 33 34  1  0
 33 57  1  0
 34 35  1  0
 34 58  1  0
 34 59  1  0
 35 60  1  0
 35 61  1  0
 36 37  2  0
 36 62  1  0
 37 38  1  0
 37 63  1  0
 38 39  2  0
 39 64  1  0
M  CHG  1  18   1
M  END
>  <DOCK_score>  (1) 
-43.226967

>  <SMILES>  (1) 
O=C(NCc1n[nH]cc1C(=O)N[C@H]1CC[NH2+]C2(CC2)C1)c1ccc2nc(SC3=CCC3)ccc2c1

$$$$
