Cc1ccc(-c2ccc(F)cc2)cc1CN1CC[NH+](C(c2ccccc2)c2ccccc2)CC1
     RDKit          3D

 66 70  0  0  0  0  0  0  0  0999 V2000
  135.9805  140.9319  160.5992 C   0  0  0  0  0  0  0  0  0  0  0  0
  136.0078  139.7525  161.5370 C   0  0  0  0  0  0  0  0  0  0  0  0
  137.0559  139.6044  162.4278 C   0  0  0  0  0  0  0  0  0  0  0  0
  137.0830  138.5294  163.2927 C   0  0  0  0  0  0  0  0  0  0  0  0
  136.0546  137.5892  163.2640 C   0  0  0  0  0  0  0  0  0  0  0  0
  136.0786  136.4310  164.1913 C   0  0  0  0  0  0  0  0  0  0  0  0
  134.8844  135.8688  164.6378 C   0  0  0  0  0  0  0  0  0  0  0  0
  134.9113  134.7889  165.4963 C   0  0  0  0  0  0  0  0  0  0  0  0
  136.1233  134.2704  165.9228 C   0  0  0  0  0  0  0  0  0  0  0  0
  136.1450  133.2164  166.7676 F   0  0  0  0  0  0  0  0  0  0  0  0
  137.3129  134.8293  165.4848 C   0  0  0  0  0  0  0  0  0  0  0  0
  137.2953  135.9061  164.6223 C   0  0  0  0  0  0  0  0  0  0  0  0
  135.0043  137.7406  162.3613 C   0  0  0  0  0  0  0  0  0  0  0  0
  134.9873  138.8197  161.5007 C   0  0  0  0  0  0  0  0  0  0  0  0
  133.8516  138.9851  160.5240 C   0  0  0  0  0  0  0  0  0  0  0  0
  132.9044  137.8732  160.6817 N   0  0  0  0  0  0  0  0  0  0  0  0
  133.4275  136.6448  160.0673 C   0  0  0  0  0  0  0  0  0  0  0  0
  132.4408  135.4994  160.3047 C   0  0  0  0  0  0  0  0  0  0  0  0
  131.1391  135.8447  159.7183 N   0  0  0  0  0  0  0  0  0  0  0  0
  131.2488  136.0073  158.7286 H   0  0  0  0  0  0  0  0  0  0  0  0
  130.1977  134.7373  159.9310 C   0  0  0  0  0  0  0  0  0  0  0  0
  128.8619  135.0911  159.3295 C   0  0  0  0  0  0  0  0  0  0  0  0
  127.7003  134.5778  159.8756 C   0  0  0  0  0  0  0  0  0  0  0  0
  126.4748  134.9061  159.3268 C   0  0  0  0  0  0  0  0  0  0  0  0
  126.4111  135.7395  158.2265 C   0  0  0  0  0  0  0  0  0  0  0  0
  127.5734  136.2488  157.6766 C   0  0  0  0  0  0  0  0  0  0  0  0
  128.7986  135.9246  158.2285 C   0  0  0  0  0  0  0  0  0  0  0  0
  130.7309  133.4911  159.2722 C   0  0  0  0  0  0  0  0  0  0  0  0
  130.4005  133.2074  157.9602 C   0  0  0  0  0  0  0  0  0  0  0  0
  130.8936  132.0667  157.3546 C   0  0  0  0  0  0  0  0  0  0  0  0
  131.7085  131.2046  158.0641 C   0  0  0  0  0  0  0  0  0  0  0  0
  132.0346  131.4856  159.3777 C   0  0  0  0  0  0  0  0  0  0  0  0
  131.5458  132.6290  159.9818 C   0  0  0  0  0  0  0  0  0  0  0  0
  130.6184  137.0595  160.3590 C   0  0  0  0  0  0  0  0  0  0  0  0
  131.5899  138.2179  160.1221 C   0  0  0  0  0  0  0  0  0  0  0  0
  136.4191  140.6462  159.6433 H   0  0  0  0  0  0  0  0  0  0  0  0
  134.9494  141.2500  160.4455 H   0  0  0  0  0  0  0  0  0  0  0  0
  136.5534  141.7526  161.0310 H   0  0  0  0  0  0  0  0  0  0  0  0
  137.8521  140.3337  162.4494 H   0  0  0  0  0  0  0  0  0  0  0  0
  137.8998  138.4167  163.9902 H   0  0  0  0  0  0  0  0  0  0  0  0
  133.9392  136.2752  164.3095 H   0  0  0  0  0  0  0  0  0  0  0  0
  133.9862  134.3501  165.8401 H   0  0  0  0  0  0  0  0  0  0  0  0
  138.2555  134.4218  165.8195 H   0  0  0  0  0  0  0  0  0  0  0  0
  138.2233  136.3411  164.2814 H   0  0  0  0  0  0  0  0  0  0  0  0
  134.2050  137.0147  162.3347 H   0  0  0  0  0  0  0  0  0  0  0  0
  133.3404  139.9280  160.7176 H   0  0  0  0  0  0  0  0  0  0  0  0
  134.2441  138.9865  159.5072 H   0  0  0  0  0  0  0  0  0  0  0  0
  133.5542  136.7994  158.9958 H   0  0  0  0  0  0  0  0  0  0  0  0
  134.3893  136.3950  160.5153 H   0  0  0  0  0  0  0  0  0  0  0  0
  132.3248  135.3359  161.3761 H   0  0  0  0  0  0  0  0  0  0  0  0
  132.8201  134.5905  159.8375 H   0  0  0  0  0  0  0  0  0  0  0  0
  130.0796  134.5611  161.0001 H   0  0  0  0  0  0  0  0  0  0  0  0
  127.7502  133.9231  160.7331 H   0  0  0  0  0  0  0  0  0  0  0  0
  125.5670  134.5080  159.7556 H   0  0  0  0  0  0  0  0  0  0  0  0
  125.4542  135.9925  157.7944 H   0  0  0  0  0  0  0  0  0  0  0  0
  127.5239  136.8997  156.8161 H   0  0  0  0  0  0  0  0  0  0  0  0
  129.7065  136.3222  157.7993 H   0  0  0  0  0  0  0  0  0  0  0  0
  129.7603  133.8787  157.4075 H   0  0  0  0  0  0  0  0  0  0  0  0
  130.6384  131.8470  156.3284 H   0  0  0  0  0  0  0  0  0  0  0  0
  132.0900  130.3112  157.5923 H   0  0  0  0  0  0  0  0  0  0  0  0
  132.6709  130.8118  159.9322 H   0  0  0  0  0  0  0  0  0  0  0  0
  131.8003  132.8484  161.0082 H   0  0  0  0  0  0  0  0  0  0  0  0
  130.5117  136.8881  161.4303 H   0  0  0  0  0  0  0  0  0  0  0  0
  129.6466  137.3073  159.9322 H   0  0  0  0  0  0  0  0  0  0  0  0
  131.2110  139.1159  160.6102 H   0  0  0  0  0  0  0  0  0  0  0  0
  131.6864  138.3989  159.0516 H   0  0  0  0  0  0  0  0  0  0  0  0
  1  2  1  0
  1 36  1  0
  1 37  1  0
  1 38  1  0
  2 14  2  0
  2  3  1  0
  3  4  2  0
  3 39  1  0
  4  5  1  0
  4 40  1  0
  5  6  1  0
  5 13  2  0
  6 12  1  0
  6  7  2  0
  7  8  1  0
  7 41  1  0
  8  9  2  0
  8 42  1  0
  9 10  1  0
  9 11  1  0
 11 12  2  0
 11 43  1  0
 12 44  1  0
 13 14  1  0
 13 45  1  0
 14 15  1  0
 15 16  1  0
 15 46  1  0
 15 47  1  0
 16 35  1  0
 16 17  1  0
 17 18  1  0
 17 48  1  0
 17 49  1  0
 18 19  1  0
 18 50  1  0
 18 51  1  0
 19 20  1  0
 19 21  1  0
 19 34  1  0
 21 22  1  0
 21 28  1  0
 21 52  1  0
 22 27  1  0
 22 23  2  0
 23 24  1  0
 23 53  1  0
 24 25  2  0
 24 54  1  0
 25 26  1  0
 25 55  1  0
 26 27  2  0
 26 56  1  0
 27 57  1  0
 28 33  1  0
 28 29  2  0
 29 30  1  0
 29 58  1  0
 30 31  2  0
 30 59  1  0
 31 32  1  0
 31 60  1  0
 32 33  2  0
 32 61  1  0
 33 62  1  0
 34 35  1  0
 34 63  1  0
 34 64  1  0
 35 65  1  0
 35 66  1  0
M  CHG  1  19   1
M  END
>  <DOCK_score>  (1) 
-56.591213

>  <SMILES>  (1) 
Cc1ccc(-c2ccc(F)cc2)cc1CN1CC[NH+](C(c2ccccc2)c2ccccc2)CC1

$$$$
