CCc1ccc(-c2c[nH]c(N[C@H](CCO)CCC3=CCC(C)=C(C)C3)[nH+]2)cc1
     RDKit          3D

 62 64  0  0  1  0  0  0  0  0999 V2000
  129.9590  128.6499  151.1462 C   0  0  0  0  0  0  0  0  0  0  0  0
  131.1475  129.5596  151.4630 C   0  0  0  0  0  0  0  0  0  0  0  0
  130.8893  130.2922  152.7544 C   0  0  0  0  0  0  0  0  0  0  0  0
  131.2918  129.7357  153.9545 C   0  0  0  0  0  0  0  0  0  0  0  0
  131.0623  130.4042  155.1399 C   0  0  0  0  0  0  0  0  0  0  0  0
  130.4140  131.6380  155.1266 C   0  0  0  0  0  0  0  0  0  0  0  0
  130.1599  132.3591  156.3977 C   0  0  0  0  0  0  0  0  0  0  0  0
  129.4307  131.8988  157.4443 C   0  0  0  0  0  0  0  0  0  0  0  0
  129.4530  132.8783  158.4072 N   0  0  0  0  0  0  0  0  0  0  0  0
  129.0191  132.8419  159.2739 H   0  0  0  0  0  0  0  0  0  0  0  0
  130.1959  133.9094  157.9204 C   0  0  0  0  0  0  0  0  0  0  0  0
  130.4627  135.0948  158.5840 N   0  0  0  0  0  0  0  0  0  0  0  0
  129.9270  135.3177  159.9292 C   0  0  2  0  0  0  0  0  0  0  0  0
  129.9969  134.3953  160.5056 H   0  0  0  0  0  0  0  0  0  0  0  0
  128.4619  135.7474  159.8300 C   0  0  0  0  0  0  0  0  0  0  0  0
  127.7668  135.5025  161.1707 C   0  0  0  0  0  0  0  0  0  0  0  0
  127.8347  134.1125  161.4953 O   0  0  0  0  0  0  0  0  0  0  0  0
  130.7347  136.4157  160.6242 C   0  0  0  0  0  0  0  0  0  0  0  0
  132.1998  135.9860  160.7235 C   0  0  0  0  0  0  0  0  0  0  0  0
  132.9952  137.0676  161.4081 C   0  0  0  0  0  0  0  0  0  0  0  0
  134.0362  136.7262  162.1047 C   0  0  0  0  0  0  0  0  0  0  0  0
  134.8980  137.7226  162.8200 C   0  0  0  0  0  0  0  0  0  0  0  0
  134.1679  139.0146  163.0324 C   0  0  0  0  0  0  0  0  0  0  0  0
  134.6671  139.9584  164.0959 C   0  0  0  0  0  0  0  0  0  0  0  0
  133.1238  139.3553  162.3401 C   0  0  0  0  0  0  0  0  0  0  0  0
  132.4632  140.6773  162.6351 C   0  0  0  0  0  0  0  0  0  0  0  0
  132.5466  138.4903  161.2604 C   0  0  0  0  0  0  0  0  0  0  0  0
  130.6208  133.5934  156.7215 N   0  0  0  0  0  0  0  0  0  0  0  0
  131.1748  134.1534  156.1553 H   0  0  0  0  0  0  0  0  0  0  0  0
  130.0058  132.1920  153.9146 C   0  0  0  0  0  0  0  0  0  0  0  0
  130.2453  131.5167  152.7350 C   0  0  0  0  0  0  0  0  0  0  0  0
  130.1457  128.1200  150.2123 H   0  0  0  0  0  0  0  0  0  0  0  0
  129.8287  127.9288  151.9532 H   0  0  0  0  0  0  0  0  0  0  0  0
  129.0560  129.2523  151.0479 H   0  0  0  0  0  0  0  0  0  0  0  0
  132.0504  128.9575  151.5610 H   0  0  0  0  0  0  0  0  0  0  0  0
  131.2778  130.2811  150.6557 H   0  0  0  0  0  0  0  0  0  0  0  0
  131.7902  128.7776  153.9640 H   0  0  0  0  0  0  0  0  0  0  0  0
  131.3811  129.9706  156.0762 H   0  0  0  0  0  0  0  0  0  0  0  0
  128.9282  130.9450  157.5084 H   0  0  0  0  0  0  0  0  0  0  0  0
  131.0042  135.7777  158.1583 H   0  0  0  0  0  0  0  0  0  0  0  0
  128.4101  136.8076  159.5822 H   0  0  0  0  0  0  0  0  0  0  0  0
  127.9653  135.1679  159.0518 H   0  0  0  0  0  0  0  0  0  0  0  0
  128.2636  136.0819  161.9488 H   0  0  0  0  0  0  0  0  0  0  0  0
  126.7231  135.8084  161.1001 H   0  0  0  0  0  0  0  0  0  0  0  0
  127.4114  133.5355  160.8448 H   0  0  0  0  0  0  0  0  0  0  0  0
  130.6649  137.3382  160.0478 H   0  0  0  0  0  0  0  0  0  0  0  0
  130.3361  136.5818  161.6250 H   0  0  0  0  0  0  0  0  0  0  0  0
  132.2695  135.0635  161.2999 H   0  0  0  0  0  0  0  0  0  0  0  0
  132.5984  135.8201  159.7227 H   0  0  0  0  0  0  0  0  0  0  0  0
  134.2948  135.6796  162.1685 H   0  0  0  0  0  0  0  0  0  0  0  0
  135.7952  137.9120  162.2307 H   0  0  0  0  0  0  0  0  0  0  0  0
  135.1863  137.3118  163.7875 H   0  0  0  0  0  0  0  0  0  0  0  0
  134.1135  139.7905  165.0197 H   0  0  0  0  0  0  0  0  0  0  0  0
  135.7282  139.7801  164.2708 H   0  0  0  0  0  0  0  0  0  0  0  0
  134.5209  140.9870  163.7666 H   0  0  0  0  0  0  0  0  0  0  0  0
  131.5558  140.7711  162.0385 H   0  0  0  0  0  0  0  0  0  0  0  0
  132.2088  140.7281  163.6939 H   0  0  0  0  0  0  0  0  0  0  0  0
  133.1471  141.4887  162.3864 H   0  0  0  0  0  0  0  0  0  0  0  0
  132.8690  138.8675  160.2897 H   0  0  0  0  0  0  0  0  0  0  0  0
  131.4588  138.5295  161.3144 H   0  0  0  0  0  0  0  0  0  0  0  0
  129.5027  133.1474  153.8985 H   0  0  0  0  0  0  0  0  0  0  0  0
  129.9297  131.9452  151.7952 H   0  0  0  0  0  0  0  0  0  0  0  0
  1  2  1  0
  1 32  1  0
  1 33  1  0
  1 34  1  0
  2  3  1  0
  2 35  1  0
  2 36  1  0
  3 31  2  0
  3  4  1  0
  4  5  2  0
  4 37  1  0
  5  6  1  0
  5 38  1  0
  6  7  1  0
  6 30  2  0
  7 28  1  0
  7  8  2  0
  8  9  1  0
  8 39  1  0
  9 10  1  0
  9 11  1  0
 11 12  1  0
 11 28  2  0
 12 13  1  0
 12 40  1  0
 13 14  1  1
 13 15  1  0
 13 18  1  0
 15 16  1  0
 15 41  1  0
 15 42  1  0
 16 17  1  0
 16 43  1  0
 16 44  1  0
 17 45  1  0
 18 19  1  0
 18 46  1  0
 18 47  1  0
 19 20  1  0
 19 48  1  0
 19 49  1  0
 20 27  1  0
 20 21  2  0
 21 22  1  0
 21 50  1  0
 22 23  1  0
 22 51  1  0
 22 52  1  0
 23 24  1  0
 23 25  2  0
 24 53  1  0
 24 54  1  0
 24 55  1  0
 25 26  1  0
 25 27  1  0
 26 56  1  0
 26 57  1  0
 26 58  1  0
 27 59  1  0
 27 60  1  0
 28 29  1  0
 30 31  1  0
 30 61  1  0
 31 62  1  0
M  CHG  1  28   1
M  END
>  <DOCK_score>  (1) 
-57.415642

>  <SMILES>  (1) 
CCc1ccc(-c2c[nH]c(N[C@H](CCO)CCC3=CCC(C)=C(C)C3)[nH+]2)cc1

$$$$
