C[C@@H](CCc1ccccc1)C(Nc1[nH]cc(-c2ccc(N)cc2)[nH+]1)c1ccnn1C
     RDKit          3D

 59 62  0  0  1  0  0  0  0  0999 V2000
  129.9360  137.1788  162.1302 C   0  0  0  0  0  0  0  0  0  0  0  0
  130.3631  136.9172  160.6844 C   0  0  1  0  0  0  0  0  0  0  0  0
  129.8139  137.5818  160.0174 H   0  0  0  0  0  0  0  0  0  0  0  0
  131.8640  137.1772  160.5411 C   0  0  0  0  0  0  0  0  0  0  0  0
  132.1110  138.6816  160.4119 C   0  0  0  0  0  0  0  0  0  0  0  0
  133.5893  138.9377  160.2708 C   0  0  0  0  0  0  0  0  0  0  0  0
  134.3651  139.1467  161.3958 C   0  0  0  0  0  0  0  0  0  0  0  0
  135.7220  139.3768  161.2665 C   0  0  0  0  0  0  0  0  0  0  0  0
  136.3014  139.4084  160.0118 C   0  0  0  0  0  0  0  0  0  0  0  0
  135.5246  139.2047  158.8866 C   0  0  0  0  0  0  0  0  0  0  0  0
  134.1687  138.9693  159.0161 C   0  0  0  0  0  0  0  0  0  0  0  0
  130.0602  135.4629  160.3182 C   0  0  2  0  0  0  0  0  0  0  0  0
  130.4692  135.2126  158.9339 N   0  0  0  0  0  0  0  0  0  0  0  0
  130.2924  133.9579  158.3759 C   0  0  0  0  0  0  0  0  0  0  0  0
  129.7584  132.8776  159.0080 N   0  0  0  0  0  0  0  0  0  0  0  0
  129.4361  132.8481  159.9224 H   0  0  0  0  0  0  0  0  0  0  0  0
  129.7571  131.8367  158.1099 C   0  0  0  0  0  0  0  0  0  0  0  0
  130.2982  132.3090  156.9598 C   0  0  0  0  0  0  0  0  0  0  0  0
  130.5049  131.5361  155.7105 C   0  0  0  0  0  0  0  0  0  0  0  0
  129.8839  131.9394  154.5294 C   0  0  0  0  0  0  0  0  0  0  0  0
  130.0820  131.2228  153.3681 C   0  0  0  0  0  0  0  0  0  0  0  0
  130.8907  130.0931  153.3768 C   0  0  0  0  0  0  0  0  0  0  0  0
  131.0849  129.3644  152.2008 N   0  0  0  0  0  0  0  0  0  0  0  0
  131.5065  129.6854  154.5548 C   0  0  0  0  0  0  0  0  0  0  0  0
  131.3158  130.4021  155.7172 C   0  0  0  0  0  0  0  0  0  0  0  0
  130.6169  133.6133  157.1535 N   0  0  0  0  0  0  0  0  0  0  0  0
  131.0207  134.1976  156.4930 H   0  0  0  0  0  0  0  0  0  0  0  0
  128.5819  135.2068  160.4593 C   0  0  0  0  0  0  0  0  0  0  0  0
  127.9495  134.7776  161.5760 C   0  0  0  0  0  0  0  0  0  0  0  0
  126.5851  134.6754  161.2856 C   0  0  0  0  0  0  0  0  0  0  0  0
  126.4049  135.0304  160.0393 N   0  0  0  0  0  0  0  0  0  0  0  0
  127.6506  135.3704  159.4965 N   0  0  0  0  0  0  0  0  0  0  0  0
  127.8987  135.8235  158.1255 C   0  0  0  0  0  0  0  0  0  0  0  0
  128.8667  136.9936  162.2322 H   0  0  0  0  0  0  0  0  0  0  0  0
  130.4852  136.5142  162.7971 H   0  0  0  0  0  0  0  0  0  0  0  0
  130.1519  138.2148  162.3909 H   0  0  0  0  0  0  0  0  0  0  0  0
  132.3841  136.7978  161.4207 H   0  0  0  0  0  0  0  0  0  0  0  0
  132.2373  136.6701  159.6514 H   0  0  0  0  0  0  0  0  0  0  0  0
  131.5909  139.0610  159.5323 H   0  0  0  0  0  0  0  0  0  0  0  0
  131.7377  139.1888  161.3016 H   0  0  0  0  0  0  0  0  0  0  0  0
  133.9117  139.1265  162.3757 H   0  0  0  0  0  0  0  0  0  0  0  0
  136.3287  139.5364  162.1457 H   0  0  0  0  0  0  0  0  0  0  0  0
  137.3607  139.5927  159.9107 H   0  0  0  0  0  0  0  0  0  0  0  0
  135.9772  139.2297  157.9063 H   0  0  0  0  0  0  0  0  0  0  0  0
  133.5619  138.8105  158.1370 H   0  0  0  0  0  0  0  0  0  0  0  0
  130.6095  134.7984  160.9851 H   0  0  0  0  0  0  0  0  0  0  0  0
  130.8639  135.9259  158.4081 H   0  0  0  0  0  0  0  0  0  0  0  0
  129.3975  130.8339  158.2876 H   0  0  0  0  0  0  0  0  0  0  0  0
  129.2515  132.8149  154.5230 H   0  0  0  0  0  0  0  0  0  0  0  0
  129.6049  131.5375  152.4517 H   0  0  0  0  0  0  0  0  0  0  0  0
  131.6493  128.5755  152.2063 H   0  0  0  0  0  0  0  0  0  0  0  0
  130.6554  129.6478  151.3785 H   0  0  0  0  0  0  0  0  0  0  0  0
  132.1346  128.8068  154.5595 H   0  0  0  0  0  0  0  0  0  0  0  0
  131.7946  130.0856  156.6320 H   0  0  0  0  0  0  0  0  0  0  0  0
  128.4160  134.5539  162.5241 H   0  0  0  0  0  0  0  0  0  0  0  0
  125.8137  134.3585  161.9718 H   0  0  0  0  0  0  0  0  0  0  0  0
  128.0966  134.9616  157.4882 H   0  0  0  0  0  0  0  0  0  0  0  0
  127.0230  136.3560  157.7547 H   0  0  0  0  0  0  0  0  0  0  0  0
  128.7612  136.4898  158.1136 H   0  0  0  0  0  0  0  0  0  0  0  0
  1  2  1  0
  1 34  1  0
  1 35  1  0
  1 36  1  0
  2  3  1  6
  2  4  1  0
  2 12  1  0
  4  5  1  0
  4 37  1  0
  4 38  1  0
  5  6  1  0
  5 39  1  0
  5 40  1  0
  6 11  1  0
  6  7  2  0
  7  8  1  0
  7 41  1  0
  8  9  2  0
  8 42  1  0
  9 10  1  0
  9 43  1  0
 10 11  2  0
 10 44  1  0
 11 45  1  0
 12 13  1  0
 12 28  1  0
 12 46  1  1
 13 47  1  0
 14 13  1  0
 14 26  2  0
 14 15  1  0
 15 16  1  0
 15 17  1  0
 17 18  2  0
 17 48  1  0
 18 19  1  0
 18 26  1  0
 19 25  1  0
 19 20  2  0
 20 21  1  0
 20 49  1  0
 21 22  2  0
 21 50  1  0
 22 23  1  0
 22 24  1  0
 23 51  1  0
 23 52  1  0
 24 25  2  0
 24 53  1  0
 25 54  1  0
 26 27  1  0
 28 32  1  0
 28 29  2  0
 29 30  1  0
 29 55  1  0
 30 31  2  0
 30 56  1  0
 31 32  1  0
 32 33  1  0
 33 57  1  0
 33 58  1  0
 33 59  1  0
M  CHG  1  26   1
M  END
>  <DOCK_score>  (1) 
-62.093559

>  <SMILES>  (1) 
C[C@@H](CCc1ccccc1)C(Nc1[nH]cc(-c2ccc(N)cc2)[nH+]1)c1ccnn1C

$$$$
