Clc1cccc(N2CC[NH+](C(c3ccccc3)c3ccccc3)CC2)c1CC=CCc1ccccc1
     RDKit          3D

 70 74  0  0  1  0  0  0  0  0999 V2000
  136.0025  141.5157  162.4933 Cl  0  0  0  0  0  0  0  0  0  0  0  0
  135.2913  140.5990  161.2019 C   0  0  0  0  0  0  0  0  0  0  0  0
  135.6910  140.8200  159.8951 C   0  0  0  0  0  0  0  0  0  0  0  0
  135.1265  140.0923  158.8642 C   0  0  0  0  0  0  0  0  0  0  0  0
  134.1620  139.1412  159.1350 C   0  0  0  0  0  0  0  0  0  0  0  0
  133.7586  138.9161  160.4449 C   0  0  0  0  0  0  0  0  0  0  0  0
  132.7836  137.9550  160.7215 N   0  0  0  0  0  0  0  0  0  0  0  0
  133.2512  136.6102  160.3563 C   0  0  0  0  0  0  0  0  0  0  0  0
  132.1804  135.5825  160.7293 C   0  0  0  0  0  0  0  0  0  0  0  0
  130.9329  135.8955  160.0198 N   0  0  0  0  0  0  0  0  0  0  0  0
  131.0984  135.8770  159.0246 H   0  0  0  0  0  0  0  0  0  0  0  0
  129.9108  134.8981  160.3641 C   0  0  0  0  0  0  0  0  0  0  0  0
  128.6307  135.2189  159.6363 C   0  0  0  0  0  0  0  0  0  0  0  0
  127.4136  134.8762  160.1948 C   0  0  0  0  0  0  0  0  0  0  0  0
  126.2391  135.1749  159.5295 C   0  0  0  0  0  0  0  0  0  0  0  0
  126.2820  135.8070  158.3015 C   0  0  0  0  0  0  0  0  0  0  0  0
  127.4998  136.1450  157.7399 C   0  0  0  0  0  0  0  0  0  0  0  0
  128.6739  135.8510  158.4078 C   0  0  0  0  0  0  0  0  0  0  0  0
  130.3892  133.5278  159.9587 C   0  0  0  0  0  0  0  0  0  0  0  0
  129.9827  132.4150  160.6711 C   0  0  0  0  0  0  0  0  0  0  0  0
  130.4177  131.1576  160.2962 C   0  0  0  0  0  0  0  0  0  0  0  0
  131.2676  131.0139  159.2154 C   0  0  0  0  0  0  0  0  0  0  0  0
  131.6782  132.1273  158.5063 C   0  0  0  0  0  0  0  0  0  0  0  0
  131.2389  133.3842  158.8779 C   0  0  0  0  0  0  0  0  0  0  0  0
  130.4656  137.2312  160.4134 C   0  0  0  0  0  0  0  0  0  0  0  0
  131.5221  138.2726  160.0378 C   0  0  0  0  0  0  0  0  0  0  0  0
  134.3269  139.6488  161.4792 C   0  0  0  0  0  0  0  0  0  0  0  0
  133.8918  139.4083  162.9019 C   0  0  0  0  0  0  0  0  0  0  0  0
  132.7339  140.3143  163.2332 C   0  0  0  0  0  0  0  0  0  0  0  0
  131.5832  139.8018  163.5925 C   0  0  0  0  0  0  0  0  0  0  0  0
  130.4254  140.7078  163.9237 C   0  0  0  0  0  0  0  0  0  0  0  0
  129.9905  140.4673  165.3464 C   0  0  0  0  0  0  0  0  0  0  0  0
  128.6705  140.6620  165.7078 C   0  0  0  0  0  0  0  0  0  0  0  0
  128.2704  140.4367  167.0117 C   0  0  0  0  0  0  0  0  0  0  0  0
  129.1917  140.0266  167.9563 C   0  0  0  0  0  0  0  0  0  0  0  0
  130.5136  139.8374  167.5962 C   0  0  0  0  0  0  0  0  0  0  0  0
  130.9125  140.0575  166.2912 C   0  0  0  0  0  0  0  0  0  0  0  0
  136.4450  141.5628  159.6805 H   0  0  0  0  0  0  0  0  0  0  0  0
  135.4403  140.2673  157.8456 H   0  0  0  0  0  0  0  0  0  0  0  0
  133.7189  138.5760  158.3284 H   0  0  0  0  0  0  0  0  0  0  0  0
  133.4369  136.5688  159.2831 H   0  0  0  0  0  0  0  0  0  0  0  0
  134.1725  136.3870  160.8941 H   0  0  0  0  0  0  0  0  0  0  0  0
  132.0048  135.6147  161.8045 H   0  0  0  0  0  0  0  0  0  0  0  0
  132.5192  134.5859  160.4462 H   0  0  0  0  0  0  0  0  0  0  0  0
  129.7321  134.9174  161.4392 H   0  0  0  0  0  0  0  0  0  0  0  0
  127.3800  134.3784  161.1527 H   0  0  0  0  0  0  0  0  0  0  0  0
  125.2881  134.9104  159.9677 H   0  0  0  0  0  0  0  0  0  0  0  0
  125.3651  136.0363  157.7790 H   0  0  0  0  0  0  0  0  0  0  0  0
  127.5335  136.6385  156.7799 H   0  0  0  0  0  0  0  0  0  0  0  0
  129.6250  136.1149  157.9693 H   0  0  0  0  0  0  0  0  0  0  0  0
  129.3224  132.5277  161.5182 H   0  0  0  0  0  0  0  0  0  0  0  0
  130.0972  130.2879  160.8505 H   0  0  0  0  0  0  0  0  0  0  0  0
  131.6110  130.0320  158.9254 H   0  0  0  0  0  0  0  0  0  0  0  0
  132.3423  132.0150  157.6621 H   0  0  0  0  0  0  0  0  0  0  0  0
  131.5600  134.2541  158.3242 H   0  0  0  0  0  0  0  0  0  0  0  0
  130.2987  137.2549  161.4902 H   0  0  0  0  0  0  0  0  0  0  0  0
  129.5330  137.4568  159.8962 H   0  0  0  0  0  0  0  0  0  0  0  0
  131.1819  139.2621  160.3433 H   0  0  0  0  0  0  0  0  0  0  0  0
  131.6793  138.2585  158.9593 H   0  0  0  0  0  0  0  0  0  0  0  0
  133.5843  138.3689  163.0170 H   0  0  0  0  0  0  0  0  0  0  0  0
  134.7220  139.6183  163.5761 H   0  0  0  0  0  0  0  0  0  0  0  0
  132.8530  141.3861  163.1743 H   0  0  0  0  0  0  0  0  0  0  0  0
  131.4642  138.7300  163.6513 H   0  0  0  0  0  0  0  0  0  0  0  0
  130.7329  141.7472  163.8086 H   0  0  0  0  0  0  0  0  0  0  0  0
  129.5952  140.4978  163.2495 H   0  0  0  0  0  0  0  0  0  0  0  0
  127.9509  140.9865  164.9707 H   0  0  0  0  0  0  0  0  0  0  0  0
  127.2384  140.5851  167.2933 H   0  0  0  0  0  0  0  0  0  0  0  0
  128.8810  139.8551  168.9763 H   0  0  0  0  0  0  0  0  0  0  0  0
  131.2341  139.5175  168.3345 H   0  0  0  0  0  0  0  0  0  0  0  0
  131.9447  139.9097  166.0098 H   0  0  0  0  0  0  0  0  0  0  0  0
  1  2  1  0
  2 27  2  0
  2  3  1  0
  3  4  2  0
  3 38  1  0
  4  5  1  0
  4 39  1  0
  5  6  2  0
  5 40  1  0
  6  7  1  0
  6 27  1  0
  7 26  1  0
  7  8  1  0
  8  9  1  0
  8 41  1  0
  8 42  1  0
  9 10  1  0
  9 43  1  0
  9 44  1  0
 10 11  1  0
 10 12  1  0
 10 25  1  0
 12 13  1  0
 12 19  1  0
 12 45  1  0
 13 18  1  0
 13 14  2  0
 14 15  1  0
 14 46  1  0
 15 16  2  0
 15 47  1  0
 16 17  1  0
 16 48  1  0
 17 18  2  0
 17 49  1  0
 18 50  1  0
 19 24  1  0
 19 20  2  0
 20 21  1  0
 20 51  1  0
 21 22  2  0
 21 52  1  0
 22 23  1  0
 22 53  1  0
 23 24  2  0
 23 54  1  0
 24 55  1  0
 25 26  1  0
 25 56  1  0
 25 57  1  0
 26 58  1  0
 26 59  1  0
 27 28  1  0
 28 29  1  0
 28 60  1  0
 28 61  1  0
 29 30  2  0
 29 62  1  0
 30 31  1  0
 30 63  1  0
 31 32  1  0
 31 64  1  0
 31 65  1  0
 32 37  1  0
 32 33  2  0
 33 34  1  0
 33 66  1  0
 34 35  2  0
 34 67  1  0
 35 36  1  0
 35 68  1  0
 36 37  2  0
 36 69  1  0
 37 70  1  0
M  CHG  1  10   1
M  END
>  <DOCK_score>  (1) 
-56.076492

>  <SMILES>  (1) 
Clc1cccc(N2CC[NH+](C(c3ccccc3)c3ccccc3)CC2)c1CC=CCc1ccccc1

$$$$
