CCc1ccc(C[C@H](Nc2[nH]cc(-c3ccc(CC)cc3)[nH+]2)C2=CCOCC2)cc1
     RDKit          3D

 62 65  0  0  1  0  0  0  0  0999 V2000
  135.8903  138.2150  163.2795 C   0  0  0  0  0  0  0  0  0  0  0  0
  135.5539  136.8090  162.7787 C   0  0  0  0  0  0  0  0  0  0  0  0
  134.1304  136.7789  162.2852 C   0  0  0  0  0  0  0  0  0  0  0  0
  133.8513  137.0663  160.9621 C   0  0  0  0  0  0  0  0  0  0  0  0
  132.5454  137.0391  160.5095 C   0  0  0  0  0  0  0  0  0  0  0  0
  131.5187  136.7245  161.3799 C   0  0  0  0  0  0  0  0  0  0  0  0
  130.0950  136.6952  160.8865 C   0  0  0  0  0  0  0  0  0  0  0  0
  129.7555  135.2878  160.3918 C   0  0  2  0  0  0  0  0  0  0  0  0
  130.1953  134.5506  161.0635 H   0  0  0  0  0  0  0  0  0  0  0  0
  130.2940  135.1014  159.0421 N   0  0  0  0  0  0  0  0  0  0  0  0
  130.1105  133.8975  158.3837 C   0  0  0  0  0  0  0  0  0  0  0  0
  129.4558  132.8134  158.8819 N   0  0  0  0  0  0  0  0  0  0  0  0
  129.0372  132.7458  159.7543 H   0  0  0  0  0  0  0  0  0  0  0  0
  129.4967  131.8326  157.9210 C   0  0  0  0  0  0  0  0  0  0  0  0
  130.1746  132.3450  156.8642 C   0  0  0  0  0  0  0  0  0  0  0  0
  130.4673  131.6425  155.5910 C   0  0  0  0  0  0  0  0  0  0  0  0
  129.9963  132.1566  154.3841 C   0  0  0  0  0  0  0  0  0  0  0  0
  130.2721  131.4989  153.2026 C   0  0  0  0  0  0  0  0  0  0  0  0
  131.0145  130.3314  153.2148 C   0  0  0  0  0  0  0  0  0  0  0  0
  131.3124  129.6177  151.9214 C   0  0  0  0  0  0  0  0  0  0  0  0
  130.1977  128.6125  151.6250 C   0  0  0  0  0  0  0  0  0  0  0  0
  131.4795  129.8139  154.4099 C   0  0  0  0  0  0  0  0  0  0  0  0
  131.2146  130.4661  155.5969 C   0  0  0  0  0  0  0  0  0  0  0  0
  130.5430  133.6121  157.1799 N   0  0  0  0  0  0  0  0  0  0  0  0
  131.0446  134.2117  156.6055 H   0  0  0  0  0  0  0  0  0  0  0  0
  128.2589  135.1124  160.3641 C   0  0  0  0  0  0  0  0  0  0  0  0
  127.7258  134.1751  161.0901 C   0  0  0  0  0  0  0  0  0  0  0  0
  126.2470  133.9134  161.1260 C   0  0  0  0  0  0  0  0  0  0  0  0
  125.5375  135.0235  160.5726 O   0  0  0  0  0  0  0  0  0  0  0  0
  126.0437  135.4319  159.2958 C   0  0  0  0  0  0  0  0  0  0  0  0
  127.4388  136.0324  159.5024 C   0  0  0  0  0  0  0  0  0  0  0  0
  131.7971  136.4422  162.7042 C   0  0  0  0  0  0  0  0  0  0  0  0
  133.1035  136.4643  163.1555 C   0  0  0  0  0  0  0  0  0  0  0  0
  135.2175  138.4811  164.0947 H   0  0  0  0  0  0  0  0  0  0  0  0
  136.9200  138.2368  163.6365 H   0  0  0  0  0  0  0  0  0  0  0  0
  135.7733  138.9289  162.4641 H   0  0  0  0  0  0  0  0  0  0  0  0
  135.6710  136.0952  163.5941 H   0  0  0  0  0  0  0  0  0  0  0  0
  136.2268  136.5429  161.9635 H   0  0  0  0  0  0  0  0  0  0  0  0
  134.6534  137.3125  160.2822 H   0  0  0  0  0  0  0  0  0  0  0  0
  132.3273  137.2640  159.4758 H   0  0  0  0  0  0  0  0  0  0  0  0
  129.9794  137.4057  160.0680 H   0  0  0  0  0  0  0  0  0  0  0  0
  129.4227  136.9662  161.7007 H   0  0  0  0  0  0  0  0  0  0  0  0
  130.7791  135.8217  158.6098 H   0  0  0  0  0  0  0  0  0  0  0  0
  129.0703  130.8430  157.9931 H   0  0  0  0  0  0  0  0  0  0  0  0
  129.4164  133.0677  154.3736 H   0  0  0  0  0  0  0  0  0  0  0  0
  129.9073  131.8963  152.2668 H   0  0  0  0  0  0  0  0  0  0  0  0
  132.2629  129.0923  152.0067 H   0  0  0  0  0  0  0  0  0  0  0  0
  131.3705  130.3447  151.1104 H   0  0  0  0  0  0  0  0  0  0  0  0
  130.4132  128.0965  150.6894 H   0  0  0  0  0  0  0  0  0  0  0  0
  130.1392  127.8861  152.4355 H   0  0  0  0  0  0  0  0  0  0  0  0
  129.2469  129.1385  151.5393 H   0  0  0  0  0  0  0  0  0  0  0  0
  132.0545  128.8997  154.4138 H   0  0  0  0  0  0  0  0  0  0  0  0
  131.5822  130.0634  156.5293 H   0  0  0  0  0  0  0  0  0  0  0  0
  128.3745  133.5575  161.6935 H   0  0  0  0  0  0  0  0  0  0  0  0
  126.0246  133.0173  160.5467 H   0  0  0  0  0  0  0  0  0  0  0  0
  125.9315  133.7637  162.1585 H   0  0  0  0  0  0  0  0  0  0  0  0
  126.1059  134.5693  158.6325 H   0  0  0  0  0  0  0  0  0  0  0  0
  125.3826  136.1819  158.8615 H   0  0  0  0  0  0  0  0  0  0  0  0
  127.3510  137.0036  159.9893 H   0  0  0  0  0  0  0  0  0  0  0  0
  127.9263  136.1544  158.5352 H   0  0  0  0  0  0  0  0  0  0  0  0
  130.9945  136.2006  163.3851 H   0  0  0  0  0  0  0  0  0  0  0  0
  133.3215  136.2401  164.1893 H   0  0  0  0  0  0  0  0  0  0  0  0
  1  2  1  0
  1 34  1  0
  1 35  1  0
  1 36  1  0
  2  3  1  0
  2 37  1  0
  2 38  1  0
  3 33  2  0
  3  4  1  0
  4  5  2  0
  4 39  1  0
  5  6  1  0
  5 40  1  0
  6  7  1  0
  6 32  2  0
  7  8  1  0
  7 41  1  0
  7 42  1  0
  8  9  1  1
  8 10  1  0
  8 26  1  0
 10 43  1  0
 11 10  1  0
 11 24  2  0
 11 12  1  0
 12 13  1  0
 12 14  1  0
 14 15  2  0
 14 44  1  0
 15 16  1  0
 15 24  1  0
 16 23  1  0
 16 17  2  0
 17 18  1  0
 17 45  1  0
 18 19  2  0
 18 46  1  0
 19 20  1  0
 19 22  1  0
 20 21  1  0
 20 47  1  0
 20 48  1  0
 21 49  1  0
 21 50  1  0
 21 51  1  0
 22 23  2  0
 22 52  1  0
 23 53  1  0
 24 25  1  0
 26 31  1  0
 26 27  2  0
 27 28  1  0
 27 54  1  0
 28 29  1  0
 28 55  1  0
 28 56  1  0
 29 30  1  0
 30 31  1  0
 30 57  1  0
 30 58  1  0
 31 59  1  0
 31 60  1  0
 32 33  1  0
 32 61  1  0
 33 62  1  0
M  CHG  1  24   1
M  END
>  <DOCK_score>  (1) 
-60.177258

>  <SMILES>  (1) 
CCc1ccc(C[C@H](Nc2[nH]cc(-c3ccc(CC)cc3)[nH+]2)C2=CCOCC2)cc1

$$$$
