Brc1ccc(-c2c[nH]c(N[C@@H](C3=CCOCC3)c3cnn(-c4ccccc4)c3)[nH+]2)cc1
     RDKit          3D

 54 58  0  0  1  0  0  0  0  0999 V2000
  131.2629  129.2979  151.7145 Br  0  0  0  0  0  0  0  0  0  0  0  0
  130.8945  130.2963  153.2777 C   0  0  0  0  0  0  0  0  0  0  0  0
  130.1839  131.4808  153.1881 C   0  0  0  0  0  0  0  0  0  0  0  0
  129.9128  132.2134  154.3256 C   0  0  0  0  0  0  0  0  0  0  0  0
  130.3557  131.7585  155.5665 C   0  0  0  0  0  0  0  0  0  0  0  0
  130.0676  132.5421  156.7925 C   0  0  0  0  0  0  0  0  0  0  0  0
  129.3591  132.1128  157.8660 C   0  0  0  0  0  0  0  0  0  0  0  0
  129.3350  133.1487  158.7681 N   0  0  0  0  0  0  0  0  0  0  0  0
  128.9027  133.1445  159.6363 H   0  0  0  0  0  0  0  0  0  0  0  0
  130.0300  134.1818  158.2186 C   0  0  0  0  0  0  0  0  0  0  0  0
  130.2408  135.4162  158.8089 N   0  0  0  0  0  0  0  0  0  0  0  0
  129.6936  135.6951  160.1390 C   0  0  1  0  0  0  0  0  0  0  0  0
  128.6084  135.5974  160.1131 H   0  0  0  0  0  0  0  0  0  0  0  0
  130.2627  134.7148  161.1320 C   0  0  0  0  0  0  0  0  0  0  0  0
  129.5433  134.3786  162.1609 C   0  0  0  0  0  0  0  0  0  0  0  0
  130.0199  133.4130  163.2085 C   0  0  0  0  0  0  0  0  0  0  0  0
  131.1581  132.6917  162.7332 O   0  0  0  0  0  0  0  0  0  0  0  0
  132.1751  133.5437  162.1914 C   0  0  0  0  0  0  0  0  0  0  0  0
  131.6439  134.1676  160.8978 C   0  0  0  0  0  0  0  0  0  0  0  0
  130.0622  137.0974  160.5497 C   0  0  0  0  0  0  0  0  0  0  0  0
  130.2606  138.1822  159.6883 C   0  0  0  0  0  0  0  0  0  0  0  0
  130.5668  139.2290  160.4116 N   0  0  0  0  0  0  0  0  0  0  0  0
  130.5733  138.8441  161.7586 N   0  0  0  0  0  0  0  0  0  0  0  0
  130.8545  139.6743  162.8526 C   0  0  0  0  0  0  0  0  0  0  0  0
  131.4255  139.1422  164.0009 C   0  0  0  0  0  0  0  0  0  0  0  0
  131.7068  139.9637  165.0749 C   0  0  0  0  0  0  0  0  0  0  0  0
  131.4098  141.3127  165.0117 C   0  0  0  0  0  0  0  0  0  0  0  0
  130.8360  141.8446  163.8714 C   0  0  0  0  0  0  0  0  0  0  0  0
  130.5576  141.0291  162.7920 C   0  0  0  0  0  0  0  0  0  0  0  0
  130.2602  137.5298  161.8165 C   0  0  0  0  0  0  0  0  0  0  0  0
  130.4621  133.8172  157.0361 N   0  0  0  0  0  0  0  0  0  0  0  0
  130.9823  134.3702  156.4324 H   0  0  0  0  0  0  0  0  0  0  0  0
  131.0751  130.5677  155.6506 C   0  0  0  0  0  0  0  0  0  0  0  0
  131.3363  129.8400  154.5075 C   0  0  0  0  0  0  0  0  0  0  0  0
  129.8412  131.8323  152.2262 H   0  0  0  0  0  0  0  0  0  0  0  0
  129.3582  133.1374  154.2546 H   0  0  0  0  0  0  0  0  0  0  0  0
  128.9011  131.1423  157.9883 H   0  0  0  0  0  0  0  0  0  0  0  0
  130.7508  136.0964  158.3418 H   0  0  0  0  0  0  0  0  0  0  0  0
  128.5583  134.8093  162.2654 H   0  0  0  0  0  0  0  0  0  0  0  0
  129.2208  132.7109  163.4467 H   0  0  0  0  0  0  0  0  0  0  0  0
  130.2928  133.9679  164.1061 H   0  0  0  0  0  0  0  0  0  0  0  0
  133.0687  132.9578  161.9763 H   0  0  0  0  0  0  0  0  0  0  0  0
  132.4153  134.3302  162.9067 H   0  0  0  0  0  0  0  0  0  0  0  0
  131.6058  133.4078  160.1173 H   0  0  0  0  0  0  0  0  0  0  0  0
  132.3063  134.9752  160.5861 H   0  0  0  0  0  0  0  0  0  0  0  0
  130.1795  138.1585  158.6116 H   0  0  0  0  0  0  0  0  0  0  0  0
  131.6535  138.0878  164.0524 H   0  0  0  0  0  0  0  0  0  0  0  0
  132.1549  139.5512  165.9669 H   0  0  0  0  0  0  0  0  0  0  0  0
  131.6268  141.9520  165.8548 H   0  0  0  0  0  0  0  0  0  0  0  0
  130.6057  142.8987  163.8249 H   0  0  0  0  0  0  0  0  0  0  0  0
  130.1097  141.4452  161.9016 H   0  0  0  0  0  0  0  0  0  0  0  0
  130.1827  136.9324  162.7130 H   0  0  0  0  0  0  0  0  0  0  0  0
  131.4240  130.2130  156.6092 H   0  0  0  0  0  0  0  0  0  0  0  0
  131.8898  128.9149  154.5722 H   0  0  0  0  0  0  0  0  0  0  0  0
  1  2  1  0
  2 34  2  0
  2  3  1  0
  3  4  2  0
  3 35  1  0
  4  5  1  0
  4 36  1  0
  5  6  1  0
  5 33  2  0
  6 31  1  0
  6  7  2  0
  7  8  1  0
  7 37  1  0
  8  9  1  0
  8 10  1  0
 10 11  1  0
 10 31  2  0
 11 12  1  0
 11 38  1  0
 12 13  1  6
 12 14  1  0
 12 20  1  0
 14 19  1  0
 14 15  2  0
 15 16  1  0
 15 39  1  0
 16 17  1  0
 16 40  1  0
 16 41  1  0
 17 18  1  0
 18 19  1  0
 18 42  1  0
 18 43  1  0
 19 44  1  0
 19 45  1  0
 20 30  2  0
 20 21  1  0
 21 22  2  0
 21 46  1  0
 22 23  1  0
 23 24  1  0
 23 30  1  0
 24 29  1  0
 24 25  2  0
 25 26  1  0
 25 47  1  0
 26 27  2  0
 26 48  1  0
 27 28  1  0
 27 49  1  0
 28 29  2  0
 28 50  1  0
 29 51  1  0
 30 52  1  0
 31 32  1  0
 33 34  1  0
 33 53  1  0
 34 54  1  0
M  CHG  1  31   1
M  END
>  <DOCK_score>  (1) 
-57.433613

>  <SMILES>  (1) 
Brc1ccc(-c2c[nH]c(N[C@@H](C3=CCOCC3)c3cnn(-c4ccccc4)c3)[nH+]2)cc1

$$$$
