O=C1CC[C@H](NC(NC2CCCCC2)=[NH+][C@H]2COc3cc(Cl)ccc3C2)CN1
     RDKit          3D

 58 61  0  0  1  0  0  0  0  0999 V2000
  123.7684  133.7063  161.5279 O   0  0  0  0  0  0  0  0  0  0  0  0
  124.9372  133.9590  161.3252 C   0  0  0  0  0  0  0  0  0  0  0  0
  125.8311  132.8516  160.8459 C   0  0  0  0  0  0  0  0  0  0  0  0
  127.2970  133.2329  161.0670 C   0  0  0  0  0  0  0  0  0  0  0  0
  127.5186  134.6464  160.5154 C   0  0  2  0  0  0  0  0  0  0  0  0
  127.1601  134.6981  159.4874 H   0  0  0  0  0  0  0  0  0  0  0  0
  128.9466  134.9711  160.5549 N   0  0  0  0  0  0  0  0  0  0  0  0
  129.7488  134.6753  159.4782 C   0  0  0  0  0  0  0  0  0  0  0  0
  129.2108  134.0749  158.3646 N   0  0  0  0  0  0  0  0  0  0  0  0
  130.0356  133.1884  157.5398 C   0  0  0  0  0  0  0  0  0  0  0  0
  129.2022  132.6563  156.3722 C   0  0  0  0  0  0  0  0  0  0  0  0
  130.0635  131.7306  155.5109 C   0  0  0  0  0  0  0  0  0  0  0  0
  130.5587  130.5581  156.3601 C   0  0  0  0  0  0  0  0  0  0  0  0
  131.3920  131.0903  157.5277 C   0  0  0  0  0  0  0  0  0  0  0  0
  130.5306  132.0160  158.3890 C   0  0  0  0  0  0  0  0  0  0  0  0
  131.0193  134.9640  159.5134 N   0  0  0  0  0  0  0  0  0  0  0  0
  131.4915  135.1756  158.6929 H   0  0  0  0  0  0  0  0  0  0  0  0
  131.7342  134.9692  160.7921 C   0  0  1  0  0  0  0  0  0  0  0  0
  131.2780  134.2486  161.4708 H   0  0  0  0  0  0  0  0  0  0  0  0
  133.2065  134.6046  160.5627 C   0  0  0  0  0  0  0  0  0  0  0  0
  133.8520  134.5169  161.8336 O   0  0  0  0  0  0  0  0  0  0  0  0
  133.6745  135.5413  162.7081 C   0  0  0  0  0  0  0  0  0  0  0  0
  134.5530  135.6582  163.7804 C   0  0  0  0  0  0  0  0  0  0  0  0
  134.4004  136.6810  164.6953 C   0  0  0  0  0  0  0  0  0  0  0  0
  135.4991  136.8228  166.0317 Cl  0  0  0  0  0  0  0  0  0  0  0  0
  133.3701  137.5932  164.5458 C   0  0  0  0  0  0  0  0  0  0  0  0
  132.4974  137.4798  163.4818 C   0  0  0  0  0  0  0  0  0  0  0  0
  132.6468  136.4563  162.5604 C   0  0  0  0  0  0  0  0  0  0  0  0
  131.6761  136.3684  161.4101 C   0  0  0  0  0  0  0  0  0  0  0  0
  126.7428  135.6380  161.3834 C   0  0  0  0  0  0  0  0  0  0  0  0
  125.3597  135.2055  161.5401 N   0  0  0  0  0  0  0  0  0  0  0  0
  125.6578  132.6805  159.7835 H   0  0  0  0  0  0  0  0  0  0  0  0
  125.6066  131.9398  161.3996 H   0  0  0  0  0  0  0  0  0  0  0  0
  127.9425  132.5287  160.5422 H   0  0  0  0  0  0  0  0  0  0  0  0
  127.5246  133.2151  162.1329 H   0  0  0  0  0  0  0  0  0  0  0  0
  129.3270  135.3911  161.3422 H   0  0  0  0  0  0  0  0  0  0  0  0
  128.2852  134.2382  158.1248 H   0  0  0  0  0  0  0  0  0  0  0  0
  130.8904  133.7433  157.1528 H   0  0  0  0  0  0  0  0  0  0  0  0
  128.3474  132.1016  156.7591 H   0  0  0  0  0  0  0  0  0  0  0  0
  128.8495  133.4916  155.7672 H   0  0  0  0  0  0  0  0  0  0  0  0
  130.9182  132.2854  155.1239 H   0  0  0  0  0  0  0  0  0  0  0  0
  129.4697  131.3515  154.6791 H   0  0  0  0  0  0  0  0  0  0  0  0
  131.1722  129.8987  155.7465 H   0  0  0  0  0  0  0  0  0  0  0  0
  129.7038  130.0033  156.7471 H   0  0  0  0  0  0  0  0  0  0  0  0
  132.2469  131.6451  157.1407 H   0  0  0  0  0  0  0  0  0  0  0  0
  131.7447  130.2550  158.1327 H   0  0  0  0  0  0  0  0  0  0  0  0
  131.1245  132.3951  159.2208 H   0  0  0  0  0  0  0  0  0  0  0  0
  129.6759  131.4612  158.7759 H   0  0  0  0  0  0  0  0  0  0  0  0
  133.2715  133.6446  160.0507 H   0  0  0  0  0  0  0  0  0  0  0  0
  133.6862  135.3759  159.9601 H   0  0  0  0  0  0  0  0  0  0  0  0
  135.3573  134.9469  163.8975 H   0  0  0  0  0  0  0  0  0  0  0  0
  133.2490  138.3934  165.2610 H   0  0  0  0  0  0  0  0  0  0  0  0
  131.6946  138.1929  163.3671 H   0  0  0  0  0  0  0  0  0  0  0  0
  131.9400  137.1094  160.6554 H   0  0  0  0  0  0  0  0  0  0  0  0
  130.6667  136.5632  161.7725 H   0  0  0  0  0  0  0  0  0  0  0  0
  127.2133  135.7030  162.3644 H   0  0  0  0  0  0  0  0  0  0  0  0
  126.7617  136.6207  160.9124 H   0  0  0  0  0  0  0  0  0  0  0  0
  124.7058  135.8656  161.8183 H   0  0  0  0  0  0  0  0  0  0  0  0
  1  2  2  0
  2 31  1  0
  2  3  1  0
  3  4  1  0
  3 32  1  0
  3 33  1  0
  4  5  1  0
  4 34  1  0
  4 35  1  0
  5  6  1  6
  5  7  1  0
  5 30  1  0
  7 36  1  0
  8  7  1  0
  8  9  1  0
  8 16  2  0
  9 10  1  0
  9 37  1  0
 10 15  1  0
 10 11  1  0
 10 38  1  0
 11 12  1  0
 11 39  1  0
 11 40  1  0
 12 13  1  0
 12 41  1  0
 12 42  1  0
 13 14  1  0
 13 43  1  0
 13 44  1  0
 14 15  1  0
 14 45  1  0
 14 46  1  0
 15 47  1  0
 15 48  1  0
 16 17  1  0
 16 18  1  0
 18 19  1  1
 18 29  1  0
 18 20  1  0
 20 21  1  0
 20 49  1  0
 20 50  1  0
 21 22  1  0
 22 28  2  0
 22 23  1  0
 23 24  2  0
 23 51  1  0
 24 25  1  0
 24 26  1  0
 26 27  2  0
 26 52  1  0
 27 28  1  0
 27 53  1  0
 28 29  1  0
 29 54  1  0
 29 55  1  0
 30 31  1  0
 30 56  1  0
 30 57  1  0
 31 58  1  0
M  CHG  1  16   1
M  END
>  <DOCK_score>  (1) 
-45.344513

>  <SMILES>  (1) 
O=C1CC[C@H](NC(NC2CCCCC2)=[NH+][C@H]2COc3cc(Cl)ccc3C2)CN1

$$$$
