Nc1ccc(-c2c[nH]c(N[C@H](c3ccccc3)c3ccc(I)cc3)[nH+]2)cc1
     RDKit          3D

 47 50  0  0  1  0  0  0  0  0999 V2000
  131.3038  129.5134  152.0287 N   0  0  0  0  0  0  0  0  0  0  0  0
  131.0445  130.1724  153.2328 C   0  0  0  0  0  0  0  0  0  0  0  0
  130.1200  131.2105  153.2698 C   0  0  0  0  0  0  0  0  0  0  0  0
  129.8623  131.8634  154.4566 C   0  0  0  0  0  0  0  0  0  0  0  0
  130.5293  131.4820  155.6198 C   0  0  0  0  0  0  0  0  0  0  0  0
  130.2544  132.1833  156.8978 C   0  0  0  0  0  0  0  0  0  0  0  0
  129.7719  131.6165  158.0312 C   0  0  0  0  0  0  0  0  0  0  0  0
  129.6693  132.6194  158.9660 N   0  0  0  0  0  0  0  0  0  0  0  0
  129.3535  132.5245  159.8782 H   0  0  0  0  0  0  0  0  0  0  0  0
  130.0926  133.7697  158.3750 C   0  0  0  0  0  0  0  0  0  0  0  0
  130.1461  135.0141  158.9790 N   0  0  0  0  0  0  0  0  0  0  0  0
  129.7240  135.1705  160.3732 C   0  0  2  0  0  0  0  0  0  0  0  0
  130.0703  134.3165  160.9555 H   0  0  0  0  0  0  0  0  0  0  0  0
  128.2203  135.2458  160.4373 C   0  0  0  0  0  0  0  0  0  0  0  0
  127.5518  134.7790  161.5536 C   0  0  0  0  0  0  0  0  0  0  0  0
  126.1728  134.8522  161.6141 C   0  0  0  0  0  0  0  0  0  0  0  0
  125.4615  135.3837  160.5545 C   0  0  0  0  0  0  0  0  0  0  0  0
  126.1298  135.8456  159.4361 C   0  0  0  0  0  0  0  0  0  0  0  0
  127.5092  135.7764  159.3773 C   0  0  0  0  0  0  0  0  0  0  0  0
  130.3151  136.4366  160.9379 C   0  0  0  0  0  0  0  0  0  0  0  0
  129.6405  137.1350  161.9220 C   0  0  0  0  0  0  0  0  0  0  0  0
  130.1852  138.2932  162.4441 C   0  0  0  0  0  0  0  0  0  0  0  0
  131.3995  138.7591  161.9745 C   0  0  0  0  0  0  0  0  0  0  0  0
  132.2211  140.5191  162.7595 I   0  0  0  0  0  0  0  0  0  0  0  0
  132.0713  138.0631  160.9861 C   0  0  0  0  0  0  0  0  0  0  0  0
  131.5288  136.9022  160.4680 C   0  0  0  0  0  0  0  0  0  0  0  0
  130.4360  133.5061  157.1377 N   0  0  0  0  0  0  0  0  0  0  0  0
  130.7689  134.1534  156.4965 H   0  0  0  0  0  0  0  0  0  0  0  0
  131.4595  130.4444  155.5790 C   0  0  0  0  0  0  0  0  0  0  0  0
  131.7100  129.7909  154.3910 C   0  0  0  0  0  0  0  0  0  0  0  0
  130.8393  129.7794  151.2198 H   0  0  0  0  0  0  0  0  0  0  0  0
  131.9486  128.7894  152.0019 H   0  0  0  0  0  0  0  0  0  0  0  0
  129.6034  131.5058  152.3684 H   0  0  0  0  0  0  0  0  0  0  0  0
  129.1441  132.6695  154.4853 H   0  0  0  0  0  0  0  0  0  0  0  0
  129.5165  130.5766  158.1723 H   0  0  0  0  0  0  0  0  0  0  0  0
  130.4631  135.7826  158.4792 H   0  0  0  0  0  0  0  0  0  0  0  0
  128.1072  134.3604  162.3799 H   0  0  0  0  0  0  0  0  0  0  0  0
  125.6507  134.4917  162.4881 H   0  0  0  0  0  0  0  0  0  0  0  0
  124.3839  135.4383  160.6006 H   0  0  0  0  0  0  0  0  0  0  0  0
  125.5742  136.2608  158.6082 H   0  0  0  0  0  0  0  0  0  0  0  0
  128.0313  136.1373  158.5034 H   0  0  0  0  0  0  0  0  0  0  0  0
  128.6902  136.7734  162.2859 H   0  0  0  0  0  0  0  0  0  0  0  0
  129.6604  138.8363  163.2162 H   0  0  0  0  0  0  0  0  0  0  0  0
  133.0196  138.4268  160.6188 H   0  0  0  0  0  0  0  0  0  0  0  0
  132.0534  136.3587  159.6961 H   0  0  0  0  0  0  0  0  0  0  0  0
  131.9804  130.1499  156.4781 H   0  0  0  0  0  0  0  0  0  0  0  0
  132.4274  128.9842  154.3597 H   0  0  0  0  0  0  0  0  0  0  0  0
  1  2  1  0
  1 31  1  0
  1 32  1  0
  2 30  2  0
  2  3  1  0
  3  4  2  0
  3 33  1  0
  4  5  1  0
  4 34  1  0
  5  6  1  0
  5 29  2  0
  6 27  1  0
  6  7  2  0
  7  8  1  0
  7 35  1  0
  8  9  1  0
  8 10  1  0
 10 11  1  0
 10 27  2  0
 11 12  1  0
 11 36  1  0
 12 13  1  1
 12 14  1  0
 12 20  1  0
 14 19  1  0
 14 15  2  0
 15 16  1  0
 15 37  1  0
 16 17  2  0
 16 38  1  0
 17 18  1  0
 17 39  1  0
 18 19  2  0
 18 40  1  0
 19 41  1  0
 20 26  1  0
 20 21  2  0
 21 22  1  0
 21 42  1  0
 22 23  2  0
 22 43  1  0
 23 24  1  0
 23 25  1  0
 25 26  2  0
 25 44  1  0
 26 45  1  0
 27 28  1  0
 29 30  1  0
 29 46  1  0
 30 47  1  0
M  CHG  1  27   1
M  END
>  <DOCK_score>  (1) 
-57.209446

>  <SMILES>  (1) 
Nc1ccc(-c2c[nH]c(N[C@H](c3ccccc3)c3ccc(I)cc3)[nH+]2)cc1

$$$$
