O=C1CC[C@H](NC(NC2CC=CC2)=[NH+]C2COc3cc(NCc4cccc5cc[nH]c45)ccc3C2)CN1
     RDKit          3D

 72 77  0  0  1  0  0  0  0  0999 V2000
  124.0055  133.1587  160.7981 O   0  0  0  0  0  0  0  0  0  0  0  0
  125.1600  133.4601  160.5808 C   0  0  0  0  0  0  0  0  0  0  0  0
  126.0576  132.4312  159.9556 C   0  0  0  0  0  0  0  0  0  0  0  0
  127.5227  132.8234  160.1624 C   0  0  0  0  0  0  0  0  0  0  0  0
  127.6934  134.2919  159.7550 C   0  0  2  0  0  0  0  0  0  0  0  0
  127.2944  134.4419  158.7518 H   0  0  0  0  0  0  0  0  0  0  0  0
  129.1148  134.6460  159.7766 N   0  0  0  0  0  0  0  0  0  0  0  0
  130.0028  133.9742  158.9703 C   0  0  0  0  0  0  0  0  0  0  0  0
  129.5838  133.4576  157.7671 N   0  0  0  0  0  0  0  0  0  0  0  0
  130.5301  132.7418  156.9079 C   0  0  0  0  0  0  0  0  0  0  0  0
  130.0482  132.7322  155.4385 C   0  0  0  0  0  0  0  0  0  0  0  0
  130.4345  131.3680  154.9165 C   0  0  0  0  0  0  0  0  0  0  0  0
  130.7047  130.5489  155.8963 C   0  0  0  0  0  0  0  0  0  0  0  0
  130.5435  131.2305  157.2352 C   0  0  0  0  0  0  0  0  0  0  0  0
  131.2421  133.8272  159.3464 N   0  0  0  0  0  0  0  0  0  0  0  0
  131.8688  133.3533  158.7775 H   0  0  0  0  0  0  0  0  0  0  0  0
  131.6888  134.3779  160.6285 C   0  0  1  0  0  0  0  0  0  0  0  0
  132.8458  133.5346  161.1794 C   0  0  0  0  0  0  0  0  0  0  0  0
  133.1891  134.0314  162.4736 O   0  0  0  0  0  0  0  0  0  0  0  0
  133.3771  135.3699  162.6108 C   0  0  0  0  0  0  0  0  0  0  0  0
  134.0470  135.8320  163.7377 C   0  0  0  0  0  0  0  0  0  0  0  0
  134.2500  137.1915  163.9189 C   0  0  0  0  0  0  0  0  0  0  0  0
  134.9231  137.6544  165.0517 N   0  0  0  0  0  0  0  0  0  0  0  0
  135.5219  138.9914  165.0524 C   0  0  0  0  0  0  0  0  0  0  0  0
  136.7287  139.0008  165.9551 C   0  0  0  0  0  0  0  0  0  0  0  0
  136.9234  140.0404  166.8383 C   0  0  0  0  0  0  0  0  0  0  0  0
  138.0280  140.0583  167.6781 C   0  0  0  0  0  0  0  0  0  0  0  0
  138.9483  139.0490  167.6361 C   0  0  0  0  0  0  0  0  0  0  0  0
  138.7737  137.9884  166.7454 C   0  0  0  0  0  0  0  0  0  0  0  0
  139.5387  136.7764  166.4427 C   0  0  0  0  0  0  0  0  0  0  0  0
  138.8720  136.1222  165.4785 C   0  0  0  0  0  0  0  0  0  0  0  0
  137.7426  136.8160  165.1389 N   0  0  0  0  0  0  0  0  0  0  0  0
  137.1011  136.5410  164.4654 H   0  0  0  0  0  0  0  0  0  0  0  0
  137.6527  137.9630  165.8955 C   0  0  0  0  0  0  0  0  0  0  0  0
  133.7765  138.0926  162.9726 C   0  0  0  0  0  0  0  0  0  0  0  0
  133.1185  137.6302  161.8515 C   0  0  0  0  0  0  0  0  0  0  0  0
  132.9155  136.2719  161.6672 C   0  0  0  0  0  0  0  0  0  0  0  0
  132.1908  135.8098  160.4282 C   0  0  0  0  0  0  0  0  0  0  0  0
  126.9306  135.1707  160.7471 C   0  0  0  0  0  0  0  0  0  0  0  0
  125.5646  134.6873  160.9104 N   0  0  0  0  0  0  0  0  0  0  0  0
  125.8470  132.3678  158.8880 H   0  0  0  0  0  0  0  0  0  0  0  0
  125.8737  131.4613  160.4178 H   0  0  0  0  0  0  0  0  0  0  0  0
  128.1619  132.1942  159.5432 H   0  0  0  0  0  0  0  0  0  0  0  0
  127.7910  132.7001  161.2116 H   0  0  0  0  0  0  0  0  0  0  0  0
  129.4293  135.3543  160.3599 H   0  0  0  0  0  0  0  0  0  0  0  0
  128.6615  133.5670  157.4872 H   0  0  0  0  0  0  0  0  0  0  0  0
  131.5297  133.1687  156.9897 H   0  0  0  0  0  0  0  0  0  0  0  0
  128.9672  132.8643  155.3927 H   0  0  0  0  0  0  0  0  0  0  0  0
  130.5515  133.5134  154.8688 H   0  0  0  0  0  0  0  0  0  0  0  0
  130.4814  131.1051  153.8700 H   0  0  0  0  0  0  0  0  0  0  0  0
  131.0037  129.5193  155.7670 H   0  0  0  0  0  0  0  0  0  0  0  0
  131.3835  130.9906  157.8870 H   0  0  0  0  0  0  0  0  0  0  0  0
  129.6044  130.9351  157.7030 H   0  0  0  0  0  0  0  0  0  0  0  0
  130.8612  134.3744  161.3379 H   0  0  0  0  0  0  0  0  0  0  0  0
  132.5360  132.4923  161.2565 H   0  0  0  0  0  0  0  0  0  0  0  0
  133.7066  133.6140  160.5155 H   0  0  0  0  0  0  0  0  0  0  0  0
  134.4107  135.1304  164.4738 H   0  0  0  0  0  0  0  0  0  0  0  0
  134.9906  137.0922  165.8392 H   0  0  0  0  0  0  0  0  0  0  0  0
  135.8243  139.2547  164.0389 H   0  0  0  0  0  0  0  0  0  0  0  0
  134.7923  139.7161  165.4139 H   0  0  0  0  0  0  0  0  0  0  0  0
  136.2068  140.8474  166.8801 H   0  0  0  0  0  0  0  0  0  0  0  0
  138.1638  140.8787  168.3673 H   0  0  0  0  0  0  0  0  0  0  0  0
  139.8075  139.0714  168.2902 H   0  0  0  0  0  0  0  0  0  0  0  0
  140.4633  136.4675  166.9073 H   0  0  0  0  0  0  0  0  0  0  0  0
  139.1814  135.1866  165.0365 H   0  0  0  0  0  0  0  0  0  0  0  0
  133.9273  139.1528  163.1124 H   0  0  0  0  0  0  0  0  0  0  0  0
  132.7551  138.3318  161.1153 H   0  0  0  0  0  0  0  0  0  0  0  0
  131.3431  136.4680  160.2372 H   0  0  0  0  0  0  0  0  0  0  0  0
  132.8716  135.8392  159.5775 H   0  0  0  0  0  0  0  0  0  0  0  0
  127.4365  135.1472  161.7123 H   0  0  0  0  0  0  0  0  0  0  0  0
  126.9111  136.1965  160.3789 H   0  0  0  0  0  0  0  0  0  0  0  0
  124.9082  135.2984  161.2801 H   0  0  0  0  0  0  0  0  0  0  0  0
  1  2  2  0
  2 40  1  0
  2  3  1  0
  3  4  1  0
  3 41  1  0
  3 42  1  0
  4  5  1  0
  4 43  1  0
  4 44  1  0
  5  6  1  6
  5  7  1  0
  5 39  1  0
  7 45  1  0
  8  7  1  0
  8  9  1  0
  8 15  2  0
  9 10  1  0
  9 46  1  0
 10 14  1  0
 10 11  1  0
 10 47  1  0
 11 12  1  0
 11 48  1  0
 11 49  1  0
 12 13  2  0
 12 50  1  0
 13 14  1  0
 13 51  1  0
 14 52  1  0
 14 53  1  0
 15 16  1  0
 15 17  1  0
 17 38  1  0
 17 18  1  0
 17 54  1  1
 18 19  1  0
 18 55  1  0
 18 56  1  0
 19 20  1  0
 20 37  2  0
 20 21  1  0
 21 22  2  0
 21 57  1  0
 22 23  1  0
 22 35  1  0
 23 24  1  0
 23 58  1  0
 24 25  1  0
 24 59  1  0
 24 60  1  0
 25 34  1  0
 25 26  2  0
 26 27  1  0
 26 61  1  0
 27 28  2  0
 27 62  1  0
 28 29  1  0
 28 63  1  0
 29 34  2  0
 29 30  1  0
 30 31  2  0
 30 64  1  0
 31 32  1  0
 31 65  1  0
 32 33  1  0
 32 34  1  0
 35 36  2  0
 35 66  1  0
 36 37  1  0
 36 67  1  0
 37 38  1  0
 38 68  1  0
 38 69  1  0
 39 40  1  0
 39 70  1  0
 39 71  1  0
 40 72  1  0
M  CHG  1  15   1
M  END
>  <DOCK_score>  (1) 
-47.106659

>  <SMILES>  (1) 
O=C1CC[C@H](NC(NC2CC=CC2)=[NH+]C2COc3cc(NCc4cccc5cc[nH]c45)ccc3C2)CN1

$$$$
