OC1(C[NH2+]Cc2c[nH]nc2-c2ccc(NCC3=CCCC3)o2)CCCC1
     RDKit          3D

 55 58  0  0  0  0  0  0  0  0999 V2000
  134.9561  137.0596  161.1096 O   0  0  0  0  0  0  0  0  0  0  0  0
  134.0462  138.0767  160.6857 C   0  0  0  0  0  0  0  0  0  0  0  0
  132.6044  137.5974  160.8650 C   0  0  0  0  0  0  0  0  0  0  0  0
  132.3866  136.3882  160.0598 N   0  0  0  0  0  0  0  0  0  0  0  0
  132.5528  136.5976  159.0868 H   0  0  0  0  0  0  0  0  0  0  0  0
  133.0216  135.6644  160.3613 H   0  0  0  0  0  0  0  0  0  0  0  0
  131.0022  135.9281  160.2321 C   0  0  0  0  0  0  0  0  0  0  0  0
  130.7786  134.6875  159.4060 C   0  0  0  0  0  0  0  0  0  0  0  0
  131.6927  134.0814  158.6183 C   0  0  0  0  0  0  0  0  0  0  0  0
  131.1076  133.0042  158.0515 N   0  0  0  0  0  0  0  0  0  0  0  0
  131.5318  132.3827  157.4392 H   0  0  0  0  0  0  0  0  0  0  0  0
  129.7804  132.9431  158.4953 N   0  0  0  0  0  0  0  0  0  0  0  0
  129.5755  133.9565  159.3133 C   0  0  0  0  0  0  0  0  0  0  0  0
  128.3109  134.2706  160.0097 C   0  0  0  0  0  0  0  0  0  0  0  0
  127.1558  133.5598  159.9218 C   0  0  0  0  0  0  0  0  0  0  0  0
  126.2131  134.2097  160.7426 C   0  0  0  0  0  0  0  0  0  0  0  0
  126.8376  135.2824  161.2896 C   0  0  0  0  0  0  0  0  0  0  0  0
  126.2636  136.1966  162.1655 N   0  0  0  0  0  0  0  0  0  0  0  0
  127.1164  137.0316  163.0153 C   0  0  0  0  0  0  0  0  0  0  0  0
  127.3722  136.3233  164.3206 C   0  0  0  0  0  0  0  0  0  0  0  0
  126.8977  135.1467  164.6275 C   0  0  0  0  0  0  0  0  0  0  0  0
  127.3440  134.7231  166.0076 C   0  0  0  0  0  0  0  0  0  0  0  0
  128.5202  135.6672  166.3489 C   0  0  0  0  0  0  0  0  0  0  0  0
  128.2065  136.8847  165.4485 C   0  0  0  0  0  0  0  0  0  0  0  0
  128.1062  135.3093  160.8468 O   0  0  0  0  0  0  0  0  0  0  0  0
  134.2795  139.3667  161.4989 C   0  0  0  0  0  0  0  0  0  0  0  0
  135.2182  140.2146  160.6038 C   0  0  0  0  0  0  0  0  0  0  0  0
  134.6839  139.9276  159.1785 C   0  0  0  0  0  0  0  0  0  0  0  0
  134.3036  138.4328  159.2110 C   0  0  0  0  0  0  0  0  0  0  0  0
  134.8809  136.2330  160.6134 H   0  0  0  0  0  0  0  0  0  0  0  0
  131.9185  138.3793  160.5394 H   0  0  0  0  0  0  0  0  0  0  0  0
  132.4248  137.3713  161.9161 H   0  0  0  0  0  0  0  0  0  0  0  0
  130.8226  135.7018  161.2832 H   0  0  0  0  0  0  0  0  0  0  0  0
  130.3162  136.7100  159.9064 H   0  0  0  0  0  0  0  0  0  0  0  0
  132.7135  134.4010  158.4694 H   0  0  0  0  0  0  0  0  0  0  0  0
  126.9922  132.6676  159.3355 H   0  0  0  0  0  0  0  0  0  0  0  0
  125.1881  133.9109  160.9051 H   0  0  0  0  0  0  0  0  0  0  0  0
  125.2986  136.2815  162.2142 H   0  0  0  0  0  0  0  0  0  0  0  0
  128.0643  137.2153  162.5096 H   0  0  0  0  0  0  0  0  0  0  0  0
  126.6176  137.9813  163.2088 H   0  0  0  0  0  0  0  0  0  0  0  0
  126.2700  134.5531  163.9794 H   0  0  0  0  0  0  0  0  0  0  0  0
  127.6796  133.6861  165.9993 H   0  0  0  0  0  0  0  0  0  0  0  0
  126.5326  134.8532  166.7238 H   0  0  0  0  0  0  0  0  0  0  0  0
  129.4750  135.2164  166.0784 H   0  0  0  0  0  0  0  0  0  0  0  0
  128.5053  135.9457  167.4026 H   0  0  0  0  0  0  0  0  0  0  0  0
  129.1285  137.3171  165.0598 H   0  0  0  0  0  0  0  0  0  0  0  0
  127.6407  137.6334  166.0028 H   0  0  0  0  0  0  0  0  0  0  0  0
  133.3371  139.8885  161.6650 H   0  0  0  0  0  0  0  0  0  0  0  0
  134.7620  139.1368  162.4489 H   0  0  0  0  0  0  0  0  0  0  0  0
  136.2512  139.8812  160.7035 H   0  0  0  0  0  0  0  0  0  0  0  0
  135.1282  141.2740  160.8439 H   0  0  0  0  0  0  0  0  0  0  0  0
  135.4616  140.1073  158.4362 H   0  0  0  0  0  0  0  0  0  0  0  0
  133.8068  140.5399  158.9694 H   0  0  0  0  0  0  0  0  0  0  0  0
  135.1232  137.8305  158.8190 H   0  0  0  0  0  0  0  0  0  0  0  0
  133.4014  138.2643  158.6232 H   0  0  0  0  0  0  0  0  0  0  0  0
  1  2  1  0
  1 30  1  0
  2 29  1  0
  2  3  1  0
  2 26  1  0
  3  4  1  0
  3 31  1  0
  3 32  1  0
  4  5  1  0
  4  6  1  0
  4  7  1  0
  7  8  1  0
  7 33  1  0
  7 34  1  0
  8 13  1  0
  8  9  2  0
  9 10  1  0
  9 35  1  0
 10 11  1  0
 10 12  1  0
 12 13  2  0
 13 14  1  0
 14 25  1  0
 14 15  2  0
 15 16  1  0
 15 36  1  0
 16 17  2  0
 16 37  1  0
 17 18  1  0
 17 25  1  0
 18 19  1  0
 18 38  1  0
 19 20  1  0
 19 39  1  0
 19 40  1  0
 20 24  1  0
 20 21  2  0
 21 22  1  0
 21 41  1  0
 22 23  1  0
 22 42  1  0
 22 43  1  0
 23 24  1  0
 23 44  1  0
 23 45  1  0
 24 46  1  0
 24 47  1  0
 26 27  1  0
 26 48  1  0
 26 49  1  0
 27 28  1  0
 27 50  1  0
 27 51  1  0
 28 29  1  0
 28 52  1  0
 28 53  1  0
 29 54  1  0
 29 55  1  0
M  CHG  1   4   1
M  END
>  <DOCK_score>  (1) 
-45.289707

>  <SMILES>  (1) 
OC1(C[NH2+]Cc2c[nH]nc2-c2ccc(NCC3=CCCC3)o2)CCCC1

$$$$
