COCCOc1ncccc1CNC1=CC[N@@H+](C(c2ccccc2)c2ccccc2)CC1
     RDKit          3D

 64 67  0  0  1  0  0  0  0  0999 V2000
  138.8339  136.0985  166.9471 C   0  0  0  0  0  0  0  0  0  0  0  0
  138.6658  135.7773  165.5649 O   0  0  0  0  0  0  0  0  0  0  0  0
  137.4921  136.3409  164.9758 C   0  0  0  0  0  0  0  0  0  0  0  0
  137.4148  135.9338  163.5031 C   0  0  0  0  0  0  0  0  0  0  0  0
  136.2411  136.4973  162.9140 O   0  0  0  0  0  0  0  0  0  0  0  0
  136.3626  137.7273  162.3543 C   0  0  0  0  0  0  0  0  0  0  0  0
  137.5329  138.3435  162.3743 N   0  0  0  0  0  0  0  0  0  0  0  0
  137.6933  139.5420  161.8467 C   0  0  0  0  0  0  0  0  0  0  0  0
  136.6372  140.1978  161.2455 C   0  0  0  0  0  0  0  0  0  0  0  0
  135.3941  139.5827  161.1989 C   0  0  0  0  0  0  0  0  0  0  0  0
  135.2582  138.3252  161.7613 C   0  0  0  0  0  0  0  0  0  0  0  0
  133.9282  137.6170  161.7359 C   0  0  0  0  0  0  0  0  0  0  0  0
  134.1270  136.2183  161.3482 N   0  0  0  0  0  0  0  0  0  0  0  0
  133.0615  135.4763  160.8544 C   0  0  0  0  0  0  0  0  0  0  0  0
  133.2661  134.2283  160.5149 C   0  0  0  0  0  0  0  0  0  0  0  0
  132.1840  133.3383  159.9745 C   0  0  0  0  0  0  0  0  0  0  0  0
  131.0534  134.1410  159.4940 N   0  0  1  0  0  0  0  0  0  0  0  0
  131.3347  134.6678  158.6806 H   0  0  0  0  0  0  0  0  0  0  0  0
  129.9351  133.2553  159.1436 C   0  0  0  0  0  0  0  0  0  0  0  0
  128.7753  134.0817  158.6505 C   0  0  0  0  0  0  0  0  0  0  0  0
  127.4800  133.6380  158.8412 C   0  0  0  0  0  0  0  0  0  0  0  0
  126.4162  134.3963  158.3894 C   0  0  0  0  0  0  0  0  0  0  0  0
  126.6475  135.5979  157.7464 C   0  0  0  0  0  0  0  0  0  0  0  0
  127.9429  136.0388  157.5505 C   0  0  0  0  0  0  0  0  0  0  0  0
  129.0066  135.2832  158.0072 C   0  0  0  0  0  0  0  0  0  0  0  0
  130.3695  132.3024  158.0600 C   0  0  0  0  0  0  0  0  0  0  0  0
  130.2046  132.6454  156.7311 C   0  0  0  0  0  0  0  0  0  0  0  0
  130.6067  131.7729  155.7371 C   0  0  0  0  0  0  0  0  0  0  0  0
  131.1662  130.5541  156.0720 C   0  0  0  0  0  0  0  0  0  0  0  0
  131.3263  130.2088  157.4010 C   0  0  0  0  0  0  0  0  0  0  0  0
  130.9277  131.0829  158.3950 C   0  0  0  0  0  0  0  0  0  0  0  0
  130.6342  135.0661  160.5589 C   0  0  0  0  0  0  0  0  0  0  0  0
  131.7158  136.1358  160.7298 C   0  0  0  0  0  0  0  0  0  0  0  0
  137.9798  135.7267  167.5131 H   0  0  0  0  0  0  0  0  0  0  0  0
  139.7468  135.6337  167.3196 H   0  0  0  0  0  0  0  0  0  0  0  0
  138.9035  137.1800  167.0629 H   0  0  0  0  0  0  0  0  0  0  0  0
  137.5338  137.4275  165.0509 H   0  0  0  0  0  0  0  0  0  0  0  0
  136.6101  135.9740  165.5009 H   0  0  0  0  0  0  0  0  0  0  0  0
  137.3730  134.8472  163.4281 H   0  0  0  0  0  0  0  0  0  0  0  0
  138.2969  136.3005  162.9780 H   0  0  0  0  0  0  0  0  0  0  0  0
  138.6629  140.0162  161.8852 H   0  0  0  0  0  0  0  0  0  0  0  0
  136.7773  141.1787  160.8157 H   0  0  0  0  0  0  0  0  0  0  0  0
  134.5517  140.0740  160.7348 H   0  0  0  0  0  0  0  0  0  0  0  0
  133.2710  138.1038  161.0155 H   0  0  0  0  0  0  0  0  0  0  0  0
  133.4755  137.6584  162.7268 H   0  0  0  0  0  0  0  0  0  0  0  0
  135.0027  135.8104  161.4361 H   0  0  0  0  0  0  0  0  0  0  0  0
  134.2596  133.8200  160.6274 H   0  0  0  0  0  0  0  0  0  0  0  0
  131.8415  132.6695  160.7642 H   0  0  0  0  0  0  0  0  0  0  0  0
  132.5808  132.7449  159.1506 H   0  0  0  0  0  0  0  0  0  0  0  0
  129.6299  132.6898  160.0239 H   0  0  0  0  0  0  0  0  0  0  0  0
  127.2992  132.6992  159.3435 H   0  0  0  0  0  0  0  0  0  0  0  0
  125.4043  134.0496  158.5382 H   0  0  0  0  0  0  0  0  0  0  0  0
  125.8163  136.1900  157.3930 H   0  0  0  0  0  0  0  0  0  0  0  0
  128.1239  136.9755  157.0443 H   0  0  0  0  0  0  0  0  0  0  0  0
  130.0186  135.6296  157.8579 H   0  0  0  0  0  0  0  0  0  0  0  0
  129.7644  133.5963  156.4694 H   0  0  0  0  0  0  0  0  0  0  0  0
  130.4813  132.0425  154.6988 H   0  0  0  0  0  0  0  0  0  0  0  0
  131.4779  129.8714  155.2954 H   0  0  0  0  0  0  0  0  0  0  0  0
  131.7631  129.2565  157.6627 H   0  0  0  0  0  0  0  0  0  0  0  0
  131.0528  130.8134  159.4332 H   0  0  0  0  0  0  0  0  0  0  0  0
  129.6918  135.5392  160.2827 H   0  0  0  0  0  0  0  0  0  0  0  0
  130.5081  134.5169  161.4920 H   0  0  0  0  0  0  0  0  0  0  0  0
  131.7138  136.7959  159.8622 H   0  0  0  0  0  0  0  0  0  0  0  0
  131.5123  136.7175  161.6288 H   0  0  0  0  0  0  0  0  0  0  0  0
  1  2  1  0
  1 34  1  0
  1 35  1  0
  1 36  1  0
  2  3  1  0
  3  4  1  0
  3 37  1  0
  3 38  1  0
  4  5  1  0
  4 39  1  0
  4 40  1  0
  5  6  1  0
  6 11  2  0
  6  7  1  0
  7  8  2  0
  8  9  1  0
  8 41  1  0
  9 10  2  0
  9 42  1  0
 10 11  1  0
 10 43  1  0
 11 12  1  0
 12 13  1  0
 12 44  1  0
 12 45  1  0
 13 14  1  0
 13 46  1  0
 14 33  1  0
 14 15  2  0
 15 16  1  0
 15 47  1  0
 16 17  1  0
 16 48  1  0
 16 49  1  0
 17 18  1  6
 17 19  1  0
 17 32  1  0
 19 20  1  0
 19 26  1  0
 19 50  1  0
 20 25  1  0
 20 21  2  0
 21 22  1  0
 21 51  1  0
 22 23  2  0
 22 52  1  0
 23 24  1  0
 23 53  1  0
 24 25  2  0
 24 54  1  0
 25 55  1  0
 26 31  1  0
 26 27  2  0
 27 28  1  0
 27 56  1  0
 28 29  2  0
 28 57  1  0
 29 30  1  0
 29 58  1  0
 30 31  2  0
 30 59  1  0
 31 60  1  0
 32 33  1  0
 32 61  1  0
 32 62  1  0
 33 63  1  0
 33 64  1  0
M  CHG  1  17   1
M  END
>  <DOCK_score>  (1) 
-56.855614

>  <SMILES>  (1) 
COCCOc1ncccc1CNC1=CC[N@@H+](C(c2ccccc2)c2ccccc2)CC1

$$$$
