CNC(=[NH2+])N[C@@H]1C[C@@H]1NCc1c[nH]nc1-c1ccc(Nc2ccc(-c3ccc(N)cc3)cc2)o1
     RDKit          3D

 63 67  0  0  1  0  0  0  0  0999 V2000
  134.6019  139.4255  157.7538 C   0  0  0  0  0  0  0  0  0  0  0  0
  133.8053  138.3932  158.4217 N   0  0  0  0  0  0  0  0  0  0  0  0
  133.8606  138.2596  159.7890 C   0  0  0  0  0  0  0  0  0  0  0  0
  134.6217  139.0515  160.4909 N   0  0  0  0  0  0  0  0  0  0  0  0
  135.1490  139.7350  160.0487 H   0  0  0  0  0  0  0  0  0  0  0  0
  134.6607  138.9572  161.4555 H   0  0  0  0  0  0  0  0  0  0  0  0
  133.1132  137.2908  160.4158 N   0  0  0  0  0  0  0  0  0  0  0  0
  133.1723  137.1484  161.8727 C   0  0  2  0  0  0  0  0  0  0  0  0
  132.8658  138.0248  162.4438 H   0  0  0  0  0  0  0  0  0  0  0  0
  134.2930  136.2835  162.4531 C   0  0  0  0  0  0  0  0  0  0  0  0
  132.8504  135.7734  162.4616 C   0  0  2  0  0  0  0  0  0  0  0  0
  132.3324  135.7448  163.4203 H   0  0  0  0  0  0  0  0  0  0  0  0
  132.5059  134.6972  161.5231 N   0  0  0  0  0  0  0  0  0  0  0  0
  131.1062  134.8040  161.0903 C   0  0  0  0  0  0  0  0  0  0  0  0
  130.9170  134.0365  159.8073 C   0  0  0  0  0  0  0  0  0  0  0  0
  131.8714  133.3502  159.1431 C   0  0  0  0  0  0  0  0  0  0  0  0
  131.3059  132.8036  158.0450 N   0  0  0  0  0  0  0  0  0  0  0  0
  131.7591  132.2571  157.3840 H   0  0  0  0  0  0  0  0  0  0  0  0
  129.9509  133.1579  158.0284 N   0  0  0  0  0  0  0  0  0  0  0  0
  129.7109  133.9066  159.0869 C   0  0  0  0  0  0  0  0  0  0  0  0
  128.4088  134.4990  159.4563 C   0  0  0  0  0  0  0  0  0  0  0  0
  127.2505  134.3757  158.7557 C   0  0  0  0  0  0  0  0  0  0  0  0
  126.2669  135.0940  159.4632 C   0  0  0  0  0  0  0  0  0  0  0  0
  126.8714  135.6192  160.5583 C   0  0  0  0  0  0  0  0  0  0  0  0
  126.2562  136.4019  161.5286 N   0  0  0  0  0  0  0  0  0  0  0  0
  126.9963  136.8817  162.6109 C   0  0  0  0  0  0  0  0  0  0  0  0
  126.3750  137.0960  163.8362 C   0  0  0  0  0  0  0  0  0  0  0  0
  127.1039  137.5698  164.9060 C   0  0  0  0  0  0  0  0  0  0  0  0
  128.4656  137.8341  164.7584 C   0  0  0  0  0  0  0  0  0  0  0  0
  129.2518  138.3437  165.9081 C   0  0  0  0  0  0  0  0  0  0  0  0
  130.6087  138.0425  166.0145 C   0  0  0  0  0  0  0  0  0  0  0  0
  131.3362  138.5129  167.0868 C   0  0  0  0  0  0  0  0  0  0  0  0
  130.7203  139.2957  168.0563 C   0  0  0  0  0  0  0  0  0  0  0  0
  131.4604  139.7755  169.1386 N   0  0  0  0  0  0  0  0  0  0  0  0
  129.3683  139.6014  167.9499 C   0  0  0  0  0  0  0  0  0  0  0  0
  128.6356  139.1288  166.8819 C   0  0  0  0  0  0  0  0  0  0  0  0
  129.0846  137.6245  163.5275 C   0  0  0  0  0  0  0  0  0  0  0  0
  128.3534  137.1449  162.4619 C   0  0  0  0  0  0  0  0  0  0  0  0
  128.1667  135.2601  160.5441 O   0  0  0  0  0  0  0  0  0  0  0  0
  135.6592  139.2585  157.9596 H   0  0  0  0  0  0  0  0  0  0  0  0
  134.4292  139.3787  156.6786 H   0  0  0  0  0  0  0  0  0  0  0  0
  134.3101  140.4073  158.1264 H   0  0  0  0  0  0  0  0  0  0  0  0
  133.2390  137.8039  157.8994 H   0  0  0  0  0  0  0  0  0  0  0  0
  132.5469  136.7015  159.8934 H   0  0  0  0  0  0  0  0  0  0  0  0
  134.7237  136.5908  163.4059 H   0  0  0  0  0  0  0  0  0  0  0  0
  134.9863  135.8201  161.7512 H   0  0  0  0  0  0  0  0  0  0  0  0
  132.6913  133.7916  161.9274 H   0  0  0  0  0  0  0  0  0  0  0  0
  130.8553  135.8521  160.9271 H   0  0  0  0  0  0  0  0  0  0  0  0
  130.4553  134.3904  161.8605 H   0  0  0  0  0  0  0  0  0  0  0  0
  132.9061  133.2556  159.4378 H   0  0  0  0  0  0  0  0  0  0  0  0
  127.1109  133.8311  157.8336 H   0  0  0  0  0  0  0  0  0  0  0  0
  125.2289  135.2053  159.1866 H   0  0  0  0  0  0  0  0  0  0  0  0
  125.3129  136.6146  161.4537 H   0  0  0  0  0  0  0  0  0  0  0  0
  125.3207  136.8911  163.9499 H   0  0  0  0  0  0  0  0  0  0  0  0
  126.6209  137.7362  165.8577 H   0  0  0  0  0  0  0  0  0  0  0  0
  131.0887  137.4380  165.2591 H   0  0  0  0  0  0  0  0  0  0  0  0
  132.3867  138.2766  167.1714 H   0  0  0  0  0  0  0  0  0  0  0  0
  132.4036  139.5624  169.2139 H   0  0  0  0  0  0  0  0  0  0  0  0
  131.0311  140.3218  169.8157 H   0  0  0  0  0  0  0  0  0  0  0  0
  128.8917  140.2099  168.7043 H   0  0  0  0  0  0  0  0  0  0  0  0
  127.5853  139.3664  166.7999 H   0  0  0  0  0  0  0  0  0  0  0  0
  130.1378  137.8330  163.4101 H   0  0  0  0  0  0  0  0  0  0  0  0
  128.8340  136.9777  161.5093 H   0  0  0  0  0  0  0  0  0  0  0  0
  1  2  1  0
  1 40  1  0
  1 41  1  0
  1 42  1  0
  2  3  1  0
  2 43  1  0
  3  4  2  0
  3  7  1  0
  4  5  1  0
  4  6  1  0
  7  8  1  0
  7 44  1  0
  8  9  1  1
  8 11  1  0
  8 10  1  0
 10 11  1  0
 10 45  1  0
 10 46  1  0
 11 12  1  1
 11 13  1  0
 13 14  1  0
 13 47  1  0
 14 15  1  0
 14 48  1  0
 14 49  1  0
 15 20  1  0
 15 16  2  0
 16 17  1  0
 16 50  1  0
 17 18  1  0
 17 19  1  0
 19 20  2  0
 20 21  1  0
 21 39  1  0
 21 22  2  0
 22 23  1  0
 22 51  1  0
 23 24  2  0
 23 52  1  0
 24 25  1  0
 24 39  1  0
 25 26  1  0
 25 53  1  0
 26 38  1  0
 26 27  2  0
 27 28  1  0
 27 54  1  0
 28 29  2  0
 28 55  1  0
 29 30  1  0
 29 37  1  0
 30 36  1  0
 30 31  2  0
 31 32  1  0
 31 56  1  0
 32 33  2  0
 32 57  1  0
 33 34  1  0
 33 35  1  0
 34 58  1  0
 34 59  1  0
 35 36  2  0
 35 60  1  0
 36 61  1  0
 37 38  2  0
 37 62  1  0
 38 63  1  0
M  CHG  1   4   1
M  END
>  <DOCK_score>  (1) 
-48.71151

>  <SMILES>  (1) 
CNC(=[NH2+])N[C@@H]1C[C@@H]1NCc1c[nH]nc1-c1ccc(Nc2ccc(-c3ccc(N)cc3)cc2)o1

$$$$
