C[C@@H](Nc1[nH]cc(-c2ccc(F)cc2)[nH+]1)c1cnn(Cc2ccccc2)c1
     RDKit          3D

 48 51  0  0  1  0  0  0  0  0999 V2000
  128.0148  135.7394  159.1860 C   0  0  0  0  0  0  0  0  0  0  0  0
  129.4343  135.2053  159.3882 C   0  0  1  0  0  0  0  0  0  0  0  0
  129.3940  134.2666  159.9406 H   0  0  0  0  0  0  0  0  0  0  0  0
  130.0608  134.9777  158.0835 N   0  0  0  0  0  0  0  0  0  0  0  0
  129.9354  133.7477  157.4607 C   0  0  0  0  0  0  0  0  0  0  0  0
  129.2546  132.6765  157.9513 N   0  0  0  0  0  0  0  0  0  0  0  0
  128.7745  132.6373  158.7932 H   0  0  0  0  0  0  0  0  0  0  0  0
  129.3736  131.6600  157.0342 C   0  0  0  0  0  0  0  0  0  0  0  0
  130.1230  132.1394  156.0108 C   0  0  0  0  0  0  0  0  0  0  0  0
  130.5133  131.3924  154.7900 C   0  0  0  0  0  0  0  0  0  0  0  0
  130.1227  131.8530  153.5339 C   0  0  0  0  0  0  0  0  0  0  0  0
  130.4930  131.1582  152.4008 C   0  0  0  0  0  0  0  0  0  0  0  0
  131.2423  129.9979  152.5111 C   0  0  0  0  0  0  0  0  0  0  0  0
  131.5984  129.3177  151.3995 F   0  0  0  0  0  0  0  0  0  0  0  0
  131.6280  129.5335  153.7578 C   0  0  0  0  0  0  0  0  0  0  0  0
  131.2671  130.2250  154.8960 C   0  0  0  0  0  0  0  0  0  0  0  0
  130.4480  133.4248  156.2984 N   0  0  0  0  0  0  0  0  0  0  0  0
  130.9776  134.0105  155.7350 H   0  0  0  0  0  0  0  0  0  0  0  0
  130.2435  136.2113  160.1653 C   0  0  0  0  0  0  0  0  0  0  0  0
  130.8559  135.9947  161.4040 C   0  0  0  0  0  0  0  0  0  0  0  0
  131.4642  137.0977  161.7577 N   0  0  0  0  0  0  0  0  0  0  0  0
  131.2579  138.0526  160.7538 N   0  0  0  0  0  0  0  0  0  0  0  0
  131.7726  139.4241  160.7499 C   0  0  0  0  0  0  0  0  0  0  0  0
  133.1250  139.4513  160.0853 C   0  0  0  0  0  0  0  0  0  0  0  0
  134.2698  139.2757  160.8400 C   0  0  0  0  0  0  0  0  0  0  0  0
  135.5098  139.2958  160.2296 C   0  0  0  0  0  0  0  0  0  0  0  0
  135.6059  139.5018  158.8662 C   0  0  0  0  0  0  0  0  0  0  0  0
  134.4613  139.6828  158.1123 C   0  0  0  0  0  0  0  0  0  0  0  0
  133.2210  139.6575  158.7218 C   0  0  0  0  0  0  0  0  0  0  0  0
  130.5060  137.4841  159.7881 C   0  0  0  0  0  0  0  0  0  0  0  0
  127.4295  135.0118  158.6238 H   0  0  0  0  0  0  0  0  0  0  0  0
  127.5487  135.9087  160.1566 H   0  0  0  0  0  0  0  0  0  0  0  0
  128.0551  136.6782  158.6335 H   0  0  0  0  0  0  0  0  0  0  0  0
  130.5634  135.6888  157.6562 H   0  0  0  0  0  0  0  0  0  0  0  0
  128.9508  130.6693  157.1131 H   0  0  0  0  0  0  0  0  0  0  0  0
  129.5348  132.7548  153.4474 H   0  0  0  0  0  0  0  0  0  0  0  0
  130.1947  131.5169  151.4268 H   0  0  0  0  0  0  0  0  0  0  0  0
  132.2118  128.6285  153.8392 H   0  0  0  0  0  0  0  0  0  0  0  0
  131.5685  129.8622  155.8677 H   0  0  0  0  0  0  0  0  0  0  0  0
  130.8307  135.0756  161.9707 H   0  0  0  0  0  0  0  0  0  0  0  0
  131.0855  140.0686  160.2017 H   0  0  0  0  0  0  0  0  0  0  0  0
  131.8648  139.7806  161.7759 H   0  0  0  0  0  0  0  0  0  0  0  0
  134.1949  139.1190  161.9060 H   0  0  0  0  0  0  0  0  0  0  0  0
  136.4040  139.1548  160.8188 H   0  0  0  0  0  0  0  0  0  0  0  0
  136.5749  139.5221  158.3900 H   0  0  0  0  0  0  0  0  0  0  0  0
  134.5364  139.8441  157.0469 H   0  0  0  0  0  0  0  0  0  0  0  0
  132.3268  139.7991  158.1328 H   0  0  0  0  0  0  0  0  0  0  0  0
  130.1736  137.9597  158.8772 H   0  0  0  0  0  0  0  0  0  0  0  0
  1  2  1  0
  1 31  1  0
  1 32  1  0
  1 33  1  0
  2  3  1  1
  2  4  1  0
  2 19  1  0
  4 34  1  0
  5  4  1  0
  5 17  2  0
  5  6  1  0
  6  7  1  0
  6  8  1  0
  8  9  2  0
  8 35  1  0
  9 10  1  0
  9 17  1  0
 10 16  1  0
 10 11  2  0
 11 12  1  0
 11 36  1  0
 12 13  2  0
 12 37  1  0
 13 14  1  0
 13 15  1  0
 15 16  2  0
 15 38  1  0
 16 39  1  0
 17 18  1  0
 19 30  2  0
 19 20  1  0
 20 21  2  0
 20 40  1  0
 21 22  1  0
 22 23  1  0
 22 30  1  0
 23 24  1  0
 23 41  1  0
 23 42  1  0
 24 29  1  0
 24 25  2  0
 25 26  1  0
 25 43  1  0
 26 27  2  0
 26 44  1  0
 27 28  1  0
 27 45  1  0
 28 29  2  0
 28 46  1  0
 29 47  1  0
 30 48  1  0
M  CHG  1  17   1
M  END
>  <DOCK_score>  (1) 
-59.009407

>  <SMILES>  (1) 
C[C@@H](Nc1[nH]cc(-c2ccc(F)cc2)[nH+]1)c1cnn(Cc2ccccc2)c1

$$$$
