[NH3+][C@@H](C(=O)Nc1cccc(O)c1)c1cccc(NCC=CC2CC2)c1
     RDKit          3D

 49 51  0  0  1  0  0  0  0  0999 V2000
  131.5794  132.6700  158.4653 N   0  0  0  0  0  0  0  0  0  0  0  0
  131.1143  132.3877  157.6154 H   0  0  0  0  0  0  0  0  0  0  0  0
  132.4927  133.0368  158.2428 H   0  0  0  0  0  0  0  0  0  0  0  0
  131.6767  131.8730  159.0762 H   0  0  0  0  0  0  0  0  0  0  0  0
  130.7852  133.7077  159.1365 C   0  0  1  0  0  0  0  0  0  0  0  0
  130.6802  134.5687  158.4765 H   0  0  0  0  0  0  0  0  0  0  0  0
  129.4212  133.1599  159.4686 C   0  0  0  0  0  0  0  0  0  0  0  0
  129.2819  131.9770  159.6978 O   0  0  0  0  0  0  0  0  0  0  0  0
  128.3558  133.9844  159.5108 N   0  0  0  0  0  0  0  0  0  0  0  0
  127.0893  133.4758  159.8191 C   0  0  0  0  0  0  0  0  0  0  0  0
  126.7647  132.1673  159.4835 C   0  0  0  0  0  0  0  0  0  0  0  0
  125.5144  131.6653  159.7877 C   0  0  0  0  0  0  0  0  0  0  0  0
  124.5857  132.4604  160.4323 C   0  0  0  0  0  0  0  0  0  0  0  0
  124.9024  133.7699  160.7647 C   0  0  0  0  0  0  0  0  0  0  0  0
  123.9862  134.5525  161.3931 O   0  0  0  0  0  0  0  0  0  0  0  0
  126.1561  134.2774  160.4607 C   0  0  0  0  0  0  0  0  0  0  0  0
  131.4799  134.1294  160.4057 C   0  0  0  0  0  0  0  0  0  0  0  0
  131.2047  133.4763  161.5934 C   0  0  0  0  0  0  0  0  0  0  0  0
  131.8439  133.8561  162.7590 C   0  0  0  0  0  0  0  0  0  0  0  0
  132.7515  134.8973  162.7431 C   0  0  0  0  0  0  0  0  0  0  0  0
  133.0258  135.5590  161.5531 C   0  0  0  0  0  0  0  0  0  0  0  0
  133.9427  136.6125  161.5333 N   0  0  0  0  0  0  0  0  0  0  0  0
  134.6162  137.0207  162.7688 C   0  0  0  0  0  0  0  0  0  0  0  0
  135.5470  138.1695  162.4773 C   0  0  0  0  0  0  0  0  0  0  0  0
  135.3782  139.3190  163.0827 C   0  0  0  0  0  0  0  0  0  0  0  0
  136.3089  140.4679  162.7914 C   0  0  0  0  0  0  0  0  0  0  0  0
  136.1898  141.7141  163.6709 C   0  0  0  0  0  0  0  0  0  0  0  0
  135.6940  141.7488  162.2239 C   0  0  0  0  0  0  0  0  0  0  0  0
  132.3860  135.1710  160.3826 C   0  0  0  0  0  0  0  0  0  0  0  0
  128.4672  134.9304  159.3276 H   0  0  0  0  0  0  0  0  0  0  0  0
  127.4903  131.5424  158.9840 H   0  0  0  0  0  0  0  0  0  0  0  0
  125.2637  130.6479  159.5256 H   0  0  0  0  0  0  0  0  0  0  0  0
  123.6106  132.0634  160.6735 H   0  0  0  0  0  0  0  0  0  0  0  0
  124.2979  135.4478  161.5834 H   0  0  0  0  0  0  0  0  0  0  0  0
  126.4058  135.2951  160.7224 H   0  0  0  0  0  0  0  0  0  0  0  0
  130.4919  132.6650  161.6096 H   0  0  0  0  0  0  0  0  0  0  0  0
  131.6301  133.3413  163.6840 H   0  0  0  0  0  0  0  0  0  0  0  0
  133.2469  135.1967  163.6548 H   0  0  0  0  0  0  0  0  0  0  0  0
  134.1335  137.0739  160.7017 H   0  0  0  0  0  0  0  0  0  0  0  0
  133.8725  137.3325  163.5020 H   0  0  0  0  0  0  0  0  0  0  0  0
  135.1879  136.1815  163.1652 H   0  0  0  0  0  0  0  0  0  0  0  0
  136.3532  138.0452  161.7696 H   0  0  0  0  0  0  0  0  0  0  0  0
  134.5720  139.4433  163.7906 H   0  0  0  0  0  0  0  0  0  0  0  0
  137.3038  140.1901  162.4435 H   0  0  0  0  0  0  0  0  0  0  0  0
  135.4382  141.7030  164.4603 H   0  0  0  0  0  0  0  0  0  0  0  0
  137.1065  142.2565  163.9020 H   0  0  0  0  0  0  0  0  0  0  0  0
  136.2846  142.3140  161.5030 H   0  0  0  0  0  0  0  0  0  0  0  0
  134.6163  141.7604  162.0609 H   0  0  0  0  0  0  0  0  0  0  0  0
  132.5968  135.6835  159.4557 H   0  0  0  0  0  0  0  0  0  0  0  0
  1  2  1  0
  1  3  1  0
  1  4  1  0
  1  5  1  0
  5  6  1  6
  5  7  1  0
  5 17  1  0
  7  8  2  0
  7  9  1  0
  9 10  1  0
  9 30  1  0
 10 16  1  0
 10 11  2  0
 11 12  1  0
 11 31  1  0
 12 13  2  0
 12 32  1  0
 13 14  1  0
 13 33  1  0
 14 15  1  0
 14 16  2  0
 15 34  1  0
 16 35  1  0
 17 29  1  0
 17 18  2  0
 18 19  1  0
 18 36  1  0
 19 20  2  0
 19 37  1  0
 20 21  1  0
 20 38  1  0
 21 22  1  0
 21 29  2  0
 22 23  1  0
 22 39  1  0
 23 24  1  0
 23 40  1  0
 23 41  1  0
 24 25  2  0
 24 42  1  0
 25 26  1  0
 25 43  1  0
 26 28  1  0
 26 27  1  0
 26 44  1  0
 27 28  1  0
 27 45  1  0
 27 46  1  0
 28 47  1  0
 28 48  1  0
 29 49  1  0
M  CHG  1   1   1
M  END
>  <DOCK_score>  (1) 
-40.918438

>  <SMILES>  (1) 
[NH3+][C@@H](C(=O)Nc1cccc(O)c1)c1cccc(NCC=CC2CC2)c1

$$$$
