CC(=O)Nc1ccc(-c2ccccc2[C@H](O)CNC2=[NH+]CCCN2)s1
     RDKit          3D

 48 50  0  0  1  0  0  0  0  0999 V2000
  124.6790  134.3723  161.0583 C   0  0  0  0  0  0  0  0  0  0  0  0
  126.0223  135.0250  160.8577 C   0  0  0  0  0  0  0  0  0  0  0  0
  126.8283  134.5329  160.0963 O   0  0  0  0  0  0  0  0  0  0  0  0
  126.3283  136.1558  161.5242 N   0  0  0  0  0  0  0  0  0  0  0  0
  127.5719  136.7600  161.3386 C   0  0  0  0  0  0  0  0  0  0  0  0
  127.9825  137.8878  161.9436 C   0  0  0  0  0  0  0  0  0  0  0  0
  129.2544  138.2984  161.6047 C   0  0  0  0  0  0  0  0  0  0  0  0
  129.8875  137.5038  160.7190 C   0  0  0  0  0  0  0  0  0  0  0  0
  131.2517  137.7266  160.1982 C   0  0  0  0  0  0  0  0  0  0  0  0
  131.5529  138.8969  159.4984 C   0  0  0  0  0  0  0  0  0  0  0  0
  132.8288  139.0983  159.0146 C   0  0  0  0  0  0  0  0  0  0  0  0
  133.8092  138.1436  159.2212 C   0  0  0  0  0  0  0  0  0  0  0  0
  133.5178  136.9820  159.9137 C   0  0  0  0  0  0  0  0  0  0  0  0
  132.2457  136.7678  160.4032 C   0  0  0  0  0  0  0  0  0  0  0  0
  131.9316  135.5045  161.1626 C   0  0  2  0  0  0  0  0  0  0  0  0
  130.8863  135.5166  161.4713 H   0  0  0  0  0  0  0  0  0  0  0  0
  132.7686  135.4226  162.3178 O   0  0  0  0  0  0  0  0  0  0  0  0
  132.1837  134.2927  160.2631 C   0  0  0  0  0  0  0  0  0  0  0  0
  131.3255  134.3766  159.0788 N   0  0  0  0  0  0  0  0  0  0  0  0
  130.4177  133.3867  158.8204 C   0  0  0  0  0  0  0  0  0  0  0  0
  130.1000  133.1351  157.5593 N   0  0  0  0  0  0  0  0  0  0  0  0
  130.5132  133.6569  156.8537 H   0  0  0  0  0  0  0  0  0  0  0  0
  129.1443  132.0845  157.2055 C   0  0  0  0  0  0  0  0  0  0  0  0
  128.1395  131.9184  158.3512 C   0  0  0  0  0  0  0  0  0  0  0  0
  128.9195  131.6541  159.6441 C   0  0  0  0  0  0  0  0  0  0  0  0
  129.8938  132.7281  159.8432 N   0  0  0  0  0  0  0  0  0  0  0  0
  128.8376  136.1654  160.2723 S   0  0  0  0  0  0  0  0  0  0  0  0
  123.8904  135.0683  160.7721 H   0  0  0  0  0  0  0  0  0  0  0  0
  124.6145  133.4764  160.4409 H   0  0  0  0  0  0  0  0  0  0  0  0
  124.5603  134.1001  162.1070 H   0  0  0  0  0  0  0  0  0  0  0  0
  125.6839  136.5495  162.1330 H   0  0  0  0  0  0  0  0  0  0  0  0
  127.3633  138.4310  162.6422 H   0  0  0  0  0  0  0  0  0  0  0  0
  129.7080  139.1878  162.0167 H   0  0  0  0  0  0  0  0  0  0  0  0
  130.7889  139.6428  159.3367 H   0  0  0  0  0  0  0  0  0  0  0  0
  133.0630  140.0027  158.4729 H   0  0  0  0  0  0  0  0  0  0  0  0
  134.8064  138.3063  158.8399 H   0  0  0  0  0  0  0  0  0  0  0  0
  134.2876  136.2414  160.0718 H   0  0  0  0  0  0  0  0  0  0  0  0
  133.7146  135.4076  162.1179 H   0  0  0  0  0  0  0  0  0  0  0  0
  133.2290  134.2805  159.9544 H   0  0  0  0  0  0  0  0  0  0  0  0
  131.9563  133.3790  160.8124 H   0  0  0  0  0  0  0  0  0  0  0  0
  131.4013  135.1342  158.4778 H   0  0  0  0  0  0  0  0  0  0  0  0
  129.6725  131.1447  157.0447 H   0  0  0  0  0  0  0  0  0  0  0  0
  128.6155  132.3658  156.2948 H   0  0  0  0  0  0  0  0  0  0  0  0
  127.4799  131.0762  158.1417 H   0  0  0  0  0  0  0  0  0  0  0  0
  127.5503  132.8292  158.4576 H   0  0  0  0  0  0  0  0  0  0  0  0
  129.4399  130.6995  159.5672 H   0  0  0  0  0  0  0  0  0  0  0  0
  128.2291  131.6273  160.4872 H   0  0  0  0  0  0  0  0  0  0  0  0
  130.1618  132.9634  160.7453 H   0  0  0  0  0  0  0  0  0  0  0  0
  1  2  1  0
  1 28  1  0
  1 29  1  0
  1 30  1  0
  2  3  2  0
  2  4  1  0
  4  5  1  0
  4 31  1  0
  5 27  1  0
  5  6  2  0
  6  7  1  0
  6 32  1  0
  7  8  2  0
  7 33  1  0
  8  9  1  0
  8 27  1  0
  9 14  1  0
  9 10  2  0
 10 11  1  0
 10 34  1  0
 11 12  2  0
 11 35  1  0
 12 13  1  0
 12 36  1  0
 13 14  2  0
 13 37  1  0
 14 15  1  0
 15 16  1  1
 15 17  1  0
 15 18  1  0
 17 38  1  0
 18 19  1  0
 18 39  1  0
 18 40  1  0
 19 20  1  0
 19 41  1  0
 20 26  2  0
 20 21  1  0
 21 22  1  0
 21 23  1  0
 23 24  1  0
 23 42  1  0
 23 43  1  0
 24 25  1  0
 24 44  1  0
 24 45  1  0
 25 26  1  0
 25 46  1  0
 25 47  1  0
 26 48  1  0
M  CHG  1  26   1
M  END
>  <DOCK_score>  (1) 
-43.251984

>  <SMILES>  (1) 
CC(=O)Nc1ccc(-c2ccccc2[C@H](O)CNC2=[NH+]CCCN2)s1

$$$$
