[NH3+][C@@H](C(=O)Nc1cccc(O)c1)c1cccc(Oc2cccc3c2NC(=O)CO3)c1
     RDKit          3D

 50 53  0  0  1  0  0  0  0  0999 V2000
  130.6251  134.0730  157.5201 N   0  0  0  0  0  0  0  0  0  0  0  0
  130.0178  134.2554  156.7353 H   0  0  0  0  0  0  0  0  0  0  0  0
  131.5320  134.4790  157.3450 H   0  0  0  0  0  0  0  0  0  0  0  0
  130.7215  133.0766  157.6465 H   0  0  0  0  0  0  0  0  0  0  0  0
  130.0486  134.6671  158.7337 C   0  0  1  0  0  0  0  0  0  0  0  0
  129.9445  135.7435  158.5971 H   0  0  0  0  0  0  0  0  0  0  0  0
  128.6939  134.0608  158.9951 C   0  0  0  0  0  0  0  0  0  0  0  0
  128.2522  133.2166  158.2443 O   0  0  0  0  0  0  0  0  0  0  0  0
  127.9732  134.4563  160.0630 N   0  0  0  0  0  0  0  0  0  0  0  0
  126.7155  133.8933  160.3056 C   0  0  0  0  0  0  0  0  0  0  0  0
  126.4498  132.5882  159.9103 C   0  0  0  0  0  0  0  0  0  0  0  0
  125.2082  132.0324  160.1498 C   0  0  0  0  0  0  0  0  0  0  0  0
  124.2294  132.7702  160.7887 C   0  0  0  0  0  0  0  0  0  0  0  0
  124.4874  134.0761  161.1805 C   0  0  0  0  0  0  0  0  0  0  0  0
  123.5222  134.8024  161.8032 O   0  0  0  0  0  0  0  0  0  0  0  0
  125.7321  134.6376  160.9416 C   0  0  0  0  0  0  0  0  0  0  0  0
  130.9556  134.3947  159.9059 C   0  0  0  0  0  0  0  0  0  0  0  0
  130.7820  133.2502  160.6625 C   0  0  0  0  0  0  0  0  0  0  0  0
  131.6154  132.9950  161.7355 C   0  0  0  0  0  0  0  0  0  0  0  0
  132.6176  133.8884  162.0613 C   0  0  0  0  0  0  0  0  0  0  0  0
  132.7905  135.0401  161.3071 C   0  0  0  0  0  0  0  0  0  0  0  0
  133.7751  135.9208  161.6257 O   0  0  0  0  0  0  0  0  0  0  0  0
  133.9349  136.2536  162.9342 C   0  0  0  0  0  0  0  0  0  0  0  0
  132.8971  136.8555  163.6320 C   0  0  0  0  0  0  0  0  0  0  0  0
  133.0579  137.1885  164.9636 C   0  0  0  0  0  0  0  0  0  0  0  0
  134.2562  136.9354  165.6068 C   0  0  0  0  0  0  0  0  0  0  0  0
  135.2993  136.3403  164.9173 C   0  0  0  0  0  0  0  0  0  0  0  0
  135.1396  135.9979  163.5769 C   0  0  0  0  0  0  0  0  0  0  0  0
  136.2062  135.3963  162.8900 N   0  0  0  0  0  0  0  0  0  0  0  0
  137.2323  134.8784  163.6000 C   0  0  0  0  0  0  0  0  0  0  0  0
  138.1789  134.3803  163.0277 O   0  0  0  0  0  0  0  0  0  0  0  0
  137.1956  134.9217  165.1064 C   0  0  0  0  0  0  0  0  0  0  0  0
  136.4827  136.0844  165.5365 O   0  0  0  0  0  0  0  0  0  0  0  0
  131.9559  135.2913  160.2271 C   0  0  0  0  0  0  0  0  0  0  0  0
  128.3265  135.1313  160.6635 H   0  0  0  0  0  0  0  0  0  0  0  0
  127.2143  132.0079  159.4152 H   0  0  0  0  0  0  0  0  0  0  0  0
  125.0033  131.0179  159.8415 H   0  0  0  0  0  0  0  0  0  0  0  0
  123.2612  132.3313  160.9792 H   0  0  0  0  0  0  0  0  0  0  0  0
  123.7952  135.7000  162.0377 H   0  0  0  0  0  0  0  0  0  0  0  0
  125.9361  135.6524  161.2495 H   0  0  0  0  0  0  0  0  0  0  0  0
  129.9966  132.5525  160.4120 H   0  0  0  0  0  0  0  0  0  0  0  0
  131.4802  132.0984  162.3223 H   0  0  0  0  0  0  0  0  0  0  0  0
  133.2655  133.6909  162.9025 H   0  0  0  0  0  0  0  0  0  0  0  0
  131.9607  137.0601  163.1345 H   0  0  0  0  0  0  0  0  0  0  0  0
  132.2458  137.6530  165.5033 H   0  0  0  0  0  0  0  0  0  0  0  0
  134.3783  137.2021  166.6461 H   0  0  0  0  0  0  0  0  0  0  0  0
  136.2064  135.3533  161.9209 H   0  0  0  0  0  0  0  0  0  0  0  0
  138.2139  134.9567  165.4935 H   0  0  0  0  0  0  0  0  0  0  0  0
  136.6952  134.0294  165.4829 H   0  0  0  0  0  0  0  0  0  0  0  0
  132.0882  136.1872  159.6387 H   0  0  0  0  0  0  0  0  0  0  0  0
  1  2  1  0
  1  3  1  0
  1  4  1  0
  1  5  1  0
  5  6  1  6
  5  7  1  0
  5 17  1  0
  7  8  2  0
  7  9  1  0
  9 10  1  0
  9 35  1  0
 10 16  1  0
 10 11  2  0
 11 12  1  0
 11 36  1  0
 12 13  2  0
 12 37  1  0
 13 14  1  0
 13 38  1  0
 14 15  1  0
 14 16  2  0
 15 39  1  0
 16 40  1  0
 17 34  1  0
 17 18  2  0
 18 19  1  0
 18 41  1  0
 19 20  2  0
 19 42  1  0
 20 21  1  0
 20 43  1  0
 21 22  1  0
 21 34  2  0
 22 23  1  0
 23 28  1  0
 23 24  2  0
 24 25  1  0
 24 44  1  0
 25 26  2  0
 25 45  1  0
 26 27  1  0
 26 46  1  0
 27 33  1  0
 27 28  2  0
 28 29  1  0
 29 30  1  0
 29 47  1  0
 30 31  2  0
 30 32  1  0
 32 33  1  0
 32 48  1  0
 32 49  1  0
 34 50  1  0
M  CHG  1   1   1
M  END
>  <DOCK_score>  (1) 
-48.669418

>  <SMILES>  (1) 
[NH3+][C@@H](C(=O)Nc1cccc(O)c1)c1cccc(Oc2cccc3c2NC(=O)CO3)c1

$$$$
