C[C@H](CC1=CCC1)NC(NC1CCC(=O)NC1)=[NH+]C1COc2cc(Cl)ccc2C1
     RDKit          3D

 59 62  0  0  1  0  0  0  0  0999 V2000
  129.4211  136.7135  158.1444 C   0  0  0  0  0  0  0  0  0  0  0  0
  129.4955  135.2910  158.7027 C   0  0  2  0  0  0  0  0  0  0  0  0
  130.4181  134.8170  158.3676 H   0  0  0  0  0  0  0  0  0  0  0  0
  128.2963  134.4834  158.2025 C   0  0  0  0  0  0  0  0  0  0  0  0
  128.5974  133.0115  158.3205 C   0  0  0  0  0  0  0  0  0  0  0  0
  128.4297  132.0994  159.2472 C   0  0  0  0  0  0  0  0  0  0  0  0
  129.0146  130.9185  158.5146 C   0  0  0  0  0  0  0  0  0  0  0  0
  129.2239  131.9729  157.4250 C   0  0  0  0  0  0  0  0  0  0  0  0
  129.4753  135.3393  160.1668 N   0  0  0  0  0  0  0  0  0  0  0  0
  130.4616  136.0148  160.8461 C   0  0  0  0  0  0  0  0  0  0  0  0
  130.4425  136.0600  162.2200 N   0  0  0  0  0  0  0  0  0  0  0  0
  129.1657  136.0119  162.9368 C   0  0  1  0  0  0  0  0  0  0  0  0
  129.4200  136.0936  164.4469 C   0  0  0  0  0  0  0  0  0  0  0  0
  128.0940  135.8581  165.1743 C   0  0  0  0  0  0  0  0  0  0  0  0
  127.0229  136.7252  164.5774 C   0  0  0  0  0  0  0  0  0  0  0  0
  126.0113  136.9121  165.2199 O   0  0  0  0  0  0  0  0  0  0  0  0
  127.1247  137.3009  163.3789 N   0  0  0  0  0  0  0  0  0  0  0  0
  128.2973  137.1990  162.5181 C   0  0  0  0  0  0  0  0  0  0  0  0
  131.4147  136.6121  160.1875 N   0  0  0  0  0  0  0  0  0  0  0  0
  131.7040  136.2632  159.3298 H   0  0  0  0  0  0  0  0  0  0  0  0
  132.0488  137.8106  160.7423 C   0  0  2  0  0  0  0  0  0  0  0  0
  132.5526  138.7041  159.6016 C   0  0  0  0  0  0  0  0  0  0  0  0
  133.0710  139.9082  160.1684 O   0  0  0  0  0  0  0  0  0  0  0  0
  133.9462  139.7983  161.2015 C   0  0  0  0  0  0  0  0  0  0  0  0
  134.7307  140.9003  161.5268 C   0  0  0  0  0  0  0  0  0  0  0  0
  135.6294  140.8288  162.5728 C   0  0  0  0  0  0  0  0  0  0  0  0
  136.6068  142.2062  162.9743 Cl  0  0  0  0  0  0  0  0  0  0  0  0
  135.7503  139.6577  163.3007 C   0  0  0  0  0  0  0  0  0  0  0  0
  134.9736  138.5624  162.9790 C   0  0  0  0  0  0  0  0  0  0  0  0
  134.0721  138.6279  161.9293 C   0  0  0  0  0  0  0  0  0  0  0  0
  133.2489  137.4077  161.6031 C   0  0  0  0  0  0  0  0  0  0  0  0
  130.1272  137.3504  158.6772 H   0  0  0  0  0  0  0  0  0  0  0  0
  129.6719  136.7012  157.0837 H   0  0  0  0  0  0  0  0  0  0  0  0
  128.4113  137.1024  158.2744 H   0  0  0  0  0  0  0  0  0  0  0  0
  127.4197  134.7243  158.8039 H   0  0  0  0  0  0  0  0  0  0  0  0
  128.1007  134.7316  157.1593 H   0  0  0  0  0  0  0  0  0  0  0  0
  128.0016  132.1719  160.2361 H   0  0  0  0  0  0  0  0  0  0  0  0
  128.2954  130.1407  158.2579 H   0  0  0  0  0  0  0  0  0  0  0  0
  129.9353  130.5313  158.9510 H   0  0  0  0  0  0  0  0  0  0  0  0
  128.6439  131.7784  156.5228 H   0  0  0  0  0  0  0  0  0  0  0  0
  130.2748  132.1680  157.2117 H   0  0  0  0  0  0  0  0  0  0  0  0
  128.7660  134.8951  160.6570 H   0  0  0  0  0  0  0  0  0  0  0  0
  131.2743  136.1239  162.7148 H   0  0  0  0  0  0  0  0  0  0  0  0
  128.6498  135.0808  162.7027 H   0  0  0  0  0  0  0  0  0  0  0  0
  130.1399  135.3292  164.7396 H   0  0  0  0  0  0  0  0  0  0  0  0
  129.8078  137.0801  164.7008 H   0  0  0  0  0  0  0  0  0  0  0  0
  127.8084  134.8108  165.0764 H   0  0  0  0  0  0  0  0  0  0  0  0
  128.2112  136.1046  166.2296 H   0  0  0  0  0  0  0  0  0  0  0  0
  126.3697  137.8186  163.0575 H   0  0  0  0  0  0  0  0  0  0  0  0
  128.8798  138.1169  162.5965 H   0  0  0  0  0  0  0  0  0  0  0  0
  127.9785  137.0653  161.4845 H   0  0  0  0  0  0  0  0  0  0  0  0
  131.3292  138.3601  161.3492 H   0  0  0  0  0  0  0  0  0  0  0  0
  131.7283  138.9401  158.9287 H   0  0  0  0  0  0  0  0  0  0  0  0
  133.3400  138.1884  159.0518 H   0  0  0  0  0  0  0  0  0  0  0  0
  134.6368  141.8143  160.9592 H   0  0  0  0  0  0  0  0  0  0  0  0
  136.4520  139.6006  164.1196 H   0  0  0  0  0  0  0  0  0  0  0  0
  135.0695  137.6497  163.5484 H   0  0  0  0  0  0  0  0  0  0  0  0
  133.8626  136.6914  161.0572 H   0  0  0  0  0  0  0  0  0  0  0  0
  132.8945  136.9516  162.5274 H   0  0  0  0  0  0  0  0  0  0  0  0
  1  2  1  0
  1 32  1  0
  1 33  1  0
  1 34  1  0
  2  3  1  1
  2  4  1  0
  2  9  1  0
  4  5  1  0
  4 35  1  0
  4 36  1  0
  5  8  1  0
  5  6  2  0
  6  7  1  0
  6 37  1  0
  7  8  1  0
  7 38  1  0
  7 39  1  0
  8 40  1  0
  8 41  1  0
  9 42  1  0
 10  9  1  0
 10 11  1  0
 10 19  2  0
 11 12  1  0
 11 43  1  0
 12 18  1  0
 12 13  1  0
 12 44  1  1
 13 14  1  0
 13 45  1  0
 13 46  1  0
 14 15  1  0
 14 47  1  0
 14 48  1  0
 15 16  2  0
 15 17  1  0
 17 18  1  0
 17 49  1  0
 18 50  1  0
 18 51  1  0
 19 20  1  0
 19 21  1  0
 21 31  1  0
 21 22  1  0
 21 52  1  1
 22 23  1  0
 22 53  1  0
 22 54  1  0
 23 24  1  0
 24 30  2  0
 24 25  1  0
 25 26  2  0
 25 55  1  0
 26 27  1  0
 26 28  1  0
 28 29  2  0
 28 56  1  0
 29 30  1  0
 29 57  1  0
 30 31  1  0
 31 58  1  0
 31 59  1  0
M  CHG  1  19   1
M  END
>  <DOCK_score>  (1) 
-42.010448

>  <SMILES>  (1) 
C[C@H](CC1=CCC1)NC(NC1CCC(=O)NC1)=[NH+]C1COc2cc(Cl)ccc2C1

$$$$
