OCC[NH2+]Cc1c[nH]nc1-c1ccc(NC2CC[C@@H](c3ccc(F)cc3)C2)o1
     RDKit          3D

 54 57  0  0  1  0  0  0  0  0999 V2000
  132.1770  139.4052  158.3839 O   0  0  0  0  0  0  0  0  0  0  0  0
  131.2401  139.4787  159.4604 C   0  0  0  0  0  0  0  0  0  0  0  0
  131.4429  138.2849  160.3955 C   0  0  0  0  0  0  0  0  0  0  0  0
  131.2339  137.0371  159.6489 N   0  0  0  0  0  0  0  0  0  0  0  0
  131.8955  136.9852  158.8888 H   0  0  0  0  0  0  0  0  0  0  0  0
  130.2952  137.0193  159.2795 H   0  0  0  0  0  0  0  0  0  0  0  0
  131.4288  135.8907  160.5467 C   0  0  0  0  0  0  0  0  0  0  0  0
  131.2145  134.6108  159.7807 C   0  0  0  0  0  0  0  0  0  0  0  0
  132.1619  133.9108  159.1208 C   0  0  0  0  0  0  0  0  0  0  0  0
  131.5716  132.8325  158.5611 N   0  0  0  0  0  0  0  0  0  0  0  0
  132.0139  132.1564  158.0243 H   0  0  0  0  0  0  0  0  0  0  0  0
  130.2103  132.8595  158.8895 N   0  0  0  0  0  0  0  0  0  0  0  0
  129.9889  133.9286  159.6288 C   0  0  0  0  0  0  0  0  0  0  0  0
  128.6873  134.3422  160.1927 C   0  0  0  0  0  0  0  0  0  0  0  0
  127.5085  133.6830  160.0411 C   0  0  0  0  0  0  0  0  0  0  0  0
  126.5355  134.4198  160.7450 C   0  0  0  0  0  0  0  0  0  0  0  0
  127.1656  135.4927  161.2851 C   0  0  0  0  0  0  0  0  0  0  0  0
  126.5683  136.4798  162.0603 N   0  0  0  0  0  0  0  0  0  0  0  0
  127.3720  137.5879  162.5820 C   0  0  1  0  0  0  0  0  0  0  0  0
  126.5014  138.5023  163.4617 C   0  0  0  0  0  0  0  0  0  0  0  0
  127.1266  138.4826  164.8718 C   0  0  0  0  0  0  0  0  0  0  0  0
  128.6045  138.0896  164.6266 C   0  0  1  0  0  0  0  0  0  0  0  0
  129.1855  138.9534  164.3038 H   0  0  0  0  0  0  0  0  0  0  0  0
  129.2064  137.4759  165.8644 C   0  0  0  0  0  0  0  0  0  0  0  0
  130.2048  136.5267  165.7494 C   0  0  0  0  0  0  0  0  0  0  0  0
  130.7607  135.9667  166.8840 C   0  0  0  0  0  0  0  0  0  0  0  0
  130.3100  136.3492  168.1361 C   0  0  0  0  0  0  0  0  0  0  0  0
  130.8496  135.7992  169.2458 F   0  0  0  0  0  0  0  0  0  0  0  0
  129.3064  137.2962  168.2500 C   0  0  0  0  0  0  0  0  0  0  0  0
  128.7556  137.8586  167.1141 C   0  0  0  0  0  0  0  0  0  0  0  0
  128.4959  137.0446  163.4883 C   0  0  0  0  0  0  0  0  0  0  0  0
  128.4645  135.4409  160.9441 O   0  0  0  0  0  0  0  0  0  0  0  0
  132.0969  138.6051  157.8467 H   0  0  0  0  0  0  0  0  0  0  0  0
  130.2259  139.4594  159.0614 H   0  0  0  0  0  0  0  0  0  0  0  0
  131.3950  140.4046  160.0143 H   0  0  0  0  0  0  0  0  0  0  0  0
  130.7283  138.3409  161.2167 H   0  0  0  0  0  0  0  0  0  0  0  0
  132.4570  138.3041  160.7945 H   0  0  0  0  0  0  0  0  0  0  0  0
  130.7142  135.9468  161.3679 H   0  0  0  0  0  0  0  0  0  0  0  0
  132.4431  135.9100  160.9457 H   0  0  0  0  0  0  0  0  0  0  0  0
  133.2080  134.1700  159.0494 H   0  0  0  0  0  0  0  0  0  0  0  0
  127.3491  132.7675  159.4907 H   0  0  0  0  0  0  0  0  0  0  0  0
  125.4874  134.1764  160.8373 H   0  0  0  0  0  0  0  0  0  0  0  0
  125.6192  136.4350  162.2558 H   0  0  0  0  0  0  0  0  0  0  0  0
  127.7993  138.1593  161.7578 H   0  0  0  0  0  0  0  0  0  0  0  0
  126.5067  139.5174  163.0648 H   0  0  0  0  0  0  0  0  0  0  0  0
  125.4808  138.1214  163.5003 H   0  0  0  0  0  0  0  0  0  0  0  0
  127.0654  139.4698  165.3299 H   0  0  0  0  0  0  0  0  0  0  0  0
  126.6312  137.7410  165.4984 H   0  0  0  0  0  0  0  0  0  0  0  0
  130.5533  136.2255  164.7725 H   0  0  0  0  0  0  0  0  0  0  0  0
  131.5436  135.2283  166.7939 H   0  0  0  0  0  0  0  0  0  0  0  0
  128.9538  137.5950  169.2261 H   0  0  0  0  0  0  0  0  0  0  0  0
  127.9729  138.5975  167.2027 H   0  0  0  0  0  0  0  0  0  0  0  0
  128.2235  136.0690  163.8908 H   0  0  0  0  0  0  0  0  0  0  0  0
  129.4341  136.9824  162.9370 H   0  0  0  0  0  0  0  0  0  0  0  0
  1  2  1  0
  1 33  1  0
  2  3  1  0
  2 34  1  0
  2 35  1  0
  3  4  1  0
  3 36  1  0
  3 37  1  0
  4  5  1  0
  4  6  1  0
  4  7  1  0
  7  8  1  0
  7 38  1  0
  7 39  1  0
  8 13  1  0
  8  9  2  0
  9 10  1  0
  9 40  1  0
 10 11  1  0
 10 12  1  0
 12 13  2  0
 13 14  1  0
 14 32  1  0
 14 15  2  0
 15 16  1  0
 15 41  1  0
 16 17  2  0
 16 42  1  0
 17 18  1  0
 17 32  1  0
 18 19  1  0
 18 43  1  0
 19 31  1  0
 19 20  1  0
 19 44  1  6
 20 21  1  0
 20 45  1  0
 20 46  1  0
 21 22  1  0
 21 47  1  0
 21 48  1  0
 22 23  1  6
 22 24  1  0
 22 31  1  0
 24 30  1  0
 24 25  2  0
 25 26  1  0
 25 49  1  0
 26 27  2  0
 26 50  1  0
 27 28  1  0
 27 29  1  0
 29 30  2  0
 29 51  1  0
 30 52  1  0
 31 53  1  0
 31 54  1  0
M  CHG  1   4   1
M  END
>  <DOCK_score>  (1) 
-43.245018

>  <SMILES>  (1) 
OCC[NH2+]Cc1c[nH]nc1-c1ccc(NC2CC[C@@H](c3ccc(F)cc3)C2)o1

$$$$
