C[C@H](Cc1ccc(O)cc1)Nc1[nH]cc(-c2ccc(C3CCCCCC3)cc2)[nH+]1
     RDKit          3D

 61 64  0  0  1  0  0  0  0  0999 V2000
  129.3789  131.0396  158.7404 C   0  0  0  0  0  0  0  0  0  0  0  0
  128.4674  131.9197  159.5982 C   0  0  2  0  0  0  0  0  0  0  0  0
  128.5621  131.6293  160.6446 H   0  0  0  0  0  0  0  0  0  0  0  0
  127.0159  131.7411  159.1486 C   0  0  0  0  0  0  0  0  0  0  0  0
  126.1182  132.6080  159.9936 C   0  0  0  0  0  0  0  0  0  0  0  0
  125.8387  133.9033  159.5988 C   0  0  0  0  0  0  0  0  0  0  0  0
  125.0158  134.6997  160.3713 C   0  0  0  0  0  0  0  0  0  0  0  0
  124.4695  134.1987  161.5440 C   0  0  0  0  0  0  0  0  0  0  0  0
  123.6599  134.9805  162.3059 O   0  0  0  0  0  0  0  0  0  0  0  0
  124.7555  132.9006  161.9406 C   0  0  0  0  0  0  0  0  0  0  0  0
  125.5749  132.1064  161.1618 C   0  0  0  0  0  0  0  0  0  0  0  0
  128.8575  133.3232  159.4436 N   0  0  0  0  0  0  0  0  0  0  0  0
  129.8021  133.8765  160.2911 C   0  0  0  0  0  0  0  0  0  0  0  0
  130.0282  133.5007  161.5795 N   0  0  0  0  0  0  0  0  0  0  0  0
  129.5605  132.8032  162.0649 H   0  0  0  0  0  0  0  0  0  0  0  0
  131.0407  134.2916  162.0655 C   0  0  0  0  0  0  0  0  0  0  0  0
  131.4039  135.1273  161.0612 C   0  0  0  0  0  0  0  0  0  0  0  0
  132.4644  136.1623  161.1273 C   0  0  0  0  0  0  0  0  0  0  0  0
  132.1486  137.5022  160.9087 C   0  0  0  0  0  0  0  0  0  0  0  0
  133.1383  138.4615  160.9777 C   0  0  0  0  0  0  0  0  0  0  0  0
  134.4433  138.0945  161.2506 C   0  0  0  0  0  0  0  0  0  0  0  0
  135.5210  139.1458  161.3187 C   0  0  0  0  0  0  0  0  0  0  0  0
  135.2016  140.1148  162.4754 C   0  0  0  0  0  0  0  0  0  0  0  0
  136.4715  140.8195  162.8723 C   0  0  0  0  0  0  0  0  0  0  0  0
  136.6363  142.1772  162.1629 C   0  0  0  0  0  0  0  0  0  0  0  0
  136.2376  142.1263  160.6755 C   0  0  0  0  0  0  0  0  0  0  0  0
  136.7243  140.8776  159.9914 C   0  0  0  0  0  0  0  0  0  0  0  0
  135.5977  139.8250  160.0338 C   0  0  0  0  0  0  0  0  0  0  0  0
  134.7637  136.7652  161.4632 C   0  0  0  0  0  0  0  0  0  0  0  0
  133.7813  135.7981  161.4027 C   0  0  0  0  0  0  0  0  0  0  0  0
  130.6299  134.8448  159.9833 N   0  0  0  0  0  0  0  0  0  0  0  0
  130.6799  135.2899  159.1228 H   0  0  0  0  0  0  0  0  0  0  0  0
  129.2843  131.3298  157.6941 H   0  0  0  0  0  0  0  0  0  0  0  0
  130.4129  131.1667  159.0607 H   0  0  0  0  0  0  0  0  0  0  0  0
  129.0886  129.9953  158.8554 H   0  0  0  0  0  0  0  0  0  0  0  0
  126.7257  130.6969  159.2635 H   0  0  0  0  0  0  0  0  0  0  0  0
  126.9214  132.0314  158.1023 H   0  0  0  0  0  0  0  0  0  0  0  0
  126.2647  134.2929  158.6860 H   0  0  0  0  0  0  0  0  0  0  0  0
  124.7982  135.7115  160.0628 H   0  0  0  0  0  0  0  0  0  0  0  0
  123.5232  135.8692  161.9502 H   0  0  0  0  0  0  0  0  0  0  0  0
  124.3350  132.5098  162.8554 H   0  0  0  0  0  0  0  0  0  0  0  0
  125.7946  131.0942  161.4680 H   0  0  0  0  0  0  0  0  0  0  0  0
  128.4539  133.8649  158.7475 H   0  0  0  0  0  0  0  0  0  0  0  0
  131.4660  134.2548  163.0575 H   0  0  0  0  0  0  0  0  0  0  0  0
  131.1308  137.7895  160.6901 H   0  0  0  0  0  0  0  0  0  0  0  0
  132.8941  139.5007  160.8131 H   0  0  0  0  0  0  0  0  0  0  0  0
  136.4759  138.6600  161.5187 H   0  0  0  0  0  0  0  0  0  0  0  0
  134.4625  140.8457  162.1474 H   0  0  0  0  0  0  0  0  0  0  0  0
  134.8137  139.5544  163.3261 H   0  0  0  0  0  0  0  0  0  0  0  0
  137.3213  140.1848  162.6210 H   0  0  0  0  0  0  0  0  0  0  0  0
  136.4628  140.9834  163.9498 H   0  0  0  0  0  0  0  0  0  0  0  0
  137.6783  142.4882  162.2371 H   0  0  0  0  0  0  0  0  0  0  0  0
  136.0130  142.9143  162.6689 H   0  0  0  0  0  0  0  0  0  0  0  0
  136.6591  142.9939  160.1676 H   0  0  0  0  0  0  0  0  0  0  0  0
  135.1510  142.1692  160.6000 H   0  0  0  0  0  0  0  0  0  0  0  0
  137.6030  140.4946  160.5102 H   0  0  0  0  0  0  0  0  0  0  0  0
  136.9765  141.1025  158.9551 H   0  0  0  0  0  0  0  0  0  0  0  0
  135.7763  139.0851  159.2536 H   0  0  0  0  0  0  0  0  0  0  0  0
  134.6464  140.3201  159.8388 H   0  0  0  0  0  0  0  0  0  0  0  0
  135.7844  136.4842  161.6765 H   0  0  0  0  0  0  0  0  0  0  0  0
  134.0323  134.7608  161.5682 H   0  0  0  0  0  0  0  0  0  0  0  0
  1  2  1  0
  1 33  1  0
  1 34  1  0
  1 35  1  0
  2  3  1  1
  2  4  1  0
  2 12  1  0
  4  5  1  0
  4 36  1  0
  4 37  1  0
  5 11  1  0
  5  6  2  0
  6  7  1  0
  6 38  1  0
  7  8  2  0
  7 39  1  0
  8  9  1  0
  8 10  1  0
  9 40  1  0
 10 11  2  0
 10 41  1  0
 11 42  1  0
 12 43  1  0
 13 12  1  0
 13 31  2  0
 13 14  1  0
 14 15  1  0
 14 16  1  0
 16 17  2  0
 16 44  1  0
 17 18  1  0
 17 31  1  0
 18 30  1  0
 18 19  2  0
 19 20  1  0
 19 45  1  0
 20 21  2  0
 20 46  1  0
 21 22  1  0
 21 29  1  0
 22 28  1  0
 22 23  1  0
 22 47  1  0
 23 24  1  0
 23 48  1  0
 23 49  1  0
 24 25  1  0
 24 50  1  0
 24 51  1  0
 25 26  1  0
 25 52  1  0
 25 53  1  0
 26 27  1  0
 26 54  1  0
 26 55  1  0
 27 28  1  0
 27 56  1  0
 27 57  1  0
 28 58  1  0
 28 59  1  0
 29 30  2  0
 29 60  1  0
 30 61  1  0
 31 32  1  0
M  CHG  1  31   1
M  END
>  <DOCK_score>  (1) 
-43.215061

>  <SMILES>  (1) 
C[C@H](Cc1ccc(O)cc1)Nc1[nH]cc(-c2ccc(C3CCCCCC3)cc2)[nH+]1

$$$$
