Cc1c(Nc2[nH]cc(-c3ccc(N)cc3)[nH+]2)cccc1-c1ccc2c(c1)[C@@H](CBr)CO2
     RDKit          3D

 55 59  0  0  1  0  0  0  0  0999 V2000
  130.9530  135.5320  160.7262 C   0  0  0  0  0  0  0  0  0  0  0  0
  129.5280  135.6984  160.2649 C   0  0  0  0  0  0  0  0  0  0  0  0
  129.1822  135.4034  158.9543 C   0  0  0  0  0  0  0  0  0  0  0  0
  130.1555  134.9500  158.0593 N   0  0  0  0  0  0  0  0  0  0  0  0
  130.0196  133.7094  157.4578 C   0  0  0  0  0  0  0  0  0  0  0  0
  129.3884  132.6314  157.9981 N   0  0  0  0  0  0  0  0  0  0  0  0
  128.9566  132.5936  158.8658 H   0  0  0  0  0  0  0  0  0  0  0  0
  129.4757  131.6064  157.0867 C   0  0  0  0  0  0  0  0  0  0  0  0
  130.1570  132.0878  156.0174 C   0  0  0  0  0  0  0  0  0  0  0  0
  130.4925  131.3338  154.7846 C   0  0  0  0  0  0  0  0  0  0  0  0
  130.0220  131.7728  153.5481 C   0  0  0  0  0  0  0  0  0  0  0  0
  130.3387  131.0728  152.4030 C   0  0  0  0  0  0  0  0  0  0  0  0
  131.1177  129.9252  152.4818 C   0  0  0  0  0  0  0  0  0  0  0  0
  131.4332  129.2152  151.3209 N   0  0  0  0  0  0  0  0  0  0  0  0
  131.5841  129.4824  153.7146 C   0  0  0  0  0  0  0  0  0  0  0  0
  131.2739  130.1820  154.8617 C   0  0  0  0  0  0  0  0  0  0  0  0
  130.4728  133.3818  156.2722 N   0  0  0  0  0  0  0  0  0  0  0  0
  130.9585  133.9705  155.6734 H   0  0  0  0  0  0  0  0  0  0  0  0
  127.8672  135.5582  158.5315 C   0  0  0  0  0  0  0  0  0  0  0  0
  126.9022  136.0057  159.4138 C   0  0  0  0  0  0  0  0  0  0  0  0
  127.2385  136.3014  160.7196 C   0  0  0  0  0  0  0  0  0  0  0  0
  128.5550  136.1490  161.1525 C   0  0  0  0  0  0  0  0  0  0  0  0
  128.9181  136.4669  162.5556 C   0  0  0  0  0  0  0  0  0  0  0  0
  128.8595  135.4788  163.5370 C   0  0  0  0  0  0  0  0  0  0  0  0
  129.1938  135.7749  164.8394 C   0  0  0  0  0  0  0  0  0  0  0  0
  129.5945  137.0636  165.1894 C   0  0  0  0  0  0  0  0  0  0  0  0
  129.6566  138.0426  164.2044 C   0  0  0  0  0  0  0  0  0  0  0  0
  129.3259  137.7549  162.9009 C   0  0  0  0  0  0  0  0  0  0  0  0
  130.1309  139.3177  164.8748 C   0  0  1  0  0  0  0  0  0  0  0  0
  130.9178  139.7952  164.2909 H   0  0  0  0  0  0  0  0  0  0  0  0
  128.9645  140.2804  165.1058 C   0  0  0  0  0  0  0  0  0  0  0  0
  128.5584  141.2315  163.4339 Br  0  0  0  0  0  0  0  0  0  0  0  0
  130.6835  138.7860  166.2182 C   0  0  0  0  0  0  0  0  0  0  0  0
  129.9470  137.5655  166.4050 O   0  0  0  0  0  0  0  0  0  0  0  0
  131.0952  134.5215  161.1094 H   0  0  0  0  0  0  0  0  0  0  0  0
  131.6285  135.7010  159.8877 H   0  0  0  0  0  0  0  0  0  0  0  0
  131.1660  136.2531  161.5152 H   0  0  0  0  0  0  0  0  0  0  0  0
  130.9262  135.5041  157.8593 H   0  0  0  0  0  0  0  0  0  0  0  0
  129.0782  130.6087  157.2004 H   0  0  0  0  0  0  0  0  0  0  0  0
  129.4127  132.6624  153.4866 H   0  0  0  0  0  0  0  0  0  0  0  0
  129.9775  131.4147  151.4443 H   0  0  0  0  0  0  0  0  0  0  0  0
  131.9775  128.4132  151.3758 H   0  0  0  0  0  0  0  0  0  0  0  0
  131.1084  129.5224  150.4608 H   0  0  0  0  0  0  0  0  0  0  0  0
  132.1896  128.5900  153.7738 H   0  0  0  0  0  0  0  0  0  0  0  0
  131.6365  129.8379  155.8192 H   0  0  0  0  0  0  0  0  0  0  0  0
  127.5990  135.3281  157.5111 H   0  0  0  0  0  0  0  0  0  0  0  0
  125.8816  136.1241  159.0807 H   0  0  0  0  0  0  0  0  0  0  0  0
  126.4806  136.6467  161.4072 H   0  0  0  0  0  0  0  0  0  0  0  0
  128.5506  134.4777  163.2750 H   0  0  0  0  0  0  0  0  0  0  0  0
  129.1457  135.0042  165.5943 H   0  0  0  0  0  0  0  0  0  0  0  0
  129.3783  138.5262  162.1467 H   0  0  0  0  0  0  0  0  0  0  0  0
  128.0872  139.7181  165.4262 H   0  0  0  0  0  0  0  0  0  0  0  0
  129.2357  141.0012  165.8772 H   0  0  0  0  0  0  0  0  0  0  0  0
  131.7520  138.5845  166.1437 H   0  0  0  0  0  0  0  0  0  0  0  0
  130.4803  139.4901  167.0251 H   0  0  0  0  0  0  0  0  0  0  0  0
  1  2  1  0
  1 35  1  0
  1 36  1  0
  1 37  1  0
  2 22  2  0
  2  3  1  0
  3  4  1  0
  3 19  2  0
  4 38  1  0
  5  4  1  0
  5 17  2  0
  5  6  1  0
  6  7  1  0
  6  8  1  0
  8  9  2  0
  8 39  1  0
  9 10  1  0
  9 17  1  0
 10 16  1  0
 10 11  2  0
 11 12  1  0
 11 40  1  0
 12 13  2  0
 12 41  1  0
 13 14  1  0
 13 15  1  0
 14 42  1  0
 14 43  1  0
 15 16  2  0
 15 44  1  0
 16 45  1  0
 17 18  1  0
 19 20  1  0
 19 46  1  0
 20 21  2  0
 20 47  1  0
 21 22  1  0
 21 48  1  0
 22 23  1  0
 23 28  1  0
 23 24  2  0
 24 25  1  0
 24 49  1  0
 25 26  2  0
 25 50  1  0
 26 34  1  0
 26 27  1  0
 27 28  2  0
 27 29  1  0
 28 51  1  0
 29 30  1  6
 29 31  1  0
 29 33  1  0
 31 32  1  0
 31 52  1  0
 31 53  1  0
 33 34  1  0
 33 54  1  0
 33 55  1  0
M  CHG  1  17   1
M  END
>  <DOCK_score>  (1) 
-56.325455

>  <SMILES>  (1) 
Cc1c(Nc2[nH]cc(-c3ccc(N)cc3)[nH+]2)cccc1-c1ccc2c(c1)[C@@H](CBr)CO2

$$$$
