CCc1ccc(-c2c[nH]c(N[C@H](Cc3ccccc3)Cc3ccnn3C)[nH+]2)cc1
     RDKit          3D

 57 60  0  0  1  0  0  0  0  0999 V2000
  129.9589  128.9643  151.4952 C   0  0  0  0  0  0  0  0  0  0  0  0
  131.1290  129.8756  151.8709 C   0  0  0  0  0  0  0  0  0  0  0  0
  130.8098  130.6003  153.1531 C   0  0  0  0  0  0  0  0  0  0  0  0
  131.1590  130.0382  154.3672 C   0  0  0  0  0  0  0  0  0  0  0  0
  130.8744  130.6998  155.5445 C   0  0  0  0  0  0  0  0  0  0  0  0
  130.2234  131.9317  155.5085 C   0  0  0  0  0  0  0  0  0  0  0  0
  129.9098  132.6451  156.7707 C   0  0  0  0  0  0  0  0  0  0  0  0
  129.1355  132.1771  157.7808 C   0  0  0  0  0  0  0  0  0  0  0  0
  129.1106  133.1517  158.7485 N   0  0  0  0  0  0  0  0  0  0  0  0
  128.6379  133.1095  159.5944 H   0  0  0  0  0  0  0  0  0  0  0  0
  129.8712  134.1878  158.3011 C   0  0  0  0  0  0  0  0  0  0  0  0
  130.1037  135.3704  158.9821 N   0  0  0  0  0  0  0  0  0  0  0  0
  130.1150  135.3820  160.4471 C   0  0  2  0  0  0  0  0  0  0  0  0
  129.3200  134.7372  160.8216 H   0  0  0  0  0  0  0  0  0  0  0  0
  129.8913  136.8104  160.9474 C   0  0  0  0  0  0  0  0  0  0  0  0
  130.9905  137.7020  160.4296 C   0  0  0  0  0  0  0  0  0  0  0  0
  132.1452  137.8762  161.1694 C   0  0  0  0  0  0  0  0  0  0  0  0
  133.1555  138.6903  160.6922 C   0  0  0  0  0  0  0  0  0  0  0  0
  133.0067  139.3382  159.4803 C   0  0  0  0  0  0  0  0  0  0  0  0
  131.8497  139.1682  158.7431 C   0  0  0  0  0  0  0  0  0  0  0  0
  130.8417  138.3501  159.2177 C   0  0  0  0  0  0  0  0  0  0  0  0
  131.4663  134.8710  160.9508 C   0  0  0  0  0  0  0  0  0  0  0  0
  131.4853  133.3650  160.8974 C   0  0  0  0  0  0  0  0  0  0  0  0
  131.8960  132.6089  159.8531 C   0  0  0  0  0  0  0  0  0  0  0  0
  131.7534  131.2646  160.2127 C   0  0  0  0  0  0  0  0  0  0  0  0
  131.2742  131.2156  161.4292 N   0  0  0  0  0  0  0  0  0  0  0  0
  131.1013  132.5290  161.8847 N   0  0  0  0  0  0  0  0  0  0  0  0
  130.5907  132.9249  163.1996 C   0  0  0  0  0  0  0  0  0  0  0  0
  130.3518  133.8789  157.1214 N   0  0  0  0  0  0  0  0  0  0  0  0
  130.9293  134.4434  156.5840 H   0  0  0  0  0  0  0  0  0  0  0  0
  129.8688  132.4911  154.2822 C   0  0  0  0  0  0  0  0  0  0  0  0
  130.1635  131.8231  153.1110 C   0  0  0  0  0  0  0  0  0  0  0  0
  129.0594  129.5646  151.3592 H   0  0  0  0  0  0  0  0  0  0  0  0
  130.1897  128.4402  150.5678 H   0  0  0  0  0  0  0  0  0  0  0  0
  129.7943  128.2383  152.2914 H   0  0  0  0  0  0  0  0  0  0  0  0
  132.0283  129.2759  152.0065 H   0  0  0  0  0  0  0  0  0  0  0  0
  131.2934  130.6022  151.0742 H   0  0  0  0  0  0  0  0  0  0  0  0
  131.6591  129.0813  154.3942 H   0  0  0  0  0  0  0  0  0  0  0  0
  131.1517  130.2620  156.4920 H   0  0  0  0  0  0  0  0  0  0  0  0
  128.6340  131.2213  157.8172 H   0  0  0  0  0  0  0  0  0  0  0  0
  130.2594  136.1913  158.4894 H   0  0  0  0  0  0  0  0  0  0  0  0
  128.9288  137.1746  160.5885 H   0  0  0  0  0  0  0  0  0  0  0  0
  129.8996  136.8191  162.0374 H   0  0  0  0  0  0  0  0  0  0  0  0
  132.2597  137.3735  162.1183 H   0  0  0  0  0  0  0  0  0  0  0  0
  134.0592  138.8234  161.2684 H   0  0  0  0  0  0  0  0  0  0  0  0
  133.7941  139.9777  159.1095 H   0  0  0  0  0  0  0  0  0  0  0  0
  131.7334  139.6747  157.7963 H   0  0  0  0  0  0  0  0  0  0  0  0
  129.9377  138.2174  158.6419 H   0  0  0  0  0  0  0  0  0  0  0  0
  132.2624  135.2669  160.3204 H   0  0  0  0  0  0  0  0  0  0  0  0
  131.6189  135.2000  161.9787 H   0  0  0  0  0  0  0  0  0  0  0  0
  132.2686  132.9780  158.9090 H   0  0  0  0  0  0  0  0  0  0  0  0
  131.9973  130.4142  159.5932 H   0  0  0  0  0  0  0  0  0  0  0  0
  129.5062  133.0237  163.1535 H   0  0  0  0  0  0  0  0  0  0  0  0
  130.8555  132.1660  163.9357 H   0  0  0  0  0  0  0  0  0  0  0  0
  131.0306  133.8798  163.4876 H   0  0  0  0  0  0  0  0  0  0  0  0
  129.3641  133.4454  154.2485 H   0  0  0  0  0  0  0  0  0  0  0  0
  129.8889  132.2555  152.1602 H   0  0  0  0  0  0  0  0  0  0  0  0
  1  2  1  0
  1 33  1  0
  1 34  1  0
  1 35  1  0
  2  3  1  0
  2 36  1  0
  2 37  1  0
  3 32  2  0
  3  4  1  0
  4  5  2  0
  4 38  1  0
  5  6  1  0
  5 39  1  0
  6  7  1  0
  6 31  2  0
  7 29  1  0
  7  8  2  0
  8  9  1  0
  8 40  1  0
  9 10  1  0
  9 11  1  0
 11 12  1  0
 11 29  2  0
 12 13  1  0
 12 41  1  0
 13 14  1  1
 13 15  1  0
 13 22  1  0
 15 16  1  0
 15 42  1  0
 15 43  1  0
 16 21  1  0
 16 17  2  0
 17 18  1  0
 17 44  1  0
 18 19  2  0
 18 45  1  0
 19 20  1  0
 19 46  1  0
 20 21  2  0
 20 47  1  0
 21 48  1  0
 22 23  1  0
 22 49  1  0
 22 50  1  0
 23 27  1  0
 23 24  2  0
 24 25  1  0
 24 51  1  0
 25 26  2  0
 25 52  1  0
 26 27  1  0
 27 28  1  0
 28 53  1  0
 28 54  1  0
 28 55  1  0
 29 30  1  0
 31 32  1  0
 31 56  1  0
 32 57  1  0
M  CHG  1  29   1
M  END
>  <DOCK_score>  (1) 
-62.486862

>  <SMILES>  (1) 
CCc1ccc(-c2c[nH]c(N[C@H](Cc3ccccc3)Cc3ccnn3C)[nH+]2)cc1

$$$$
