Cn1c(NCC2=CCOCC2)c[nH+]c1CN[C@@H](Cc1ccccc1)c1ccncc1
     RDKit          3D

 60 63  0  0  1  0  0  0  0  0999 V2000
  131.6442  132.5959  161.4858 C   0  0  0  0  0  0  0  0  0  0  0  0
  131.3577  132.9217  160.0865 N   0  0  0  0  0  0  0  0  0  0  0  0
  130.4553  132.2900  159.2716 C   0  0  0  0  0  0  0  0  0  0  0  0
  129.6345  131.2144  159.6141 N   0  0  0  0  0  0  0  0  0  0  0  0
  128.4376  130.9246  158.8206 C   0  0  0  0  0  0  0  0  0  0  0  0
  127.2627  131.6768  159.3906 C   0  0  0  0  0  0  0  0  0  0  0  0
  126.2340  131.0031  159.8117 C   0  0  0  0  0  0  0  0  0  0  0  0
  125.0131  131.6577  160.3931 C   0  0  0  0  0  0  0  0  0  0  0  0
  125.2949  133.0182  160.7272 O   0  0  0  0  0  0  0  0  0  0  0  0
  125.9146  133.7415  159.6565 C   0  0  0  0  0  0  0  0  0  0  0  0
  127.3228  133.1784  159.4448 C   0  0  0  0  0  0  0  0  0  0  0  0
  130.5184  132.9070  158.0678 C   0  0  0  0  0  0  0  0  0  0  0  0
  131.4291  133.8899  158.1500 N   0  0  0  0  0  0  0  0  0  0  0  0
  131.6723  134.4904  157.4281 H   0  0  0  0  0  0  0  0  0  0  0  0
  131.9354  133.9118  159.3513 C   0  0  0  0  0  0  0  0  0  0  0  0
  132.9898  134.8699  159.8428 C   0  0  0  0  0  0  0  0  0  0  0  0
  132.3433  136.0609  160.4099 N   0  0  0  0  0  0  0  0  0  0  0  0
  133.3427  137.0193  160.9003 C   0  0  1  0  0  0  0  0  0  0  0  0
  134.1798  137.0596  160.2035 H   0  0  0  0  0  0  0  0  0  0  0  0
  132.7065  138.4061  161.0141 C   0  0  0  0  0  0  0  0  0  0  0  0
  133.7884  139.4550  161.0316 C   0  0  0  0  0  0  0  0  0  0  0  0
  134.3369  139.8623  162.2333 C   0  0  0  0  0  0  0  0  0  0  0  0
  135.3290  140.8248  162.2493 C   0  0  0  0  0  0  0  0  0  0  0  0
  135.7734  141.3792  161.0635 C   0  0  0  0  0  0  0  0  0  0  0  0
  135.2214  140.9754  159.8622 C   0  0  0  0  0  0  0  0  0  0  0  0
  134.2321  140.0101  159.8458 C   0  0  0  0  0  0  0  0  0  0  0  0
  133.8370  136.5806  162.2547 C   0  0  0  0  0  0  0  0  0  0  0  0
  132.9612  136.4498  163.3217 C   0  0  0  0  0  0  0  0  0  0  0  0
  133.4501  136.0403  164.5479 C   0  0  0  0  0  0  0  0  0  0  0  0
  134.7336  135.7855  164.7112 N   0  0  0  0  0  0  0  0  0  0  0  0
  135.5959  135.9046  163.7205 C   0  0  0  0  0  0  0  0  0  0  0  0
  135.1791  136.3039  162.4648 C   0  0  0  0  0  0  0  0  0  0  0  0
  130.9813  133.1678  162.1351 H   0  0  0  0  0  0  0  0  0  0  0  0
  131.4841  131.5304  161.6508 H   0  0  0  0  0  0  0  0  0  0  0  0
  132.6803  132.8470  161.7126 H   0  0  0  0  0  0  0  0  0  0  0  0
  129.8564  130.6588  160.3776 H   0  0  0  0  0  0  0  0  0  0  0  0
  128.6018  131.2351  157.7888 H   0  0  0  0  0  0  0  0  0  0  0  0
  128.2326  129.8544  158.8499 H   0  0  0  0  0  0  0  0  0  0  0  0
  126.2595  129.9255  159.7443 H   0  0  0  0  0  0  0  0  0  0  0  0
  124.7052  131.1215  161.2906 H   0  0  0  0  0  0  0  0  0  0  0  0
  124.2082  131.6253  159.6588 H   0  0  0  0  0  0  0  0  0  0  0  0
  125.9768  134.7985  159.9151 H   0  0  0  0  0  0  0  0  0  0  0  0
  125.3298  133.6200  158.7447 H   0  0  0  0  0  0  0  0  0  0  0  0
  127.9646  133.4865  160.2703 H   0  0  0  0  0  0  0  0  0  0  0  0
  127.7291  133.5595  158.5079 H   0  0  0  0  0  0  0  0  0  0  0  0
  129.9369  132.6529  157.1940 H   0  0  0  0  0  0  0  0  0  0  0  0
  133.6290  135.1649  159.0107 H   0  0  0  0  0  0  0  0  0  0  0  0
  133.5929  134.3840  160.6098 H   0  0  0  0  0  0  0  0  0  0  0  0
  131.7275  136.4928  159.7372 H   0  0  0  0  0  0  0  0  0  0  0  0
  132.1278  138.4657  161.9360 H   0  0  0  0  0  0  0  0  0  0  0  0
  132.0496  138.5756  160.1611 H   0  0  0  0  0  0  0  0  0  0  0  0
  133.9901  139.4289  163.1597 H   0  0  0  0  0  0  0  0  0  0  0  0
  135.7573  141.1433  163.1881 H   0  0  0  0  0  0  0  0  0  0  0  0
  136.5485  142.1312  161.0760 H   0  0  0  0  0  0  0  0  0  0  0  0
  135.5654  141.4117  158.9360 H   0  0  0  0  0  0  0  0  0  0  0  0
  133.8033  139.6921  158.9070 H   0  0  0  0  0  0  0  0  0  0  0  0
  131.9098  136.6614  163.1953 H   0  0  0  0  0  0  0  0  0  0  0  0
  132.7738  135.9320  165.3829 H   0  0  0  0  0  0  0  0  0  0  0  0
  136.6397  135.6871  163.8926 H   0  0  0  0  0  0  0  0  0  0  0  0
  135.8902  136.3994  161.6575 H   0  0  0  0  0  0  0  0  0  0  0  0
  1  2  1  0
  1 33  1  0
  1 34  1  0
  1 35  1  0
  2 15  1  0
  2  3  1  0
  3  4  1  0
  3 12  2  0
  4  5  1  0
  4 36  1  0
  5  6  1  0
  5 37  1  0
  5 38  1  0
  6 11  1  0
  6  7  2  0
  7  8  1  0
  7 39  1  0
  8  9  1  0
  8 40  1  0
  8 41  1  0
  9 10  1  0
 10 11  1  0
 10 42  1  0
 10 43  1  0
 11 44  1  0
 11 45  1  0
 12 13  1  0
 12 46  1  0
 13 14  1  0
 13 15  2  0
 15 16  1  0
 16 17  1  0
 16 47  1  0
 16 48  1  0
 17 18  1  0
 17 49  1  0
 18 19  1  6
 18 20  1  0
 18 27  1  0
 20 21  1  0
 20 50  1  0
 20 51  1  0
 21 26  1  0
 21 22  2  0
 22 23  1  0
 22 52  1  0
 23 24  2  0
 23 53  1  0
 24 25  1  0
 24 54  1  0
 25 26  2  0
 25 55  1  0
 26 56  1  0
 27 32  1  0
 27 28  2  0
 28 29  1  0
 28 57  1  0
 29 30  2  0
 29 58  1  0
 30 31  1  0
 31 32  2  0
 31 59  1  0
 32 60  1  0
M  CHG  1  13   1
M  END
>  <DOCK_score>  (1) 
-57.309067

>  <SMILES>  (1) 
Cn1c(NCC2=CCOCC2)c[nH+]c1CN[C@@H](Cc1ccccc1)c1ccncc1

$$$$
