C[C@@H](c1ccccc1)C(Cc1ncnn1C)Nc1[nH]cc(-c2ccc(N)cc2)[nH+]1
     RDKit          3D

 55 58  0  0  1  0  0  0  0  0999 V2000
  132.5220  134.4169  161.4665 C   0  0  0  0  0  0  0  0  0  0  0  0
  131.4432  135.4915  161.6170 C   0  0  1  0  0  0  0  0  0  0  0  0
  131.1253  135.5439  162.6582 H   0  0  0  0  0  0  0  0  0  0  0  0
  132.0013  136.8260  161.1943 C   0  0  0  0  0  0  0  0  0  0  0  0
  131.5225  137.9885  161.7688 C   0  0  0  0  0  0  0  0  0  0  0  0
  132.0372  139.2125  161.3840 C   0  0  0  0  0  0  0  0  0  0  0  0
  133.0247  139.2744  160.4187 C   0  0  0  0  0  0  0  0  0  0  0  0
  133.4998  138.1121  159.8405 C   0  0  0  0  0  0  0  0  0  0  0  0
  132.9879  136.8880  160.2280 C   0  0  0  0  0  0  0  0  0  0  0  0
  130.2443  135.1375  160.7349 C   0  0  1  0  0  0  0  0  0  0  0  0
  129.1655  136.2121  160.8853 C   0  0  0  0  0  0  0  0  0  0  0  0
  127.9847  135.8635  160.0164 C   0  0  0  0  0  0  0  0  0  0  0  0
  127.8147  136.2240  158.7704 N   0  0  0  0  0  0  0  0  0  0  0  0
  126.6606  135.7398  158.3132 C   0  0  0  0  0  0  0  0  0  0  0  0
  126.0778  135.0612  159.2662 N   0  0  0  0  0  0  0  0  0  0  0  0
  126.9249  135.1228  160.3846 N   0  0  0  0  0  0  0  0  0  0  0  0
  126.6974  134.5055  161.6936 C   0  0  0  0  0  0  0  0  0  0  0  0
  130.6714  135.0671  159.3354 N   0  0  0  0  0  0  0  0  0  0  0  0
  130.5261  133.8873  158.6257 C   0  0  0  0  0  0  0  0  0  0  0  0
  130.0087  132.7273  159.1140 N   0  0  0  0  0  0  0  0  0  0  0  0
  129.6784  132.5794  160.0139 H   0  0  0  0  0  0  0  0  0  0  0  0
  130.0375  131.8049  158.0950 C   0  0  0  0  0  0  0  0  0  0  0  0
  130.5797  132.4252  157.0182 C   0  0  0  0  0  0  0  0  0  0  0  0
  130.8143  131.8159  155.6861 C   0  0  0  0  0  0  0  0  0  0  0  0
  130.7655  132.6062  154.5387 C   0  0  0  0  0  0  0  0  0  0  0  0
  130.9896  132.0388  153.3020 C   0  0  0  0  0  0  0  0  0  0  0  0
  131.2520  130.6779  153.1979 C   0  0  0  0  0  0  0  0  0  0  0  0
  131.4724  130.1040  151.9435 N   0  0  0  0  0  0  0  0  0  0  0  0
  131.2959  129.8872  154.3400 C   0  0  0  0  0  0  0  0  0  0  0  0
  131.0780  130.4512  155.5793 C   0  0  0  0  0  0  0  0  0  0  0  0
  130.8693  133.7018  157.3743 N   0  0  0  0  0  0  0  0  0  0  0  0
  131.2672  134.3707  156.7953 H   0  0  0  0  0  0  0  0  0  0  0  0
  133.3761  134.6691  162.0950 H   0  0  0  0  0  0  0  0  0  0  0  0
  132.1184  133.4516  161.7723 H   0  0  0  0  0  0  0  0  0  0  0  0
  132.8399  134.3646  160.4253 H   0  0  0  0  0  0  0  0  0  0  0  0
  130.7486  137.9405  162.5206 H   0  0  0  0  0  0  0  0  0  0  0  0
  131.6658  140.1206  161.8357 H   0  0  0  0  0  0  0  0  0  0  0  0
  133.4249  140.2308  160.1161 H   0  0  0  0  0  0  0  0  0  0  0  0
  134.2711  138.1605  159.0860 H   0  0  0  0  0  0  0  0  0  0  0  0
  133.3590  135.9799  159.7762 H   0  0  0  0  0  0  0  0  0  0  0  0
  129.8406  134.1722  161.0406 H   0  0  0  0  0  0  0  0  0  0  0  0
  128.8475  136.2643  161.9266 H   0  0  0  0  0  0  0  0  0  0  0  0
  129.5691  137.1774  160.5798 H   0  0  0  0  0  0  0  0  0  0  0  0
  126.2705  135.8839  157.3164 H   0  0  0  0  0  0  0  0  0  0  0  0
  126.1571  135.2020  162.3348 H   0  0  0  0  0  0  0  0  0  0  0  0
  126.1101  133.5957  161.5692 H   0  0  0  0  0  0  0  0  0  0  0  0
  127.6558  134.2594  162.1508 H   0  0  0  0  0  0  0  0  0  0  0  0
  131.0562  135.8472  158.9059 H   0  0  0  0  0  0  0  0  0  0  0  0
  129.6983  130.7807  158.1444 H   0  0  0  0  0  0  0  0  0  0  0  0
  130.5565  133.6628  154.6186 H   0  0  0  0  0  0  0  0  0  0  0  0
  130.9562  132.6514  152.4132 H   0  0  0  0  0  0  0  0  0  0  0  0
  131.6560  129.1545  151.8700 H   0  0  0  0  0  0  0  0  0  0  0  0
  131.4419  130.6553  151.1459 H   0  0  0  0  0  0  0  0  0  0  0  0
  131.5003  128.8300  154.2567 H   0  0  0  0  0  0  0  0  0  0  0  0
  131.1122  129.8365  156.4665 H   0  0  0  0  0  0  0  0  0  0  0  0
  1  2  1  0
  1 33  1  0
  1 34  1  0
  1 35  1  0
  2  3  1  1
  2  4  1  0
  2 10  1  0
  4  9  1  0
  4  5  2  0
  5  6  1  0
  5 36  1  0
  6  7  2  0
  6 37  1  0
  7  8  1  0
  7 38  1  0
  8  9  2  0
  8 39  1  0
  9 40  1  0
 10 11  1  0
 10 18  1  0
 10 41  1  1
 11 12  1  0
 11 42  1  0
 11 43  1  0
 12 16  1  0
 12 13  2  0
 13 14  1  0
 14 15  2  0
 14 44  1  0
 15 16  1  0
 16 17  1  0
 17 45  1  0
 17 46  1  0
 17 47  1  0
 18 48  1  0
 19 18  1  0
 19 31  2  0
 19 20  1  0
 20 21  1  0
 20 22  1  0
 22 23  2  0
 22 49  1  0
 23 24  1  0
 23 31  1  0
 24 30  1  0
 24 25  2  0
 25 26  1  0
 25 50  1  0
 26 27  2  0
 26 51  1  0
 27 28  1  0
 27 29  1  0
 28 52  1  0
 28 53  1  0
 29 30  2  0
 29 54  1  0
 30 55  1  0
 31 32  1  0
M  CHG  1  31   1
M  END
>  <DOCK_score>  (1) 
-63.563046

>  <SMILES>  (1) 
C[C@@H](c1ccccc1)C(Cc1ncnn1C)Nc1[nH]cc(-c2ccc(N)cc2)[nH+]1

$$$$
