Cn1nccc1[C@@H](Nc1[nH]cc(-c2ccc(N)cc2)[nH+]1)C(c1ccncc1)c1ccc(F)cc1
     RDKit          3D

 59 63  0  0  1  0  0  0  0  0999 V2000
  127.3406  134.6759  162.5519 C   0  0  0  0  0  0  0  0  0  0  0  0
  126.9308  135.0457  161.1951 N   0  0  0  0  0  0  0  0  0  0  0  0
  125.6271  134.9948  160.6850 N   0  0  0  0  0  0  0  0  0  0  0  0
  125.6584  135.4004  159.4416 C   0  0  0  0  0  0  0  0  0  0  0  0
  126.9802  135.7270  159.1217 C   0  0  0  0  0  0  0  0  0  0  0  0
  127.7428  135.4953  160.2153 C   0  0  0  0  0  0  0  0  0  0  0  0
  129.2309  135.7074  160.3220 C   0  0  1  0  0  0  0  0  0  0  0  0
  129.6483  134.9997  161.0382 H   0  0  0  0  0  0  0  0  0  0  0  0
  129.8494  135.4973  159.0107 N   0  0  0  0  0  0  0  0  0  0  0  0
  129.7307  134.2717  158.3778 C   0  0  0  0  0  0  0  0  0  0  0  0
  129.0641  133.1898  158.8642 N   0  0  0  0  0  0  0  0  0  0  0  0
  128.5908  133.1386  159.7093 H   0  0  0  0  0  0  0  0  0  0  0  0
  129.1858  132.1824  157.9366 C   0  0  0  0  0  0  0  0  0  0  0  0
  129.9224  132.6782  156.9120 C   0  0  0  0  0  0  0  0  0  0  0  0
  130.3108  131.9459  155.6816 C   0  0  0  0  0  0  0  0  0  0  0  0
  129.9049  132.4144  154.4330 C   0  0  0  0  0  0  0  0  0  0  0  0
  130.2716  131.7350  153.2904 C   0  0  0  0  0  0  0  0  0  0  0  0
  131.0352  130.5781  153.3834 C   0  0  0  0  0  0  0  0  0  0  0  0
  131.4004  129.8884  152.2247 N   0  0  0  0  0  0  0  0  0  0  0  0
  131.4367  130.1058  154.6279 C   0  0  0  0  0  0  0  0  0  0  0  0
  131.0772  130.7851  155.7727 C   0  0  0  0  0  0  0  0  0  0  0  0
  130.2375  133.9640  157.2087 N   0  0  0  0  0  0  0  0  0  0  0  0
  130.7568  134.5598  156.6465 H   0  0  0  0  0  0  0  0  0  0  0  0
  129.5099  137.1357  160.7945 C   0  0  2  0  0  0  0  0  0  0  0  0
  130.9256  137.5137  160.4422 C   0  0  0  0  0  0  0  0  0  0  0  0
  131.9221  136.5518  160.3782 C   0  0  0  0  0  0  0  0  0  0  0  0
  133.2080  136.9355  160.0478 C   0  0  0  0  0  0  0  0  0  0  0  0
  133.4934  138.1998  159.8046 N   0  0  0  0  0  0  0  0  0  0  0  0
  132.5722  139.1417  159.8608 C   0  0  0  0  0  0  0  0  0  0  0  0
  131.2635  138.8325  160.1801 C   0  0  0  0  0  0  0  0  0  0  0  0
  129.3255  137.2157  162.2881 C   0  0  0  0  0  0  0  0  0  0  0  0
  128.0879  137.5353  162.8149 C   0  0  0  0  0  0  0  0  0  0  0  0
  127.9161  137.6035  164.1845 C   0  0  0  0  0  0  0  0  0  0  0  0
  128.9870  137.3630  165.0288 C   0  0  0  0  0  0  0  0  0  0  0  0
  128.8219  137.4357  166.3676 F   0  0  0  0  0  0  0  0  0  0  0  0
  130.2273  137.0486  164.4997 C   0  0  0  0  0  0  0  0  0  0  0  0
  130.3951  136.9749  163.1300 C   0  0  0  0  0  0  0  0  0  0  0  0
  127.2831  135.5503  163.2001 H   0  0  0  0  0  0  0  0  0  0  0  0
  126.6786  133.8977  162.9320 H   0  0  0  0  0  0  0  0  0  0  0  0
  128.3652  134.3041  162.5335 H   0  0  0  0  0  0  0  0  0  0  0  0
  124.8095  135.4740  158.7780 H   0  0  0  0  0  0  0  0  0  0  0  0
  127.3308  136.0968  158.1694 H   0  0  0  0  0  0  0  0  0  0  0  0
  130.3420  136.2168  158.5860 H   0  0  0  0  0  0  0  0  0  0  0  0
  128.7734  131.1868  158.0099 H   0  0  0  0  0  0  0  0  0  0  0  0
  129.3075  133.3111  154.3603 H   0  0  0  0  0  0  0  0  0  0  0  0
  129.9611  132.1002  152.3225 H   0  0  0  0  0  0  0  0  0  0  0  0
  131.9340  129.0801  152.2894 H   0  0  0  0  0  0  0  0  0  0  0  0
  131.1210  130.2165  151.3565 H   0  0  0  0  0  0  0  0  0  0  0  0
  132.0301  129.2062  154.6980 H   0  0  0  0  0  0  0  0  0  0  0  0
  131.3895  130.4183  156.7394 H   0  0  0  0  0  0  0  0  0  0  0  0
  128.8182  137.8216  160.3056 H   0  0  0  0  0  0  0  0  0  0  0  0
  131.6956  135.5154  160.5807 H   0  0  0  0  0  0  0  0  0  0  0  0
  133.9892  136.1919  159.9926 H   0  0  0  0  0  0  0  0  0  0  0  0
  132.8437  140.1666  159.6553 H   0  0  0  0  0  0  0  0  0  0  0  0
  130.5136  139.6085  160.2245 H   0  0  0  0  0  0  0  0  0  0  0  0
  127.2541  137.7278  162.1561 H   0  0  0  0  0  0  0  0  0  0  0  0
  126.9484  137.8492  164.5961 H   0  0  0  0  0  0  0  0  0  0  0  0
  131.0634  136.8612  165.1573 H   0  0  0  0  0  0  0  0  0  0  0  0
  131.3624  136.7297  162.7171 H   0  0  0  0  0  0  0  0  0  0  0  0
  1  2  1  0
  1 38  1  0
  1 39  1  0
  1 40  1  0
  2  6  1  0
  2  3  1  0
  3  4  2  0
  4  5  1  0
  4 41  1  0
  5  6  2  0
  5 42  1  0
  6  7  1  0
  7  8  1  1
  7  9  1  0
  7 24  1  0
  9 43  1  0
 10  9  1  0
 10 22  2  0
 10 11  1  0
 11 12  1  0
 11 13  1  0
 13 14  2  0
 13 44  1  0
 14 15  1  0
 14 22  1  0
 15 21  1  0
 15 16  2  0
 16 17  1  0
 16 45  1  0
 17 18  2  0
 17 46  1  0
 18 19  1  0
 18 20  1  0
 19 47  1  0
 19 48  1  0
 20 21  2  0
 20 49  1  0
 21 50  1  0
 22 23  1  0
 24 25  1  0
 24 31  1  0
 24 51  1  6
 25 30  1  0
 25 26  2  0
 26 27  1  0
 26 52  1  0
 27 28  2  0
 27 53  1  0
 28 29  1  0
 29 30  2  0
 29 54  1  0
 30 55  1  0
 31 37  1  0
 31 32  2  0
 32 33  1  0
 32 56  1  0
 33 34  2  0
 33 57  1  0
 34 35  1  0
 34 36  1  0
 36 37  2  0
 36 58  1  0
 37 59  1  0
M  CHG  1  22   1
M  END
>  <DOCK_score>  (1) 
-58.087761

>  <SMILES>  (1) 
Cn1nccc1[C@@H](Nc1[nH]cc(-c2ccc(N)cc2)[nH+]1)C(c1ccncc1)c1ccc(F)cc1

$$$$
