N#Cc1n[nH]cc1C1=CC[C@@H](Nc2ccc(-c3n[nH]cc3C[NH2+]CC3CC3)o2)C1
     RDKit          3D

 53 57  0  0  1  0  0  0  0  0999 V2000
  131.6259  138.9509  163.4826 N   0  0  0  0  0  0  0  0  0  0  0  0
  130.8351  139.7289  163.7274 C   0  0  0  0  0  0  0  0  0  0  0  0
  129.8384  140.7097  164.0360 C   0  0  0  0  0  0  0  0  0  0  0  0
  130.0405  141.9967  164.2407 N   0  0  0  0  0  0  0  0  0  0  0  0
  128.8127  142.6049  164.5197 N   0  0  0  0  0  0  0  0  0  0  0  0
  128.6857  143.5472  164.7119 H   0  0  0  0  0  0  0  0  0  0  0  0
  127.8334  141.6800  164.4809 C   0  0  0  0  0  0  0  0  0  0  0  0
  128.3987  140.4747  164.1808 C   0  0  0  0  0  0  0  0  0  0  0  0
  127.6968  139.1827  164.0363 C   0  0  0  0  0  0  0  0  0  0  0  0
  126.9866  138.6037  164.9893 C   0  0  0  0  0  0  0  0  0  0  0  0
  126.4069  137.2935  164.5074 C   0  0  0  0  0  0  0  0  0  0  0  0
  127.2174  136.9466  163.2376 C   0  0  1  0  0  0  0  0  0  0  0  0
  128.0647  136.3047  163.4784 H   0  0  0  0  0  0  0  0  0  0  0  0
  126.3629  136.3246  162.2231 N   0  0  0  0  0  0  0  0  0  0  0  0
  126.9010  135.4059  161.3295 C   0  0  0  0  0  0  0  0  0  0  0  0
  126.2351  134.3699  160.7611 C   0  0  0  0  0  0  0  0  0  0  0  0
  127.1521  133.6993  159.9279 C   0  0  0  0  0  0  0  0  0  0  0  0
  128.3345  134.3618  160.0304 C   0  0  0  0  0  0  0  0  0  0  0  0
  129.5867  134.0111  159.3289 C   0  0  0  0  0  0  0  0  0  0  0  0
  129.7525  133.0051  158.4928 N   0  0  0  0  0  0  0  0  0  0  0  0
  131.0829  133.0193  158.0545 N   0  0  0  0  0  0  0  0  0  0  0  0
  131.4845  132.3899  157.4352 H   0  0  0  0  0  0  0  0  0  0  0  0
  131.7097  134.0611  158.6430 C   0  0  0  0  0  0  0  0  0  0  0  0
  130.8161  134.6953  159.4318 C   0  0  0  0  0  0  0  0  0  0  0  0
  131.0859  135.9135  160.2769 C   0  0  0  0  0  0  0  0  0  0  0  0
  132.4863  136.3246  160.1105 N   0  0  0  0  0  0  0  0  0  0  0  0
  133.0941  135.5731  160.4001 H   0  0  0  0  0  0  0  0  0  0  0  0
  132.6599  136.5427  159.1408 H   0  0  0  0  0  0  0  0  0  0  0  0
  132.7492  137.5122  160.9342 C   0  0  0  0  0  0  0  0  0  0  0  0
  134.2079  137.9403  160.7609 C   0  0  0  0  0  0  0  0  0  0  0  0
  134.5247  139.4326  160.8771 C   0  0  0  0  0  0  0  0  0  0  0  0
  134.5638  138.7457  159.5097 C   0  0  0  0  0  0  0  0  0  0  0  0
  128.1700  135.3916  160.8872 O   0  0  0  0  0  0  0  0  0  0  0  0
  127.6939  138.3440  162.7793 C   0  0  0  0  0  0  0  0  0  0  0  0
  126.7833  141.8612  164.6566 H   0  0  0  0  0  0  0  0  0  0  0  0
  126.8410  139.0112  165.9789 H   0  0  0  0  0  0  0  0  0  0  0  0
  125.3514  137.4129  164.2629 H   0  0  0  0  0  0  0  0  0  0  0  0
  126.5368  136.5193  165.2636 H   0  0  0  0  0  0  0  0  0  0  0  0
  125.4216  136.5539  162.1750 H   0  0  0  0  0  0  0  0  0  0  0  0
  125.1990  134.1084  160.9179 H   0  0  0  0  0  0  0  0  0  0  0  0
  126.9537  132.8263  159.3238 H   0  0  0  0  0  0  0  0  0  0  0  0
  132.7447  134.3379  158.5067 H   0  0  0  0  0  0  0  0  0  0  0  0
  130.8985  135.6779  161.3245 H   0  0  0  0  0  0  0  0  0  0  0  0
  130.4293  136.7254  159.9641 H   0  0  0  0  0  0  0  0  0  0  0  0
  132.0926  138.3241  160.6213 H   0  0  0  0  0  0  0  0  0  0  0  0
  132.5618  137.2765  161.9819 H   0  0  0  0  0  0  0  0  0  0  0  0
  134.9518  137.2372  161.1353 H   0  0  0  0  0  0  0  0  0  0  0  0
  133.6940  140.1095  161.0771 H   0  0  0  0  0  0  0  0  0  0  0  0
  135.4774  139.7112  161.3278 H   0  0  0  0  0  0  0  0  0  0  0  0
  135.5421  138.5728  159.0612 H   0  0  0  0  0  0  0  0  0  0  0  0
  133.7589  138.9707  158.8100 H   0  0  0  0  0  0  0  0  0  0  0  0
  128.6986  138.2840  162.3609 H   0  0  0  0  0  0  0  0  0  0  0  0
  127.0024  138.7590  162.0459 H   0  0  0  0  0  0  0  0  0  0  0  0
  1  2  3  0
  2  3  1  0
  3  8  1  0
  3  4  2  0
  4  5  1  0
  5  6  1  0
  5  7  1  0
  7  8  2  0
  7 35  1  0
  8  9  1  0
  9 34  1  0
  9 10  2  0
 10 11  1  0
 10 36  1  0
 11 12  1  0
 11 37  1  0
 11 38  1  0
 12 13  1  1
 12 14  1  0
 12 34  1  0
 14 15  1  0
 14 39  1  0
 15 33  1  0
 15 16  2  0
 16 17  1  0
 16 40  1  0
 17 18  2  0
 17 41  1  0
 18 19  1  0
 18 33  1  0
 19 24  1  0
 19 20  2  0
 20 21  1  0
 21 22  1  0
 21 23  1  0
 23 24  2  0
 23 42  1  0
 24 25  1  0
 25 26  1  0
 25 43  1  0
 25 44  1  0
 26 27  1  0
 26 28  1  0
 26 29  1  0
 29 30  1  0
 29 45  1  0
 29 46  1  0
 30 32  1  0
 30 31  1  0
 30 47  1  0
 31 32  1  0
 31 48  1  0
 31 49  1  0
 32 50  1  0
 32 51  1  0
 34 52  1  0
 34 53  1  0
M  CHG  1  26   1
M  END
>  <DOCK_score>  (1) 
-42.676872

>  <SMILES>  (1) 
N#Cc1n[nH]cc1C1=CC[C@@H](Nc2ccc(-c3n[nH]cc3C[NH2+]CC3CC3)o2)C1

$$$$
