Nc1ccccc1[C@@H](c1ccccc1)[NH+]1CCN(c2cncc3ccccc23)CC1
     RDKit          3D

 57 61  0  0  1  0  0  0  0  0999 V2000
  127.8865  133.6874  161.0121 N   0  0  0  0  0  0  0  0  0  0  0  0
  127.8168  134.5437  159.9110 C   0  0  0  0  0  0  0  0  0  0  0  0
  126.5839  134.8714  159.3608 C   0  0  0  0  0  0  0  0  0  0  0  0
  126.5189  135.7183  158.2718 C   0  0  0  0  0  0  0  0  0  0  0  0
  127.6788  136.2409  157.7300 C   0  0  0  0  0  0  0  0  0  0  0  0
  128.9072  135.9209  158.2784 C   0  0  0  0  0  0  0  0  0  0  0  0
  128.9800  135.0698  159.3638 C   0  0  0  0  0  0  0  0  0  0  0  0
  130.3195  134.7174  159.9576 C   0  0  1  0  0  0  0  0  0  0  0  0
  130.2050  134.5263  161.0246 H   0  0  0  0  0  0  0  0  0  0  0  0
  130.8599  133.4838  159.2814 C   0  0  0  0  0  0  0  0  0  0  0  0
  130.5286  133.2151  157.9665 C   0  0  0  0  0  0  0  0  0  0  0  0
  131.0274  132.0856  157.3451 C   0  0  0  0  0  0  0  0  0  0  0  0
  131.8504  131.2201  158.0412 C   0  0  0  0  0  0  0  0  0  0  0  0
  132.1779  131.4864  159.3575 C   0  0  0  0  0  0  0  0  0  0  0  0
  131.6823  132.6180  159.9778 C   0  0  0  0  0  0  0  0  0  0  0  0
  131.2528  135.8341  159.7576 N   0  0  0  0  0  0  0  0  0  0  0  0
  131.3585  136.0108  158.7698 H   0  0  0  0  0  0  0  0  0  0  0  0
  130.7255  137.0365  160.4161 C   0  0  0  0  0  0  0  0  0  0  0  0
  131.6883  138.2046  160.1920 C   0  0  0  0  0  0  0  0  0  0  0  0
  133.0069  137.8617  160.7431 N   0  0  0  0  0  0  0  0  0  0  0  0
  133.8977  138.9248  160.6053 C   0  0  0  0  0  0  0  0  0  0  0  0
  134.2141  139.4242  159.3584 C   0  0  0  0  0  0  0  0  0  0  0  0
  135.0549  140.4371  159.2098 N   0  0  0  0  0  0  0  0  0  0  0  0
  135.6484  141.0247  160.2220 C   0  0  0  0  0  0  0  0  0  0  0  0
  135.4013  140.5914  161.5344 C   0  0  0  0  0  0  0  0  0  0  0  0
  136.0161  141.1927  162.6444 C   0  0  0  0  0  0  0  0  0  0  0  0
  135.7408  140.7314  163.8956 C   0  0  0  0  0  0  0  0  0  0  0  0
  134.8575  139.6720  164.0935 C   0  0  0  0  0  0  0  0  0  0  0  0
  134.2430  139.0646  163.0397 C   0  0  0  0  0  0  0  0  0  0  0  0
  134.5027  139.5126  161.7383 C   0  0  0  0  0  0  0  0  0  0  0  0
  133.5366  136.6453  160.1108 C   0  0  0  0  0  0  0  0  0  0  0  0
  132.5586  135.4900  160.3355 C   0  0  0  0  0  0  0  0  0  0  0  0
  128.7478  133.4594  161.3957 H   0  0  0  0  0  0  0  0  0  0  0  0
  127.0734  133.3205  161.3936 H   0  0  0  0  0  0  0  0  0  0  0  0
  125.6776  134.4644  159.7842 H   0  0  0  0  0  0  0  0  0  0  0  0
  125.5606  135.9744  157.8445 H   0  0  0  0  0  0  0  0  0  0  0  0
  127.6251  136.9031  156.8785 H   0  0  0  0  0  0  0  0  0  0  0  0
  129.8109  136.3338  157.8551 H   0  0  0  0  0  0  0  0  0  0  0  0
  129.8824  133.8891  157.4239 H   0  0  0  0  0  0  0  0  0  0  0  0
  130.7712  131.8773  156.3167 H   0  0  0  0  0  0  0  0  0  0  0  0
  132.2374  130.3359  157.5567 H   0  0  0  0  0  0  0  0  0  0  0  0
  132.8206  130.8101  159.9015 H   0  0  0  0  0  0  0  0  0  0  0  0
  131.9377  132.8257  161.0063 H   0  0  0  0  0  0  0  0  0  0  0  0
  129.7508  137.2833  159.9953 H   0  0  0  0  0  0  0  0  0  0  0  0
  130.6232  136.8499  161.4851 H   0  0  0  0  0  0  0  0  0  0  0  0
  131.7803  138.4003  159.1236 H   0  0  0  0  0  0  0  0  0  0  0  0
  131.3046  139.0934  160.6930 H   0  0  0  0  0  0  0  0  0  0  0  0
  133.7619  138.9815  158.4832 H   0  0  0  0  0  0  0  0  0  0  0  0
  136.3289  141.8446  160.0450 H   0  0  0  0  0  0  0  0  0  0  0  0
  136.7023  142.0152  162.5066 H   0  0  0  0  0  0  0  0  0  0  0  0
  136.2146  141.1945  164.7486 H   0  0  0  0  0  0  0  0  0  0  0  0
  134.6574  139.3266  165.0972 H   0  0  0  0  0  0  0  0  0  0  0  0
  133.5605  138.2445  163.2069 H   0  0  0  0  0  0  0  0  0  0  0  0
  134.5014  136.3963  160.5527 H   0  0  0  0  0  0  0  0  0  0  0  0
  133.6590  136.8153  159.0411 H   0  0  0  0  0  0  0  0  0  0  0  0
  132.4469  135.3114  161.4050 H   0  0  0  0  0  0  0  0  0  0  0  0
  132.9428  134.5901  159.8551 H   0  0  0  0  0  0  0  0  0  0  0  0
  1  2  1  0
  1 33  1  0
  1 34  1  0
  2  7  2  0
  2  3  1  0
  3  4  2  0
  3 35  1  0
  4  5  1  0
  4 36  1  0
  5  6  2  0
  5 37  1  0
  6  7  1  0
  6 38  1  0
  7  8  1  0
  8  9  1  1
  8 10  1  0
  8 16  1  0
 10 15  1  0
 10 11  2  0
 11 12  1  0
 11 39  1  0
 12 13  2  0
 12 40  1  0
 13 14  1  0
 13 41  1  0
 14 15  2  0
 14 42  1  0
 15 43  1  0
 16 17  1  0
 16 32  1  0
 16 18  1  0
 18 19  1  0
 18 44  1  0
 18 45  1  0
 19 20  1  0
 19 46  1  0
 19 47  1  0
 20 21  1  0
 20 31  1  0
 21 30  1  0
 21 22  2  0
 22 23  1  0
 22 48  1  0
 23 24  2  0
 24 25  1  0
 24 49  1  0
 25 30  2  0
 25 26  1  0
 26 27  2  0
 26 50  1  0
 27 28  1  0
 27 51  1  0
 28 29  2  0
 28 52  1  0
 29 30  1  0
 29 53  1  0
 31 32  1  0
 31 54  1  0
 31 55  1  0
 32 56  1  0
 32 57  1  0
M  CHG  1  16   1
M  END
>  <DOCK_score>  (1) 
-56.009499

>  <SMILES>  (1) 
Nc1ccccc1[C@@H](c1ccccc1)[NH+]1CCN(c2cncc3ccccc23)CC1

$$$$
