CCc1ccc(-c2c[nH]c(N[C@H](c3ccnc4ccnn34)C(c3ccnn3C)C(F)(F)F)[nH+]2)cc1
     RDKit          3D

 59 63  0  0  1  0  0  0  0  0999 V2000
  130.4601  128.8747  151.4951 C   0  0  0  0  0  0  0  0  0  0  0  0
  131.7137  129.5754  152.0229 C   0  0  0  0  0  0  0  0  0  0  0  0
  131.3897  130.2762  153.3171 C   0  0  0  0  0  0  0  0  0  0  0  0
  131.5378  129.6084  154.5188 C   0  0  0  0  0  0  0  0  0  0  0  0
  131.2483  130.2477  155.7070 C   0  0  0  0  0  0  0  0  0  0  0  0
  130.7950  131.5656  155.6939 C   0  0  0  0  0  0  0  0  0  0  0  0
  130.4768  132.2563  156.9674 C   0  0  0  0  0  0  0  0  0  0  0  0
  130.0325  131.6673  158.1053 C   0  0  0  0  0  0  0  0  0  0  0  0
  129.8665  132.6668  159.0329 N   0  0  0  0  0  0  0  0  0  0  0  0
  129.5584  132.5576  159.9461 H   0  0  0  0  0  0  0  0  0  0  0  0
  130.2146  133.8384  158.4341 C   0  0  0  0  0  0  0  0  0  0  0  0
  130.1883  135.0876  159.0304 N   0  0  0  0  0  0  0  0  0  0  0  0
  129.2148  135.3747  160.0868 C   0  0  2  0  0  0  0  0  0  0  0  0
  129.3693  134.6886  160.9196 H   0  0  0  0  0  0  0  0  0  0  0  0
  127.8195  135.2007  159.5447 C   0  0  0  0  0  0  0  0  0  0  0  0
  127.3905  135.9492  158.4997 C   0  0  0  0  0  0  0  0  0  0  0  0
  126.0878  135.7700  158.0118 C   0  0  0  0  0  0  0  0  0  0  0  0
  125.2909  134.8854  158.5625 N   0  0  0  0  0  0  0  0  0  0  0  0
  125.7035  134.1394  159.5964 C   0  0  0  0  0  0  0  0  0  0  0  0
  125.0818  133.1531  160.3506 C   0  0  0  0  0  0  0  0  0  0  0  0
  125.9898  132.7180  161.3040 C   0  0  0  0  0  0  0  0  0  0  0  0
  127.1124  133.3859  161.1617 N   0  0  0  0  0  0  0  0  0  0  0  0
  126.9726  134.2829  160.0967 N   0  0  0  0  0  0  0  0  0  0  0  0
  129.3978  136.8144  160.5713 C   0  0  2  0  0  0  0  0  0  0  0  0
  130.8681  137.1354  160.6483 C   0  0  0  0  0  0  0  0  0  0  0  0
  131.7853  136.4970  161.4114 C   0  0  0  0  0  0  0  0  0  0  0  0
  133.0263  137.1027  161.1897 C   0  0  0  0  0  0  0  0  0  0  0  0
  132.8604  138.0700  160.3244 N   0  0  0  0  0  0  0  0  0  0  0  0
  131.5072  138.1073  159.9639 N   0  0  0  0  0  0  0  0  0  0  0  0
  130.8935  139.0387  159.0141 C   0  0  0  0  0  0  0  0  0  0  0  0
  128.7687  136.9698  161.9573 C   0  0  0  0  0  0  0  0  0  0  0  0
  129.3911  136.0935  162.8529 F   0  0  0  0  0  0  0  0  0  0  0  0
  128.9361  138.2862  162.4005 F   0  0  0  0  0  0  0  0  0  0  0  0
  127.4037  136.6718  161.8860 F   0  0  0  0  0  0  0  0  0  0  0  0
  130.5843  133.5883  157.2019 N   0  0  0  0  0  0  0  0  0  0  0  0
  130.8843  134.2501  156.5593 H   0  0  0  0  0  0  0  0  0  0  0  0
  130.6424  132.2324  154.4793 C   0  0  0  0  0  0  0  0  0  0  0  0
  130.9404  131.5850  153.2976 C   0  0  0  0  0  0  0  0  0  0  0  0
  130.1162  128.1447  152.2278 H   0  0  0  0  0  0  0  0  0  0  0  0
  129.6770  129.6127  151.3221 H   0  0  0  0  0  0  0  0  0  0  0  0
  130.6944  128.3672  150.5592 H   0  0  0  0  0  0  0  0  0  0  0  0
  132.4970  128.8374  152.1959 H   0  0  0  0  0  0  0  0  0  0  0  0
  132.0576  130.3053  151.2901 H   0  0  0  0  0  0  0  0  0  0  0  0
  131.8846  128.5857  154.5274 H   0  0  0  0  0  0  0  0  0  0  0  0
  131.3687  129.7264  156.6452 H   0  0  0  0  0  0  0  0  0  0  0  0
  129.8447  130.6142  158.2537 H   0  0  0  0  0  0  0  0  0  0  0  0
  130.8145  135.7726  158.7486 H   0  0  0  0  0  0  0  0  0  0  0  0
  128.0466  136.6773  158.0458 H   0  0  0  0  0  0  0  0  0  0  0  0
  125.7391  136.3633  157.1794 H   0  0  0  0  0  0  0  0  0  0  0  0
  124.0735  132.7898  160.2182 H   0  0  0  0  0  0  0  0  0  0  0  0
  125.8043  131.9536  162.0441 H   0  0  0  0  0  0  0  0  0  0  0  0
  128.9129  137.4970  159.8736 H   0  0  0  0  0  0  0  0  0  0  0  0
  131.5930  135.6664  162.0743 H   0  0  0  0  0  0  0  0  0  0  0  0
  133.9606  136.8203  161.6523 H   0  0  0  0  0  0  0  0  0  0  0  0
  130.5578  139.9297  159.5445 H   0  0  0  0  0  0  0  0  0  0  0  0
  131.6256  139.3205  158.2572 H   0  0  0  0  0  0  0  0  0  0  0  0
  130.0409  138.5588  158.5339 H   0  0  0  0  0  0  0  0  0  0  0  0
  130.2912  133.2536  154.4633 H   0  0  0  0  0  0  0  0  0  0  0  0
  130.8222  132.1007  152.3559 H   0  0  0  0  0  0  0  0  0  0  0  0
  1  2  1  0
  1 39  1  0
  1 40  1  0
  1 41  1  0
  2  3  1  0
  2 42  1  0
  2 43  1  0
  3 38  2  0
  3  4  1  0
  4  5  2  0
  4 44  1  0
  5  6  1  0
  5 45  1  0
  6  7  1  0
  6 37  2  0
  7 35  1  0
  7  8  2  0
  8  9  1  0
  8 46  1  0
  9 10  1  0
  9 11  1  0
 11 12  1  0
 11 35  2  0
 12 13  1  0
 12 47  1  0
 13 14  1  1
 13 15  1  0
 13 24  1  0
 15 23  1  0
 15 16  2  0
 16 17  1  0
 16 48  1  0
 17 18  2  0
 17 49  1  0
 18 19  1  0
 19 23  1  0
 19 20  2  0
 20 21  1  0
 20 50  1  0
 21 22  2  0
 21 51  1  0
 22 23  1  0
 24 25  1  0
 24 31  1  0
 24 52  1  6
 25 29  1  0
 25 26  2  0
 26 27  1  0
 26 53  1  0
 27 28  2  0
 27 54  1  0
 28 29  1  0
 29 30  1  0
 30 55  1  0
 30 56  1  0
 30 57  1  0
 31 32  1  0
 31 33  1  0
 31 34  1  0
 35 36  1  0
 37 38  1  0
 37 58  1  0
 38 59  1  0
M  CHG  1  35   1
M  END
>  <DOCK_score>  (1) 
-58.005871

>  <SMILES>  (1) 
CCc1ccc(-c2c[nH]c(N[C@H](c3ccnc4ccnn34)C(c3ccnn3C)C(F)(F)F)[nH+]2)cc1

$$$$
