Cn1nccc1[C@H](CCc1ccccc1)Nc1[nH]cc(-c2ccc(N)cc2)[nH+]1
     RDKit          3D

 53 56  0  0  1  0  0  0  0  0999 V2000
  128.0967  135.9413  157.1351 C   0  0  0  0  0  0  0  0  0  0  0  0
  127.5856  135.4782  158.4276 N   0  0  0  0  0  0  0  0  0  0  0  0
  126.2373  135.3117  158.7690 N   0  0  0  0  0  0  0  0  0  0  0  0
  126.1779  134.8897  160.0060 C   0  0  0  0  0  0  0  0  0  0  0  0
  127.4847  134.7691  160.4897 C   0  0  0  0  0  0  0  0  0  0  0  0
  128.3308  135.1340  159.4988 C   0  0  0  0  0  0  0  0  0  0  0  0
  129.8355  135.1581  159.5790 C   0  0  2  0  0  0  0  0  0  0  0  0
  130.1748  134.3871  160.2706 H   0  0  0  0  0  0  0  0  0  0  0  0
  130.2977  136.5290  160.0768 C   0  0  0  0  0  0  0  0  0  0  0  0
  131.7202  136.4181  160.6290 C   0  0  0  0  0  0  0  0  0  0  0  0
  132.1755  137.7684  161.1193 C   0  0  0  0  0  0  0  0  0  0  0  0
  132.8300  138.6312  160.2601 C   0  0  0  0  0  0  0  0  0  0  0  0
  133.2433  139.8717  160.7084 C   0  0  0  0  0  0  0  0  0  0  0  0
  133.0115  140.2454  162.0190 C   0  0  0  0  0  0  0  0  0  0  0  0
  132.3617  139.3806  162.8797 C   0  0  0  0  0  0  0  0  0  0  0  0
  131.9438  138.1422  162.4298 C   0  0  0  0  0  0  0  0  0  0  0  0
  130.3995  134.9053  158.2507 N   0  0  0  0  0  0  0  0  0  0  0  0
  130.1185  133.7195  157.5937 C   0  0  0  0  0  0  0  0  0  0  0  0
  129.3316  132.7167  158.0700 N   0  0  0  0  0  0  0  0  0  0  0  0
  128.8708  132.7039  158.9234 H   0  0  0  0  0  0  0  0  0  0  0  0
  129.3107  131.7250  157.1181 C   0  0  0  0  0  0  0  0  0  0  0  0
  130.0847  132.1508  156.0895 C   0  0  0  0  0  0  0  0  0  0  0  0
  130.3572  131.4063  154.8355 C   0  0  0  0  0  0  0  0  0  0  0  0
  129.9902  131.9518  153.6063 C   0  0  0  0  0  0  0  0  0  0  0  0
  130.2492  131.2603  152.4415 C   0  0  0  0  0  0  0  0  0  0  0  0
  130.8650  130.0155  152.4935 C   0  0  0  0  0  0  0  0  0  0  0  0
  131.1211  129.3142  151.3127 N   0  0  0  0  0  0  0  0  0  0  0  0
  131.2269  129.4674  153.7185 C   0  0  0  0  0  0  0  0  0  0  0  0
  130.9751  130.1578  154.8853 C   0  0  0  0  0  0  0  0  0  0  0  0
  130.5621  133.3802  156.4078 N   0  0  0  0  0  0  0  0  0  0  0  0
  131.1411  133.9208  155.8481 H   0  0  0  0  0  0  0  0  0  0  0  0
  128.2563  135.0850  156.4796 H   0  0  0  0  0  0  0  0  0  0  0  0
  127.3734  136.6177  156.6796 H   0  0  0  0  0  0  0  0  0  0  0  0
  129.0405  136.4655  157.2842 H   0  0  0  0  0  0  0  0  0  0  0  0
  125.2756  134.6713  160.5580 H   0  0  0  0  0  0  0  0  0  0  0  0
  127.7684  134.4423  161.4792 H   0  0  0  0  0  0  0  0  0  0  0  0
  130.2832  137.2396  159.2502 H   0  0  0  0  0  0  0  0  0  0  0  0
  129.6281  136.8743  160.8645 H   0  0  0  0  0  0  0  0  0  0  0  0
  131.7347  135.7077  161.4556 H   0  0  0  0  0  0  0  0  0  0  0  0
  132.3899  136.0729  159.8414 H   0  0  0  0  0  0  0  0  0  0  0  0
  133.0151  138.3374  159.2373 H   0  0  0  0  0  0  0  0  0  0  0  0
  133.7513  140.5472  160.0362 H   0  0  0  0  0  0  0  0  0  0  0  0
  133.3384  141.2128  162.3706 H   0  0  0  0  0  0  0  0  0  0  0  0
  132.1809  139.6724  163.9037 H   0  0  0  0  0  0  0  0  0  0  0  0
  131.4363  137.4663  163.1024 H   0  0  0  0  0  0  0  0  0  0  0  0
  130.9698  135.5686  157.8316 H   0  0  0  0  0  0  0  0  0  0  0  0
  128.7796  130.7865  157.1781 H   0  0  0  0  0  0  0  0  0  0  0  0
  129.5073  132.9169  153.5656 H   0  0  0  0  0  0  0  0  0  0  0  0
  129.9692  131.6844  151.4886 H   0  0  0  0  0  0  0  0  0  0  0  0
  131.5512  128.4454  151.3481 H   0  0  0  0  0  0  0  0  0  0  0  0
  130.8689  129.6960  150.4575 H   0  0  0  0  0  0  0  0  0  0  0  0
  131.7055  128.4999  153.7565 H   0  0  0  0  0  0  0  0  0  0  0  0
  131.2568  129.7318  155.8368 H   0  0  0  0  0  0  0  0  0  0  0  0
  1  2  1  0
  1 32  1  0
  1 33  1  0
  1 34  1  0
  2  6  1  0
  2  3  1  0
  3  4  2  0
  4  5  1  0
  4 35  1  0
  5  6  2  0
  5 36  1  0
  6  7  1  0
  7  8  1  1
  7  9  1  0
  7 17  1  0
  9 10  1  0
  9 37  1  0
  9 38  1  0
 10 11  1  0
 10 39  1  0
 10 40  1  0
 11 16  1  0
 11 12  2  0
 12 13  1  0
 12 41  1  0
 13 14  2  0
 13 42  1  0
 14 15  1  0
 14 43  1  0
 15 16  2  0
 15 44  1  0
 16 45  1  0
 17 46  1  0
 18 17  1  0
 18 30  2  0
 18 19  1  0
 19 20  1  0
 19 21  1  0
 21 22  2  0
 21 47  1  0
 22 23  1  0
 22 30  1  0
 23 29  1  0
 23 24  2  0
 24 25  1  0
 24 48  1  0
 25 26  2  0
 25 49  1  0
 26 27  1  0
 26 28  1  0
 27 50  1  0
 27 51  1  0
 28 29  2  0
 28 52  1  0
 29 53  1  0
 30 31  1  0
M  CHG  1  30   1
M  END
>  <DOCK_score>  (1) 
-61.729683

>  <SMILES>  (1) 
Cn1nccc1[C@H](CCc1ccccc1)Nc1[nH]cc(-c2ccc(N)cc2)[nH+]1

$$$$
