Cc1n[nH]cc1C[N@H+](C)Cc1c[nH]nc1-c1ccc(Nc2ccccn2)o1
     RDKit          3D

 49 52  0  0  1  0  0  0  0  0999 V2000
  133.8067  137.1973  162.0704 C   0  0  0  0  0  0  0  0  0  0  0  0
  133.9928  137.9092  160.7553 C   0  0  0  0  0  0  0  0  0  0  0  0
  135.1379  138.1620  160.1749 N   0  0  0  0  0  0  0  0  0  0  0  0
  134.8808  138.8416  158.9772 N   0  0  0  0  0  0  0  0  0  0  0  0
  135.5465  139.1566  158.3457 H   0  0  0  0  0  0  0  0  0  0  0  0
  133.5439  138.9814  158.8576 C   0  0  0  0  0  0  0  0  0  0  0  0
  132.9708  138.4100  159.9421 C   0  0  0  0  0  0  0  0  0  0  0  0
  131.4931  138.3328  160.2267 C   0  0  0  0  0  0  0  0  0  0  0  0
  130.9481  137.0948  159.6535 N   0  0  2  0  0  0  0  0  0  0  0  0
  131.3696  136.9276  158.7521 H   0  0  0  0  0  0  0  0  0  0  0  0
  129.4934  137.2266  159.4968 C   0  0  0  0  0  0  0  0  0  0  0  0
  131.2442  135.9688  160.5491 C   0  0  0  0  0  0  0  0  0  0  0  0
  131.1439  134.6761  159.7808 C   0  0  0  0  0  0  0  0  0  0  0  0
  132.1484  134.0665  159.1155 C   0  0  0  0  0  0  0  0  0  0  0  0
  131.6574  132.9377  158.5597 N   0  0  0  0  0  0  0  0  0  0  0  0
  132.1585  132.3029  158.0241 H   0  0  0  0  0  0  0  0  0  0  0  0
  130.3013  132.8388  158.8956 N   0  0  0  0  0  0  0  0  0  0  0  0
  129.9837  133.8882  159.6279 C   0  0  0  0  0  0  0  0  0  0  0  0
  128.6508  134.1834  160.1933 C   0  0  0  0  0  0  0  0  0  0  0  0
  127.5355  133.4212  160.0428 C   0  0  0  0  0  0  0  0  0  0  0  0
  126.5009  134.0685  160.7461 C   0  0  0  0  0  0  0  0  0  0  0  0
  127.0318  135.1953  161.2830 C   0  0  0  0  0  0  0  0  0  0  0  0
  126.3477  136.1277  162.0557 N   0  0  0  0  0  0  0  0  0  0  0  0
  127.0235  136.8523  163.0315 C   0  0  0  0  0  0  0  0  0  0  0  0
  126.3329  137.7835  163.8009 C   0  0  0  0  0  0  0  0  0  0  0  0
  127.0164  138.4935  164.7712 C   0  0  0  0  0  0  0  0  0  0  0  0
  128.3752  138.2554  164.9331 C   0  0  0  0  0  0  0  0  0  0  0  0
  128.9980  137.3205  164.1310 C   0  0  0  0  0  0  0  0  0  0  0  0
  128.3198  136.6540  163.2163 N   0  0  0  0  0  0  0  0  0  0  0  0
  128.3320  135.2562  160.9473 O   0  0  0  0  0  0  0  0  0  0  0  0
  133.7990  136.1203  161.9027 H   0  0  0  0  0  0  0  0  0  0  0  0
  134.6259  137.4546  162.7418 H   0  0  0  0  0  0  0  0  0  0  0  0
  132.8608  137.5021  162.5180 H   0  0  0  0  0  0  0  0  0  0  0  0
  133.0246  139.4632  158.0425 H   0  0  0  0  0  0  0  0  0  0  0  0
  130.9916  139.1914  159.7802 H   0  0  0  0  0  0  0  0  0  0  0  0
  131.3299  138.3367  161.3044 H   0  0  0  0  0  0  0  0  0  0  0  0
  129.0819  136.2894  159.1222 H   0  0  0  0  0  0  0  0  0  0  0  0
  129.0439  137.4609  160.4618 H   0  0  0  0  0  0  0  0  0  0  0  0
  129.2752  138.0275  158.7903 H   0  0  0  0  0  0  0  0  0  0  0  0
  130.5278  135.9597  161.3705 H   0  0  0  0  0  0  0  0  0  0  0  0
  132.2527  136.0772  160.9478 H   0  0  0  0  0  0  0  0  0  0  0  0
  133.1663  134.4195  159.0413 H   0  0  0  0  0  0  0  0  0  0  0  0
  127.4583  132.4949  159.4928 H   0  0  0  0  0  0  0  0  0  0  0  0
  125.4787  133.7325  160.8389 H   0  0  0  0  0  0  0  0  0  0  0  0
  125.3982  136.2696  161.9168 H   0  0  0  0  0  0  0  0  0  0  0  0
  125.2767  137.9468  163.6452 H   0  0  0  0  0  0  0  0  0  0  0  0
  126.5060  139.2196  165.3865 H   0  0  0  0  0  0  0  0  0  0  0  0
  128.9386  138.7966  165.6787 H   0  0  0  0  0  0  0  0  0  0  0  0
  130.0544  137.1323  164.2536 H   0  0  0  0  0  0  0  0  0  0  0  0
  1  2  1  0
  1 31  1  0
  1 32  1  0
  1 33  1  0
  2  7  1  0
  2  3  2  0
  3  4  1  0
  4  5  1  0
  4  6  1  0
  6  7  2  0
  6 34  1  0
  7  8  1  0
  8  9  1  0
  8 35  1  0
  8 36  1  0
  9 10  1  6
  9 11  1  0
  9 12  1  0
 11 37  1  0
 11 38  1  0
 11 39  1  0
 12 13  1  0
 12 40  1  0
 12 41  1  0
 13 18  1  0
 13 14  2  0
 14 15  1  0
 14 42  1  0
 15 16  1  0
 15 17  1  0
 17 18  2  0
 18 19  1  0
 19 30  1  0
 19 20  2  0
 20 21  1  0
 20 43  1  0
 21 22  2  0
 21 44  1  0
 22 23  1  0
 22 30  1  0
 23 24  1  0
 23 45  1  0
 24 29  1  0
 24 25  2  0
 25 26  1  0
 25 46  1  0
 26 27  2  0
 26 47  1  0
 27 28  1  0
 27 48  1  0
 28 29  2  0
 28 49  1  0
M  CHG  1   9   1
M  END
>  <DOCK_score>  (1) 
-43.204716

>  <SMILES>  (1) 
Cc1n[nH]cc1C[N@H+](C)Cc1c[nH]nc1-c1ccc(Nc2ccccn2)o1

$$$$
