[NH3+][C@H](Cc1cccc(OCCCBr)c1)C(=O)Nc1cccc(O)c1
     RDKit          3D

 46 47  0  0  1  0  0  0  0  0999 V2000
  130.6737  133.6094  156.8969 N   0  0  0  0  0  0  0  0  0  0  0  0
  129.9850  134.1668  156.4142 H   0  0  0  0  0  0  0  0  0  0  0  0
  131.5981  133.9382  156.6610 H   0  0  0  0  0  0  0  0  0  0  0  0
  130.5793  132.6438  156.6197 H   0  0  0  0  0  0  0  0  0  0  0  0
  130.4682  133.7248  158.3469 C   0  0  2  0  0  0  0  0  0  0  0  0
  130.5700  134.7678  158.6464 H   0  0  0  0  0  0  0  0  0  0  0  0
  131.5125  132.8796  159.0789 C   0  0  0  0  0  0  0  0  0  0  0  0
  131.6354  133.3559  160.5034 C   0  0  0  0  0  0  0  0  0  0  0  0
  130.8361  132.8040  161.4878 C   0  0  0  0  0  0  0  0  0  0  0  0
  130.9460  133.2390  162.7953 C   0  0  0  0  0  0  0  0  0  0  0  0
  131.8600  134.2221  163.1230 C   0  0  0  0  0  0  0  0  0  0  0  0
  132.6585  134.7817  162.1363 C   0  0  0  0  0  0  0  0  0  0  0  0
  133.5535  135.7533  162.4550 O   0  0  0  0  0  0  0  0  0  0  0  0
  134.1113  135.7158  163.7701 C   0  0  0  0  0  0  0  0  0  0  0  0
  135.5230  136.3051  163.7423 C   0  0  0  0  0  0  0  0  0  0  0  0
  136.1201  136.2649  165.1504 C   0  0  0  0  0  0  0  0  0  0  0  0
  137.9341  137.0221  165.1148 Br  0  0  0  0  0  0  0  0  0  0  0  0
  132.5458  134.3436  160.8247 C   0  0  0  0  0  0  0  0  0  0  0  0
  129.0877  133.2336  158.6992 C   0  0  0  0  0  0  0  0  0  0  0  0
  128.5620  132.3698  158.0293 O   0  0  0  0  0  0  0  0  0  0  0  0
  128.4373  133.7541  159.7587 N   0  0  0  0  0  0  0  0  0  0  0  0
  127.1555  133.2980  160.0858 C   0  0  0  0  0  0  0  0  0  0  0  0
  126.7868  131.9908  159.7935 C   0  0  0  0  0  0  0  0  0  0  0  0
  125.5237  131.5387  160.1221 C   0  0  0  0  0  0  0  0  0  0  0  0
  124.6196  132.3883  160.7311 C   0  0  0  0  0  0  0  0  0  0  0  0
  124.9804  133.6967  161.0202 C   0  0  0  0  0  0  0  0  0  0  0  0
  124.0903  134.5309  161.6190 O   0  0  0  0  0  0  0  0  0  0  0  0
  126.2493  134.1522  160.6975 C   0  0  0  0  0  0  0  0  0  0  0  0
  132.4758  132.9786  158.5784 H   0  0  0  0  0  0  0  0  0  0  0  0
  131.2044  131.8340  159.0707 H   0  0  0  0  0  0  0  0  0  0  0  0
  130.1245  132.0321  161.2346 H   0  0  0  0  0  0  0  0  0  0  0  0
  130.3204  132.8067  163.5622 H   0  0  0  0  0  0  0  0  0  0  0  0
  131.9489  134.5583  164.1455 H   0  0  0  0  0  0  0  0  0  0  0  0
  133.4871  136.2999  164.4463 H   0  0  0  0  0  0  0  0  0  0  0  0
  134.1552  134.6834  164.1168 H   0  0  0  0  0  0  0  0  0  0  0  0
  136.1473  135.7210  163.0662 H   0  0  0  0  0  0  0  0  0  0  0  0
  135.4790  137.3376  163.3957 H   0  0  0  0  0  0  0  0  0  0  0  0
  135.4959  136.8490  165.8267 H   0  0  0  0  0  0  0  0  0  0  0  0
  136.1642  135.2325  165.4971 H   0  0  0  0  0  0  0  0  0  0  0  0
  133.1693  134.7748  160.0554 H   0  0  0  0  0  0  0  0  0  0  0  0
  128.8576  134.4449  160.2944 H   0  0  0  0  0  0  0  0  0  0  0  0
  127.4899  131.3262  159.3134 H   0  0  0  0  0  0  0  0  0  0  0  0
  125.2404  130.5208  159.8985 H   0  0  0  0  0  0  0  0  0  0  0  0
  123.6310  132.0334  160.9825 H   0  0  0  0  0  0  0  0  0  0  0  0
  124.4323  135.4210  161.7801 H   0  0  0  0  0  0  0  0  0  0  0  0
  126.5320  135.1700  160.9221 H   0  0  0  0  0  0  0  0  0  0  0  0
  1  2  1  0
  1  3  1  0
  1  4  1  0
  1  5  1  0
  5  6  1  1
  5  7  1  0
  5 19  1  0
  7  8  1  0
  7 29  1  0
  7 30  1  0
  8 18  1  0
  8  9  2  0
  9 10  1  0
  9 31  1  0
 10 11  2  0
 10 32  1  0
 11 12  1  0
 11 33  1  0
 12 13  1  0
 12 18  2  0
 13 14  1  0
 14 15  1  0
 14 34  1  0
 14 35  1  0
 15 16  1  0
 15 36  1  0
 15 37  1  0
 16 17  1  0
 16 38  1  0
 16 39  1  0
 18 40  1  0
 19 20  2  0
 19 21  1  0
 21 22  1  0
 21 41  1  0
 22 28  1  0
 22 23  2  0
 23 24  1  0
 23 42  1  0
 24 25  2  0
 24 43  1  0
 25 26  1  0
 25 44  1  0
 26 27  1  0
 26 28  2  0
 27 45  1  0
 28 46  1  0
M  CHG  1   1   1
M  END
>  <DOCK_score>  (1) 
-46.546932

>  <SMILES>  (1) 
[NH3+][C@H](Cc1cccc(OCCCBr)c1)C(=O)Nc1cccc(O)c1

$$$$
