O=c1[nH]cc(Nc2ccc(-c3n[nH]cc3C[NH2+]Cc3cccs3)o2)c2ccccc12
     RDKit          3D

 50 54  0  0  0  0  0  0  0  0999 V2000
  129.8607  138.3681  166.2009 O   0  0  0  0  0  0  0  0  0  0  0  0
  129.0798  138.0222  165.3321 C   0  0  0  0  0  0  0  0  0  0  0  0
  129.1836  136.8013  164.7712 N   0  0  0  0  0  0  0  0  0  0  0  0
  129.8882  136.2063  165.0719 H   0  0  0  0  0  0  0  0  0  0  0  0
  128.3252  136.3695  163.7955 C   0  0  0  0  0  0  0  0  0  0  0  0
  127.3252  137.1419  163.3235 C   0  0  0  0  0  0  0  0  0  0  0  0
  126.4727  136.6613  162.3202 N   0  0  0  0  0  0  0  0  0  0  0  0
  126.9438  135.7442  161.3888 C   0  0  0  0  0  0  0  0  0  0  0  0
  126.2020  134.7926  160.7679 C   0  0  0  0  0  0  0  0  0  0  0  0
  127.0693  134.0918  159.9075 C   0  0  0  0  0  0  0  0  0  0  0  0
  128.3017  134.6465  160.0530 C   0  0  0  0  0  0  0  0  0  0  0  0
  129.5285  134.2276  159.3443 C   0  0  0  0  0  0  0  0  0  0  0  0
  129.6207  133.2520  158.4619 N   0  0  0  0  0  0  0  0  0  0  0  0
  130.9512  133.1806  158.0304 N   0  0  0  0  0  0  0  0  0  0  0  0
  131.3056  132.5536  157.3807 H   0  0  0  0  0  0  0  0  0  0  0  0
  131.6541  134.1403  158.6702 C   0  0  0  0  0  0  0  0  0  0  0  0
  130.8096  134.7998  159.4917 C   0  0  0  0  0  0  0  0  0  0  0  0
  131.1700  135.9474  160.3995 C   0  0  0  0  0  0  0  0  0  0  0  0
  131.0046  137.2150  159.6757 N   0  0  0  0  0  0  0  0  0  0  0  0
  131.6093  137.2225  158.8681 H   0  0  0  0  0  0  0  0  0  0  0  0
  130.0451  137.3097  159.3784 H   0  0  0  0  0  0  0  0  0  0  0  0
  131.3558  138.3336  160.5607 C   0  0  0  0  0  0  0  0  0  0  0  0
  132.7889  138.1921  161.0048 C   0  0  0  0  0  0  0  0  0  0  0  0
  133.1957  137.5340  162.0914 C   0  0  0  0  0  0  0  0  0  0  0  0
  134.5645  137.5384  162.2976 C   0  0  0  0  0  0  0  0  0  0  0  0
  135.2693  138.2000  161.3785 C   0  0  0  0  0  0  0  0  0  0  0  0
  134.1815  138.8627  160.1655 S   0  0  0  0  0  0  0  0  0  0  0  0
  128.2115  135.6494  160.9515 O   0  0  0  0  0  0  0  0  0  0  0  0
  127.1351  138.4877  163.8753 C   0  0  0  0  0  0  0  0  0  0  0  0
  126.1157  139.3311  163.4324 C   0  0  0  0  0  0  0  0  0  0  0  0
  125.9848  140.5758  163.9826 C   0  0  0  0  0  0  0  0  0  0  0  0
  126.8527  141.0110  164.9760 C   0  0  0  0  0  0  0  0  0  0  0  0
  127.8605  140.2060  165.4292 C   0  0  0  0  0  0  0  0  0  0  0  0
  128.0183  138.9306  164.8862 C   0  0  0  0  0  0  0  0  0  0  0  0
  128.4560  135.3783  163.3871 H   0  0  0  0  0  0  0  0  0  0  0  0
  125.5539  136.9689  162.2760 H   0  0  0  0  0  0  0  0  0  0  0  0
  125.1463  134.6102  160.9045 H   0  0  0  0  0  0  0  0  0  0  0  0
  126.8060  133.2701  159.2581 H   0  0  0  0  0  0  0  0  0  0  0  0
  132.7080  134.3428  158.5482 H   0  0  0  0  0  0  0  0  0  0  0  0
  132.2065  135.8450  160.7208 H   0  0  0  0  0  0  0  0  0  0  0  0
  130.5167  135.9394  161.2721 H   0  0  0  0  0  0  0  0  0  0  0  0
  131.2330  139.2741  160.0236 H   0  0  0  0  0  0  0  0  0  0  0  0
  130.7025  138.3255  161.4332 H   0  0  0  0  0  0  0  0  0  0  0  0
  132.5092  137.0359  162.7600 H   0  0  0  0  0  0  0  0  0  0  0  0
  135.0269  137.0433  163.1388 H   0  0  0  0  0  0  0  0  0  0  0  0
  136.3438  138.3081  161.3766 H   0  0  0  0  0  0  0  0  0  0  0  0
  125.4355  139.0031  162.6604 H   0  0  0  0  0  0  0  0  0  0  0  0
  125.1962  141.2296  163.6402 H   0  0  0  0  0  0  0  0  0  0  0  0
  126.7295  141.9983  165.3960 H   0  0  0  0  0  0  0  0  0  0  0  0
  128.5294  140.5546  166.2023 H   0  0  0  0  0  0  0  0  0  0  0  0
  1  2  2  0
  2 34  1  0
  2  3  1  0
  3  4  1  0
  3  5  1  0
  5  6  2  0
  5 35  1  0
  6  7  1  0
  6 29  1  0
  7  8  1  0
  7 36  1  0
  8 28  1  0
  8  9  2  0
  9 10  1  0
  9 37  1  0
 10 11  2  0
 10 38  1  0
 11 12  1  0
 11 28  1  0
 12 17  1  0
 12 13  2  0
 13 14  1  0
 14 15  1  0
 14 16  1  0
 16 17  2  0
 16 39  1  0
 17 18  1  0
 18 19  1  0
 18 40  1  0
 18 41  1  0
 19 20  1  0
 19 21  1  0
 19 22  1  0
 22 23  1  0
 22 42  1  0
 22 43  1  0
 23 27  1  0
 23 24  2  0
 24 25  1  0
 24 44  1  0
 25 26  2  0
 25 45  1  0
 26 27  1  0
 26 46  1  0
 29 34  2  0
 29 30  1  0
 30 31  2  0
 30 47  1  0
 31 32  1  0
 31 48  1  0
 32 33  2  0
 32 49  1  0
 33 34  1  0
 33 50  1  0
M  CHG  1  19   1
M  END
>  <DOCK_score>  (1) 
-42.218113

>  <SMILES>  (1) 
O=c1[nH]cc(Nc2ccc(-c3n[nH]cc3C[NH2+]Cc3cccs3)o2)c2ccccc12

$$$$
