Cn1nccc1CNc1ccc(-c2n[nH]cc2C[NH2+]CC2CC3C[C@@H]3C2)o1
     RDKit          3D

 54 58  0  0  1  0  0  0  0  0999 V2000
  126.8786  137.0340  165.9366 C   0  0  0  0  0  0  0  0  0  0  0  0
  126.3132  138.1574  165.1851 N   0  0  0  0  0  0  0  0  0  0  0  0
  125.5144  139.1814  165.7102 N   0  0  0  0  0  0  0  0  0  0  0  0
  125.2034  139.9975  164.7360 C   0  0  0  0  0  0  0  0  0  0  0  0
  125.7973  139.5228  163.5620 C   0  0  0  0  0  0  0  0  0  0  0  0
  126.4694  138.3881  163.8648 C   0  0  0  0  0  0  0  0  0  0  0  0
  127.2567  137.5378  162.9013 C   0  0  0  0  0  0  0  0  0  0  0  0
  126.3808  136.5146  162.3248 N   0  0  0  0  0  0  0  0  0  0  0  0
  126.8868  135.6060  161.4024 C   0  0  0  0  0  0  0  0  0  0  0  0
  126.1837  134.6161  160.7978 C   0  0  0  0  0  0  0  0  0  0  0  0
  127.0764  133.9422  159.9410 C   0  0  0  0  0  0  0  0  0  0  0  0
  128.2841  134.5518  160.0725 C   0  0  0  0  0  0  0  0  0  0  0  0
  129.5242  134.1777  159.3617 C   0  0  0  0  0  0  0  0  0  0  0  0
  129.6539  133.1968  158.4902 N   0  0  0  0  0  0  0  0  0  0  0  0
  130.9839  133.1785  158.0513 N   0  0  0  0  0  0  0  0  0  0  0  0
  131.3618  132.5597  157.4069 H   0  0  0  0  0  0  0  0  0  0  0  0
  131.6480  134.1750  158.6761 C   0  0  0  0  0  0  0  0  0  0  0  0
  130.7799  134.8070  159.4947 C   0  0  0  0  0  0  0  0  0  0  0  0
  131.0947  135.9801  160.3867 C   0  0  0  0  0  0  0  0  0  0  0  0
  130.8703  137.2304  159.6490 N   0  0  0  0  0  0  0  0  0  0  0  0
  131.4697  137.2545  158.8377 H   0  0  0  0  0  0  0  0  0  0  0  0
  129.9060  137.2797  159.3564 H   0  0  0  0  0  0  0  0  0  0  0  0
  131.1771  138.3740  160.5186 C   0  0  0  0  0  0  0  0  0  0  0  0
  132.6394  138.2992  160.9626 C   0  0  2  0  0  0  0  0  0  0  0  0
  133.0421  139.5750  161.7429 C   0  0  0  0  0  0  0  0  0  0  0  0
  134.5746  139.6492  161.5816 C   0  0  2  0  0  0  0  0  0  0  0  0
  135.1384  140.3738  160.3578 C   0  0  0  0  0  0  0  0  0  0  0  0
  134.9211  138.8602  160.3070 C   0  0  2  0  0  0  0  0  0  0  0  0
  135.7858  138.1987  160.2523 H   0  0  0  0  0  0  0  0  0  0  0  0
  133.5872  138.3340  159.7381 C   0  0  0  0  0  0  0  0  0  0  0  0
  128.1547  135.5610  160.9593 O   0  0  0  0  0  0  0  0  0  0  0  0
  127.8609  137.3108  166.3197 H   0  0  0  0  0  0  0  0  0  0  0  0
  126.2206  136.7861  166.7695 H   0  0  0  0  0  0  0  0  0  0  0  0
  126.9752  136.1694  165.2800 H   0  0  0  0  0  0  0  0  0  0  0  0
  124.5962  140.8862  164.8239 H   0  0  0  0  0  0  0  0  0  0  0  0
  125.7296  139.9799  162.5859 H   0  0  0  0  0  0  0  0  0  0  0  0
  128.0790  137.0559  163.4301 H   0  0  0  0  0  0  0  0  0  0  0  0
  127.6553  138.1657  162.1046 H   0  0  0  0  0  0  0  0  0  0  0  0
  125.4479  136.4713  162.5866 H   0  0  0  0  0  0  0  0  0  0  0  0
  125.1376  134.3901  160.9424 H   0  0  0  0  0  0  0  0  0  0  0  0
  126.8457  133.1016  159.3034 H   0  0  0  0  0  0  0  0  0  0  0  0
  132.6913  134.4218  158.5452 H   0  0  0  0  0  0  0  0  0  0  0  0
  132.1365  135.9268  160.7029 H   0  0  0  0  0  0  0  0  0  0  0  0
  130.4473  135.9542  161.2633 H   0  0  0  0  0  0  0  0  0  0  0  0
  131.0105  139.3017  159.9712 H   0  0  0  0  0  0  0  0  0  0  0  0
  130.5296  138.3479  161.3951 H   0  0  0  0  0  0  0  0  0  0  0  0
  132.8146  137.4053  161.5613 H   0  0  0  0  0  0  0  0  0  0  0  0
  132.5695  140.4547  161.3058 H   0  0  0  0  0  0  0  0  0  0  0  0
  132.7733  139.4796  162.7950 H   0  0  0  0  0  0  0  0  0  0  0  0
  135.1842  139.5685  162.4816 H   0  0  0  0  0  0  0  0  0  0  0  0
  136.1662  140.7324  160.4154 H   0  0  0  0  0  0  0  0  0  0  0  0
  134.4541  140.9995  159.7849 H   0  0  0  0  0  0  0  0  0  0  0  0
  133.7163  137.3329  159.3269 H   0  0  0  0  0  0  0  0  0  0  0  0
  133.2015  139.0114  158.9762 H   0  0  0  0  0  0  0  0  0  0  0  0
  1  2  1  0
  1 32  1  0
  1 33  1  0
  1 34  1  0
  2  6  1  0
  2  3  1  0
  3  4  2  0
  4  5  1  0
  4 35  1  0
  5  6  2  0
  5 36  1  0
  6  7  1  0
  7  8  1  0
  7 37  1  0
  7 38  1  0
  8  9  1  0
  8 39  1  0
  9 31  1  0
  9 10  2  0
 10 11  1  0
 10 40  1  0
 11 12  2  0
 11 41  1  0
 12 13  1  0
 12 31  1  0
 13 18  1  0
 13 14  2  0
 14 15  1  0
 15 16  1  0
 15 17  1  0
 17 18  2  0
 17 42  1  0
 18 19  1  0
 19 20  1  0
 19 43  1  0
 19 44  1  0
 20 21  1  0
 20 22  1  0
 20 23  1  0
 23 24  1  0
 23 45  1  0
 23 46  1  0
 24 30  1  0
 24 25  1  0
 24 47  1  1
 25 26  1  0
 25 48  1  0
 25 49  1  0
 26 28  1  0
 26 27  1  0
 26 50  1  1
 27 28  1  0
 27 51  1  0
 27 52  1  0
 28 29  1  1
 28 30  1  0
 30 53  1  0
 30 54  1  0
M  CHG  1  20   1
M  END
>  <DOCK_score>  (1) 
-44.996822

>  <SMILES>  (1) 
Cn1nccc1CNc1ccc(-c2n[nH]cc2C[NH2+]CC2CC3C[C@@H]3C2)o1

$$$$
