O=C1CC[C@H](NC(NC2CC=CC2)=[NH+]Cc2nc(-c3ccc(F)cc3)c[nH]2)CN1
     RDKit          3D

 55 58  0  0  1  0  0  0  0  0999 V2000
  124.3173  133.4645  160.7942 O   0  0  0  0  0  0  0  0  0  0  0  0
  125.4994  133.6410  160.5880 C   0  0  0  0  0  0  0  0  0  0  0  0
  126.2707  132.5527  159.8981 C   0  0  0  0  0  0  0  0  0  0  0  0
  127.7715  132.7580  160.1186 C   0  0  0  0  0  0  0  0  0  0  0  0
  128.1134  134.2178  159.7967 C   0  0  2  0  0  0  0  0  0  0  0  0
  127.7355  134.4721  158.8063 H   0  0  0  0  0  0  0  0  0  0  0  0
  129.5665  134.4012  159.8303 N   0  0  0  0  0  0  0  0  0  0  0  0
  130.3704  133.6787  158.9808 C   0  0  0  0  0  0  0  0  0  0  0  0
  129.8947  133.2862  157.7520 N   0  0  0  0  0  0  0  0  0  0  0  0
  130.7512  132.5164  156.8467 C   0  0  0  0  0  0  0  0  0  0  0  0
  130.2732  132.6507  155.3821 C   0  0  0  0  0  0  0  0  0  0  0  0
  130.4969  131.2827  154.7789 C   0  0  0  0  0  0  0  0  0  0  0  0
  130.6684  130.3815  155.7074 C   0  0  0  0  0  0  0  0  0  0  0  0
  130.5872  130.9973  157.0849 C   0  0  0  0  0  0  0  0  0  0  0  0
  131.5837  133.3660  159.3401 N   0  0  0  0  0  0  0  0  0  0  0  0
  132.1508  132.8563  158.7406 H   0  0  0  0  0  0  0  0  0  0  0  0
  132.0907  133.7844  160.6493 C   0  0  0  0  0  0  0  0  0  0  0  0
  132.0595  135.2882  160.7430 C   0  0  0  0  0  0  0  0  0  0  0  0
  131.0578  135.9988  161.1801 N   0  0  0  0  0  0  0  0  0  0  0  0
  131.3837  137.3061  161.1235 C   0  0  0  0  0  0  0  0  0  0  0  0
  130.5209  138.4419  161.5326 C   0  0  0  0  0  0  0  0  0  0  0  0
  130.6509  139.6796  160.9056 C   0  0  0  0  0  0  0  0  0  0  0  0
  129.8434  140.7317  161.2862 C   0  0  0  0  0  0  0  0  0  0  0  0
  128.9111  140.5616  162.2968 C   0  0  0  0  0  0  0  0  0  0  0  0
  128.1257  141.5958  162.6696 F   0  0  0  0  0  0  0  0  0  0  0  0
  128.7820  139.3345  162.9266 C   0  0  0  0  0  0  0  0  0  0  0  0
  129.5821  138.2755  162.5489 C   0  0  0  0  0  0  0  0  0  0  0  0
  132.6424  137.3967  160.6200 C   0  0  0  0  0  0  0  0  0  0  0  0
  133.0629  136.1178  160.3819 N   0  0  0  0  0  0  0  0  0  0  0  0
  133.9235  135.8544  160.0202 H   0  0  0  0  0  0  0  0  0  0  0  0
  127.4584  135.1169  160.8459 C   0  0  0  0  0  0  0  0  0  0  0  0
  126.0447  134.7910  160.9863 N   0  0  0  0  0  0  0  0  0  0  0  0
  126.0549  132.5772  158.8299 H   0  0  0  0  0  0  0  0  0  0  0  0
  125.9741  131.5855  160.3040 H   0  0  0  0  0  0  0  0  0  0  0  0
  128.3331  132.0957  159.4597 H   0  0  0  0  0  0  0  0  0  0  0  0
  128.0227  132.5426  161.1571 H   0  0  0  0  0  0  0  0  0  0  0  0
  129.9614  135.0323  160.4521 H   0  0  0  0  0  0  0  0  0  0  0  0
  128.9917  133.5190  157.4846 H   0  0  0  0  0  0  0  0  0  0  0  0
  131.7938  132.8179  156.9471 H   0  0  0  0  0  0  0  0  0  0  0  0
  129.2154  132.9113  155.3503 H   0  0  0  0  0  0  0  0  0  0  0  0
  130.8657  133.3996  154.8566 H   0  0  0  0  0  0  0  0  0  0  0  0
  130.5129  131.0781  153.7185 H   0  0  0  0  0  0  0  0  0  0  0  0
  130.8448  129.3334  155.5163 H   0  0  0  0  0  0  0  0  0  0  0  0
  131.3927  130.6228  157.7163 H   0  0  0  0  0  0  0  0  0  0  0  0
  129.6196  130.7867  157.5403 H   0  0  0  0  0  0  0  0  0  0  0  0
  133.1157  133.4341  160.7707 H   0  0  0  0  0  0  0  0  0  0  0  0
  131.4658  133.3584  161.4340 H   0  0  0  0  0  0  0  0  0  0  0  0
  131.3799  139.8140  160.1202 H   0  0  0  0  0  0  0  0  0  0  0  0
  129.9410  141.6903  160.7985 H   0  0  0  0  0  0  0  0  0  0  0  0
  128.0540  139.2062  163.7138 H   0  0  0  0  0  0  0  0  0  0  0  0
  129.4811  137.3192  163.0406 H   0  0  0  0  0  0  0  0  0  0  0  0
  133.2021  138.3031  160.4425 H   0  0  0  0  0  0  0  0  0  0  0  0
  127.9577  134.9749  161.8044 H   0  0  0  0  0  0  0  0  0  0  0  0
  127.5594  136.1586  160.5414 H   0  0  0  0  0  0  0  0  0  0  0  0
  125.4642  135.4518  161.3950 H   0  0  0  0  0  0  0  0  0  0  0  0
  1  2  2  0
  2 32  1  0
  2  3  1  0
  3  4  1  0
  3 33  1  0
  3 34  1  0
  4  5  1  0
  4 35  1  0
  4 36  1  0
  5  6  1  6
  5  7  1  0
  5 31  1  0
  7 37  1  0
  8  7  1  0
  8  9  1  0
  8 15  2  0
  9 10  1  0
  9 38  1  0
 10 14  1  0
 10 11  1  0
 10 39  1  0
 11 12  1  0
 11 40  1  0
 11 41  1  0
 12 13  2  0
 12 42  1  0
 13 14  1  0
 13 43  1  0
 14 44  1  0
 14 45  1  0
 15 16  1  0
 15 17  1  0
 17 18  1  0
 17 46  1  0
 17 47  1  0
 18 29  1  0
 18 19  2  0
 19 20  1  0
 20 21  1  0
 20 28  2  0
 21 27  1  0
 21 22  2  0
 22 23  1  0
 22 48  1  0
 23 24  2  0
 23 49  1  0
 24 25  1  0
 24 26  1  0
 26 27  2  0
 26 50  1  0
 27 51  1  0
 28 29  1  0
 28 52  1  0
 29 30  1  0
 31 32  1  0
 31 53  1  0
 31 54  1  0
 32 55  1  0
M  CHG  1  15   1
M  END
>  <DOCK_score>  (1) 
-40.921913

>  <SMILES>  (1) 
O=C1CC[C@H](NC(NC2CC=CC2)=[NH+]Cc2nc(-c3ccc(F)cc3)c[nH]2)CN1

$$$$
