Cc1c[nH]c(Nc2ccc(Nc3ccc(Nc4ccc(N)cc4)cc3)cc2)[nH+]1
     RDKit          3D

 51 54  0  0  1  0  0  0  0  0999 V2000
  130.1947  131.9149  154.7158 C   0  0  0  0  0  0  0  0  0  0  0  0
  129.9122  132.5804  156.0381 C   0  0  0  0  0  0  0  0  0  0  0  0
  129.4646  131.9679  157.1476 C   0  0  0  0  0  0  0  0  0  0  0  0
  129.3440  132.9353  158.1191 N   0  0  0  0  0  0  0  0  0  0  0  0
  129.0423  132.8022  159.0313 H   0  0  0  0  0  0  0  0  0  0  0  0
  129.7274  134.1136  157.5571 C   0  0  0  0  0  0  0  0  0  0  0  0
  129.7558  135.3438  158.1940 N   0  0  0  0  0  0  0  0  0  0  0  0
  128.8493  135.6196  159.2250 C   0  0  0  0  0  0  0  0  0  0  0  0
  129.2070  136.4841  160.2515 C   0  0  0  0  0  0  0  0  0  0  0  0
  128.3114  136.7599  161.2654 C   0  0  0  0  0  0  0  0  0  0  0  0
  127.0565  136.1643  161.2646 C   0  0  0  0  0  0  0  0  0  0  0  0
  126.1505  136.4400  162.2949 N   0  0  0  0  0  0  0  0  0  0  0  0
  126.4857  136.1402  163.6205 C   0  0  0  0  0  0  0  0  0  0  0  0
  125.9727  136.9090  164.6574 C   0  0  0  0  0  0  0  0  0  0  0  0
  126.2995  136.6103  165.9651 C   0  0  0  0  0  0  0  0  0  0  0  0
  127.1498  135.5479  166.2432 C   0  0  0  0  0  0  0  0  0  0  0  0
  127.4852  135.2484  167.5686 N   0  0  0  0  0  0  0  0  0  0  0  0
  126.5790  135.5240  168.5994 C   0  0  0  0  0  0  0  0  0  0  0  0
  126.9364  136.3891  169.6255 C   0  0  0  0  0  0  0  0  0  0  0  0
  126.0403  136.6654  170.6390 C   0  0  0  0  0  0  0  0  0  0  0  0
  124.7862  136.0691  170.6387 C   0  0  0  0  0  0  0  0  0  0  0  0
  123.8801  136.3444  171.6696 N   0  0  0  0  0  0  0  0  0  0  0  0
  124.4307  135.2001  169.6156 C   0  0  0  0  0  0  0  0  0  0  0  0
  125.3244  134.9280  168.5988 C   0  0  0  0  0  0  0  0  0  0  0  0
  127.6669  134.7822  165.2059 C   0  0  0  0  0  0  0  0  0  0  0  0
  127.3356  135.0774  163.8985 C   0  0  0  0  0  0  0  0  0  0  0  0
  126.7009  135.2955  160.2407 C   0  0  0  0  0  0  0  0  0  0  0  0
  127.5945  135.0240  159.2241 C   0  0  0  0  0  0  0  0  0  0  0  0
  130.0702  133.8864  156.3111 N   0  0  0  0  0  0  0  0  0  0  0  0
  130.3863  134.5563  155.6849 H   0  0  0  0  0  0  0  0  0  0  0  0
  129.2940  131.9291  154.1022 H   0  0  0  0  0  0  0  0  0  0  0  0
  130.9927  132.4512  154.2024 H   0  0  0  0  0  0  0  0  0  0  0  0
  130.5017  130.8831  154.8867 H   0  0  0  0  0  0  0  0  0  0  0  0
  129.2425  130.9166  157.2563 H   0  0  0  0  0  0  0  0  0  0  0  0
  130.4038  136.0139  157.9258 H   0  0  0  0  0  0  0  0  0  0  0  0
  130.1843  136.9438  160.2544 H   0  0  0  0  0  0  0  0  0  0  0  0
  128.5881  137.4355  162.0613 H   0  0  0  0  0  0  0  0  0  0  0  0
  125.2903  136.8388  162.0905 H   0  0  0  0  0  0  0  0  0  0  0  0
  125.3152  137.7379  164.4408 H   0  0  0  0  0  0  0  0  0  0  0  0
  125.8971  137.2054  166.7716 H   0  0  0  0  0  0  0  0  0  0  0  0
  128.3456  134.8498  167.7729 H   0  0  0  0  0  0  0  0  0  0  0  0
  127.9137  136.8487  169.6284 H   0  0  0  0  0  0  0  0  0  0  0  0
  126.3167  137.3411  171.4348 H   0  0  0  0  0  0  0  0  0  0  0  0
  123.0040  135.9283  171.6693 H   0  0  0  0  0  0  0  0  0  0  0  0
  124.1284  136.9514  172.3843 H   0  0  0  0  0  0  0  0  0  0  0  0
  123.4551  134.7366  169.6152 H   0  0  0  0  0  0  0  0  0  0  0  0
  125.0481  134.2516  167.8035 H   0  0  0  0  0  0  0  0  0  0  0  0
  128.3277  133.9558  165.4222 H   0  0  0  0  0  0  0  0  0  0  0  0
  127.7377  134.4821  163.0921 H   0  0  0  0  0  0  0  0  0  0  0  0
  125.7250  134.8328  160.2399 H   0  0  0  0  0  0  0  0  0  0  0  0
  127.3181  134.3483  158.4283 H   0  0  0  0  0  0  0  0  0  0  0  0
  1  2  1  0
  1 31  1  0
  1 32  1  0
  1 33  1  0
  2 29  1  0
  2  3  2  0
  3  4  1  0
  3 34  1  0
  4  5  1  0
  4  6  1  0
  6  7  1  0
  6 29  2  0
  7  8  1  0
  7 35  1  0
  8 28  1  0
  8  9  2  0
  9 10  1  0
  9 36  1  0
 10 11  2  0
 10 37  1  0
 11 12  1  0
 11 27  1  0
 12 13  1  0
 12 38  1  0
 13 26  1  0
 13 14  2  0
 14 15  1  0
 14 39  1  0
 15 16  2  0
 15 40  1  0
 16 17  1  0
 16 25  1  0
 17 18  1  0
 17 41  1  0
 18 24  1  0
 18 19  2  0
 19 20  1  0
 19 42  1  0
 20 21  2  0
 20 43  1  0
 21 22  1  0
 21 23  1  0
 22 44  1  0
 22 45  1  0
 23 24  2  0
 23 46  1  0
 24 47  1  0
 25 26  2  0
 25 48  1  0
 26 49  1  0
 27 28  2  0
 27 50  1  0
 28 51  1  0
 29 30  1  0
M  CHG  1  29   1
M  END
>  <DOCK_score>  (1) 
-55.80225

>  <SMILES>  (1) 
Cc1c[nH]c(Nc2ccc(Nc3ccc(Nc4ccc(N)cc4)cc3)cc2)[nH+]1

$$$$
