O[C@@H]1C[C@H](Nc2ccc(C[NH2+]C[C@H]3C=CCC3)o2)C[C@@H](O)[C@H]1O
     RDKit          3D

 50 52  0  0  1  0  0  0  0  0999 V2000
  126.2529  135.9892  160.5803 O   0  0  0  0  0  0  0  0  0  0  0  0
  126.1985  134.5885  160.8575 C   0  0  2  0  0  0  0  0  0  0  0  0
  126.5768  134.4021  161.8626 H   0  0  0  0  0  0  0  0  0  0  0  0
  127.0576  133.8337  159.8411 C   0  0  0  0  0  0  0  0  0  0  0  0
  126.9994  132.3338  160.1379 C   0  0  2  0  0  0  0  0  0  0  0  0
  127.3777  132.1474  161.1430 H   0  0  0  0  0  0  0  0  0  0  0  0
  127.8220  131.6112  159.1646 N   0  0  0  0  0  0  0  0  0  0  0  0
  129.0477  132.1359  158.7632 C   0  0  0  0  0  0  0  0  0  0  0  0
  129.6303  131.9547  157.5547 C   0  0  0  0  0  0  0  0  0  0  0  0
  130.8552  132.6610  157.5822 C   0  0  0  0  0  0  0  0  0  0  0  0
  130.9519  133.2301  158.7964 C   0  0  0  0  0  0  0  0  0  0  0  0
  132.0959  134.0840  159.2794 C   0  0  0  0  0  0  0  0  0  0  0  0
  131.5658  135.2721  159.9617 N   0  0  0  0  0  0  0  0  0  0  0  0
  130.9974  135.8034  159.3192 H   0  0  0  0  0  0  0  0  0  0  0  0
  131.0042  134.9853  160.7493 H   0  0  0  0  0  0  0  0  0  0  0  0
  132.6809  136.1045  160.4326 C   0  0  0  0  0  0  0  0  0  0  0  0
  132.1289  137.3420  161.1432 C   0  0  1  0  0  0  0  0  0  0  0  0
  131.2647  137.0756  161.7518 H   0  0  0  0  0  0  0  0  0  0  0  0
  133.1991  137.9788  161.9988 C   0  0  0  0  0  0  0  0  0  0  0  0
  133.2114  139.2753  161.8485 C   0  0  0  0  0  0  0  0  0  0  0  0
  132.1514  139.7193  160.8673 C   0  0  0  0  0  0  0  0  0  0  0  0
  131.7472  138.4296  160.1123 C   0  0  0  0  0  0  0  0  0  0  0  0
  129.8550  132.9093  159.5084 O   0  0  0  0  0  0  0  0  0  0  0  0
  125.5511  131.8505  160.0403 C   0  0  0  0  0  0  0  0  0  0  0  0
  124.6920  132.6053  161.0566 C   0  0  1  0  0  0  0  0  0  0  0  0
  123.6601  132.2609  160.9872 H   0  0  0  0  0  0  0  0  0  0  0  0
  125.1878  132.3609  162.3744 O   0  0  0  0  0  0  0  0  0  0  0  0
  124.7501  134.1051  160.7598 C   0  0  1  0  0  0  0  0  0  0  0  0
  124.3719  134.2915  159.7548 H   0  0  0  0  0  0  0  0  0  0  0  0
  123.9478  134.8101  161.7092 O   0  0  0  0  0  0  0  0  0  0  0  0
  125.7298  136.5309  161.1871 H   0  0  0  0  0  0  0  0  0  0  0  0
  128.0895  134.1780  159.9106 H   0  0  0  0  0  0  0  0  0  0  0  0
  126.6793  134.0201  158.8360 H   0  0  0  0  0  0  0  0  0  0  0  0
  127.5129  130.7672  158.7999 H   0  0  0  0  0  0  0  0  0  0  0  0
  129.2377  131.3781  156.7304 H   0  0  0  0  0  0  0  0  0  0  0  0
  131.5756  132.7303  156.7806 H   0  0  0  0  0  0  0  0  0  0  0  0
  132.7098  133.5102  159.9735 H   0  0  0  0  0  0  0  0  0  0  0  0
  132.7024  134.3939  158.4284 H   0  0  0  0  0  0  0  0  0  0  0  0
  133.2948  135.5306  161.1266 H   0  0  0  0  0  0  0  0  0  0  0  0
  133.2876  136.4144  159.5817 H   0  0  0  0  0  0  0  0  0  0  0  0
  133.8660  137.4330  162.6499 H   0  0  0  0  0  0  0  0  0  0  0  0
  133.8898  139.9431  162.3586 H   0  0  0  0  0  0  0  0  0  0  0  0
  131.2929  140.1322  161.3970 H   0  0  0  0  0  0  0  0  0  0  0  0
  132.5601  140.4541  160.1736 H   0  0  0  0  0  0  0  0  0  0  0  0
  132.3234  138.3175  159.1937 H   0  0  0  0  0  0  0  0  0  0  0  0
  130.6771  138.4143  159.9056 H   0  0  0  0  0  0  0  0  0  0  0  0
  125.1728  132.0370  159.0352 H   0  0  0  0  0  0  0  0  0  0  0  0
  125.5095  130.7820  160.2517 H   0  0  0  0  0  0  0  0  0  0  0  0
  126.1030  132.6431  162.5089 H   0  0  0  0  0  0  0  0  0  0  0  0
  123.9380  135.7685  161.5811 H   0  0  0  0  0  0  0  0  0  0  0  0
  1  2  1  0
  1 31  1  0
  2  3  1  1
  2 28  1  0
  2  4  1  0
  4  5  1  0
  4 32  1  0
  4 33  1  0
  5  6  1  1
  5  7  1  0
  5 24  1  0
  7  8  1  0
  7 34  1  0
  8 23  1  0
  8  9  2  0
  9 10  1  0
  9 35  1  0
 10 11  2  0
 10 36  1  0
 11 12  1  0
 11 23  1  0
 12 13  1  0
 12 37  1  0
 12 38  1  0
 13 14  1  0
 13 15  1  0
 13 16  1  0
 16 17  1  0
 16 39  1  0
 16 40  1  0
 17 18  1  1
 17 22  1  0
 17 19  1  0
 19 20  2  0
 19 41  1  0
 20 21  1  0
 20 42  1  0
 21 22  1  0
 21 43  1  0
 21 44  1  0
 22 45  1  0
 22 46  1  0
 24 25  1  0
 24 47  1  0
 24 48  1  0
 25 26  1  1
 25 27  1  0
 25 28  1  0
 27 49  1  0
 28 29  1  6
 28 30  1  0
 30 50  1  0
M  CHG  1  13   1
M  END
>  <DOCK_score>  (1) 
-43.29483

>  <SMILES>  (1) 
O[C@@H]1C[C@H](Nc2ccc(C[NH2+]C[C@H]3C=CCC3)o2)C[C@@H](O)[C@H]1O

$$$$
