Nc1ccc(-c2ccc(Nc3ccc(-c4n[nH]cc4C[NH2+][C@H]4CC45CC5)o3)cc2)cc1
     RDKit          3D

 57 62  0  0  1  0  0  0  0  0999 V2000
  131.5968  139.6974  168.9824 N   0  0  0  0  0  0  0  0  0  0  0  0
  130.7794  139.1738  167.9789 C   0  0  0  0  0  0  0  0  0  0  0  0
  129.4357  139.5230  167.9256 C   0  0  0  0  0  0  0  0  0  0  0  0
  128.6256  139.0031  166.9387 C   0  0  0  0  0  0  0  0  0  0  0  0
  129.1580  138.1346  165.9870 C   0  0  0  0  0  0  0  0  0  0  0  0
  128.2896  137.5783  164.9208 C   0  0  0  0  0  0  0  0  0  0  0  0
  128.5658  136.3234  164.3795 C   0  0  0  0  0  0  0  0  0  0  0  0
  127.7542  135.8056  163.3928 C   0  0  0  0  0  0  0  0  0  0  0  0
  126.6675  136.5390  162.9294 C   0  0  0  0  0  0  0  0  0  0  0  0
  125.8504  136.0155  161.9257 N   0  0  0  0  0  0  0  0  0  0  0  0
  126.3826  135.1498  160.9771 C   0  0  0  0  0  0  0  0  0  0  0  0
  125.7074  134.1613  160.3389 C   0  0  0  0  0  0  0  0  0  0  0  0
  126.6209  133.5348  159.4689 C   0  0  0  0  0  0  0  0  0  0  0  0
  127.8108  134.1742  159.6203 C   0  0  0  0  0  0  0  0  0  0  0  0
  129.0628  133.8538  158.9041 C   0  0  0  0  0  0  0  0  0  0  0  0
  129.2236  132.8960  158.0121 N   0  0  0  0  0  0  0  0  0  0  0  0
  130.5536  132.9290  157.5742 N   0  0  0  0  0  0  0  0  0  0  0  0
  130.9506  132.3373  156.9160 H   0  0  0  0  0  0  0  0  0  0  0  0
  131.1892  133.9240  158.2303 C   0  0  0  0  0  0  0  0  0  0  0  0
  130.3000  134.5141  159.0575 C   0  0  0  0  0  0  0  0  0  0  0  0
  130.5797  135.6716  159.9810 C   0  0  0  0  0  0  0  0  0  0  0  0
  131.9862  136.0747  159.8490 N   0  0  0  0  0  0  0  0  0  0  0  0
  132.5827  135.2984  160.0925 H   0  0  0  0  0  0  0  0  0  0  0  0
  132.1683  136.3529  158.8963 H   0  0  0  0  0  0  0  0  0  0  0  0
  132.2587  137.2032  160.7493 C   0  0  1  0  0  0  0  0  0  0  0  0
  132.0931  137.0096  161.8091 H   0  0  0  0  0  0  0  0  0  0  0  0
  133.4037  138.1458  160.3737 C   0  0  0  0  0  0  0  0  0  0  0  0
  131.9521  138.6098  160.2317 C   0  0  0  0  0  0  0  0  0  0  0  0
  131.0886  139.8119  160.6188 C   0  0  0  0  0  0  0  0  0  0  0  0
  131.0578  139.2778  159.1854 C   0  0  0  0  0  0  0  0  0  0  0  0
  127.6513  135.1551  160.5333 O   0  0  0  0  0  0  0  0  0  0  0  0
  126.3938  137.7931  163.4638 C   0  0  0  0  0  0  0  0  0  0  0  0
  127.1996  138.3120  164.4547 C   0  0  0  0  0  0  0  0  0  0  0  0
  130.5065  137.7849  166.0423 C   0  0  0  0  0  0  0  0  0  0  0  0
  131.3117  138.3029  167.0343 C   0  0  0  0  0  0  0  0  0  0  0  0
  131.2271  140.3043  169.6417 H   0  0  0  0  0  0  0  0  0  0  0  0
  132.5354  139.4529  169.0203 H   0  0  0  0  0  0  0  0  0  0  0  0
  129.0247  140.1993  168.6604 H   0  0  0  0  0  0  0  0  0  0  0  0
  127.5803  139.2719  166.9002 H   0  0  0  0  0  0  0  0  0  0  0  0
  129.4125  135.7555  164.7359 H   0  0  0  0  0  0  0  0  0  0  0  0
  127.9650  134.8318  162.9764 H   0  0  0  0  0  0  0  0  0  0  0  0
  124.9113  136.2558  161.8903 H   0  0  0  0  0  0  0  0  0  0  0  0
  124.6671  133.9034  160.4727 H   0  0  0  0  0  0  0  0  0  0  0  0
  126.4153  132.7057  158.8082 H   0  0  0  0  0  0  0  0  0  0  0  0
  132.2269  134.1992  158.1139 H   0  0  0  0  0  0  0  0  0  0  0  0
  129.9352  136.5105  159.7178 H   0  0  0  0  0  0  0  0  0  0  0  0
  130.3829  135.3713  161.0101 H   0  0  0  0  0  0  0  0  0  0  0  0
  133.9913  138.5729  161.1864 H   0  0  0  0  0  0  0  0  0  0  0  0
  133.9549  137.9287  159.4587 H   0  0  0  0  0  0  0  0  0  0  0  0
  130.2161  139.6242  161.2447 H   0  0  0  0  0  0  0  0  0  0  0  0
  131.5957  140.7612  160.7914 H   0  0  0  0  0  0  0  0  0  0  0  0
  131.5447  139.8757  158.4150 H   0  0  0  0  0  0  0  0  0  0  0  0
  130.1653  138.7385  158.8679 H   0  0  0  0  0  0  0  0  0  0  0  0
  125.5495  138.3612  163.1022 H   0  0  0  0  0  0  0  0  0  0  0  0
  126.9869  139.2863  164.8693 H   0  0  0  0  0  0  0  0  0  0  0  0
  130.9201  137.1090  165.3085 H   0  0  0  0  0  0  0  0  0  0  0  0
  132.3562  138.0319  167.0778 H   0  0  0  0  0  0  0  0  0  0  0  0
  1  2  1  0
  1 36  1  0
  1 37  1  0
  2 35  2  0
  2  3  1  0
  3  4  2  0
  3 38  1  0
  4  5  1  0
  4 39  1  0
  5  6  1  0
  5 34  2  0
  6 33  1  0
  6  7  2  0
  7  8  1  0
  7 40  1  0
  8  9  2  0
  8 41  1  0
  9 10  1  0
  9 32  1  0
 10 11  1  0
 10 42  1  0
 11 31  1  0
 11 12  2  0
 12 13  1  0
 12 43  1  0
 13 14  2  0
 13 44  1  0
 14 15  1  0
 14 31  1  0
 15 20  1  0
 15 16  2  0
 16 17  1  0
 17 18  1  0
 17 19  1  0
 19 20  2  0
 19 45  1  0
 20 21  1  0
 21 22  1  0
 21 46  1  0
 21 47  1  0
 22 23  1  0
 22 24  1  0
 22 25  1  0
 25 26  1  1
 25 28  1  0
 25 27  1  0
 27 28  1  0
 27 48  1  0
 27 49  1  0
 28 30  1  0
 28 29  1  0
 29 30  1  0
 29 50  1  0
 29 51  1  0
 30 52  1  0
 30 53  1  0
 32 33  2  0
 32 54  1  0
 33 55  1  0
 34 35  1  0
 34 56  1  0
 35 57  1  0
M  CHG  1  22   1
M  END
>  <DOCK_score>  (1) 
-47.915871

>  <SMILES>  (1) 
Nc1ccc(-c2ccc(Nc3ccc(-c4n[nH]cc4C[NH2+][C@H]4CC45CC5)o3)cc2)cc1

$$$$
