Fc1ccccc1Nc1ccc(-c2n[nH]cc2C[NH2+]CC2CC=CC2)o1
     RDKit          3D

 48 51  0  0  1  0  0  0  0  0999 V2000
  125.5929  138.9355  162.8911 F   0  0  0  0  0  0  0  0  0  0  0  0
  126.6371  138.2347  163.3848 C   0  0  0  0  0  0  0  0  0  0  0  0
  127.4544  138.7962  164.3485 C   0  0  0  0  0  0  0  0  0  0  0  0
  128.5232  138.0787  164.8537 C   0  0  0  0  0  0  0  0  0  0  0  0
  128.7791  136.7988  164.3970 C   0  0  0  0  0  0  0  0  0  0  0  0
  127.9636  136.2289  163.4387 C   0  0  0  0  0  0  0  0  0  0  0  0
  126.8921  136.9472  162.9240 C   0  0  0  0  0  0  0  0  0  0  0  0
  126.0684  136.3753  161.9496 N   0  0  0  0  0  0  0  0  0  0  0  0
  126.5901  135.4475  161.0557 C   0  0  0  0  0  0  0  0  0  0  0  0
  125.9051  134.4252  160.4844 C   0  0  0  0  0  0  0  0  0  0  0  0
  126.8104  133.7382  159.6522 C   0  0  0  0  0  0  0  0  0  0  0  0
  128.0054  134.3774  159.7577 C   0  0  0  0  0  0  0  0  0  0  0  0
  129.2516  134.0034  159.0577 C   0  0  0  0  0  0  0  0  0  0  0  0
  129.4004  132.9936  158.2230 N   0  0  0  0  0  0  0  0  0  0  0  0
  130.7296  132.9867  157.7815 N   0  0  0  0  0  0  0  0  0  0  0  0
  131.1192  132.3521  157.1599 H   0  0  0  0  0  0  0  0  0  0  0  0
  131.3765  134.0128  158.3756 C   0  0  0  0  0  0  0  0  0  0  0  0
  130.4941  134.6634  159.1638 C   0  0  0  0  0  0  0  0  0  0  0  0
  130.7861  135.8748  160.0112 C   0  0  0  0  0  0  0  0  0  0  0  0
  132.1946  136.2587  159.8478 N   0  0  0  0  0  0  0  0  0  0  0  0
  132.7871  135.4949  160.1372 H   0  0  0  0  0  0  0  0  0  0  0  0
  132.3741  136.4750  158.8787 H   0  0  0  0  0  0  0  0  0  0  0  0
  132.4794  137.4395  160.6739 C   0  0  0  0  0  0  0  0  0  0  0  0
  133.9464  137.8393  160.5037 C   0  0  0  0  0  0  0  0  0  0  0  0
  134.3656  138.8786  161.5692 C   0  0  0  0  0  0  0  0  0  0  0  0
  135.3004  139.8178  160.8429 C   0  0  0  0  0  0  0  0  0  0  0  0
  135.1859  139.6872  159.5491 C   0  0  0  0  0  0  0  0  0  0  0  0
  134.1557  138.6393  159.1972 C   0  0  0  0  0  0  0  0  0  0  0  0
  127.8597  135.4088  160.6158 O   0  0  0  0  0  0  0  0  0  0  0  0
  127.2577  139.7959  164.7071 H   0  0  0  0  0  0  0  0  0  0  0  0
  129.1600  138.5193  165.6067 H   0  0  0  0  0  0  0  0  0  0  0  0
  129.6149  136.2418  164.7940 H   0  0  0  0  0  0  0  0  0  0  0  0
  128.1617  135.2274  163.0865 H   0  0  0  0  0  0  0  0  0  0  0  0
  125.1327  136.6261  161.8974 H   0  0  0  0  0  0  0  0  0  0  0  0
  124.8640  134.1836  160.6389 H   0  0  0  0  0  0  0  0  0  0  0  0
  126.5961  132.8703  159.0463 H   0  0  0  0  0  0  0  0  0  0  0  0
  132.4169  134.2696  158.2415 H   0  0  0  0  0  0  0  0  0  0  0  0
  130.1462  136.6999  159.6985 H   0  0  0  0  0  0  0  0  0  0  0  0
  130.5923  135.6412  161.0580 H   0  0  0  0  0  0  0  0  0  0  0  0
  131.8394  138.2645  160.3613 H   0  0  0  0  0  0  0  0  0  0  0  0
  132.2856  137.2059  161.7208 H   0  0  0  0  0  0  0  0  0  0  0  0
  134.5945  136.9635  160.5344 H   0  0  0  0  0  0  0  0  0  0  0  0
  133.4933  139.4197  161.9359 H   0  0  0  0  0  0  0  0  0  0  0  0
  134.8842  138.3892  162.3936 H   0  0  0  0  0  0  0  0  0  0  0  0
  135.9748  140.5063  161.3301 H   0  0  0  0  0  0  0  0  0  0  0  0
  135.7532  140.2536  158.8254 H   0  0  0  0  0  0  0  0  0  0  0  0
  134.5316  137.9873  158.4086 H   0  0  0  0  0  0  0  0  0  0  0  0
  133.2236  139.1121  158.8878 H   0  0  0  0  0  0  0  0  0  0  0  0
  1  2  1  0
  2  7  2  0
  2  3  1  0
  3  4  2  0
  3 30  1  0
  4  5  1  0
  4 31  1  0
  5  6  2  0
  5 32  1  0
  6  7  1  0
  6 33  1  0
  7  8  1  0
  8  9  1  0
  8 34  1  0
  9 29  1  0
  9 10  2  0
 10 11  1  0
 10 35  1  0
 11 12  2  0
 11 36  1  0
 12 13  1  0
 12 29  1  0
 13 18  1  0
 13 14  2  0
 14 15  1  0
 15 16  1  0
 15 17  1  0
 17 18  2  0
 17 37  1  0
 18 19  1  0
 19 20  1  0
 19 38  1  0
 19 39  1  0
 20 21  1  0
 20 22  1  0
 20 23  1  0
 23 24  1  0
 23 40  1  0
 23 41  1  0
 24 28  1  0
 24 25  1  0
 24 42  1  0
 25 26  1  0
 25 43  1  0
 25 44  1  0
 26 27  2  0
 26 45  1  0
 27 28  1  0
 27 46  1  0
 28 47  1  0
 28 48  1  0
M  CHG  1  20   1
M  END
>  <DOCK_score>  (1) 
-47.691887

>  <SMILES>  (1) 
Fc1ccccc1Nc1ccc(-c2n[nH]cc2C[NH2+]CC2CC=CC2)o1

$$$$
