CCc1cccc([C@H](CCc2cccs2)Nc2[nH]cc(-c3ccc(F)cc3)[nH+]2)c1
     RDKit          3D

 54 57  0  0  1  0  0  0  0  0999 V2000
  125.3570  131.4958  160.7141 C   0  0  0  0  0  0  0  0  0  0  0  0
  125.3904  132.7672  161.5648 C   0  0  0  0  0  0  0  0  0  0  0  0
  126.0733  133.8684  160.7955 C   0  0  0  0  0  0  0  0  0  0  0  0
  125.3318  134.7078  159.9847 C   0  0  0  0  0  0  0  0  0  0  0  0
  125.9587  135.7148  159.2754 C   0  0  0  0  0  0  0  0  0  0  0  0
  127.3267  135.8855  159.3797 C   0  0  0  0  0  0  0  0  0  0  0  0
  128.0674  135.0489  160.1932 C   0  0  0  0  0  0  0  0  0  0  0  0
  129.5586  135.2346  160.3065 C   0  0  2  0  0  0  0  0  0  0  0  0
  129.9670  134.4880  160.9877 H   0  0  0  0  0  0  0  0  0  0  0  0
  129.8588  136.6347  160.8452 C   0  0  0  0  0  0  0  0  0  0  0  0
  129.2182  136.7984  162.2250 C   0  0  0  0  0  0  0  0  0  0  0  0
  129.5139  138.1775  162.7556 C   0  0  0  0  0  0  0  0  0  0  0  0
  129.1101  138.6502  163.9357 C   0  0  0  0  0  0  0  0  0  0  0  0
  129.5034  139.9489  164.2095 C   0  0  0  0  0  0  0  0  0  0  0  0
  130.2267  140.5308  163.2517 C   0  0  0  0  0  0  0  0  0  0  0  0
  130.4507  139.4073  161.9169 S   0  0  0  0  0  0  0  0  0  0  0  0
  130.1720  135.0776  158.9854 N   0  0  0  0  0  0  0  0  0  0  0  0
  130.0350  133.8850  158.2958 C   0  0  0  0  0  0  0  0  0  0  0  0
  129.3535  132.7909  158.7320 N   0  0  0  0  0  0  0  0  0  0  0  0
  128.8808  132.7068  159.5749 H   0  0  0  0  0  0  0  0  0  0  0  0
  129.4591  131.8271  157.7583 C   0  0  0  0  0  0  0  0  0  0  0  0
  130.2014  132.3598  156.7564 C   0  0  0  0  0  0  0  0  0  0  0  0
  130.5770  131.6806  155.4921 C   0  0  0  0  0  0  0  0  0  0  0  0
  130.1769  132.2124  154.2675 C   0  0  0  0  0  0  0  0  0  0  0  0
  130.5334  131.5804  153.0938 C   0  0  0  0  0  0  0  0  0  0  0  0
  131.2783  130.4127  153.1320 C   0  0  0  0  0  0  0  0  0  0  0  0
  131.6205  129.7938  151.9808 F   0  0  0  0  0  0  0  0  0  0  0  0
  131.6731  129.8776  154.3471 C   0  0  0  0  0  0  0  0  0  0  0  0
  131.3261  130.5058  155.5256 C   0  0  0  0  0  0  0  0  0  0  0  0
  130.5354  133.6255  157.1124 N   0  0  0  0  0  0  0  0  0  0  0  0
  131.0628  134.2396  156.5778 H   0  0  0  0  0  0  0  0  0  0  0  0
  127.4402  134.0421  160.9035 C   0  0  0  0  0  0  0  0  0  0  0  0
  124.8631  130.6992  161.2705 H   0  0  0  0  0  0  0  0  0  0  0  0
  124.8080  131.6897  159.7925 H   0  0  0  0  0  0  0  0  0  0  0  0
  126.3760  131.1930  160.4731 H   0  0  0  0  0  0  0  0  0  0  0  0
  125.9394  132.5733  162.4862 H   0  0  0  0  0  0  0  0  0  0  0  0
  124.3716  133.0700  161.8055 H   0  0  0  0  0  0  0  0  0  0  0  0
  124.2632  134.5743  159.9029 H   0  0  0  0  0  0  0  0  0  0  0  0
  125.3800  136.3683  158.6394 H   0  0  0  0  0  0  0  0  0  0  0  0
  127.8166  136.6721  158.8251 H   0  0  0  0  0  0  0  0  0  0  0  0
  130.9374  136.7689  160.9272 H   0  0  0  0  0  0  0  0  0  0  0  0
  129.4504  137.3813  160.1642 H   0  0  0  0  0  0  0  0  0  0  0  0
  128.1396  136.6641  162.1430 H   0  0  0  0  0  0  0  0  0  0  0  0
  129.6268  136.0518  162.9061 H   0  0  0  0  0  0  0  0  0  0  0  0
  128.5204  138.0644  164.6253 H   0  0  0  0  0  0  0  0  0  0  0  0
  129.2446  140.4527  165.1291 H   0  0  0  0  0  0  0  0  0  0  0  0
  130.6190  141.5363  163.2915 H   0  0  0  0  0  0  0  0  0  0  0  0
  130.6742  135.8092  158.5939 H   0  0  0  0  0  0  0  0  0  0  0  0
  129.0322  130.8354  157.7855 H   0  0  0  0  0  0  0  0  0  0  0  0
  129.5926  133.1202  154.2371 H   0  0  0  0  0  0  0  0  0  0  0  0
  130.2273  131.9941  152.1443 H   0  0  0  0  0  0  0  0  0  0  0  0
  132.2533  128.9669  154.3721 H   0  0  0  0  0  0  0  0  0  0  0  0
  131.6347  130.0879  156.4724 H   0  0  0  0  0  0  0  0  0  0  0  0
  128.0190  133.3884  161.5392 H   0  0  0  0  0  0  0  0  0  0  0  0
  1  2  1  0
  1 33  1  0
  1 34  1  0
  1 35  1  0
  2  3  1  0
  2 36  1  0
  2 37  1  0
  3 32  2  0
  3  4  1  0
  4  5  2  0
  4 38  1  0
  5  6  1  0
  5 39  1  0
  6  7  2  0
  6 40  1  0
  7  8  1  0
  7 32  1  0
  8  9  1  1
  8 10  1  0
  8 17  1  0
 10 11  1  0
 10 41  1  0
 10 42  1  0
 11 12  1  0
 11 43  1  0
 11 44  1  0
 12 16  1  0
 12 13  2  0
 13 14  1  0
 13 45  1  0
 14 15  2  0
 14 46  1  0
 15 16  1  0
 15 47  1  0
 17 48  1  0
 18 17  1  0
 18 30  2  0
 18 19  1  0
 19 20  1  0
 19 21  1  0
 21 22  2  0
 21 49  1  0
 22 23  1  0
 22 30  1  0
 23 29  1  0
 23 24  2  0
 24 25  1  0
 24 50  1  0
 25 26  2  0
 25 51  1  0
 26 27  1  0
 26 28  1  0
 28 29  2  0
 28 52  1  0
 29 53  1  0
 30 31  1  0
 32 54  1  0
M  CHG  1  30   1
M  END
>  <DOCK_score>  (1) 
-57.537075

>  <SMILES>  (1) 
CCc1cccc([C@H](CCc2cccs2)Nc2[nH]cc(-c3ccc(F)cc3)[nH+]2)c1

$$$$
