Cc1ccc([C@@H](Cc2cnnn2C)Nc2[nH]cc(-c3ccc(N)cc3)[nH+]2)cc1
     RDKit          3D

 52 55  0  0  1  0  0  0  0  0999 V2000
  134.4810  135.2168  163.4089 C   0  0  0  0  0  0  0  0  0  0  0  0
  133.3544  135.1139  162.4133 C   0  0  0  0  0  0  0  0  0  0  0  0
  132.4112  134.1111  162.5380 C   0  0  0  0  0  0  0  0  0  0  0  0
  131.3780  134.0164  161.6245 C   0  0  0  0  0  0  0  0  0  0  0  0
  131.2880  134.9246  160.5862 C   0  0  0  0  0  0  0  0  0  0  0  0
  130.1621  134.8211  159.5901 C   0  0  1  0  0  0  0  0  0  0  0  0
  129.5244  133.9759  159.8489 H   0  0  0  0  0  0  0  0  0  0  0  0
  129.3371  136.1093  159.6173 C   0  0  0  0  0  0  0  0  0  0  0  0
  128.2110  136.0059  158.6210 C   0  0  0  0  0  0  0  0  0  0  0  0
  128.2419  136.3722  157.3184 C   0  0  0  0  0  0  0  0  0  0  0  0
  127.0284  136.1091  156.8210 N   0  0  0  0  0  0  0  0  0  0  0  0
  126.2960  135.6084  157.7525 N   0  0  0  0  0  0  0  0  0  0  0  0
  126.9666  135.5259  158.8482 N   0  0  0  0  0  0  0  0  0  0  0  0
  126.4660  135.0073  160.1237 C   0  0  0  0  0  0  0  0  0  0  0  0
  130.7142  134.6231  158.2476 N   0  0  0  0  0  0  0  0  0  0  0  0
  130.3910  133.4861  157.5269 C   0  0  0  0  0  0  0  0  0  0  0  0
  129.5709  132.4860  157.9500 N   0  0  0  0  0  0  0  0  0  0  0  0
  129.1117  132.4417  158.8033 H   0  0  0  0  0  0  0  0  0  0  0  0
  129.5137  131.5500  156.9446 C   0  0  0  0  0  0  0  0  0  0  0  0
  130.2998  132.0054  155.9382 C   0  0  0  0  0  0  0  0  0  0  0  0
  130.5437  131.3228  154.6438 C   0  0  0  0  0  0  0  0  0  0  0  0
  130.1935  131.9481  153.4481 C   0  0  0  0  0  0  0  0  0  0  0  0
  130.4258  131.3139  152.2458 C   0  0  0  0  0  0  0  0  0  0  0  0
  130.9983  130.0481  152.2260 C   0  0  0  0  0  0  0  0  0  0  0  0
  131.2275  129.4053  151.0070 N   0  0  0  0  0  0  0  0  0  0  0  0
  131.3436  129.4202  153.4173 C   0  0  0  0  0  0  0  0  0  0  0  0
  131.1183  130.0530  154.6216 C   0  0  0  0  0  0  0  0  0  0  0  0
  130.8201  133.1980  156.3223 N   0  0  0  0  0  0  0  0  0  0  0  0
  131.4164  133.7486  155.7912 H   0  0  0  0  0  0  0  0  0  0  0  0
  132.2344  135.9242  160.4583 C   0  0  0  0  0  0  0  0  0  0  0  0
  133.2644  136.0219  161.3749 C   0  0  0  0  0  0  0  0  0  0  0  0
  135.3286  134.6265  163.0605 H   0  0  0  0  0  0  0  0  0  0  0  0
  134.7817  136.2595  163.5107 H   0  0  0  0  0  0  0  0  0  0  0  0
  134.1476  134.8387  164.3752 H   0  0  0  0  0  0  0  0  0  0  0  0
  132.4816  133.4014  163.3490 H   0  0  0  0  0  0  0  0  0  0  0  0
  130.6413  133.2327  161.7217 H   0  0  0  0  0  0  0  0  0  0  0  0
  129.9747  136.9546  159.3583 H   0  0  0  0  0  0  0  0  0  0  0  0
  128.9262  136.2567  160.6160 H   0  0  0  0  0  0  0  0  0  0  0  0
  129.0803  136.7970  156.7863 H   0  0  0  0  0  0  0  0  0  0  0  0
  126.6537  133.9349  160.1787 H   0  0  0  0  0  0  0  0  0  0  0  0
  126.9777  135.5082  160.9455 H   0  0  0  0  0  0  0  0  0  0  0  0
  125.3944  135.1928  160.1960 H   0  0  0  0  0  0  0  0  0  0  0  0
  131.3063  135.2886  157.8637 H   0  0  0  0  0  0  0  0  0  0  0  0
  128.9505  130.6285  156.9547 H   0  0  0  0  0  0  0  0  0  0  0  0
  129.7441  132.9300  153.4631 H   0  0  0  0  0  0  0  0  0  0  0  0
  130.1587  131.7998  151.3191 H   0  0  0  0  0  0  0  0  0  0  0  0
  131.6273  128.5210  150.9929 H   0  0  0  0  0  0  0  0  0  0  0  0
  130.9868  129.8418  150.1756 H   0  0  0  0  0  0  0  0  0  0  0  0
  131.7883  128.4362  153.3998 H   0  0  0  0  0  0  0  0  0  0  0  0
  131.3870  129.5652  155.5470 H   0  0  0  0  0  0  0  0  0  0  0  0
  132.1665  136.6311  159.6445 H   0  0  0  0  0  0  0  0  0  0  0  0
  134.0016  136.8053  161.2771 H   0  0  0  0  0  0  0  0  0  0  0  0
  1  2  1  0
  1 32  1  0
  1 33  1  0
  1 34  1  0
  2 31  2  0
  2  3  1  0
  3  4  2  0
  3 35  1  0
  4  5  1  0
  4 36  1  0
  5  6  1  0
  5 30  2  0
  6  7  1  1
  6  8  1  0
  6 15  1  0
  8  9  1  0
  8 37  1  0
  8 38  1  0
  9 13  1  0
  9 10  2  0
 10 11  1  0
 10 39  1  0
 11 12  2  0
 12 13  1  0
 13 14  1  0
 14 40  1  0
 14 41  1  0
 14 42  1  0
 15 43  1  0
 16 15  1  0
 16 28  2  0
 16 17  1  0
 17 18  1  0
 17 19  1  0
 19 20  2  0
 19 44  1  0
 20 21  1  0
 20 28  1  0
 21 27  1  0
 21 22  2  0
 22 23  1  0
 22 45  1  0
 23 24  2  0
 23 46  1  0
 24 25  1  0
 24 26  1  0
 25 47  1  0
 25 48  1  0
 26 27  2  0
 26 49  1  0
 27 50  1  0
 28 29  1  0
 30 31  1  0
 30 51  1  0
 31 52  1  0
M  CHG  1  28   1
M  END
>  <DOCK_score>  (1) 
-62.128448

>  <SMILES>  (1) 
Cc1ccc([C@@H](Cc2cnnn2C)Nc2[nH]cc(-c3ccc(N)cc3)[nH+]2)cc1

$$$$
