Oc1ccc(CNC(N[C@H]2C[C@@H](O)C2)=[NH+]Cc2cccs2)cc1
     RDKit          3D

 45 47  0  0  1  0  0  0  0  0999 V2000
  130.9113  129.0000  155.7730 O   0  0  0  0  0  0  0  0  0  0  0  0
  130.7872  130.2570  156.2744 C   0  0  0  0  0  0  0  0  0  0  0  0
  130.9173  130.4768  157.6382 C   0  0  0  0  0  0  0  0  0  0  0  0
  130.7904  131.7554  158.1458 C   0  0  0  0  0  0  0  0  0  0  0  0
  130.5339  132.8154  157.2959 C   0  0  0  0  0  0  0  0  0  0  0  0
  130.3960  134.2091  157.8523 C   0  0  0  0  0  0  0  0  0  0  0  0
  129.5492  134.1762  159.0473 N   0  0  0  0  0  0  0  0  0  0  0  0
  129.7439  135.0929  160.0533 C   0  0  0  0  0  0  0  0  0  0  0  0
  128.9492  135.0620  161.1747 N   0  0  0  0  0  0  0  0  0  0  0  0
  127.8948  134.0524  161.2977 C   0  0  1  0  0  0  0  0  0  0  0  0
  128.2794  133.0330  161.2685 H   0  0  0  0  0  0  0  0  0  0  0  0
  126.9237  134.3120  162.4638 C   0  0  0  0  0  0  0  0  0  0  0  0
  125.7968  133.8586  161.5208 C   0  0  1  0  0  0  0  0  0  0  0  0
  125.6058  132.7860  161.5527 H   0  0  0  0  0  0  0  0  0  0  0  0
  124.6049  134.6382  161.6368 O   0  0  0  0  0  0  0  0  0  0  0  0
  126.7030  134.2885  160.3550 C   0  0  0  0  0  0  0  0  0  0  0  0
  130.6821  135.9912  159.9438 N   0  0  0  0  0  0  0  0  0  0  0  0
  130.9427  136.3160  159.0678 H   0  0  0  0  0  0  0  0  0  0  0  0
  131.3429  136.5100  161.1440 C   0  0  0  0  0  0  0  0  0  0  0  0
  132.3803  137.5281  160.7457 C   0  0  0  0  0  0  0  0  0  0  0  0
  132.1603  138.8364  160.6073 C   0  0  0  0  0  0  0  0  0  0  0  0
  133.2683  139.5781  160.2357 C   0  0  0  0  0  0  0  0  0  0  0  0
  134.3860  138.8709  160.0634 C   0  0  0  0  0  0  0  0  0  0  0  0
  134.0644  137.1718  160.3848 S   0  0  0  0  0  0  0  0  0  0  0  0
  130.3982  132.5981  155.9373 C   0  0  0  0  0  0  0  0  0  0  0  0
  130.5297  131.3222  155.4241 C   0  0  0  0  0  0  0  0  0  0  0  0
  130.8058  128.9473  154.8133 H   0  0  0  0  0  0  0  0  0  0  0  0
  131.1174  129.6490  158.3025 H   0  0  0  0  0  0  0  0  0  0  0  0
  130.8921  131.9271  159.2071 H   0  0  0  0  0  0  0  0  0  0  0  0
  129.9413  134.8564  157.1024 H   0  0  0  0  0  0  0  0  0  0  0  0
  131.3810  134.5944  158.1156 H   0  0  0  0  0  0  0  0  0  0  0  0
  128.8510  133.5078  159.1288 H   0  0  0  0  0  0  0  0  0  0  0  0
  129.0866  135.7087  161.8845 H   0  0  0  0  0  0  0  0  0  0  0  0
  126.8570  135.3613  162.7511 H   0  0  0  0  0  0  0  0  0  0  0  0
  127.0745  133.6478  163.3149 H   0  0  0  0  0  0  0  0  0  0  0  0
  124.7639  135.5842  161.7588 H   0  0  0  0  0  0  0  0  0  0  0  0
  126.6758  133.6054  159.5060 H   0  0  0  0  0  0  0  0  0  0  0  0
  126.5748  135.3310  160.0637 H   0  0  0  0  0  0  0  0  0  0  0  0
  130.6029  136.9797  161.7920 H   0  0  0  0  0  0  0  0  0  0  0  0
  131.8244  135.6901  161.6768 H   0  0  0  0  0  0  0  0  0  0  0  0
  131.1916  139.2835  160.7751 H   0  0  0  0  0  0  0  0  0  0  0  0
  133.2299  140.6478  160.0922 H   0  0  0  0  0  0  0  0  0  0  0  0
  135.3425  139.2792  159.7716 H   0  0  0  0  0  0  0  0  0  0  0  0
  130.1931  133.4270  155.2761 H   0  0  0  0  0  0  0  0  0  0  0  0
  130.4281  131.1536  154.3622 H   0  0  0  0  0  0  0  0  0  0  0  0
  1  2  1  0
  1 27  1  0
  2 26  2  0
  2  3  1  0
  3  4  2  0
  3 28  1  0
  4  5  1  0
  4 29  1  0
  5  6  1  0
  5 25  2  0
  6  7  1  0
  6 30  1  0
  6 31  1  0
  7 32  1  0
  8  7  1  0
  8  9  1  0
  8 17  2  0
  9 10  1  0
  9 33  1  0
 10 11  1  1
 10 16  1  0
 10 12  1  0
 12 13  1  0
 12 34  1  0
 12 35  1  0
 13 14  1  6
 13 15  1  0
 13 16  1  0
 15 36  1  0
 16 37  1  0
 16 38  1  0
 17 18  1  0
 17 19  1  0
 19 20  1  0
 19 39  1  0
 19 40  1  0
 20 24  1  0
 20 21  2  0
 21 22  1  0
 21 41  1  0
 22 23  2  0
 22 42  1  0
 23 24  1  0
 23 43  1  0
 25 26  1  0
 25 44  1  0
 26 45  1  0
M  CHG  1  17   1
M  END
>  <DOCK_score>  (1) 
-44.435303

>  <SMILES>  (1) 
Oc1ccc(CNC(N[C@H]2C[C@@H](O)C2)=[NH+]Cc2cccs2)cc1

$$$$
