CCc1ccc(-c2c[nH]c(N[C@@H](Cc3ccc(Br)cc3)C3CCC3)[nH+]2)cc1
     RDKit          3D

 54 57  0  0  1  0  0  0  0  0999 V2000
  129.9713  129.0737  151.2400 C   0  0  0  0  0  0  0  0  0  0  0  0
  131.2743  129.6762  151.7691 C   0  0  0  0  0  0  0  0  0  0  0  0
  131.0132  130.3593  153.0867 C   0  0  0  0  0  0  0  0  0  0  0  0
  131.1326  129.6480  154.2671 C   0  0  0  0  0  0  0  0  0  0  0  0
  130.9002  130.2699  155.4771 C   0  0  0  0  0  0  0  0  0  0  0  0
  130.5337  131.6142  155.5075 C   0  0  0  0  0  0  0  0  0  0  0  0
  130.2773  132.2868  156.8045 C   0  0  0  0  0  0  0  0  0  0  0  0
  129.8101  131.6952  157.9317 C   0  0  0  0  0  0  0  0  0  0  0  0
  129.7213  132.6760  158.8893 N   0  0  0  0  0  0  0  0  0  0  0  0
  129.4179  132.5607  159.8034 H   0  0  0  0  0  0  0  0  0  0  0  0
  130.1373  133.8394  158.3188 C   0  0  0  0  0  0  0  0  0  0  0  0
  130.2001  135.0699  158.9502 N   0  0  0  0  0  0  0  0  0  0  0  0
  129.2608  135.3887  160.0282 C   0  0  1  0  0  0  0  0  0  0  0  0
  129.1182  134.5103  160.6577 H   0  0  0  0  0  0  0  0  0  0  0  0
  129.8225  136.5350  160.8717 C   0  0  0  0  0  0  0  0  0  0  0  0
  129.1476  136.5444  162.2193 C   0  0  0  0  0  0  0  0  0  0  0  0
  127.9951  137.2837  162.4097 C   0  0  0  0  0  0  0  0  0  0  0  0
  127.3732  137.2889  163.6440 C   0  0  0  0  0  0  0  0  0  0  0  0
  127.9100  136.5626  164.6918 C   0  0  0  0  0  0  0  0  0  0  0  0
  127.0639  136.5756  166.3828 Br  0  0  0  0  0  0  0  0  0  0  0  0
  129.0662  135.8272  164.5021 C   0  0  0  0  0  0  0  0  0  0  0  0
  129.6845  135.8185  163.2660 C   0  0  0  0  0  0  0  0  0  0  0  0
  127.9178  135.8085  159.4271 C   0  0  0  0  0  0  0  0  0  0  0  0
  126.7314  135.6382  160.3906 C   0  0  0  0  0  0  0  0  0  0  0  0
  125.9236  135.1367  159.1820 C   0  0  0  0  0  0  0  0  0  0  0  0
  127.2657  134.7213  158.5568 C   0  0  0  0  0  0  0  0  0  0  0  0
  130.4743  133.6017  157.0747 N   0  0  0  0  0  0  0  0  0  0  0  0
  130.8087  134.2611  156.4467 H   0  0  0  0  0  0  0  0  0  0  0  0
  130.4095  132.3245  154.3148 C   0  0  0  0  0  0  0  0  0  0  0  0
  130.6498  131.6938  153.1109 C   0  0  0  0  0  0  0  0  0  0  0  0
  129.5897  128.3467  151.9568 H   0  0  0  0  0  0  0  0  0  0  0  0
  129.2356  129.8658  151.0992 H   0  0  0  0  0  0  0  0  0  0  0  0
  130.1600  128.5798  150.2869 H   0  0  0  0  0  0  0  0  0  0  0  0
  132.0099  128.8843  151.9098 H   0  0  0  0  0  0  0  0  0  0  0  0
  131.6559  130.4033  151.0522 H   0  0  0  0  0  0  0  0  0  0  0  0
  131.4119  128.6051  154.2421 H   0  0  0  0  0  0  0  0  0  0  0  0
  130.9983  129.7149  156.3983 H   0  0  0  0  0  0  0  0  0  0  0  0
  129.5560  130.6525  158.0531 H   0  0  0  0  0  0  0  0  0  0  0  0
  130.8660  135.7209  158.6789 H   0  0  0  0  0  0  0  0  0  0  0  0
  130.8956  136.3970  161.0038 H   0  0  0  0  0  0  0  0  0  0  0  0
  129.6376  137.4828  160.3661 H   0  0  0  0  0  0  0  0  0  0  0  0
  127.5783  137.8540  161.5927 H   0  0  0  0  0  0  0  0  0  0  0  0
  126.4707  137.8635  163.7917 H   0  0  0  0  0  0  0  0  0  0  0  0
  129.4858  135.2604  165.3201 H   0  0  0  0  0  0  0  0  0  0  0  0
  130.5873  135.2447  163.1181 H   0  0  0  0  0  0  0  0  0  0  0  0
  127.9560  136.7868  158.9479 H   0  0  0  0  0  0  0  0  0  0  0  0
  126.8942  134.8768  161.1534 H   0  0  0  0  0  0  0  0  0  0  0  0
  126.3641  136.5787  160.8013 H   0  0  0  0  0  0  0  0  0  0  0  0
  125.4151  135.9315  158.6363 H   0  0  0  0  0  0  0  0  0  0  0  0
  125.2696  134.2952  159.4111 H   0  0  0  0  0  0  0  0  0  0  0  0
  127.3298  134.9214  157.4872 H   0  0  0  0  0  0  0  0  0  0  0  0
  127.5757  133.7092  158.8173 H   0  0  0  0  0  0  0  0  0  0  0  0
  130.1255  133.3664  154.3324 H   0  0  0  0  0  0  0  0  0  0  0  0
  130.5536  132.2431  152.1860 H   0  0  0  0  0  0  0  0  0  0  0  0
  1  2  1  0
  1 31  1  0
  1 32  1  0
  1 33  1  0
  2  3  1  0
  2 34  1  0
  2 35  1  0
  3 30  2  0
  3  4  1  0
  4  5  2  0
  4 36  1  0
  5  6  1  0
  5 37  1  0
  6  7  1  0
  6 29  2  0
  7 27  1  0
  7  8  2  0
  8  9  1  0
  8 38  1  0
  9 10  1  0
  9 11  1  0
 11 12  1  0
 11 27  2  0
 12 13  1  0
 12 39  1  0
 13 14  1  1
 13 15  1  0
 13 23  1  0
 15 16  1  0
 15 40  1  0
 15 41  1  0
 16 22  1  0
 16 17  2  0
 17 18  1  0
 17 42  1  0
 18 19  2  0
 18 43  1  0
 19 20  1  0
 19 21  1  0
 21 22  2  0
 21 44  1  0
 22 45  1  0
 23 26  1  0
 23 24  1  0
 23 46  1  0
 24 25  1  0
 24 47  1  0
 24 48  1  0
 25 26  1  0
 25 49  1  0
 25 50  1  0
 26 51  1  0
 26 52  1  0
 27 28  1  0
 29 30  1  0
 29 53  1  0
 30 54  1  0
M  CHG  1  27   1
M  END
>  <DOCK_score>  (1) 
-56.547829

>  <SMILES>  (1) 
CCc1ccc(-c2c[nH]c(N[C@@H](Cc3ccc(Br)cc3)C3CCC3)[nH+]2)cc1

$$$$
