Cc1ccc(O)cc1C[NH+]=C(NCc1cccs1)N[C@H]1C[C@@H](O)C1
     RDKit          3D

 48 50  0  0  1  0  0  0  0  0999 V2000
  131.2143  139.5115  158.8147 C   0  0  0  0  0  0  0  0  0  0  0  0
  132.2572  138.8850  159.7043 C   0  0  0  0  0  0  0  0  0  0  0  0
  133.5526  139.3685  159.6956 C   0  0  0  0  0  0  0  0  0  0  0  0
  134.5101  138.7965  160.5102 C   0  0  0  0  0  0  0  0  0  0  0  0
  134.1712  137.7354  161.3376 C   0  0  0  0  0  0  0  0  0  0  0  0
  135.1114  137.1711  162.1404 O   0  0  0  0  0  0  0  0  0  0  0  0
  132.8700  137.2551  161.3477 C   0  0  0  0  0  0  0  0  0  0  0  0
  131.9170  137.8276  160.5273 C   0  0  0  0  0  0  0  0  0  0  0  0
  130.5043  137.3032  160.5343 C   0  0  0  0  0  0  0  0  0  0  0  0
  130.3712  136.2451  159.5299 N   0  0  0  0  0  0  0  0  0  0  0  0
  130.9194  136.2641  158.7298 H   0  0  0  0  0  0  0  0  0  0  0  0
  129.5161  135.2782  159.7112 C   0  0  0  0  0  0  0  0  0  0  0  0
  129.7663  134.0321  159.1870 N   0  0  0  0  0  0  0  0  0  0  0  0
  130.9939  133.7910  158.4246 C   0  0  0  0  0  0  0  0  0  0  0  0
  131.0260  132.3564  157.9645 C   0  0  0  0  0  0  0  0  0  0  0  0
  131.5622  131.3423  158.6453 C   0  0  0  0  0  0  0  0  0  0  0  0
  131.4706  130.1091  158.0232 C   0  0  0  0  0  0  0  0  0  0  0  0
  130.8681  130.1232  156.8332 C   0  0  0  0  0  0  0  0  0  0  0  0
  130.3689  131.7642  156.4441 S   0  0  0  0  0  0  0  0  0  0  0  0
  128.3642  135.5043  160.4267 N   0  0  0  0  0  0  0  0  0  0  0  0
  127.4032  134.4175  160.6304 C   0  0  1  0  0  0  0  0  0  0  0  0
  127.8749  133.4352  160.6595 H   0  0  0  0  0  0  0  0  0  0  0  0
  126.4281  134.6673  161.7930 C   0  0  0  0  0  0  0  0  0  0  0  0
  125.3329  134.0582  160.9018 C   0  0  1  0  0  0  0  0  0  0  0  0
  125.2375  132.9772  161.0042 H   0  0  0  0  0  0  0  0  0  0  0  0
  124.0786  134.7369  160.9917 O   0  0  0  0  0  0  0  0  0  0  0  0
  126.1853  134.4884  159.6941 C   0  0  0  0  0  0  0  0  0  0  0  0
  130.7210  140.3232  159.3491 H   0  0  0  0  0  0  0  0  0  0  0  0
  131.6913  139.9045  157.9169 H   0  0  0  0  0  0  0  0  0  0  0  0
  130.4765  138.7595  158.5346 H   0  0  0  0  0  0  0  0  0  0  0  0
  133.8159  140.1945  159.0513 H   0  0  0  0  0  0  0  0  0  0  0  0
  135.5216  139.1750  160.5035 H   0  0  0  0  0  0  0  0  0  0  0  0
  134.7806  136.4396  162.6793 H   0  0  0  0  0  0  0  0  0  0  0  0
  132.6029  136.4317  161.9936 H   0  0  0  0  0  0  0  0  0  0  0  0
  130.2713  136.8999  161.5199 H   0  0  0  0  0  0  0  0  0  0  0  0
  129.8145  138.1143  160.3014 H   0  0  0  0  0  0  0  0  0  0  0  0
  129.1301  133.3124  159.3219 H   0  0  0  0  0  0  0  0  0  0  0  0
  131.0186  134.4513  157.5576 H   0  0  0  0  0  0  0  0  0  0  0  0
  131.8592  133.9892  159.0571 H   0  0  0  0  0  0  0  0  0  0  0  0
  132.0299  131.4733  159.6098 H   0  0  0  0  0  0  0  0  0  0  0  0
  131.8610  129.2048  158.4661 H   0  0  0  0  0  0  0  0  0  0  0  0
  130.7105  129.2590  156.2050 H   0  0  0  0  0  0  0  0  0  0  0  0
  128.1877  136.3834  160.7967 H   0  0  0  0  0  0  0  0  0  0  0  0
  126.6473  134.0751  162.6816 H   0  0  0  0  0  0  0  0  0  0  0  0
  126.2749  135.7233  162.0152 H   0  0  0  0  0  0  0  0  0  0  0  0
  124.1163  135.6686  160.7352 H   0  0  0  0  0  0  0  0  0  0  0  0
  125.9645  135.4956  159.3404 H   0  0  0  0  0  0  0  0  0  0  0  0
  126.2088  133.7523  158.8906 H   0  0  0  0  0  0  0  0  0  0  0  0
  1  2  1  0
  1 28  1  0
  1 29  1  0
  1 30  1  0
  2  8  2  0
  2  3  1  0
  3  4  2  0
  3 31  1  0
  4  5  1  0
  4 32  1  0
  5  6  1  0
  5  7  2  0
  6 33  1  0
  7  8  1  0
  7 34  1  0
  8  9  1  0
  9 10  1  0
  9 35  1  0
  9 36  1  0
 10 11  1  0
 12 10  2  0
 12 13  1  0
 12 20  1  0
 13 14  1  0
 13 37  1  0
 14 15  1  0
 14 38  1  0
 14 39  1  0
 15 19  1  0
 15 16  2  0
 16 17  1  0
 16 40  1  0
 17 18  2  0
 17 41  1  0
 18 19  1  0
 18 42  1  0
 20 21  1  0
 20 43  1  0
 21 22  1  1
 21 27  1  0
 21 23  1  0
 23 24  1  0
 23 44  1  0
 23 45  1  0
 24 25  1  1
 24 26  1  0
 24 27  1  0
 26 46  1  0
 27 47  1  0
 27 48  1  0
M  CHG  1  10   1
M  END
>  <DOCK_score>  (1) 
-48.175072

>  <SMILES>  (1) 
Cc1ccc(O)cc1C[NH+]=C(NCc1cccs1)N[C@H]1C[C@@H](O)C1

$$$$
