Cc1cccc(CCNC(=O)c2nn(C3CCOCC3)cc2C[NH2+][C@H](CO)C2CCC2)c1C
     RDKit          3D

 72 75  0  0  1  0  0  0  0  0999 V2000
  136.3078  141.3285  164.0410 C   0  0  0  0  0  0  0  0  0  0  0  0
  136.0411  140.9906  162.5967 C   0  0  0  0  0  0  0  0  0  0  0  0
  136.4618  141.8479  161.5971 C   0  0  0  0  0  0  0  0  0  0  0  0
  136.2168  141.5382  160.2727 C   0  0  0  0  0  0  0  0  0  0  0  0
  135.5510  140.3710  159.9473 C   0  0  0  0  0  0  0  0  0  0  0  0
  135.1312  139.5135  160.9466 C   0  0  0  0  0  0  0  0  0  0  0  0
  134.4054  138.2411  160.5921 C   0  0  0  0  0  0  0  0  0  0  0  0
  132.9000  138.5096  160.5426 C   0  0  0  0  0  0  0  0  0  0  0  0
  132.1945  137.2729  160.1980 N   0  0  0  0  0  0  0  0  0  0  0  0
  131.2868  136.7552  161.0492 C   0  0  0  0  0  0  0  0  0  0  0  0
  131.0533  137.3148  162.1029 O   0  0  0  0  0  0  0  0  0  0  0  0
  130.5753  135.5083  160.7017 C   0  0  0  0  0  0  0  0  0  0  0  0
  130.7290  134.7979  159.6020 N   0  0  0  0  0  0  0  0  0  0  0  0
  129.9485  133.7778  159.6235 N   0  0  0  0  0  0  0  0  0  0  0  0
  129.8507  132.7751  158.5598 C   0  0  0  0  0  0  0  0  0  0  0  0
  130.8589  131.6517  158.8204 C   0  0  0  0  0  0  0  0  0  0  0  0
  130.8049  130.6497  157.6641 C   0  0  0  0  0  0  0  0  0  0  0  0
  131.0777  131.3270  156.4356 O   0  0  0  0  0  0  0  0  0  0  0  0
  130.1396  132.3567  156.1163 C   0  0  0  0  0  0  0  0  0  0  0  0
  130.1669  133.4272  157.2103 C   0  0  0  0  0  0  0  0  0  0  0  0
  129.2307  133.7629  160.7671 C   0  0  0  0  0  0  0  0  0  0  0  0
  129.6016  134.8474  161.4874 C   0  0  0  0  0  0  0  0  0  0  0  0
  129.0821  135.2662  162.8386 C   0  0  0  0  0  0  0  0  0  0  0  0
  128.7982  136.7074  162.8288 N   0  0  0  0  0  0  0  0  0  0  0  0
  128.1043  136.9087  162.1244 H   0  0  0  0  0  0  0  0  0  0  0  0
  129.6449  137.2157  162.6216 H   0  0  0  0  0  0  0  0  0  0  0  0
  128.2917  137.1158  164.1458 C   0  0  2  0  0  0  0  0  0  0  0  0
  127.6142  136.3519  164.5273 H   0  0  0  0  0  0  0  0  0  0  0  0
  127.5418  138.4430  164.0149 C   0  0  0  0  0  0  0  0  0  0  0  0
  126.7707  138.4377  162.8119 O   0  0  0  0  0  0  0  0  0  0  0  0
  129.4649  137.2860  165.1130 C   0  0  0  0  0  0  0  0  0  0  0  0
  129.9430  135.9659  165.7401 C   0  0  0  0  0  0  0  0  0  0  0  0
  130.1092  136.7428  167.0568 C   0  0  0  0  0  0  0  0  0  0  0  0
  129.0409  137.7150  166.5294 C   0  0  0  0  0  0  0  0  0  0  0  0
  135.3720  139.8255  162.2718 C   0  0  0  0  0  0  0  0  0  0  0  0
  134.9088  138.8936  163.3617 C   0  0  0  0  0  0  0  0  0  0  0  0
  135.4745  141.9080  164.4384 H   0  0  0  0  0  0  0  0  0  0  0  0
  136.4173  140.4085  164.6152 H   0  0  0  0  0  0  0  0  0  0  0  0
  137.2246  141.9135  164.1140 H   0  0  0  0  0  0  0  0  0  0  0  0
  136.9816  142.7598  161.8512 H   0  0  0  0  0  0  0  0  0  0  0  0
  136.5452  142.2081  159.4918 H   0  0  0  0  0  0  0  0  0  0  0  0
  135.3593  140.1292  158.9123 H   0  0  0  0  0  0  0  0  0  0  0  0
  134.6145  137.4817  161.3455 H   0  0  0  0  0  0  0  0  0  0  0  0
  134.7440  137.8893  159.6176 H   0  0  0  0  0  0  0  0  0  0  0  0
  132.6909  139.2692  159.7892 H   0  0  0  0  0  0  0  0  0  0  0  0
  132.5614  138.8616  161.5171 H   0  0  0  0  0  0  0  0  0  0  0  0
  132.3807  136.8264  159.3572 H   0  0  0  0  0  0  0  0  0  0  0  0
  128.8416  132.3635  158.5384 H   0  0  0  0  0  0  0  0  0  0  0  0
  131.8621  132.0720  158.8917 H   0  0  0  0  0  0  0  0  0  0  0  0
  130.6078  131.1459  159.7527 H   0  0  0  0  0  0  0  0  0  0  0  0
  129.8130  130.2001  157.6189 H   0  0  0  0  0  0  0  0  0  0  0  0
  131.5505  129.8707  157.8231 H   0  0  0  0  0  0  0  0  0  0  0  0
  129.1390  131.9293  156.0507 H   0  0  0  0  0  0  0  0  0  0  0  0
  130.4059  132.8072  155.1602 H   0  0  0  0  0  0  0  0  0  0  0  0
  129.4209  134.1911  156.9912 H   0  0  0  0  0  0  0  0  0  0  0  0
  131.1557  133.8842  157.2495 H   0  0  0  0  0  0  0  0  0  0  0  0
  128.4978  133.0233  161.0540 H   0  0  0  0  0  0  0  0  0  0  0  0
  129.8318  135.0487  163.5994 H   0  0  0  0  0  0  0  0  0  0  0  0
  128.1674  134.7172  163.0623 H   0  0  0  0  0  0  0  0  0  0  0  0
  126.8791  138.5719  164.8708 H   0  0  0  0  0  0  0  0  0  0  0  0
  128.2585  139.2637  163.9836 H   0  0  0  0  0  0  0  0  0  0  0  0
  126.1110  137.7320  162.7707 H   0  0  0  0  0  0  0  0  0  0  0  0
  130.2719  137.8894  164.6972 H   0  0  0  0  0  0  0  0  0  0  0  0
  130.8832  135.6013  165.3265 H   0  0  0  0  0  0  0  0  0  0  0  0
  129.1711  135.1973  165.7811 H   0  0  0  0  0  0  0  0  0  0  0  0
  129.7936  136.1827  167.9370 H   0  0  0  0  0  0  0  0  0  0  0  0
  131.0931  137.1970  167.1745 H   0  0  0  0  0  0  0  0  0  0  0  0
  128.0220  137.4257  166.7867 H   0  0  0  0  0  0  0  0  0  0  0  0
  129.2540  138.7606  166.7522 H   0  0  0  0  0  0  0  0  0  0  0  0
  135.6943  138.1698  163.5790 H   0  0  0  0  0  0  0  0  0  0  0  0
  134.6855  139.4683  164.2606 H   0  0  0  0  0  0  0  0  0  0  0  0
  134.0115  138.3687  163.0338 H   0  0  0  0  0  0  0  0  0  0  0  0
  1  2  1  0
  1 37  1  0
  1 38  1  0
  1 39  1  0
  2 35  2  0
  2  3  1  0
  3  4  2  0
  3 40  1  0
  4  5  1  0
  4 41  1  0
  5  6  2  0
  5 42  1  0
  6  7  1  0
  6 35  1  0
  7  8  1  0
  7 43  1  0
  7 44  1  0
  8  9  1  0
  8 45  1  0
  8 46  1  0
  9 10  1  0
  9 47  1  0
 10 11  2  0
 10 12  1  0
 12 22  1  0
 12 13  2  0
 13 14  1  0
 14 15  1  0
 14 21  1  0
 15 20  1  0
 15 16  1  0
 15 48  1  0
 16 17  1  0
 16 49  1  0
 16 50  1  0
 17 18  1  0
 17 51  1  0
 17 52  1  0
 18 19  1  0
 19 20  1  0
 19 53  1  0
 19 54  1  0
 20 55  1  0
 20 56  1  0
 21 22  2  0
 21 57  1  0
 22 23  1  0
 23 24  1  0
 23 58  1  0
 23 59  1  0
 24 25  1  0
 24 26  1  0
 24 27  1  0
 27 28  1  1
 27 29  1  0
 27 31  1  0
 29 30  1  0
 29 60  1  0
 29 61  1  0
 30 62  1  0
 31 34  1  0
 31 32  1  0
 31 63  1  0
 32 33  1  0
 32 64  1  0
 32 65  1  0
 33 34  1  0
 33 66  1  0
 33 67  1  0
 34 68  1  0
 34 69  1  0
 35 36  1  0
 36 70  1  0
 36 71  1  0
 36 72  1  0
M  CHG  1  24   1
M  END
>  <DOCK_score>  (1) 
-42.526169

>  <SMILES>  (1) 
Cc1cccc(CCNC(=O)c2nn(C3CCOCC3)cc2C[NH2+][C@H](CO)C2CCC2)c1C

$$$$
