CCc1ccc(-c2c[nH]c(N[C@H]3CCC=C3Cc3ccccn3)[nH+]2)cc1
     RDKit          3D

 51 54  0  0  1  0  0  0  0  0999 V2000
  130.3062  128.5736  151.5739 C   0  0  0  0  0  0  0  0  0  0  0  0
  131.3967  129.6028  151.8781 C   0  0  0  0  0  0  0  0  0  0  0  0
  131.0748  130.3090  153.1699 C   0  0  0  0  0  0  0  0  0  0  0  0
  131.5435  129.7995  154.3682 C   0  0  0  0  0  0  0  0  0  0  0  0
  131.2513  130.4410  155.5547 C   0  0  0  0  0  0  0  0  0  0  0  0
  130.4832  131.6040  155.5442 C   0  0  0  0  0  0  0  0  0  0  0  0
  130.1655  132.2977  156.8163 C   0  0  0  0  0  0  0  0  0  0  0  0
  129.4860  131.7705  157.8647 C   0  0  0  0  0  0  0  0  0  0  0  0
  129.4172  132.7481  158.8273 N   0  0  0  0  0  0  0  0  0  0  0  0
  128.9906  132.6710  159.6950 H   0  0  0  0  0  0  0  0  0  0  0  0
  130.0528  133.8469  158.3364 C   0  0  0  0  0  0  0  0  0  0  0  0
  130.2018  135.0545  158.9967 N   0  0  0  0  0  0  0  0  0  0  0  0
  129.6496  135.2263  160.3427 C   0  0  1  0  0  0  0  0  0  0  0  0
  129.8046  134.3238  160.9341 H   0  0  0  0  0  0  0  0  0  0  0  0
  130.2961  136.4467  161.0384 C   0  0  0  0  0  0  0  0  0  0  0  0
  129.0976  137.0166  161.8322 C   0  0  0  0  0  0  0  0  0  0  0  0
  127.8769  136.5376  161.0815 C   0  0  0  0  0  0  0  0  0  0  0  0
  128.1780  135.5612  160.2692 C   0  0  0  0  0  0  0  0  0  0  0  0
  127.1879  134.8602  159.3750 C   0  0  0  0  0  0  0  0  0  0  0  0
  126.5924  133.6862  160.1083 C   0  0  0  0  0  0  0  0  0  0  0  0
  125.3018  133.2837  159.8197 C   0  0  0  0  0  0  0  0  0  0  0  0
  124.7655  132.1987  160.4957 C   0  0  0  0  0  0  0  0  0  0  0  0
  125.5468  131.5632  161.4491 C   0  0  0  0  0  0  0  0  0  0  0  0
  126.8267  132.0259  161.6879 C   0  0  0  0  0  0  0  0  0  0  0  0
  127.3065  133.0578  161.0214 N   0  0  0  0  0  0  0  0  0  0  0  0
  130.5031  133.5722  157.1365 N   0  0  0  0  0  0  0  0  0  0  0  0
  130.9960  134.1835  156.5672 H   0  0  0  0  0  0  0  0  0  0  0  0
  130.0101  132.1096  154.3347 C   0  0  0  0  0  0  0  0  0  0  0  0
  130.3125  131.4624  153.1539 C   0  0  0  0  0  0  0  0  0  0  0  0
  130.2580  127.8452  152.3833 H   0  0  0  0  0  0  0  0  0  0  0  0
  129.3448  129.0792  151.4823 H   0  0  0  0  0  0  0  0  0  0  0  0
  130.5387  128.0633  150.6393 H   0  0  0  0  0  0  0  0  0  0  0  0
  131.4448  130.3310  151.0685 H   0  0  0  0  0  0  0  0  0  0  0  0
  132.3580  129.0972  151.9695 H   0  0  0  0  0  0  0  0  0  0  0  0
  132.1384  128.8982  154.3750 H   0  0  0  0  0  0  0  0  0  0  0  0
  131.6174  130.0428  156.4894 H   0  0  0  0  0  0  0  0  0  0  0  0
  129.0770  130.7731  157.9303 H   0  0  0  0  0  0  0  0  0  0  0  0
  130.6718  135.7868  158.5682 H   0  0  0  0  0  0  0  0  0  0  0  0
  131.0972  136.1358  161.7090 H   0  0  0  0  0  0  0  0  0  0  0  0
  130.6588  137.1679  160.3060 H   0  0  0  0  0  0  0  0  0  0  0  0
  129.1332  138.1060  161.8434 H   0  0  0  0  0  0  0  0  0  0  0  0
  129.0956  136.6255  162.8496 H   0  0  0  0  0  0  0  0  0  0  0  0
  126.8857  136.9492  161.2010 H   0  0  0  0  0  0  0  0  0  0  0  0
  126.3952  135.5546  159.0962 H   0  0  0  0  0  0  0  0  0  0  0  0
  127.6952  134.5084  158.4767 H   0  0  0  0  0  0  0  0  0  0  0  0
  124.7202  133.8053  159.0741 H   0  0  0  0  0  0  0  0  0  0  0  0
  123.7614  131.8593  160.2881 H   0  0  0  0  0  0  0  0  0  0  0  0
  125.1598  130.7172  161.9976 H   0  0  0  0  0  0  0  0  0  0  0  0
  127.4415  131.5365  162.4287 H   0  0  0  0  0  0  0  0  0  0  0  0
  129.4107  133.0079  154.3211 H   0  0  0  0  0  0  0  0  0  0  0  0
  129.9494  131.8552  152.2156 H   0  0  0  0  0  0  0  0  0  0  0  0
  1  2  1  0
  1 30  1  0
  1 31  1  0
  1 32  1  0
  2  3  1  0
  2 33  1  0
  2 34  1  0
  3 29  2  0
  3  4  1  0
  4  5  2  0
  4 35  1  0
  5  6  1  0
  5 36  1  0
  6  7  1  0
  6 28  2  0
  7 26  1  0
  7  8  2  0
  8  9  1  0
  8 37  1  0
  9 10  1  0
  9 11  1  0
 11 12  1  0
 11 26  2  0
 12 13  1  0
 12 38  1  0
 13 14  1  1
 13 18  1  0
 13 15  1  0
 15 16  1  0
 15 39  1  0
 15 40  1  0
 16 17  1  0
 16 41  1  0
 16 42  1  0
 17 18  2  0
 17 43  1  0
 18 19  1  0
 19 20  1  0
 19 44  1  0
 19 45  1  0
 20 25  1  0
 20 21  2  0
 21 22  1  0
 21 46  1  0
 22 23  2  0
 22 47  1  0
 23 24  1  0
 23 48  1  0
 24 25  2  0
 24 49  1  0
 26 27  1  0
 28 29  1  0
 28 50  1  0
 29 51  1  0
M  CHG  1  26   1
M  END
>  <DOCK_score>  (1) 
-58.101086

>  <SMILES>  (1) 
CCc1ccc(-c2c[nH]c(N[C@H]3CCC=C3Cc3ccccn3)[nH+]2)cc1

$$$$
