Cc1nn(-c2ccccc2)cc1C[NH2+][C@H]1CCC=C1N[C@@H]1C[C@H]1c1ccc(Cl)cc1Cl
     RDKit          3D

 58 62  0  0  1  0  0  0  0  0999 V2000
  130.3436  131.5050  160.5366 C   0  0  0  0  0  0  0  0  0  0  0  0
  130.4795  131.9362  159.0990 C   0  0  0  0  0  0  0  0  0  0  0  0
  130.7415  131.1520  158.0845 N   0  0  0  0  0  0  0  0  0  0  0  0
  130.7881  131.9368  156.9250 N   0  0  0  0  0  0  0  0  0  0  0  0
  131.0454  131.4756  155.6264 C   0  0  0  0  0  0  0  0  0  0  0  0
  131.0565  132.3663  154.5614 C   0  0  0  0  0  0  0  0  0  0  0  0
  131.3156  131.9097  153.2839 C   0  0  0  0  0  0  0  0  0  0  0  0
  131.5535  130.5654  153.0635 C   0  0  0  0  0  0  0  0  0  0  0  0
  131.5374  129.6751  154.1214 C   0  0  0  0  0  0  0  0  0  0  0  0
  131.2842  130.1265  155.4019 C   0  0  0  0  0  0  0  0  0  0  0  0
  130.5352  133.2170  157.2793 C   0  0  0  0  0  0  0  0  0  0  0  0
  130.3410  133.2430  158.6182 C   0  0  0  0  0  0  0  0  0  0  0  0
  130.0308  134.4637  159.4456 C   0  0  0  0  0  0  0  0  0  0  0  0
  131.2848  135.0746  159.9065 N   0  0  0  0  0  0  0  0  0  0  0  0
  131.7968  134.4096  160.4667 H   0  0  0  0  0  0  0  0  0  0  0  0
  131.8419  135.3416  159.1087 H   0  0  0  0  0  0  0  0  0  0  0  0
  130.9825  136.2645  160.7130 C   0  0  1  0  0  0  0  0  0  0  0  0
  130.1565  136.8218  160.2710 H   0  0  0  0  0  0  0  0  0  0  0  0
  130.6414  135.8581  162.1652 C   0  0  0  0  0  0  0  0  0  0  0  0
  132.0178  135.9949  162.8562 C   0  0  0  0  0  0  0  0  0  0  0  0
  132.7751  136.9939  162.0126 C   0  0  0  0  0  0  0  0  0  0  0  0
  132.2064  137.1420  160.8356 C   0  0  0  0  0  0  0  0  0  0  0  0
  132.6696  137.9912  159.8385 N   0  0  0  0  0  0  0  0  0  0  0  0
  133.3831  139.2198  160.1958 C   0  0  2  0  0  0  0  0  0  0  0  0
  132.8225  139.9288  160.8049 H   0  0  0  0  0  0  0  0  0  0  0  0
  134.3642  139.7909  159.1700 C   0  0  0  0  0  0  0  0  0  0  0  0
  134.8901  139.1162  160.4394 C   0  0  1  0  0  0  0  0  0  0  0  0
  135.3505  138.1338  160.3341 H   0  0  0  0  0  0  0  0  0  0  0  0
  135.4856  140.0025  161.5028 C   0  0  0  0  0  0  0  0  0  0  0  0
  134.7251  140.3789  162.5941 C   0  0  0  0  0  0  0  0  0  0  0  0
  135.2706  141.1914  163.5699 C   0  0  0  0  0  0  0  0  0  0  0  0
  136.5784  141.6288  163.4551 C   0  0  0  0  0  0  0  0  0  0  0  0
  137.2633  142.6497  164.6807 Cl  0  0  0  0  0  0  0  0  0  0  0  0
  137.3396  141.2526  162.3634 C   0  0  0  0  0  0  0  0  0  0  0  0
  136.7947  140.4348  161.3895 C   0  0  0  0  0  0  0  0  0  0  0  0
  137.7516  139.9566  160.0222 Cl  0  0  0  0  0  0  0  0  0  0  0  0
  129.3057  131.2419  160.7405 H   0  0  0  0  0  0  0  0  0  0  0  0
  130.9803  130.6390  160.7178 H   0  0  0  0  0  0  0  0  0  0  0  0
  130.6466  132.3221  161.1913 H   0  0  0  0  0  0  0  0  0  0  0  0
  130.8666  133.4156  154.7323 H   0  0  0  0  0  0  0  0  0  0  0  0
  131.3281  132.6027  152.4556 H   0  0  0  0  0  0  0  0  0  0  0  0
  131.7518  130.2102  152.0630 H   0  0  0  0  0  0  0  0  0  0  0  0
  131.7230  128.6256  153.9461 H   0  0  0  0  0  0  0  0  0  0  0  0
  131.2715  129.4306  156.2277 H   0  0  0  0  0  0  0  0  0  0  0  0
  130.4953  134.0664  156.6133 H   0  0  0  0  0  0  0  0  0  0  0  0
  129.4778  135.1820  158.8403 H   0  0  0  0  0  0  0  0  0  0  0  0
  129.4290  134.1752  160.3074 H   0  0  0  0  0  0  0  0  0  0  0  0
  129.9149  136.5431  162.6023 H   0  0  0  0  0  0  0  0  0  0  0  0
  130.2817  134.8300  162.2090 H   0  0  0  0  0  0  0  0  0  0  0  0
  131.8966  136.3704  163.8721 H   0  0  0  0  0  0  0  0  0  0  0  0
  132.5343  135.0351  162.8661 H   0  0  0  0  0  0  0  0  0  0  0  0
  133.6640  137.5166  162.3332 H   0  0  0  0  0  0  0  0  0  0  0  0
  132.5207  137.7706  158.9057 H   0  0  0  0  0  0  0  0  0  0  0  0
  134.4787  139.2525  158.2291 H   0  0  0  0  0  0  0  0  0  0  0  0
  134.4491  140.8756  159.1045 H   0  0  0  0  0  0  0  0  0  0  0  0
  133.7043  140.0381  162.6842 H   0  0  0  0  0  0  0  0  0  0  0  0
  134.6761  141.4848  164.4226 H   0  0  0  0  0  0  0  0  0  0  0  0
  138.3606  141.5933  162.2735 H   0  0  0  0  0  0  0  0  0  0  0  0
  1  2  1  0
  1 37  1  0
  1 38  1  0
  1 39  1  0
  2 12  1  0
  2  3  2  0
  3  4  1  0
  4  5  1  0
  4 11  1  0
  5 10  1  0
  5  6  2  0
  6  7  1  0
  6 40  1  0
  7  8  2  0
  7 41  1  0
  8  9  1  0
  8 42  1  0
  9 10  2  0
  9 43  1  0
 10 44  1  0
 11 12  2  0
 11 45  1  0
 12 13  1  0
 13 14  1  0
 13 46  1  0
 13 47  1  0
 14 15  1  0
 14 16  1  0
 14 17  1  0
 17 18  1  6
 17 22  1  0
 17 19  1  0
 19 20  1  0
 19 48  1  0
 19 49  1  0
 20 21  1  0
 20 50  1  0
 20 51  1  0
 21 22  2  0
 21 52  1  0
 22 23  1  0
 23 24  1  0
 23 53  1  0
 24 25  1  1
 24 27  1  0
 24 26  1  0
 26 27  1  0
 26 54  1  0
 26 55  1  0
 27 28  1  6
 27 29  1  0
 29 35  1  0
 29 30  2  0
 30 31  1  0
 30 56  1  0
 31 32  2  0
 31 57  1  0
 32 33  1  0
 32 34  1  0
 34 35  2  0
 34 58  1  0
 35 36  1  0
M  CHG  1  14   1
M  END
>  <DOCK_score>  (1) 
-64.311073

>  <SMILES>  (1) 
Cc1nn(-c2ccccc2)cc1C[NH2+][C@H]1CCC=C1N[C@@H]1C[C@H]1c1ccc(Cl)cc1Cl

$$$$
