CCc1ccc(Nc2ccc(-c3n[nH]cc3C[NH2+]C3CCC(C4CC4)CC3)o2)cc1
     RDKit          3D

 63 67  0  0  1  0  0  0  0  0999 V2000
  128.8918  138.8688  167.1068 C   0  0  0  0  0  0  0  0  0  0  0  0
  129.4140  139.1132  165.6895 C   0  0  0  0  0  0  0  0  0  0  0  0
  128.5668  138.3507  164.7037 C   0  0  0  0  0  0  0  0  0  0  0  0
  127.4503  138.9476  164.1470 C   0  0  0  0  0  0  0  0  0  0  0  0
  126.6717  138.2518  163.2432 C   0  0  0  0  0  0  0  0  0  0  0  0
  127.0112  136.9507  162.8934 C   0  0  0  0  0  0  0  0  0  0  0  0
  126.2259  136.2440  161.9796 N   0  0  0  0  0  0  0  0  0  0  0  0
  126.8066  135.2791  161.1642 C   0  0  0  0  0  0  0  0  0  0  0  0
  126.1903  134.1682  160.6886 C   0  0  0  0  0  0  0  0  0  0  0  0
  127.1374  133.4737  159.9109 C   0  0  0  0  0  0  0  0  0  0  0  0
  128.2872  134.1977  159.9512 C   0  0  0  0  0  0  0  0  0  0  0  0
  129.5539  133.8485  159.2758 C   0  0  0  0  0  0  0  0  0  0  0  0
  129.7678  132.7824  158.5300 N   0  0  0  0  0  0  0  0  0  0  0  0
  131.0935  132.8256  158.0800 N   0  0  0  0  0  0  0  0  0  0  0  0
  131.5233  132.1670  157.5120 H   0  0  0  0  0  0  0  0  0  0  0  0
  131.6684  133.9459  158.5687 C   0  0  0  0  0  0  0  0  0  0  0  0
  130.7497  134.5963  159.3145 C   0  0  0  0  0  0  0  0  0  0  0  0
  130.9619  135.8932  160.0517 C   0  0  0  0  0  0  0  0  0  0  0  0
  132.3412  136.3544  159.8444 N   0  0  0  0  0  0  0  0  0  0  0  0
  132.5035  136.4972  158.8588 H   0  0  0  0  0  0  0  0  0  0  0  0
  132.9842  135.6598  160.1939 H   0  0  0  0  0  0  0  0  0  0  0  0
  132.5480  137.6188  160.5630 C   0  0  1  0  0  0  0  0  0  0  0  0
  132.7971  137.3287  162.0445 C   0  0  0  0  0  0  0  0  0  0  0  0
  133.0123  138.6456  162.7930 C   0  0  0  0  0  0  0  0  0  0  0  0
  134.2227  139.3740  162.2055 C   0  0  2  0  0  0  0  0  0  0  0  0
  134.4382  140.6910  162.9539 C   0  0  0  0  0  0  0  0  0  0  0  0
  135.8744  141.2010  163.0874 C   0  0  0  0  0  0  0  0  0  0  0  0
  135.1503  140.6265  164.3066 C   0  0  0  0  0  0  0  0  0  0  0  0
  133.9737  139.6642  160.7241 C   0  0  0  0  0  0  0  0  0  0  0  0
  133.7583  138.3473  159.9756 C   0  0  0  0  0  0  0  0  0  0  0  0
  128.0747  135.2872  160.7187 O   0  0  0  0  0  0  0  0  0  0  0  0
  128.1303  136.3522  163.4591 C   0  0  0  0  0  0  0  0  0  0  0  0
  128.9073  137.0556  164.3581 C   0  0  0  0  0  0  0  0  0  0  0  0
  129.5047  139.4204  167.8199 H   0  0  0  0  0  0  0  0  0  0  0  0
  127.8584  139.2084  167.1768 H   0  0  0  0  0  0  0  0  0  0  0  0
  128.9405  137.8038  167.3333 H   0  0  0  0  0  0  0  0  0  0  0  0
  130.4474  138.7737  165.6195 H   0  0  0  0  0  0  0  0  0  0  0  0
  129.3653  140.1783  165.4630 H   0  0  0  0  0  0  0  0  0  0  0  0
  127.1869  139.9588  164.4197 H   0  0  0  0  0  0  0  0  0  0  0  0
  125.7997  138.7184  162.8092 H   0  0  0  0  0  0  0  0  0  0  0  0
  125.2755  136.4264  161.9139 H   0  0  0  0  0  0  0  0  0  0  0  0
  125.1679  133.8721  160.8719 H   0  0  0  0  0  0  0  0  0  0  0  0
  126.9802  132.5443  159.3838 H   0  0  0  0  0  0  0  0  0  0  0  0
  132.6857  134.2643  158.3956 H   0  0  0  0  0  0  0  0  0  0  0  0
  130.7866  135.7389  161.1164 H   0  0  0  0  0  0  0  0  0  0  0  0
  130.2673  136.6438  159.6741 H   0  0  0  0  0  0  0  0  0  0  0  0
  131.6616  138.2447  160.4594 H   0  0  0  0  0  0  0  0  0  0  0  0
  133.6834  136.7027  162.1483 H   0  0  0  0  0  0  0  0  0  0  0  0
  131.9347  136.8096  162.4631 H   0  0  0  0  0  0  0  0  0  0  0  0
  133.1898  138.4389  163.8484 H   0  0  0  0  0  0  0  0  0  0  0  0
  132.1261  139.2715  162.6893 H   0  0  0  0  0  0  0  0  0  0  0  0
  135.1091  138.7481  162.3091 H   0  0  0  0  0  0  0  0  0  0  0  0
  133.6490  141.4335  162.8354 H   0  0  0  0  0  0  0  0  0  0  0  0
  136.6659  140.5983  162.6419 H   0  0  0  0  0  0  0  0  0  0  0  0
  136.0305  142.2793  163.0566 H   0  0  0  0  0  0  0  0  0  0  0  0
  134.8298  141.3269  165.0778 H   0  0  0  0  0  0  0  0  0  0  0  0
  135.4649  139.6459  164.6633 H   0  0  0  0  0  0  0  0  0  0  0  0
  133.0874  140.2902  160.6204 H   0  0  0  0  0  0  0  0  0  0  0  0
  134.8360  140.1832  160.3054 H   0  0  0  0  0  0  0  0  0  0  0  0
  134.6447  137.7213  160.0792 H   0  0  0  0  0  0  0  0  0  0  0  0
  133.5809  138.5540  158.9202 H   0  0  0  0  0  0  0  0  0  0  0  0
  128.3945  135.3394  163.1927 H   0  0  0  0  0  0  0  0  0  0  0  0
  129.7797  136.5925  164.7950 H   0  0  0  0  0  0  0  0  0  0  0  0
  1  2  1  0
  1 34  1  0
  1 35  1  0
  1 36  1  0
  2  3  1  0
  2 37  1  0
  2 38  1  0
  3 33  2  0
  3  4  1  0
  4  5  2  0
  4 39  1  0
  5  6  1  0
  5 40  1  0
  6  7  1  0
  6 32  2  0
  7  8  1  0
  7 41  1  0
  8 31  1  0
  8  9  2  0
  9 10  1  0
  9 42  1  0
 10 11  2  0
 10 43  1  0
 11 12  1  0
 11 31  1  0
 12 17  1  0
 12 13  2  0
 13 14  1  0
 14 15  1  0
 14 16  1  0
 16 17  2  0
 16 44  1  0
 17 18  1  0
 18 19  1  0
 18 45  1  0
 18 46  1  0
 19 20  1  0
 19 21  1  0
 19 22  1  0
 22 30  1  0
 22 23  1  0
 22 47  1  1
 23 24  1  0
 23 48  1  0
 23 49  1  0
 24 25  1  0
 24 50  1  0
 24 51  1  0
 25 26  1  0
 25 29  1  0
 25 52  1  6
 26 28  1  0
 26 27  1  0
 26 53  1  0
 27 28  1  0
 27 54  1  0
 27 55  1  0
 28 56  1  0
 28 57  1  0
 29 30  1  0
 29 58  1  0
 29 59  1  0
 30 60  1  0
 30 61  1  0
 32 33  1  0
 32 62  1  0
 33 63  1  0
M  CHG  1  19   1
M  END
>  <DOCK_score>  (1) 
-45.989258

>  <SMILES>  (1) 
CCc1ccc(Nc2ccc(-c3n[nH]cc3C[NH2+]C3CCC(C4CC4)CC3)o2)cc1

$$$$
