c1ccc(-c2ccc(-c3c[nH]c(Nc4ccc(Nc5nc6ccccc6[nH]5)cc4)[nH+]3)cc2)cc1
     RDKit          3D

 57 62  0  0  1  0  0  0  0  0999 V2000
  130.3313  128.8236  150.3914 C   0  0  0  0  0  0  0  0  0  0  0  0
  130.2553  130.2049  150.4278 C   0  0  0  0  0  0  0  0  0  0  0  0
  130.3433  130.8717  151.6328 C   0  0  0  0  0  0  0  0  0  0  0  0
  130.5091  130.1507  152.8146 C   0  0  0  0  0  0  0  0  0  0  0  0
  130.6043  130.8617  154.1127 C   0  0  0  0  0  0  0  0  0  0  0  0
  129.9404  132.0749  154.2937 C   0  0  0  0  0  0  0  0  0  0  0  0
  130.0291  132.7353  155.4992 C   0  0  0  0  0  0  0  0  0  0  0  0
  130.7827  132.1906  156.5389 C   0  0  0  0  0  0  0  0  0  0  0  0
  130.8783  132.9013  157.8364 C   0  0  0  0  0  0  0  0  0  0  0  0
  130.4845  132.4190  159.0421 C   0  0  0  0  0  0  0  0  0  0  0  0
  130.7566  133.3943  159.9696 N   0  0  0  0  0  0  0  0  0  0  0  0
  130.5902  133.3421  160.9237 H   0  0  0  0  0  0  0  0  0  0  0  0
  131.3007  134.4490  159.3024 C   0  0  0  0  0  0  0  0  0  0  0  0
  131.7132  135.6402  159.8760 N   0  0  0  0  0  0  0  0  0  0  0  0
  131.5844  135.8339  161.2567 C   0  0  0  0  0  0  0  0  0  0  0  0
  130.8118  136.8811  161.7419 C   0  0  0  0  0  0  0  0  0  0  0  0
  130.6800  137.0685  163.1034 C   0  0  0  0  0  0  0  0  0  0  0  0
  131.3244  136.2132  163.9876 C   0  0  0  0  0  0  0  0  0  0  0  0
  131.1911  136.4036  165.3686 N   0  0  0  0  0  0  0  0  0  0  0  0
  132.2154  136.0378  166.2176 C   0  0  0  0  0  0  0  0  0  0  0  0
  133.3516  135.5057  165.8409 N   0  0  0  0  0  0  0  0  0  0  0  0
  134.1291  135.2713  166.9303 C   0  0  0  0  0  0  0  0  0  0  0  0
  135.4064  134.7308  167.0996 C   0  0  0  0  0  0  0  0  0  0  0  0
  135.9399  134.6202  168.3640 C   0  0  0  0  0  0  0  0  0  0  0  0
  135.2191  135.0414  169.4715 C   0  0  0  0  0  0  0  0  0  0  0  0
  133.9566  135.5772  169.3214 C   0  0  0  0  0  0  0  0  0  0  0  0
  133.4036  135.6963  168.0554 C   0  0  0  0  0  0  0  0  0  0  0  0
  132.1982  136.1817  167.5758 N   0  0  0  0  0  0  0  0  0  0  0  0
  131.4757  136.5530  168.1058 H   0  0  0  0  0  0  0  0  0  0  0  0
  132.1012  135.1691  163.5024 C   0  0  0  0  0  0  0  0  0  0  0  0
  132.2329  134.9816  162.1410 C   0  0  0  0  0  0  0  0  0  0  0  0
  131.3749  134.1491  158.0286 N   0  0  0  0  0  0  0  0  0  0  0  0
  131.7286  134.7268  157.3343 H   0  0  0  0  0  0  0  0  0  0  0  0
  131.4509  130.9800  156.3559 C   0  0  0  0  0  0  0  0  0  0  0  0
  131.3580  130.3173  155.1520 C   0  0  0  0  0  0  0  0  0  0  0  0
  130.5904  128.7603  152.7708 C   0  0  0  0  0  0  0  0  0  0  0  0
  130.4957  128.1038  151.5606 C   0  0  0  0  0  0  0  0  0  0  0  0
  130.2619  128.3059  149.4462 H   0  0  0  0  0  0  0  0  0  0  0  0
  130.1273  130.7622  149.5116 H   0  0  0  0  0  0  0  0  0  0  0  0
  130.2846  131.9497  151.6604 H   0  0  0  0  0  0  0  0  0  0  0  0
  129.3569  132.4964  153.4886 H   0  0  0  0  0  0  0  0  0  0  0  0
  129.5149  133.6746  155.6393 H   0  0  0  0  0  0  0  0  0  0  0  0
  130.0454  131.4516  159.2357 H   0  0  0  0  0  0  0  0  0  0  0  0
  132.0915  136.3402  159.3212 H   0  0  0  0  0  0  0  0  0  0  0  0
  130.3105  137.5461  161.0543 H   0  0  0  0  0  0  0  0  0  0  0  0
  130.0763  137.8806  163.4807 H   0  0  0  0  0  0  0  0  0  0  0  0
  130.3787  136.7928  165.7284 H   0  0  0  0  0  0  0  0  0  0  0  0
  135.9730  134.4005  166.2416 H   0  0  0  0  0  0  0  0  0  0  0  0
  136.9273  134.2026  168.4943 H   0  0  0  0  0  0  0  0  0  0  0  0
  135.6488  134.9495  170.4581 H   0  0  0  0  0  0  0  0  0  0  0  0
  133.4006  135.9037  170.1878 H   0  0  0  0  0  0  0  0  0  0  0  0
  132.6025  134.5042  164.1901 H   0  0  0  0  0  0  0  0  0  0  0  0
  132.8367  134.1696  161.7637 H   0  0  0  0  0  0  0  0  0  0  0  0
  132.0383  130.5604  157.1593 H   0  0  0  0  0  0  0  0  0  0  0  0
  131.8723  129.3781  155.0115 H   0  0  0  0  0  0  0  0  0  0  0  0
  130.7233  128.1971  153.6827 H   0  0  0  0  0  0  0  0  0  0  0  0
  130.5545  127.0260  151.5259 H   0  0  0  0  0  0  0  0  0  0  0  0
  1 37  2  0
  1  2  1  0
  1 38  1  0
  2  3  2  0
  2 39  1  0
  3  4  1  0
  3 40  1  0
  4  5  1  0
  4 36  2  0
  5 35  1  0
  5  6  2  0
  6  7  1  0
  6 41  1  0
  7  8  2  0
  7 42  1  0
  8  9  1  0
  8 34  1  0
  9 32  1  0
  9 10  2  0
 10 11  1  0
 10 43  1  0
 11 12  1  0
 11 13  1  0
 13 14  1  0
 13 32  2  0
 14 15  1  0
 14 44  1  0
 15 31  1  0
 15 16  2  0
 16 17  1  0
 16 45  1  0
 17 18  2  0
 17 46  1  0
 18 19  1  0
 18 30  1  0
 19 20  1  0
 19 47  1  0
 20 28  1  0
 20 21  2  0
 21 22  1  0
 22 27  2  0
 22 23  1  0
 23 24  2  0
 23 48  1  0
 24 25  1  0
 24 49  1  0
 25 26  2  0
 25 50  1  0
 26 27  1  0
 26 51  1  0
 27 28  1  0
 28 29  1  0
 30 31  2  0
 30 52  1  0
 31 53  1  0
 32 33  1  0
 34 35  2  0
 34 54  1  0
 35 55  1  0
 36 37  1  0
 36 56  1  0
 37 57  1  0
M  CHG  1  32   1
M  END
>  <DOCK_score>  (1) 
-61.589424

>  <SMILES>  (1) 
c1ccc(-c2ccc(-c3c[nH]c(Nc4ccc(Nc5nc6ccccc6[nH]5)cc4)[nH+]3)cc2)cc1

$$$$
