O=C1CC[C@H](NC(NC2CC2)=[NH+][C@@H]2COc3cc(N4CC[C@H]4c4ccccc4)ccc3C2)CN1
     RDKit          3D

 68 73  0  0  1  0  0  0  0  0999 V2000
  123.4679  134.1482  161.4487 O   0  0  0  0  0  0  0  0  0  0  0  0
  124.6655  134.2166  161.2701 C   0  0  0  0  0  0  0  0  0  0  0  0
  125.3112  133.1928  160.3812 C   0  0  0  0  0  0  0  0  0  0  0  0
  126.8224  133.1715  160.6236 C   0  0  0  0  0  0  0  0  0  0  0  0
  127.3408  134.6139  160.5795 C   0  0  2  0  0  0  0  0  0  0  0  0
  127.0079  135.0942  159.6594 H   0  0  0  0  0  0  0  0  0  0  0  0
  128.8047  134.6120  160.6348 N   0  0  0  0  0  0  0  0  0  0  0  0
  129.5365  134.5587  159.4720 C   0  0  0  0  0  0  0  0  0  0  0  0
  129.0278  133.9157  158.3684 N   0  0  0  0  0  0  0  0  0  0  0  0
  129.8077  133.8589  157.1295 C   0  0  0  0  0  0  0  0  0  0  0  0
  129.4635  132.7544  156.1282 C   0  0  0  0  0  0  0  0  0  0  0  0
  130.7547  132.6715  156.9447 C   0  0  0  0  0  0  0  0  0  0  0  0
  130.7127  135.1177  159.4161 N   0  0  0  0  0  0  0  0  0  0  0  0
  131.2290  135.0800  158.5957 H   0  0  0  0  0  0  0  0  0  0  0  0
  131.2548  135.8027  160.5921 C   0  0  2  0  0  0  0  0  0  0  0  0
  130.4387  136.2130  161.1870 H   0  0  0  0  0  0  0  0  0  0  0  0
  132.1893  136.9348  160.1459 C   0  0  0  0  0  0  0  0  0  0  0  0
  132.6186  137.6477  161.3067 O   0  0  0  0  0  0  0  0  0  0  0  0
  133.0978  136.9268  162.3538 C   0  0  0  0  0  0  0  0  0  0  0  0
  133.8443  137.5851  163.3241 C   0  0  0  0  0  0  0  0  0  0  0  0
  134.3469  136.8852  164.4102 C   0  0  0  0  0  0  0  0  0  0  0  0
  135.0963  137.5480  165.3847 N   0  0  0  0  0  0  0  0  0  0  0  0
  136.2252  138.2776  164.7777 C   0  0  0  0  0  0  0  0  0  0  0  0
  137.0928  137.7986  165.9501 C   0  0  0  0  0  0  0  0  0  0  0  0
  136.0849  136.6418  165.9984 C   0  0  1  0  0  0  0  0  0  0  0  0
  136.3578  135.8010  165.3605 H   0  0  0  0  0  0  0  0  0  0  0  0
  135.7225  136.2175  167.3983 C   0  0  0  0  0  0  0  0  0  0  0  0
  136.1213  134.9813  167.8711 C   0  0  0  0  0  0  0  0  0  0  0  0
  135.7922  134.5938  169.1565 C   0  0  0  0  0  0  0  0  0  0  0  0
  135.0569  135.4391  169.9663 C   0  0  0  0  0  0  0  0  0  0  0  0
  134.6541  136.6734  169.4920 C   0  0  0  0  0  0  0  0  0  0  0  0
  134.9864  137.0625  168.2078 C   0  0  0  0  0  0  0  0  0  0  0  0
  134.1023  135.5221  164.5265 C   0  0  0  0  0  0  0  0  0  0  0  0
  133.3625  134.8712  163.5608 C   0  0  0  0  0  0  0  0  0  0  0  0
  132.8604  135.5680  162.4734 C   0  0  0  0  0  0  0  0  0  0  0  0
  132.0646  134.8159  161.4365 C   0  0  0  0  0  0  0  0  0  0  0  0
  126.7828  135.3721  161.7843 C   0  0  0  0  0  0  0  0  0  0  0  0
  125.3385  135.1973  161.8731 N   0  0  0  0  0  0  0  0  0  0  0  0
  125.1152  133.4434  159.3387 H   0  0  0  0  0  0  0  0  0  0  0  0
  124.8954  132.2094  160.6002 H   0  0  0  0  0  0  0  0  0  0  0  0
  127.0312  132.7362  161.6009 H   0  0  0  0  0  0  0  0  0  0  0  0
  127.3103  132.5823  159.8471 H   0  0  0  0  0  0  0  0  0  0  0  0
  129.2578  134.6484  161.4917 H   0  0  0  0  0  0  0  0  0  0  0  0
  128.1526  133.4998  158.4101 H   0  0  0  0  0  0  0  0  0  0  0  0
  130.1236  134.8218  156.7284 H   0  0  0  0  0  0  0  0  0  0  0  0
  128.6569  132.0702  156.3912 H   0  0  0  0  0  0  0  0  0  0  0  0
  129.5529  132.9908  155.0679 H   0  0  0  0  0  0  0  0  0  0  0  0
  131.6935  132.8532  156.4217 H   0  0  0  0  0  0  0  0  0  0  0  0
  130.7975  131.9326  157.7450 H   0  0  0  0  0  0  0  0  0  0  0  0
  133.0541  136.5156  159.6316 H   0  0  0  0  0  0  0  0  0  0  0  0
  131.6553  137.6093  159.4766 H   0  0  0  0  0  0  0  0  0  0  0  0
  134.0329  138.6445  163.2321 H   0  0  0  0  0  0  0  0  0  0  0  0
  136.5356  137.8736  163.8142 H   0  0  0  0  0  0  0  0  0  0  0  0
  136.0825  139.3581  164.7562 H   0  0  0  0  0  0  0  0  0  0  0  0
  137.0646  138.4518  166.8223 H   0  0  0  0  0  0  0  0  0  0  0  0
  138.1018  137.4999  165.6657 H   0  0  0  0  0  0  0  0  0  0  0  0
  136.6926  134.3193  167.2370 H   0  0  0  0  0  0  0  0  0  0  0  0
  136.1067  133.6293  169.5269 H   0  0  0  0  0  0  0  0  0  0  0  0
  134.7970  135.1350  170.9695 H   0  0  0  0  0  0  0  0  0  0  0  0
  134.0793  137.3336  170.1246 H   0  0  0  0  0  0  0  0  0  0  0  0
  134.6714  138.0266  167.8370 H   0  0  0  0  0  0  0  0  0  0  0  0
  134.4903  134.9733  165.3718 H   0  0  0  0  0  0  0  0  0  0  0  0
  133.1733  133.8119  163.6532 H   0  0  0  0  0  0  0  0  0  0  0  0
  131.3864  134.1217  161.9330 H   0  0  0  0  0  0  0  0  0  0  0  0
  132.7442  134.2591  160.7915 H   0  0  0  0  0  0  0  0  0  0  0  0
  127.0117  136.4327  161.6803 H   0  0  0  0  0  0  0  0  0  0  0  0
  127.2480  134.9940  162.6947 H   0  0  0  0  0  0  0  0  0  0  0  0
  124.8352  135.8345  162.4039 H   0  0  0  0  0  0  0  0  0  0  0  0
  1  2  2  0
  2 38  1  0
  2  3  1  0
  3  4  1  0
  3 39  1  0
  3 40  1  0
  4  5  1  0
  4 41  1  0
  4 42  1  0
  5  6  1  6
  5  7  1  0
  5 37  1  0
  7 43  1  0
  8  7  1  0
  8  9  1  0
  8 13  2  0
  9 10  1  0
  9 44  1  0
 10 12  1  0
 10 11  1  0
 10 45  1  0
 11 12  1  0
 11 46  1  0
 11 47  1  0
 12 48  1  0
 12 49  1  0
 13 14  1  0
 13 15  1  0
 15 16  1  1
 15 36  1  0
 15 17  1  0
 17 18  1  0
 17 50  1  0
 17 51  1  0
 18 19  1  0
 19 35  2  0
 19 20  1  0
 20 21  2  0
 20 52  1  0
 21 22  1  0
 21 33  1  0
 22 25  1  0
 22 23  1  0
 23 24  1  0
 23 53  1  0
 23 54  1  0
 24 25  1  0
 24 55  1  0
 24 56  1  0
 25 26  1  6
 25 27  1  0
 27 32  1  0
 27 28  2  0
 28 29  1  0
 28 57  1  0
 29 30  2  0
 29 58  1  0
 30 31  1  0
 30 59  1  0
 31 32  2  0
 31 60  1  0
 32 61  1  0
 33 34  2  0
 33 62  1  0
 34 35  1  0
 34 63  1  0
 35 36  1  0
 36 64  1  0
 36 65  1  0
 37 38  1  0
 37 66  1  0
 37 67  1  0
 38 68  1  0
M  CHG  1  13   1
M  END
>  <DOCK_score>  (1) 
-46.736374

>  <SMILES>  (1) 
O=C1CC[C@H](NC(NC2CC2)=[NH+][C@@H]2COc3cc(N4CC[C@H]4c4ccccc4)ccc3C2)CN1

$$$$
