CC=C[C@@H](NC1CC([NH+]=C(NC2CC=CC2)NC2CC=CC2)C1)c1ccccc1
     RDKit          3D

 64 67  0  0  1  0  0  0  0  0999 V2000
  135.6314  136.2674  164.3423 C   0  0  0  0  0  0  0  0  0  0  0  0
  135.4089  136.4513  162.8632 C   0  0  0  0  0  0  0  0  0  0  0  0
  134.7512  137.4958  162.4246 C   0  0  0  0  0  0  0  0  0  0  0  0
  134.5339  137.6828  160.9451 C   0  0  1  0  0  0  0  0  0  0  0  0
  134.9919  136.8553  160.4032 H   0  0  0  0  0  0  0  0  0  0  0  0
  133.0929  137.7157  160.6621 N   0  0  0  0  0  0  0  0  0  0  0  0
  132.4458  136.4644  161.0786 C   0  0  2  0  0  0  0  0  0  0  0  0
  132.9595  135.2253  160.3266 C   0  0  0  0  0  0  0  0  0  0  0  0
  131.5008  134.7394  160.2913 C   0  0  2  0  0  0  0  0  0  0  0  0
  131.1206  134.1156  159.0215 N   0  0  0  0  0  0  0  0  0  0  0  0
  131.7690  134.0424  158.3037 H   0  0  0  0  0  0  0  0  0  0  0  0
  129.9111  133.6589  158.8560 C   0  0  0  0  0  0  0  0  0  0  0  0
  128.9921  133.7627  159.8732 N   0  0  0  0  0  0  0  0  0  0  0  0
  127.6326  133.2495  159.6873 C   0  0  0  0  0  0  0  0  0  0  0  0
  126.8377  133.2904  161.0131 C   0  0  0  0  0  0  0  0  0  0  0  0
  125.9966  132.0352  160.9955 C   0  0  0  0  0  0  0  0  0  0  0  0
  126.4386  131.1857  160.1085 C   0  0  0  0  0  0  0  0  0  0  0  0
  127.6481  131.7328  159.3866 C   0  0  0  0  0  0  0  0  0  0  0  0
  129.5542  133.0737  157.6643 N   0  0  0  0  0  0  0  0  0  0  0  0
  130.5596  132.3711  156.8632 C   0  0  0  0  0  0  0  0  0  0  0  0
  129.9035  131.6275  155.6766 C   0  0  0  0  0  0  0  0  0  0  0  0
  130.6848  130.3402  155.5508 C   0  0  0  0  0  0  0  0  0  0  0  0
  131.3803  130.1051  156.6300 C   0  0  0  0  0  0  0  0  0  0  0  0
  131.1788  131.1963  157.6557 C   0  0  0  0  0  0  0  0  0  0  0  0
  131.0885  136.2169  160.3996 C   0  0  0  0  0  0  0  0  0  0  0  0
  135.1621  138.9803  160.5052 C   0  0  0  0  0  0  0  0  0  0  0  0
  134.6286  139.6797  159.4391 C   0  0  0  0  0  0  0  0  0  0  0  0
  135.2024  140.8719  159.0379 C   0  0  0  0  0  0  0  0  0  0  0  0
  136.3144  141.3601  159.6981 C   0  0  0  0  0  0  0  0  0  0  0  0
  136.8510  140.6579  160.7611 C   0  0  0  0  0  0  0  0  0  0  0  0
  136.2749  139.4678  161.1645 C   0  0  0  0  0  0  0  0  0  0  0  0
  136.1934  137.1157  164.7334 H   0  0  0  0  0  0  0  0  0  0  0  0
  134.6689  136.2044  164.8495 H   0  0  0  0  0  0  0  0  0  0  0  0
  136.1935  135.3493  164.5138 H   0  0  0  0  0  0  0  0  0  0  0  0
  135.7917  135.7218  162.1647 H   0  0  0  0  0  0  0  0  0  0  0  0
  134.3684  138.2252  163.1230 H   0  0  0  0  0  0  0  0  0  0  0  0
  132.6562  138.5122  161.1014 H   0  0  0  0  0  0  0  0  0  0  0  0
  132.4215  136.3406  162.1613 H   0  0  0  0  0  0  0  0  0  0  0  0
  133.3685  135.4508  159.3417 H   0  0  0  0  0  0  0  0  0  0  0  0
  133.6160  134.5928  160.9240 H   0  0  0  0  0  0  0  0  0  0  0  0
  131.2183  134.1426  161.1586 H   0  0  0  0  0  0  0  0  0  0  0  0
  129.2438  134.1759  160.7140 H   0  0  0  0  0  0  0  0  0  0  0  0
  127.1132  133.7989  158.9020 H   0  0  0  0  0  0  0  0  0  0  0  0
  127.5183  133.2795  161.8644 H   0  0  0  0  0  0  0  0  0  0  0  0
  126.2003  134.1740  161.0467 H   0  0  0  0  0  0  0  0  0  0  0  0
  125.1419  131.8635  161.6329 H   0  0  0  0  0  0  0  0  0  0  0  0
  125.9976  130.2189  159.9156 H   0  0  0  0  0  0  0  0  0  0  0  0
  127.5617  131.5574  158.3143 H   0  0  0  0  0  0  0  0  0  0  0  0
  128.5596  131.2781  159.7745 H   0  0  0  0  0  0  0  0  0  0  0  0
  128.6366  133.1257  157.3539 H   0  0  0  0  0  0  0  0  0  0  0  0
  131.3310  133.0587  156.5165 H   0  0  0  0  0  0  0  0  0  0  0  0
  128.8563  131.4164  155.8932 H   0  0  0  0  0  0  0  0  0  0  0  0
  129.9923  132.2163  154.7637 H   0  0  0  0  0  0  0  0  0  0  0  0
  130.6700  129.6991  154.6818 H   0  0  0  0  0  0  0  0  0  0  0  0
  132.0165  129.2439  156.7712 H   0  0  0  0  0  0  0  0  0  0  0  0
  132.1346  131.4920  158.0882 H   0  0  0  0  0  0  0  0  0  0  0  0
  130.4950  130.8623  158.4359 H   0  0  0  0  0  0  0  0  0  0  0  0
  130.2348  136.3851  161.0559 H   0  0  0  0  0  0  0  0  0  0  0  0
  130.9861  136.7135  159.4346 H   0  0  0  0  0  0  0  0  0  0  0  0
  133.7618  139.2967  158.9211 H   0  0  0  0  0  0  0  0  0  0  0  0
  134.7834  141.4204  158.2073 H   0  0  0  0  0  0  0  0  0  0  0  0
  136.7643  142.2901  159.3832 H   0  0  0  0  0  0  0  0  0  0  0  0
  137.7201  141.0392  161.2766 H   0  0  0  0  0  0  0  0  0  0  0  0
  136.6941  138.9192  161.9949 H   0  0  0  0  0  0  0  0  0  0  0  0
  1  2  1  0
  1 32  1  0
  1 33  1  0
  1 34  1  0
  2  3  2  0
  2 35  1  0
  3  4  1  0
  3 36  1  0
  4  5  1  6
  4  6  1  0
  4 26  1  0
  6  7  1  0
  6 37  1  0
  7 25  1  0
  7  8  1  0
  7 38  1  1
  8  9  1  0
  8 39  1  0
  8 40  1  0
  9 10  1  0
  9 25  1  0
  9 41  1  1
 10 11  1  0
 12 10  2  0
 12 13  1  1
 12 19  1  0
 13 14  1  0
 13 42  1  1
 14 18  1  0
 14 15  1  0
 14 43  1  0
 15 16  1  0
 15 44  1  0
 15 45  1  0
 16 17  2  0
 16 46  1  0
 17 18  1  0
 17 47  1  0
 18 48  1  0
 18 49  1  0
 19 20  1  0
 19 50  1  0
 20 24  1  0
 20 21  1  0
 20 51  1  0
 21 22  1  0
 21 52  1  0
 21 53  1  0
 22 23  2  0
 22 54  1  0
 23 24  1  0
 23 55  1  0
 24 56  1  0
 24 57  1  0
 25 58  1  0
 25 59  1  0
 26 31  1  0
 26 27  2  0
 27 28  1  0
 27 60  1  0
 28 29  2  0
 28 61  1  0
 29 30  1  0
 29 62  1  0
 30 31  2  0
 30 63  1  0
 31 64  1  0
M  CHG  1  10   1
M  END
>  <DOCK_score>  (1) 
-58.479416

>  <SMILES>  (1) 
CC=C[C@@H](NC1CC([NH+]=C(NC2CC=CC2)NC2CC=CC2)C1)c1ccccc1

$$$$
