Cc1cccc(-c2ccc(C[NH2+]Cc3c[nH]nc3-c3ccc(Br)cc3)cc2)c1
     RDKit          3D

 51 54  0  0  0  0  0  0  0  0999 V2000
  130.2565  126.9169  151.2593 C   0  0  0  0  0  0  0  0  0  0  0  0
  130.3262  128.4204  151.3339 C   0  0  0  0  0  0  0  0  0  0  0  0
  130.3055  129.1712  150.1719 C   0  0  0  0  0  0  0  0  0  0  0  0
  130.3689  130.5513  150.2332 C   0  0  0  0  0  0  0  0  0  0  0  0
  130.4530  131.1874  151.4553 C   0  0  0  0  0  0  0  0  0  0  0  0
  130.4742  130.4365  152.6284 C   0  0  0  0  0  0  0  0  0  0  0  0
  130.5652  131.1147  153.9452 C   0  0  0  0  0  0  0  0  0  0  0  0
  131.1855  130.4781  155.0182 C   0  0  0  0  0  0  0  0  0  0  0  0
  131.2727  131.1162  156.2390 C   0  0  0  0  0  0  0  0  0  0  0  0
  130.7347  132.3801  156.4017 C   0  0  0  0  0  0  0  0  0  0  0  0
  130.8271  133.0688  157.7389 C   0  0  0  0  0  0  0  0  0  0  0  0
  129.5282  133.6695  158.0710 N   0  0  0  0  0  0  0  0  0  0  0  0
  129.2782  134.3429  157.3624 H   0  0  0  0  0  0  0  0  0  0  0  0
  128.8245  132.9477  158.1125 H   0  0  0  0  0  0  0  0  0  0  0  0
  129.6183  134.3410  159.3746 C   0  0  0  0  0  0  0  0  0  0  0  0
  128.2860  134.9572  159.7152 C   0  0  0  0  0  0  0  0  0  0  0  0
  127.0783  134.3682  159.5763 C   0  0  0  0  0  0  0  0  0  0  0  0
  126.1375  135.2430  159.9924 N   0  0  0  0  0  0  0  0  0  0  0  0
  125.1803  135.0857  160.0064 H   0  0  0  0  0  0  0  0  0  0  0  0
  126.7831  136.4192  160.3946 N   0  0  0  0  0  0  0  0  0  0  0  0
  128.0782  136.2519  160.2294 C   0  0  0  0  0  0  0  0  0  0  0  0
  129.1332  137.2511  160.5317 C   0  0  0  0  0  0  0  0  0  0  0  0
  129.2802  137.7421  161.8272 C   0  0  0  0  0  0  0  0  0  0  0  0
  130.2659  138.6675  162.1042 C   0  0  0  0  0  0  0  0  0  0  0  0
  131.1006  139.1158  161.0953 C   0  0  0  0  0  0  0  0  0  0  0  0
  132.4448  140.3889  161.4804 Br  0  0  0  0  0  0  0  0  0  0  0  0
  130.9550  138.6351  159.8055 C   0  0  0  0  0  0  0  0  0  0  0  0
  129.9759  137.7055  159.5195 C   0  0  0  0  0  0  0  0  0  0  0  0
  130.1127  133.0142  155.3414 C   0  0  0  0  0  0  0  0  0  0  0  0
  130.0254  132.3880  154.1146 C   0  0  0  0  0  0  0  0  0  0  0  0
  130.4102  129.0460  152.5611 C   0  0  0  0  0  0  0  0  0  0  0  0
  129.2141  126.5997  151.2884 H   0  0  0  0  0  0  0  0  0  0  0  0
  130.7137  126.5776  150.3298 H   0  0  0  0  0  0  0  0  0  0  0  0
  130.7912  126.4860  152.1057 H   0  0  0  0  0  0  0  0  0  0  0  0
  130.2397  128.6777  149.2136 H   0  0  0  0  0  0  0  0  0  0  0  0
  130.3479  131.1326  149.3232 H   0  0  0  0  0  0  0  0  0  0  0  0
  130.5021  132.2653  151.5018 H   0  0  0  0  0  0  0  0  0  0  0  0
  131.6017  129.4893  154.8937 H   0  0  0  0  0  0  0  0  0  0  0  0
  131.7573  130.6256  157.0703 H   0  0  0  0  0  0  0  0  0  0  0  0
  131.0972  132.3414  158.5044 H   0  0  0  0  0  0  0  0  0  0  0  0
  131.5873  133.8487  157.6942 H   0  0  0  0  0  0  0  0  0  0  0  0
  129.8885  133.6136  160.1400 H   0  0  0  0  0  0  0  0  0  0  0  0
  130.3785  135.1208  159.3299 H   0  0  0  0  0  0  0  0  0  0  0  0
  126.8972  133.3720  159.2006 H   0  0  0  0  0  0  0  0  0  0  0  0
  128.6265  137.3962  162.6142 H   0  0  0  0  0  0  0  0  0  0  0  0
  130.3833  139.0455  163.1090 H   0  0  0  0  0  0  0  0  0  0  0  0
  131.6087  138.9883  159.0216 H   0  0  0  0  0  0  0  0  0  0  0  0
  129.8635  137.3308  158.5129 H   0  0  0  0  0  0  0  0  0  0  0  0
  129.6944  134.0010  155.4740 H   0  0  0  0  0  0  0  0  0  0  0  0
  129.5398  132.8843  153.2874 H   0  0  0  0  0  0  0  0  0  0  0  0
  130.4267  128.4590  153.4675 H   0  0  0  0  0  0  0  0  0  0  0  0
  1  2  1  0
  1 32  1  0
  1 33  1  0
  1 34  1  0
  2 31  2  0
  2  3  1  0
  3  4  2  0
  3 35  1  0
  4  5  1  0
  4 36  1  0
  5  6  2  0
  5 37  1  0
  6  7  1  0
  6 31  1  0
  7 30  1  0
  7  8  2  0
  8  9  1  0
  8 38  1  0
  9 10  2  0
  9 39  1  0
 10 11  1  0
 10 29  1  0
 11 12  1  0
 11 40  1  0
 11 41  1  0
 12 13  1  0
 12 14  1  0
 12 15  1  0
 15 16  1  0
 15 42  1  0
 15 43  1  0
 16 21  1  0
 16 17  2  0
 17 18  1  0
 17 44  1  0
 18 19  1  0
 18 20  1  0
 20 21  2  0
 21 22  1  0
 22 28  1  0
 22 23  2  0
 23 24  1  0
 23 45  1  0
 24 25  2  0
 24 46  1  0
 25 26  1  0
 25 27  1  0
 27 28  2  0
 27 47  1  0
 28 48  1  0
 29 30  2  0
 29 49  1  0
 30 50  1  0
 31 51  1  0
M  CHG  1  12   1
M  END
>  <DOCK_score>  (1) 
-51.21796

>  <SMILES>  (1) 
Cc1cccc(-c2ccc(C[NH2+]Cc3c[nH]nc3-c3ccc(Br)cc3)cc2)c1

$$$$
