C[NH2+]Cc1ccc([C@@H](O)c2ccc(Nc3ccc([N+](=O)[O-])cc3F)o2)o1
     RDKit          3D

 43 45  0  0  1  0  0  0  0  0999 V2000
  131.0468  132.7110  153.5124 C   0  0  0  0  0  0  0  0  0  0  0  0
  130.6981  133.2646  154.8276 N   0  0  0  0  0  0  0  0  0  0  0  0
  129.9163  133.8951  154.7306 H   0  0  0  0  0  0  0  0  0  0  0  0
  131.4897  133.7653  155.2024 H   0  0  0  0  0  0  0  0  0  0  0  0
  130.3347  132.1707  155.7384 C   0  0  0  0  0  0  0  0  0  0  0  0
  129.9769  132.7385  157.0878 C   0  0  0  0  0  0  0  0  0  0  0  0
  129.5892  132.0285  158.1624 C   0  0  0  0  0  0  0  0  0  0  0  0
  129.3556  132.9559  159.2036 C   0  0  0  0  0  0  0  0  0  0  0  0
  129.6144  134.1773  158.7029 C   0  0  0  0  0  0  0  0  0  0  0  0
  129.5018  135.4793  159.4533 C   0  0  1  0  0  0  0  0  0  0  0  0
  130.1740  135.4635  160.3112 H   0  0  0  0  0  0  0  0  0  0  0  0
  129.8585  136.5597  158.5887 O   0  0  0  0  0  0  0  0  0  0  0  0
  128.0839  135.6638  159.9292 C   0  0  0  0  0  0  0  0  0  0  0  0
  126.9548  135.7304  159.0938 C   0  0  0  0  0  0  0  0  0  0  0  0
  125.8642  135.9010  159.8866 C   0  0  0  0  0  0  0  0  0  0  0  0
  126.3733  135.9386  161.2774 C   0  0  0  0  0  0  0  0  0  0  0  0
  125.6515  136.0897  162.3784 N   0  0  0  0  0  0  0  0  0  0  0  0
  126.2679  136.1049  163.6086 C   0  0  0  0  0  0  0  0  0  0  0  0
  127.0111  134.9999  164.0362 C   0  0  0  0  0  0  0  0  0  0  0  0
  127.6201  135.0192  165.2708 C   0  0  0  0  0  0  0  0  0  0  0  0
  127.5083  136.1353  166.0876 C   0  0  0  0  0  0  0  0  0  0  0  0
  128.1760  136.1490  167.4189 N   0  0  0  0  0  0  0  0  0  0  0  0
  128.8704  135.1034  167.8180 O   0  0  0  0  0  0  0  0  0  0  0  0
  128.0722  137.2065  168.1968 O   0  0  0  0  0  0  0  0  0  0  0  0
  126.7799  137.2362  165.6715 C   0  0  0  0  0  0  0  0  0  0  0  0
  126.1581  137.2301  164.4379 C   0  0  0  0  0  0  0  0  0  0  0  0
  125.4470  138.3047  164.0318 F   0  0  0  0  0  0  0  0  0  0  0  0
  127.7147  135.7947  161.2084 O   0  0  0  0  0  0  0  0  0  0  0  0
  129.9849  134.0399  157.4193 O   0  0  0  0  0  0  0  0  0  0  0  0
  130.1915  132.1699  153.1074 H   0  0  0  0  0  0  0  0  0  0  0  0
  131.3164  133.5225  152.8364 H   0  0  0  0  0  0  0  0  0  0  0  0
  131.8911  132.0298  153.6171 H   0  0  0  0  0  0  0  0  0  0  0  0
  131.1791  131.4895  155.8432 H   0  0  0  0  0  0  0  0  0  0  0  0
  129.4794  131.6297  155.3336 H   0  0  0  0  0  0  0  0  0  0  0  0
  129.4774  130.9557  158.2188 H   0  0  0  0  0  0  0  0  0  0  0  0
  129.0308  132.7276  160.2080 H   0  0  0  0  0  0  0  0  0  0  0  0
  130.7603  136.5062  158.2438 H   0  0  0  0  0  0  0  0  0  0  0  0
  126.9543  135.6586  158.0162 H   0  0  0  0  0  0  0  0  0  0  0  0
  124.8363  135.9909  159.5678 H   0  0  0  0  0  0  0  0  0  0  0  0
  124.6886  136.1898  162.3170 H   0  0  0  0  0  0  0  0  0  0  0  0
  127.1033  134.1314  163.4009 H   0  0  0  0  0  0  0  0  0  0  0  0
  128.1907  134.1645  165.6028 H   0  0  0  0  0  0  0  0  0  0  0  0
  126.6972  138.1014  166.3125 H   0  0  0  0  0  0  0  0  0  0  0  0
  1  2  1  0
  1 30  1  0
  1 31  1  0
  1 32  1  0
  2  3  1  0
  2  4  1  0
  2  5  1  0
  5  6  1  0
  5 33  1  0
  5 34  1  0
  6 29  1  0
  6  7  2  0
  7  8  1  0
  7 35  1  0
  8  9  2  0
  8 36  1  0
  9 10  1  0
  9 29  1  0
 10 11  1  1
 10 12  1  0
 10 13  1  0
 12 37  1  0
 13 28  1  0
 13 14  2  0
 14 15  1  0
 14 38  1  0
 15 16  2  0
 15 39  1  0
 16 17  1  0
 16 28  1  0
 17 18  1  0
 17 40  1  0
 18 26  1  0
 18 19  2  0
 19 20  1  0
 19 41  1  0
 20 21  2  0
 20 42  1  0
 21 22  1  0
 21 25  1  0
 22 23  2  0
 22 24  1  0
 25 26  2  0
 25 43  1  0
 26 27  1  0
M  CHG  3   2   1  22   1  24  -1
M  END
>  <DOCK_score>  (1) 
-42.465782

>  <SMILES>  (1) 
C[NH2+]Cc1ccc([C@@H](O)c2ccc(Nc3ccc([N+](=O)[O-])cc3F)o2)o1

$$$$
