CCC=Cc1cc(Nc2[nH]cc(-c3ccc(C(F)(F)F)cc3)[nH+]2)ccc1N
     RDKit          3D

 47 49  0  0  1  0  0  0  0  0999 V2000
  129.3574  136.1602  166.3884 C   0  0  0  0  0  0  0  0  0  0  0  0
  130.4350  136.4677  165.3467 C   0  0  0  0  0  0  0  0  0  0  0  0
  129.9474  136.0538  163.9822 C   0  0  0  0  0  0  0  0  0  0  0  0
  129.2831  136.9170  163.2253 C   0  0  0  0  0  0  0  0  0  0  0  0
  128.8052  136.5113  161.8880 C   0  0  0  0  0  0  0  0  0  0  0  0
  129.7143  136.0946  160.9159 C   0  0  0  0  0  0  0  0  0  0  0  0
  129.2592  135.7158  159.6632 C   0  0  0  0  0  0  0  0  0  0  0  0
  130.1711  135.2976  158.6856 N   0  0  0  0  0  0  0  0  0  0  0  0
  130.0751  134.0245  158.1485 C   0  0  0  0  0  0  0  0  0  0  0  0
  129.6022  132.9244  158.7958 N   0  0  0  0  0  0  0  0  0  0  0  0
  129.2746  132.8911  159.7082 H   0  0  0  0  0  0  0  0  0  0  0  0
  129.6745  131.8702  157.9185 C   0  0  0  0  0  0  0  0  0  0  0  0
  130.1889  132.3556  156.7612 C   0  0  0  0  0  0  0  0  0  0  0  0
  130.4486  131.5756  155.5266 C   0  0  0  0  0  0  0  0  0  0  0  0
  129.8135  131.9203  154.3348 C   0  0  0  0  0  0  0  0  0  0  0  0
  130.0594  131.1915  153.1890 C   0  0  0  0  0  0  0  0  0  0  0  0
  130.9341  130.1199  153.2221 C   0  0  0  0  0  0  0  0  0  0  0  0
  131.1976  129.3274  151.9677 C   0  0  0  0  0  0  0  0  0  0  0  0
  130.4498  129.8616  150.9128 F   0  0  0  0  0  0  0  0  0  0  0  0
  132.5591  129.3913  151.6532 F   0  0  0  0  0  0  0  0  0  0  0  0
  130.8281  127.9938  152.1726 F   0  0  0  0  0  0  0  0  0  0  0  0
  131.5632  129.7704  154.4031 C   0  0  0  0  0  0  0  0  0  0  0  0
  131.3292  130.4956  155.5538 C   0  0  0  0  0  0  0  0  0  0  0  0
  130.4293  133.6792  156.9346 N   0  0  0  0  0  0  0  0  0  0  0  0
  130.8017  134.2755  156.2662 H   0  0  0  0  0  0  0  0  0  0  0  0
  127.9003  135.7554  159.3725 C   0  0  0  0  0  0  0  0  0  0  0  0
  126.9941  136.1619  160.3320 C   0  0  0  0  0  0  0  0  0  0  0  0
  127.4362  136.5437  161.5902 C   0  0  0  0  0  0  0  0  0  0  0  0
  126.5189  136.9602  162.5578 N   0  0  0  0  0  0  0  0  0  0  0  0
  129.1455  135.0910  166.3872 H   0  0  0  0  0  0  0  0  0  0  0  0
  129.7101  136.4596  167.3754 H   0  0  0  0  0  0  0  0  0  0  0  0
  128.4489  136.7108  166.1447 H   0  0  0  0  0  0  0  0  0  0  0  0
  131.3435  135.9170  165.5903 H   0  0  0  0  0  0  0  0  0  0  0  0
  130.6469  137.5369  165.3478 H   0  0  0  0  0  0  0  0  0  0  0  0
  130.1387  135.0543  163.6207 H   0  0  0  0  0  0  0  0  0  0  0  0
  129.0919  137.9166  163.5869 H   0  0  0  0  0  0  0  0  0  0  0  0
  130.7705  136.0671  161.1390 H   0  0  0  0  0  0  0  0  0  0  0  0
  130.8696  135.8995  158.3847 H   0  0  0  0  0  0  0  0  0  0  0  0
  129.3781  130.8500  158.1128 H   0  0  0  0  0  0  0  0  0  0  0  0
  129.1304  132.7565  154.3080 H   0  0  0  0  0  0  0  0  0  0  0  0
  129.5676  131.4576  152.2650 H   0  0  0  0  0  0  0  0  0  0  0  0
  132.2419  128.9305  154.4240 H   0  0  0  0  0  0  0  0  0  0  0  0
  131.8242  130.2242  156.4745 H   0  0  0  0  0  0  0  0  0  0  0  0
  127.5512  135.4630  158.3931 H   0  0  0  0  0  0  0  0  0  0  0  0
  125.9395  136.1867  160.1010 H   0  0  0  0  0  0  0  0  0  0  0  0
  126.8294  137.2273  163.4371 H   0  0  0  0  0  0  0  0  0  0  0  0
  125.5717  136.9822  162.3506 H   0  0  0  0  0  0  0  0  0  0  0  0
  1  2  1  0
  1 30  1  0
  1 31  1  0
  1 32  1  0
  2  3  1  0
  2 33  1  0
  2 34  1  0
  3  4  2  0
  3 35  1  0
  4  5  1  0
  4 36  1  0
  5 28  2  0
  5  6  1  0
  6  7  2  0
  6 37  1  0
  7  8  1  0
  7 26  1  0
  8 38  1  0
  9  8  1  0
  9 24  2  0
  9 10  1  0
 10 11  1  0
 10 12  1  0
 12 13  2  0
 12 39  1  0
 13 14  1  0
 13 24  1  0
 14 23  1  0
 14 15  2  0
 15 16  1  0
 15 40  1  0
 16 17  2  0
 16 41  1  0
 17 18  1  0
 17 22  1  0
 18 19  1  0
 18 20  1  0
 18 21  1  0
 22 23  2  0
 22 42  1  0
 23 43  1  0
 24 25  1  0
 26 27  2  0
 26 44  1  0
 27 28  1  0
 27 45  1  0
 28 29  1  0
 29 46  1  0
 29 47  1  0
M  CHG  1  24   1
M  END
>  <DOCK_score>  (1) 
-51.777599

>  <SMILES>  (1) 
CCC=Cc1cc(Nc2[nH]cc(-c3ccc(C(F)(F)F)cc3)[nH+]2)ccc1N

$$$$
