O[C@@H]1C=C[C@@H]([NH+]=C(NC2CC=CC2)N[C@@H]2Cc3ccc(F)cc3C2)[C@@H]1Cl
     RDKit          3D

 50 53  0  0  1  0  0  0  0  0999 V2000
  125.0102  135.1729  161.6588 O   0  0  0  0  0  0  0  0  0  0  0  0
  126.2086  135.2285  160.8824 C   0  0  2  0  0  0  0  0  0  0  0  0
  126.7094  136.1858  161.0264 H   0  0  0  0  0  0  0  0  0  0  0  0
  125.9012  135.0101  159.4191 C   0  0  0  0  0  0  0  0  0  0  0  0
  126.7524  134.1812  158.8788 C   0  0  0  0  0  0  0  0  0  0  0  0
  127.7693  133.7085  159.8915 C   0  0  1  0  0  0  0  0  0  0  0  0
  127.9156  132.6315  159.8085 H   0  0  0  0  0  0  0  0  0  0  0  0
  129.0403  134.4130  159.7055 N   0  0  0  0  0  0  0  0  0  0  0  0
  129.2077  135.2439  160.1773 H   0  0  0  0  0  0  0  0  0  0  0  0
  129.9460  133.9234  158.9063 C   0  0  0  0  0  0  0  0  0  0  0  0
  129.5690  133.1740  157.8171 N   0  0  0  0  0  0  0  0  0  0  0  0
  130.5870  132.6238  156.9187 C   0  0  0  0  0  0  0  0  0  0  0  0
  129.9894  132.3134  155.5266 C   0  0  0  0  0  0  0  0  0  0  0  0
  130.6746  131.0385  155.0907 C   0  0  0  0  0  0  0  0  0  0  0  0
  131.2444  130.4414  156.1019 C   0  0  0  0  0  0  0  0  0  0  0  0
  131.0338  131.2175  157.3811 C   0  0  0  0  0  0  0  0  0  0  0  0
  131.2784  134.1563  159.1524 N   0  0  0  0  0  0  0  0  0  0  0  0
  131.6802  134.9550  160.3131 C   0  0  2  0  0  0  0  0  0  0  0  0
  131.2589  135.9586  160.2553 H   0  0  0  0  0  0  0  0  0  0  0  0
  133.2177  135.0070  160.4376 C   0  0  0  0  0  0  0  0  0  0  0  0
  133.4950  135.0046  161.9257 C   0  0  0  0  0  0  0  0  0  0  0  0
  134.6394  135.3502  162.6255 C   0  0  0  0  0  0  0  0  0  0  0  0
  134.6637  135.2677  164.0034 C   0  0  0  0  0  0  0  0  0  0  0  0
  133.5400  134.8378  164.6892 C   0  0  0  0  0  0  0  0  0  0  0  0
  133.5606  134.7551  166.0375 F   0  0  0  0  0  0  0  0  0  0  0  0
  132.3966  134.4928  163.9914 C   0  0  0  0  0  0  0  0  0  0  0  0
  132.3728  134.5753  162.6094 C   0  0  0  0  0  0  0  0  0  0  0  0
  131.2648  134.2603  161.6274 C   0  0  0  0  0  0  0  0  0  0  0  0
  127.1520  134.0641  161.2639 C   0  0  2  0  0  0  0  0  0  0  0  0
  127.9189  134.3953  161.9639 H   0  0  0  0  0  0  0  0  0  0  0  0
  126.2244  132.6721  161.9367 Cl  0  0  0  0  0  0  0  0  0  0  0  0
  124.3807  135.8800  161.4617 H   0  0  0  0  0  0  0  0  0  0  0  0
  125.0843  135.4781  158.8901 H   0  0  0  0  0  0  0  0  0  0  0  0
  126.7327  133.8738  157.8436 H   0  0  0  0  0  0  0  0  0  0  0  0
  128.6289  133.0096  157.6435 H   0  0  0  0  0  0  0  0  0  0  0  0
  131.4394  133.2981  156.8370 H   0  0  0  0  0  0  0  0  0  0  0  0
  128.9129  132.1593  155.6012 H   0  0  0  0  0  0  0  0  0  0  0  0
  130.2107  133.1217  154.8296 H   0  0  0  0  0  0  0  0  0  0  0  0
  130.6909  130.6703  154.0756 H   0  0  0  0  0  0  0  0  0  0  0  0
  131.7939  129.5142  156.0333 H   0  0  0  0  0  0  0  0  0  0  0  0
  131.9649  131.2811  157.9444 H   0  0  0  0  0  0  0  0  0  0  0  0
  130.2560  130.7517  157.9862 H   0  0  0  0  0  0  0  0  0  0  0  0
  131.9524  133.7921  158.5576 H   0  0  0  0  0  0  0  0  0  0  0  0
  133.6650  134.1309  159.9681 H   0  0  0  0  0  0  0  0  0  0  0  0
  133.6032  135.9193  159.9825 H   0  0  0  0  0  0  0  0  0  0  0  0
  135.5159  135.6857  162.0911 H   0  0  0  0  0  0  0  0  0  0  0  0
  135.5576  135.5379  164.5457 H   0  0  0  0  0  0  0  0  0  0  0  0
  131.5200  134.1578  164.5259 H   0  0  0  0  0  0  0  0  0  0  0  0
  130.3169  134.6628  161.9846 H   0  0  0  0  0  0  0  0  0  0  0  0
  131.1868  133.1835  161.4777 H   0  0  0  0  0  0  0  0  0  0  0  0
  1  2  1  0
  1 32  1  0
  2  3  1  6
  2 29  1  0
  2  4  1  0
  4  5  2  0
  4 33  1  0
  5  6  1  0
  5 34  1  0
  6  7  1  1
  6  8  1  0
  6 29  1  0
  8  9  1  0
 10  8  2  0
 10 11  1  0
 10 17  1  0
 11 12  1  0
 11 35  1  0
 12 16  1  0
 12 13  1  0
 12 36  1  0
 13 14  1  0
 13 37  1  0
 13 38  1  0
 14 15  2  0
 14 39  1  0
 15 16  1  0
 15 40  1  0
 16 41  1  0
 16 42  1  0
 17 18  1  0
 17 43  1  0
 18 19  1  6
 18 28  1  0
 18 20  1  0
 20 21  1  0
 20 44  1  0
 20 45  1  0
 21 27  2  0
 21 22  1  0
 22 23  2  0
 22 46  1  0
 23 24  1  0
 23 47  1  0
 24 25  1  0
 24 26  2  0
 26 27  1  0
 26 48  1  0
 27 28  1  0
 28 49  1  0
 28 50  1  0
 29 30  1  1
 29 31  1  0
M  CHG  1   8   1
M  END
>  <DOCK_score>  (1) 
-46.248188

>  <SMILES>  (1) 
O[C@@H]1C=C[C@@H]([NH+]=C(NC2CC=CC2)N[C@@H]2Cc3ccc(F)cc3C2)[C@@H]1Cl

$$$$
