CCc1ccc(-c2c[nH]c(N[C@H](c3ccccc3)c3ccc(C)cc3)[nH+]2)cc1
     RDKit          3D

 54 57  0  0  1  0  0  0  0  0999 V2000
  130.8549  128.9775  151.6445 C   0  0  0  0  0  0  0  0  0  0  0  0
  132.0666  129.5325  152.3961 C   0  0  0  0  0  0  0  0  0  0  0  0
  131.5987  130.3059  153.6019 C   0  0  0  0  0  0  0  0  0  0  0  0
  131.4334  129.6593  154.8136 C   0  0  0  0  0  0  0  0  0  0  0  0
  131.0106  130.3636  155.9225 C   0  0  0  0  0  0  0  0  0  0  0  0
  130.7392  131.7266  155.8172 C   0  0  0  0  0  0  0  0  0  0  0  0
  130.2792  132.4880  157.0042 C   0  0  0  0  0  0  0  0  0  0  0  0
  129.5591  131.9919  158.0407 C   0  0  0  0  0  0  0  0  0  0  0  0
  129.3514  133.0307  158.9151 N   0  0  0  0  0  0  0  0  0  0  0  0
  128.8665  132.9872  159.7541 H   0  0  0  0  0  0  0  0  0  0  0  0
  129.9512  134.1323  158.3870 C   0  0  0  0  0  0  0  0  0  0  0  0
  129.9731  135.3918  158.9611 N   0  0  0  0  0  0  0  0  0  0  0  0
  128.8639  135.8280  159.8129 C   0  0  2  0  0  0  0  0  0  0  0  0
  128.7717  135.1525  160.6634 H   0  0  0  0  0  0  0  0  0  0  0  0
  127.5837  135.8124  159.0180 C   0  0  0  0  0  0  0  0  0  0  0  0
  126.3801  135.5637  159.6507 C   0  0  0  0  0  0  0  0  0  0  0  0
  125.2053  135.5539  158.9222 C   0  0  0  0  0  0  0  0  0  0  0  0
  125.2352  135.7837  157.5594 C   0  0  0  0  0  0  0  0  0  0  0  0
  126.4394  136.0272  156.9257 C   0  0  0  0  0  0  0  0  0  0  0  0
  127.6138  136.0413  157.6551 C   0  0  0  0  0  0  0  0  0  0  0  0
  129.1306  137.2260  160.3083 C   0  0  0  0  0  0  0  0  0  0  0  0
  129.8699  138.1033  159.5372 C   0  0  0  0  0  0  0  0  0  0  0  0
  130.1100  139.3873  159.9893 C   0  0  0  0  0  0  0  0  0  0  0  0
  129.6206  139.7907  161.2172 C   0  0  0  0  0  0  0  0  0  0  0  0
  129.8878  141.1886  161.7125 C   0  0  0  0  0  0  0  0  0  0  0  0
  128.8855  138.9116  161.9910 C   0  0  0  0  0  0  0  0  0  0  0  0
  128.6406  137.6293  161.5363 C   0  0  0  0  0  0  0  0  0  0  0  0
  130.5094  133.8027  157.2478 N   0  0  0  0  0  0  0  0  0  0  0  0
  131.0059  134.4033  156.6702 H   0  0  0  0  0  0  0  0  0  0  0  0
  130.9021  132.3717  154.5924 C   0  0  0  0  0  0  0  0  0  0  0  0
  131.3308  131.6585  153.4915 C   0  0  0  0  0  0  0  0  0  0  0  0
  131.1935  128.4180  150.7725 H   0  0  0  0  0  0  0  0  0  0  0  0
  130.2902  128.3173  152.3029 H   0  0  0  0  0  0  0  0  0  0  0  0
  130.2181  129.8014  151.3230 H   0  0  0  0  0  0  0  0  0  0  0  0
  132.7035  128.7084  152.7177 H   0  0  0  0  0  0  0  0  0  0  0  0
  132.6314  130.1926  151.7377 H   0  0  0  0  0  0  0  0  0  0  0  0
  131.6394  128.6021  154.8928 H   0  0  0  0  0  0  0  0  0  0  0  0
  130.8863  129.8588  156.8692 H   0  0  0  0  0  0  0  0  0  0  0  0
  129.2146  130.9749  158.1563 H   0  0  0  0  0  0  0  0  0  0  0  0
  130.7230  135.9855  158.7994 H   0  0  0  0  0  0  0  0  0  0  0  0
  126.3571  135.3806  160.7148 H   0  0  0  0  0  0  0  0  0  0  0  0
  124.2644  135.3640  159.4174 H   0  0  0  0  0  0  0  0  0  0  0  0
  124.3176  135.7733  156.9899 H   0  0  0  0  0  0  0  0  0  0  0  0
  126.4628  136.2066  155.8612 H   0  0  0  0  0  0  0  0  0  0  0  0
  128.5544  136.2316  157.1601 H   0  0  0  0  0  0  0  0  0  0  0  0
  130.2565  137.7868  158.5797 H   0  0  0  0  0  0  0  0  0  0  0  0
  130.6839  140.0742  159.3848 H   0  0  0  0  0  0  0  0  0  0  0  0
  130.8158  141.2005  162.2841 H   0  0  0  0  0  0  0  0  0  0  0  0
  129.9752  141.8648  160.8629 H   0  0  0  0  0  0  0  0  0  0  0  0
  129.0646  141.5113  162.3509 H   0  0  0  0  0  0  0  0  0  0  0  0
  128.5030  139.2266  162.9506 H   0  0  0  0  0  0  0  0  0  0  0  0
  128.0667  136.9425  162.1408 H   0  0  0  0  0  0  0  0  0  0  0  0
  130.6930  133.4278  154.5051 H   0  0  0  0  0  0  0  0  0  0  0  0
  131.4578  132.1574  152.5422 H   0  0  0  0  0  0  0  0  0  0  0  0
  1  2  1  0
  1 32  1  0
  1 33  1  0
  1 34  1  0
  2  3  1  0
  2 35  1  0
  2 36  1  0
  3 31  2  0
  3  4  1  0
  4  5  2  0
  4 37  1  0
  5  6  1  0
  5 38  1  0
  6  7  1  0
  6 30  2  0
  7 28  1  0
  7  8  2  0
  8  9  1  0
  8 39  1  0
  9 10  1  0
  9 11  1  0
 11 12  1  0
 11 28  2  0
 12 13  1  0
 12 40  1  0
 13 14  1  1
 13 15  1  0
 13 21  1  0
 15 20  1  0
 15 16  2  0
 16 17  1  0
 16 41  1  0
 17 18  2  0
 17 42  1  0
 18 19  1  0
 18 43  1  0
 19 20  2  0
 19 44  1  0
 20 45  1  0
 21 27  1  0
 21 22  2  0
 22 23  1  0
 22 46  1  0
 23 24  2  0
 23 47  1  0
 24 25  1  0
 24 26  1  0
 25 48  1  0
 25 49  1  0
 25 50  1  0
 26 27  2  0
 26 51  1  0
 27 52  1  0
 28 29  1  0
 30 31  1  0
 30 53  1  0
 31 54  1  0
M  CHG  1  28   1
M  END
>  <DOCK_score>  (1) 
-63.030731

>  <SMILES>  (1) 
CCc1ccc(-c2c[nH]c(N[C@H](c3ccccc3)c3ccc(C)cc3)[nH+]2)cc1

$$$$
