C[C@@H](Cc1cccc(Cl)c1)[NH+]=C(NC1CCCCCC1)N[C@H]1CCC(=O)NC1
     RDKit          3D

 62 64  0  0  1  0  0  0  0  0999 V2000
  131.3744  133.0070  160.2551 C   0  0  0  0  0  0  0  0  0  0  0  0
  130.4751  133.8646  159.3624 C   0  0  1  0  0  0  0  0  0  0  0  0
  131.0829  134.3666  158.6097 H   0  0  0  0  0  0  0  0  0  0  0  0
  129.4419  132.9722  158.6718 C   0  0  0  0  0  0  0  0  0  0  0  0
  130.0782  132.2908  157.4877 C   0  0  0  0  0  0  0  0  0  0  0  0
  130.6927  131.0623  157.6454 C   0  0  0  0  0  0  0  0  0  0  0  0
  131.2765  130.4367  156.5599 C   0  0  0  0  0  0  0  0  0  0  0  0
  131.2458  131.0387  155.3159 C   0  0  0  0  0  0  0  0  0  0  0  0
  130.6307  132.2676  155.1575 C   0  0  0  0  0  0  0  0  0  0  0  0
  130.5910  133.0239  153.5954 Cl  0  0  0  0  0  0  0  0  0  0  0  0
  130.0422  132.8912  156.2436 C   0  0  0  0  0  0  0  0  0  0  0  0
  129.7865  134.8657  160.1810 N   0  0  0  0  0  0  0  0  0  0  0  0
  128.8172  134.8803  160.2156 H   0  0  0  0  0  0  0  0  0  0  0  0
  130.4762  135.7365  160.8628 C   0  0  0  0  0  0  0  0  0  0  0  0
  131.7038  136.1522  160.4040 N   0  0  0  0  0  0  0  0  0  0  0  0
  132.4790  137.1310  161.1704 C   0  0  0  0  0  0  0  0  0  0  0  0
  132.0506  138.5505  160.7458 C   0  0  0  0  0  0  0  0  0  0  0  0
  132.4345  139.5119  161.8389 C   0  0  0  0  0  0  0  0  0  0  0  0
  133.8083  140.1642  161.5918 C   0  0  0  0  0  0  0  0  0  0  0  0
  134.8575  139.1665  161.0651 C   0  0  0  0  0  0  0  0  0  0  0  0
  134.7924  137.8378  161.7685 C   0  0  0  0  0  0  0  0  0  0  0  0
  133.8966  136.8904  160.9444 C   0  0  0  0  0  0  0  0  0  0  0  0
  129.9762  136.2394  162.0406 N   0  0  0  0  0  0  0  0  0  0  0  0
  128.6680  135.7966  162.5293 C   0  0  1  0  0  0  0  0  0  0  0  0
  128.4802  134.7737  162.2028 H   0  0  0  0  0  0  0  0  0  0  0  0
  128.6424  135.8612  164.0611 C   0  0  0  0  0  0  0  0  0  0  0  0
  127.3393  135.2247  164.5508 C   0  0  0  0  0  0  0  0  0  0  0  0
  126.1762  135.7900  163.7874 C   0  0  0  0  0  0  0  0  0  0  0  0
  125.0638  135.6504  164.2499 O   0  0  0  0  0  0  0  0  0  0  0  0
  126.3011  136.4374  162.6283 N   0  0  0  0  0  0  0  0  0  0  0  0
  127.5771  136.7180  161.9822 C   0  0  0  0  0  0  0  0  0  0  0  0
  131.9504  132.3188  159.6364 H   0  0  0  0  0  0  0  0  0  0  0  0
  132.0547  133.6515  160.8117 H   0  0  0  0  0  0  0  0  0  0  0  0
  130.7587  132.4398  160.9531 H   0  0  0  0  0  0  0  0  0  0  0  0
  129.0837  132.2201  159.3746 H   0  0  0  0  0  0  0  0  0  0  0  0
  128.6039  133.5815  158.3332 H   0  0  0  0  0  0  0  0  0  0  0  0
  130.7170  130.5915  158.6170 H   0  0  0  0  0  0  0  0  0  0  0  0
  131.7571  129.4775  156.6838 H   0  0  0  0  0  0  0  0  0  0  0  0
  131.7023  130.5498  154.4679 H   0  0  0  0  0  0  0  0  0  0  0  0
  129.5586  133.8489  156.1198 H   0  0  0  0  0  0  0  0  0  0  0  0
  132.0567  135.7974  159.5731 H   0  0  0  0  0  0  0  0  0  0  0  0
  132.2633  136.9994  162.2307 H   0  0  0  0  0  0  0  0  0  0  0  0
  132.5572  138.8244  159.8204 H   0  0  0  0  0  0  0  0  0  0  0  0
  130.9711  138.5782  160.5976 H   0  0  0  0  0  0  0  0  0  0  0  0
  132.4643  138.9753  162.7872 H   0  0  0  0  0  0  0  0  0  0  0  0
  131.6785  140.2947  161.9008 H   0  0  0  0  0  0  0  0  0  0  0  0
  134.1681  140.5914  162.5278 H   0  0  0  0  0  0  0  0  0  0  0  0
  133.6904  140.9672  160.8641 H   0  0  0  0  0  0  0  0  0  0  0  0
  135.8509  139.5920  161.2063 H   0  0  0  0  0  0  0  0  0  0  0  0
  134.6912  139.0097  159.9993 H   0  0  0  0  0  0  0  0  0  0  0  0
  134.3672  137.9707  162.7634 H   0  0  0  0  0  0  0  0  0  0  0  0
  135.7944  137.4166  161.8488 H   0  0  0  0  0  0  0  0  0  0  0  0
  134.1277  135.8605  161.2166 H   0  0  0  0  0  0  0  0  0  0  0  0
  134.1141  137.0311  159.8857 H   0  0  0  0  0  0  0  0  0  0  0  0
  130.4894  136.8876  162.5479 H   0  0  0  0  0  0  0  0  0  0  0  0
  128.6873  136.9011  164.3849 H   0  0  0  0  0  0  0  0  0  0  0  0
  129.4932  135.3133  164.4660 H   0  0  0  0  0  0  0  0  0  0  0  0
  127.2112  135.4335  165.6129 H   0  0  0  0  0  0  0  0  0  0  0  0
  127.3832  134.1463  164.3977 H   0  0  0  0  0  0  0  0  0  0  0  0
  125.4920  136.7409  162.1876 H   0  0  0  0  0  0  0  0  0  0  0  0
  127.4790  136.5620  160.9079 H   0  0  0  0  0  0  0  0  0  0  0  0
  127.8567  137.7544  162.1717 H   0  0  0  0  0  0  0  0  0  0  0  0
  1  2  1  0
  1 32  1  0
  1 33  1  0
  1 34  1  0
  2  3  1  6
  2  4  1  0
  2 12  1  0
  4  5  1  0
  4 35  1  0
  4 36  1  0
  5 11  1  0
  5  6  2  0
  6  7  1  0
  6 37  1  0
  7  8  2  0
  7 38  1  0
  8  9  1  0
  8 39  1  0
  9 10  1  0
  9 11  2  0
 11 40  1  0
 12 13  1  0
 14 12  2  0
 14 15  1  0
 14 23  1  0
 15 16  1  0
 15 41  1  0
 16 22  1  0
 16 17  1  0
 16 42  1  0
 17 18  1  0
 17 43  1  0
 17 44  1  0
 18 19  1  0
 18 45  1  0
 18 46  1  0
 19 20  1  0
 19 47  1  0
 19 48  1  0
 20 21  1  0
 20 49  1  0
 20 50  1  0
 21 22  1  0
 21 51  1  0
 21 52  1  0
 22 53  1  0
 22 54  1  0
 23 24  1  0
 23 55  1  0
 24 25  1  1
 24 31  1  0
 24 26  1  0
 26 27  1  0
 26 56  1  0
 26 57  1  0
 27 28  1  0
 27 58  1  0
 27 59  1  0
 28 29  2  0
 28 30  1  0
 30 31  1  0
 30 60  1  0
 31 61  1  0
 31 62  1  0
M  CHG  1  12   1
M  END
>  <DOCK_score>  (1) 
-47.446503

>  <SMILES>  (1) 
C[C@@H](Cc1cccc(Cl)c1)[NH+]=C(NC1CCCCCC1)N[C@H]1CCC(=O)NC1

$$$$
