O=C(c1cnn(-c2ccccc2)c1)c1cn[nH]c1C1=CC[C@H]([NH2+]C2CCC2)C1
     RDKit          3D

 52 56  0  0  1  0  0  0  0  0999 V2000
  127.4169  136.5875  158.3057 O   0  0  0  0  0  0  0  0  0  0  0  0
  127.7785  135.7854  159.1466 C   0  0  0  0  0  0  0  0  0  0  0  0
  128.5519  134.5956  158.7460 C   0  0  0  0  0  0  0  0  0  0  0  0
  129.0327  133.5795  159.6032 C   0  0  0  0  0  0  0  0  0  0  0  0
  129.6671  132.7024  158.8750 N   0  0  0  0  0  0  0  0  0  0  0  0
  129.6246  133.1074  157.5363 N   0  0  0  0  0  0  0  0  0  0  0  0
  130.1961  132.4235  156.4548 C   0  0  0  0  0  0  0  0  0  0  0  0
  130.0765  132.9322  155.1684 C   0  0  0  0  0  0  0  0  0  0  0  0
  130.6450  132.2582  154.1053 C   0  0  0  0  0  0  0  0  0  0  0  0
  131.3237  131.0726  154.3196 C   0  0  0  0  0  0  0  0  0  0  0  0
  131.4397  130.5607  155.5989 C   0  0  0  0  0  0  0  0  0  0  0  0
  130.8780  131.2326  156.6669 C   0  0  0  0  0  0  0  0  0  0  0  0
  128.9373  134.2620  157.4622 C   0  0  0  0  0  0  0  0  0  0  0  0
  127.4442  136.0029  160.5623 C   0  0  0  0  0  0  0  0  0  0  0  0
  126.2890  135.5463  161.2311 C   0  0  0  0  0  0  0  0  0  0  0  0
  126.3503  135.9358  162.4743 N   0  0  0  0  0  0  0  0  0  0  0  0
  127.5351  136.6514  162.6780 N   0  0  0  0  0  0  0  0  0  0  0  0
  127.8235  137.0466  163.5155 H   0  0  0  0  0  0  0  0  0  0  0  0
  128.2111  136.7009  161.4999 C   0  0  0  0  0  0  0  0  0  0  0  0
  129.5038  137.3571  161.2592 C   0  0  0  0  0  0  0  0  0  0  0  0
  129.9367  138.4307  161.9077 C   0  0  0  0  0  0  0  0  0  0  0  0
  131.3008  138.8449  161.4067 C   0  0  0  0  0  0  0  0  0  0  0  0
  131.8347  137.6066  160.6476 C   0  0  2  0  0  0  0  0  0  0  0  0
  132.4323  136.9707  161.3008 H   0  0  0  0  0  0  0  0  0  0  0  0
  132.6047  138.0113  159.4638 N   0  0  0  0  0  0  0  0  0  0  0  0
  132.6611  137.2376  158.8186 H   0  0  0  0  0  0  0  0  0  0  0  0
  132.1470  138.7906  159.0151 H   0  0  0  0  0  0  0  0  0  0  0  0
  133.9588  138.4079  159.8725 C   0  0  0  0  0  0  0  0  0  0  0  0
  134.0480  139.8539  160.3882 C   0  0  0  0  0  0  0  0  0  0  0  0
  135.3822  139.9579  159.6272 C   0  0  0  0  0  0  0  0  0  0  0  0
  134.8507  138.8513  158.7009 C   0  0  0  0  0  0  0  0  0  0  0  0
  130.5213  136.9015  160.2391 C   0  0  0  0  0  0  0  0  0  0  0  0
  128.8985  133.5370  160.6740 H   0  0  0  0  0  0  0  0  0  0  0  0
  129.5430  133.8559  154.9998 H   0  0  0  0  0  0  0  0  0  0  0  0
  130.5560  132.6556  153.1050 H   0  0  0  0  0  0  0  0  0  0  0  0
  131.7633  130.5452  153.4861 H   0  0  0  0  0  0  0  0  0  0  0  0
  131.9706  129.6346  155.7633 H   0  0  0  0  0  0  0  0  0  0  0  0
  130.9694  130.8326  157.6659 H   0  0  0  0  0  0  0  0  0  0  0  0
  128.7278  134.8253  156.5648 H   0  0  0  0  0  0  0  0  0  0  0  0
  125.4889  134.9717  160.7883 H   0  0  0  0  0  0  0  0  0  0  0  0
  129.3870  138.9416  162.6844 H   0  0  0  0  0  0  0  0  0  0  0  0
  131.2148  139.6978  160.7334 H   0  0  0  0  0  0  0  0  0  0  0  0
  131.9552  139.0863  162.2443 H   0  0  0  0  0  0  0  0  0  0  0  0
  134.4326  137.6796  160.5307 H   0  0  0  0  0  0  0  0  0  0  0  0
  133.2688  140.5067  159.9945 H   0  0  0  0  0  0  0  0  0  0  0  0
  134.1549  139.9258  161.4705 H   0  0  0  0  0  0  0  0  0  0  0  0
  136.2458  139.6544  160.2191 H   0  0  0  0  0  0  0  0  0  0  0  0
  135.5280  140.9145  159.1256 H   0  0  0  0  0  0  0  0  0  0  0  0
  135.6048  138.1149  158.4232 H   0  0  0  0  0  0  0  0  0  0  0  0
  134.2916  139.2281  157.8446 H   0  0  0  0  0  0  0  0  0  0  0  0
  130.6427  135.8192  160.2818 H   0  0  0  0  0  0  0  0  0  0  0  0
  130.2189  137.2094  159.2382 H   0  0  0  0  0  0  0  0  0  0  0  0
  1  2  2  0
  2  3  1  0
  2 14  1  0
  3 13  2  0
  3  4  1  0
  4  5  2  0
  4 33  1  0
  5  6  1  0
  6  7  1  0
  6 13  1  0
  7 12  1  0
  7  8  2  0
  8  9  1  0
  8 34  1  0
  9 10  2  0
  9 35  1  0
 10 11  1  0
 10 36  1  0
 11 12  2  0
 11 37  1  0
 12 38  1  0
 13 39  1  0
 14 19  2  0
 14 15  1  0
 15 16  2  0
 15 40  1  0
 16 17  1  0
 17 18  1  0
 17 19  1  0
 19 20  1  0
 20 32  1  0
 20 21  2  0
 21 22  1  0
 21 41  1  0
 22 23  1  0
 22 42  1  0
 22 43  1  0
 23 24  1  1
 23 25  1  0
 23 32  1  0
 25 26  1  0
 25 27  1  0
 25 28  1  0
 28 31  1  0
 28 29  1  0
 28 44  1  0
 29 30  1  0
 29 45  1  0
 29 46  1  0
 30 31  1  0
 30 47  1  0
 30 48  1  0
 31 49  1  0
 31 50  1  0
 32 51  1  0
 32 52  1  0
M  CHG  1  25   1
M  END
>  <DOCK_score>  (1) 
-45.643524

>  <SMILES>  (1) 
O=C(c1cnn(-c2ccccc2)c1)c1cn[nH]c1C1=CC[C@H]([NH2+]C2CCC2)C1

$$$$
