Nc1ccc(NC2CC=CC2)c(C[NH+]=C(NC2CC=CC2)N[C@H]2[C@@H]3CC=CC[C@@H]32)n1
     RDKit          3D

 63 67  0  0  1  0  0  0  0  0999 V2000
  126.0812  136.6554  162.7233 N   0  0  0  0  0  0  0  0  0  0  0  0
  126.8634  136.2452  161.6457 C   0  0  0  0  0  0  0  0  0  0  0  0
  126.2836  136.1049  160.3893 C   0  0  0  0  0  0  0  0  0  0  0  0
  127.0698  135.7019  159.3255 C   0  0  0  0  0  0  0  0  0  0  0  0
  128.4193  135.4404  159.5586 C   0  0  0  0  0  0  0  0  0  0  0  0
  129.2518  135.0244  158.5121 N   0  0  0  0  0  0  0  0  0  0  0  0
  128.9546  133.7863  157.7877 C   0  0  0  0  0  0  0  0  0  0  0  0
  129.8020  132.6106  158.3270 C   0  0  0  0  0  0  0  0  0  0  0  0
  130.1523  131.7968  157.1021 C   0  0  0  0  0  0  0  0  0  0  0  0
  129.9558  132.4833  156.0094 C   0  0  0  0  0  0  0  0  0  0  0  0
  129.4425  133.8696  156.3226 C   0  0  0  0  0  0  0  0  0  0  0  0
  128.9268  135.5971  160.8391 C   0  0  0  0  0  0  0  0  0  0  0  0
  130.3840  135.3168  161.1023 C   0  0  0  0  0  0  0  0  0  0  0  0
  131.1604  136.5435  160.9058 N   0  0  0  0  0  0  0  0  0  0  0  0
  131.8631  136.5710  160.2377 H   0  0  0  0  0  0  0  0  0  0  0  0
  130.9071  137.5980  161.6289 C   0  0  0  0  0  0  0  0  0  0  0  0
  129.9112  137.5590  162.5760 N   0  0  0  0  0  0  0  0  0  0  0  0
  129.6265  138.7441  163.3888 C   0  0  0  0  0  0  0  0  0  0  0  0
  128.9079  138.3571  164.7021 C   0  0  0  0  0  0  0  0  0  0  0  0
  127.9108  139.4680  164.9361 C   0  0  0  0  0  0  0  0  0  0  0  0
  127.7231  140.1676  163.8502 C   0  0  0  0  0  0  0  0  0  0  0  0
  128.5636  139.6398  162.7110 C   0  0  0  0  0  0  0  0  0  0  0  0
  131.6356  138.7492  161.4445 N   0  0  0  0  0  0  0  0  0  0  0  0
  133.0263  138.6713  160.9905 C   0  0  1  0  0  0  0  0  0  0  0  0
  133.7030  138.1193  161.6429 H   0  0  0  0  0  0  0  0  0  0  0  0
  133.2724  138.5847  159.4830 C   0  0  2  0  0  0  0  0  0  0  0  0
  132.4077  138.5775  158.8194 H   0  0  0  0  0  0  0  0  0  0  0  0
  134.5330  137.7808  159.0462 C   0  0  0  0  0  0  0  0  0  0  0  0
  135.5630  138.7507  158.5212 C   0  0  0  0  0  0  0  0  0  0  0  0
  135.8188  139.8612  159.1671 C   0  0  0  0  0  0  0  0  0  0  0  0
  135.0871  140.1877  160.4460 C   0  0  0  0  0  0  0  0  0  0  0  0
  133.5943  139.8814  160.2463 C   0  0  2  0  0  0  0  0  0  0  0  0
  132.9454  140.7441  160.0947 H   0  0  0  0  0  0  0  0  0  0  0  0
  128.1483  135.9886  161.8305 N   0  0  0  0  0  0  0  0  0  0  0  0
  126.4792  136.7513  163.6027 H   0  0  0  0  0  0  0  0  0  0  0  0
  125.1397  136.8490  162.5930 H   0  0  0  0  0  0  0  0  0  0  0  0
  125.2334  136.3116  160.2455 H   0  0  0  0  0  0  0  0  0  0  0  0
  126.6474  135.5884  158.3380 H   0  0  0  0  0  0  0  0  0  0  0  0
  130.0252  135.5561  158.2669 H   0  0  0  0  0  0  0  0  0  0  0  0
  127.8905  133.5547  157.8331 H   0  0  0  0  0  0  0  0  0  0  0  0
  130.7071  132.9835  158.8064 H   0  0  0  0  0  0  0  0  0  0  0  0
  129.2193  132.0123  159.0272 H   0  0  0  0  0  0  0  0  0  0  0  0
  130.5166  130.7804  157.1278 H   0  0  0  0  0  0  0  0  0  0  0  0
  130.1360  132.1094  155.0124 H   0  0  0  0  0  0  0  0  0  0  0  0
  128.6153  134.1266  155.6610 H   0  0  0  0  0  0  0  0  0  0  0  0
  130.2451  134.6014  156.2307 H   0  0  0  0  0  0  0  0  0  0  0  0
  130.5075  134.9691  162.1279 H   0  0  0  0  0  0  0  0  0  0  0  0
  130.7366  134.5493  160.4134 H   0  0  0  0  0  0  0  0  0  0  0  0
  129.3972  136.7468  162.7061 H   0  0  0  0  0  0  0  0  0  0  0  0
  130.5389  139.3051  163.5919 H   0  0  0  0  0  0  0  0  0  0  0  0
  128.3932  137.4032  164.5865 H   0  0  0  0  0  0  0  0  0  0  0  0
  129.6212  138.3074  165.5249 H   0  0  0  0  0  0  0  0  0  0  0  0
  127.4179  139.6581  165.8782 H   0  0  0  0  0  0  0  0  0  0  0  0
  127.0544  141.0124  163.7758 H   0  0  0  0  0  0  0  0  0  0  0  0
  129.0429  140.4621  162.1799 H   0  0  0  0  0  0  0  0  0  0  0  0
  127.9523  139.0517  162.0264 H   0  0  0  0  0  0  0  0  0  0  0  0
  131.2288  139.6131  161.6151 H   0  0  0  0  0  0  0  0  0  0  0  0
  134.2568  137.0788  158.2595 H   0  0  0  0  0  0  0  0  0  0  0  0
  134.9422  137.2378  159.8981 H   0  0  0  0  0  0  0  0  0  0  0  0
  136.0929  138.5278  157.6070 H   0  0  0  0  0  0  0  0  0  0  0  0
  136.5585  140.5475  158.7822 H   0  0  0  0  0  0  0  0  0  0  0  0
  135.2158  141.2441  160.6819 H   0  0  0  0  0  0  0  0  0  0  0  0
  135.4798  139.5801  161.2611 H   0  0  0  0  0  0  0  0  0  0  0  0
  1  2  1  0
  1 35  1  0
  1 36  1  0
  2 34  2  0
  2  3  1  0
  3  4  2  0
  3 37  1  0
  4  5  1  0
  4 38  1  0
  5  6  1  0
  5 12  2  0
  6  7  1  0
  6 39  1  0
  7 11  1  0
  7  8  1  0
  7 40  1  0
  8  9  1  0
  8 41  1  0
  8 42  1  0
  9 10  2  0
  9 43  1  0
 10 11  1  0
 10 44  1  0
 11 45  1  0
 11 46  1  0
 12 13  1  0
 12 34  1  0
 13 14  1  0
 13 47  1  0
 13 48  1  0
 14 15  1  0
 16 14  2  0
 16 17  1  0
 16 23  1  0
 17 18  1  0
 17 49  1  0
 18 22  1  0
 18 19  1  0
 18 50  1  0
 19 20  1  0
 19 51  1  0
 19 52  1  0
 20 21  2  0
 20 53  1  0
 21 22  1  0
 21 54  1  0
 22 55  1  0
 22 56  1  0
 23 24  1  0
 23 57  1  0
 24 25  1  1
 24 32  1  0
 24 26  1  0
 26 27  1  6
 26 32  1  0
 26 28  1  0
 28 29  1  0
 28 58  1  0
 28 59  1  0
 29 30  2  0
 29 60  1  0
 30 31  1  0
 30 61  1  0
 31 32  1  0
 31 62  1  0
 31 63  1  0
 32 33  1  6
M  CHG  1  14   1
M  END
>  <DOCK_score>  (1) 
-45.378407

>  <SMILES>  (1) 
Nc1ccc(NC2CC=CC2)c(C[NH+]=C(NC2CC=CC2)N[C@H]2[C@@H]3CC=CC[C@@H]32)n1

$$$$
