OCC[NH2+]Cc1c[nH]nc1-c1ccc(N[C@H]2CCC(c3ccccc3F)C2)o1
     RDKit          3D

 54 57  0  0  1  0  0  0  0  0999 V2000
  132.3850  139.2677  158.6712 O   0  0  0  0  0  0  0  0  0  0  0  0
  131.4523  139.3320  159.7519 C   0  0  0  0  0  0  0  0  0  0  0  0
  131.6158  138.0973  160.6406 C   0  0  0  0  0  0  0  0  0  0  0  0
  131.3638  136.8866  159.8477 N   0  0  0  0  0  0  0  0  0  0  0  0
  132.0223  136.8411  159.0846 H   0  0  0  0  0  0  0  0  0  0  0  0
  130.4245  136.9146  159.4803 H   0  0  0  0  0  0  0  0  0  0  0  0
  131.5206  135.7011  160.7009 C   0  0  0  0  0  0  0  0  0  0  0  0
  131.2621  134.4590  159.8876 C   0  0  0  0  0  0  0  0  0  0  0  0
  132.1844  133.7534  159.1987 C   0  0  0  0  0  0  0  0  0  0  0  0
  131.5573  132.7175  158.6003 N   0  0  0  0  0  0  0  0  0  0  0  0
  131.9760  132.0475  158.0377 H   0  0  0  0  0  0  0  0  0  0  0  0
  130.1982  132.7778  158.9332 N   0  0  0  0  0  0  0  0  0  0  0  0
  130.0139  133.8250  159.7130 C   0  0  0  0  0  0  0  0  0  0  0  0
  128.7277  134.2607  160.2952 C   0  0  0  0  0  0  0  0  0  0  0  0
  127.5275  133.6468  160.1234 C   0  0  0  0  0  0  0  0  0  0  0  0
  126.5802  134.3907  160.8544 C   0  0  0  0  0  0  0  0  0  0  0  0
  127.2458  135.4240  161.4280 C   0  0  0  0  0  0  0  0  0  0  0  0
  126.6820  136.4045  162.2360 N   0  0  0  0  0  0  0  0  0  0  0  0
  127.4830  137.0378  163.2867 C   0  0  1  0  0  0  0  0  0  0  0  0
  128.4956  137.2185  162.9260 H   0  0  0  0  0  0  0  0  0  0  0  0
  126.8319  138.3631  163.7191 C   0  0  0  0  0  0  0  0  0  0  0  0
  126.4967  138.2209  165.2183 C   0  0  0  0  0  0  0  0  0  0  0  0
  127.4741  137.1311  165.7243 C   0  0  1  0  0  0  0  0  0  0  0  0
  126.9336  136.4618  166.9616 C   0  0  0  0  0  0  0  0  0  0  0  0
  127.6502  136.5093  168.1425 C   0  0  0  0  0  0  0  0  0  0  0  0
  127.1520  135.9004  169.2790 C   0  0  0  0  0  0  0  0  0  0  0  0
  125.9365  135.2427  169.2358 C   0  0  0  0  0  0  0  0  0  0  0  0
  125.2184  135.1935  168.0563 C   0  0  0  0  0  0  0  0  0  0  0  0
  125.7163  135.8040  166.9173 C   0  0  0  0  0  0  0  0  0  0  0  0
  125.0146  135.7573  165.7637 F   0  0  0  0  0  0  0  0  0  0  0  0
  127.5207  136.1363  164.5380 C   0  0  0  0  0  0  0  0  0  0  0  0
  128.5432  135.3370  161.0883 O   0  0  0  0  0  0  0  0  0  0  0  0
  132.2771  138.4915  158.1043 H   0  0  0  0  0  0  0  0  0  0  0  0
  130.4377  139.3621  159.3549 H   0  0  0  0  0  0  0  0  0  0  0  0
  131.6392  140.2305  160.3401 H   0  0  0  0  0  0  0  0  0  0  0  0
  130.9044  138.1463  161.4650 H   0  0  0  0  0  0  0  0  0  0  0  0
  132.6305  138.0671  161.0375 H   0  0  0  0  0  0  0  0  0  0  0  0
  130.8093  135.7501  161.5253 H   0  0  0  0  0  0  0  0  0  0  0  0
  132.5352  135.6708  161.0979 H   0  0  0  0  0  0  0  0  0  0  0  0
  133.2383  133.9801  159.1339 H   0  0  0  0  0  0  0  0  0  0  0  0
  127.3370  132.7569  159.5418 H   0  0  0  0  0  0  0  0  0  0  0  0
  125.5246  134.1795  160.9402 H   0  0  0  0  0  0  0  0  0  0  0  0
  125.7582  136.6695  162.1043 H   0  0  0  0  0  0  0  0  0  0  0  0
  127.5286  139.1879  163.5690 H   0  0  0  0  0  0  0  0  0  0  0  0
  125.9200  138.5352  163.1474 H   0  0  0  0  0  0  0  0  0  0  0  0
  125.4640  137.8978  165.3493 H   0  0  0  0  0  0  0  0  0  0  0  0
  126.6720  139.1622  165.7394 H   0  0  0  0  0  0  0  0  0  0  0  0
  128.4614  137.5519  165.9146 H   0  0  0  0  0  0  0  0  0  0  0  0
  128.5998  137.0226  168.1774 H   0  0  0  0  0  0  0  0  0  0  0  0
  127.7125  135.9382  170.2012 H   0  0  0  0  0  0  0  0  0  0  0  0
  125.5483  134.7671  170.1243 H   0  0  0  0  0  0  0  0  0  0  0  0
  124.2694  134.6792  168.0226 H   0  0  0  0  0  0  0  0  0  0  0  0
  128.4432  135.5562  164.5626 H   0  0  0  0  0  0  0  0  0  0  0  0
  126.6545  135.4750  164.5605 H   0  0  0  0  0  0  0  0  0  0  0  0
  1  2  1  0
  1 33  1  0
  2  3  1  0
  2 34  1  0
  2 35  1  0
  3  4  1  0
  3 36  1  0
  3 37  1  0
  4  5  1  0
  4  6  1  0
  4  7  1  0
  7  8  1  0
  7 38  1  0
  7 39  1  0
  8 13  1  0
  8  9  2  0
  9 10  1  0
  9 40  1  0
 10 11  1  0
 10 12  1  0
 12 13  2  0
 13 14  1  0
 14 32  1  0
 14 15  2  0
 15 16  1  0
 15 41  1  0
 16 17  2  0
 16 42  1  0
 17 18  1  0
 17 32  1  0
 18 19  1  0
 18 43  1  0
 19 20  1  6
 19 31  1  0
 19 21  1  0
 21 22  1  0
 21 44  1  0
 21 45  1  0
 22 23  1  0
 22 46  1  0
 22 47  1  0
 23 24  1  0
 23 31  1  0
 23 48  1  1
 24 29  1  0
 24 25  2  0
 25 26  1  0
 25 49  1  0
 26 27  2  0
 26 50  1  0
 27 28  1  0
 27 51  1  0
 28 29  2  0
 28 52  1  0
 29 30  1  0
 31 53  1  0
 31 54  1  0
M  CHG  1   4   1
M  END
>  <DOCK_score>  (1) 
-50.879765

>  <SMILES>  (1) 
OCC[NH2+]Cc1c[nH]nc1-c1ccc(N[C@H]2CCC(c3ccccc3F)C2)o1

$$$$
