C[C@@H](C=C1C=CC(O)C1)NC1=[NH+]CCN1
     RDKit          3D

 33 34  0  0  1  0  0  0  0  0999 V2000
  128.9282  136.9368  160.4977 C   0  0  0  0  0  0  0  0  0  0  0  0
  128.8480  135.4897  160.0074 C   0  0  1  0  0  0  0  0  0  0  0  0
  129.0311  134.8128  160.8417 H   0  0  0  0  0  0  0  0  0  0  0  0
  127.4772  135.2272  159.4390 C   0  0  0  0  0  0  0  0  0  0  0  0
  126.5056  134.7798  160.2273 C   0  0  0  0  0  0  0  0  0  0  0  0
  126.6126  134.4955  161.6632 C   0  0  0  0  0  0  0  0  0  0  0  0
  125.4750  134.0625  162.1717 C   0  0  0  0  0  0  0  0  0  0  0  0
  124.4081  133.9936  161.1085 C   0  0  1  0  0  0  0  0  0  0  0  0
  123.3196  134.8562  161.4448 O   0  0  0  0  0  0  0  0  0  0  0  0
  125.0820  134.4752  159.8115 C   0  0  0  0  0  0  0  0  0  0  0  0
  129.8575  135.2693  158.9690 N   0  0  0  0  0  0  0  0  0  0  0  0
  129.9744  134.0409  158.3784 C   0  0  0  0  0  0  0  0  0  0  0  0
  130.8629  133.7844  157.4323 N   0  0  0  0  0  0  0  0  0  0  0  0
  131.5004  134.4211  157.0729 H   0  0  0  0  0  0  0  0  0  0  0  0
  130.7332  132.3799  157.0134 C   0  0  0  0  0  0  0  0  0  0  0  0
  129.5820  131.8486  157.8912 C   0  0  0  0  0  0  0  0  0  0  0  0
  129.2043  133.0155  158.7036 N   0  0  0  0  0  0  0  0  0  0  0  0
  128.1770  137.1008  161.2702 H   0  0  0  0  0  0  0  0  0  0  0  0
  129.9196  137.1267  160.9088 H   0  0  0  0  0  0  0  0  0  0  0  0
  128.7450  137.6138  159.6633 H   0  0  0  0  0  0  0  0  0  0  0  0
  127.2845  135.4026  158.3909 H   0  0  0  0  0  0  0  0  0  0  0  0
  127.5181  134.6260  162.2372 H   0  0  0  0  0  0  0  0  0  0  0  0
  125.3280  133.7942  163.2075 H   0  0  0  0  0  0  0  0  0  0  0  0
  124.0547  132.9687  160.9956 H   0  0  0  0  0  0  0  0  0  0  0  0
  123.5716  135.7836  161.5527 H   0  0  0  0  0  0  0  0  0  0  0  0
  124.5932  135.3742  159.4360 H   0  0  0  0  0  0  0  0  0  0  0  0
  125.0643  133.6870  159.0590 H   0  0  0  0  0  0  0  0  0  0  0  0
  130.4460  135.9931  158.7031 H   0  0  0  0  0  0  0  0  0  0  0  0
  131.6531  131.8301  157.2120 H   0  0  0  0  0  0  0  0  0  0  0  0
  130.4709  132.3181  155.9572 H   0  0  0  0  0  0  0  0  0  0  0  0
  129.9287  131.0339  158.5271 H   0  0  0  0  0  0  0  0  0  0  0  0
  128.7453  131.5246  157.2723 H   0  0  0  0  0  0  0  0  0  0  0  0
  128.5014  133.0306  159.3719 H   0  0  0  0  0  0  0  0  0  0  0  0
  1  2  1  0
  1 18  1  0
  1 19  1  0
  1 20  1  0
  2  3  1  1
  2  4  1  0
  2 11  1  0
  4  5  2  0
  4 21  1  0
  5 10  1  0
  5  6  1  0
  6  7  2  0
  6 22  1  0
  7  8  1  0
  7 23  1  0
  8  9  1  0
  8 10  1  0
  8 24  1  6
  9 25  1  0
 10 26  1  0
 10 27  1  0
 11 12  1  0
 11 28  1  0
 12 17  2  0
 12 13  1  0
 13 14  1  0
 13 15  1  0
 15 16  1  0
 15 29  1  0
 15 30  1  0
 16 17  1  0
 16 31  1  0
 16 32  1  0
 17 33  1  0
M  CHG  1  17   1
M  END
>  <DOCK_score>  (1) 
-42.742313

>  <SMILES>  (1) 
C[C@@H](C=C1C=CC(O)C1)NC1=[NH+]CCN1

$$$$
