Cn1nccc1[C@H](Cc1ccc(F)cc1)[NH+]=C1NCCCN1
     RDKit          3D

 43 45  0  0  1  0  0  0  0  0999 V2000
  127.6356  136.0053  162.5874 C   0  0  0  0  0  0  0  0  0  0  0  0
  127.3269  135.8621  161.1624 N   0  0  0  0  0  0  0  0  0  0  0  0
  126.0520  135.6856  160.6090 N   0  0  0  0  0  0  0  0  0  0  0  0
  126.1790  135.5979  159.3098 C   0  0  0  0  0  0  0  0  0  0  0  0
  127.5372  135.7099  158.9949 C   0  0  0  0  0  0  0  0  0  0  0  0
  128.2203  135.8770  160.1512 C   0  0  0  0  0  0  0  0  0  0  0  0
  129.7119  136.0436  160.2857 C   0  0  2  0  0  0  0  0  0  0  0  0
  130.0384  135.6341  161.2416 H   0  0  0  0  0  0  0  0  0  0  0  0
  130.0670  137.5304  160.2198 C   0  0  0  0  0  0  0  0  0  0  0  0
  131.5587  137.6970  160.3545 C   0  0  0  0  0  0  0  0  0  0  0  0
  132.1937  138.7583  159.7369 C   0  0  0  0  0  0  0  0  0  0  0  0
  133.5608  138.9154  159.8644 C   0  0  0  0  0  0  0  0  0  0  0  0
  134.2961  138.0024  160.6012 C   0  0  0  0  0  0  0  0  0  0  0  0
  135.6336  138.1513  160.7212 F   0  0  0  0  0  0  0  0  0  0  0  0
  133.6599  136.9365  161.2147 C   0  0  0  0  0  0  0  0  0  0  0  0
  132.2919  136.7851  161.0909 C   0  0  0  0  0  0  0  0  0  0  0  0
  130.3832  135.3325  159.1948 N   0  0  0  0  0  0  0  0  0  0  0  0
  130.9482  135.8188  158.5741 H   0  0  0  0  0  0  0  0  0  0  0  0
  130.2210  134.0464  159.0582 C   0  0  0  0  0  0  0  0  0  0  0  0
  129.4264  133.3145  159.9273 N   0  0  0  0  0  0  0  0  0  0  0  0
  128.5339  132.3012  159.3330 C   0  0  0  0  0  0  0  0  0  0  0  0
  129.3549  131.4281  158.3769 C   0  0  0  0  0  0  0  0  0  0  0  0
  130.0356  132.3241  157.3357 C   0  0  0  0  0  0  0  0  0  0  0  0
  130.8386  133.3371  158.0395 N   0  0  0  0  0  0  0  0  0  0  0  0
  127.8185  135.0217  163.0202 H   0  0  0  0  0  0  0  0  0  0  0  0
  128.5242  136.6253  162.7060 H   0  0  0  0  0  0  0  0  0  0  0  0
  126.7940  136.4754  163.0960 H   0  0  0  0  0  0  0  0  0  0  0  0
  125.3745  135.4583  158.6029 H   0  0  0  0  0  0  0  0  0  0  0  0
  127.9649  135.6719  158.0041 H   0  0  0  0  0  0  0  0  0  0  0  0
  129.7404  137.9399  159.2639 H   0  0  0  0  0  0  0  0  0  0  0  0
  129.5676  138.0595  161.0314 H   0  0  0  0  0  0  0  0  0  0  0  0
  131.6205  139.4675  159.1580 H   0  0  0  0  0  0  0  0  0  0  0  0
  134.0560  139.7469  159.3852 H   0  0  0  0  0  0  0  0  0  0  0  0
  134.2326  136.2238  161.7893 H   0  0  0  0  0  0  0  0  0  0  0  0
  131.7953  135.9539  161.5693 H   0  0  0  0  0  0  0  0  0  0  0  0
  129.4562  133.4651  160.8850 H   0  0  0  0  0  0  0  0  0  0  0  0
  127.7323  132.7931  158.7820 H   0  0  0  0  0  0  0  0  0  0  0  0
  128.1108  131.6807  160.1228 H   0  0  0  0  0  0  0  0  0  0  0  0
  128.6962  130.7204  157.8735 H   0  0  0  0  0  0  0  0  0  0  0  0
  130.1128  130.8842  158.9406 H   0  0  0  0  0  0  0  0  0  0  0  0
  129.2783  132.8166  156.7259 H   0  0  0  0  0  0  0  0  0  0  0  0
  130.6838  131.7199  156.7009 H   0  0  0  0  0  0  0  0  0  0  0  0
  131.7638  133.5022  157.7996 H   0  0  0  0  0  0  0  0  0  0  0  0
  1  2  1  0
  1 25  1  0
  1 26  1  0
  1 27  1  0
  2  6  1  0
  2  3  1  0
  3  4  2  0
  4  5  1  0
  4 28  1  0
  5  6  2  0
  5 29  1  0
  6  7  1  0
  7  8  1  1
  7  9  1  0
  7 17  1  0
  9 10  1  0
  9 30  1  0
  9 31  1  0
 10 16  1  0
 10 11  2  0
 11 12  1  0
 11 32  1  0
 12 13  2  0
 12 33  1  0
 13 14  1  0
 13 15  1  0
 15 16  2  0
 15 34  1  0
 16 35  1  0
 17 18  1  0
 17 19  2  0
 19 24  1  0
 19 20  1  0
 20 21  1  0
 20 36  1  0
 21 22  1  0
 21 37  1  0
 21 38  1  0
 22 23  1  0
 22 39  1  0
 22 40  1  0
 23 24  1  0
 23 41  1  0
 23 42  1  0
 24 43  1  0
M  CHG  1  17   1
M  END
>  <DOCK_score>  (1) 
-43.977844

>  <SMILES>  (1) 
Cn1nccc1[C@H](Cc1ccc(F)cc1)[NH+]=C1NCCCN1

$$$$
