CCc1ccc(-c2c[nH]c(N[C@@H](CSc3cc(F)ccc3C=O)c3cccc(F)c3)[nH+]2)cc1
     RDKit          3D

 57 60  0  0  1  0  0  0  0  0999 V2000
  130.1501  129.0149  151.3062 C   0  0  0  0  0  0  0  0  0  0  0  0
  131.4344  129.6517  151.8411 C   0  0  0  0  0  0  0  0  0  0  0  0
  131.1469  130.3373  153.1520 C   0  0  0  0  0  0  0  0  0  0  0  0
  131.2738  129.6370  154.3381 C   0  0  0  0  0  0  0  0  0  0  0  0
  131.0172  130.2613  155.5419 C   0  0  0  0  0  0  0  0  0  0  0  0
  130.6187  131.5967  155.5602 C   0  0  0  0  0  0  0  0  0  0  0  0
  130.3362  132.2717  156.8505 C   0  0  0  0  0  0  0  0  0  0  0  0
  129.8744  131.6766  157.9782 C   0  0  0  0  0  0  0  0  0  0  0  0
  129.7550  132.6615  158.9284 N   0  0  0  0  0  0  0  0  0  0  0  0
  129.4473  132.5451  159.8409 H   0  0  0  0  0  0  0  0  0  0  0  0
  130.1477  133.8306  158.3531 C   0  0  0  0  0  0  0  0  0  0  0  0
  130.1762  135.0664  158.9764 N   0  0  0  0  0  0  0  0  0  0  0  0
  129.7596  135.1909  160.3754 C   0  0  1  0  0  0  0  0  0  0  0  0
  130.1293  134.3364  160.9420 H   0  0  0  0  0  0  0  0  0  0  0  0
  130.3331  136.4809  160.9653 C   0  0  0  0  0  0  0  0  0  0  0  0
  132.1402  136.4340  160.8758 S   0  0  0  0  0  0  0  0  0  0  0  0
  132.5419  137.4123  162.2850 C   0  0  0  0  0  0  0  0  0  0  0  0
  132.6933  138.7882  162.1621 C   0  0  0  0  0  0  0  0  0  0  0  0
  133.0032  139.5499  163.2729 C   0  0  0  0  0  0  0  0  0  0  0  0
  133.1442  140.8880  163.1507 F   0  0  0  0  0  0  0  0  0  0  0  0
  133.1761  138.9478  164.5142 C   0  0  0  0  0  0  0  0  0  0  0  0
  133.0369  137.5974  164.6549 C   0  0  0  0  0  0  0  0  0  0  0  0
  132.7177  136.8051  163.5438 C   0  0  0  0  0  0  0  0  0  0  0  0
  132.5683  135.3558  163.6903 C   0  0  0  0  0  0  0  0  0  0  0  0
  131.5132  134.8236  163.4146 O   0  0  0  0  0  0  0  0  0  0  0  0
  128.2549  135.2301  160.4498 C   0  0  0  0  0  0  0  0  0  0  0  0
  127.5248  135.7607  159.4023 C   0  0  0  0  0  0  0  0  0  0  0  0
  126.1443  135.7921  159.4668 C   0  0  0  0  0  0  0  0  0  0  0  0
  125.4929  135.3032  160.5835 C   0  0  0  0  0  0  0  0  0  0  0  0
  126.2232  134.7770  161.6353 C   0  0  0  0  0  0  0  0  0  0  0  0
  125.5873  134.2985  162.7271 F   0  0  0  0  0  0  0  0  0  0  0  0
  127.6059  134.7409  161.5671 C   0  0  0  0  0  0  0  0  0  0  0  0
  130.4998  133.5927  157.1131 N   0  0  0  0  0  0  0  0  0  0  0  0
  130.8233  134.2555  156.4832 H   0  0  0  0  0  0  0  0  0  0  0  0
  130.4871  132.2957  154.3616 C   0  0  0  0  0  0  0  0  0  0  0  0
  130.7516  131.6629  153.1641 C   0  0  0  0  0  0  0  0  0  0  0  0
  129.7804  128.2837  152.0252 H   0  0  0  0  0  0  0  0  0  0  0  0
  129.3971  129.7879  151.1544 H   0  0  0  0  0  0  0  0  0  0  0  0
  130.3582  128.5189  150.3581 H   0  0  0  0  0  0  0  0  0  0  0  0
  132.1875  128.8785  151.9930 H   0  0  0  0  0  0  0  0  0  0  0  0
  131.8042  130.3828  151.1221 H   0  0  0  0  0  0  0  0  0  0  0  0
  131.5780  128.6008  154.3224 H   0  0  0  0  0  0  0  0  0  0  0  0
  131.1211  129.7150  156.4678 H   0  0  0  0  0  0  0  0  0  0  0  0
  129.6443  130.6291  158.1049 H   0  0  0  0  0  0  0  0  0  0  0  0
  130.4722  135.8498  158.4868 H   0  0  0  0  0  0  0  0  0  0  0  0
  129.9632  137.3355  160.3988 H   0  0  0  0  0  0  0  0  0  0  0  0
  130.0231  136.5736  162.0063 H   0  0  0  0  0  0  0  0  0  0  0  0
  132.5649  139.2623  161.2003 H   0  0  0  0  0  0  0  0  0  0  0  0
  133.4229  139.5535  165.3737 H   0  0  0  0  0  0  0  0  0  0  0  0
  133.1732  137.1389  165.6232 H   0  0  0  0  0  0  0  0  0  0  0  0
  133.3973  134.7605  164.0438 H   0  0  0  0  0  0  0  0  0  0  0  0
  128.0331  136.1471  158.5314 H   0  0  0  0  0  0  0  0  0  0  0  0
  125.5748  136.2026  158.6461 H   0  0  0  0  0  0  0  0  0  0  0  0
  124.4145  135.3322  160.6357 H   0  0  0  0  0  0  0  0  0  0  0  0
  128.1765  134.3309  162.3873 H   0  0  0  0  0  0  0  0  0  0  0  0
  130.1783  133.3308  154.3700 H   0  0  0  0  0  0  0  0  0  0  0  0
  130.6497  132.2035  152.2347 H   0  0  0  0  0  0  0  0  0  0  0  0
  1  2  1  0
  1 37  1  0
  1 38  1  0
  1 39  1  0
  2  3  1  0
  2 40  1  0
  2 41  1  0
  3 36  2  0
  3  4  1  0
  4  5  2  0
  4 42  1  0
  5  6  1  0
  5 43  1  0
  6  7  1  0
  6 35  2  0
  7 33  1  0
  7  8  2  0
  8  9  1  0
  8 44  1  0
  9 10  1  0
  9 11  1  0
 11 12  1  0
 11 33  2  0
 12 13  1  0
 12 45  1  0
 13 14  1  1
 13 15  1  0
 13 26  1  0
 15 16  1  0
 15 46  1  0
 15 47  1  0
 16 17  1  0
 17 23  1  0
 17 18  2  0
 18 19  1  0
 18 48  1  0
 19 20  1  0
 19 21  2  0
 21 22  1  0
 21 49  1  0
 22 23  2  0
 22 50  1  0
 23 24  1  0
 24 25  2  0
 24 51  1  0
 26 32  1  0
 26 27  2  0
 27 28  1  0
 27 52  1  0
 28 29  2  0
 28 53  1  0
 29 30  1  0
 29 54  1  0
 30 31  1  0
 30 32  2  0
 32 55  1  0
 33 34  1  0
 35 36  1  0
 35 56  1  0
 36 57  1  0
M  CHG  1  33   1
M  END
>  <DOCK_score>  (1) 
-55.9641

>  <SMILES>  (1) 
CCc1ccc(-c2c[nH]c(N[C@@H](CSc3cc(F)ccc3C=O)c3cccc(F)c3)[nH+]2)cc1

$$$$
