O[C@H](C[NH2+]C[C@@H]1CCC=C1c1cncc(-c2ccccc2)c1)c1ccccc1
     RDKit          3D

 55 58  0  0  1  0  0  0  0  0999 V2000
  134.0158  137.8370  159.1454 O   0  0  0  0  0  0  0  0  0  0  0  0
  133.3178  137.8338  160.3924 C   0  0  2  0  0  0  0  0  0  0  0  0
  134.0055  138.1018  161.1944 H   0  0  0  0  0  0  0  0  0  0  0  0
  132.7477  136.4383  160.6542 C   0  0  0  0  0  0  0  0  0  0  0  0
  131.5073  136.2641  159.8868 N   0  0  0  0  0  0  0  0  0  0  0  0
  131.7034  136.3680  158.9024 H   0  0  0  0  0  0  0  0  0  0  0  0
  130.8351  136.9608  160.1711 H   0  0  0  0  0  0  0  0  0  0  0  0
  130.9600  134.9242  160.1381 C   0  0  0  0  0  0  0  0  0  0  0  0
  129.6682  134.7428  159.3387 C   0  0  2  0  0  0  0  0  0  0  0  0
  129.7688  135.1857  158.3478 H   0  0  0  0  0  0  0  0  0  0  0  0
  128.4717  135.3746  160.0903 C   0  0  0  0  0  0  0  0  0  0  0  0
  127.9235  134.1607  160.8750 C   0  0  0  0  0  0  0  0  0  0  0  0
  128.3608  132.9547  160.0763 C   0  0  0  0  0  0  0  0  0  0  0  0
  129.3205  133.2766  159.2266 C   0  0  0  0  0  0  0  0  0  0  0  0
  129.9703  132.3288  158.2966 C   0  0  0  0  0  0  0  0  0  0  0  0
  130.6427  131.2065  158.7839 C   0  0  0  0  0  0  0  0  0  0  0  0
  131.2239  130.3579  157.9611 N   0  0  0  0  0  0  0  0  0  0  0  0
  131.1992  130.5239  156.6541 C   0  0  0  0  0  0  0  0  0  0  0  0
  130.5495  131.6171  156.0833 C   0  0  0  0  0  0  0  0  0  0  0  0
  130.5330  131.7978  154.6103 C   0  0  0  0  0  0  0  0  0  0  0  0
  130.4709  133.0778  154.0636 C   0  0  0  0  0  0  0  0  0  0  0  0
  130.4606  133.2403  152.6931 C   0  0  0  0  0  0  0  0  0  0  0  0
  130.5011  132.1348  151.8627 C   0  0  0  0  0  0  0  0  0  0  0  0
  130.5575  130.8616  152.4001 C   0  0  0  0  0  0  0  0  0  0  0  0
  130.5735  130.6877  153.7692 C   0  0  0  0  0  0  0  0  0  0  0  0
  129.9198  132.5422  156.9167 C   0  0  0  0  0  0  0  0  0  0  0  0
  132.1922  138.8346  160.3405 C   0  0  0  0  0  0  0  0  0  0  0  0
  131.7768  139.4681  161.4967 C   0  0  0  0  0  0  0  0  0  0  0  0
  130.7472  140.3893  161.4484 C   0  0  0  0  0  0  0  0  0  0  0  0
  130.1268  140.6700  160.2454 C   0  0  0  0  0  0  0  0  0  0  0  0
  130.5392  140.0330  159.0900 C   0  0  0  0  0  0  0  0  0  0  0  0
  131.5715  139.1150  159.1375 C   0  0  0  0  0  0  0  0  0  0  0  0
  133.4641  137.6068  158.3853 H   0  0  0  0  0  0  0  0  0  0  0  0
  132.5358  136.3262  161.7175 H   0  0  0  0  0  0  0  0  0  0  0  0
  133.4738  135.6856  160.3471 H   0  0  0  0  0  0  0  0  0  0  0  0
  130.7483  134.8118  161.2014 H   0  0  0  0  0  0  0  0  0  0  0  0
  131.6861  134.1716  159.8308 H   0  0  0  0  0  0  0  0  0  0  0  0
  127.7263  135.7584  159.3938 H   0  0  0  0  0  0  0  0  0  0  0  0
  128.8092  136.1581  160.7688 H   0  0  0  0  0  0  0  0  0  0  0  0
  126.8357  134.2047  160.9307 H   0  0  0  0  0  0  0  0  0  0  0  0
  128.3546  134.1297  161.8757 H   0  0  0  0  0  0  0  0  0  0  0  0
  127.9452  131.9639  160.1851 H   0  0  0  0  0  0  0  0  0  0  0  0
  130.6872  131.0322  159.8487 H   0  0  0  0  0  0  0  0  0  0  0  0
  131.6895  129.8033  156.0163 H   0  0  0  0  0  0  0  0  0  0  0  0
  130.4352  133.9414  154.7112 H   0  0  0  0  0  0  0  0  0  0  0  0
  130.4167  134.2323  152.2681 H   0  0  0  0  0  0  0  0  0  0  0  0
  130.4890  132.2663  150.7908 H   0  0  0  0  0  0  0  0  0  0  0  0
  130.5885  130.0018  151.7473 H   0  0  0  0  0  0  0  0  0  0  0  0
  130.6180  129.6932  154.1879 H   0  0  0  0  0  0  0  0  0  0  0  0
  129.4080  133.4002  156.5064 H   0  0  0  0  0  0  0  0  0  0  0  0
  132.2587  139.2456  162.4373 H   0  0  0  0  0  0  0  0  0  0  0  0
  130.4254  140.8872  162.3511 H   0  0  0  0  0  0  0  0  0  0  0  0
  129.3203  141.3873  160.2082 H   0  0  0  0  0  0  0  0  0  0  0  0
  130.0545  140.2523  158.1501 H   0  0  0  0  0  0  0  0  0  0  0  0
  131.8934  138.6170  158.2348 H   0  0  0  0  0  0  0  0  0  0  0  0
  1  2  1  0
  1 33  1  0
  2  3  1  1
  2  4  1  0
  2 27  1  0
  4  5  1  0
  4 34  1  0
  4 35  1  0
  5  6  1  0
  5  7  1  0
  5  8  1  0
  8  9  1  0
  8 36  1  0
  8 37  1  0
  9 10  1  6
  9 14  1  0
  9 11  1  0
 11 12  1  0
 11 38  1  0
 11 39  1  0
 12 13  1  0
 12 40  1  0
 12 41  1  0
 13 14  2  0
 13 42  1  0
 14 15  1  0
 15 26  1  0
 15 16  2  0
 16 17  1  0
 16 43  1  0
 17 18  2  0
 18 19  1  0
 18 44  1  0
 19 20  1  0
 19 26  2  0
 20 25  1  0
 20 21  2  0
 21 22  1  0
 21 45  1  0
 22 23  2  0
 22 46  1  0
 23 24  1  0
 23 47  1  0
 24 25  2  0
 24 48  1  0
 25 49  1  0
 26 50  1  0
 27 32  1  0
 27 28  2  0
 28 29  1  0
 28 51  1  0
 29 30  2  0
 29 52  1  0
 30 31  1  0
 30 53  1  0
 31 32  2  0
 31 54  1  0
 32 55  1  0
M  CHG  1   5   1
M  END
>  <DOCK_score>  (1) 
-56.436623

>  <SMILES>  (1) 
O[C@H](C[NH2+]C[C@@H]1CCC=C1c1cncc(-c2ccccc2)c1)c1ccccc1

$$$$
