C1=CC([NH2+]Cc2c[nH]nc2-c2ccc(N[C@H]3CC34CCCC4)o2)CC1
     RDKit          3D

 52 56  0  0  1  0  0  0  0  0999 V2000
  134.5272  138.7375  159.8928 C   0  0  0  0  0  0  0  0  0  0  0  0
  134.0670  137.8728  160.7554 C   0  0  0  0  0  0  0  0  0  0  0  0
  132.5898  137.6312  160.5482 C   0  0  2  0  0  0  0  0  0  0  0  0
  132.3727  136.3568  159.8505 N   0  0  0  0  0  0  0  0  0  0  0  0
  133.0148  135.6648  160.2065 H   0  0  0  0  0  0  0  0  0  0  0  0
  132.5293  136.4839  158.8618 H   0  0  0  0  0  0  0  0  0  0  0  0
  130.9928  135.9052  160.0737 C   0  0  0  0  0  0  0  0  0  0  0  0
  130.7702  134.5978  159.3579 C   0  0  0  0  0  0  0  0  0  0  0  0
  131.6838  133.9276  158.6237 C   0  0  0  0  0  0  0  0  0  0  0  0
  131.0970  132.8091  158.1451 N   0  0  0  0  0  0  0  0  0  0  0  0
  131.5190  132.1416  157.5819 H   0  0  0  0  0  0  0  0  0  0  0  0
  129.7735  132.7796  158.6028 N   0  0  0  0  0  0  0  0  0  0  0  0
  129.5710  133.8549  159.3385 C   0  0  0  0  0  0  0  0  0  0  0  0
  128.3102  134.2201  160.0170 C   0  0  0  0  0  0  0  0  0  0  0  0
  127.1589  133.4980  160.0002 C   0  0  0  0  0  0  0  0  0  0  0  0
  126.2193  134.2098  160.7718 C   0  0  0  0  0  0  0  0  0  0  0  0
  126.8418  135.3284  161.2204 C   0  0  0  0  0  0  0  0  0  0  0  0
  126.2699  136.3102  162.0213 N   0  0  0  0  0  0  0  0  0  0  0  0
  127.1040  137.0723  162.9538 C   0  0  1  0  0  0  0  0  0  0  0  0
  128.0864  137.3595  162.5793 H   0  0  0  0  0  0  0  0  0  0  0  0
  126.3973  138.0440  163.9026 C   0  0  0  0  0  0  0  0  0  0  0  0
  126.9840  136.7415  164.4383 C   0  0  0  0  0  0  0  0  0  0  0  0
  128.2227  136.7524  165.3511 C   0  0  0  0  0  0  0  0  0  0  0  0
  127.7368  136.0672  166.6535 C   0  0  0  0  0  0  0  0  0  0  0  0
  126.7959  134.9550  166.1264 C   0  0  0  0  0  0  0  0  0  0  0  0
  126.0748  135.6053  164.9262 C   0  0  0  0  0  0  0  0  0  0  0  0
  128.1060  135.3252  160.7646 O   0  0  0  0  0  0  0  0  0  0  0  0
  132.1174  138.8132  159.6703 C   0  0  0  0  0  0  0  0  0  0  0  0
  133.4339  139.2165  158.9663 C   0  0  0  0  0  0  0  0  0  0  0  0
  135.5549  139.0667  159.8468 H   0  0  0  0  0  0  0  0  0  0  0  0
  134.6633  137.3932  161.5175 H   0  0  0  0  0  0  0  0  0  0  0  0
  132.0667  137.6335  161.5046 H   0  0  0  0  0  0  0  0  0  0  0  0
  130.2991  136.6528  159.6890 H   0  0  0  0  0  0  0  0  0  0  0  0
  130.8236  135.7681  161.1418 H   0  0  0  0  0  0  0  0  0  0  0  0
  132.7038  134.2347  158.4457 H   0  0  0  0  0  0  0  0  0  0  0  0
  126.9957  132.5588  159.4927 H   0  0  0  0  0  0  0  0  0  0  0  0
  125.1977  133.9203  160.9683 H   0  0  0  0  0  0  0  0  0  0  0  0
  125.3186  136.4905  161.9626 H   0  0  0  0  0  0  0  0  0  0  0  0
  126.9152  138.9698  164.1525 H   0  0  0  0  0  0  0  0  0  0  0  0
  125.3118  138.1160  163.8327 H   0  0  0  0  0  0  0  0  0  0  0  0
  129.0348  136.1823  164.8997 H   0  0  0  0  0  0  0  0  0  0  0  0
  128.5395  137.7757  165.5530 H   0  0  0  0  0  0  0  0  0  0  0  0
  127.1889  136.7719  167.2792 H   0  0  0  0  0  0  0  0  0  0  0  0
  128.5761  135.6364  167.1994 H   0  0  0  0  0  0  0  0  0  0  0  0
  126.0768  134.6684  166.8938 H   0  0  0  0  0  0  0  0  0  0  0  0
  127.3732  134.0895  165.8013 H   0  0  0  0  0  0  0  0  0  0  0  0
  125.1114  136.0062  165.2410 H   0  0  0  0  0  0  0  0  0  0  0  0
  125.9332  134.8723  164.1320 H   0  0  0  0  0  0  0  0  0  0  0  0
  131.3701  138.4888  158.9463 H   0  0  0  0  0  0  0  0  0  0  0  0
  131.7365  139.6292  160.2846 H   0  0  0  0  0  0  0  0  0  0  0  0
  133.4846  140.2988  158.8470 H   0  0  0  0  0  0  0  0  0  0  0  0
  133.5145  138.7244  157.9972 H   0  0  0  0  0  0  0  0  0  0  0  0
  1 29  1  0
  1  2  2  0
  1 30  1  0
  2  3  1  0
  2 31  1  0
  3  4  1  0
  3 28  1  0
  3 32  1  1
  4  5  1  0
  4  6  1  0
  4  7  1  0
  7  8  1  0
  7 33  1  0
  7 34  1  0
  8 13  1  0
  8  9  2  0
  9 10  1  0
  9 35  1  0
 10 11  1  0
 10 12  1  0
 12 13  2  0
 13 14  1  0
 14 27  1  0
 14 15  2  0
 15 16  1  0
 15 36  1  0
 16 17  2  0
 16 37  1  0
 17 18  1  0
 17 27  1  0
 18 19  1  0
 18 38  1  0
 19 20  1  6
 19 22  1  0
 19 21  1  0
 21 22  1  0
 21 39  1  0
 21 40  1  0
 22 26  1  0
 22 23  1  0
 23 24  1  0
 23 41  1  0
 23 42  1  0
 24 25  1  0
 24 43  1  0
 24 44  1  0
 25 26  1  0
 25 45  1  0
 25 46  1  0
 26 47  1  0
 26 48  1  0
 28 29  1  0
 28 49  1  0
 28 50  1  0
 29 51  1  0
 29 52  1  0
M  CHG  1   4   1
M  END
>  <DOCK_score>  (1) 
-45.47953

>  <SMILES>  (1) 
C1=CC([NH2+]Cc2c[nH]nc2-c2ccc(N[C@H]3CC34CCCC4)o2)CC1

$$$$
