CCc1ccc(-c2c[nH]c(N[C@@H](c3ccccc3Br)c3cccc4cc[nH]c34)[nH+]2)cc1
     RDKit          3D

 55 59  0  0  1  0  0  0  0  0999 V2000
  129.7885  129.1032  150.9307 C   0  0  0  0  0  0  0  0  0  0  0  0
  131.1337  129.5964  151.4675 C   0  0  0  0  0  0  0  0  0  0  0  0
  130.9214  130.3042  152.7810 C   0  0  0  0  0  0  0  0  0  0  0  0
  130.9724  129.5899  153.9646 C   0  0  0  0  0  0  0  0  0  0  0  0
  130.7843  130.2337  155.1706 C   0  0  0  0  0  0  0  0  0  0  0  0
  130.5316  131.6042  155.1941 C   0  0  0  0  0  0  0  0  0  0  0  0
  130.3232  132.3008  156.4870 C   0  0  0  0  0  0  0  0  0  0  0  0
  129.8003  131.7546  157.6126 C   0  0  0  0  0  0  0  0  0  0  0  0
  129.7873  132.7432  158.5664 N   0  0  0  0  0  0  0  0  0  0  0  0
  129.4688  132.6572  159.4787 H   0  0  0  0  0  0  0  0  0  0  0  0
  130.3033  133.8655  157.9951 C   0  0  0  0  0  0  0  0  0  0  0  0
  130.4644  135.0888  158.6229 N   0  0  0  0  0  0  0  0  0  0  0  0
  130.0638  135.2522  160.0226 C   0  0  1  0  0  0  0  0  0  0  0  0
  130.3396  134.3608  160.5860 H   0  0  0  0  0  0  0  0  0  0  0  0
  130.7618  136.4525  160.6082 C   0  0  0  0  0  0  0  0  0  0  0  0
  130.1708  137.7000  160.5345 C   0  0  0  0  0  0  0  0  0  0  0  0
  130.8108  138.8010  161.0718 C   0  0  0  0  0  0  0  0  0  0  0  0
  132.0425  138.6554  161.6826 C   0  0  0  0  0  0  0  0  0  0  0  0
  132.6341  137.4085  161.7569 C   0  0  0  0  0  0  0  0  0  0  0  0
  131.9913  136.3053  161.2243 C   0  0  0  0  0  0  0  0  0  0  0  0
  132.7970  134.5980  161.3314 Br  0  0  0  0  0  0  0  0  0  0  0  0
  128.5720  135.4525  160.0980 C   0  0  0  0  0  0  0  0  0  0  0  0
  127.8164  135.4593  158.9458 C   0  0  0  0  0  0  0  0  0  0  0  0
  126.4411  135.6380  159.0022 C   0  0  0  0  0  0  0  0  0  0  0  0
  125.8136  135.8209  160.2023 C   0  0  0  0  0  0  0  0  0  0  0  0
  126.5603  135.8229  161.3817 C   0  0  0  0  0  0  0  0  0  0  0  0
  126.2259  135.9863  162.7985 C   0  0  0  0  0  0  0  0  0  0  0  0
  127.3751  135.8946  163.4862 C   0  0  0  0  0  0  0  0  0  0  0  0
  128.4184  135.6858  162.6257 N   0  0  0  0  0  0  0  0  0  0  0  0
  129.3467  135.5866  162.8891 H   0  0  0  0  0  0  0  0  0  0  0  0
  127.9541  135.6368  161.3303 C   0  0  0  0  0  0  0  0  0  0  0  0
  130.6279  133.5956  156.7543 N   0  0  0  0  0  0  0  0  0  0  0  0
  131.0207  134.2222  156.1266 H   0  0  0  0  0  0  0  0  0  0  0  0
  130.4759  132.3177  153.9981 C   0  0  0  0  0  0  0  0  0  0  0  0
  130.6709  131.6645  152.7982 C   0  0  0  0  0  0  0  0  0  0  0  0
  129.1229  129.9533  150.7820 H   0  0  0  0  0  0  0  0  0  0  0  0
  129.9421  128.5915  149.9806 H   0  0  0  0  0  0  0  0  0  0  0  0
  129.3425  128.4133  151.6470 H   0  0  0  0  0  0  0  0  0  0  0  0
  131.7994  128.7464  151.6161 H   0  0  0  0  0  0  0  0  0  0  0  0
  131.5797  130.2864  150.7511 H   0  0  0  0  0  0  0  0  0  0  0  0
  131.1635  128.5271  153.9450 H   0  0  0  0  0  0  0  0  0  0  0  0
  130.8289  129.6759  156.0945 H   0  0  0  0  0  0  0  0  0  0  0  0
  129.4589  130.7374  157.7356 H   0  0  0  0  0  0  0  0  0  0  0  0
  130.8427  135.8378  158.1362 H   0  0  0  0  0  0  0  0  0  0  0  0
  129.2091  137.8145  160.0567 H   0  0  0  0  0  0  0  0  0  0  0  0
  130.3488  139.7756  161.0141 H   0  0  0  0  0  0  0  0  0  0  0  0
  132.5428  139.5160  162.1016 H   0  0  0  0  0  0  0  0  0  0  0  0
  133.5961  137.2947  162.2344 H   0  0  0  0  0  0  0  0  0  0  0  0
  128.2986  135.3204  157.9895 H   0  0  0  0  0  0  0  0  0  0  0  0
  125.8630  135.6369  158.0901 H   0  0  0  0  0  0  0  0  0  0  0  0
  124.7436  135.9630  160.2381 H   0  0  0  0  0  0  0  0  0  0  0  0
  125.2414  136.1492  163.2114 H   0  0  0  0  0  0  0  0  0  0  0  0
  127.4633  135.9739  164.5596 H   0  0  0  0  0  0  0  0  0  0  0  0
  130.2801  133.3797  154.0103 H   0  0  0  0  0  0  0  0  0  0  0  0
  130.6285  132.2164  151.8708 H   0  0  0  0  0  0  0  0  0  0  0  0
  1  2  1  0
  1 36  1  0
  1 37  1  0
  1 38  1  0
  2  3  1  0
  2 39  1  0
  2 40  1  0
  3 35  2  0
  3  4  1  0
  4  5  2  0
  4 41  1  0
  5  6  1  0
  5 42  1  0
  6  7  1  0
  6 34  2  0
  7 32  1  0
  7  8  2  0
  8  9  1  0
  8 43  1  0
  9 10  1  0
  9 11  1  0
 11 12  1  0
 11 32  2  0
 12 13  1  0
 12 44  1  0
 13 14  1  1
 13 15  1  0
 13 22  1  0
 15 20  1  0
 15 16  2  0
 16 17  1  0
 16 45  1  0
 17 18  2  0
 17 46  1  0
 18 19  1  0
 18 47  1  0
 19 20  2  0
 19 48  1  0
 20 21  1  0
 22 31  1  0
 22 23  2  0
 23 24  1  0
 23 49  1  0
 24 25  2  0
 24 50  1  0
 25 26  1  0
 25 51  1  0
 26 31  2  0
 26 27  1  0
 27 28  2  0
 27 52  1  0
 28 29  1  0
 28 53  1  0
 29 30  1  0
 29 31  1  0
 32 33  1  0
 34 35  1  0
 34 54  1  0
 35 55  1  0
M  CHG  1  32   1
M  END
>  <DOCK_score>  (1) 
-60.179043

>  <SMILES>  (1) 
CCc1ccc(-c2c[nH]c(N[C@@H](c3ccccc3Br)c3cccc4cc[nH]c34)[nH+]2)cc1

$$$$
