O=C(Nc1cc(O)cc(O)c1)[C@@H]([NH2+]C1CC=CC1)c1cnn(-c2ccccc2)c1
     RDKit          3D

 52 55  0  0  1  0  0  0  0  0999 V2000
  128.9772  138.7212  160.5922 O   0  0  0  0  0  0  0  0  0  0  0  0
  129.9014  138.3458  161.2821 C   0  0  0  0  0  0  0  0  0  0  0  0
  130.0048  138.7676  162.5580 N   0  0  0  0  0  0  0  0  0  0  0  0
  129.0459  139.6386  163.0867 C   0  0  0  0  0  0  0  0  0  0  0  0
  129.4282  140.8845  163.5649 C   0  0  0  0  0  0  0  0  0  0  0  0
  128.4765  141.7495  164.0831 C   0  0  0  0  0  0  0  0  0  0  0  0
  128.8496  142.9717  164.5457 O   0  0  0  0  0  0  0  0  0  0  0  0
  127.1449  141.3656  164.1349 C   0  0  0  0  0  0  0  0  0  0  0  0
  126.7632  140.1186  163.6625 C   0  0  0  0  0  0  0  0  0  0  0  0
  125.4582  139.7431  163.7138 O   0  0  0  0  0  0  0  0  0  0  0  0
  127.7129  139.2550  163.1385 C   0  0  0  0  0  0  0  0  0  0  0  0
  130.9342  137.4075  160.7127 C   0  0  1  0  0  0  0  0  0  0  0  0
  130.9480  136.4859  161.2945 H   0  0  0  0  0  0  0  0  0  0  0  0
  130.5990  137.0999  159.3159 N   0  0  0  0  0  0  0  0  0  0  0  0
  130.2664  137.9351  158.8580 H   0  0  0  0  0  0  0  0  0  0  0  0
  131.4212  136.7599  158.8398 H   0  0  0  0  0  0  0  0  0  0  0  0
  129.5512  136.0708  159.2790 C   0  0  0  0  0  0  0  0  0  0  0  0
  130.1656  134.6520  159.3011 C   0  0  0  0  0  0  0  0  0  0  0  0
  129.2837  133.8379  158.3822 C   0  0  0  0  0  0  0  0  0  0  0  0
  128.5516  134.6105  157.6266 C   0  0  0  0  0  0  0  0  0  0  0  0
  128.8232  136.0688  157.9147 C   0  0  0  0  0  0  0  0  0  0  0  0
  132.2918  138.0592  160.7717 C   0  0  0  0  0  0  0  0  0  0  0  0
  132.6577  139.2569  160.1475 C   0  0  0  0  0  0  0  0  0  0  0  0
  133.9121  139.4998  160.4309 N   0  0  0  0  0  0  0  0  0  0  0  0
  134.3885  138.4585  161.2380 N   0  0  0  0  0  0  0  0  0  0  0  0
  135.6870  138.3419  161.7532 C   0  0  0  0  0  0  0  0  0  0  0  0
  136.0248  137.2549  162.5482 C   0  0  0  0  0  0  0  0  0  0  0  0
  137.3066  137.1398  163.0496 C   0  0  0  0  0  0  0  0  0  0  0  0
  138.2499  138.1116  162.7698 C   0  0  0  0  0  0  0  0  0  0  0  0
  137.9147  139.1981  161.9830 C   0  0  0  0  0  0  0  0  0  0  0  0
  136.6361  139.3159  161.4740 C   0  0  0  0  0  0  0  0  0  0  0  0
  133.3735  137.5863  161.4328 C   0  0  0  0  0  0  0  0  0  0  0  0
  130.7440  138.4673  163.1097 H   0  0  0  0  0  0  0  0  0  0  0  0
  130.4659  141.1816  163.5293 H   0  0  0  0  0  0  0  0  0  0  0  0
  128.1174  143.5030  164.8871 H   0  0  0  0  0  0  0  0  0  0  0  0
  126.4047  142.0378  164.5431 H   0  0  0  0  0  0  0  0  0  0  0  0
  125.2893  138.8584  163.3621 H   0  0  0  0  0  0  0  0  0  0  0  0
  127.4154  138.2842  162.7703 H   0  0  0  0  0  0  0  0  0  0  0  0
  128.8456  136.2046  160.0989 H   0  0  0  0  0  0  0  0  0  0  0  0
  131.1880  134.6750  158.9239 H   0  0  0  0  0  0  0  0  0  0  0  0
  130.1418  134.2436  160.3114 H   0  0  0  0  0  0  0  0  0  0  0  0
  129.2620  132.7585  158.3547 H   0  0  0  0  0  0  0  0  0  0  0  0
  127.8442  134.2543  156.8924 H   0  0  0  0  0  0  0  0  0  0  0  0
  127.8871  136.6230  157.9831 H   0  0  0  0  0  0  0  0  0  0  0  0
  129.4628  136.4956  157.1423 H   0  0  0  0  0  0  0  0  0  0  0  0
  132.0148  139.8757  159.5392 H   0  0  0  0  0  0  0  0  0  0  0  0
  135.2873  136.4981  162.7707 H   0  0  0  0  0  0  0  0  0  0  0  0
  137.5714  136.2924  163.6644 H   0  0  0  0  0  0  0  0  0  0  0  0
  139.2503  138.0214  163.1664 H   0  0  0  0  0  0  0  0  0  0  0  0
  138.6536  139.9554  161.7659 H   0  0  0  0  0  0  0  0  0  0  0  0
  136.3751  140.1646  160.8592 H   0  0  0  0  0  0  0  0  0  0  0  0
  133.4185  136.6760  162.0121 H   0  0  0  0  0  0  0  0  0  0  0  0
  1  2  2  0
  2  3  1  0
  2 12  1  0
  3  4  1  0
  3 33  1  0
  4 11  1  0
  4  5  2  0
  5  6  1  0
  5 34  1  0
  6  7  1  0
  6  8  2  0
  7 35  1  0
  8  9  1  0
  8 36  1  0
  9 10  1  0
  9 11  2  0
 10 37  1  0
 11 38  1  0
 12 13  1  1
 12 14  1  0
 12 22  1  0
 14 15  1  0
 14 16  1  0
 14 17  1  0
 17 21  1  0
 17 18  1  0
 17 39  1  0
 18 19  1  0
 18 40  1  0
 18 41  1  0
 19 20  2  0
 19 42  1  0
 20 21  1  0
 20 43  1  0
 21 44  1  0
 21 45  1  0
 22 32  2  0
 22 23  1  0
 23 24  2  0
 23 46  1  0
 24 25  1  0
 25 26  1  0
 25 32  1  0
 26 31  1  0
 26 27  2  0
 27 28  1  0
 27 47  1  0
 28 29  2  0
 28 48  1  0
 29 30  1  0
 29 49  1  0
 30 31  2  0
 30 50  1  0
 31 51  1  0
 32 52  1  0
M  CHG  1  14   1
M  END
>  <DOCK_score>  (1) 
-42.463753

>  <SMILES>  (1) 
O=C(Nc1cc(O)cc(O)c1)[C@@H]([NH2+]C1CC=CC1)c1cnn(-c2ccccc2)c1

$$$$
