CCCCc1ccc(-c2c[nH]c(Nc3ccc(Nc4ccccc4)cc3)[nH+]2)cc1
     RDKit          3D

 56 59  0  0  1  0  0  0  0  0999 V2000
  129.0346  127.4629  150.3034 C   0  0  0  0  0  0  0  0  0  0  0  0
  130.3248  128.1373  150.7741 C   0  0  0  0  0  0  0  0  0  0  0  0
  130.0341  128.9852  152.0141 C   0  0  0  0  0  0  0  0  0  0  0  0
  131.3242  129.6595  152.4847 C   0  0  0  0  0  0  0  0  0  0  0  0
  131.0378  130.4945  153.7062 C   0  0  0  0  0  0  0  0  0  0  0  0
  131.1446  129.9324  154.9656 C   0  0  0  0  0  0  0  0  0  0  0  0
  130.8835  130.6925  156.0876 C   0  0  0  0  0  0  0  0  0  0  0  0
  130.5117  132.0287  155.9500 C   0  0  0  0  0  0  0  0  0  0  0  0
  130.2293  132.8504  157.1521 C   0  0  0  0  0  0  0  0  0  0  0  0
  129.7382  132.3962  158.3321 C   0  0  0  0  0  0  0  0  0  0  0  0
  129.6355  133.4826  159.1658 N   0  0  0  0  0  0  0  0  0  0  0  0
  129.3174  133.4755  160.0822 H   0  0  0  0  0  0  0  0  0  0  0  0
  130.0598  134.5716  158.4679 C   0  0  0  0  0  0  0  0  0  0  0  0
  130.1114  135.8689  158.9501 N   0  0  0  0  0  0  0  0  0  0  0  0
  129.1970  136.2914  159.9229 C   0  0  0  0  0  0  0  0  0  0  0  0
  129.5620  137.2661  160.8424 C   0  0  0  0  0  0  0  0  0  0  0  0
  128.6586  137.6866  161.7979 C   0  0  0  0  0  0  0  0  0  0  0  0
  127.3865  137.1309  161.8431 C   0  0  0  0  0  0  0  0  0  0  0  0
  126.4706  137.5569  162.8120 N   0  0  0  0  0  0  0  0  0  0  0  0
  126.9261  138.0097  164.0524 C   0  0  0  0  0  0  0  0  0  0  0  0
  126.6459  139.3060  164.4664 C   0  0  0  0  0  0  0  0  0  0  0  0
  127.0937  139.7488  165.6954 C   0  0  0  0  0  0  0  0  0  0  0  0
  127.8288  138.9067  166.5096 C   0  0  0  0  0  0  0  0  0  0  0  0
  128.1141  137.6174  166.0984 C   0  0  0  0  0  0  0  0  0  0  0  0
  127.6655  137.1666  164.8728 C   0  0  0  0  0  0  0  0  0  0  0  0
  127.0233  136.1520  160.9270 C   0  0  0  0  0  0  0  0  0  0  0  0
  127.9270  135.7314  159.9717 C   0  0  0  0  0  0  0  0  0  0  0  0
  130.4165  134.1889  157.2660 N   0  0  0  0  0  0  0  0  0  0  0  0
  130.7601  134.7701  156.5695 H   0  0  0  0  0  0  0  0  0  0  0  0
  130.4006  132.5882  154.6783 C   0  0  0  0  0  0  0  0  0  0  0  0
  130.6696  131.8203  153.5636 C   0  0  0  0  0  0  0  0  0  0  0  0
  128.6479  126.8243  151.0975 H   0  0  0  0  0  0  0  0  0  0  0  0
  128.2953  128.2250  150.0573 H   0  0  0  0  0  0  0  0  0  0  0  0
  129.2418  126.8590  149.4199 H   0  0  0  0  0  0  0  0  0  0  0  0
  130.7117  128.7758  149.9800 H   0  0  0  0  0  0  0  0  0  0  0  0
  131.0642  127.3753  151.0202 H   0  0  0  0  0  0  0  0  0  0  0  0
  129.6472  128.3465  152.8082 H   0  0  0  0  0  0  0  0  0  0  0  0
  129.2946  129.7471  151.7680 H   0  0  0  0  0  0  0  0  0  0  0  0
  131.7110  130.2981  151.6905 H   0  0  0  0  0  0  0  0  0  0  0  0
  132.0637  128.8975  152.7308 H   0  0  0  0  0  0  0  0  0  0  0  0
  131.4325  128.8970  155.0710 H   0  0  0  0  0  0  0  0  0  0  0  0
  130.9675  130.2527  157.0704 H   0  0  0  0  0  0  0  0  0  0  0  0
  129.4809  131.3749  158.5714 H   0  0  0  0  0  0  0  0  0  0  0  0
  130.7812  136.4849  158.6141 H   0  0  0  0  0  0  0  0  0  0  0  0
  130.5512  137.6982  160.8073 H   0  0  0  0  0  0  0  0  0  0  0  0
  128.9408  138.4480  162.5100 H   0  0  0  0  0  0  0  0  0  0  0  0
  125.5196  137.5377  162.6222 H   0  0  0  0  0  0  0  0  0  0  0  0
  126.0752  139.9654  163.8291 H   0  0  0  0  0  0  0  0  0  0  0  0
  126.8732  140.7552  166.0191 H   0  0  0  0  0  0  0  0  0  0  0  0
  128.1813  139.2569  167.4684 H   0  0  0  0  0  0  0  0  0  0  0  0
  128.6889  136.9627  166.7367 H   0  0  0  0  0  0  0  0  0  0  0  0
  127.8893  136.1598  164.5521 H   0  0  0  0  0  0  0  0  0  0  0  0
  126.0341  135.7200  160.9620 H   0  0  0  0  0  0  0  0  0  0  0  0
  127.6447  134.9703  159.2593 H   0  0  0  0  0  0  0  0  0  0  0  0
  130.1088  133.6219  154.5657 H   0  0  0  0  0  0  0  0  0  0  0  0
  130.5885  132.2543  152.5779 H   0  0  0  0  0  0  0  0  0  0  0  0
  1  2  1  0
  1 32  1  0
  1 33  1  0
  1 34  1  0
  2  3  1  0
  2 35  1  0
  2 36  1  0
  3  4  1  0
  3 37  1  0
  3 38  1  0
  4  5  1  0
  4 39  1  0
  4 40  1  0
  5 31  2  0
  5  6  1  0
  6  7  2  0
  6 41  1  0
  7  8  1  0
  7 42  1  0
  8  9  1  0
  8 30  2  0
  9 28  1  0
  9 10  2  0
 10 11  1  0
 10 43  1  0
 11 12  1  0
 11 13  1  0
 13 14  1  0
 13 28  2  0
 14 15  1  0
 14 44  1  0
 15 27  1  0
 15 16  2  0
 16 17  1  0
 16 45  1  0
 17 18  2  0
 17 46  1  0
 18 19  1  0
 18 26  1  0
 19 20  1  0
 19 47  1  0
 20 25  1  0
 20 21  2  0
 21 22  1  0
 21 48  1  0
 22 23  2  0
 22 49  1  0
 23 24  1  0
 23 50  1  0
 24 25  2  0
 24 51  1  0
 25 52  1  0
 26 27  2  0
 26 53  1  0
 27 54  1  0
 28 29  1  0
 30 31  1  0
 30 55  1  0
 31 56  1  0
M  CHG  1  28   1
M  END
>  <DOCK_score>  (1) 
-50.624012

>  <SMILES>  (1) 
CCCCc1ccc(-c2c[nH]c(Nc3ccc(Nc4ccccc4)cc3)[nH+]2)cc1

$$$$
