CCc1ccc(-c2c[nH]c(N[C@@H](CNc3ccc(C)cc3)c3c(F)ccc4c3CCC4)[nH+]2)cc1
     RDKit          3D

 66 70  0  0  1  0  0  0  0  0999 V2000
  130.3229  128.5719  151.2304 C   0  0  0  0  0  0  0  0  0  0  0  0
  131.3722  129.6512  151.5036 C   0  0  0  0  0  0  0  0  0  0  0  0
  131.1029  130.2861  152.8436 C   0  0  0  0  0  0  0  0  0  0  0  0
  131.6827  129.7605  153.9836 C   0  0  0  0  0  0  0  0  0  0  0  0
  131.4443  130.3410  155.2128 C   0  0  0  0  0  0  0  0  0  0  0  0
  130.6082  131.4523  155.3052 C   0  0  0  0  0  0  0  0  0  0  0  0
  130.3437  132.0773  156.6242 C   0  0  0  0  0  0  0  0  0  0  0  0
  129.7826  131.4680  157.6979 C   0  0  0  0  0  0  0  0  0  0  0  0
  129.7237  132.4040  158.7017 N   0  0  0  0  0  0  0  0  0  0  0  0
  129.3711  132.2670  159.5949 H   0  0  0  0  0  0  0  0  0  0  0  0
  130.2511  133.5589  158.2116 C   0  0  0  0  0  0  0  0  0  0  0  0
  130.3766  134.7479  158.9094 N   0  0  0  0  0  0  0  0  0  0  0  0
  129.4153  135.0842  159.9625 C   0  0  1  0  0  0  0  0  0  0  0  0
  129.4441  134.3192  160.7384 H   0  0  0  0  0  0  0  0  0  0  0  0
  129.7781  136.4407  160.5700 C   0  0  0  0  0  0  0  0  0  0  0  0
  131.1255  136.3753  161.1414 N   0  0  0  0  0  0  0  0  0  0  0  0
  131.6786  137.5008  161.7563 C   0  0  0  0  0  0  0  0  0  0  0  0
  132.9538  137.4389  162.3036 C   0  0  0  0  0  0  0  0  0  0  0  0
  133.4996  138.5551  162.9066 C   0  0  0  0  0  0  0  0  0  0  0  0
  132.7741  139.7303  162.9752 C   0  0  0  0  0  0  0  0  0  0  0  0
  133.3708  140.9447  163.6387 C   0  0  0  0  0  0  0  0  0  0  0  0
  131.5023  139.7939  162.4360 C   0  0  0  0  0  0  0  0  0  0  0  0
  130.9525  138.6829  161.8269 C   0  0  0  0  0  0  0  0  0  0  0  0
  128.0293  135.1515  159.3747 C   0  0  0  0  0  0  0  0  0  0  0  0
  127.8575  135.5292  158.0546 C   0  0  0  0  0  0  0  0  0  0  0  0
  128.9305  135.8369  157.2937 F   0  0  0  0  0  0  0  0  0  0  0  0
  126.5841  135.5909  157.5152 C   0  0  0  0  0  0  0  0  0  0  0  0
  125.4895  135.2751  158.2957 C   0  0  0  0  0  0  0  0  0  0  0  0
  125.6605  134.8965  159.6167 C   0  0  0  0  0  0  0  0  0  0  0  0
  126.9323  134.8297  160.1551 C   0  0  0  0  0  0  0  0  0  0  0  0
  126.8533  134.3890  161.6011 C   0  0  0  0  0  0  0  0  0  0  0  0
  125.4485  133.7692  161.7582 C   0  0  0  0  0  0  0  0  0  0  0  0
  124.6404  134.5065  160.6649 C   0  0  0  0  0  0  0  0  0  0  0  0
  130.6258  133.3581  156.9717 N   0  0  0  0  0  0  0  0  0  0  0  0
  131.0368  134.0201  156.3941 H   0  0  0  0  0  0  0  0  0  0  0  0
  130.0220  131.9746  154.1536 C   0  0  0  0  0  0  0  0  0  0  0  0
  130.2721  131.3893  152.9290 C   0  0  0  0  0  0  0  0  0  0  0  0
  129.3303  129.0222  151.2264 H   0  0  0  0  0  0  0  0  0  0  0  0
  130.5176  128.1128  150.2612 H   0  0  0  0  0  0  0  0  0  0  0  0
  130.3736  127.8112  152.0094 H   0  0  0  0  0  0  0  0  0  0  0  0
  132.3644  129.2015  151.5072 H   0  0  0  0  0  0  0  0  0  0  0  0
  131.3212  130.4125  150.7241 H   0  0  0  0  0  0  0  0  0  0  0  0
  132.3265  128.8964  153.9115 H   0  0  0  0  0  0  0  0  0  0  0  0
  131.9012  129.9324  156.1020 H   0  0  0  0  0  0  0  0  0  0  0  0
  129.4461  130.4433  157.7531 H   0  0  0  0  0  0  0  0  0  0  0  0
  131.1011  135.3583  158.7011 H   0  0  0  0  0  0  0  0  0  0  0  0
  129.7492  137.2057  159.7941 H   0  0  0  0  0  0  0  0  0  0  0  0
  129.0629  136.6909  161.3536 H   0  0  0  0  0  0  0  0  0  0  0  0
  131.6334  135.5504  161.0926 H   0  0  0  0  0  0  0  0  0  0  0  0
  133.5194  136.5202  162.2543 H   0  0  0  0  0  0  0  0  0  0  0  0
  134.4926  138.5089  163.3287 H   0  0  0  0  0  0  0  0  0  0  0  0
  133.1181  140.9405  164.6989 H   0  0  0  0  0  0  0  0  0  0  0  0
  134.4545  140.9260  163.5234 H   0  0  0  0  0  0  0  0  0  0  0  0
  132.9715  141.8459  163.1735 H   0  0  0  0  0  0  0  0  0  0  0  0
  130.9382  140.7131  162.4915 H   0  0  0  0  0  0  0  0  0  0  0  0
  129.9594  138.7333  161.4056 H   0  0  0  0  0  0  0  0  0  0  0  0
  126.4468  135.8857  156.4853 H   0  0  0  0  0  0  0  0  0  0  0  0
  124.4962  135.3233  157.8743 H   0  0  0  0  0  0  0  0  0  0  0  0
  127.6209  133.6444  161.8121 H   0  0  0  0  0  0  0  0  0  0  0  0
  126.9646  135.2466  162.2646 H   0  0  0  0  0  0  0  0  0  0  0  0
  125.4755  132.6957  161.5720 H   0  0  0  0  0  0  0  0  0  0  0  0
  125.0408  133.9791  162.7471 H   0  0  0  0  0  0  0  0  0  0  0  0
  124.1586  135.3951  161.0727 H   0  0  0  0  0  0  0  0  0  0  0  0
  123.8963  133.8347  160.2370 H   0  0  0  0  0  0  0  0  0  0  0  0
  129.3732  132.8355  154.2194 H   0  0  0  0  0  0  0  0  0  0  0  0
  129.8182  131.7930  152.0359 H   0  0  0  0  0  0  0  0  0  0  0  0
  1  2  1  0
  1 38  1  0
  1 39  1  0
  1 40  1  0
  2  3  1  0
  2 41  1  0
  2 42  1  0
  3 37  2  0
  3  4  1  0
  4  5  2  0
  4 43  1  0
  5  6  1  0
  5 44  1  0
  6  7  1  0
  6 36  2  0
  7 34  1  0
  7  8  2  0
  8  9  1  0
  8 45  1  0
  9 10  1  0
  9 11  1  0
 11 12  1  0
 11 34  2  0
 12 13  1  0
 12 46  1  0
 13 14  1  1
 13 15  1  0
 13 24  1  0
 15 16  1  0
 15 47  1  0
 15 48  1  0
 16 17  1  0
 16 49  1  0
 17 23  1  0
 17 18  2  0
 18 19  1  0
 18 50  1  0
 19 20  2  0
 19 51  1  0
 20 21  1  0
 20 22  1  0
 21 52  1  0
 21 53  1  0
 21 54  1  0
 22 23  2  0
 22 55  1  0
 23 56  1  0
 24 30  1  0
 24 25  2  0
 25 26  1  0
 25 27  1  0
 27 28  2  0
 27 57  1  0
 28 29  1  0
 28 58  1  0
 29 33  1  0
 29 30  2  0
 30 31  1  0
 31 32  1  0
 31 59  1  0
 31 60  1  0
 32 33  1  0
 32 61  1  0
 32 62  1  0
 33 63  1  0
 33 64  1  0
 34 35  1  0
 36 37  1  0
 36 65  1  0
 37 66  1  0
M  CHG  1  34   1
M  END
>  <DOCK_score>  (1) 
-61.505306

>  <SMILES>  (1) 
CCc1ccc(-c2c[nH]c(N[C@@H](CNc3ccc(C)cc3)c3c(F)ccc4c3CCC4)[nH+]2)cc1

$$$$
