NC(=O)C[NH2+][C@@H]1CCCc2sc(C3(O)C=C(c4ccccc4)CC3)cc21
     RDKit          3D

 51 54  0  0  1  0  0  0  0  0999 V2000
  133.5790  137.2077  159.6867 N   0  0  0  0  0  0  0  0  0  0  0  0
  133.4327  136.3735  160.7349 C   0  0  0  0  0  0  0  0  0  0  0  0
  133.7310  136.7436  161.8507 O   0  0  0  0  0  0  0  0  0  0  0  0
  132.8985  134.9807  160.5208 C   0  0  0  0  0  0  0  0  0  0  0  0
  131.5526  135.0566  159.9374 N   0  0  0  0  0  0  0  0  0  0  0  0
  131.5963  135.5397  159.0526 H   0  0  0  0  0  0  0  0  0  0  0  0
  130.9419  135.5582  160.5647 H   0  0  0  0  0  0  0  0  0  0  0  0
  131.0320  133.6989  159.7286 C   0  0  2  0  0  0  0  0  0  0  0  0
  131.3064  133.0685  160.5744 H   0  0  0  0  0  0  0  0  0  0  0  0
  131.6208  133.1162  158.4425 C   0  0  0  0  0  0  0  0  0  0  0  0
  130.9116  131.7994  158.1124 C   0  0  0  0  0  0  0  0  0  0  0  0
  129.4791  132.1043  157.6640 C   0  0  0  0  0  0  0  0  0  0  0  0
  128.8408  133.0319  158.6762 C   0  0  0  0  0  0  0  0  0  0  0  0
  127.1159  133.3390  158.8247 S   0  0  0  0  0  0  0  0  0  0  0  0
  127.3942  134.4464  160.1604 C   0  0  0  0  0  0  0  0  0  0  0  0
  126.3200  135.1944  160.9073 C   0  0  2  0  0  0  0  0  0  0  0  0
  125.2327  135.5085  160.0347 O   0  0  0  0  0  0  0  0  0  0  0  0
  126.8810  136.4582  161.5168 C   0  0  0  0  0  0  0  0  0  0  0  0
  126.4670  136.6026  162.7636 C   0  0  0  0  0  0  0  0  0  0  0  0
  126.8346  137.7314  163.6442 C   0  0  0  0  0  0  0  0  0  0  0  0
  125.8441  138.5634  164.1673 C   0  0  0  0  0  0  0  0  0  0  0  0
  126.1940  139.6151  164.9891 C   0  0  0  0  0  0  0  0  0  0  0  0
  127.5237  139.8460  165.2939 C   0  0  0  0  0  0  0  0  0  0  0  0
  128.5103  139.0246  164.7789 C   0  0  0  0  0  0  0  0  0  0  0  0
  128.1737  137.9693  163.9563 C   0  0  0  0  0  0  0  0  0  0  0  0
  125.5618  135.4612  163.1649 C   0  0  0  0  0  0  0  0  0  0  0  0
  125.8213  134.3612  162.1102 C   0  0  0  0  0  0  0  0  0  0  0  0
  128.6976  134.5278  160.4074 C   0  0  0  0  0  0  0  0  0  0  0  0
  129.5157  133.7452  159.5973 C   0  0  0  0  0  0  0  0  0  0  0  0
  133.3403  136.9117  158.7942 H   0  0  0  0  0  0  0  0  0  0  0  0
  133.9228  138.1042  159.8245 H   0  0  0  0  0  0  0  0  0  0  0  0
  132.8513  134.4588  161.4767 H   0  0  0  0  0  0  0  0  0  0  0  0
  133.5583  134.4388  159.8432 H   0  0  0  0  0  0  0  0  0  0  0  0
  132.6859  132.9309  158.5812 H   0  0  0  0  0  0  0  0  0  0  0  0
  131.4772  133.8218  157.6243 H   0  0  0  0  0  0  0  0  0  0  0  0
  130.8893  131.1649  158.9984 H   0  0  0  0  0  0  0  0  0  0  0  0
  131.4443  131.2894  157.3098 H   0  0  0  0  0  0  0  0  0  0  0  0
  128.9087  131.1772  157.6070 H   0  0  0  0  0  0  0  0  0  0  0  0
  129.4967  132.5863  156.6865 H   0  0  0  0  0  0  0  0  0  0  0  0
  124.5277  136.0209  160.4536 H   0  0  0  0  0  0  0  0  0  0  0  0
  127.5335  137.1490  161.0036 H   0  0  0  0  0  0  0  0  0  0  0  0
  124.8059  138.3848  163.9292 H   0  0  0  0  0  0  0  0  0  0  0  0
  125.4283  140.2598  165.3946 H   0  0  0  0  0  0  0  0  0  0  0  0
  127.7924  140.6732  165.9341 H   0  0  0  0  0  0  0  0  0  0  0  0
  129.5462  139.2101  165.0207 H   0  0  0  0  0  0  0  0  0  0  0  0
  128.9449  137.3287  163.5549 H   0  0  0  0  0  0  0  0  0  0  0  0
  125.8231  135.1016  164.1602 H   0  0  0  0  0  0  0  0  0  0  0  0
  124.5188  135.7765  163.1380 H   0  0  0  0  0  0  0  0  0  0  0  0
  126.5902  133.6675  162.4503 H   0  0  0  0  0  0  0  0  0  0  0  0
  124.9010  133.8316  161.8637 H   0  0  0  0  0  0  0  0  0  0  0  0
  129.0962  135.1580  161.1887 H   0  0  0  0  0  0  0  0  0  0  0  0
  1  2  1  0
  1 30  1  0
  1 31  1  0
  2  3  2  0
  2  4  1  0
  4  5  1  0
  4 32  1  0
  4 33  1  0
  5  6  1  0
  5  7  1  0
  5  8  1  0
  8  9  1  1
  8 29  1  0
  8 10  1  0
 10 11  1  0
 10 34  1  0
 10 35  1  0
 11 12  1  0
 11 36  1  0
 11 37  1  0
 12 13  1  0
 12 38  1  0
 12 39  1  0
 13 29  2  0
 13 14  1  0
 14 15  1  0
 15 16  1  0
 15 28  2  0
 16 27  1  0
 16 17  1  6
 16 18  1  0
 17 40  1  0
 18 19  2  0
 18 41  1  0
 19 20  1  0
 19 26  1  0
 20 25  1  0
 20 21  2  0
 21 22  1  0
 21 42  1  0
 22 23  2  0
 22 43  1  0
 23 24  1  0
 23 44  1  0
 24 25  2  0
 24 45  1  0
 25 46  1  0
 26 27  1  0
 26 47  1  0
 26 48  1  0
 27 49  1  0
 27 50  1  0
 28 29  1  0
 28 51  1  0
M  CHG  1   5   1
M  END
>  <DOCK_score>  (1) 
-41.142708

>  <SMILES>  (1) 
NC(=O)C[NH2+][C@@H]1CCCc2sc(C3(O)C=C(c4ccccc4)CC3)cc21

$$$$
