O=C1CCC(NC(NC2CC2)=[NH+][C@H]2COc3ccc(F)cc3C2)CN1
     RDKit          3D

 49 52  0  0  1  0  0  0  0  0999 V2000
  123.7059  133.7852  161.5451 O   0  0  0  0  0  0  0  0  0  0  0  0
  124.8728  133.9491  161.2581 C   0  0  0  0  0  0  0  0  0  0  0  0
  125.6323  132.7896  160.6804 C   0  0  0  0  0  0  0  0  0  0  0  0
  127.1374  133.0438  160.7948 C   0  0  0  0  0  0  0  0  0  0  0  0
  127.4327  134.4522  160.2652 C   0  0  2  0  0  0  0  0  0  0  0  0
  128.8816  134.6590  160.2001 N   0  0  0  0  0  0  0  0  0  0  0  0
  129.5716  134.3352  159.0559 C   0  0  0  0  0  0  0  0  0  0  0  0
  128.9019  133.8173  157.9728 N   0  0  0  0  0  0  0  0  0  0  0  0
  129.6369  133.4721  156.7534 C   0  0  0  0  0  0  0  0  0  0  0  0
  129.4255  132.0722  156.1733 C   0  0  0  0  0  0  0  0  0  0  0  0
  130.7434  132.4218  156.8690 C   0  0  0  0  0  0  0  0  0  0  0  0
  130.8606  134.5192  158.9982 N   0  0  0  0  0  0  0  0  0  0  0  0
  131.2844  134.7189  158.1489 H   0  0  0  0  0  0  0  0  0  0  0  0
  131.6693  134.4242  160.2160 C   0  0  1  0  0  0  0  0  0  0  0  0
  131.2083  133.7208  160.9092 H   0  0  0  0  0  0  0  0  0  0  0  0
  133.0842  133.9489  159.8616 C   0  0  0  0  0  0  0  0  0  0  0  0
  133.8155  133.7667  161.0746 O   0  0  0  0  0  0  0  0  0  0  0  0
  133.7912  134.7726  161.9882 C   0  0  0  0  0  0  0  0  0  0  0  0
  134.7583  134.7837  162.9883 C   0  0  0  0  0  0  0  0  0  0  0  0
  134.7646  135.7843  163.9381 C   0  0  0  0  0  0  0  0  0  0  0  0
  133.8046  136.7815  163.8976 C   0  0  0  0  0  0  0  0  0  0  0  0
  133.8077  137.7614  164.8275 F   0  0  0  0  0  0  0  0  0  0  0  0
  132.8429  136.7733  162.9039 C   0  0  0  0  0  0  0  0  0  0  0  0
  132.8315  135.7684  161.9505 C   0  0  0  0  0  0  0  0  0  0  0  0
  131.7762  135.8022  160.8743 C   0  0  0  0  0  0  0  0  0  0  0  0
  126.8108  135.4740  161.2178 C   0  0  0  0  0  0  0  0  0  0  0  0
  125.4127  135.1496  161.4720 N   0  0  0  0  0  0  0  0  0  0  0  0
  125.3644  132.6681  159.6308 H   0  0  0  0  0  0  0  0  0  0  0  0
  125.3760  131.8812  161.2256 H   0  0  0  0  0  0  0  0  0  0  0  0
  127.6801  132.3074  160.2021 H   0  0  0  0  0  0  0  0  0  0  0  0
  127.4432  132.9727  161.8387 H   0  0  0  0  0  0  0  0  0  0  0  0
  127.0020  134.5666  159.2705 H   0  0  0  0  0  0  0  0  0  0  0  0
  129.3541  135.0246  160.9644 H   0  0  0  0  0  0  0  0  0  0  0  0
  127.9426  133.6803  158.0158 H   0  0  0  0  0  0  0  0  0  0  0  0
  129.7914  134.2905  156.0500 H   0  0  0  0  0  0  0  0  0  0  0  0
  128.7394  131.4081  156.6988 H   0  0  0  0  0  0  0  0  0  0  0  0
  129.4411  131.9696  155.0883 H   0  0  0  0  0  0  0  0  0  0  0  0
  131.6255  132.5488  156.2415 H   0  0  0  0  0  0  0  0  0  0  0  0
  130.9246  131.9878  157.8524 H   0  0  0  0  0  0  0  0  0  0  0  0
  133.5790  134.6979  159.2435 H   0  0  0  0  0  0  0  0  0  0  0  0
  133.0297  133.0043  159.3203 H   0  0  0  0  0  0  0  0  0  0  0  0
  135.5068  134.0058  163.0215 H   0  0  0  0  0  0  0  0  0  0  0  0
  135.5172  135.7898  164.7127 H   0  0  0  0  0  0  0  0  0  0  0  0
  132.0945  137.5514  162.8736 H   0  0  0  0  0  0  0  0  0  0  0  0
  132.0438  136.5438  160.1216 H   0  0  0  0  0  0  0  0  0  0  0  0
  130.8172  136.0669  161.3193 H   0  0  0  0  0  0  0  0  0  0  0  0
  127.3590  135.4684  162.1600 H   0  0  0  0  0  0  0  0  0  0  0  0
  126.8751  136.4670  160.7731 H   0  0  0  0  0  0  0  0  0  0  0  0
  124.8391  135.8508  161.8184 H   0  0  0  0  0  0  0  0  0  0  0  0
  1  2  2  0
  2 27  1  0
  2  3  1  0
  3  4  1  0
  3 28  1  0
  3 29  1  0
  4  5  1  0
  4 30  1  0
  4 31  1  0
  5  6  1  0
  5 26  1  0
  5 32  1  6
  6 33  1  0
  7  6  1  0
  7  8  1  0
  7 12  2  0
  8  9  1  0
  8 34  1  0
  9 11  1  0
  9 10  1  0
  9 35  1  0
 10 11  1  0
 10 36  1  0
 10 37  1  0
 11 38  1  0
 11 39  1  0
 12 13  1  0
 12 14  1  0
 14 15  1  1
 14 25  1  0
 14 16  1  0
 16 17  1  0
 16 40  1  0
 16 41  1  0
 17 18  1  0
 18 24  2  0
 18 19  1  0
 19 20  2  0
 19 42  1  0
 20 21  1  0
 20 43  1  0
 21 22  1  0
 21 23  2  0
 23 24  1  0
 23 44  1  0
 24 25  1  0
 25 45  1  0
 25 46  1  0
 26 27  1  0
 26 47  1  0
 26 48  1  0
 27 49  1  0
M  CHG  1  12   1
M  END
>  <DOCK_score>  (1) 
-46.949585

>  <SMILES>  (1) 
O=C1CCC(NC(NC2CC2)=[NH+][C@H]2COc3ccc(F)cc3C2)CN1

$$$$
