N#Cc1ccc(Sc2cccc(Cl)c2)c(Nc2[nH]cc(-c3ccccc3)[nH+]2)c1
     RDKit          3D

 44 47  0  0  1  0  0  0  0  0999 V2000
  126.6925  133.3634  162.3394 N   0  0  0  0  0  0  0  0  0  0  0  0
  127.7360  133.6214  161.9718 C   0  0  0  0  0  0  0  0  0  0  0  0
  129.0513  133.9465  161.5082 C   0  0  0  0  0  0  0  0  0  0  0  0
  130.0630  134.2454  162.4258 C   0  0  0  0  0  0  0  0  0  0  0  0
  131.3281  134.5582  161.9802 C   0  0  0  0  0  0  0  0  0  0  0  0
  131.6021  134.5834  160.6173 C   0  0  0  0  0  0  0  0  0  0  0  0
  133.2208  134.9907  160.0527 S   0  0  0  0  0  0  0  0  0  0  0  0
  133.4651  136.6156  160.6887 C   0  0  0  0  0  0  0  0  0  0  0  0
  134.5146  136.8707  161.5638 C   0  0  0  0  0  0  0  0  0  0  0  0
  134.7070  138.1461  162.0560 C   0  0  0  0  0  0  0  0  0  0  0  0
  133.8502  139.1679  161.6887 C   0  0  0  0  0  0  0  0  0  0  0  0
  132.8006  138.9170  160.8221 C   0  0  0  0  0  0  0  0  0  0  0  0
  131.7282  140.2029  160.3635 Cl  0  0  0  0  0  0  0  0  0  0  0  0
  132.6058  137.6436  160.3211 C   0  0  0  0  0  0  0  0  0  0  0  0
  130.5966  134.2808  159.6944 C   0  0  0  0  0  0  0  0  0  0  0  0
  130.8755  134.3013  158.3223 N   0  0  0  0  0  0  0  0  0  0  0  0
  130.7122  133.1533  157.5652 C   0  0  0  0  0  0  0  0  0  0  0  0
  130.2946  131.9459  158.0354 N   0  0  0  0  0  0  0  0  0  0  0  0
  130.0601  131.7366  158.9532 H   0  0  0  0  0  0  0  0  0  0  0  0
  130.2643  131.0796  156.9703 C   0  0  0  0  0  0  0  0  0  0  0  0
  130.6720  131.7790  155.8821 C   0  0  0  0  0  0  0  0  0  0  0  0
  130.8024  131.2494  154.5027 C   0  0  0  0  0  0  0  0  0  0  0  0
  130.0559  131.8066  153.4660 C   0  0  0  0  0  0  0  0  0  0  0  0
  130.1853  131.3133  152.1837 C   0  0  0  0  0  0  0  0  0  0  0  0
  131.0450  130.2607  151.9282 C   0  0  0  0  0  0  0  0  0  0  0  0
  131.7846  129.6998  152.9543 C   0  0  0  0  0  0  0  0  0  0  0  0
  131.6676  130.1888  154.2395 C   0  0  0  0  0  0  0  0  0  0  0  0
  130.9397  133.0482  156.2785 N   0  0  0  0  0  0  0  0  0  0  0  0
  131.2502  133.7638  155.7019 H   0  0  0  0  0  0  0  0  0  0  0  0
  129.3256  133.9659  160.1374 C   0  0  0  0  0  0  0  0  0  0  0  0
  129.8523  134.2308  163.4850 H   0  0  0  0  0  0  0  0  0  0  0  0
  132.1080  134.7888  162.6908 H   0  0  0  0  0  0  0  0  0  0  0  0
  135.1814  136.0727  161.8551 H   0  0  0  0  0  0  0  0  0  0  0  0
  135.5249  138.3453  162.7327 H   0  0  0  0  0  0  0  0  0  0  0  0
  134.0007  140.1637  162.0786 H   0  0  0  0  0  0  0  0  0  0  0  0
  131.7868  137.4481  159.6447 H   0  0  0  0  0  0  0  0  0  0  0  0
  131.1830  135.1198  157.9020 H   0  0  0  0  0  0  0  0  0  0  0  0
  129.9749  130.0393  156.9952 H   0  0  0  0  0  0  0  0  0  0  0  0
  129.3810  132.6258  153.6650 H   0  0  0  0  0  0  0  0  0  0  0  0
  129.6107  131.7471  151.3788 H   0  0  0  0  0  0  0  0  0  0  0  0
  131.1396  129.8750  150.9238 H   0  0  0  0  0  0  0  0  0  0  0  0
  132.4551  128.8782  152.7492 H   0  0  0  0  0  0  0  0  0  0  0  0
  132.2457  129.7508  155.0398 H   0  0  0  0  0  0  0  0  0  0  0  0
  128.5463  133.7351  159.4261 H   0  0  0  0  0  0  0  0  0  0  0  0
  1  2  3  0
  2  3  1  0
  3 30  2  0
  3  4  1  0
  4  5  2  0
  4 31  1  0
  5  6  1  0
  5 32  1  0
  6  7  1  0
  6 15  2  0
  7  8  1  0
  8 14  1  0
  8  9  2  0
  9 10  1  0
  9 33  1  0
 10 11  2  0
 10 34  1  0
 11 12  1  0
 11 35  1  0
 12 13  1  0
 12 14  2  0
 14 36  1  0
 15 16  1  0
 15 30  1  0
 16 37  1  0
 17 16  1  0
 17 28  2  0
 17 18  1  0
 18 19  1  0
 18 20  1  0
 20 21  2  0
 20 38  1  0
 21 22  1  0
 21 28  1  0
 22 27  1  0
 22 23  2  0
 23 24  1  0
 23 39  1  0
 24 25  2  0
 24 40  1  0
 25 26  1  0
 25 41  1  0
 26 27  2  0
 26 42  1  0
 27 43  1  0
 28 29  1  0
 30 44  1  0
M  CHG  1  28   1
M  END
>  <DOCK_score>  (1) 
-57.992897

>  <SMILES>  (1) 
N#Cc1ccc(Sc2cccc(Cl)c2)c(Nc2[nH]cc(-c3ccccc3)[nH+]2)c1

$$$$
