Clc1ccc([C@H](Nc2[nH]cc(-c3cccnc3)[nH+]2)c2ccccc2)cc1
     RDKit          3D

 44 47  0  0  1  0  0  0  0  0999 V2000
  131.0844  141.1610  161.7547 Cl  0  0  0  0  0  0  0  0  0  0  0  0
  130.6712  139.5450  161.2736 C   0  0  0  0  0  0  0  0  0  0  0  0
  130.4298  138.5776  162.2328 C   0  0  0  0  0  0  0  0  0  0  0  0
  130.0944  137.2928  161.8491 C   0  0  0  0  0  0  0  0  0  0  0  0
  130.0124  136.9711  160.5072 C   0  0  0  0  0  0  0  0  0  0  0  0
  129.6531  135.5685  160.0895 C   0  0  2  0  0  0  0  0  0  0  0  0
  130.0030  134.8638  160.8439 H   0  0  0  0  0  0  0  0  0  0  0  0
  130.2878  135.2638  158.8047 N   0  0  0  0  0  0  0  0  0  0  0  0
  130.1008  134.0244  158.2170 C   0  0  0  0  0  0  0  0  0  0  0  0
  129.3588  133.0065  158.7323 N   0  0  0  0  0  0  0  0  0  0  0  0
  128.8700  133.0188  159.5701 H   0  0  0  0  0  0  0  0  0  0  0  0
  129.4273  131.9596  157.8455 C   0  0  0  0  0  0  0  0  0  0  0  0
  130.2155  132.3643  156.8190 C   0  0  0  0  0  0  0  0  0  0  0  0
  130.5784  131.5593  155.6271 C   0  0  0  0  0  0  0  0  0  0  0  0
  130.2337  131.9945  154.3441 C   0  0  0  0  0  0  0  0  0  0  0  0
  130.6006  131.2103  153.2644 C   0  0  0  0  0  0  0  0  0  0  0  0
  131.2800  130.0262  153.4878 C   0  0  0  0  0  0  0  0  0  0  0  0
  131.5869  129.6387  154.7105 N   0  0  0  0  0  0  0  0  0  0  0  0
  131.2635  130.3541  155.7684 C   0  0  0  0  0  0  0  0  0  0  0  0
  130.6137  133.6358  157.0752 N   0  0  0  0  0  0  0  0  0  0  0  0
  131.1862  134.1717  156.5043 H   0  0  0  0  0  0  0  0  0  0  0  0
  128.1569  135.4535  159.9503 C   0  0  0  0  0  0  0  0  0  0  0  0
  127.3890  135.0739  161.0353 C   0  0  0  0  0  0  0  0  0  0  0  0
  126.0162  134.9728  160.9090 C   0  0  0  0  0  0  0  0  0  0  0  0
  125.4121  135.2425  159.6953 C   0  0  0  0  0  0  0  0  0  0  0  0
  126.1805  135.6170  158.6088 C   0  0  0  0  0  0  0  0  0  0  0  0
  127.5529  135.7223  158.7363 C   0  0  0  0  0  0  0  0  0  0  0  0
  130.2594  137.9357  159.5482 C   0  0  0  0  0  0  0  0  0  0  0  0
  130.5885  139.2225  159.9306 C   0  0  0  0  0  0  0  0  0  0  0  0
  130.4987  138.8276  163.2812 H   0  0  0  0  0  0  0  0  0  0  0  0
  129.9010  136.5390  162.5979 H   0  0  0  0  0  0  0  0  0  0  0  0
  130.8391  135.9304  158.3660 H   0  0  0  0  0  0  0  0  0  0  0  0
  128.9486  130.9969  157.9483 H   0  0  0  0  0  0  0  0  0  0  0  0
  129.6987  132.9213  154.1989 H   0  0  0  0  0  0  0  0  0  0  0  0
  130.3553  131.5173  152.2584 H   0  0  0  0  0  0  0  0  0  0  0  0
  131.5638  129.4097  152.6478 H   0  0  0  0  0  0  0  0  0  0  0  0
  131.5322  130.0036  156.7541 H   0  0  0  0  0  0  0  0  0  0  0  0
  127.8614  134.8597  161.9827 H   0  0  0  0  0  0  0  0  0  0  0  0
  125.4158  134.6806  161.7579 H   0  0  0  0  0  0  0  0  0  0  0  0
  124.3398  135.1609  159.5959 H   0  0  0  0  0  0  0  0  0  0  0  0
  125.7085  135.8276  157.6605 H   0  0  0  0  0  0  0  0  0  0  0  0
  128.1532  136.0149  157.8876 H   0  0  0  0  0  0  0  0  0  0  0  0
  130.1948  137.6839  158.4999 H   0  0  0  0  0  0  0  0  0  0  0  0
  130.7807  139.9763  159.1814 H   0  0  0  0  0  0  0  0  0  0  0  0
  1  2  1  0
  2 29  2  0
  2  3  1  0
  3  4  2  0
  3 30  1  0
  4  5  1  0
  4 31  1  0
  5  6  1  0
  5 28  2  0
  6  7  1  1
  6  8  1  0
  6 22  1  0
  8 32  1  0
  9  8  1  0
  9 20  2  0
  9 10  1  0
 10 11  1  0
 10 12  1  0
 12 13  2  0
 12 33  1  0
 13 14  1  0
 13 20  1  0
 14 19  1  0
 14 15  2  0
 15 16  1  0
 15 34  1  0
 16 17  2  0
 16 35  1  0
 17 18  1  0
 17 36  1  0
 18 19  2  0
 19 37  1  0
 20 21  1  0
 22 27  1  0
 22 23  2  0
 23 24  1  0
 23 38  1  0
 24 25  2  0
 24 39  1  0
 25 26  1  0
 25 40  1  0
 26 27  2  0
 26 41  1  0
 27 42  1  0
 28 29  1  0
 28 43  1  0
 29 44  1  0
M  CHG  1  20   1
M  END
>  <DOCK_score>  (1) 
-58.955391

>  <SMILES>  (1) 
Clc1ccc([C@H](Nc2[nH]cc(-c3cccnc3)[nH+]2)c2ccccc2)cc1

$$$$
