CCc1ccc(-c2c[nH]c(N[C@H](Cc3ccccn3)C[C@@H]3CC=CCC3)[nH+]2)cc1
     RDKit          3D

 60 63  0  0  1  0  0  0  0  0999 V2000
  130.3501  129.0873  151.8419 C   0  0  0  0  0  0  0  0  0  0  0  0
  131.6465  129.7205  152.3525 C   0  0  0  0  0  0  0  0  0  0  0  0
  131.3702  130.4693  153.6309 C   0  0  0  0  0  0  0  0  0  0  0  0
  131.4786  129.8188  154.8475 C   0  0  0  0  0  0  0  0  0  0  0  0
  131.2272  130.4995  156.0214 C   0  0  0  0  0  0  0  0  0  0  0  0
  130.8629  131.8441  155.9797 C   0  0  0  0  0  0  0  0  0  0  0  0
  130.5909  132.5811  157.2380 C   0  0  0  0  0  0  0  0  0  0  0  0
  130.1019  132.0482  158.3852 C   0  0  0  0  0  0  0  0  0  0  0  0
  130.0045  133.0753  159.2921 N   0  0  0  0  0  0  0  0  0  0  0  0
  129.6863  133.0067  160.2058 H   0  0  0  0  0  0  0  0  0  0  0  0
  130.4372  134.2069  158.6720 C   0  0  0  0  0  0  0  0  0  0  0  0
  130.5030  135.4655  159.2449 N   0  0  0  0  0  0  0  0  0  0  0  0
  130.0847  135.6600  160.6354 C   0  0  2  0  0  0  0  0  0  0  0  0
  130.4243  134.8179  161.2382 H   0  0  0  0  0  0  0  0  0  0  0  0
  128.5588  135.7519  160.7008 C   0  0  0  0  0  0  0  0  0  0  0  0
  127.9696  134.3660  160.6488 C   0  0  0  0  0  0  0  0  0  0  0  0
  127.7550  133.6704  161.8239 C   0  0  0  0  0  0  0  0  0  0  0  0
  127.2068  132.3983  161.7654 C   0  0  0  0  0  0  0  0  0  0  0  0
  126.9042  131.8667  160.5209 C   0  0  0  0  0  0  0  0  0  0  0  0
  127.1521  132.6192  159.3888 C   0  0  0  0  0  0  0  0  0  0  0  0
  127.6695  133.8288  159.4826 N   0  0  0  0  0  0  0  0  0  0  0  0
  130.6971  136.9539  161.1758 C   0  0  0  0  0  0  0  0  0  0  0  0
  132.2229  136.8620  161.1104 C   0  0  2  0  0  0  0  0  0  0  0  0
  132.5373  136.7172  160.0767 H   0  0  0  0  0  0  0  0  0  0  0  0
  132.7047  135.6870  161.9640 C   0  0  0  0  0  0  0  0  0  0  0  0
  134.1958  135.7421  162.1249 C   0  0  0  0  0  0  0  0  0  0  0  0
  134.9116  136.7956  161.8946 C   0  0  0  0  0  0  0  0  0  0  0  0
  134.3519  138.1062  161.4243 C   0  0  0  0  0  0  0  0  0  0  0  0
  132.8414  138.1511  161.6660 C   0  0  0  0  0  0  0  0  0  0  0  0
  130.7868  133.9075  157.4448 N   0  0  0  0  0  0  0  0  0  0  0  0
  131.1309  134.5343  156.7892 H   0  0  0  0  0  0  0  0  0  0  0  0
  130.7495  132.4923  154.7511 C   0  0  0  0  0  0  0  0  0  0  0  0
  131.0085  131.8030  153.5838 C   0  0  0  0  0  0  0  0  0  0  0  0
  129.9631  128.3966  152.5910 H   0  0  0  0  0  0  0  0  0  0  0  0
  129.6139  129.8688  151.6534 H   0  0  0  0  0  0  0  0  0  0  0  0
  130.5499  128.5459  150.9172 H   0  0  0  0  0  0  0  0  0  0  0  0
  132.0331  130.4107  151.6036 H   0  0  0  0  0  0  0  0  0  0  0  0
  132.3822  128.9386  152.5412 H   0  0  0  0  0  0  0  0  0  0  0  0
  131.7613  128.7769  154.8785 H   0  0  0  0  0  0  0  0  0  0  0  0
  131.3122  129.9911  156.9704 H   0  0  0  0  0  0  0  0  0  0  0  0
  129.8392  131.0142  158.5534 H   0  0  0  0  0  0  0  0  0  0  0  0
  130.8261  136.2184  158.7257 H   0  0  0  0  0  0  0  0  0  0  0  0
  128.2637  136.2376  161.6309 H   0  0  0  0  0  0  0  0  0  0  0  0
  128.1933  136.3341  159.8549 H   0  0  0  0  0  0  0  0  0  0  0  0
  128.0073  134.1138  162.7757 H   0  0  0  0  0  0  0  0  0  0  0  0
  127.0242  131.8330  162.6673 H   0  0  0  0  0  0  0  0  0  0  0  0
  126.4804  130.8767  160.4375 H   0  0  0  0  0  0  0  0  0  0  0  0
  126.9192  132.2123  158.4159 H   0  0  0  0  0  0  0  0  0  0  0  0
  130.3576  137.7962  160.5730 H   0  0  0  0  0  0  0  0  0  0  0  0
  130.3860  137.0986  162.2104 H   0  0  0  0  0  0  0  0  0  0  0  0
  132.2335  135.7363  162.9456 H   0  0  0  0  0  0  0  0  0  0  0  0
  132.4279  134.7508  161.4792 H   0  0  0  0  0  0  0  0  0  0  0  0
  134.7030  134.8471  162.4536 H   0  0  0  0  0  0  0  0  0  0  0  0
  135.9781  136.7271  162.0501 H   0  0  0  0  0  0  0  0  0  0  0  0
  134.8294  138.9198  161.9706 H   0  0  0  0  0  0  0  0  0  0  0  0
  134.5513  138.2229  160.3592 H   0  0  0  0  0  0  0  0  0  0  0  0
  132.4140  139.0130  161.1537 H   0  0  0  0  0  0  0  0  0  0  0  0
  132.6430  138.2213  162.7354 H   0  0  0  0  0  0  0  0  0  0  0  0
  130.4637  133.5330  154.7127 H   0  0  0  0  0  0  0  0  0  0  0  0
  130.9250  132.3054  152.6314 H   0  0  0  0  0  0  0  0  0  0  0  0
  1  2  1  0
  1 34  1  0
  1 35  1  0
  1 36  1  0
  2  3  1  0
  2 37  1  0
  2 38  1  0
  3 33  2  0
  3  4  1  0
  4  5  2  0
  4 39  1  0
  5  6  1  0
  5 40  1  0
  6  7  1  0
  6 32  2  0
  7 30  1  0
  7  8  2  0
  8  9  1  0
  8 41  1  0
  9 10  1  0
  9 11  1  0
 11 12  1  0
 11 30  2  0
 12 13  1  0
 12 42  1  0
 13 14  1  1
 13 15  1  0
 13 22  1  0
 15 16  1  0
 15 43  1  0
 15 44  1  0
 16 21  1  0
 16 17  2  0
 17 18  1  0
 17 45  1  0
 18 19  2  0
 18 46  1  0
 19 20  1  0
 19 47  1  0
 20 21  2  0
 20 48  1  0
 22 23  1  0
 22 49  1  0
 22 50  1  0
 23 24  1  6
 23 29  1  0
 23 25  1  0
 25 26  1  0
 25 51  1  0
 25 52  1  0
 26 27  2  0
 26 53  1  0
 27 28  1  0
 27 54  1  0
 28 29  1  0
 28 55  1  0
 28 56  1  0
 29 57  1  0
 29 58  1  0
 30 31  1  0
 32 33  1  0
 32 59  1  0
 33 60  1  0
M  CHG  1  30   1
M  END
>  <DOCK_score>  (1) 
-56.272305

>  <SMILES>  (1) 
CCc1ccc(-c2c[nH]c(N[C@H](Cc3ccccn3)C[C@@H]3CC=CCC3)[nH+]2)cc1

$$$$
