Cc1nc(Sc2ccc(SC3=CCCC3)c(NC(=O)[C@@H]([NH3+])CC3=CCCC3)c2)[nH]c1C
     RDKit          3D

 62 65  0  0  1  0  0  0  0  0999 V2000
  127.1953  138.2073  164.7712 C   0  0  0  0  0  0  0  0  0  0  0  0
  126.7240  136.9489  164.0893 C   0  0  0  0  0  0  0  0  0  0  0  0
  126.4298  136.8246  162.7845 N   0  0  0  0  0  0  0  0  0  0  0  0
  126.0535  135.5911  162.5400 C   0  0  0  0  0  0  0  0  0  0  0  0
  125.5694  134.9529  160.9706 S   0  0  0  0  0  0  0  0  0  0  0  0
  127.1318  134.4053  160.3678 C   0  0  0  0  0  0  0  0  0  0  0  0
  127.3235  133.0656  160.0526 C   0  0  0  0  0  0  0  0  0  0  0  0
  128.5486  132.6321  159.5843 C   0  0  0  0  0  0  0  0  0  0  0  0
  129.5885  133.5357  159.4174 C   0  0  0  0  0  0  0  0  0  0  0  0
  131.1486  132.9828  158.8131 S   0  0  0  0  0  0  0  0  0  0  0  0
  130.7474  132.3156  157.2325 C   0  0  0  0  0  0  0  0  0  0  0  0
  131.3962  131.3266  156.6526 C   0  0  0  0  0  0  0  0  0  0  0  0
  130.7930  131.0027  155.3055 C   0  0  0  0  0  0  0  0  0  0  0  0
  129.9231  132.2322  154.9565 C   0  0  0  0  0  0  0  0  0  0  0  0
  129.6091  132.7970  156.3630 C   0  0  0  0  0  0  0  0  0  0  0  0
  129.3975  134.8823  159.7280 C   0  0  0  0  0  0  0  0  0  0  0  0
  130.4455  135.7966  159.5600 N   0  0  0  0  0  0  0  0  0  0  0  0
  130.5282  136.8807  160.3565 C   0  0  0  0  0  0  0  0  0  0  0  0
  129.6952  137.0647  161.2188 O   0  0  0  0  0  0  0  0  0  0  0  0
  131.6554  137.8645  160.1757 C   0  0  1  0  0  0  0  0  0  0  0  0
  131.6172  138.2798  159.1686 H   0  0  0  0  0  0  0  0  0  0  0  0
  131.5216  138.9485  161.1579 N   0  0  0  0  0  0  0  0  0  0  0  0
  131.5570  138.5640  162.0901 H   0  0  0  0  0  0  0  0  0  0  0  0
  132.2764  139.6071  161.0368 H   0  0  0  0  0  0  0  0  0  0  0  0
  130.6395  139.4191  161.0215 H   0  0  0  0  0  0  0  0  0  0  0  0
  132.9930  137.1509  160.3827 C   0  0  0  0  0  0  0  0  0  0  0  0
  134.1203  138.1346  160.2019 C   0  0  0  0  0  0  0  0  0  0  0  0
  134.9972  138.4299  161.1225 C   0  0  0  0  0  0  0  0  0  0  0  0
  135.9922  139.4496  160.6189 C   0  0  0  0  0  0  0  0  0  0  0  0
  135.3324  140.0527  159.3571 C   0  0  0  0  0  0  0  0  0  0  0  0
  134.3877  138.9036  158.9290 C   0  0  0  0  0  0  0  0  0  0  0  0
  128.1690  135.3139  160.2027 C   0  0  0  0  0  0  0  0  0  0  0  0
  126.0954  134.8902  163.7063 N   0  0  0  0  0  0  0  0  0  0  0  0
  125.8664  133.9552  163.8261 H   0  0  0  0  0  0  0  0  0  0  0  0
  126.5269  135.7590  164.6825 C   0  0  0  0  0  0  0  0  0  0  0  0
  126.7344  135.4385  166.1404 C   0  0  0  0  0  0  0  0  0  0  0  0
  126.3338  138.7700  165.1313 H   0  0  0  0  0  0  0  0  0  0  0  0
  127.8363  137.9462  165.6134 H   0  0  0  0  0  0  0  0  0  0  0  0
  127.7565  138.8164  164.0627 H   0  0  0  0  0  0  0  0  0  0  0  0
  126.5145  132.3613  160.1778 H   0  0  0  0  0  0  0  0  0  0  0  0
  128.6958  131.5896  159.3438 H   0  0  0  0  0  0  0  0  0  0  0  0
  132.2453  130.8160  157.0822 H   0  0  0  0  0  0  0  0  0  0  0  0
  131.5774  130.8690  154.5607 H   0  0  0  0  0  0  0  0  0  0  0  0
  130.1750  130.1072  155.3720 H   0  0  0  0  0  0  0  0  0  0  0  0
  130.4841  132.9506  154.3587 H   0  0  0  0  0  0  0  0  0  0  0  0
  129.0082  131.9314  154.4461 H   0  0  0  0  0  0  0  0  0  0  0  0
  128.6602  132.4051  156.7291 H   0  0  0  0  0  0  0  0  0  0  0  0
  129.5862  133.8864  156.3366 H   0  0  0  0  0  0  0  0  0  0  0  0
  131.1117  135.6496  158.8705 H   0  0  0  0  0  0  0  0  0  0  0  0
  133.0311  136.7356  161.3896 H   0  0  0  0  0  0  0  0  0  0  0  0
  133.0923  136.3466  159.6538 H   0  0  0  0  0  0  0  0  0  0  0  0
  135.0098  138.0020  162.1140 H   0  0  0  0  0  0  0  0  0  0  0  0
  136.1552  140.2235  161.3690 H   0  0  0  0  0  0  0  0  0  0  0  0
  136.9340  138.9657  160.3604 H   0  0  0  0  0  0  0  0  0  0  0  0
  134.7716  140.9548  159.6021 H   0  0  0  0  0  0  0  0  0  0  0  0
  136.0753  140.2540  158.5854 H   0  0  0  0  0  0  0  0  0  0  0  0
  134.8740  138.2630  158.1933 H   0  0  0  0  0  0  0  0  0  0  0  0
  133.4586  139.3074  158.5269 H   0  0  0  0  0  0  0  0  0  0  0  0
  128.0183  136.3558  160.4436 H   0  0  0  0  0  0  0  0  0  0  0  0
  125.8094  135.6201  166.6875 H   0  0  0  0  0  0  0  0  0  0  0  0
  127.0190  134.3916  166.2455 H   0  0  0  0  0  0  0  0  0  0  0  0
  127.5249  136.0721  166.5428 H   0  0  0  0  0  0  0  0  0  0  0  0
  1  2  1  0
  1 37  1  0
  1 38  1  0
  1 39  1  0
  2 35  2  0
  2  3  1  0
  3  4  2  0
  4  5  1  0
  4 33  1  0
  5  6  1  0
  6 32  1  0
  6  7  2  0
  7  8  1  0
  7 40  1  0
  8  9  2  0
  8 41  1  0
  9 10  1  0
  9 16  1  0
 10 11  1  0
 11 15  1  0
 11 12  2  0
 12 13  1  0
 12 42  1  0
 13 14  1  0
 13 43  1  0
 13 44  1  0
 14 15  1  0
 14 45  1  0
 14 46  1  0
 15 47  1  0
 15 48  1  0
 16 17  1  0
 16 32  2  0
 17 18  1  0
 17 49  1  0
 18 19  2  0
 18 20  1  0
 20 21  1  6
 20 22  1  0
 20 26  1  0
 22 23  1  0
 22 24  1  0
 22 25  1  0
 26 27  1  0
 26 50  1  0
 26 51  1  0
 27 31  1  0
 27 28  2  0
 28 29  1  0
 28 52  1  0
 29 30  1  0
 29 53  1  0
 29 54  1  0
 30 31  1  0
 30 55  1  0
 30 56  1  0
 31 57  1  0
 31 58  1  0
 32 59  1  0
 33 34  1  0
 33 35  1  0
 35 36  1  0
 36 60  1  0
 36 61  1  0
 36 62  1  0
M  CHG  1  22   1
M  END
>  <DOCK_score>  (1) 
-43.942535

>  <SMILES>  (1) 
Cc1nc(Sc2ccc(SC3=CCCC3)c(NC(=O)[C@@H]([NH3+])CC3=CCCC3)c2)[nH]c1C

$$$$
