FC1CC([NH2+]Cc2c[nH]nc2-c2ccc(NC(c3ccccc3)c3ccccc3)o2)C1
     RDKit          3D

 57 61  0  0  1  0  0  0  0  0999 V2000
  136.0139  138.4775  161.3532 F   0  0  0  0  0  0  0  0  0  0  0  0
  134.6150  138.4951  161.3414 C   0  0  1  0  0  0  0  0  0  0  0  0
  134.0082  138.2934  159.9429 C   0  0  0  0  0  0  0  0  0  0  0  0
  132.9450  137.4107  160.6176 C   0  0  1  0  0  0  0  0  0  0  0  0
  132.5968  136.2124  159.8426 N   0  0  0  0  0  0  0  0  0  0  0  0
  132.2325  136.4878  158.9429 H   0  0  0  0  0  0  0  0  0  0  0  0
  133.4209  135.6448  159.7125 H   0  0  0  0  0  0  0  0  0  0  0  0
  131.5791  135.4393  160.5670 C   0  0  0  0  0  0  0  0  0  0  0  0
  131.2218  134.2100  159.7719 C   0  0  0  0  0  0  0  0  0  0  0  0
  132.0918  133.3779  159.1605 C   0  0  0  0  0  0  0  0  0  0  0  0
  131.3819  132.3990  158.5589 N   0  0  0  0  0  0  0  0  0  0  0  0
  131.7499  131.6620  158.0467 H   0  0  0  0  0  0  0  0  0  0  0  0
  130.0219  132.6353  158.7973 N   0  0  0  0  0  0  0  0  0  0  0  0
  129.9186  133.7272  159.5291 C   0  0  0  0  0  0  0  0  0  0  0  0
  128.6615  134.3367  160.0097 C   0  0  0  0  0  0  0  0  0  0  0  0
  127.4082  133.8646  159.7782 C   0  0  0  0  0  0  0  0  0  0  0  0
  126.5150  134.7478  160.4160 C   0  0  0  0  0  0  0  0  0  0  0  0
  127.2650  135.7130  161.0038 C   0  0  0  0  0  0  0  0  0  0  0  0
  126.7758  136.7854  161.7407 N   0  0  0  0  0  0  0  0  0  0  0  0
  127.7037  137.7585  162.3224 C   0  0  0  0  0  0  0  0  0  0  0  0
  126.9250  138.8130  163.0658 C   0  0  0  0  0  0  0  0  0  0  0  0
  127.4247  140.0978  163.1680 C   0  0  0  0  0  0  0  0  0  0  0  0
  126.7080  141.0662  163.8458 C   0  0  0  0  0  0  0  0  0  0  0  0
  125.4969  140.7477  164.4299 C   0  0  0  0  0  0  0  0  0  0  0  0
  124.9993  139.4611  164.3325 C   0  0  0  0  0  0  0  0  0  0  0  0
  125.7135  138.4939  163.6503 C   0  0  0  0  0  0  0  0  0  0  0  0
  128.6354  137.0562  163.2762 C   0  0  0  0  0  0  0  0  0  0  0  0
  129.9188  137.5336  163.4659 C   0  0  0  0  0  0  0  0  0  0  0  0
  130.7719  136.8921  164.3445 C   0  0  0  0  0  0  0  0  0  0  0  0
  130.3451  135.7673  165.0253 C   0  0  0  0  0  0  0  0  0  0  0  0
  129.0633  135.2870  164.8316 C   0  0  0  0  0  0  0  0  0  0  0  0
  128.2086  135.9315  163.9571 C   0  0  0  0  0  0  0  0  0  0  0  0
  128.5609  135.4547  160.7591 O   0  0  0  0  0  0  0  0  0  0  0  0
  133.9788  137.1489  161.7257 C   0  0  0  0  0  0  0  0  0  0  0  0
  134.1980  139.3463  161.8796 H   0  0  0  0  0  0  0  0  0  0  0  0
  134.6588  137.7478  159.2592 H   0  0  0  0  0  0  0  0  0  0  0  0
  133.6044  139.2067  159.5061 H   0  0  0  0  0  0  0  0  0  0  0  0
  132.0702  137.9645  160.9586 H   0  0  0  0  0  0  0  0  0  0  0  0
  131.9726  135.1417  161.5390 H   0  0  0  0  0  0  0  0  0  0  0  0
  130.6890  136.0525  160.7077 H   0  0  0  0  0  0  0  0  0  0  0  0
  133.1672  133.4767  159.1550 H   0  0  0  0  0  0  0  0  0  0  0  0
  127.1472  132.9815  159.2139 H   0  0  0  0  0  0  0  0  0  0  0  0
  125.4379  134.6707  160.4338 H   0  0  0  0  0  0  0  0  0  0  0  0
  125.8200  136.8895  161.8697 H   0  0  0  0  0  0  0  0  0  0  0  0
  128.2834  138.2278  161.5276 H   0  0  0  0  0  0  0  0  0  0  0  0
  128.3733  140.3458  162.7152 H   0  0  0  0  0  0  0  0  0  0  0  0
  127.0967  142.0709  163.9225 H   0  0  0  0  0  0  0  0  0  0  0  0
  124.9388  141.5027  164.9637 H   0  0  0  0  0  0  0  0  0  0  0  0
  124.0530  139.2119  164.7895 H   0  0  0  0  0  0  0  0  0  0  0  0
  125.3252  137.4892  163.5742 H   0  0  0  0  0  0  0  0  0  0  0  0
  130.2537  138.4096  162.9306 H   0  0  0  0  0  0  0  0  0  0  0  0
  131.7734  137.2672  164.4955 H   0  0  0  0  0  0  0  0  0  0  0  0
  131.0131  135.2637  165.7084 H   0  0  0  0  0  0  0  0  0  0  0  0
  128.7300  134.4079  165.3634 H   0  0  0  0  0  0  0  0  0  0  0  0
  127.2074  135.5560  163.8055 H   0  0  0  0  0  0  0  0  0  0  0  0
  133.5511  137.1384  162.7281 H   0  0  0  0  0  0  0  0  0  0  0  0
  134.6212  136.2906  161.5294 H   0  0  0  0  0  0  0  0  0  0  0  0
  1  2  1  0
  2 34  1  0
  2  3  1  0
  2 35  1  1
  3  4  1  0
  3 36  1  0
  3 37  1  0
  4  5  1  0
  4 34  1  0
  4 38  1  1
  5  6  1  0
  5  7  1  0
  5  8  1  0
  8  9  1  0
  8 39  1  0
  8 40  1  0
  9 14  1  0
  9 10  2  0
 10 11  1  0
 10 41  1  0
 11 12  1  0
 11 13  1  0
 13 14  2  0
 14 15  1  0
 15 33  1  0
 15 16  2  0
 16 17  1  0
 16 42  1  0
 17 18  2  0
 17 43  1  0
 18 19  1  0
 18 33  1  0
 19 20  1  0
 19 44  1  0
 20 21  1  0
 20 27  1  0
 20 45  1  0
 21 26  1  0
 21 22  2  0
 22 23  1  0
 22 46  1  0
 23 24  2  0
 23 47  1  0
 24 25  1  0
 24 48  1  0
 25 26  2  0
 25 49  1  0
 26 50  1  0
 27 32  1  0
 27 28  2  0
 28 29  1  0
 28 51  1  0
 29 30  2  0
 29 52  1  0
 30 31  1  0
 30 53  1  0
 31 32  2  0
 31 54  1  0
 32 55  1  0
 34 56  1  0
 34 57  1  0
M  CHG  1   5   1
M  END
>  <DOCK_score>  (1) 
-46.725433

>  <SMILES>  (1) 
FC1CC([NH2+]Cc2c[nH]nc2-c2ccc(NC(c3ccccc3)c3ccccc3)o2)C1

$$$$
