CCC[C@@H](Nc1[nH]cc(-c2ccc(CC)cc2)[nH+]1)C1=CC2C=CC1CC2
     RDKit          3D

 56 59  0  0  1  0  0  0  0  0999 V2000
  125.6588  135.4780  159.1176 C   0  0  0  0  0  0  0  0  0  0  0  0
  127.0646  134.9079  159.3165 C   0  0  0  0  0  0  0  0  0  0  0  0
  128.0372  136.0468  159.6293 C   0  0  0  0  0  0  0  0  0  0  0  0
  129.4431  135.4767  159.8282 C   0  0  1  0  0  0  0  0  0  0  0  0
  129.3807  134.5424  160.3860 H   0  0  0  0  0  0  0  0  0  0  0  0
  130.0574  135.2257  158.5222 N   0  0  0  0  0  0  0  0  0  0  0  0
  129.8970  133.9961  157.9066 C   0  0  0  0  0  0  0  0  0  0  0  0
  129.1903  132.9458  158.4062 N   0  0  0  0  0  0  0  0  0  0  0  0
  128.7128  132.9240  159.2502 H   0  0  0  0  0  0  0  0  0  0  0  0
  129.2783  131.9219  157.4945 C   0  0  0  0  0  0  0  0  0  0  0  0
  130.0354  132.3755  156.4650 C   0  0  0  0  0  0  0  0  0  0  0  0
  130.4003  131.6118  155.2469 C   0  0  0  0  0  0  0  0  0  0  0  0
  130.0164  132.0748  153.9897 C   0  0  0  0  0  0  0  0  0  0  0  0
  130.3637  131.3631  152.8595 C   0  0  0  0  0  0  0  0  0  0  0  0
  131.0811  130.1861  152.9734 C   0  0  0  0  0  0  0  0  0  0  0  0
  131.4515  129.4100  151.7359 C   0  0  0  0  0  0  0  0  0  0  0  0
  130.3443  128.4043  151.4143 C   0  0  0  0  0  0  0  0  0  0  0  0
  131.4606  129.7190  154.2191 C   0  0  0  0  0  0  0  0  0  0  0  0
  131.1237  130.4254  155.3558 C   0  0  0  0  0  0  0  0  0  0  0  0
  130.3958  133.6536  156.7439 N   0  0  0  0  0  0  0  0  0  0  0  0
  130.9380  134.2220  156.1750 H   0  0  0  0  0  0  0  0  0  0  0  0
  130.2820  136.4653  160.5963 C   0  0  0  0  0  0  0  0  0  0  0  0
  130.8399  136.1879  161.7749 C   0  0  0  0  0  0  0  0  0  0  0  0
  131.6435  137.3457  162.3602 C   0  0  1  0  0  0  0  0  0  0  0  0
  132.6492  137.7505  161.2860 C   0  0  0  0  0  0  0  0  0  0  0  0
  132.0915  138.0277  160.1080 C   0  0  0  0  0  0  0  0  0  0  0  0
  130.5781  137.8759  160.0951 C   0  0  2  0  0  0  0  0  0  0  0  0
  130.0310  138.8463  161.1573 C   0  0  0  0  0  0  0  0  0  0  0  0
  130.6638  138.5199  162.5350 C   0  0  0  0  0  0  0  0  0  0  0  0
  124.9659  134.6667  158.8947 H   0  0  0  0  0  0  0  0  0  0  0  0
  125.3412  135.9873  160.0274 H   0  0  0  0  0  0  0  0  0  0  0  0
  125.6677  136.1861  158.2890 H   0  0  0  0  0  0  0  0  0  0  0  0
  127.3822  134.3986  158.4066 H   0  0  0  0  0  0  0  0  0  0  0  0
  127.0557  134.1997  160.1451 H   0  0  0  0  0  0  0  0  0  0  0  0
  127.7196  136.5561  160.5392 H   0  0  0  0  0  0  0  0  0  0  0  0
  128.0461  136.7550  158.8008 H   0  0  0  0  0  0  0  0  0  0  0  0
  130.5767  135.9209  158.0888 H   0  0  0  0  0  0  0  0  0  0  0  0
  128.8300  130.9431  157.5811 H   0  0  0  0  0  0  0  0  0  0  0  0
  129.4515  132.9910  153.8998 H   0  0  0  0  0  0  0  0  0  0  0  0
  130.0703  131.7232  151.8845 H   0  0  0  0  0  0  0  0  0  0  0  0
  131.5730  130.0971  150.8989 H   0  0  0  0  0  0  0  0  0  0  0  0
  132.3872  128.8774  151.9076 H   0  0  0  0  0  0  0  0  0  0  0  0
  130.6123  127.8428  150.5192 H   0  0  0  0  0  0  0  0  0  0  0  0
  130.2231  127.7170  152.2515 H   0  0  0  0  0  0  0  0  0  0  0  0
  129.4088  128.9366  151.2427 H   0  0  0  0  0  0  0  0  0  0  0  0
  132.0211  128.7996  154.3023 H   0  0  0  0  0  0  0  0  0  0  0  0
  131.4205  130.0599  156.3279 H   0  0  0  0  0  0  0  0  0  0  0  0
  130.7327  135.2337  162.2693 H   0  0  0  0  0  0  0  0  0  0  0  0
  132.1305  137.0750  163.2970 H   0  0  0  0  0  0  0  0  0  0  0  0
  133.7129  137.8068  161.4639 H   0  0  0  0  0  0  0  0  0  0  0  0
  132.6609  138.3305  159.2415 H   0  0  0  0  0  0  0  0  0  0  0  0
  130.1580  138.0565  159.1057 H   0  0  0  0  0  0  0  0  0  0  0  0
  130.2729  139.8703  160.8729 H   0  0  0  0  0  0  0  0  0  0  0  0
  128.9490  138.7349  161.2282 H   0  0  0  0  0  0  0  0  0  0  0  0
  129.8940  138.2462  163.2567 H   0  0  0  0  0  0  0  0  0  0  0  0
  131.2053  139.3943  162.8956 H   0  0  0  0  0  0  0  0  0  0  0  0
  1  2  1  0
  1 30  1  0
  1 31  1  0
  1 32  1  0
  2  3  1  0
  2 33  1  0
  2 34  1  0
  3  4  1  0
  3 35  1  0
  3 36  1  0
  4  5  1  1
  4  6  1  0
  4 22  1  0
  6 37  1  0
  7  6  1  0
  7 20  2  0
  7  8  1  0
  8  9  1  0
  8 10  1  0
 10 11  2  0
 10 38  1  0
 11 12  1  0
 11 20  1  0
 12 19  1  0
 12 13  2  0
 13 14  1  0
 13 39  1  0
 14 15  2  0
 14 40  1  0
 15 16  1  0
 15 18  1  0
 16 17  1  0
 16 41  1  0
 16 42  1  0
 17 43  1  0
 17 44  1  0
 17 45  1  0
 18 19  2  0
 18 46  1  0
 19 47  1  0
 20 21  1  0
 22 27  1  0
 22 23  2  0
 23 24  1  0
 23 48  1  0
 24 29  1  0
 24 25  1  0
 24 49  1  1
 25 26  2  0
 25 50  1  0
 26 27  1  0
 26 51  1  0
 27 28  1  0
 27 52  1  6
 28 29  1  0
 28 53  1  0
 28 54  1  0
 29 55  1  0
 29 56  1  0
M  CHG  1  20   1
M  END
>  <DOCK_score>  (1) 
-57.107323

>  <SMILES>  (1) 
CCC[C@@H](Nc1[nH]cc(-c2ccc(CC)cc2)[nH+]1)C1=CC2C=CC1CC2

$$$$
