CCc1ccc(-c2c[nH]c(N[C@H](c3cccc(Cl)c3)c3ccccc3Cl)[nH+]2)cc1
     RDKit          3D

 51 54  0  0  1  0  0  0  0  0999 V2000
  130.4166  129.6261  150.8157 C   0  0  0  0  0  0  0  0  0  0  0  0
  131.5497  129.4359  151.8260 C   0  0  0  0  0  0  0  0  0  0  0  0
  131.2048  130.1496  153.1078 C   0  0  0  0  0  0  0  0  0  0  0  0
  130.4132  131.2836  153.0734 C   0  0  0  0  0  0  0  0  0  0  0  0
  130.0895  131.9378  154.2446 C   0  0  0  0  0  0  0  0  0  0  0  0
  130.5711  131.4607  155.4624 C   0  0  0  0  0  0  0  0  0  0  0  0
  130.2311  132.1628  156.7240 C   0  0  0  0  0  0  0  0  0  0  0  0
  129.5717  131.6288  157.7818 C   0  0  0  0  0  0  0  0  0  0  0  0
  129.4706  132.6182  158.7294 N   0  0  0  0  0  0  0  0  0  0  0  0
  129.0488  132.5397  159.5993 H   0  0  0  0  0  0  0  0  0  0  0  0
  130.0718  133.7289  158.2225 C   0  0  0  0  0  0  0  0  0  0  0  0
  130.1858  134.9491  158.8664 N   0  0  0  0  0  0  0  0  0  0  0  0
  129.6313  135.1222  160.2113 C   0  0  2  0  0  0  0  0  0  0  0  0
  129.8222  134.2258  160.8011 H   0  0  0  0  0  0  0  0  0  0  0  0
  128.1452  135.3538  160.1159 C   0  0  0  0  0  0  0  0  0  0  0  0
  127.4004  135.5451  161.2651 C   0  0  0  0  0  0  0  0  0  0  0  0
  126.0382  135.7622  161.1781 C   0  0  0  0  0  0  0  0  0  0  0  0
  125.4179  135.7774  159.9422 C   0  0  0  0  0  0  0  0  0  0  0  0
  126.1618  135.5818  158.7932 C   0  0  0  0  0  0  0  0  0  0  0  0
  125.3837  135.6020  157.2414 Cl  0  0  0  0  0  0  0  0  0  0  0  0
  127.5263  135.3695  158.8805 C   0  0  0  0  0  0  0  0  0  0  0  0
  130.2830  136.3082  160.8745 C   0  0  0  0  0  0  0  0  0  0  0  0
  129.7305  137.5678  160.7357 C   0  0  0  0  0  0  0  0  0  0  0  0
  130.3285  138.6558  161.3435 C   0  0  0  0  0  0  0  0  0  0  0  0
  131.4797  138.4846  162.0908 C   0  0  0  0  0  0  0  0  0  0  0  0
  132.0322  137.2262  162.2305 C   0  0  0  0  0  0  0  0  0  0  0  0
  131.4308  136.1358  161.6269 C   0  0  0  0  0  0  0  0  0  0  0  0
  132.1208  134.5532  161.8081 Cl  0  0  0  0  0  0  0  0  0  0  0  0
  130.5302  133.4511  157.0263 N   0  0  0  0  0  0  0  0  0  0  0  0
  131.0052  134.0688  156.4486 H   0  0  0  0  0  0  0  0  0  0  0  0
  131.3728  130.3209  155.4904 C   0  0  0  0  0  0  0  0  0  0  0  0
  131.6855  129.6714  154.3135 C   0  0  0  0  0  0  0  0  0  0  0  0
  130.2833  130.6891  150.6151 H   0  0  0  0  0  0  0  0  0  0  0  0
  130.6661  129.1099  149.8886 H   0  0  0  0  0  0  0  0  0  0  0  0
  129.4934  129.2146  151.2234 H   0  0  0  0  0  0  0  0  0  0  0  0
  131.6830  128.3728  152.0267 H   0  0  0  0  0  0  0  0  0  0  0  0
  132.4731  129.8474  151.4183 H   0  0  0  0  0  0  0  0  0  0  0  0
  130.0446  131.6552  152.1288 H   0  0  0  0  0  0  0  0  0  0  0  0
  129.4676  132.8205  154.2172 H   0  0  0  0  0  0  0  0  0  0  0  0
  129.1972  130.6190  157.8635 H   0  0  0  0  0  0  0  0  0  0  0  0
  130.6330  135.6894  158.4271 H   0  0  0  0  0  0  0  0  0  0  0  0
  127.8838  135.5283  162.2308 H   0  0  0  0  0  0  0  0  0  0  0  0
  125.4575  135.9157  162.0758 H   0  0  0  0  0  0  0  0  0  0  0  0
  124.3528  135.9435  159.8753 H   0  0  0  0  0  0  0  0  0  0  0  0
  128.1075  135.2157  157.9833 H   0  0  0  0  0  0  0  0  0  0  0  0
  128.8319  137.7018  160.1519 H   0  0  0  0  0  0  0  0  0  0  0  0
  129.8967  139.6397  161.2344 H   0  0  0  0  0  0  0  0  0  0  0  0
  131.9463  139.3356  162.5646 H   0  0  0  0  0  0  0  0  0  0  0  0
  132.9309  137.0929  162.8144 H   0  0  0  0  0  0  0  0  0  0  0  0
  131.7489  129.9469  156.4312 H   0  0  0  0  0  0  0  0  0  0  0  0
  132.3063  128.7880  154.3340 H   0  0  0  0  0  0  0  0  0  0  0  0
  1  2  1  0
  1 33  1  0
  1 34  1  0
  1 35  1  0
  2  3  1  0
  2 36  1  0
  2 37  1  0
  3 32  2  0
  3  4  1  0
  4  5  2  0
  4 38  1  0
  5  6  1  0
  5 39  1  0
  6  7  1  0
  6 31  2  0
  7 29  1  0
  7  8  2  0
  8  9  1  0
  8 40  1  0
  9 10  1  0
  9 11  1  0
 11 12  1  0
 11 29  2  0
 12 13  1  0
 12 41  1  0
 13 14  1  1
 13 15  1  0
 13 22  1  0
 15 21  1  0
 15 16  2  0
 16 17  1  0
 16 42  1  0
 17 18  2  0
 17 43  1  0
 18 19  1  0
 18 44  1  0
 19 20  1  0
 19 21  2  0
 21 45  1  0
 22 27  1  0
 22 23  2  0
 23 24  1  0
 23 46  1  0
 24 25  2  0
 24 47  1  0
 25 26  1  0
 25 48  1  0
 26 27  2  0
 26 49  1  0
 27 28  1  0
 29 30  1  0
 31 32  1  0
 31 50  1  0
 32 51  1  0
M  CHG  1  29   1
M  END
>  <DOCK_score>  (1) 
-58.823673

>  <SMILES>  (1) 
CCc1ccc(-c2c[nH]c(N[C@H](c3cccc(Cl)c3)c3ccccc3Cl)[nH+]2)cc1

$$$$
