CCc1ccc(C2=CC[N@H+](C(c3ccccc3)c3ccccc3)CC2)cc1
     RDKit          3D

 55 58  0  0  1  0  0  0  0  0999 V2000
  136.1804  142.0705  161.5934 C   0  0  0  0  0  0  0  0  0  0  0  0
  136.7320  140.6740  161.8870 C   0  0  0  0  0  0  0  0  0  0  0  0
  135.6972  139.6397  161.5259 C   0  0  0  0  0  0  0  0  0  0  0  0
  135.6711  139.1086  160.2484 C   0  0  0  0  0  0  0  0  0  0  0  0
  134.7270  138.1606  159.9115 C   0  0  0  0  0  0  0  0  0  0  0  0
  133.7974  137.7374  160.8622 C   0  0  0  0  0  0  0  0  0  0  0  0
  132.7833  136.7221  160.5081 C   0  0  0  0  0  0  0  0  0  0  0  0
  131.5097  137.0384  160.6018 C   0  0  0  0  0  0  0  0  0  0  0  0
  130.4034  136.0784  160.2715 C   0  0  0  0  0  0  0  0  0  0  0  0
  130.9133  134.9716  159.4538 N   0  0  2  0  0  0  0  0  0  0  0  0
  131.1872  135.3199  158.5472 H   0  0  0  0  0  0  0  0  0  0  0  0
  129.8650  133.9551  159.2936 C   0  0  0  0  0  0  0  0  0  0  0  0
  128.6684  134.5702  158.6146 C   0  0  0  0  0  0  0  0  0  0  0  0
  127.3998  134.0905  158.8819 C   0  0  0  0  0  0  0  0  0  0  0  0
  126.3021  134.6551  158.2595 C   0  0  0  0  0  0  0  0  0  0  0  0
  126.4731  135.6988  157.3695 C   0  0  0  0  0  0  0  0  0  0  0  0
  127.7422  136.1747  157.0978 C   0  0  0  0  0  0  0  0  0  0  0  0
  128.8394  135.6137  157.7243 C   0  0  0  0  0  0  0  0  0  0  0  0
  130.3905  132.8196  158.4536 C   0  0  0  0  0  0  0  0  0  0  0  0
  130.2411  132.8494  157.0797 C   0  0  0  0  0  0  0  0  0  0  0  0
  130.7266  131.8097  156.3089 C   0  0  0  0  0  0  0  0  0  0  0  0
  131.3543  130.7363  156.9127 C   0  0  0  0  0  0  0  0  0  0  0  0
  131.4990  130.7039  158.2871 C   0  0  0  0  0  0  0  0  0  0  0  0
  131.0170  131.7454  159.0576 C   0  0  0  0  0  0  0  0  0  0  0  0
  132.0781  134.3758  160.1271 C   0  0  0  0  0  0  0  0  0  0  0  0
  133.2443  135.3648  160.0527 C   0  0  0  0  0  0  0  0  0  0  0  0
  133.8256  138.2811  162.1470 C   0  0  0  0  0  0  0  0  0  0  0  0
  134.7791  139.2236  162.4732 C   0  0  0  0  0  0  0  0  0  0  0  0
  135.9406  142.1511  160.5332 H   0  0  0  0  0  0  0  0  0  0  0  0
  135.2789  142.2365  162.1833 H   0  0  0  0  0  0  0  0  0  0  0  0
  136.9285  142.8189  161.8548 H   0  0  0  0  0  0  0  0  0  0  0  0
  136.9717  140.5934  162.9473 H   0  0  0  0  0  0  0  0  0  0  0  0
  137.6333  140.5080  161.2970 H   0  0  0  0  0  0  0  0  0  0  0  0
  136.3912  139.4369  159.5135 H   0  0  0  0  0  0  0  0  0  0  0  0
  134.7073  137.7471  158.9140 H   0  0  0  0  0  0  0  0  0  0  0  0
  131.2482  138.0329  160.9315 H   0  0  0  0  0  0  0  0  0  0  0  0
  129.6228  136.6034  159.7210 H   0  0  0  0  0  0  0  0  0  0  0  0
  129.9836  135.6804  161.1954 H   0  0  0  0  0  0  0  0  0  0  0  0
  129.5725  133.5773  160.2732 H   0  0  0  0  0  0  0  0  0  0  0  0
  127.2662  133.2750  159.5772 H   0  0  0  0  0  0  0  0  0  0  0  0
  125.3110  134.2803  158.4682 H   0  0  0  0  0  0  0  0  0  0  0  0
  125.6155  136.1396  156.8829 H   0  0  0  0  0  0  0  0  0  0  0  0
  127.8762  136.9873  156.3992 H   0  0  0  0  0  0  0  0  0  0  0  0
  129.8306  135.9882  157.5152 H   0  0  0  0  0  0  0  0  0  0  0  0
  129.7478  133.6865  156.6082 H   0  0  0  0  0  0  0  0  0  0  0  0
  130.6132  131.8349  155.2352 H   0  0  0  0  0  0  0  0  0  0  0  0
  131.7313  129.9227  156.3107 H   0  0  0  0  0  0  0  0  0  0  0  0
  131.9892  129.8651  158.7589 H   0  0  0  0  0  0  0  0  0  0  0  0
  131.1301  131.7202  160.1313 H   0  0  0  0  0  0  0  0  0  0  0  0
  131.8347  134.1753  161.1704 H   0  0  0  0  0  0  0  0  0  0  0  0
  132.3538  133.4470  159.6279 H   0  0  0  0  0  0  0  0  0  0  0  0
  133.6013  135.4286  159.0249 H   0  0  0  0  0  0  0  0  0  0  0  0
  134.0533  135.0211  160.6973 H   0  0  0  0  0  0  0  0  0  0  0  0
  133.1061  137.9610  162.8859 H   0  0  0  0  0  0  0  0  0  0  0  0
  134.8053  139.6414  163.4686 H   0  0  0  0  0  0  0  0  0  0  0  0
  1  2  1  0
  1 29  1  0
  1 30  1  0
  1 31  1  0
  2  3  1  0
  2 32  1  0
  2 33  1  0
  3 28  2  0
  3  4  1  0
  4  5  2  0
  4 34  1  0
  5  6  1  0
  5 35  1  0
  6  7  1  0
  6 27  2  0
  7 26  1  0
  7  8  2  0
  8  9  1  0
  8 36  1  0
  9 10  1  0
  9 37  1  0
  9 38  1  0
 10 11  1  6
 10 12  1  0
 10 25  1  0
 12 13  1  0
 12 19  1  0
 12 39  1  0
 13 18  1  0
 13 14  2  0
 14 15  1  0
 14 40  1  0
 15 16  2  0
 15 41  1  0
 16 17  1  0
 16 42  1  0
 17 18  2  0
 17 43  1  0
 18 44  1  0
 19 24  1  0
 19 20  2  0
 20 21  1  0
 20 45  1  0
 21 22  2  0
 21 46  1  0
 22 23  1  0
 22 47  1  0
 23 24  2  0
 23 48  1  0
 24 49  1  0
 25 26  1  0
 25 50  1  0
 25 51  1  0
 26 52  1  0
 26 53  1  0
 27 28  1  0
 27 54  1  0
 28 55  1  0
M  CHG  1  10   1
M  END
>  <DOCK_score>  (1) 
-55.963955

>  <SMILES>  (1) 
CCc1ccc(C2=CC[N@H+](C(c3ccccc3)c3ccccc3)CC2)cc1

$$$$
