Cc1ccc(-c2ccc(-c3n[nH]cc3CNc3[nH]cc(-c4ccc(N)cc4)[nH+]3)cc2)cc1
     RDKit          3D

 57 61  0  0  1  0  0  0  0  0999 V2000
  125.6884  136.3842  170.0464 C   0  0  0  0  0  0  0  0  0  0  0  0
  126.6188  136.2304  168.8708 C   0  0  0  0  0  0  0  0  0  0  0  0
  127.1600  137.3522  168.2692 C   0  0  0  0  0  0  0  0  0  0  0  0
  128.0171  137.2172  167.1959 C   0  0  0  0  0  0  0  0  0  0  0  0
  128.3328  135.9475  166.7151 C   0  0  0  0  0  0  0  0  0  0  0  0
  129.2528  135.7960  165.5618 C   0  0  0  0  0  0  0  0  0  0  0  0
  129.1164  134.7088  164.6992 C   0  0  0  0  0  0  0  0  0  0  0  0
  129.9680  134.5707  163.6253 C   0  0  0  0  0  0  0  0  0  0  0  0
  130.9729  135.5125  163.4066 C   0  0  0  0  0  0  0  0  0  0  0  0
  131.8937  135.3603  162.2535 C   0  0  0  0  0  0  0  0  0  0  0  0
  133.2033  135.2406  162.3185 N   0  0  0  0  0  0  0  0  0  0  0  0
  133.6945  135.1182  161.0125 N   0  0  0  0  0  0  0  0  0  0  0  0
  134.6257  135.0137  160.7622 H   0  0  0  0  0  0  0  0  0  0  0  0
  132.6469  135.1756  160.1621 C   0  0  0  0  0  0  0  0  0  0  0  0
  131.5223  135.3246  160.8951 C   0  0  0  0  0  0  0  0  0  0  0  0
  130.1192  135.4325  160.3557 C   0  0  0  0  0  0  0  0  0  0  0  0
  130.1508  135.3522  158.8932 N   0  0  0  0  0  0  0  0  0  0  0  0
  130.0498  134.1225  158.2651 C   0  0  0  0  0  0  0  0  0  0  0  0
  129.5514  132.9861  158.8233 N   0  0  0  0  0  0  0  0  0  0  0  0
  129.2058  132.8923  159.7249 H   0  0  0  0  0  0  0  0  0  0  0  0
  129.6246  131.9960  157.8721 C   0  0  0  0  0  0  0  0  0  0  0  0
  130.1738  132.5543  156.7652 C   0  0  0  0  0  0  0  0  0  0  0  0
  130.4514  131.8604  155.4837 C   0  0  0  0  0  0  0  0  0  0  0  0
  130.4074  132.5676  154.2832 C   0  0  0  0  0  0  0  0  0  0  0  0
  130.6715  131.9217  153.0938 C   0  0  0  0  0  0  0  0  0  0  0  0
  130.9699  130.5643  153.0901 C   0  0  0  0  0  0  0  0  0  0  0  0
  131.2310  129.9106  151.8835 N   0  0  0  0  0  0  0  0  0  0  0  0
  131.0089  129.8561  154.2854 C   0  0  0  0  0  0  0  0  0  0  0  0
  130.7512  130.4990  155.4777 C   0  0  0  0  0  0  0  0  0  0  0  0
  130.4238  133.8597  157.0367 N   0  0  0  0  0  0  0  0  0  0  0  0
  130.8171  134.4970  156.4200 H   0  0  0  0  0  0  0  0  0  0  0  0
  131.1125  136.5967  164.2721 C   0  0  0  0  0  0  0  0  0  0  0  0
  130.2577  136.7377  165.3431 C   0  0  0  0  0  0  0  0  0  0  0  0
  127.7802  134.8210  167.3220 C   0  0  0  0  0  0  0  0  0  0  0  0
  126.9242  134.9681  168.3945 C   0  0  0  0  0  0  0  0  0  0  0  0
  124.6618  136.4648  169.6891 H   0  0  0  0  0  0  0  0  0  0  0  0
  125.7792  135.5151  170.6978 H   0  0  0  0  0  0  0  0  0  0  0  0
  125.9512  137.2841  170.6025 H   0  0  0  0  0  0  0  0  0  0  0  0
  126.9149  138.3355  168.6428 H   0  0  0  0  0  0  0  0  0  0  0  0
  128.4420  138.0935  166.7293 H   0  0  0  0  0  0  0  0  0  0  0  0
  128.3410  133.9770  164.8711 H   0  0  0  0  0  0  0  0  0  0  0  0
  129.8599  133.7309  162.9548 H   0  0  0  0  0  0  0  0  0  0  0  0
  132.6994  135.1133  159.0852 H   0  0  0  0  0  0  0  0  0  0  0  0
  129.5141  134.6167  160.7514 H   0  0  0  0  0  0  0  0  0  0  0  0
  129.6861  136.3860  160.6580 H   0  0  0  0  0  0  0  0  0  0  0  0
  130.2424  136.1605  158.3650 H   0  0  0  0  0  0  0  0  0  0  0  0
  129.3100  130.9692  157.9865 H   0  0  0  0  0  0  0  0  0  0  0  0
  130.1707  133.6212  154.2850 H   0  0  0  0  0  0  0  0  0  0  0  0
  130.6418  132.4702  152.1639 H   0  0  0  0  0  0  0  0  0  0  0  0
  131.4393  128.9635  151.8801 H   0  0  0  0  0  0  0  0  0  0  0  0
  131.2036  130.4043  151.0488 H   0  0  0  0  0  0  0  0  0  0  0  0
  131.2412  128.8014  154.2803 H   0  0  0  0  0  0  0  0  0  0  0  0
  130.7818  129.9484  156.4063 H   0  0  0  0  0  0  0  0  0  0  0  0
  131.8911  137.3258  164.1029 H   0  0  0  0  0  0  0  0  0  0  0  0
  130.3661  137.5773  166.0136 H   0  0  0  0  0  0  0  0  0  0  0  0
  128.0217  133.8349  166.9538 H   0  0  0  0  0  0  0  0  0  0  0  0
  126.4958  134.0959  168.8658 H   0  0  0  0  0  0  0  0  0  0  0  0
  1  2  1  0
  1 36  1  0
  1 37  1  0
  1 38  1  0
  2 35  2  0
  2  3  1  0
  3  4  2  0
  3 39  1  0
  4  5  1  0
  4 40  1  0
  5  6  1  0
  5 34  2  0
  6 33  1  0
  6  7  2  0
  7  8  1  0
  7 41  1  0
  8  9  2  0
  8 42  1  0
  9 10  1  0
  9 32  1  0
 10 15  1  0
 10 11  2  0
 11 12  1  0
 12 13  1  0
 12 14  1  0
 14 15  2  0
 14 43  1  0
 15 16  1  0
 16 17  1  0
 16 44  1  0
 16 45  1  0
 17 46  1  0
 18 17  1  0
 18 30  2  0
 18 19  1  0
 19 20  1  0
 19 21  1  0
 21 22  2  0
 21 47  1  0
 22 23  1  0
 22 30  1  0
 23 29  1  0
 23 24  2  0
 24 25  1  0
 24 48  1  0
 25 26  2  0
 25 49  1  0
 26 27  1  0
 26 28  1  0
 27 50  1  0
 27 51  1  0
 28 29  2  0
 28 52  1  0
 29 53  1  0
 30 31  1  0
 32 33  2  0
 32 54  1  0
 33 55  1  0
 34 35  1  0
 34 56  1  0
 35 57  1  0
M  CHG  1  30   1
M  END
>  <DOCK_score>  (1) 
-57.743797

>  <SMILES>  (1) 
Cc1ccc(-c2ccc(-c3n[nH]cc3CNc3[nH]cc(-c4ccc(N)cc4)[nH+]3)cc2)cc1

$$$$
