Clc1ccc(Nc2ccccc2)c(Nc2[nH]cc(-c3ccccc3)[nH+]2)c1
     RDKit          3D

 44 47  0  0  1  0  0  0  0  0999 V2000
  125.6496  133.8988  159.9565 Cl  0  0  0  0  0  0  0  0  0  0  0  0
  127.2252  134.6273  159.9655 C   0  0  0  0  0  0  0  0  0  0  0  0
  127.5813  135.4887  160.9884 C   0  0  0  0  0  0  0  0  0  0  0  0
  128.8348  136.0716  161.0015 C   0  0  0  0  0  0  0  0  0  0  0  0
  129.7395  135.7943  159.9874 C   0  0  0  0  0  0  0  0  0  0  0  0
  131.0091  136.3848  159.9985 N   0  0  0  0  0  0  0  0  0  0  0  0
  131.1886  137.6441  160.5752 C   0  0  0  0  0  0  0  0  0  0  0  0
  131.0460  138.7903  159.8030 C   0  0  0  0  0  0  0  0  0  0  0  0
  131.2289  140.0337  160.3753 C   0  0  0  0  0  0  0  0  0  0  0  0
  131.5429  140.1392  161.7180 C   0  0  0  0  0  0  0  0  0  0  0  0
  131.6861  139.0005  162.4894 C   0  0  0  0  0  0  0  0  0  0  0  0
  131.5098  137.7536  161.9225 C   0  0  0  0  0  0  0  0  0  0  0  0
  129.3790  134.9303  158.9533 C   0  0  0  0  0  0  0  0  0  0  0  0
  130.2858  134.6510  157.9235 N   0  0  0  0  0  0  0  0  0  0  0  0
  130.2474  133.4250  157.2808 C   0  0  0  0  0  0  0  0  0  0  0  0
  129.8559  132.2477  157.8411 N   0  0  0  0  0  0  0  0  0  0  0  0
  129.5561  132.1177  158.7543 H   0  0  0  0  0  0  0  0  0  0  0  0
  129.9614  131.2785  156.8738 C   0  0  0  0  0  0  0  0  0  0  0  0
  130.4215  131.8887  155.7535 C   0  0  0  0  0  0  0  0  0  0  0  0
  130.6949  131.2325  154.4516 C   0  0  0  0  0  0  0  0  0  0  0  0
  130.0100  131.6365  153.3070 C   0  0  0  0  0  0  0  0  0  0  0  0
  130.2722  131.0260  152.0975 C   0  0  0  0  0  0  0  0  0  0  0  0
  131.2041  130.0072  152.0217 C   0  0  0  0  0  0  0  0  0  0  0  0
  131.8836  129.5982  153.1556 C   0  0  0  0  0  0  0  0  0  0  0  0
  131.6336  130.2055  154.3694 C   0  0  0  0  0  0  0  0  0  0  0  0
  130.5874  133.2054  156.0339 N   0  0  0  0  0  0  0  0  0  0  0  0
  130.9073  133.8772  155.4115 H   0  0  0  0  0  0  0  0  0  0  0  0
  128.1216  134.3449  158.9505 C   0  0  0  0  0  0  0  0  0  0  0  0
  126.8782  135.7057  161.7789 H   0  0  0  0  0  0  0  0  0  0  0  0
  129.1095  136.7434  161.8014 H   0  0  0  0  0  0  0  0  0  0  0  0
  131.7640  135.9190  159.6058 H   0  0  0  0  0  0  0  0  0  0  0  0
  130.7967  138.7088  158.7554 H   0  0  0  0  0  0  0  0  0  0  0  0
  131.1225  140.9249  159.7746 H   0  0  0  0  0  0  0  0  0  0  0  0
  131.6811  141.1131  162.1640 H   0  0  0  0  0  0  0  0  0  0  0  0
  131.9359  139.0863  163.5367 H   0  0  0  0  0  0  0  0  0  0  0  0
  131.6219  136.8648  162.5256 H   0  0  0  0  0  0  0  0  0  0  0  0
  130.9408  135.3163  157.6604 H   0  0  0  0  0  0  0  0  0  0  0  0
  129.7262  130.2303  156.9851 H   0  0  0  0  0  0  0  0  0  0  0  0
  129.2785  132.4290  153.3656 H   0  0  0  0  0  0  0  0  0  0  0  0
  129.7452  131.3413  151.2090 H   0  0  0  0  0  0  0  0  0  0  0  0
  131.4029  129.5292  151.0738 H   0  0  0  0  0  0  0  0  0  0  0  0
  132.6111  128.8026  153.0907 H   0  0  0  0  0  0  0  0  0  0  0  0
  132.1646  129.8858  155.2540 H   0  0  0  0  0  0  0  0  0  0  0  0
  127.8407  133.6724  158.1535 H   0  0  0  0  0  0  0  0  0  0  0  0
  1  2  1  0
  2 28  2  0
  2  3  1  0
  3  4  2  0
  3 29  1  0
  4  5  1  0
  4 30  1  0
  5  6  1  0
  5 13  2  0
  6  7  1  0
  6 31  1  0
  7 12  1  0
  7  8  2  0
  8  9  1  0
  8 32  1  0
  9 10  2  0
  9 33  1  0
 10 11  1  0
 10 34  1  0
 11 12  2  0
 11 35  1  0
 12 36  1  0
 13 14  1  0
 13 28  1  0
 14 37  1  0
 15 14  1  0
 15 26  2  0
 15 16  1  0
 16 17  1  0
 16 18  1  0
 18 19  2  0
 18 38  1  0
 19 20  1  0
 19 26  1  0
 20 25  1  0
 20 21  2  0
 21 22  1  0
 21 39  1  0
 22 23  2  0
 22 40  1  0
 23 24  1  0
 23 41  1  0
 24 25  2  0
 24 42  1  0
 25 43  1  0
 26 27  1  0
 28 44  1  0
M  CHG  1  26   1
M  END
>  <DOCK_score>  (1) 
-57.666676

>  <SMILES>  (1) 
Clc1ccc(Nc2ccccc2)c(Nc2[nH]cc(-c3ccccc3)[nH+]2)c1

$$$$
