C[C@@H](c1cccnc1)C1(O)C=C([NH2+]C(Cc2ccccc2)Cc2ccccc2)CCC1
     RDKit          3D

 64 67  0  0  1  0  0  0  0  0999 V2000
  132.9738  137.8484  163.8812 C   0  0  0  0  0  0  0  0  0  0  0  0
  132.5504  137.5566  162.4401 C   0  0  1  0  0  0  0  0  0  0  0  0
  131.4834  137.7495  162.3288 H   0  0  0  0  0  0  0  0  0  0  0  0
  133.3224  138.4458  161.4998 C   0  0  0  0  0  0  0  0  0  0  0  0
  134.7071  138.3862  161.4550 C   0  0  0  0  0  0  0  0  0  0  0  0
  135.3754  139.2230  160.5746 C   0  0  0  0  0  0  0  0  0  0  0  0
  134.6445  140.0827  159.7763 C   0  0  0  0  0  0  0  0  0  0  0  0
  133.3282  140.1123  159.8457 N   0  0  0  0  0  0  0  0  0  0  0  0
  132.6591  139.3268  160.6672 C   0  0  0  0  0  0  0  0  0  0  0  0
  132.8409  136.0911  162.1101 C   0  0  2  0  0  0  0  0  0  0  0  0
  134.2393  135.8415  162.2654 O   0  0  0  0  0  0  0  0  0  0  0  0
  132.4403  135.8120  160.6911 C   0  0  0  0  0  0  0  0  0  0  0  0
  131.8159  134.7455  160.3125 C   0  0  0  0  0  0  0  0  0  0  0  0
  131.5171  134.6123  158.9532 N   0  0  0  0  0  0  0  0  0  0  0  0
  131.8576  135.4198  158.4534 H   0  0  0  0  0  0  0  0  0  0  0  0
  131.9602  133.7812  158.5913 H   0  0  0  0  0  0  0  0  0  0  0  0
  130.0622  134.5066  158.7798 C   0  0  0  0  0  0  0  0  0  0  0  0
  129.4376  135.9015  158.8485 C   0  0  0  0  0  0  0  0  0  0  0  0
  127.9451  135.7930  158.6705 C   0  0  0  0  0  0  0  0  0  0  0  0
  127.3926  135.8666  157.4055 C   0  0  0  0  0  0  0  0  0  0  0  0
  126.0240  135.7622  157.2420 C   0  0  0  0  0  0  0  0  0  0  0  0
  125.2069  135.5942  158.3442 C   0  0  0  0  0  0  0  0  0  0  0  0
  125.7589  135.5265  159.6098 C   0  0  0  0  0  0  0  0  0  0  0  0
  127.1279  135.6256  159.7730 C   0  0  0  0  0  0  0  0  0  0  0  0
  129.7552  133.8767  157.4196 C   0  0  0  0  0  0  0  0  0  0  0  0
  130.3704  132.5026  157.3520 C   0  0  0  0  0  0  0  0  0  0  0  0
  130.7799  131.9878  156.1363 C   0  0  0  0  0  0  0  0  0  0  0  0
  131.3486  130.7294  156.0749 C   0  0  0  0  0  0  0  0  0  0  0  0
  131.4986  129.9817  157.2279 C   0  0  0  0  0  0  0  0  0  0  0  0
  131.0839  130.4943  158.4429 C   0  0  0  0  0  0  0  0  0  0  0  0
  130.5199  131.7549  158.5049 C   0  0  0  0  0  0  0  0  0  0  0  0
  131.3890  133.6440  161.2379 C   0  0  0  0  0  0  0  0  0  0  0  0
  132.1519  133.7456  162.5607 C   0  0  0  0  0  0  0  0  0  0  0  0
  132.0557  135.1906  163.0663 C   0  0  0  0  0  0  0  0  0  0  0  0
  134.0407  137.6555  163.9925 H   0  0  0  0  0  0  0  0  0  0  0  0
  132.7669  138.8925  164.1163 H   0  0  0  0  0  0  0  0  0  0  0  0
  132.4153  137.2053  164.5612 H   0  0  0  0  0  0  0  0  0  0  0  0
  135.2520  137.7044  162.0912 H   0  0  0  0  0  0  0  0  0  0  0  0
  136.4534  139.2031  160.5130 H   0  0  0  0  0  0  0  0  0  0  0  0
  135.1577  140.7380  159.0881 H   0  0  0  0  0  0  0  0  0  0  0  0
  131.5805  139.3758  160.6925 H   0  0  0  0  0  0  0  0  0  0  0  0
  134.5725  136.0112  163.1572 H   0  0  0  0  0  0  0  0  0  0  0  0
  132.6910  136.5466  159.9403 H   0  0  0  0  0  0  0  0  0  0  0  0
  129.6463  133.8829  159.5712 H   0  0  0  0  0  0  0  0  0  0  0  0
  129.6564  136.3503  159.8175 H   0  0  0  0  0  0  0  0  0  0  0  0
  129.8535  136.5252  158.0572 H   0  0  0  0  0  0  0  0  0  0  0  0
  128.0308  136.0018  156.5448 H   0  0  0  0  0  0  0  0  0  0  0  0
  125.5928  135.8156  156.2532 H   0  0  0  0  0  0  0  0  0  0  0  0
  124.1373  135.5165  158.2167 H   0  0  0  0  0  0  0  0  0  0  0  0
  125.1204  135.3956  160.4710 H   0  0  0  0  0  0  0  0  0  0  0  0
  127.5592  135.5726  160.7617 H   0  0  0  0  0  0  0  0  0  0  0  0
  128.6757  133.7982  157.2910 H   0  0  0  0  0  0  0  0  0  0  0  0
  130.1711  134.5004  156.6283 H   0  0  0  0  0  0  0  0  0  0  0  0
  130.6590  132.5703  155.2348 H   0  0  0  0  0  0  0  0  0  0  0  0
  131.6724  130.3288  155.1256 H   0  0  0  0  0  0  0  0  0  0  0  0
  131.9395  128.9970  157.1794 H   0  0  0  0  0  0  0  0  0  0  0  0
  131.2006  129.9099  159.3436 H   0  0  0  0  0  0  0  0  0  0  0  0
  130.1958  132.1553  159.4542 H   0  0  0  0  0  0  0  0  0  0  0  0
  131.5983  132.6804  160.7734 H   0  0  0  0  0  0  0  0  0  0  0  0
  130.3195  133.7277  161.4303 H   0  0  0  0  0  0  0  0  0  0  0  0
  131.7075  133.0710  163.2925 H   0  0  0  0  0  0  0  0  0  0  0  0
  133.1966  133.4779  162.4027 H   0  0  0  0  0  0  0  0  0  0  0  0
  131.0115  135.5022  163.0887 H   0  0  0  0  0  0  0  0  0  0  0  0
  132.4796  135.2572  164.0683 H   0  0  0  0  0  0  0  0  0  0  0  0
  1  2  1  0
  1 35  1  0
  1 36  1  0
  1 37  1  0
  2  3  1  1
  2  4  1  0
  2 10  1  0
  4  9  1  0
  4  5  2  0
  5  6  1  0
  5 38  1  0
  6  7  2  0
  6 39  1  0
  7  8  1  0
  7 40  1  0
  8  9  2  0
  9 41  1  0
 10 34  1  0
 10 11  1  6
 10 12  1  0
 11 42  1  0
 12 13  2  0
 12 43  1  0
 13 14  1  0
 13 32  1  0
 14 15  1  0
 14 16  1  0
 14 17  1  0
 17 18  1  0
 17 25  1  0
 17 44  1  0
 18 19  1  0
 18 45  1  0
 18 46  1  0
 19 24  1  0
 19 20  2  0
 20 21  1  0
 20 47  1  0
 21 22  2  0
 21 48  1  0
 22 23  1  0
 22 49  1  0
 23 24  2  0
 23 50  1  0
 24 51  1  0
 25 26  1  0
 25 52  1  0
 25 53  1  0
 26 31  1  0
 26 27  2  0
 27 28  1  0
 27 54  1  0
 28 29  2  0
 28 55  1  0
 29 30  1  0
 29 56  1  0
 30 31  2  0
 30 57  1  0
 31 58  1  0
 32 33  1  0
 32 59  1  0
 32 60  1  0
 33 34  1  0
 33 61  1  0
 33 62  1  0
 34 63  1  0
 34 64  1  0
M  CHG  1  14   1
M  END
>  <DOCK_score>  (1) 
-58.789757

>  <SMILES>  (1) 
C[C@@H](c1cccnc1)C1(O)C=C([NH2+]C(Cc2ccccc2)Cc2ccccc2)CCC1

$$$$
