CCSc1ccc([C@H](Nc2[nH]cc(-c3cccnc3)[nH+]2)c2ccc(N)cc2)cc1
     RDKit          3D

 53 56  0  0  1  0  0  0  0  0999 V2000
  132.7850  140.8000  164.4044 C   0  0  0  0  0  0  0  0  0  0  0  0
  133.9825  139.9982  163.8908 C   0  0  0  0  0  0  0  0  0  0  0  0
  134.0116  140.0494  162.0777 S   0  0  0  0  0  0  0  0  0  0  0  0
  133.0467  138.6458  161.6261 C   0  0  0  0  0  0  0  0  0  0  0  0
  131.8929  138.8083  160.8688 C   0  0  0  0  0  0  0  0  0  0  0  0
  131.1395  137.7059  160.5164 C   0  0  0  0  0  0  0  0  0  0  0  0
  131.5324  136.4414  160.9157 C   0  0  0  0  0  0  0  0  0  0  0  0
  130.7074  135.2409  160.5290 C   0  0  2  0  0  0  0  0  0  0  0  0
  131.1690  134.3385  160.9297 H   0  0  0  0  0  0  0  0  0  0  0  0
  130.6374  135.1465  159.0687 N   0  0  0  0  0  0  0  0  0  0  0  0
  130.5134  133.9092  158.4603 C   0  0  0  0  0  0  0  0  0  0  0  0
  129.8999  132.8196  158.9975 N   0  0  0  0  0  0  0  0  0  0  0  0
  129.4747  132.7706  159.8679 H   0  0  0  0  0  0  0  0  0  0  0  0
  129.9917  131.8028  158.0784 C   0  0  0  0  0  0  0  0  0  0  0  0
  130.6654  132.2972  157.0105 C   0  0  0  0  0  0  0  0  0  0  0  0
  131.0068  131.5538  155.7731 C   0  0  0  0  0  0  0  0  0  0  0  0
  131.1102  132.2212  154.5491 C   0  0  0  0  0  0  0  0  0  0  0  0
  131.4371  131.4833  153.4247 C   0  0  0  0  0  0  0  0  0  0  0  0
  131.6375  130.1200  153.5450 C   0  0  0  0  0  0  0  0  0  0  0  0
  131.5275  129.5168  154.7126 N   0  0  0  0  0  0  0  0  0  0  0  0
  131.2239  130.1780  155.8108 C   0  0  0  0  0  0  0  0  0  0  0  0
  130.9723  133.5922  157.2742 N   0  0  0  0  0  0  0  0  0  0  0  0
  131.4549  134.1881  156.6801 H   0  0  0  0  0  0  0  0  0  0  0  0
  129.3163  135.3856  161.0902 C   0  0  0  0  0  0  0  0  0  0  0  0
  128.3337  136.0120  160.3455 C   0  0  0  0  0  0  0  0  0  0  0  0
  127.0578  136.1459  160.8567 C   0  0  0  0  0  0  0  0  0  0  0  0
  126.7618  135.6503  162.1203 C   0  0  0  0  0  0  0  0  0  0  0  0
  125.4726  135.7846  162.6403 N   0  0  0  0  0  0  0  0  0  0  0  0
  127.7526  135.0263  162.8676 C   0  0  0  0  0  0  0  0  0  0  0  0
  129.0251  134.8912  162.3483 C   0  0  0  0  0  0  0  0  0  0  0  0
  132.6773  136.2766  161.6738 C   0  0  0  0  0  0  0  0  0  0  0  0
  133.4382  137.3737  162.0258 C   0  0  0  0  0  0  0  0  0  0  0  0
  132.7675  140.7693  165.4939 H   0  0  0  0  0  0  0  0  0  0  0  0
  132.8705  141.8344  164.0716 H   0  0  0  0  0  0  0  0  0  0  0  0
  131.8637  140.3678  164.0139 H   0  0  0  0  0  0  0  0  0  0  0  0
  133.8969  138.9638  164.2237 H   0  0  0  0  0  0  0  0  0  0  0  0
  134.9038  140.4305  164.2813 H   0  0  0  0  0  0  0  0  0  0  0  0
  131.5855  139.7954  160.5566 H   0  0  0  0  0  0  0  0  0  0  0  0
  130.2426  137.8313  159.9278 H   0  0  0  0  0  0  0  0  0  0  0  0
  130.6780  135.9509  158.5281 H   0  0  0  0  0  0  0  0  0  0  0  0
  129.6049  130.8003  158.1872 H   0  0  0  0  0  0  0  0  0  0  0  0
  130.9436  133.2863  154.4833 H   0  0  0  0  0  0  0  0  0  0  0  0
  131.5303  131.9660  152.4632 H   0  0  0  0  0  0  0  0  0  0  0  0
  131.8883  129.5404  152.6686 H   0  0  0  0  0  0  0  0  0  0  0  0
  131.1428  129.6488  156.7489 H   0  0  0  0  0  0  0  0  0  0  0  0
  128.5646  136.3974  159.3634 H   0  0  0  0  0  0  0  0  0  0  0  0
  126.2910  136.6355  160.2748 H   0  0  0  0  0  0  0  0  0  0  0  0
  124.7825  136.2240  162.1191 H   0  0  0  0  0  0  0  0  0  0  0  0
  125.2661  135.4346  163.5212 H   0  0  0  0  0  0  0  0  0  0  0  0
  127.5269  134.6439  163.8521 H   0  0  0  0  0  0  0  0  0  0  0  0
  129.7948  134.4025  162.9273 H   0  0  0  0  0  0  0  0  0  0  0  0
  132.9786  135.2881  161.9876 H   0  0  0  0  0  0  0  0  0  0  0  0
  134.3342  137.2438  162.6147 H   0  0  0  0  0  0  0  0  0  0  0  0
  1  2  1  0
  1 33  1  0
  1 34  1  0
  1 35  1  0
  2  3  1  0
  2 36  1  0
  2 37  1  0
  3  4  1  0
  4 32  2  0
  4  5  1  0
  5  6  2  0
  5 38  1  0
  6  7  1  0
  6 39  1  0
  7  8  1  0
  7 31  2  0
  8  9  1  1
  8 10  1  0
  8 24  1  0
 10 40  1  0
 11 10  1  0
 11 22  2  0
 11 12  1  0
 12 13  1  0
 12 14  1  0
 14 15  2  0
 14 41  1  0
 15 16  1  0
 15 22  1  0
 16 21  1  0
 16 17  2  0
 17 18  1  0
 17 42  1  0
 18 19  2  0
 18 43  1  0
 19 20  1  0
 19 44  1  0
 20 21  2  0
 21 45  1  0
 22 23  1  0
 24 30  1  0
 24 25  2  0
 25 26  1  0
 25 46  1  0
 26 27  2  0
 26 47  1  0
 27 28  1  0
 27 29  1  0
 28 48  1  0
 28 49  1  0
 29 30  2  0
 29 50  1  0
 30 51  1  0
 31 32  1  0
 31 52  1  0
 32 53  1  0
M  CHG  1  22   1
M  END
>  <DOCK_score>  (1) 
-52.367493

>  <SMILES>  (1) 
CCSc1ccc([C@H](Nc2[nH]cc(-c3cccnc3)[nH+]2)c2ccc(N)cc2)cc1

$$$$
