Clc1ccc(Nc2ccc(Nc3[nH]cc(C4=CCC=CC4)[nH+]3)cc2)cc1
     RDKit          3D

 46 49  0  0  1  0  0  0  0  0999 V2000
  128.0351  138.0137  168.2244 Cl  0  0  0  0  0  0  0  0  0  0  0  0
  127.5593  137.6938  166.5859 C   0  0  0  0  0  0  0  0  0  0  0  0
  128.1667  138.3740  165.5449 C   0  0  0  0  0  0  0  0  0  0  0  0
  127.7901  138.1215  164.2405 C   0  0  0  0  0  0  0  0  0  0  0  0
  126.8004  137.1842  163.9740 C   0  0  0  0  0  0  0  0  0  0  0  0
  126.4169  136.9271  162.6551 N   0  0  0  0  0  0  0  0  0  0  0  0
  127.3573  136.4546  161.7323 C   0  0  0  0  0  0  0  0  0  0  0  0
  126.9760  136.1991  160.4209 C   0  0  0  0  0  0  0  0  0  0  0  0
  127.9037  135.7334  159.5107 C   0  0  0  0  0  0  0  0  0  0  0  0
  129.2179  135.5202  159.9060 C   0  0  0  0  0  0  0  0  0  0  0  0
  130.1588  135.0474  158.9829 N   0  0  0  0  0  0  0  0  0  0  0  0
  129.9647  133.8255  158.3605 C   0  0  0  0  0  0  0  0  0  0  0  0
  129.3128  132.7574  158.8970 N   0  0  0  0  0  0  0  0  0  0  0  0
  128.9047  132.7160  159.7759 H   0  0  0  0  0  0  0  0  0  0  0  0
  129.3399  131.7497  157.9653 C   0  0  0  0  0  0  0  0  0  0  0  0
  130.0084  132.2303  156.8845 C   0  0  0  0  0  0  0  0  0  0  0  0
  130.2831  131.4941  155.6335 C   0  0  0  0  0  0  0  0  0  0  0  0
  129.8088  131.9709  154.5029 C   0  0  0  0  0  0  0  0  0  0  0  0
  130.0397  131.2995  153.1823 C   0  0  0  0  0  0  0  0  0  0  0  0
  131.2025  130.3562  153.2498 C   0  0  0  0  0  0  0  0  0  0  0  0
  131.6660  129.8830  154.3656 C   0  0  0  0  0  0  0  0  0  0  0  0
  131.0867  130.2299  155.7036 C   0  0  0  0  0  0  0  0  0  0  0  0
  130.3840  133.5054  157.1607 N   0  0  0  0  0  0  0  0  0  0  0  0
  130.8808  134.0872  156.5644 H   0  0  0  0  0  0  0  0  0  0  0  0
  129.5978  135.7702  161.2183 C   0  0  0  0  0  0  0  0  0  0  0  0
  128.6714  136.2410  162.1273 C   0  0  0  0  0  0  0  0  0  0  0  0
  126.1880  136.5070  165.0211 C   0  0  0  0  0  0  0  0  0  0  0  0
  126.5728  136.7595  166.3232 C   0  0  0  0  0  0  0  0  0  0  0  0
  128.9362  139.1026  165.7529 H   0  0  0  0  0  0  0  0  0  0  0  0
  128.2645  138.6526  163.4285 H   0  0  0  0  0  0  0  0  0  0  0  0
  125.4990  137.0761  162.3790 H   0  0  0  0  0  0  0  0  0  0  0  0
  125.9541  136.3654  160.1134 H   0  0  0  0  0  0  0  0  0  0  0  0
  127.6074  135.5347  158.4913 H   0  0  0  0  0  0  0  0  0  0  0  0
  130.9464  135.5757  158.7794 H   0  0  0  0  0  0  0  0  0  0  0  0
  128.9121  130.7637  158.0713 H   0  0  0  0  0  0  0  0  0  0  0  0
  129.2338  132.8847  154.5263 H   0  0  0  0  0  0  0  0  0  0  0  0
  129.1449  130.7438  152.9026 H   0  0  0  0  0  0  0  0  0  0  0  0
  130.2399  132.0583  152.4260 H   0  0  0  0  0  0  0  0  0  0  0  0
  131.6770  130.0567  152.3270 H   0  0  0  0  0  0  0  0  0  0  0  0
  132.5080  129.2077  154.3283 H   0  0  0  0  0  0  0  0  0  0  0  0
  130.4469  129.4135  156.0385 H   0  0  0  0  0  0  0  0  0  0  0  0
  131.8972  130.3642  156.4199 H   0  0  0  0  0  0  0  0  0  0  0  0
  130.6188  135.6005  161.5267 H   0  0  0  0  0  0  0  0  0  0  0  0
  128.9677  136.4397  163.1467 H   0  0  0  0  0  0  0  0  0  0  0  0
  125.4151  135.7810  164.8169 H   0  0  0  0  0  0  0  0  0  0  0  0
  126.1001  136.2305  167.1376 H   0  0  0  0  0  0  0  0  0  0  0  0
  1  2  1  0
  2 28  2  0
  2  3  1  0
  3  4  2  0
  3 29  1  0
  4  5  1  0
  4 30  1  0
  5  6  1  0
  5 27  2  0
  6  7  1  0
  6 31  1  0
  7 26  1  0
  7  8  2  0
  8  9  1  0
  8 32  1  0
  9 10  2  0
  9 33  1  0
 10 11  1  0
 10 25  1  0
 11 34  1  0
 12 11  1  0
 12 23  2  0
 12 13  1  0
 13 14  1  0
 13 15  1  0
 15 16  2  0
 15 35  1  0
 16 17  1  0
 16 23  1  0
 17 22  1  0
 17 18  2  0
 18 19  1  0
 18 36  1  0
 19 20  1  0
 19 37  1  0
 19 38  1  0
 20 21  2  0
 20 39  1  0
 21 22  1  0
 21 40  1  0
 22 41  1  0
 22 42  1  0
 23 24  1  0
 25 26  2  0
 25 43  1  0
 26 44  1  0
 27 28  1  0
 27 45  1  0
 28 46  1  0
M  CHG  1  23   1
M  END
>  <DOCK_score>  (1) 
-53.242088

>  <SMILES>  (1) 
Clc1ccc(Nc2ccc(Nc3[nH]cc(C4=CCC=CC4)[nH+]3)cc2)cc1

$$$$
