O=C1CC[C@H](NC(NC2CC(Cl)(Cl)C2)=[NH+]C2CC23CC3)CN1
     RDKit          3D

 45 48  0  0  1  0  0  0  0  0999 V2000
  123.7668  133.6437  161.8494 O   0  0  0  0  0  0  0  0  0  0  0  0
  124.8992  133.9324  161.5249 C   0  0  0  0  0  0  0  0  0  0  0  0
  125.8272  132.8232  161.1202 C   0  0  0  0  0  0  0  0  0  0  0  0
  127.2771  133.3110  161.1753 C   0  0  0  0  0  0  0  0  0  0  0  0
  127.3663  134.6505  160.4341 C   0  0  2  0  0  0  0  0  0  0  0  0
  126.9330  134.5474  159.4391 H   0  0  0  0  0  0  0  0  0  0  0  0
  128.7692  135.0563  160.3196 N   0  0  0  0  0  0  0  0  0  0  0  0
  129.5105  134.6676  159.2290 C   0  0  0  0  0  0  0  0  0  0  0  0
  128.9352  133.8978  158.2457 N   0  0  0  0  0  0  0  0  0  0  0  0
  129.7252  133.4836  157.0836 C   0  0  0  0  0  0  0  0  0  0  0  0
  129.1722  132.2351  156.3762 C   0  0  0  0  0  0  0  0  0  0  0  0
  130.6336  131.7788  156.2133 C   0  0  0  0  0  0  0  0  0  0  0  0
  131.4078  132.3704  154.6962 Cl  0  0  0  0  0  0  0  0  0  0  0  0
  130.8767  130.0124  156.4805 Cl  0  0  0  0  0  0  0  0  0  0  0  0
  130.9580  132.6387  157.4462 C   0  0  0  0  0  0  0  0  0  0  0  0
  130.7587  135.0287  159.1271 N   0  0  0  0  0  0  0  0  0  0  0  0
  131.1566  135.1572  158.2518 H   0  0  0  0  0  0  0  0  0  0  0  0
  131.5608  135.2407  160.3346 C   0  0  2  0  0  0  0  0  0  0  0  0
  132.9104  134.5251  160.4209 C   0  0  0  0  0  0  0  0  0  0  0  0
  131.7368  134.0533  161.2831 C   0  0  0  0  0  0  0  0  0  0  0  0
  131.0211  132.7468  161.6311 C   0  0  0  0  0  0  0  0  0  0  0  0
  131.4557  133.7012  162.7451 C   0  0  0  0  0  0  0  0  0  0  0  0
  126.5910  135.7023  161.2284 C   0  0  0  0  0  0  0  0  0  0  0  0
  125.2538  135.2178  161.5470 N   0  0  0  0  0  0  0  0  0  0  0  0
  125.5904  132.5054  160.1047 H   0  0  0  0  0  0  0  0  0  0  0  0
  125.7025  131.9806  161.8003 H   0  0  0  0  0  0  0  0  0  0  0  0
  127.9282  132.5813  160.6941 H   0  0  0  0  0  0  0  0  0  0  0  0
  127.5799  133.4454  162.2137 H   0  0  0  0  0  0  0  0  0  0  0  0
  129.1752  135.5994  161.0133 H   0  0  0  0  0  0  0  0  0  0  0  0
  128.0063  133.6291  158.3215 H   0  0  0  0  0  0  0  0  0  0  0  0
  129.9451  134.3082  156.4056 H   0  0  0  0  0  0  0  0  0  0  0  0
  128.5832  131.5892  157.0273 H   0  0  0  0  0  0  0  0  0  0  0  0
  128.6741  132.4532  155.4316 H   0  0  0  0  0  0  0  0  0  0  0  0
  131.8993  133.1821  157.3642 H   0  0  0  0  0  0  0  0  0  0  0  0
  130.8580  132.1034  158.3905 H   0  0  0  0  0  0  0  0  0  0  0  0
  131.4882  136.2334  160.7789 H   0  0  0  0  0  0  0  0  0  0  0  0
  133.2013  133.8962  159.5795 H   0  0  0  0  0  0  0  0  0  0  0  0
  133.7257  135.0471  160.9217 H   0  0  0  0  0  0  0  0  0  0  0  0
  129.9556  132.6824  161.4106 H   0  0  0  0  0  0  0  0  0  0  0  0
  131.5821  131.8194  161.5156 H   0  0  0  0  0  0  0  0  0  0  0  0
  132.3024  133.4017  163.3626 H   0  0  0  0  0  0  0  0  0  0  0  0
  130.6759  134.2647  163.2576 H   0  0  0  0  0  0  0  0  0  0  0  0
  127.1248  135.9209  162.1534 H   0  0  0  0  0  0  0  0  0  0  0  0
  126.5124  136.6147  160.6372 H   0  0  0  0  0  0  0  0  0  0  0  0
  124.5795  135.8713  161.7903 H   0  0  0  0  0  0  0  0  0  0  0  0
  1  2  2  0
  2 24  1  0
  2  3  1  0
  3  4  1  0
  3 25  1  0
  3 26  1  0
  4  5  1  0
  4 27  1  0
  4 28  1  0
  5  6  1  6
  5  7  1  0
  5 23  1  0
  7 29  1  0
  8  7  1  0
  8  9  1  0
  8 16  2  0
  9 10  1  0
  9 30  1  0
 10 15  1  0
 10 11  1  0
 10 31  1  0
 11 12  1  0
 11 32  1  0
 11 33  1  0
 12 13  1  0
 12 14  1  0
 12 15  1  0
 15 34  1  0
 15 35  1  0
 16 17  1  0
 16 18  1  0
 18 20  1  0
 18 19  1  0
 18 36  1  1
 19 20  1  0
 19 37  1  0
 19 38  1  0
 20 22  1  0
 20 21  1  0
 21 22  1  0
 21 39  1  0
 21 40  1  0
 22 41  1  0
 22 42  1  0
 23 24  1  0
 23 43  1  0
 23 44  1  0
 24 45  1  0
M  CHG  1  16   1
M  END
>  <DOCK_score>  (1) 
-45.579063

>  <SMILES>  (1) 
O=C1CC[C@H](NC(NC2CC(Cl)(Cl)C2)=[NH+]C2CC23CC3)CN1

$$$$
