O=C1CC[C@H]([NH+]=C(NCC=CCO)NC2CCCC2)CN1
     RDKit          3D

 48 49  0  0  1  0  0  0  0  0999 V2000
  123.6629  133.7536  161.3756 O   0  0  0  0  0  0  0  0  0  0  0  0
  124.8444  133.9809  161.2240 C   0  0  0  0  0  0  0  0  0  0  0  0
  125.7160  132.8831  160.6850 C   0  0  0  0  0  0  0  0  0  0  0  0
  127.1862  133.1961  160.9737 C   0  0  0  0  0  0  0  0  0  0  0  0
  127.4691  134.6391  160.5383 C   0  0  2  0  0  0  0  0  0  0  0  0
  127.1425  134.7809  159.5081 H   0  0  0  0  0  0  0  0  0  0  0  0
  128.9051  134.9106  160.6406 N   0  0  0  0  0  0  0  0  0  0  0  0
  129.2750  135.2602  161.4662 H   0  0  0  0  0  0  0  0  0  0  0  0
  129.6856  134.6826  159.6218 C   0  0  0  0  0  0  0  0  0  0  0  0
  130.8165  135.4427  159.4388 N   0  0  0  0  0  0  0  0  0  0  0  0
  131.1443  136.5087  160.3887 C   0  0  0  0  0  0  0  0  0  0  0  0
  132.0038  135.9501  161.4935 C   0  0  0  0  0  0  0  0  0  0  0  0
  133.2039  136.4340  161.6979 C   0  0  0  0  0  0  0  0  0  0  0  0
  134.0634  135.8755  162.8026 C   0  0  0  0  0  0  0  0  0  0  0  0
  133.3536  134.8361  163.4792 O   0  0  0  0  0  0  0  0  0  0  0  0
  129.3777  133.6823  158.7304 N   0  0  0  0  0  0  0  0  0  0  0  0
  130.4488  132.9763  158.0229 C   0  0  0  0  0  0  0  0  0  0  0  0
  129.8531  131.8600  157.1405 C   0  0  0  0  0  0  0  0  0  0  0  0
  130.8783  130.7038  157.2471 C   0  0  0  0  0  0  0  0  0  0  0  0
  131.3218  130.7757  158.7294 C   0  0  0  0  0  0  0  0  0  0  0  0
  131.3826  132.2870  159.0331 C   0  0  0  0  0  0  0  0  0  0  0  0
  126.7005  135.5879  161.4590 C   0  0  0  0  0  0  0  0  0  0  0  0
  125.3004  135.1922  161.5453 N   0  0  0  0  0  0  0  0  0  0  0  0
  125.5683  132.7992  159.6083 H   0  0  0  0  0  0  0  0  0  0  0  0
  125.4459  131.9409  161.1621 H   0  0  0  0  0  0  0  0  0  0  0  0
  127.8239  132.5121  160.4136 H   0  0  0  0  0  0  0  0  0  0  0  0
  127.3814  133.0898  162.0408 H   0  0  0  0  0  0  0  0  0  0  0  0
  131.3973  135.2733  158.6805 H   0  0  0  0  0  0  0  0  0  0  0  0
  131.6857  137.3015  159.8727 H   0  0  0  0  0  0  0  0  0  0  0  0
  130.2250  136.9128  160.8126 H   0  0  0  0  0  0  0  0  0  0  0  0
  131.6304  135.1510  162.1167 H   0  0  0  0  0  0  0  0  0  0  0  0
  133.5774  137.2330  161.0747 H   0  0  0  0  0  0  0  0  0  0  0  0
  134.9827  135.4714  162.3787 H   0  0  0  0  0  0  0  0  0  0  0  0
  134.3074  136.6686  163.5095 H   0  0  0  0  0  0  0  0  0  0  0  0
  132.5231  135.1246  163.8820 H   0  0  0  0  0  0  0  0  0  0  0  0
  128.4512  133.4439  158.5699 H   0  0  0  0  0  0  0  0  0  0  0  0
  131.0150  133.6766  157.4088 H   0  0  0  0  0  0  0  0  0  0  0  0
  128.8829  131.5461  157.5257 H   0  0  0  0  0  0  0  0  0  0  0  0
  129.7639  132.1967  156.1077 H   0  0  0  0  0  0  0  0  0  0  0  0
  131.7246  130.8754  156.5820 H   0  0  0  0  0  0  0  0  0  0  0  0
  130.4043  129.7462  157.0318 H   0  0  0  0  0  0  0  0  0  0  0  0
  132.3044  130.3213  158.8561 H   0  0  0  0  0  0  0  0  0  0  0  0
  130.5905  130.2865  159.3728 H   0  0  0  0  0  0  0  0  0  0  0  0
  132.4021  132.6521  158.9087 H   0  0  0  0  0  0  0  0  0  0  0  0
  131.0392  132.4783  160.0498 H   0  0  0  0  0  0  0  0  0  0  0  0
  127.1442  135.5620  162.4543 H   0  0  0  0  0  0  0  0  0  0  0  0
  126.7648  136.6023  161.0656 H   0  0  0  0  0  0  0  0  0  0  0  0
  124.6601  135.8514  161.8558 H   0  0  0  0  0  0  0  0  0  0  0  0
  1  2  2  0
  2 23  1  0
  2  3  1  0
  3  4  1  0
  3 24  1  0
  3 25  1  0
  4  5  1  0
  4 26  1  0
  4 27  1  0
  5  6  1  6
  5  7  1  0
  5 22  1  0
  7  8  1  0
  9  7  2  0
  9 10  1  0
  9 16  1  0
 10 11  1  0
 10 28  1  0
 11 12  1  0
 11 29  1  0
 11 30  1  0
 12 13  2  0
 12 31  1  0
 13 14  1  0
 13 32  1  0
 14 15  1  0
 14 33  1  0
 14 34  1  0
 15 35  1  0
 16 17  1  0
 16 36  1  0
 17 21  1  0
 17 18  1  0
 17 37  1  0
 18 19  1  0
 18 38  1  0
 18 39  1  0
 19 20  1  0
 19 40  1  0
 19 41  1  0
 20 21  1  0
 20 42  1  0
 20 43  1  0
 21 44  1  0
 21 45  1  0
 22 23  1  0
 22 46  1  0
 22 47  1  0
 23 48  1  0
M  CHG  1   7   1
M  END
>  <DOCK_score>  (1) 
-41.122055

>  <SMILES>  (1) 
O=C1CC[C@H]([NH+]=C(NCC=CCO)NC2CCCC2)CN1

$$$$
