Nc1ccc(-c2c[nH]c(N[C@H](c3ccccc3)c3ccc(Br)cc3)[nH+]2)cc1
     RDKit          3D

 47 50  0  0  1  0  0  0  0  0999 V2000
  131.2976  129.5923  151.8911 N   0  0  0  0  0  0  0  0  0  0  0  0
  131.0484  130.2367  153.1051 C   0  0  0  0  0  0  0  0  0  0  0  0
  130.1291  131.2786  153.1610 C   0  0  0  0  0  0  0  0  0  0  0  0
  129.8813  131.9171  154.3578 C   0  0  0  0  0  0  0  0  0  0  0  0
  130.5532  131.5174  155.5120 C   0  0  0  0  0  0  0  0  0  0  0  0
  130.2889  132.2032  156.8006 C   0  0  0  0  0  0  0  0  0  0  0  0
  129.8102  131.6239  157.9293 C   0  0  0  0  0  0  0  0  0  0  0  0
  129.7178  132.6151  158.8776 N   0  0  0  0  0  0  0  0  0  0  0  0
  129.4067  132.5097  159.7904 H   0  0  0  0  0  0  0  0  0  0  0  0
  130.1432  133.7709  158.2992 C   0  0  0  0  0  0  0  0  0  0  0  0
  130.2061  135.0071  158.9192 N   0  0  0  0  0  0  0  0  0  0  0  0
  129.7928  135.1473  160.3177 C   0  0  2  0  0  0  0  0  0  0  0  0
  130.1383  134.2841  160.8868 H   0  0  0  0  0  0  0  0  0  0  0  0
  128.2898  135.2288  160.3914 C   0  0  0  0  0  0  0  0  0  0  0  0
  127.6255  134.7506  161.5054 C   0  0  0  0  0  0  0  0  0  0  0  0
  126.2472  134.8295  161.5748 C   0  0  0  0  0  0  0  0  0  0  0  0
  125.5325  135.3781  160.5264 C   0  0  0  0  0  0  0  0  0  0  0  0
  126.1966  135.8515  159.4102 C   0  0  0  0  0  0  0  0  0  0  0  0
  127.5752  135.7766  159.3425 C   0  0  0  0  0  0  0  0  0  0  0  0
  130.3931  136.4031  160.8954 C   0  0  0  0  0  0  0  0  0  0  0  0
  129.7275  137.0918  161.8923 C   0  0  0  0  0  0  0  0  0  0  0  0
  130.2800  138.2410  162.4259 C   0  0  0  0  0  0  0  0  0  0  0  0
  131.4940  138.7076  161.9549 C   0  0  0  0  0  0  0  0  0  0  0  0
  132.2467  140.2840  162.6790 Br  0  0  0  0  0  0  0  0  0  0  0  0
  132.1571  138.0209  160.9539 C   0  0  0  0  0  0  0  0  0  0  0  0
  131.6064  136.8689  160.4245 C   0  0  0  0  0  0  0  0  0  0  0  0
  130.4783  133.5219  157.0566 N   0  0  0  0  0  0  0  0  0  0  0  0
  130.8106  134.1759  156.4220 H   0  0  0  0  0  0  0  0  0  0  0  0
  131.4782  130.4761  155.4523 C   0  0  0  0  0  0  0  0  0  0  0  0
  131.7187  129.8370  154.2544 C   0  0  0  0  0  0  0  0  0  0  0  0
  130.8298  129.8710  151.0885 H   0  0  0  0  0  0  0  0  0  0  0  0
  131.9388  128.8656  151.8511 H   0  0  0  0  0  0  0  0  0  0  0  0
  129.6087  131.5881  152.2666 H   0  0  0  0  0  0  0  0  0  0  0  0
  129.1672  132.7262  154.4011 H   0  0  0  0  0  0  0  0  0  0  0  0
  129.5506  130.5836  158.0583 H   0  0  0  0  0  0  0  0  0  0  0  0
  130.5239  135.7805  158.4275 H   0  0  0  0  0  0  0  0  0  0  0  0
  128.1836  134.3186  162.3229 H   0  0  0  0  0  0  0  0  0  0  0  0
  125.7285  134.4601  162.4471 H   0  0  0  0  0  0  0  0  0  0  0  0
  124.4554  135.4373  160.5795 H   0  0  0  0  0  0  0  0  0  0  0  0
  125.6382  136.2800  158.5911 H   0  0  0  0  0  0  0  0  0  0  0  0
  128.0940  136.1464  158.4705 H   0  0  0  0  0  0  0  0  0  0  0  0
  128.7776  136.7297  162.2571 H   0  0  0  0  0  0  0  0  0  0  0  0
  129.7621  138.7765  163.2077 H   0  0  0  0  0  0  0  0  0  0  0  0
  133.1049  138.3851  160.5855 H   0  0  0  0  0  0  0  0  0  0  0  0
  132.1242  136.3326  159.6431 H   0  0  0  0  0  0  0  0  0  0  0  0
  132.0027  130.1674  156.3444 H   0  0  0  0  0  0  0  0  0  0  0  0
  132.4321  129.0274  154.2085 H   0  0  0  0  0  0  0  0  0  0  0  0
  1  2  1  0
  1 31  1  0
  1 32  1  0
  2 30  2  0
  2  3  1  0
  3  4  2  0
  3 33  1  0
  4  5  1  0
  4 34  1  0
  5  6  1  0
  5 29  2  0
  6 27  1  0
  6  7  2  0
  7  8  1  0
  7 35  1  0
  8  9  1  0
  8 10  1  0
 10 11  1  0
 10 27  2  0
 11 12  1  0
 11 36  1  0
 12 13  1  1
 12 14  1  0
 12 20  1  0
 14 19  1  0
 14 15  2  0
 15 16  1  0
 15 37  1  0
 16 17  2  0
 16 38  1  0
 17 18  1  0
 17 39  1  0
 18 19  2  0
 18 40  1  0
 19 41  1  0
 20 26  1  0
 20 21  2  0
 21 22  1  0
 21 42  1  0
 22 23  2  0
 22 43  1  0
 23 24  1  0
 23 25  1  0
 25 26  2  0
 25 44  1  0
 26 45  1  0
 27 28  1  0
 29 30  1  0
 29 46  1  0
 30 47  1  0
M  CHG  1  27   1
M  END
>  <DOCK_score>  (1) 
-56.125374

>  <SMILES>  (1) 
Nc1ccc(-c2c[nH]c(N[C@H](c3ccccc3)c3ccc(Br)cc3)[nH+]2)cc1

$$$$
