C#Cc1cccc(N2CC[NH+](C(c3ccccc3)c3ccccc3)CC2)c1[C@@H]1CCSC1
     RDKit          3D

 63 67  0  0  1  0  0  0  0  0999 V2000
  135.9206  140.9000  164.4424 C   0  0  0  0  0  0  0  0  0  0  0  0
  135.5490  140.4590  163.4199 C   0  0  0  0  0  0  0  0  0  0  0  0
  135.0957  139.9212  162.1725 C   0  0  0  0  0  0  0  0  0  0  0  0
  135.5860  140.4329  160.9698 C   0  0  0  0  0  0  0  0  0  0  0  0
  135.1478  139.9130  159.7689 C   0  0  0  0  0  0  0  0  0  0  0  0
  134.2270  138.8821  159.7517 C   0  0  0  0  0  0  0  0  0  0  0  0
  133.7284  138.3696  160.9435 C   0  0  0  0  0  0  0  0  0  0  0  0
  132.7940  137.3316  160.9208 N   0  0  0  0  0  0  0  0  0  0  0  0
  131.5448  137.7614  160.2765 C   0  0  0  0  0  0  0  0  0  0  0  0
  130.5295  136.6175  160.3252 C   0  0  0  0  0  0  0  0  0  0  0  0
  131.0794  135.4445  159.6329 N   0  0  0  0  0  0  0  0  0  0  0  0
  131.2840  135.6852  158.6746 H   0  0  0  0  0  0  0  0  0  0  0  0
  130.0972  134.3528  159.6643 C   0  0  0  0  0  0  0  0  0  0  0  0
  130.6610  133.1491  158.9540 C   0  0  0  0  0  0  0  0  0  0  0  0
  130.4484  132.9843  157.5980 C   0  0  0  0  0  0  0  0  0  0  0  0
  130.9693  131.8826  156.9456 C   0  0  0  0  0  0  0  0  0  0  0  0
  131.6952  130.9409  157.6509 C   0  0  0  0  0  0  0  0  0  0  0  0
  131.9033  131.1030  159.0079 C   0  0  0  0  0  0  0  0  0  0  0  0
  131.3861  132.2070  159.6594 C   0  0  0  0  0  0  0  0  0  0  0  0
  128.8319  134.7953  158.9756 C   0  0  0  0  0  0  0  0  0  0  0  0
  127.6130  134.2745  159.3677 C   0  0  0  0  0  0  0  0  0  0  0  0
  126.4519  134.6835  158.7389 C   0  0  0  0  0  0  0  0  0  0  0  0
  126.5107  135.6068  157.7118 C   0  0  0  0  0  0  0  0  0  0  0  0
  127.7302  136.1238  157.3161 C   0  0  0  0  0  0  0  0  0  0  0  0
  128.8908  135.7179  157.9478 C   0  0  0  0  0  0  0  0  0  0  0  0
  132.3131  135.0123  160.3027 C   0  0  0  0  0  0  0  0  0  0  0  0
  133.3433  136.1428  160.2537 C   0  0  0  0  0  0  0  0  0  0  0  0
  134.1632  138.8852  162.1554 C   0  0  0  0  0  0  0  0  0  0  0  0
  133.6286  138.3277  163.4494 C   0  0  2  0  0  0  0  0  0  0  0  0
  134.0817  138.8542  164.2893 H   0  0  0  0  0  0  0  0  0  0  0  0
  133.9574  136.8369  163.5405 C   0  0  0  0  0  0  0  0  0  0  0  0
  132.9125  136.0527  164.3504 C   0  0  0  0  0  0  0  0  0  0  0  0
  131.6350  137.2896  164.7990 S   0  0  0  0  0  0  0  0  0  0  0  0
  132.0882  138.5079  163.4968 C   0  0  0  0  0  0  0  0  0  0  0  0
  136.2530  141.2943  165.3571 H   0  0  0  0  0  0  0  0  0  0  0  0
  136.3087  141.2354  160.9792 H   0  0  0  0  0  0  0  0  0  0  0  0
  135.5284  140.3104  158.8396 H   0  0  0  0  0  0  0  0  0  0  0  0
  133.8910  138.4763  158.8089 H   0  0  0  0  0  0  0  0  0  0  0  0
  131.7439  138.0270  159.2381 H   0  0  0  0  0  0  0  0  0  0  0  0
  131.1430  138.6270  160.8030 H   0  0  0  0  0  0  0  0  0  0  0  0
  129.6071  136.9294  159.8351 H   0  0  0  0  0  0  0  0  0  0  0  0
  130.3203  136.3614  161.3638 H   0  0  0  0  0  0  0  0  0  0  0  0
  129.8755  134.0930  160.6994 H   0  0  0  0  0  0  0  0  0  0  0  0
  129.8781  133.7181  157.0477 H   0  0  0  0  0  0  0  0  0  0  0  0
  130.8070  131.7561  155.8854 H   0  0  0  0  0  0  0  0  0  0  0  0
  132.0998  130.0788  157.1417 H   0  0  0  0  0  0  0  0  0  0  0  0
  132.4704  130.3674  159.5589 H   0  0  0  0  0  0  0  0  0  0  0  0
  131.5487  132.3337  160.7196 H   0  0  0  0  0  0  0  0  0  0  0  0
  127.5675  133.5503  160.1678 H   0  0  0  0  0  0  0  0  0  0  0  0
  125.4993  134.2799  159.0484 H   0  0  0  0  0  0  0  0  0  0  0  0
  125.6038  135.9245  157.2188 H   0  0  0  0  0  0  0  0  0  0  0  0
  127.7761  136.8452  156.5137 H   0  0  0  0  0  0  0  0  0  0  0  0
  129.8434  136.1218  157.6386 H   0  0  0  0  0  0  0  0  0  0  0  0
  132.0948  134.7645  161.3415 H   0  0  0  0  0  0  0  0  0  0  0  0
  132.7131  134.1341  159.7960 H   0  0  0  0  0  0  0  0  0  0  0  0
  133.5720  136.3817  159.2152 H   0  0  0  0  0  0  0  0  0  0  0  0
  134.2538  135.8279  160.7635 H   0  0  0  0  0  0  0  0  0  0  0  0
  134.0054  136.4239  162.5329 H   0  0  0  0  0  0  0  0  0  0  0  0
  134.9320  136.7188  164.0139 H   0  0  0  0  0  0  0  0  0  0  0  0
  132.4763  135.2615  163.7407 H   0  0  0  0  0  0  0  0  0  0  0  0
  133.3663  135.6320  165.2477 H   0  0  0  0  0  0  0  0  0  0  0  0
  131.8202  139.5212  163.7963 H   0  0  0  0  0  0  0  0  0  0  0  0
  131.6327  138.2493  162.5410 H   0  0  0  0  0  0  0  0  0  0  0  0
  1  2  3  0
  1 35  1  0
  2  3  1  0
  3 28  2  0
  3  4  1  0
  4  5  2  0
  4 36  1  0
  5  6  1  0
  5 37  1  0
  6  7  2  0
  6 38  1  0
  7  8  1  0
  7 28  1  0
  8 27  1  0
  8  9  1  0
  9 10  1  0
  9 39  1  0
  9 40  1  0
 10 11  1  0
 10 41  1  0
 10 42  1  0
 11 12  1  0
 11 13  1  0
 11 26  1  0
 13 14  1  0
 13 20  1  0
 13 43  1  0
 14 19  1  0
 14 15  2  0
 15 16  1  0
 15 44  1  0
 16 17  2  0
 16 45  1  0
 17 18  1  0
 17 46  1  0
 18 19  2  0
 18 47  1  0
 19 48  1  0
 20 25  1  0
 20 21  2  0
 21 22  1  0
 21 49  1  0
 22 23  2  0
 22 50  1  0
 23 24  1  0
 23 51  1  0
 24 25  2  0
 24 52  1  0
 25 53  1  0
 26 27  1  0
 26 54  1  0
 26 55  1  0
 27 56  1  0
 27 57  1  0
 28 29  1  0
 29 30  1  1
 29 34  1  0
 29 31  1  0
 31 32  1  0
 31 58  1  0
 31 59  1  0
 32 33  1  0
 32 60  1  0
 32 61  1  0
 33 34  1  0
 34 62  1  0
 34 63  1  0
M  CHG  1  11   1
M  END
>  <DOCK_score>  (1) 
-56.872292

>  <SMILES>  (1) 
C#Cc1cccc(N2CC[NH+](C(c3ccccc3)c3ccccc3)CC2)c1[C@@H]1CCSC1

$$$$
