Cc1cc(SC=Cc2ccccc2)ccc1C[NH+]1CCN([C@H](CCl)Cc2ccccc2)CC1
     RDKit          3D

 67 70  0  0  1  0  0  0  0  0999 V2000
  131.2741  139.1094  158.7724 C   0  0  0  0  0  0  0  0  0  0  0  0
  132.0188  138.3806  159.8613 C   0  0  0  0  0  0  0  0  0  0  0  0
  133.2943  138.7789  160.2102 C   0  0  0  0  0  0  0  0  0  0  0  0
  133.9817  138.1036  161.2112 C   0  0  0  0  0  0  0  0  0  0  0  0
  135.6114  138.6047  161.6558 S   0  0  0  0  0  0  0  0  0  0  0  0
  135.2376  139.7774  162.9167 C   0  0  0  0  0  0  0  0  0  0  0  0
  136.0968  139.9739  163.9238 C   0  0  0  0  0  0  0  0  0  0  0  0
  135.7868  140.9598  164.9758 C   0  0  0  0  0  0  0  0  0  0  0  0
  136.6445  142.0394  165.2008 C   0  0  0  0  0  0  0  0  0  0  0  0
  136.3459  142.9599  166.1836 C   0  0  0  0  0  0  0  0  0  0  0  0
  135.2052  142.8105  166.9526 C   0  0  0  0  0  0  0  0  0  0  0  0
  134.3535  141.7411  166.7386 C   0  0  0  0  0  0  0  0  0  0  0  0
  134.6368  140.8154  165.7561 C   0  0  0  0  0  0  0  0  0  0  0  0
  133.3786  137.0356  161.8650 C   0  0  0  0  0  0  0  0  0  0  0  0
  132.1014  136.6460  161.5143 C   0  0  0  0  0  0  0  0  0  0  0  0
  131.4220  137.3172  160.5135 C   0  0  0  0  0  0  0  0  0  0  0  0
  130.0280  136.8890  160.1337 C   0  0  0  0  0  0  0  0  0  0  0  0
  130.0989  135.8789  159.0695 N   0  0  0  0  0  0  0  0  0  0  0  0
  130.5616  136.2717  158.2635 H   0  0  0  0  0  0  0  0  0  0  0  0
  128.7400  135.4624  158.6988 C   0  0  0  0  0  0  0  0  0  0  0  0
  128.8127  134.4240  157.5772 C   0  0  0  0  0  0  0  0  0  0  0  0
  129.5906  133.2647  158.0365 N   0  0  0  0  0  0  0  0  0  0  0  0
  129.6356  132.2190  157.0058 C   0  0  2  0  0  0  0  0  0  0  0  0
  128.6608  132.1407  156.5246 H   0  0  0  0  0  0  0  0  0  0  0  0
  129.9939  130.8797  157.6531 C   0  0  0  0  0  0  0  0  0  0  0  0
  129.1393  130.7285  159.2334 Cl  0  0  0  0  0  0  0  0  0  0  0  0
  130.6929  132.5790  155.9600 C   0  0  0  0  0  0  0  0  0  0  0  0
  130.7392  131.5062  154.9027 C   0  0  0  0  0  0  0  0  0  0  0  0
  131.5920  130.4282  155.0487 C   0  0  0  0  0  0  0  0  0  0  0  0
  131.6310  129.4417  154.0812 C   0  0  0  0  0  0  0  0  0  0  0  0
  130.8249  129.5386  152.9624 C   0  0  0  0  0  0  0  0  0  0  0  0
  129.9759  130.6193  152.8137 C   0  0  0  0  0  0  0  0  0  0  0  0
  129.9330  131.6032  153.7839 C   0  0  0  0  0  0  0  0  0  0  0  0
  130.9460  133.6703  158.4348 C   0  0  0  0  0  0  0  0  0  0  0  0
  130.8558  134.7150  159.5493 C   0  0  0  0  0  0  0  0  0  0  0  0
  130.7691  139.9774  159.1960 H   0  0  0  0  0  0  0  0  0  0  0  0
  131.9780  139.4360  158.0070 H   0  0  0  0  0  0  0  0  0  0  0  0
  130.5369  138.4415  158.3269 H   0  0  0  0  0  0  0  0  0  0  0  0
  133.7583  139.6118  159.7029 H   0  0  0  0  0  0  0  0  0  0  0  0
  134.3171  140.3409  162.8744 H   0  0  0  0  0  0  0  0  0  0  0  0
  137.0172  139.4105  163.9663 H   0  0  0  0  0  0  0  0  0  0  0  0
  137.5373  142.1548  164.6042 H   0  0  0  0  0  0  0  0  0  0  0  0
  137.0062  143.7971  166.3561 H   0  0  0  0  0  0  0  0  0  0  0  0
  134.9787  143.5320  167.7237 H   0  0  0  0  0  0  0  0  0  0  0  0
  133.4650  141.6309  167.3425 H   0  0  0  0  0  0  0  0  0  0  0  0
  133.9717  139.9808  165.5907 H   0  0  0  0  0  0  0  0  0  0  0  0
  133.9083  136.5113  162.6466 H   0  0  0  0  0  0  0  0  0  0  0  0
  131.6320  135.8164  162.0220 H   0  0  0  0  0  0  0  0  0  0  0  0
  129.5282  136.4649  161.0046 H   0  0  0  0  0  0  0  0  0  0  0  0
  129.4668  137.7530  159.7777 H   0  0  0  0  0  0  0  0  0  0  0  0
  128.2443  135.0264  159.5661 H   0  0  0  0  0  0  0  0  0  0  0  0
  128.1754  136.3293  158.3554 H   0  0  0  0  0  0  0  0  0  0  0  0
  129.2960  134.8639  156.7050 H   0  0  0  0  0  0  0  0  0  0  0  0
  127.8050  134.1037  157.3123 H   0  0  0  0  0  0  0  0  0  0  0  0
  129.6892  130.0654  156.9959 H   0  0  0  0  0  0  0  0  0  0  0  0
  131.0706  130.8316  157.8163 H   0  0  0  0  0  0  0  0  0  0  0  0
  130.4376  133.5330  155.4987 H   0  0  0  0  0  0  0  0  0  0  0  0
  131.6678  132.6573  156.4411 H   0  0  0  0  0  0  0  0  0  0  0  0
  132.2251  130.3546  155.9206 H   0  0  0  0  0  0  0  0  0  0  0  0
  132.2946  128.5974  154.1970 H   0  0  0  0  0  0  0  0  0  0  0  0
  130.8585  128.7701  152.2043 H   0  0  0  0  0  0  0  0  0  0  0  0
  129.3463  130.6953  151.9396 H   0  0  0  0  0  0  0  0  0  0  0  0
  129.2701  132.4477  153.6675 H   0  0  0  0  0  0  0  0  0  0  0  0
  131.4646  134.0978  157.5766 H   0  0  0  0  0  0  0  0  0  0  0  0
  131.4949  132.8003  158.7953 H   0  0  0  0  0  0  0  0  0  0  0  0
  131.8597  135.0277  159.8362 H   0  0  0  0  0  0  0  0  0  0  0  0
  130.3492  134.2828  160.4123 H   0  0  0  0  0  0  0  0  0  0  0  0
  1  2  1  0
  1 36  1  0
  1 37  1  0
  1 38  1  0
  2 16  2  0
  2  3  1  0
  3  4  2  0
  3 39  1  0
  4  5  1  0
  4 14  1  0
  5  6  1  0
  6  7  2  0
  6 40  1  0
  7  8  1  0
  7 41  1  0
  8 13  1  0
  8  9  2  0
  9 10  1  0
  9 42  1  0
 10 11  2  0
 10 43  1  0
 11 12  1  0
 11 44  1  0
 12 13  2  0
 12 45  1  0
 13 46  1  0
 14 15  2  0
 14 47  1  0
 15 16  1  0
 15 48  1  0
 16 17  1  0
 17 18  1  0
 17 49  1  0
 17 50  1  0
 18 19  1  0
 18 35  1  0
 18 20  1  0
 20 21  1  0
 20 51  1  0
 20 52  1  0
 21 22  1  0
 21 53  1  0
 21 54  1  0
 22 23  1  0
 22 34  1  0
 23 24  1  6
 23 25  1  0
 23 27  1  0
 25 26  1  0
 25 55  1  0
 25 56  1  0
 27 28  1  0
 27 57  1  0
 27 58  1  0
 28 33  1  0
 28 29  2  0
 29 30  1  0
 29 59  1  0
 30 31  2  0
 30 60  1  0
 31 32  1  0
 31 61  1  0
 32 33  2  0
 32 62  1  0
 33 63  1  0
 34 35  1  0
 34 64  1  0
 34 65  1  0
 35 66  1  0
 35 67  1  0
M  CHG  1  18   1
M  END
>  <DOCK_score>  (1) 
-58.907234

>  <SMILES>  (1) 
Cc1cc(SC=Cc2ccccc2)ccc1C[NH+]1CCN([C@H](CCl)Cc2ccccc2)CC1

$$$$
