Brc1ccc(-c2c[nH]c(NCc3cn(-c4ccccc4)nc3-c3ccccc3)[nH+]2)cc1
     RDKit          3D

 52 56  0  0  1  0  0  0  0  0999 V2000
  130.9447  129.7787  152.4039 Br  0  0  0  0  0  0  0  0  0  0  0  0
  130.8737  130.7123  154.0467 C   0  0  0  0  0  0  0  0  0  0  0  0
  130.5102  132.0479  154.0658 C   0  0  0  0  0  0  0  0  0  0  0  0
  130.4569  132.7339  155.2619 C   0  0  0  0  0  0  0  0  0  0  0  0
  130.7693  132.0796  156.4522 C   0  0  0  0  0  0  0  0  0  0  0  0
  130.7135  132.8120  157.7410 C   0  0  0  0  0  0  0  0  0  0  0  0
  130.4241  132.2751  158.9521 C   0  0  0  0  0  0  0  0  0  0  0  0
  130.4867  133.2981  159.8669 N   0  0  0  0  0  0  0  0  0  0  0  0
  130.3309  133.2255  160.8216 H   0  0  0  0  0  0  0  0  0  0  0  0
  130.8047  134.4328  159.1861 C   0  0  0  0  0  0  0  0  0  0  0  0
  130.9624  135.6902  159.7434 N   0  0  0  0  0  0  0  0  0  0  0  0
  131.2223  135.8280  161.1786 C   0  0  0  0  0  0  0  0  0  0  0  0
  130.6484  137.1318  161.6702 C   0  0  0  0  0  0  0  0  0  0  0  0
  129.4015  137.3192  162.1546 C   0  0  0  0  0  0  0  0  0  0  0  0
  129.2760  138.6307  162.4860 N   0  0  0  0  0  0  0  0  0  0  0  0
  128.1332  139.2387  163.0225 C   0  0  0  0  0  0  0  0  0  0  0  0
  128.1403  140.5958  163.3166 C   0  0  0  0  0  0  0  0  0  0  0  0
  127.0123  141.1923  163.8449 C   0  0  0  0  0  0  0  0  0  0  0  0
  125.8766  140.4395  164.0812 C   0  0  0  0  0  0  0  0  0  0  0  0
  125.8665  139.0879  163.7895 C   0  0  0  0  0  0  0  0  0  0  0  0
  126.9913  138.4855  163.2608 C   0  0  0  0  0  0  0  0  0  0  0  0
  130.4911  139.2674  162.2029 N   0  0  0  0  0  0  0  0  0  0  0  0
  131.3198  138.3698  161.7120 C   0  0  0  0  0  0  0  0  0  0  0  0
  132.7168  138.6184  161.2784 C   0  0  0  0  0  0  0  0  0  0  0  0
  133.6544  139.1065  162.1863 C   0  0  0  0  0  0  0  0  0  0  0  0
  134.9539  139.3311  161.7789 C   0  0  0  0  0  0  0  0  0  0  0  0
  135.3233  139.0833  160.4691 C   0  0  0  0  0  0  0  0  0  0  0  0
  134.3954  138.6038  159.5623 C   0  0  0  0  0  0  0  0  0  0  0  0
  133.0946  138.3702  159.9603 C   0  0  0  0  0  0  0  0  0  0  0  0
  130.9425  134.1377  157.9165 N   0  0  0  0  0  0  0  0  0  0  0  0
  131.1716  134.7667  157.2146 H   0  0  0  0  0  0  0  0  0  0  0  0
  131.1398  130.7363  156.4270 C   0  0  0  0  0  0  0  0  0  0  0  0
  131.1850  130.0580  155.2260 C   0  0  0  0  0  0  0  0  0  0  0  0
  130.2684  132.5541  153.1428 H   0  0  0  0  0  0  0  0  0  0  0  0
  130.1731  133.7759  155.2758 H   0  0  0  0  0  0  0  0  0  0  0  0
  130.1927  131.2406  159.1586 H   0  0  0  0  0  0  0  0  0  0  0  0
  130.9008  136.4800  159.1838 H   0  0  0  0  0  0  0  0  0  0  0  0
  132.2977  135.8144  161.3561 H   0  0  0  0  0  0  0  0  0  0  0  0
  130.7553  135.0008  161.7135 H   0  0  0  0  0  0  0  0  0  0  0  0
  128.6390  136.5613  162.2582 H   0  0  0  0  0  0  0  0  0  0  0  0
  129.0268  141.1843  163.1319 H   0  0  0  0  0  0  0  0  0  0  0  0
  127.0186  142.2468  164.0781 H   0  0  0  0  0  0  0  0  0  0  0  0
  124.9958  140.9081  164.4947 H   0  0  0  0  0  0  0  0  0  0  0  0
  124.9779  138.5025  163.9751 H   0  0  0  0  0  0  0  0  0  0  0  0
  126.9827  137.4299  163.0329 H   0  0  0  0  0  0  0  0  0  0  0  0
  133.3660  139.3045  163.2080 H   0  0  0  0  0  0  0  0  0  0  0  0
  135.6825  139.7051  162.4828 H   0  0  0  0  0  0  0  0  0  0  0  0
  136.3400  139.2646  160.1533 H   0  0  0  0  0  0  0  0  0  0  0  0
  134.6893  138.4114  158.5410 H   0  0  0  0  0  0  0  0  0  0  0  0
  132.3710  137.9955  159.2515 H   0  0  0  0  0  0  0  0  0  0  0  0
  131.3875  130.2260  157.3459 H   0  0  0  0  0  0  0  0  0  0  0  0
  131.4684  129.0161  155.2057 H   0  0  0  0  0  0  0  0  0  0  0  0
  1  2  1  0
  2 33  2  0
  2  3  1  0
  3  4  2  0
  3 34  1  0
  4  5  1  0
  4 35  1  0
  5  6  1  0
  5 32  2  0
  6 30  1  0
  6  7  2  0
  7  8  1  0
  7 36  1  0
  8  9  1  0
  8 10  1  0
 10 11  1  0
 10 30  2  0
 11 12  1  0
 11 37  1  0
 12 13  1  0
 12 38  1  0
 12 39  1  0
 13 23  1  0
 13 14  2  0
 14 15  1  0
 14 40  1  0
 15 16  1  0
 15 22  1  0
 16 21  1  0
 16 17  2  0
 17 18  1  0
 17 41  1  0
 18 19  2  0
 18 42  1  0
 19 20  1  0
 19 43  1  0
 20 21  2  0
 20 44  1  0
 21 45  1  0
 22 23  2  0
 23 24  1  0
 24 29  1  0
 24 25  2  0
 25 26  1  0
 25 46  1  0
 26 27  2  0
 26 47  1  0
 27 28  1  0
 27 48  1  0
 28 29  2  0
 28 49  1  0
 29 50  1  0
 30 31  1  0
 32 33  1  0
 32 51  1  0
 33 52  1  0
M  CHG  1  30   1
M  END
>  <DOCK_score>  (1) 
-58.899696

>  <SMILES>  (1) 
Brc1ccc(-c2c[nH]c(NCc3cn(-c4ccccc4)nc3-c3ccccc3)[nH+]2)cc1

$$$$
