Nc1ccc(SC2=CCC2)c(Nc2[nH]cc(-c3ccc(Br)cc3)[nH+]2)c1
     RDKit          3D

 43 46  0  0  1  0  0  0  0  0999 V2000
  127.4398  135.4813  162.6669 N   0  0  0  0  0  0  0  0  0  0  0  0
  128.7843  135.5352  162.2824 C   0  0  0  0  0  0  0  0  0  0  0  0
  129.7676  135.7847  163.2311 C   0  0  0  0  0  0  0  0  0  0  0  0
  131.0964  135.8387  162.8551 C   0  0  0  0  0  0  0  0  0  0  0  0
  131.4517  135.6438  161.5285 C   0  0  0  0  0  0  0  0  0  0  0  0
  133.1462  135.7129  161.0503 S   0  0  0  0  0  0  0  0  0  0  0  0
  133.3773  137.4143  160.6548 C   0  0  0  0  0  0  0  0  0  0  0  0
  134.1518  138.0858  159.8192 C   0  0  0  0  0  0  0  0  0  0  0  0
  133.6782  139.4769  160.1560 C   0  0  0  0  0  0  0  0  0  0  0  0
  132.7798  138.7135  161.1321 C   0  0  0  0  0  0  0  0  0  0  0  0
  130.4663  135.3926  160.5734 C   0  0  0  0  0  0  0  0  0  0  0  0
  130.8220  135.1955  159.2339 N   0  0  0  0  0  0  0  0  0  0  0  0
  130.5113  134.0022  158.6034 C   0  0  0  0  0  0  0  0  0  0  0  0
  129.8658  132.9484  159.1741 N   0  0  0  0  0  0  0  0  0  0  0  0
  129.5437  132.8983  160.0877 H   0  0  0  0  0  0  0  0  0  0  0  0
  129.7557  131.9687  158.2177 C   0  0  0  0  0  0  0  0  0  0  0  0
  130.3310  132.4536  157.0893 C   0  0  0  0  0  0  0  0  0  0  0  0
  130.4413  131.7440  155.7913 C   0  0  0  0  0  0  0  0  0  0  0  0
  129.8541  132.2825  154.6478 C   0  0  0  0  0  0  0  0  0  0  0  0
  129.9640  131.6210  153.4418 C   0  0  0  0  0  0  0  0  0  0  0  0
  130.6460  130.4192  153.3686 C   0  0  0  0  0  0  0  0  0  0  0  0
  130.7859  129.5145  151.7141 Br  0  0  0  0  0  0  0  0  0  0  0  0
  131.2268  129.8771  154.5027 C   0  0  0  0  0  0  0  0  0  0  0  0
  131.1276  130.5335  155.7123 C   0  0  0  0  0  0  0  0  0  0  0  0
  130.7906  133.7010  157.3584 N   0  0  0  0  0  0  0  0  0  0  0  0
  131.2491  134.2795  156.7290 H   0  0  0  0  0  0  0  0  0  0  0  0
  129.1336  135.3442  160.9525 C   0  0  0  0  0  0  0  0  0  0  0  0
  127.1949  135.6179  163.5954 H   0  0  0  0  0  0  0  0  0  0  0  0
  126.7526  135.3071  162.0048 H   0  0  0  0  0  0  0  0  0  0  0  0
  129.4933  135.9370  164.2646 H   0  0  0  0  0  0  0  0  0  0  0  0
  131.8590  136.0332  163.5948 H   0  0  0  0  0  0  0  0  0  0  0  0
  134.8945  137.7433  159.1139 H   0  0  0  0  0  0  0  0  0  0  0  0
  133.1428  139.9808  159.3512 H   0  0  0  0  0  0  0  0  0  0  0  0
  134.4318  140.1033  160.6334 H   0  0  0  0  0  0  0  0  0  0  0  0
  131.7187  138.8078  160.9017 H   0  0  0  0  0  0  0  0  0  0  0  0
  133.0007  138.9286  162.1776 H   0  0  0  0  0  0  0  0  0  0  0  0
  131.2860  135.8947  158.7474 H   0  0  0  0  0  0  0  0  0  0  0  0
  129.2945  130.9997  158.3395 H   0  0  0  0  0  0  0  0  0  0  0  0
  129.3173  133.2180  154.7048 H   0  0  0  0  0  0  0  0  0  0  0  0
  129.5132  132.0396  152.5542 H   0  0  0  0  0  0  0  0  0  0  0  0
  131.7580  128.9388  154.4404 H   0  0  0  0  0  0  0  0  0  0  0  0
  131.5812  130.1100  156.5964 H   0  0  0  0  0  0  0  0  0  0  0  0
  128.3682  135.1544  160.2146 H   0  0  0  0  0  0  0  0  0  0  0  0
  1  2  1  0
  1 28  1  0
  1 29  1  0
  2 27  2  0
  2  3  1  0
  3  4  2  0
  3 30  1  0
  4  5  1  0
  4 31  1  0
  5  6  1  0
  5 11  2  0
  6  7  1  0
  7 10  1  0
  7  8  2  0
  8  9  1  0
  8 32  1  0
  9 10  1  0
  9 33  1  0
  9 34  1  0
 10 35  1  0
 10 36  1  0
 11 12  1  0
 11 27  1  0
 12 37  1  0
 13 12  1  0
 13 25  2  0
 13 14  1  0
 14 15  1  0
 14 16  1  0
 16 17  2  0
 16 38  1  0
 17 18  1  0
 17 25  1  0
 18 24  1  0
 18 19  2  0
 19 20  1  0
 19 39  1  0
 20 21  2  0
 20 40  1  0
 21 22  1  0
 21 23  1  0
 23 24  2  0
 23 41  1  0
 24 42  1  0
 25 26  1  0
 27 43  1  0
M  CHG  1  25   1
M  END
>  <DOCK_score>  (1) 
-56.290359

>  <SMILES>  (1) 
Nc1ccc(SC2=CCC2)c(Nc2[nH]cc(-c3ccc(Br)cc3)[nH+]2)c1

$$$$
