Cc1cccc([C@@H](Nc2[nH]cc(-c3ccc(N)cc3)[nH+]2)c2ccc(Cl)cc2)c1
     RDKit          3D

 50 53  0  0  1  0  0  0  0  0999 V2000
  125.1619  134.4206  161.9926 C   0  0  0  0  0  0  0  0  0  0  0  0
  125.9657  134.8712  160.8002 C   0  0  0  0  0  0  0  0  0  0  0  0
  125.3281  135.1737  159.6112 C   0  0  0  0  0  0  0  0  0  0  0  0
  126.0653  135.5868  158.5175 C   0  0  0  0  0  0  0  0  0  0  0  0
  127.4400  135.6986  158.6126 C   0  0  0  0  0  0  0  0  0  0  0  0
  128.0773  135.3962  159.8012 C   0  0  0  0  0  0  0  0  0  0  0  0
  129.5758  135.5179  159.9049 C   0  0  1  0  0  0  0  0  0  0  0  0
  129.9501  134.7924  160.6270 H   0  0  0  0  0  0  0  0  0  0  0  0
  130.1786  135.2587  158.5950 N   0  0  0  0  0  0  0  0  0  0  0  0
  129.9845  134.0371  157.9732 C   0  0  0  0  0  0  0  0  0  0  0  0
  129.2534  133.0024  158.4696 N   0  0  0  0  0  0  0  0  0  0  0  0
  128.7789  132.9878  159.3156 H   0  0  0  0  0  0  0  0  0  0  0  0
  129.3120  131.9813  157.5510 C   0  0  0  0  0  0  0  0  0  0  0  0
  130.0764  132.4220  156.5215 C   0  0  0  0  0  0  0  0  0  0  0  0
  130.4176  131.6565  155.2974 C   0  0  0  0  0  0  0  0  0  0  0  0
  130.0399  132.1381  154.0449 C   0  0  0  0  0  0  0  0  0  0  0  0
  130.3628  131.4274  152.9081 C   0  0  0  0  0  0  0  0  0  0  0  0
  131.0541  130.2266  153.0109 C   0  0  0  0  0  0  0  0  0  0  0  0
  131.3750  129.5057  151.8582 N   0  0  0  0  0  0  0  0  0  0  0  0
  131.4273  129.7416  154.2592 C   0  0  0  0  0  0  0  0  0  0  0  0
  131.1115  130.4517  155.3983 C   0  0  0  0  0  0  0  0  0  0  0  0
  130.4699  133.6886  156.8065 N   0  0  0  0  0  0  0  0  0  0  0  0
  131.0240  134.2466  156.2386 H   0  0  0  0  0  0  0  0  0  0  0  0
  129.9365  136.9093  160.3573 C   0  0  0  0  0  0  0  0  0  0  0  0
  130.0465  137.1904  161.7065 C   0  0  0  0  0  0  0  0  0  0  0  0
  130.3829  138.4652  162.1218 C   0  0  0  0  0  0  0  0  0  0  0  0
  130.5984  139.4626  161.1875 C   0  0  0  0  0  0  0  0  0  0  0  0
  131.0134  141.0656  161.7088 Cl  0  0  0  0  0  0  0  0  0  0  0  0
  130.4826  139.1819  159.8378 C   0  0  0  0  0  0  0  0  0  0  0  0
  130.1518  137.9056  159.4233 C   0  0  0  0  0  0  0  0  0  0  0  0
  127.3400  134.9823  160.8950 C   0  0  0  0  0  0  0  0  0  0  0  0
  124.8681  135.2892  162.5819 H   0  0  0  0  0  0  0  0  0  0  0  0
  124.2703  133.8943  161.6520 H   0  0  0  0  0  0  0  0  0  0  0  0
  125.7659  133.7524  162.6064 H   0  0  0  0  0  0  0  0  0  0  0  0
  124.2542  135.0871  159.5371 H   0  0  0  0  0  0  0  0  0  0  0  0
  125.5672  135.8230  157.5887 H   0  0  0  0  0  0  0  0  0  0  0  0
  128.0155  136.0264  157.7596 H   0  0  0  0  0  0  0  0  0  0  0  0
  130.7137  135.9430  158.1634 H   0  0  0  0  0  0  0  0  0  0  0  0
  128.8397  131.0135  157.6335 H   0  0  0  0  0  0  0  0  0  0  0  0
  129.4984  133.0690  153.9647 H   0  0  0  0  0  0  0  0  0  0  0  0
  130.0742  131.8023  151.9373 H   0  0  0  0  0  0  0  0  0  0  0  0
  131.8580  128.6669  151.9296 H   0  0  0  0  0  0  0  0  0  0  0  0
  131.1153  129.8427  150.9871 H   0  0  0  0  0  0  0  0  0  0  0  0
  131.9645  128.8079  154.3370 H   0  0  0  0  0  0  0  0  0  0  0  0
  131.4020  130.0748  156.3679 H   0  0  0  0  0  0  0  0  0  0  0  0
  129.8740  136.4129  162.4358 H   0  0  0  0  0  0  0  0  0  0  0  0
  130.4731  138.6835  163.1756 H   0  0  0  0  0  0  0  0  0  0  0  0
  130.6511  139.9601  159.1079 H   0  0  0  0  0  0  0  0  0  0  0  0
  130.0617  137.6864  158.3697 H   0  0  0  0  0  0  0  0  0  0  0  0
  127.8380  134.7464  161.8239 H   0  0  0  0  0  0  0  0  0  0  0  0
  1  2  1  0
  1 32  1  0
  1 33  1  0
  1 34  1  0
  2 31  2  0
  2  3  1  0
  3  4  2  0
  3 35  1  0
  4  5  1  0
  4 36  1  0
  5  6  2  0
  5 37  1  0
  6  7  1  0
  6 31  1  0
  7  8  1  1
  7  9  1  0
  7 24  1  0
  9 38  1  0
 10  9  1  0
 10 22  2  0
 10 11  1  0
 11 12  1  0
 11 13  1  0
 13 14  2  0
 13 39  1  0
 14 15  1  0
 14 22  1  0
 15 21  1  0
 15 16  2  0
 16 17  1  0
 16 40  1  0
 17 18  2  0
 17 41  1  0
 18 19  1  0
 18 20  1  0
 19 42  1  0
 19 43  1  0
 20 21  2  0
 20 44  1  0
 21 45  1  0
 22 23  1  0
 24 30  1  0
 24 25  2  0
 25 26  1  0
 25 46  1  0
 26 27  2  0
 26 47  1  0
 27 28  1  0
 27 29  1  0
 29 30  2  0
 29 48  1  0
 30 49  1  0
 31 50  1  0
M  CHG  1  22   1
M  END
>  <DOCK_score>  (1) 
-63.874268

>  <SMILES>  (1) 
Cc1cccc([C@@H](Nc2[nH]cc(-c3ccc(N)cc3)[nH+]2)c2ccc(Cl)cc2)c1

$$$$
