CCc1cccc(-c2ccc(C[C@@H](CC)Nc3[nH]cc(-c4ccc(Br)cc4)[nH+]3)cc2)c1
     RDKit          3D

 60 63  0  0  1  0  0  0  0  0999 V2000
  137.9391  133.6089  163.8647 C   0  0  0  0  0  0  0  0  0  0  0  0
  137.8640  135.1284  163.7013 C   0  0  0  0  0  0  0  0  0  0  0  0
  136.5366  135.6237  164.2150 C   0  0  0  0  0  0  0  0  0  0  0  0
  136.4034  135.9915  165.5420 C   0  0  0  0  0  0  0  0  0  0  0  0
  135.1868  136.4414  166.0215 C   0  0  0  0  0  0  0  0  0  0  0  0
  134.1007  136.5360  165.1746 C   0  0  0  0  0  0  0  0  0  0  0  0
  134.2305  136.1721  163.8361 C   0  0  0  0  0  0  0  0  0  0  0  0
  133.0667  136.2719  162.9210 C   0  0  0  0  0  0  0  0  0  0  0  0
  133.2625  136.5338  161.5665 C   0  0  0  0  0  0  0  0  0  0  0  0
  132.1767  136.6214  160.7192 C   0  0  0  0  0  0  0  0  0  0  0  0
  130.8953  136.4598  161.2140 C   0  0  0  0  0  0  0  0  0  0  0  0
  129.7132  136.5627  160.2850 C   0  0  0  0  0  0  0  0  0  0  0  0
  129.3920  135.1805  159.7130 C   0  0  1  0  0  0  0  0  0  0  0  0
  129.5040  134.4290  160.4946 H   0  0  0  0  0  0  0  0  0  0  0  0
  127.9530  135.1653  159.1935 C   0  0  0  0  0  0  0  0  0  0  0  0
  127.7957  136.2201  158.0966 C   0  0  0  0  0  0  0  0  0  0  0  0
  130.3117  134.8816  158.6126 N   0  0  0  0  0  0  0  0  0  0  0  0
  130.2131  133.6780  157.9357 C   0  0  0  0  0  0  0  0  0  0  0  0
  129.7706  132.5049  158.4649 N   0  0  0  0  0  0  0  0  0  0  0  0
  129.4704  132.3627  159.3762 H   0  0  0  0  0  0  0  0  0  0  0  0
  129.8274  131.5591  157.4699 C   0  0  0  0  0  0  0  0  0  0  0  0
  130.3027  132.1810  156.3625 C   0  0  0  0  0  0  0  0  0  0  0  0
  130.5326  131.5520  155.0391 C   0  0  0  0  0  0  0  0  0  0  0  0
  129.8543  132.0199  153.9150 C   0  0  0  0  0  0  0  0  0  0  0  0
  130.0764  131.4353  152.6850 C   0  0  0  0  0  0  0  0  0  0  0  0
  130.9619  130.3777  152.5685 C   0  0  0  0  0  0  0  0  0  0  0  0
  131.2551  129.5758  150.8812 Br  0  0  0  0  0  0  0  0  0  0  0  0
  131.6338  129.9054  153.6827 C   0  0  0  0  0  0  0  0  0  0  0  0
  131.4235  130.4870  154.9162 C   0  0  0  0  0  0  0  0  0  0  0  0
  130.5252  133.4817  156.6779 N   0  0  0  0  0  0  0  0  0  0  0  0
  130.8634  134.1578  156.0702 H   0  0  0  0  0  0  0  0  0  0  0  0
  130.6946  136.2044  162.5584 C   0  0  0  0  0  0  0  0  0  0  0  0
  131.7736  136.1100  163.4141 C   0  0  0  0  0  0  0  0  0  0  0  0
  135.4574  135.7142  163.3597 C   0  0  0  0  0  0  0  0  0  0  0  0
  137.1333  133.1423  163.2982 H   0  0  0  0  0  0  0  0  0  0  0  0
  138.8992  133.2507  163.4931 H   0  0  0  0  0  0  0  0  0  0  0  0
  137.8386  133.3515  164.9190 H   0  0  0  0  0  0  0  0  0  0  0  0
  137.9645  135.3859  162.6470 H   0  0  0  0  0  0  0  0  0  0  0  0
  138.6698  135.5950  164.2677 H   0  0  0  0  0  0  0  0  0  0  0  0
  137.2517  135.9233  166.2069 H   0  0  0  0  0  0  0  0  0  0  0  0
  135.0873  136.7237  167.0592 H   0  0  0  0  0  0  0  0  0  0  0  0
  133.1522  136.8916  165.5490 H   0  0  0  0  0  0  0  0  0  0  0  0
  134.2625  136.6647  161.1800 H   0  0  0  0  0  0  0  0  0  0  0  0
  132.3277  136.8207  159.6685 H   0  0  0  0  0  0  0  0  0  0  0  0
  128.8501  136.9379  160.8351 H   0  0  0  0  0  0  0  0  0  0  0  0
  129.9500  137.2469  159.4701 H   0  0  0  0  0  0  0  0  0  0  0  0
  127.7241  134.1805  158.7861 H   0  0  0  0  0  0  0  0  0  0  0  0
  127.2687  135.3878  160.0123 H   0  0  0  0  0  0  0  0  0  0  0  0
  128.4799  135.9978  157.2778 H   0  0  0  0  0  0  0  0  0  0  0  0
  126.7705  136.2094  157.7264 H   0  0  0  0  0  0  0  0  0  0  0  0
  128.0245  137.2050  158.5039 H   0  0  0  0  0  0  0  0  0  0  0  0
  130.9897  135.5269  158.3583 H   0  0  0  0  0  0  0  0  0  0  0  0
  129.5469  130.5195  157.5536 H   0  0  0  0  0  0  0  0  0  0  0  0
  129.1594  132.8416  154.0058 H   0  0  0  0  0  0  0  0  0  0  0  0
  129.5549  131.8003  151.8125 H   0  0  0  0  0  0  0  0  0  0  0  0
  132.3237  129.0800  153.5864 H   0  0  0  0  0  0  0  0  0  0  0  0
  131.9485  130.1180  155.7849 H   0  0  0  0  0  0  0  0  0  0  0  0
  129.6920  136.0789  162.9396 H   0  0  0  0  0  0  0  0  0  0  0  0
  131.6158  135.9111  164.4639 H   0  0  0  0  0  0  0  0  0  0  0  0
  135.5635  135.4304  162.3230 H   0  0  0  0  0  0  0  0  0  0  0  0
  1  2  1  0
  1 35  1  0
  1 36  1  0
  1 37  1  0
  2  3  1  0
  2 38  1  0
  2 39  1  0
  3 34  2  0
  3  4  1  0
  4  5  2  0
  4 40  1  0
  5  6  1  0
  5 41  1  0
  6  7  2  0
  6 42  1  0
  7  8  1  0
  7 34  1  0
  8 33  1  0
  8  9  2  0
  9 10  1  0
  9 43  1  0
 10 11  2  0
 10 44  1  0
 11 12  1  0
 11 32  1  0
 12 13  1  0
 12 45  1  0
 12 46  1  0
 13 14  1  1
 13 15  1  0
 13 17  1  0
 15 16  1  0
 15 47  1  0
 15 48  1  0
 16 49  1  0
 16 50  1  0
 16 51  1  0
 17 52  1  0
 18 17  1  0
 18 30  2  0
 18 19  1  0
 19 20  1  0
 19 21  1  0
 21 22  2  0
 21 53  1  0
 22 23  1  0
 22 30  1  0
 23 29  1  0
 23 24  2  0
 24 25  1  0
 24 54  1  0
 25 26  2  0
 25 55  1  0
 26 27  1  0
 26 28  1  0
 28 29  2  0
 28 56  1  0
 29 57  1  0
 30 31  1  0
 32 33  2  0
 32 58  1  0
 33 59  1  0
 34 60  1  0
M  CHG  1  30   1
M  END
>  <DOCK_score>  (1) 
-57.114262

>  <SMILES>  (1) 
CCc1cccc(-c2ccc(C[C@@H](CC)Nc3[nH]cc(-c4ccc(Br)cc4)[nH+]3)cc2)c1

$$$$
