Clc1ccccc1[C@H](c1ccccc1)[NH+]1CCN(c2ccccc2CCC=C2C=CCC2)CC1
     RDKit          3D

 68 72  0  0  1  0  0  0  0  0999 V2000
  130.6905  132.7839  162.3278 Cl  0  0  0  0  0  0  0  0  0  0  0  0
  131.0427  132.5578  160.6430 C   0  0  0  0  0  0  0  0  0  0  0  0
  131.5624  131.3543  160.1999 C   0  0  0  0  0  0  0  0  0  0  0  0
  131.8477  131.1768  158.8595 C   0  0  0  0  0  0  0  0  0  0  0  0
  131.6093  132.1996  157.9603 C   0  0  0  0  0  0  0  0  0  0  0  0
  131.0849  133.4000  158.4014 C   0  0  0  0  0  0  0  0  0  0  0  0
  130.7985  133.5786  159.7419 C   0  0  0  0  0  0  0  0  0  0  0  0
  130.2263  134.8872  160.2225 C   0  0  2  0  0  0  0  0  0  0  0  0
  130.0724  134.8423  161.3007 H   0  0  0  0  0  0  0  0  0  0  0  0
  128.9082  135.1410  159.5372 C   0  0  0  0  0  0  0  0  0  0  0  0
  127.7347  134.6790  160.1031 C   0  0  0  0  0  0  0  0  0  0  0  0
  126.5254  134.9153  159.4764 C   0  0  0  0  0  0  0  0  0  0  0  0
  126.4905  135.6060  158.2795 C   0  0  0  0  0  0  0  0  0  0  0  0
  127.6646  136.0638  157.7112 C   0  0  0  0  0  0  0  0  0  0  0  0
  128.8735  135.8309  158.3398 C   0  0  0  0  0  0  0  0  0  0  0  0
  131.1604  135.9758  159.9060 N   0  0  0  0  0  0  0  0  0  0  0  0
  131.3025  136.0170  158.9079 H   0  0  0  0  0  0  0  0  0  0  0  0
  130.6019  137.2513  160.3738 C   0  0  0  0  0  0  0  0  0  0  0  0
  131.5661  138.3881  160.0274 C   0  0  0  0  0  0  0  0  0  0  0  0
  132.8647  138.1376  160.6685 N   0  0  0  0  0  0  0  0  0  0  0  0
  133.7562  139.1834  160.4189 C   0  0  0  0  0  0  0  0  0  0  0  0
  134.1092  139.5006  159.1130 C   0  0  0  0  0  0  0  0  0  0  0  0
  134.9952  140.5314  158.8700 C   0  0  0  0  0  0  0  0  0  0  0  0
  135.5226  141.2550  159.9242 C   0  0  0  0  0  0  0  0  0  0  0  0
  135.1738  140.9417  161.2248 C   0  0  0  0  0  0  0  0  0  0  0  0
  134.2921  139.9084  161.4754 C   0  0  0  0  0  0  0  0  0  0  0  0
  133.9117  139.5684  162.8933 C   0  0  0  0  0  0  0  0  0  0  0  0
  134.6364  140.5112  163.8560 C   0  0  0  0  0  0  0  0  0  0  0  0
  134.2560  140.1711  165.2740 C   0  0  0  0  0  0  0  0  0  0  0  0
  134.7690  140.8650  166.2841 C   0  0  0  0  0  0  0  0  0  0  0  0
  135.7180  141.9798  166.1799 C   0  0  0  0  0  0  0  0  0  0  0  0
  136.0427  142.4703  167.3606 C   0  0  0  0  0  0  0  0  0  0  0  0
  135.3382  141.7186  168.4617 C   0  0  0  0  0  0  0  0  0  0  0  0
  134.4878  140.6477  167.7559 C   0  0  0  0  0  0  0  0  0  0  0  0
  133.4246  136.8518  160.2287 C   0  0  0  0  0  0  0  0  0  0  0  0
  132.4451  135.7278  160.5734 C   0  0  0  0  0  0  0  0  0  0  0  0
  131.7491  130.5553  160.9023 H   0  0  0  0  0  0  0  0  0  0  0  0
  132.2570  130.2388  158.5142 H   0  0  0  0  0  0  0  0  0  0  0  0
  131.8324  132.0605  156.9129 H   0  0  0  0  0  0  0  0  0  0  0  0
  130.8985  134.1985  157.6985 H   0  0  0  0  0  0  0  0  0  0  0  0
  127.7623  134.1362  161.0363 H   0  0  0  0  0  0  0  0  0  0  0  0
  125.6082  134.5573  159.9203 H   0  0  0  0  0  0  0  0  0  0  0  0
  125.5461  135.7876  157.7882 H   0  0  0  0  0  0  0  0  0  0  0  0
  127.6373  136.6030  156.7758 H   0  0  0  0  0  0  0  0  0  0  0  0
  129.7907  136.1882  157.8955 H   0  0  0  0  0  0  0  0  0  0  0  0
  130.4601  137.2115  161.4537 H   0  0  0  0  0  0  0  0  0  0  0  0
  129.6425  137.4279  159.8875 H   0  0  0  0  0  0  0  0  0  0  0  0
  131.1588  139.3327  160.3876 H   0  0  0  0  0  0  0  0  0  0  0  0
  131.6975  138.4369  158.9465 H   0  0  0  0  0  0  0  0  0  0  0  0
  133.6946  138.9384  158.2892 H   0  0  0  0  0  0  0  0  0  0  0  0
  135.2736  140.7754  157.8554 H   0  0  0  0  0  0  0  0  0  0  0  0
  136.2116  142.0638  159.7310 H   0  0  0  0  0  0  0  0  0  0  0  0
  135.5909  141.5059  162.0459 H   0  0  0  0  0  0  0  0  0  0  0  0
  132.8345  139.6802  163.0173 H   0  0  0  0  0  0  0  0  0  0  0  0
  134.1974  138.5388  163.1092 H   0  0  0  0  0  0  0  0  0  0  0  0
  135.7136  140.3994  163.7321 H   0  0  0  0  0  0  0  0  0  0  0  0
  134.3508  141.5408  163.6401 H   0  0  0  0  0  0  0  0  0  0  0  0
  133.5661  139.3633  165.4689 H   0  0  0  0  0  0  0  0  0  0  0  0
  136.1040  142.3567  165.2442 H   0  0  0  0  0  0  0  0  0  0  0  0
  136.7230  143.2941  167.5175 H   0  0  0  0  0  0  0  0  0  0  0  0
  134.6980  142.3942  169.0290 H   0  0  0  0  0  0  0  0  0  0  0  0
  136.0657  141.2466  169.1221 H   0  0  0  0  0  0  0  0  0  0  0  0
  133.4295  140.7991  167.9689 H   0  0  0  0  0  0  0  0  0  0  0  0
  134.8007  139.6492  168.0610 H   0  0  0  0  0  0  0  0  0  0  0  0
  133.5867  136.8754  159.1511 H   0  0  0  0  0  0  0  0  0  0  0  0
  134.3733  136.6757  160.7358 H   0  0  0  0  0  0  0  0  0  0  0  0
  132.2938  135.6958  161.6523 H   0  0  0  0  0  0  0  0  0  0  0  0
  132.8522  134.7748  160.2352 H   0  0  0  0  0  0  0  0  0  0  0  0
  1  2  1  0
  2  7  2  0
  2  3  1  0
  3  4  2  0
  3 37  1  0
  4  5  1  0
  4 38  1  0
  5  6  2  0
  5 39  1  0
  6  7  1  0
  6 40  1  0
  7  8  1  0
  8  9  1  1
  8 10  1  0
  8 16  1  0
 10 15  1  0
 10 11  2  0
 11 12  1  0
 11 41  1  0
 12 13  2  0
 12 42  1  0
 13 14  1  0
 13 43  1  0
 14 15  2  0
 14 44  1  0
 15 45  1  0
 16 17  1  0
 16 36  1  0
 16 18  1  0
 18 19  1  0
 18 46  1  0
 18 47  1  0
 19 20  1  0
 19 48  1  0
 19 49  1  0
 20 21  1  0
 20 35  1  0
 21 26  1  0
 21 22  2  0
 22 23  1  0
 22 50  1  0
 23 24  2  0
 23 51  1  0
 24 25  1  0
 24 52  1  0
 25 26  2  0
 25 53  1  0
 26 27  1  0
 27 28  1  0
 27 54  1  0
 27 55  1  0
 28 29  1  0
 28 56  1  0
 28 57  1  0
 29 30  2  0
 29 58  1  0
 30 34  1  0
 30 31  1  0
 31 32  2  0
 31 59  1  0
 32 33  1  0
 32 60  1  0
 33 34  1  0
 33 61  1  0
 33 62  1  0
 34 63  1  0
 34 64  1  0
 35 36  1  0
 35 65  1  0
 35 66  1  0
 36 67  1  0
 36 68  1  0
M  CHG  1  16   1
M  END
>  <DOCK_score>  (1) 
-60.753311

>  <SMILES>  (1) 
Clc1ccccc1[C@H](c1ccccc1)[NH+]1CCN(c2ccccc2CCC=C2C=CCC2)CC1

$$$$
