O=C1CC[C@H](NC(NC2CC2)=[NH+][C@H]2COc3ccc(NCC4CC4)cc3C2)CN1
     RDKit          3D

 61 65  0  0  1  0  0  0  0  0999 V2000
  123.8715  133.6532  161.7997 O   0  0  0  0  0  0  0  0  0  0  0  0
  125.0198  133.9184  161.5135 C   0  0  0  0  0  0  0  0  0  0  0  0
  125.9291  132.7941  161.1081 C   0  0  0  0  0  0  0  0  0  0  0  0
  127.3892  133.2413  161.2135 C   0  0  0  0  0  0  0  0  0  0  0  0
  127.5340  134.5942  160.5064 C   0  0  2  0  0  0  0  0  0  0  0  0
  127.1258  134.5255  159.4982 H   0  0  0  0  0  0  0  0  0  0  0  0
  128.9497  134.9647  160.4393 N   0  0  0  0  0  0  0  0  0  0  0  0
  129.7104  134.5809  159.3603 C   0  0  0  0  0  0  0  0  0  0  0  0
  129.1423  133.8492  158.3442 N   0  0  0  0  0  0  0  0  0  0  0  0
  129.9530  133.4401  157.1944 C   0  0  0  0  0  0  0  0  0  0  0  0
  129.4580  132.2512  156.3685 C   0  0  0  0  0  0  0  0  0  0  0  0
  130.6749  132.0940  157.2823 C   0  0  0  0  0  0  0  0  0  0  0  0
  130.9686  134.9151  159.2979 N   0  0  0  0  0  0  0  0  0  0  0  0
  131.3919  135.0517  158.4359 H   0  0  0  0  0  0  0  0  0  0  0  0
  131.7437  135.0844  160.5296 C   0  0  1  0  0  0  0  0  0  0  0  0
  131.1075  134.8914  161.3934 H   0  0  0  0  0  0  0  0  0  0  0  0
  132.9290  134.1105  160.5327 C   0  0  0  0  0  0  0  0  0  0  0  0
  133.6032  134.2256  161.7864 O   0  0  0  0  0  0  0  0  0  0  0  0
  133.9200  135.4727  162.2258 C   0  0  0  0  0  0  0  0  0  0  0  0
  134.8724  135.5979  163.2326 C   0  0  0  0  0  0  0  0  0  0  0  0
  135.2203  136.8439  163.7106 C   0  0  0  0  0  0  0  0  0  0  0  0
  134.6173  137.9796  163.1858 C   0  0  0  0  0  0  0  0  0  0  0  0
  134.9660  139.2459  163.6687 N   0  0  0  0  0  0  0  0  0  0  0  0
  135.9684  139.3749  164.7294 C   0  0  0  0  0  0  0  0  0  0  0  0
  136.1624  140.8538  165.0705 C   0  0  0  0  0  0  0  0  0  0  0  0
  136.5319  141.2033  166.5135 C   0  0  0  0  0  0  0  0  0  0  0  0
  135.1274  141.5090  165.9873 C   0  0  0  0  0  0  0  0  0  0  0  0
  133.6690  137.8554  162.1814 C   0  0  0  0  0  0  0  0  0  0  0  0
  133.3219  136.6041  161.7002 C   0  0  0  0  0  0  0  0  0  0  0  0
  132.2929  136.5112  160.6016 C   0  0  0  0  0  0  0  0  0  0  0  0
  126.7644  135.6505  161.3006 C   0  0  0  0  0  0  0  0  0  0  0  0
  125.4073  135.1929  161.5751 N   0  0  0  0  0  0  0  0  0  0  0  0
  125.7120  132.5058  160.0795 H   0  0  0  0  0  0  0  0  0  0  0  0
  125.7637  131.9399  161.7648 H   0  0  0  0  0  0  0  0  0  0  0  0
  128.0340  132.5053  160.7332 H   0  0  0  0  0  0  0  0  0  0  0  0
  127.6667  133.3439  162.2626 H   0  0  0  0  0  0  0  0  0  0  0  0
  129.3505  135.4809  161.1561 H   0  0  0  0  0  0  0  0  0  0  0  0
  128.2049  133.6039  158.3886 H   0  0  0  0  0  0  0  0  0  0  0  0
  130.4566  134.2477  156.6633 H   0  0  0  0  0  0  0  0  0  0  0  0
  128.5292  131.7735  156.6803 H   0  0  0  0  0  0  0  0  0  0  0  0
  129.6359  132.2766  155.2933 H   0  0  0  0  0  0  0  0  0  0  0  0
  131.6534  132.0159  156.8086 H   0  0  0  0  0  0  0  0  0  0  0  0
  130.5470  131.5131  158.1957 H   0  0  0  0  0  0  0  0  0  0  0  0
  132.5669  133.0907  160.4028 H   0  0  0  0  0  0  0  0  0  0  0  0
  133.6134  134.3628  159.7227 H   0  0  0  0  0  0  0  0  0  0  0  0
  135.3413  134.7152  163.6416 H   0  0  0  0  0  0  0  0  0  0  0  0
  135.9601  136.9362  164.4921 H   0  0  0  0  0  0  0  0  0  0  0  0
  134.5439  140.0382  163.3012 H   0  0  0  0  0  0  0  0  0  0  0  0
  135.6300  138.8388  165.6162 H   0  0  0  0  0  0  0  0  0  0  0  0
  136.9141  138.9534  164.3888 H   0  0  0  0  0  0  0  0  0  0  0  0
  136.5925  141.4664  164.2783 H   0  0  0  0  0  0  0  0  0  0  0  0
  136.6369  140.3797  167.2198 H   0  0  0  0  0  0  0  0  0  0  0  0
  137.2050  142.0462  166.6706 H   0  0  0  0  0  0  0  0  0  0  0  0
  134.8769  142.5527  165.7984 H   0  0  0  0  0  0  0  0  0  0  0  0
  134.3080  140.8866  166.3470 H   0  0  0  0  0  0  0  0  0  0  0  0
  133.1997  138.7380  161.7727 H   0  0  0  0  0  0  0  0  0  0  0  0
  132.7554  136.7703  159.6493 H   0  0  0  0  0  0  0  0  0  0  0  0
  131.4771  137.2038  160.8084 H   0  0  0  0  0  0  0  0  0  0  0  0
  127.2773  135.8364  162.2442 H   0  0  0  0  0  0  0  0  0  0  0  0
  126.7263  136.5761  160.7262 H   0  0  0  0  0  0  0  0  0  0  0  0
  124.7440  135.8586  161.8154 H   0  0  0  0  0  0  0  0  0  0  0  0
  1  2  2  0
  2 32  1  0
  2  3  1  0
  3  4  1  0
  3 33  1  0
  3 34  1  0
  4  5  1  0
  4 35  1  0
  4 36  1  0
  5  6  1  6
  5  7  1  0
  5 31  1  0
  7 37  1  0
  8  7  1  0
  8  9  1  0
  8 13  2  0
  9 10  1  0
  9 38  1  0
 10 12  1  0
 10 11  1  0
 10 39  1  0
 11 12  1  0
 11 40  1  0
 11 41  1  0
 12 42  1  0
 12 43  1  0
 13 14  1  0
 13 15  1  0
 15 16  1  1
 15 30  1  0
 15 17  1  0
 17 18  1  0
 17 44  1  0
 17 45  1  0
 18 19  1  0
 19 29  2  0
 19 20  1  0
 20 21  2  0
 20 46  1  0
 21 22  1  0
 21 47  1  0
 22 23  1  0
 22 28  2  0
 23 24  1  0
 23 48  1  0
 24 25  1  0
 24 49  1  0
 24 50  1  0
 25 27  1  0
 25 26  1  0
 25 51  1  0
 26 27  1  0
 26 52  1  0
 26 53  1  0
 27 54  1  0
 27 55  1  0
 28 29  1  0
 28 56  1  0
 29 30  1  0
 30 57  1  0
 30 58  1  0
 31 32  1  0
 31 59  1  0
 31 60  1  0
 32 61  1  0
M  CHG  1  13   1
M  END
>  <DOCK_score>  (1) 
-50.670006

>  <SMILES>  (1) 
O=C1CC[C@H](NC(NC2CC2)=[NH+][C@H]2COc3ccc(NCC4CC4)cc3C2)CN1

$$$$
