CCc1ccc(-c2c[nH]c(NC(C3CC(O)C3)[C@H]3CC(O)C3(C)C)[nH+]2)cc1
     RDKit          3D

 59 62  0  0  1  0  0  0  0  0999 V2000
  129.8446  129.1920  151.2445 C   0  0  0  0  0  0  0  0  0  0  0  0
  131.1877  129.7054  151.7680 C   0  0  0  0  0  0  0  0  0  0  0  0
  130.9813  130.3893  153.0949 C   0  0  0  0  0  0  0  0  0  0  0  0
  131.0648  129.6587  154.2670 C   0  0  0  0  0  0  0  0  0  0  0  0
  130.8823  130.2808  155.4852 C   0  0  0  0  0  0  0  0  0  0  0  0
  130.6025  131.6454  155.5329 C   0  0  0  0  0  0  0  0  0  0  0  0
  130.3994  132.3186  156.8389 C   0  0  0  0  0  0  0  0  0  0  0  0
  129.8929  131.7486  157.9602 C   0  0  0  0  0  0  0  0  0  0  0  0
  129.8811  132.7204  158.9311 N   0  0  0  0  0  0  0  0  0  0  0  0
  129.5751  132.6154  159.8454 H   0  0  0  0  0  0  0  0  0  0  0  0
  130.3733  133.8592  158.3715 C   0  0  0  0  0  0  0  0  0  0  0  0
  130.5236  135.0749  159.0167 N   0  0  0  0  0  0  0  0  0  0  0  0
  130.1374  135.2103  160.4234 C   0  0  1  0  0  0  0  0  0  0  0  0
  131.0161  136.2683  161.0939 C   0  0  2  0  0  0  0  0  0  0  0  0
  130.9493  137.6458  160.4135 C   0  0  0  0  0  0  0  0  0  0  0  0
  132.4651  137.7493  160.6514 C   0  0  2  0  0  0  0  0  0  0  0  0
  133.1782  138.3285  159.5569 O   0  0  0  0  0  0  0  0  0  0  0  0
  132.4897  136.2116  160.6579 C   0  0  0  0  0  0  0  0  0  0  0  0
  128.6704  135.6357  160.5109 C   0  0  1  0  0  0  0  0  0  0  0  0
  128.5286  136.7035  160.3449 H   0  0  0  0  0  0  0  0  0  0  0  0
  127.7221  134.7508  159.6847 C   0  0  0  0  0  0  0  0  0  0  0  0
  126.7311  134.8553  160.8559 C   0  0  2  0  0  0  0  0  0  0  0  0
  125.8487  135.9753  160.7608 O   0  0  0  0  0  0  0  0  0  0  0  0
  127.9488  135.1055  161.7612 C   0  0  0  0  0  0  0  0  0  0  0  0
  128.5649  133.8247  162.3275 C   0  0  0  0  0  0  0  0  0  0  0  0
  127.7107  136.1735  162.8304 C   0  0  0  0  0  0  0  0  0  0  0  0
  130.6819  133.6152  157.1214 N   0  0  0  0  0  0  0  0  0  0  0  0
  131.0529  134.2588  156.4976 H   0  0  0  0  0  0  0  0  0  0  0  0
  130.5139  132.3749  154.3485 C   0  0  0  0  0  0  0  0  0  0  0  0
  130.7033  131.7433  153.1363 C   0  0  0  0  0  0  0  0  0  0  0  0
  129.9938  128.6972  150.2847 H   0  0  0  0  0  0  0  0  0  0  0  0
  129.1595  130.0305  151.1185 H   0  0  0  0  0  0  0  0  0  0  0  0
  129.4235  128.4828  151.9571 H   0  0  0  0  0  0  0  0  0  0  0  0
  131.8726  128.8664  151.8942 H   0  0  0  0  0  0  0  0  0  0  0  0
  131.6086  130.4140  151.0555 H   0  0  0  0  0  0  0  0  0  0  0  0
  131.2776  128.6004  154.2287 H   0  0  0  0  0  0  0  0  0  0  0  0
  130.9518  129.7106  156.3998 H   0  0  0  0  0  0  0  0  0  0  0  0
  129.5637  130.7258  158.0697 H   0  0  0  0  0  0  0  0  0  0  0  0
  130.8846  135.8370  158.5373 H   0  0  0  0  0  0  0  0  0  0  0  0
  130.2693  134.2542  160.9300 H   0  0  0  0  0  0  0  0  0  0  0  0
  130.8818  136.3068  162.1749 H   0  0  0  0  0  0  0  0  0  0  0  0
  130.6750  137.5992  159.3596 H   0  0  0  0  0  0  0  0  0  0  0  0
  130.3686  138.3805  160.9712 H   0  0  0  0  0  0  0  0  0  0  0  0
  132.7270  138.1942  161.6114 H   0  0  0  0  0  0  0  0  0  0  0  0
  132.8404  138.0722  158.6878 H   0  0  0  0  0  0  0  0  0  0  0  0
  133.1525  135.7887  161.4128 H   0  0  0  0  0  0  0  0  0  0  0  0
  132.6364  135.7732  159.6708 H   0  0  0  0  0  0  0  0  0  0  0  0
  127.3682  135.2255  158.7696 H   0  0  0  0  0  0  0  0  0  0  0  0
  128.0991  133.7412  159.5205 H   0  0  0  0  0  0  0  0  0  0  0  0
  126.2097  133.9230  161.0730 H   0  0  0  0  0  0  0  0  0  0  0  0
  125.4740  136.2538  161.6075 H   0  0  0  0  0  0  0  0  0  0  0  0
  129.6020  134.0124  162.6056 H   0  0  0  0  0  0  0  0  0  0  0  0
  128.0040  133.5100  163.2076 H   0  0  0  0  0  0  0  0  0  0  0  0
  128.5278  133.0390  161.5728 H   0  0  0  0  0  0  0  0  0  0  0  0
  127.0971  136.9730  162.4151 H   0  0  0  0  0  0  0  0  0  0  0  0
  127.1978  135.7268  163.6822 H   0  0  0  0  0  0  0  0  0  0  0  0
  128.6676  136.5816  163.1557 H   0  0  0  0  0  0  0  0  0  0  0  0
  130.2969  133.4325  154.3795 H   0  0  0  0  0  0  0  0  0  0  0  0
  130.6349  132.3076  152.2180 H   0  0  0  0  0  0  0  0  0  0  0  0
  1  2  1  0
  1 31  1  0
  1 32  1  0
  1 33  1  0
  2  3  1  0
  2 34  1  0
  2 35  1  0
  3 30  2  0
  3  4  1  0
  4  5  2  0
  4 36  1  0
  5  6  1  0
  5 37  1  0
  6  7  1  0
  6 29  2  0
  7 27  1  0
  7  8  2  0
  8  9  1  0
  8 38  1  0
  9 10  1  0
  9 11  1  0
 11 12  1  0
 11 27  2  0
 12 13  1  0
 12 39  1  0
 13 14  1  0
 13 19  1  0
 13 40  1  1
 14 18  1  0
 14 15  1  0
 14 41  1  1
 15 16  1  0
 15 42  1  0
 15 43  1  0
 16 17  1  0
 16 18  1  0
 16 44  1  1
 17 45  1  0
 18 46  1  0
 18 47  1  0
 19 20  1  6
 19 24  1  0
 19 21  1  0
 21 22  1  0
 21 48  1  0
 21 49  1  0
 22 23  1  0
 22 24  1  0
 22 50  1  1
 23 51  1  0
 24 25  1  0
 24 26  1  0
 25 52  1  0
 25 53  1  0
 25 54  1  0
 26 55  1  0
 26 56  1  0
 26 57  1  0
 27 28  1  0
 29 30  1  0
 29 58  1  0
 30 59  1  0
M  CHG  1  27   1
M  END
>  <DOCK_score>  (1) 
-62.147697

>  <SMILES>  (1) 
CCc1ccc(-c2c[nH]c(NC(C3CC(O)C3)[C@H]3CC(O)C3(C)C)[nH+]2)cc1

$$$$
