Nc1ccc(N[C@H]2CCCc3ccc(Br)cc3C2)c(NC2CC=CC2)[nH+]1
     RDKit          3D

 52 55  0  0  1  0  0  0  0  0999 V2000
  125.7711  135.4828  160.7138 N   0  0  0  0  0  0  0  0  0  0  0  0
  127.1207  135.7847  160.5459 C   0  0  0  0  0  0  0  0  0  0  0  0
  127.7211  136.7248  161.3728 C   0  0  0  0  0  0  0  0  0  0  0  0
  129.0644  137.0211  161.2001 C   0  0  0  0  0  0  0  0  0  0  0  0
  129.7659  136.3615  160.1984 C   0  0  0  0  0  0  0  0  0  0  0  0
  131.1273  136.6310  159.9881 N   0  0  0  0  0  0  0  0  0  0  0  0
  131.8193  137.6088  160.8316 C   0  0  1  0  0  0  0  0  0  0  0  0
  131.4811  137.4962  161.8617 H   0  0  0  0  0  0  0  0  0  0  0  0
  133.3123  137.3548  160.7668 C   0  0  0  0  0  0  0  0  0  0  0  0
  134.1300  138.1683  161.7505 C   0  0  0  0  0  0  0  0  0  0  0  0
  134.1051  139.6546  161.3856 C   0  0  0  0  0  0  0  0  0  0  0  0
  132.8702  140.2790  162.0015 C   0  0  0  0  0  0  0  0  0  0  0  0
  133.0068  141.1552  163.0640 C   0  0  0  0  0  0  0  0  0  0  0  0
  131.8810  141.7271  163.6276 C   0  0  0  0  0  0  0  0  0  0  0  0
  130.6264  141.4223  163.1303 C   0  0  0  0  0  0  0  0  0  0  0  0
  129.0881  142.2051  163.9026 Br  0  0  0  0  0  0  0  0  0  0  0  0
  130.4967  140.5452  162.0677 C   0  0  0  0  0  0  0  0  0  0  0  0
  131.6277  139.9773  161.5080 C   0  0  0  0  0  0  0  0  0  0  0  0
  131.4830  139.0193  160.3439 C   0  0  0  0  0  0  0  0  0  0  0  0
  129.0984  135.4322  159.4006 C   0  0  0  0  0  0  0  0  0  0  0  0
  129.7890  134.7684  158.3895 N   0  0  0  0  0  0  0  0  0  0  0  0
  129.3903  133.4144  157.9970 C   0  0  0  0  0  0  0  0  0  0  0  0
  129.6837  132.4000  159.1266 C   0  0  0  0  0  0  0  0  0  0  0  0
  130.1410  131.1501  158.4112 C   0  0  0  0  0  0  0  0  0  0  0  0
  130.4729  131.4104  157.1760 C   0  0  0  0  0  0  0  0  0  0  0  0
  130.2924  132.8773  156.8616 C   0  0  0  0  0  0  0  0  0  0  0  0
  127.8155  135.1716  159.5990 N   0  0  0  0  0  0  0  0  0  0  0  0
  127.3725  134.5185  159.0348 H   0  0  0  0  0  0  0  0  0  0  0  0
  125.2567  135.9285  161.4051 H   0  0  0  0  0  0  0  0  0  0  0  0
  125.3457  134.8270  160.1396 H   0  0  0  0  0  0  0  0  0  0  0  0
  127.1476  137.2204  162.1421 H   0  0  0  0  0  0  0  0  0  0  0  0
  129.5546  137.7483  161.8303 H   0  0  0  0  0  0  0  0  0  0  0  0
  131.6101  136.1698  159.2845 H   0  0  0  0  0  0  0  0  0  0  0  0
  133.6583  137.5821  159.7585 H   0  0  0  0  0  0  0  0  0  0  0  0
  133.4894  136.2970  160.9615 H   0  0  0  0  0  0  0  0  0  0  0  0
  135.1607  137.8137  161.7388 H   0  0  0  0  0  0  0  0  0  0  0  0
  133.7180  138.0383  162.7512 H   0  0  0  0  0  0  0  0  0  0  0  0
  134.0697  139.7651  160.3016 H   0  0  0  0  0  0  0  0  0  0  0  0
  134.9971  140.1431  161.7776 H   0  0  0  0  0  0  0  0  0  0  0  0
  133.9872  141.3913  163.4504 H   0  0  0  0  0  0  0  0  0  0  0  0
  131.9814  142.4155  164.4535 H   0  0  0  0  0  0  0  0  0  0  0  0
  129.5187  140.3058  161.6775 H   0  0  0  0  0  0  0  0  0  0  0  0
  130.4580  139.0444  159.9741 H   0  0  0  0  0  0  0  0  0  0  0  0
  132.1701  139.3046  159.5473 H   0  0  0  0  0  0  0  0  0  0  0  0
  130.5340  135.2026  157.9451 H   0  0  0  0  0  0  0  0  0  0  0  0
  128.3397  133.3865  157.7083 H   0  0  0  0  0  0  0  0  0  0  0  0
  130.4731  132.7749  159.7782 H   0  0  0  0  0  0  0  0  0  0  0  0
  128.7793  132.1994  159.7011 H   0  0  0  0  0  0  0  0  0  0  0  0
  130.1873  130.1701  158.8627 H   0  0  0  0  0  0  0  0  0  0  0  0
  130.8301  130.6740  156.4712 H   0  0  0  0  0  0  0  0  0  0  0  0
  129.8019  133.0012  155.8962 H   0  0  0  0  0  0  0  0  0  0  0  0
  131.2545  133.3896  156.8665 H   0  0  0  0  0  0  0  0  0  0  0  0
  1 29  1  0
  1 30  1  0
  2  1  1  0
  2 27  2  0
  2  3  1  0
  3  4  2  0
  3 31  1  0
  4  5  1  0
  4 32  1  0
  5  6  1  0
  5 20  2  0
  6  7  1  0
  6 33  1  0
  7  8  1  1
  7 19  1  0
  7  9  1  0
  9 10  1  0
  9 34  1  0
  9 35  1  0
 10 11  1  0
 10 36  1  0
 10 37  1  0
 11 12  1  0
 11 38  1  0
 11 39  1  0
 12 18  2  0
 12 13  1  0
 13 14  2  0
 13 40  1  0
 14 15  1  0
 14 41  1  0
 15 16  1  0
 15 17  2  0
 17 18  1  0
 17 42  1  0
 18 19  1  0
 19 43  1  0
 19 44  1  0
 20 21  1  0
 20 27  1  0
 21 22  1  0
 21 45  1  0
 22 26  1  0
 22 23  1  0
 22 46  1  0
 23 24  1  0
 23 47  1  0
 23 48  1  0
 24 25  2  0
 24 49  1  0
 25 26  1  0
 25 50  1  0
 26 51  1  0
 26 52  1  0
 27 28  1  0
M  CHG  1  27   1
M  END
>  <DOCK_score>  (1) 
-50.795452

>  <SMILES>  (1) 
Nc1ccc(N[C@H]2CCCc3ccc(Br)cc3C2)c(NC2CC=CC2)[nH+]1

$$$$
