Cc1[nH+]c(N[C@H](C)Cc2ccc(-c3ccccc3)cc2)[nH]c1-c1ccccc1
     RDKit          3D

 54 57  0  0  1  0  0  0  0  0999 V2000
  129.2578  130.8446  158.6855 C   0  0  0  0  0  0  0  0  0  0  0  0
  129.7851  132.2238  158.3839 C   0  0  0  0  0  0  0  0  0  0  0  0
  129.8092  133.2587  159.2337 N   0  0  0  0  0  0  0  0  0  0  0  0
  129.4871  133.2385  160.1485 H   0  0  0  0  0  0  0  0  0  0  0  0
  130.3355  134.3050  158.6393 C   0  0  0  0  0  0  0  0  0  0  0  0
  130.5188  135.5500  159.2123 N   0  0  0  0  0  0  0  0  0  0  0  0
  129.6028  136.0185  160.2552 C   0  0  2  0  0  0  0  0  0  0  0  0
  129.6339  135.3319  161.1012 H   0  0  0  0  0  0  0  0  0  0  0  0
  128.1795  136.0746  159.6962 C   0  0  0  0  0  0  0  0  0  0  0  0
  130.0253  137.4150  160.7156 C   0  0  0  0  0  0  0  0  0  0  0  0
  131.4270  137.3596  161.2660 C   0  0  0  0  0  0  0  0  0  0  0  0
  132.5063  137.5620  160.4248 C   0  0  0  0  0  0  0  0  0  0  0  0
  133.7922  137.5120  160.9236 C   0  0  0  0  0  0  0  0  0  0  0  0
  134.0023  137.2571  162.2773 C   0  0  0  0  0  0  0  0  0  0  0  0
  135.3826  137.2015  162.8192 C   0  0  0  0  0  0  0  0  0  0  0  0
  135.6726  136.3865  163.9115 C   0  0  0  0  0  0  0  0  0  0  0  0
  136.9580  136.3390  164.4118 C   0  0  0  0  0  0  0  0  0  0  0  0
  137.9575  137.0986  163.8308 C   0  0  0  0  0  0  0  0  0  0  0  0
  137.6739  137.9136  162.7497 C   0  0  0  0  0  0  0  0  0  0  0  0
  136.3932  137.9646  162.2381 C   0  0  0  0  0  0  0  0  0  0  0  0
  132.9116  137.0486  163.1191 C   0  0  0  0  0  0  0  0  0  0  0  0
  131.6298  137.1062  162.6107 C   0  0  0  0  0  0  0  0  0  0  0  0
  130.6650  133.9626  157.3645 N   0  0  0  0  0  0  0  0  0  0  0  0
  131.0674  134.5399  156.6969 H   0  0  0  0  0  0  0  0  0  0  0  0
  130.3182  132.6323  157.2029 C   0  0  0  0  0  0  0  0  0  0  0  0
  130.4896  131.8170  155.9822 C   0  0  0  0  0  0  0  0  0  0  0  0
  129.8602  132.1929  154.7939 C   0  0  0  0  0  0  0  0  0  0  0  0
  130.0281  131.4299  153.6570 C   0  0  0  0  0  0  0  0  0  0  0  0
  130.8098  130.2888  153.6950 C   0  0  0  0  0  0  0  0  0  0  0  0
  131.4321  129.9078  154.8707 C   0  0  0  0  0  0  0  0  0  0  0  0
  131.2768  130.6645  156.0135 C   0  0  0  0  0  0  0  0  0  0  0  0
  128.1979  130.7982  158.4357 H   0  0  0  0  0  0  0  0  0  0  0  0
  129.8032  130.1096  158.0935 H   0  0  0  0  0  0  0  0  0  0  0  0
  129.3911  130.6285  159.7455 H   0  0  0  0  0  0  0  0  0  0  0  0
  131.2540  136.1132  158.9238 H   0  0  0  0  0  0  0  0  0  0  0  0
  128.1484  136.7612  158.8501 H   0  0  0  0  0  0  0  0  0  0  0  0
  127.8785  135.0797  159.3682 H   0  0  0  0  0  0  0  0  0  0  0  0
  127.4980  136.4232  160.4721 H   0  0  0  0  0  0  0  0  0  0  0  0
  129.3437  137.7635  161.4915 H   0  0  0  0  0  0  0  0  0  0  0  0
  129.9941  138.1014  159.8695 H   0  0  0  0  0  0  0  0  0  0  0  0
  132.3424  137.7591  159.3757 H   0  0  0  0  0  0  0  0  0  0  0  0
  134.6341  137.6698  160.2659 H   0  0  0  0  0  0  0  0  0  0  0  0
  134.8929  135.7932  164.3660 H   0  0  0  0  0  0  0  0  0  0  0  0
  137.1841  135.7073  165.2581 H   0  0  0  0  0  0  0  0  0  0  0  0
  138.9619  137.0588  164.2258 H   0  0  0  0  0  0  0  0  0  0  0  0
  138.4572  138.5077  162.3025 H   0  0  0  0  0  0  0  0  0  0  0  0
  136.1737  138.5983  161.3914 H   0  0  0  0  0  0  0  0  0  0  0  0
  133.0689  136.8466  164.1684 H   0  0  0  0  0  0  0  0  0  0  0  0
  130.7835  136.9489  163.2630 H   0  0  0  0  0  0  0  0  0  0  0  0
  129.2466  133.0810  154.7640 H   0  0  0  0  0  0  0  0  0  0  0  0
  129.5452  131.7216  152.7361 H   0  0  0  0  0  0  0  0  0  0  0  0
  130.9350  129.6929  152.8029 H   0  0  0  0  0  0  0  0  0  0  0  0
  132.0410  129.0161  154.8935 H   0  0  0  0  0  0  0  0  0  0  0  0
  131.7633  130.3662  156.9304 H   0  0  0  0  0  0  0  0  0  0  0  0
  1  2  1  0
  1 32  1  0
  1 33  1  0
  1 34  1  0
  2 25  2  0
  2  3  1  0
  3  4  1  0
  3  5  2  0
  5  6  1  0
  5 23  1  0
  6  7  1  0
  6 35  1  0
  7  8  1  1
  7  9  1  0
  7 10  1  0
  9 36  1  0
  9 37  1  0
  9 38  1  0
 10 11  1  0
 10 39  1  0
 10 40  1  0
 11 22  1  0
 11 12  2  0
 12 13  1  0
 12 41  1  0
 13 14  2  0
 13 42  1  0
 14 15  1  0
 14 21  1  0
 15 20  1  0
 15 16  2  0
 16 17  1  0
 16 43  1  0
 17 18  2  0
 17 44  1  0
 18 19  1  0
 18 45  1  0
 19 20  2  0
 19 46  1  0
 20 47  1  0
 21 22  2  0
 21 48  1  0
 22 49  1  0
 23 24  1  0
 23 25  1  0
 25 26  1  0
 26 31  1  0
 26 27  2  0
 27 28  1  0
 27 50  1  0
 28 29  2  0
 28 51  1  0
 29 30  1  0
 29 52  1  0
 30 31  2  0
 30 53  1  0
 31 54  1  0
M  CHG  1   3   1
M  END
>  <DOCK_score>  (1) 
-57.752312

>  <SMILES>  (1) 
Cc1[nH+]c(N[C@H](C)Cc2ccc(-c3ccccc3)cc2)[nH]c1-c1ccccc1

$$$$
