Clc1ccc2c(c1)C[C@H](Nc1ccc(-c3n[nH]cc3C[NH2+]CC3=CCOCC3)o1)C2
     RDKit          3D

 56 60  0  0  1  0  0  0  0  0999 V2000
  127.0023  136.5120  169.2101 Cl  0  0  0  0  0  0  0  0  0  0  0  0
  127.2466  136.0870  167.5446 C   0  0  0  0  0  0  0  0  0  0  0  0
  128.3456  135.3313  167.1765 C   0  0  0  0  0  0  0  0  0  0  0  0
  128.5370  134.9944  165.8511 C   0  0  0  0  0  0  0  0  0  0  0  0
  127.6354  135.4148  164.8875 C   0  0  0  0  0  0  0  0  0  0  0  0
  126.5343  136.1649  165.2555 C   0  0  0  0  0  0  0  0  0  0  0  0
  126.3432  136.5028  166.5846 C   0  0  0  0  0  0  0  0  0  0  0  0
  125.7047  136.4903  164.0319 C   0  0  0  0  0  0  0  0  0  0  0  0
  126.6468  136.2429  162.8300 C   0  0  2  0  0  0  0  0  0  0  0  0
  127.1790  137.1524  162.5513 H   0  0  0  0  0  0  0  0  0  0  0  0
  125.9005  135.7084  161.6881 N   0  0  0  0  0  0  0  0  0  0  0  0
  126.5282  134.8603  160.7832 C   0  0  0  0  0  0  0  0  0  0  0  0
  125.9255  133.8766  160.0699 C   0  0  0  0  0  0  0  0  0  0  0  0
  126.9235  133.2693  159.2825 C   0  0  0  0  0  0  0  0  0  0  0  0
  128.0878  133.9149  159.5558 C   0  0  0  0  0  0  0  0  0  0  0  0
  129.4052  133.6141  158.9583 C   0  0  0  0  0  0  0  0  0  0  0  0
  129.6567  132.6781  158.0641 N   0  0  0  0  0  0  0  0  0  0  0  0
  131.0233  132.7233  157.7604 N   0  0  0  0  0  0  0  0  0  0  0  0
  131.4856  132.1469  157.1318 H   0  0  0  0  0  0  0  0  0  0  0  0
  131.5860  133.7085  158.4934 C   0  0  0  0  0  0  0  0  0  0  0  0
  130.6164  134.2811  159.2386 C   0  0  0  0  0  0  0  0  0  0  0  0
  130.7966  135.4266  160.2010 C   0  0  0  0  0  0  0  0  0  0  0  0
  130.5965  136.6976  159.4924 N   0  0  0  0  0  0  0  0  0  0  0  0
  131.2708  136.7763  158.7459 H   0  0  0  0  0  0  0  0  0  0  0  0
  129.6640  136.7251  159.1077 H   0  0  0  0  0  0  0  0  0  0  0  0
  130.7721  137.8143  160.4306 C   0  0  0  0  0  0  0  0  0  0  0  0
  132.1648  137.7732  161.0052 C   0  0  0  0  0  0  0  0  0  0  0  0
  132.3069  137.6510  162.2915 C   0  0  0  0  0  0  0  0  0  0  0  0
  133.6502  137.6035  162.9624 C   0  0  0  0  0  0  0  0  0  0  0  0
  134.6751  137.3583  161.9973 O   0  0  0  0  0  0  0  0  0  0  0  0
  134.5981  138.2317  160.8638 C   0  0  0  0  0  0  0  0  0  0  0  0
  133.3367  137.8815  160.0691 C   0  0  0  0  0  0  0  0  0  0  0  0
  127.8333  134.8809  160.4634 O   0  0  0  0  0  0  0  0  0  0  0  0
  127.6221  135.1864  163.3911 C   0  0  0  0  0  0  0  0  0  0  0  0
  129.0527  135.0051  167.9249 H   0  0  0  0  0  0  0  0  0  0  0  0
  129.3952  134.4047  165.5644 H   0  0  0  0  0  0  0  0  0  0  0  0
  125.4855  137.0927  166.8723 H   0  0  0  0  0  0  0  0  0  0  0  0
  124.8323  135.8385  163.9819 H   0  0  0  0  0  0  0  0  0  0  0  0
  125.3961  137.5356  164.0511 H   0  0  0  0  0  0  0  0  0  0  0  0
  124.9685  135.9463  161.5637 H   0  0  0  0  0  0  0  0  0  0  0  0
  124.8793  133.6099  160.0997 H   0  0  0  0  0  0  0  0  0  0  0  0
  126.7892  132.4481  158.5939 H   0  0  0  0  0  0  0  0  0  0  0  0
  132.6282  133.9913  158.4823 H   0  0  0  0  0  0  0  0  0  0  0  0
  130.0682  135.3415  161.0074 H   0  0  0  0  0  0  0  0  0  0  0  0
  131.8037  135.3969  160.6167 H   0  0  0  0  0  0  0  0  0  0  0  0
  130.6237  138.7574  159.9048 H   0  0  0  0  0  0  0  0  0  0  0  0
  130.0439  137.7292  161.2371 H   0  0  0  0  0  0  0  0  0  0  0  0
  131.4208  137.5765  162.9042 H   0  0  0  0  0  0  0  0  0  0  0  0
  133.6571  136.8076  163.7070 H   0  0  0  0  0  0  0  0  0  0  0  0
  133.8370  138.5588  163.4529 H   0  0  0  0  0  0  0  0  0  0  0  0
  135.4779  138.0954  160.2349 H   0  0  0  0  0  0  0  0  0  0  0  0
  134.5440  139.2668  161.2010 H   0  0  0  0  0  0  0  0  0  0  0  0
  133.4823  136.9297  159.5582 H   0  0  0  0  0  0  0  0  0  0  0  0
  133.1429  138.6620  159.3334 H   0  0  0  0  0  0  0  0  0  0  0  0
  128.6193  135.3346  162.9770 H   0  0  0  0  0  0  0  0  0  0  0  0
  127.2646  134.1817  163.1650 H   0  0  0  0  0  0  0  0  0  0  0  0
  1  2  1  0
  2  7  2  0
  2  3  1  0
  3  4  2  0
  3 35  1  0
  4  5  1  0
  4 36  1  0
  5 34  1  0
  5  6  2  0
  6  7  1  0
  6  8  1  0
  7 37  1  0
  8  9  1  0
  8 38  1  0
  8 39  1  0
  9 10  1  6
  9 11  1  0
  9 34  1  0
 11 12  1  0
 11 40  1  0
 12 33  1  0
 12 13  2  0
 13 14  1  0
 13 41  1  0
 14 15  2  0
 14 42  1  0
 15 16  1  0
 15 33  1  0
 16 21  1  0
 16 17  2  0
 17 18  1  0
 18 19  1  0
 18 20  1  0
 20 21  2  0
 20 43  1  0
 21 22  1  0
 22 23  1  0
 22 44  1  0
 22 45  1  0
 23 24  1  0
 23 25  1  0
 23 26  1  0
 26 27  1  0
 26 46  1  0
 26 47  1  0
 27 32  1  0
 27 28  2  0
 28 29  1  0
 28 48  1  0
 29 30  1  0
 29 49  1  0
 29 50  1  0
 30 31  1  0
 31 32  1  0
 31 51  1  0
 31 52  1  0
 32 53  1  0
 32 54  1  0
 34 55  1  0
 34 56  1  0
M  CHG  1  23   1
M  END
>  <DOCK_score>  (1) 
-46.022781

>  <SMILES>  (1) 
Clc1ccc2c(c1)C[C@H](Nc1ccc(-c3n[nH]cc3C[NH2+]CC3=CCOCC3)o1)C2

$$$$
