CCc1ccc(-c2c[nH]c(N[C@@H](c3cc(C)on3)c3ccnn3C)[nH+]2)cc1
     RDKit          3D

 50 53  0  0  1  0  0  0  0  0999 V2000
  130.1199  128.6136  151.4035 C   0  0  0  0  0  0  0  0  0  0  0  0
  131.2394  129.6224  151.6670 C   0  0  0  0  0  0  0  0  0  0  0  0
  130.9788  130.3331  152.9701 C   0  0  0  0  0  0  0  0  0  0  0  0
  131.4821  129.8158  154.1496 C   0  0  0  0  0  0  0  0  0  0  0  0
  131.2507  130.4649  155.3453 C   0  0  0  0  0  0  0  0  0  0  0  0
  130.4991  131.6386  155.3640 C   0  0  0  0  0  0  0  0  0  0  0  0
  130.2427  132.3381  156.6466 C   0  0  0  0  0  0  0  0  0  0  0  0
  129.6043  131.8194  157.7247 C   0  0  0  0  0  0  0  0  0  0  0  0
  129.5868  132.7993  158.6873 N   0  0  0  0  0  0  0  0  0  0  0  0
  129.1983  132.7276  159.5731 H   0  0  0  0  0  0  0  0  0  0  0  0
  130.2157  133.8892  158.1687 C   0  0  0  0  0  0  0  0  0  0  0  0
  130.4101  135.0945  158.8214 N   0  0  0  0  0  0  0  0  0  0  0  0
  129.9194  135.2737  160.1901 C   0  0  1  0  0  0  0  0  0  0  0  0
  130.0943  134.3619  160.7612 H   0  0  0  0  0  0  0  0  0  0  0  0
  130.6500  136.4208  160.8393 C   0  0  0  0  0  0  0  0  0  0  0  0
  131.8511  136.3484  161.5816 C   0  0  0  0  0  0  0  0  0  0  0  0
  132.0896  137.6315  161.9444 C   0  0  0  0  0  0  0  0  0  0  0  0
  133.2521  138.1376  162.7589 C   0  0  0  0  0  0  0  0  0  0  0  0
  131.0871  138.3621  161.4364 O   0  0  0  0  0  0  0  0  0  0  0  0
  130.3031  137.6754  160.8232 N   0  0  0  0  0  0  0  0  0  0  0  0
  128.4425  135.5717  160.1593 C   0  0  0  0  0  0  0  0  0  0  0  0
  127.6703  135.6641  159.0520 C   0  0  0  0  0  0  0  0  0  0  0  0
  126.3639  135.9510  159.4612 C   0  0  0  0  0  0  0  0  0  0  0  0
  126.3538  136.0358  160.7669 N   0  0  0  0  0  0  0  0  0  0  0  0
  127.6545  135.8002  161.2307 N   0  0  0  0  0  0  0  0  0  0  0  0
  128.0835  135.8021  162.6314 C   0  0  0  0  0  0  0  0  0  0  0  0
  130.6106  133.6080  156.9510 N   0  0  0  0  0  0  0  0  0  0  0  0
  131.0881  134.2121  156.3610 H   0  0  0  0  0  0  0  0  0  0  0  0
  129.9900  132.1528  154.1729 C   0  0  0  0  0  0  0  0  0  0  0  0
  130.2321  131.4981  152.9824 C   0  0  0  0  0  0  0  0  0  0  0  0
  129.1651  129.1363  151.3477 H   0  0  0  0  0  0  0  0  0  0  0  0
  130.3085  128.0996  150.4609 H   0  0  0  0  0  0  0  0  0  0  0  0
  130.0889  127.8858  152.2143 H   0  0  0  0  0  0  0  0  0  0  0  0
  132.1942  129.1002  151.7225 H   0  0  0  0  0  0  0  0  0  0  0  0
  131.2703  130.3508  150.8558 H   0  0  0  0  0  0  0  0  0  0  0  0
  132.0606  128.9038  154.1346 H   0  0  0  0  0  0  0  0  0  0  0  0
  131.6481  130.0623  156.2654 H   0  0  0  0  0  0  0  0  0  0  0  0
  129.1888  130.8262  157.8102 H   0  0  0  0  0  0  0  0  0  0  0  0
  130.8711  135.8202  158.3726 H   0  0  0  0  0  0  0  0  0  0  0  0
  132.4417  135.4729  161.8074 H   0  0  0  0  0  0  0  0  0  0  0  0
  134.0738  138.4027  162.0936 H   0  0  0  0  0  0  0  0  0  0  0  0
  132.9441  139.0171  163.3243 H   0  0  0  0  0  0  0  0  0  0  0  0
  133.5793  137.3591  163.4480 H   0  0  0  0  0  0  0  0  0  0  0  0
  128.0032  135.5367  158.0326 H   0  0  0  0  0  0  0  0  0  0  0  0
  125.5113  136.0833  158.8115 H   0  0  0  0  0  0  0  0  0  0  0  0
  128.3943  136.8076  162.9149 H   0  0  0  0  0  0  0  0  0  0  0  0
  127.2554  135.4854  163.2656 H   0  0  0  0  0  0  0  0  0  0  0  0
  128.9201  135.1145  162.7561 H   0  0  0  0  0  0  0  0  0  0  0  0
  129.4067  133.0617  154.1814 H   0  0  0  0  0  0  0  0  0  0  0  0
  129.8383  131.8958  152.0587 H   0  0  0  0  0  0  0  0  0  0  0  0
  1  2  1  0
  1 31  1  0
  1 32  1  0
  1 33  1  0
  2  3  1  0
  2 34  1  0
  2 35  1  0
  3 30  2  0
  3  4  1  0
  4  5  2  0
  4 36  1  0
  5  6  1  0
  5 37  1  0
  6  7  1  0
  6 29  2  0
  7 27  1  0
  7  8  2  0
  8  9  1  0
  8 38  1  0
  9 10  1  0
  9 11  1  0
 11 12  1  0
 11 27  2  0
 12 13  1  0
 12 39  1  0
 13 14  1  1
 13 15  1  0
 13 21  1  0
 15 20  2  0
 15 16  1  0
 16 17  2  0
 16 40  1  0
 17 18  1  0
 17 19  1  0
 18 41  1  0
 18 42  1  0
 18 43  1  0
 19 20  1  0
 21 25  1  0
 21 22  2  0
 22 23  1  0
 22 44  1  0
 23 24  2  0
 23 45  1  0
 24 25  1  0
 25 26  1  0
 26 46  1  0
 26 47  1  0
 26 48  1  0
 27 28  1  0
 29 30  1  0
 29 49  1  0
 30 50  1  0
M  CHG  1  27   1
M  END
>  <DOCK_score>  (1) 
-56.44104

>  <SMILES>  (1) 
CCc1ccc(-c2c[nH]c(N[C@@H](c3cc(C)on3)c3ccnn3C)[nH+]2)cc1

$$$$
