C[C@H](C=C1C=C(c2ccccc2)CC1)CCNc1ccc(-c2n[nH]cc2C[NH2+]C2CCC2)o1
     RDKit          3D

 68 72  0  0  1  0  0  0  0  0999 V2000
  136.6561  140.6651  160.0488 C   0  0  0  0  0  0  0  0  0  0  0  0
  135.6862  139.9272  160.9736 C   0  0  2  0  0  0  0  0  0  0  0  0
  135.2207  140.6395  161.6548 H   0  0  0  0  0  0  0  0  0  0  0  0
  136.4391  138.8911  161.7678 C   0  0  0  0  0  0  0  0  0  0  0  0
  136.4530  138.9523  163.0984 C   0  0  0  0  0  0  0  0  0  0  0  0
  135.7885  139.9596  163.9239 C   0  0  0  0  0  0  0  0  0  0  0  0
  135.9896  139.7499  165.2289 C   0  0  0  0  0  0  0  0  0  0  0  0
  135.4501  140.5935  166.3091 C   0  0  0  0  0  0  0  0  0  0  0  0
  135.1496  140.0336  167.5542 C   0  0  0  0  0  0  0  0  0  0  0  0
  134.6497  140.8311  168.5623 C   0  0  0  0  0  0  0  0  0  0  0  0
  134.4351  142.1801  168.3402 C   0  0  0  0  0  0  0  0  0  0  0  0
  134.7253  142.7404  167.1086 C   0  0  0  0  0  0  0  0  0  0  0  0
  135.2306  141.9570  166.0924 C   0  0  0  0  0  0  0  0  0  0  0  0
  136.8477  138.5276  165.4382 C   0  0  0  0  0  0  0  0  0  0  0  0
  137.1545  137.9883  164.0305 C   0  0  0  0  0  0  0  0  0  0  0  0
  134.6049  139.2414  160.1361 C   0  0  0  0  0  0  0  0  0  0  0  0
  133.3916  138.9394  161.0178 C   0  0  0  0  0  0  0  0  0  0  0  0
  132.3564  138.2828  160.2157 N   0  0  0  0  0  0  0  0  0  0  0  0
  131.1535  137.9099  160.8042 C   0  0  0  0  0  0  0  0  0  0  0  0
  130.8138  138.1020  162.1033 C   0  0  0  0  0  0  0  0  0  0  0  0
  129.5166  137.5783  162.2708 C   0  0  0  0  0  0  0  0  0  0  0  0
  129.1294  137.0919  161.0622 C   0  0  0  0  0  0  0  0  0  0  0  0
  127.8339  136.4472  160.7635 C   0  0  0  0  0  0  0  0  0  0  0  0
  126.8503  136.2480  161.6186 N   0  0  0  0  0  0  0  0  0  0  0  0
  125.8053  135.6100  160.9382 N   0  0  0  0  0  0  0  0  0  0  0  0
  124.9556  135.3432  161.3225 H   0  0  0  0  0  0  0  0  0  0  0  0
  126.1852  135.4312  159.6545 C   0  0  0  0  0  0  0  0  0  0  0  0
  127.4273  135.9408  159.5109 C   0  0  0  0  0  0  0  0  0  0  0  0
  128.2370  135.9612  158.2402 C   0  0  0  0  0  0  0  0  0  0  0  0
  129.6141  135.5399  158.5301 N   0  0  0  0  0  0  0  0  0  0  0  0
  130.1562  135.5536  157.6793 H   0  0  0  0  0  0  0  0  0  0  0  0
  130.0250  136.1718  159.2009 H   0  0  0  0  0  0  0  0  0  0  0  0
  129.6037  134.1787  159.0823 C   0  0  0  0  0  0  0  0  0  0  0  0
  131.0073  133.6187  159.3671 C   0  0  0  0  0  0  0  0  0  0  0  0
  130.4932  132.2732  158.8239 C   0  0  0  0  0  0  0  0  0  0  0  0
  129.4660  133.0815  158.0136 C   0  0  0  0  0  0  0  0  0  0  0  0
  130.1291  137.3037  160.1805 O   0  0  0  0  0  0  0  0  0  0  0  0
  136.1116  141.4146  159.4744 H   0  0  0  0  0  0  0  0  0  0  0  0
  137.4264  141.1537  160.6456 H   0  0  0  0  0  0  0  0  0  0  0  0
  137.1215  139.9528  159.3676 H   0  0  0  0  0  0  0  0  0  0  0  0
  136.9672  138.0988  161.2579 H   0  0  0  0  0  0  0  0  0  0  0  0
  135.2039  140.7761  163.5266 H   0  0  0  0  0  0  0  0  0  0  0  0
  135.3123  138.9801  167.7275 H   0  0  0  0  0  0  0  0  0  0  0  0
  134.4213  140.4008  169.5261 H   0  0  0  0  0  0  0  0  0  0  0  0
  134.0389  142.7985  169.1318 H   0  0  0  0  0  0  0  0  0  0  0  0
  134.5551  143.7940  166.9426 H   0  0  0  0  0  0  0  0  0  0  0  0
  135.4558  142.3955  165.1315 H   0  0  0  0  0  0  0  0  0  0  0  0
  137.7705  138.7988  165.9509 H   0  0  0  0  0  0  0  0  0  0  0  0
  136.3033  137.7797  166.0147 H   0  0  0  0  0  0  0  0  0  0  0  0
  136.7532  136.9819  163.9100 H   0  0  0  0  0  0  0  0  0  0  0  0
  138.2291  137.9953  163.8477 H   0  0  0  0  0  0  0  0  0  0  0  0
  134.9978  138.3105  159.7274 H   0  0  0  0  0  0  0  0  0  0  0  0
  134.3062  139.8990  159.3197 H   0  0  0  0  0  0  0  0  0  0  0  0
  132.9986  139.8704  161.4264 H   0  0  0  0  0  0  0  0  0  0  0  0
  133.6904  138.2819  161.8341 H   0  0  0  0  0  0  0  0  0  0  0  0
  132.5119  138.1044  159.2751 H   0  0  0  0  0  0  0  0  0  0  0  0
  131.4219  138.5681  162.8644 H   0  0  0  0  0  0  0  0  0  0  0  0
  128.9408  137.5653  163.1844 H   0  0  0  0  0  0  0  0  0  0  0  0
  125.5966  134.9661  158.8776 H   0  0  0  0  0  0  0  0  0  0  0  0
  127.7932  135.2785  157.5156 H   0  0  0  0  0  0  0  0  0  0  0  0
  128.2447  136.9711  157.8304 H   0  0  0  0  0  0  0  0  0  0  0  0
  128.9110  134.0654  159.9162 H   0  0  0  0  0  0  0  0  0  0  0  0
  131.7891  134.0672  158.7539 H   0  0  0  0  0  0  0  0  0  0  0  0
  131.2610  133.5946  160.4270 H   0  0  0  0  0  0  0  0  0  0  0  0
  130.0446  131.6382  159.5878 H   0  0  0  0  0  0  0  0  0  0  0  0
  131.2189  131.7449  158.2056 H   0  0  0  0  0  0  0  0  0  0  0  0
  128.4771  132.6241  157.9823 H   0  0  0  0  0  0  0  0  0  0  0  0
  129.8242  133.3833  157.0293 H   0  0  0  0  0  0  0  0  0  0  0  0
  1  2  1  0
  1 38  1  0
  1 39  1  0
  1 40  1  0
  2  3  1  1
  2  4  1  0
  2 16  1  0
  4  5  2  0
  4 41  1  0
  5 15  1  0
  5  6  1  0
  6  7  2  0
  6 42  1  0
  7  8  1  0
  7 14  1  0
  8 13  1  0
  8  9  2  0
  9 10  1  0
  9 43  1  0
 10 11  2  0
 10 44  1  0
 11 12  1  0
 11 45  1  0
 12 13  2  0
 12 46  1  0
 13 47  1  0
 14 15  1  0
 14 48  1  0
 14 49  1  0
 15 50  1  0
 15 51  1  0
 16 17  1  0
 16 52  1  0
 16 53  1  0
 17 18  1  0
 17 54  1  0
 17 55  1  0
 18 19  1  0
 18 56  1  0
 19 37  1  0
 19 20  2  0
 20 21  1  0
 20 57  1  0
 21 22  2  0
 21 58  1  0
 22 23  1  0
 22 37  1  0
 23 28  1  0
 23 24  2  0
 24 25  1  0
 25 26  1  0
 25 27  1  0
 27 28  2  0
 27 59  1  0
 28 29  1  0
 29 30  1  0
 29 60  1  0
 29 61  1  0
 30 31  1  0
 30 32  1  0
 30 33  1  0
 33 36  1  0
 33 34  1  0
 33 62  1  0
 34 35  1  0
 34 63  1  0
 34 64  1  0
 35 36  1  0
 35 65  1  0
 35 66  1  0
 36 67  1  0
 36 68  1  0
M  CHG  1  30   1
M  END
>  <DOCK_score>  (1) 
-47.959587

>  <SMILES>  (1) 
C[C@H](C=C1C=C(c2ccccc2)CC1)CCNc1ccc(-c2n[nH]cc2C[NH2+]C2CCC2)o1

$$$$
