Nc1ccc(-c2c[nH]c(NCc3c[nH]c4ccccc34)[nH+]2)cc1
     RDKit          3D

 41 44  0  0  1  0  0  0  0  0999 V2000
  131.3347  129.4704  152.0068 N   0  0  0  0  0  0  0  0  0  0  0  0
  131.0740  130.1210  153.2151 C   0  0  0  0  0  0  0  0  0  0  0  0
  130.1472  131.1560  153.2603 C   0  0  0  0  0  0  0  0  0  0  0  0
  129.8886  131.7999  154.4520 C   0  0  0  0  0  0  0  0  0  0  0  0
  130.5573  131.4117  155.6119 C   0  0  0  0  0  0  0  0  0  0  0  0
  130.2809  132.1028  156.8953 C   0  0  0  0  0  0  0  0  0  0  0  0
  129.8058  131.5251  158.0263 C   0  0  0  0  0  0  0  0  0  0  0  0
  129.7040  132.5201  158.9696 N   0  0  0  0  0  0  0  0  0  0  0  0
  129.3961  132.4162  159.8835 H   0  0  0  0  0  0  0  0  0  0  0  0
  130.1116  133.6783  158.3831 C   0  0  0  0  0  0  0  0  0  0  0  0
  130.1577  134.9193  158.9950 N   0  0  0  0  0  0  0  0  0  0  0  0
  129.7447  135.0623  160.3932 C   0  0  0  0  0  0  0  0  0  0  0  0
  128.2702  135.3679  160.4529 C   0  0  0  0  0  0  0  0  0  0  0  0
  127.5396  135.5644  161.5618 C   0  0  0  0  0  0  0  0  0  0  0  0
  126.2381  135.8178  161.2240 N   0  0  0  0  0  0  0  0  0  0  0  0
  125.5222  135.9913  161.8550 H   0  0  0  0  0  0  0  0  0  0  0  0
  126.0959  135.7899  159.8547 C   0  0  0  0  0  0  0  0  0  0  0  0
  125.0140  135.9761  159.0001 C   0  0  0  0  0  0  0  0  0  0  0  0
  125.1942  135.8817  157.6377 C   0  0  0  0  0  0  0  0  0  0  0  0
  126.4462  135.6021  157.1067 C   0  0  0  0  0  0  0  0  0  0  0  0
  127.5223  135.4157  157.9276 C   0  0  0  0  0  0  0  0  0  0  0  0
  127.3624  135.5070  159.3117 C   0  0  0  0  0  0  0  0  0  0  0  0
  130.4587  133.4243  157.1449 N   0  0  0  0  0  0  0  0  0  0  0  0
  130.7901  134.0771  156.5086 H   0  0  0  0  0  0  0  0  0  0  0  0
  131.4904  130.3771  155.5631 C   0  0  0  0  0  0  0  0  0  0  0  0
  131.7415  129.7323  154.3703 C   0  0  0  0  0  0  0  0  0  0  0  0
  130.8688  129.7415  151.1997 H   0  0  0  0  0  0  0  0  0  0  0  0
  131.9812  128.7486  151.9741 H   0  0  0  0  0  0  0  0  0  0  0  0
  129.6294  131.4565  152.3614 H   0  0  0  0  0  0  0  0  0  0  0  0
  129.1685  132.6038  154.4867 H   0  0  0  0  0  0  0  0  0  0  0  0
  129.5588  130.4824  158.1615 H   0  0  0  0  0  0  0  0  0  0  0  0
  130.4635  135.6941  158.4979 H   0  0  0  0  0  0  0  0  0  0  0  0
  130.3033  135.8761  160.8557 H   0  0  0  0  0  0  0  0  0  0  0  0
  129.9453  134.1341  160.9282 H   0  0  0  0  0  0  0  0  0  0  0  0
  127.9223  135.5274  162.5710 H   0  0  0  0  0  0  0  0  0  0  0  0
  124.0371  136.1984  159.4032 H   0  0  0  0  0  0  0  0  0  0  0  0
  124.3530  136.0261  156.9760 H   0  0  0  0  0  0  0  0  0  0  0  0
  126.5703  135.5311  156.0363 H   0  0  0  0  0  0  0  0  0  0  0  0
  128.4932  135.1983  157.5073 H   0  0  0  0  0  0  0  0  0  0  0  0
  132.0130  130.0780  156.4595 H   0  0  0  0  0  0  0  0  0  0  0  0
  132.4609  128.9278  154.3330 H   0  0  0  0  0  0  0  0  0  0  0  0
  1  2  1  0
  1 27  1  0
  1 28  1  0
  2 26  2  0
  2  3  1  0
  3  4  2  0
  3 29  1  0
  4  5  1  0
  4 30  1  0
  5  6  1  0
  5 25  2  0
  6 23  1  0
  6  7  2  0
  7  8  1  0
  7 31  1  0
  8  9  1  0
  8 10  1  0
 10 11  1  0
 10 23  2  0
 11 12  1  0
 11 32  1  0
 12 13  1  0
 12 33  1  0
 12 34  1  0
 13 22  1  0
 13 14  2  0
 14 15  1  0
 14 35  1  0
 15 16  1  0
 15 17  1  0
 17 22  2  0
 17 18  1  0
 18 19  2  0
 18 36  1  0
 19 20  1  0
 19 37  1  0
 20 21  2  0
 20 38  1  0
 21 22  1  0
 21 39  1  0
 23 24  1  0
 25 26  1  0
 25 40  1  0
 26 41  1  0
M  CHG  1  23   1
M  END
>  <DOCK_score>  (1) 
-54.423199

>  <SMILES>  (1) 
Nc1ccc(-c2c[nH]c(NCc3c[nH]c4ccccc34)[nH+]2)cc1

$$$$
