Cc1cccc2[nH]c(C[NH2+]Cc3cc4c(NCCCc5cccc6ccccc56)cccc4[nH]3)cc12
     RDKit          3D

 69 74  0  0  0  0  0  0  0  0999 V2000
  129.9190  132.3638  154.9942 C   0  0  0  0  0  0  0  0  0  0  0  0
  130.5806  131.7392  156.1955 C   0  0  0  0  0  0  0  0  0  0  0  0
  131.0993  130.4774  156.1139 C   0  0  0  0  0  0  0  0  0  0  0  0
  131.7101  129.8937  157.2149 C   0  0  0  0  0  0  0  0  0  0  0  0
  131.8051  130.5747  158.4091 C   0  0  0  0  0  0  0  0  0  0  0  0
  131.2840  131.8599  158.5147 C   0  0  0  0  0  0  0  0  0  0  0  0
  131.2216  132.7761  159.5406 N   0  0  0  0  0  0  0  0  0  0  0  0
  131.5730  132.6373  160.4340 H   0  0  0  0  0  0  0  0  0  0  0  0
  130.5904  133.9120  159.1120 C   0  0  0  0  0  0  0  0  0  0  0  0
  130.3377  135.1331  159.9582 C   0  0  0  0  0  0  0  0  0  0  0  0
  131.4732  136.0569  159.8364 N   0  0  0  0  0  0  0  0  0  0  0  0
  131.5806  136.3326  158.8717 H   0  0  0  0  0  0  0  0  0  0  0  0
  132.3152  135.5983  160.1508 H   0  0  0  0  0  0  0  0  0  0  0  0
  131.2268  137.2472  160.6613 C   0  0  0  0  0  0  0  0  0  0  0  0
  132.3919  138.1949  160.5364 C   0  0  0  0  0  0  0  0  0  0  0  0
  132.9837  138.8284  161.5610 C   0  0  0  0  0  0  0  0  0  0  0  0
  134.0656  139.6381  160.9960 C   0  0  0  0  0  0  0  0  0  0  0  0
  135.0166  140.5107  161.5439 C   0  0  0  0  0  0  0  0  0  0  0  0
  135.0542  140.7345  162.9211 N   0  0  0  0  0  0  0  0  0  0  0  0
  136.0501  141.6473  163.4878 C   0  0  0  0  0  0  0  0  0  0  0  0
  135.8756  141.7132  165.0064 C   0  0  0  0  0  0  0  0  0  0  0  0
  136.0657  140.3170  165.6027 C   0  0  0  0  0  0  0  0  0  0  0  0
  135.8938  140.3820  167.0984 C   0  0  0  0  0  0  0  0  0  0  0  0
  136.9672  140.6211  167.9008 C   0  0  0  0  0  0  0  0  0  0  0  0
  136.8277  140.6841  169.2857 C   0  0  0  0  0  0  0  0  0  0  0  0
  135.6138  140.5097  169.8765 C   0  0  0  0  0  0  0  0  0  0  0  0
  134.4827  140.2612  169.0809 C   0  0  0  0  0  0  0  0  0  0  0  0
  133.2133  140.0750  169.6546 C   0  0  0  0  0  0  0  0  0  0  0  0
  132.1405  139.8349  168.8523 C   0  0  0  0  0  0  0  0  0  0  0  0
  132.2802  139.7714  167.4670 C   0  0  0  0  0  0  0  0  0  0  0  0
  133.4936  139.9467  166.8762 C   0  0  0  0  0  0  0  0  0  0  0  0
  134.6247  140.1962  167.6722 C   0  0  0  0  0  0  0  0  0  0  0  0
  135.9207  141.1438  160.7103 C   0  0  0  0  0  0  0  0  0  0  0  0
  135.8845  140.9220  159.3411 C   0  0  0  0  0  0  0  0  0  0  0  0
  134.9513  140.0718  158.7901 C   0  0  0  0  0  0  0  0  0  0  0  0
  134.0302  139.4225  159.6081 C   0  0  0  0  0  0  0  0  0  0  0  0
  133.0045  138.5380  159.3605 N   0  0  0  0  0  0  0  0  0  0  0  0
  132.7531  138.2073  158.4839 H   0  0  0  0  0  0  0  0  0  0  0  0
  130.2246  133.7756  157.8276 C   0  0  0  0  0  0  0  0  0  0  0  0
  130.6655  132.4470  157.3956 C   0  0  0  0  0  0  0  0  0  0  0  0
  128.8558  132.1240  154.9992 H   0  0  0  0  0  0  0  0  0  0  0  0
  130.0475  133.4457  155.0303 H   0  0  0  0  0  0  0  0  0  0  0  0
  130.3752  131.9739  154.0843 H   0  0  0  0  0  0  0  0  0  0  0  0
  131.0332  129.9301  155.1852 H   0  0  0  0  0  0  0  0  0  0  0  0
  132.1153  128.8958  157.1350 H   0  0  0  0  0  0  0  0  0  0  0  0
  132.2829  130.1120  159.2601 H   0  0  0  0  0  0  0  0  0  0  0  0
  130.2218  134.8351  161.0004 H   0  0  0  0  0  0  0  0  0  0  0  0
  129.4281  135.6286  159.6187 H   0  0  0  0  0  0  0  0  0  0  0  0
  131.1109  136.9494  161.7035 H   0  0  0  0  0  0  0  0  0  0  0  0
  130.3173  137.7428  160.3217 H   0  0  0  0  0  0  0  0  0  0  0  0
  132.7162  138.7519  162.6045 H   0  0  0  0  0  0  0  0  0  0  0  0
  134.4212  140.2855  163.5029 H   0  0  0  0  0  0  0  0  0  0  0  0
  135.9145  142.6420  163.0630 H   0  0  0  0  0  0  0  0  0  0  0  0
  137.0507  141.2850  163.2524 H   0  0  0  0  0  0  0  0  0  0  0  0
  134.8747  142.0755  165.2418 H   0  0  0  0  0  0  0  0  0  0  0  0
  136.6163  142.3924  165.4282 H   0  0  0  0  0  0  0  0  0  0  0  0
  137.0664  139.9547  165.3673 H   0  0  0  0  0  0  0  0  0  0  0  0
  135.3248  139.6378  165.1809 H   0  0  0  0  0  0  0  0  0  0  0  0
  137.9415  140.7639  167.4572 H   0  0  0  0  0  0  0  0  0  0  0  0
  137.6955  140.8749  169.8995 H   0  0  0  0  0  0  0  0  0  0  0  0
  135.5200  140.5664  170.9510 H   0  0  0  0  0  0  0  0  0  0  0  0
  133.0898  140.1214  170.7265 H   0  0  0  0  0  0  0  0  0  0  0  0
  131.1662  139.6918  169.2958 H   0  0  0  0  0  0  0  0  0  0  0  0
  131.4125  139.5798  166.8531 H   0  0  0  0  0  0  0  0  0  0  0  0
  133.5867  139.8947  165.8015 H   0  0  0  0  0  0  0  0  0  0  0  0
  136.6584  141.8137  161.1269 H   0  0  0  0  0  0  0  0  0  0  0  0
  136.5957  141.4216  158.7001 H   0  0  0  0  0  0  0  0  0  0  0  0
  134.9341  139.9084  157.7227 H   0  0  0  0  0  0  0  0  0  0  0  0
  129.7055  134.5072  157.2262 H   0  0  0  0  0  0  0  0  0  0  0  0
  1  2  1  0
  1 41  1  0
  1 42  1  0
  1 43  1  0
  2 40  2  0
  2  3  1  0
  3  4  2  0
  3 44  1  0
  4  5  1  0
  4 45  1  0
  5  6  2  0
  5 46  1  0
  6 40  1  0
  6  7  1  0
  7  8  1  0
  7  9  1  0
  9 10  1  0
  9 39  2  0
 10 11  1  0
 10 47  1  0
 10 48  1  0
 11 12  1  0
 11 13  1  0
 11 14  1  0
 14 15  1  0
 14 49  1  0
 14 50  1  0
 15 37  1  0
 15 16  2  0
 16 17  1  0
 16 51  1  0
 17 36  2  0
 17 18  1  0
 18 19  1  0
 18 33  2  0
 19 20  1  0
 19 52  1  0
 20 21  1  0
 20 53  1  0
 20 54  1  0
 21 22  1  0
 21 55  1  0
 21 56  1  0
 22 23  1  0
 22 57  1  0
 22 58  1  0
 23 32  1  0
 23 24  2  0
 24 25  1  0
 24 59  1  0
 25 26  2  0
 25 60  1  0
 26 27  1  0
 26 61  1  0
 27 32  2  0
 27 28  1  0
 28 29  2  0
 28 62  1  0
 29 30  1  0
 29 63  1  0
 30 31  2  0
 30 64  1  0
 31 32  1  0
 31 65  1  0
 33 34  1  0
 33 66  1  0
 34 35  2  0
 34 67  1  0
 35 36  1  0
 35 68  1  0
 36 37  1  0
 37 38  1  0
 39 40  1  0
 39 69  1  0
M  CHG  1  11   1
M  END
>  <DOCK_score>  (1) 
-58.223083

>  <SMILES>  (1) 
Cc1cccc2[nH]c(C[NH2+]Cc3cc4c(NCCCc5cccc6ccccc56)cccc4[nH]3)cc12

$$$$
