CC1COC[C@@H]1[NH+]=C(NC1CCC1)N[C@H]1CCC(=O)NC1
     RDKit          3D

 48 50  0  0  1  0  0  0  0  0999 V2000
  130.7092  137.4267  160.4568 C   0  0  0  0  0  0  0  0  0  0  0  0
  131.5363  136.4545  161.3004 C   0  0  2  0  0  0  0  0  0  0  0  0
  133.0100  136.9132  161.3659 C   0  0  0  0  0  0  0  0  0  0  0  0
  133.6702  136.1857  160.3074 O   0  0  0  0  0  0  0  0  0  0  0  0
  133.1108  134.8550  160.3537 C   0  0  0  0  0  0  0  0  0  0  0  0
  131.6041  135.0694  160.6193 C   0  0  2  0  0  0  0  0  0  0  0  0
  131.2178  134.2972  161.2846 H   0  0  0  0  0  0  0  0  0  0  0  0
  130.8573  135.0799  159.3590 N   0  0  0  0  0  0  0  0  0  0  0  0
  131.3046  135.3188  158.5321 H   0  0  0  0  0  0  0  0  0  0  0  0
  129.5918  134.7682  159.3487 C   0  0  0  0  0  0  0  0  0  0  0  0
  129.0369  134.1833  158.2350 N   0  0  0  0  0  0  0  0  0  0  0  0
  129.8564  133.3314  157.3697 C   0  0  0  0  0  0  0  0  0  0  0  0
  129.5383  133.4864  155.8731 C   0  0  0  0  0  0  0  0  0  0  0  0
  129.7047  131.9599  155.7621 C   0  0  0  0  0  0  0  0  0  0  0  0
  129.3355  131.8893  157.2532 C   0  0  0  0  0  0  0  0  0  0  0  0
  128.8117  135.0241  160.4515 N   0  0  0  0  0  0  0  0  0  0  0  0
  127.3892  134.6738  160.4399 C   0  0  1  0  0  0  0  0  0  0  0  0
  127.0054  134.7368  159.4216 H   0  0  0  0  0  0  0  0  0  0  0  0
  127.2028  133.2480  160.9727 C   0  0  0  0  0  0  0  0  0  0  0  0
  125.7390  132.8457  160.7764 C   0  0  0  0  0  0  0  0  0  0  0  0
  124.8373  133.9301  161.2926 C   0  0  0  0  0  0  0  0  0  0  0  0
  123.6775  133.6546  161.5153 O   0  0  0  0  0  0  0  0  0  0  0  0
  125.2439  135.1798  161.5191 N   0  0  0  0  0  0  0  0  0  0  0  0
  126.6160  135.6380  161.3403 C   0  0  0  0  0  0  0  0  0  0  0  0
  129.6971  137.0385  160.3427 H   0  0  0  0  0  0  0  0  0  0  0  0
  130.6723  138.3971  160.9523 H   0  0  0  0  0  0  0  0  0  0  0  0
  131.1687  137.5375  159.4748 H   0  0  0  0  0  0  0  0  0  0  0  0
  131.1186  136.3669  162.3034 H   0  0  0  0  0  0  0  0  0  0  0  0
  133.0813  137.9867  161.1904 H   0  0  0  0  0  0  0  0  0  0  0  0
  133.4449  136.6559  162.3317 H   0  0  0  0  0  0  0  0  0  0  0  0
  133.5611  134.2821  161.1643 H   0  0  0  0  0  0  0  0  0  0  0  0
  133.2596  134.3473  159.4008 H   0  0  0  0  0  0  0  0  0  0  0  0
  128.1026  134.3347  158.0223 H   0  0  0  0  0  0  0  0  0  0  0  0
  130.9202  133.3943  157.5988 H   0  0  0  0  0  0  0  0  0  0  0  0
  128.5230  133.8304  155.6760 H   0  0  0  0  0  0  0  0  0  0  0  0
  130.2917  134.0498  155.3226 H   0  0  0  0  0  0  0  0  0  0  0  0
  130.7274  131.6477  155.5502 H   0  0  0  0  0  0  0  0  0  0  0  0
  128.9725  131.4864  155.1080 H   0  0  0  0  0  0  0  0  0  0  0  0
  129.9254  131.1652  157.8153 H   0  0  0  0  0  0  0  0  0  0  0  0
  128.2647  131.7958  157.4339 H   0  0  0  0  0  0  0  0  0  0  0  0
  129.2032  135.4368  161.2372 H   0  0  0  0  0  0  0  0  0  0  0  0
  127.8484  132.5634  160.4228 H   0  0  0  0  0  0  0  0  0  0  0  0
  127.4534  133.2168  162.0331 H   0  0  0  0  0  0  0  0  0  0  0  0
  125.5459  132.6888  159.7151 H   0  0  0  0  0  0  0  0  0  0  0  0
  125.5411  131.9224  161.3207 H   0  0  0  0  0  0  0  0  0  0  0  0
  124.5861  135.8233  161.8258 H   0  0  0  0  0  0  0  0  0  0  0  0
  126.6087  136.6285  160.8853 H   0  0  0  0  0  0  0  0  0  0  0  0
  127.1062  135.6951  162.3121 H   0  0  0  0  0  0  0  0  0  0  0  0
  1  2  1  0
  1 25  1  0
  1 26  1  0
  1 27  1  0
  2  6  1  0
  2  3  1  0
  2 28  1  1
  3  4  1  0
  3 29  1  0
  3 30  1  0
  4  5  1  0
  5  6  1  0
  5 31  1  0
  5 32  1  0
  6  7  1  1
  6  8  1  0
  8  9  1  0
 10  8  2  0
 10 11  1  0
 10 16  1  0
 11 12  1  0
 11 33  1  0
 12 15  1  0
 12 13  1  0
 12 34  1  0
 13 14  1  0
 13 35  1  0
 13 36  1  0
 14 15  1  0
 14 37  1  0
 14 38  1  0
 15 39  1  0
 15 40  1  0
 16 17  1  0
 16 41  1  0
 17 18  1  6
 17 24  1  0
 17 19  1  0
 19 20  1  0
 19 42  1  0
 19 43  1  0
 20 21  1  0
 20 44  1  0
 20 45  1  0
 21 22  2  0
 21 23  1  0
 23 24  1  0
 23 46  1  0
 24 47  1  0
 24 48  1  0
M  CHG  1   8   1
M  END
>  <DOCK_score>  (1) 
-41.109268

>  <SMILES>  (1) 
CC1COC[C@@H]1[NH+]=C(NC1CCC1)N[C@H]1CCC(=O)NC1

$$$$
