CCc1ccc(-c2c[nH]c(NC(C3=C[C@H](Br)CC3)C3CC=CC3)[nH+]2)cc1
     RDKit          3D

 53 56  0  0  1  0  0  0  0  0999 V2000
  129.8361  129.2235  151.0931 C   0  0  0  0  0  0  0  0  0  0  0  0
  131.1739  129.7103  151.6524 C   0  0  0  0  0  0  0  0  0  0  0  0
  130.9450  130.4045  152.9703 C   0  0  0  0  0  0  0  0  0  0  0  0
  130.9807  129.6786  154.1469 C   0  0  0  0  0  0  0  0  0  0  0  0
  130.7715  130.3089  155.3566 C   0  0  0  0  0  0  0  0  0  0  0  0
  130.5239  131.6801  155.3912 C   0  0  0  0  0  0  0  0  0  0  0  0
  130.2984  132.3633  156.6884 C   0  0  0  0  0  0  0  0  0  0  0  0
  129.7505  131.8086  157.7979 C   0  0  0  0  0  0  0  0  0  0  0  0
  129.7335  132.7844  158.7646 N   0  0  0  0  0  0  0  0  0  0  0  0
  129.4023  132.6892  159.6713 H   0  0  0  0  0  0  0  0  0  0  0  0
  130.2648  133.9102  158.2146 C   0  0  0  0  0  0  0  0  0  0  0  0
  130.4259  135.1243  158.8601 N   0  0  0  0  0  0  0  0  0  0  0  0
  130.0075  135.2728  160.2562 C   0  0  1  0  0  0  0  0  0  0  0  0
  128.5313  134.9926  160.3709 C   0  0  0  0  0  0  0  0  0  0  0  0
  127.9542  134.4963  161.4311 C   0  0  0  0  0  0  0  0  0  0  0  0
  126.4666  134.3388  161.2176 C   0  0  2  0  0  0  0  0  0  0  0  0
  125.9179  134.6974  162.0884 H   0  0  0  0  0  0  0  0  0  0  0  0
  126.0220  132.4580  160.8563 Br  0  0  0  0  0  0  0  0  0  0  0  0
  126.1494  135.2140  159.9829 C   0  0  0  0  0  0  0  0  0  0  0  0
  127.5249  135.2489  159.2732 C   0  0  0  0  0  0  0  0  0  0  0  0
  130.7836  134.2842  161.1288 C   0  0  0  0  0  0  0  0  0  0  0  0
  130.9334  134.8174  162.5727 C   0  0  0  0  0  0  0  0  0  0  0  0
  132.3193  134.3887  162.9978 C   0  0  0  0  0  0  0  0  0  0  0  0
  133.0427  134.0463  161.9667 C   0  0  0  0  0  0  0  0  0  0  0  0
  132.2610  134.1901  160.6817 C   0  0  0  0  0  0  0  0  0  0  0  0
  130.6039  133.6539  156.9748 N   0  0  0  0  0  0  0  0  0  0  0  0
  131.0086  134.2858  156.3602 H   0  0  0  0  0  0  0  0  0  0  0  0
  130.4832  132.4059  154.2020 C   0  0  0  0  0  0  0  0  0  0  0  0
  130.6998  131.7661  152.9986 C   0  0  0  0  0  0  0  0  0  0  0  0
  129.3807  128.5264  151.7966 H   0  0  0  0  0  0  0  0  0  0  0  0
  129.1726  130.0754  150.9446 H   0  0  0  0  0  0  0  0  0  0  0  0
  130.0019  128.7214  150.1399 H   0  0  0  0  0  0  0  0  0  0  0  0
  131.6298  130.4079  150.9489 H   0  0  0  0  0  0  0  0  0  0  0  0
  131.8379  128.8590  151.8008 H   0  0  0  0  0  0  0  0  0  0  0  0
  131.1727  128.6161  154.1187 H   0  0  0  0  0  0  0  0  0  0  0  0
  130.7995  129.7408  156.2746 H   0  0  0  0  0  0  0  0  0  0  0  0
  129.3987  130.7929  157.9027 H   0  0  0  0  0  0  0  0  0  0  0  0
  130.8158  135.8766  158.3878 H   0  0  0  0  0  0  0  0  0  0  0  0
  130.2114  136.2901  160.5904 H   0  0  0  0  0  0  0  0  0  0  0  0
  128.4719  134.2330  162.3417 H   0  0  0  0  0  0  0  0  0  0  0  0
  125.3942  134.7435  159.3533 H   0  0  0  0  0  0  0  0  0  0  0  0
  125.8385  136.2149  160.2823 H   0  0  0  0  0  0  0  0  0  0  0  0
  127.6957  136.2264  158.8222 H   0  0  0  0  0  0  0  0  0  0  0  0
  127.5815  134.4670  158.5161 H   0  0  0  0  0  0  0  0  0  0  0  0
  130.3092  133.3029  161.1214 H   0  0  0  0  0  0  0  0  0  0  0  0
  130.8513  135.9042  162.5866 H   0  0  0  0  0  0  0  0  0  0  0  0
  130.1809  134.3705  163.2224 H   0  0  0  0  0  0  0  0  0  0  0  0
  132.6651  134.3681  164.0208 H   0  0  0  0  0  0  0  0  0  0  0  0
  134.0656  133.7049  162.0246 H   0  0  0  0  0  0  0  0  0  0  0  0
  132.4105  133.3170  160.0466 H   0  0  0  0  0  0  0  0  0  0  0  0
  132.5572  135.0980  160.1565 H   0  0  0  0  0  0  0  0  0  0  0  0
  130.2869  133.4677  154.2226 H   0  0  0  0  0  0  0  0  0  0  0  0
  130.6733  132.3283  152.0768 H   0  0  0  0  0  0  0  0  0  0  0  0
  1  2  1  0
  1 30  1  0
  1 31  1  0
  1 32  1  0
  2  3  1  0
  2 33  1  0
  2 34  1  0
  3 29  2  0
  3  4  1  0
  4  5  2  0
  4 35  1  0
  5  6  1  0
  5 36  1  0
  6  7  1  0
  6 28  2  0
  7 26  1  0
  7  8  2  0
  8  9  1  0
  8 37  1  0
  9 10  1  0
  9 11  1  0
 11 12  1  0
 11 26  2  0
 12 13  1  0
 12 38  1  0
 13 14  1  0
 13 21  1  0
 13 39  1  1
 14 20  1  0
 14 15  2  0
 15 16  1  0
 15 40  1  0
 16 17  1  1
 16 18  1  0
 16 19  1  0
 19 20  1  0
 19 41  1  0
 19 42  1  0
 20 43  1  0
 20 44  1  0
 21 25  1  0
 21 22  1  0
 21 45  1  0
 22 23  1  0
 22 46  1  0
 22 47  1  0
 23 24  2  0
 23 48  1  0
 24 25  1  0
 24 49  1  0
 25 50  1  0
 25 51  1  0
 26 27  1  0
 28 29  1  0
 28 52  1  0
 29 53  1  0
M  CHG  1  26   1
M  END
>  <DOCK_score>  (1) 
-57.988403

>  <SMILES>  (1) 
CCc1ccc(-c2c[nH]c(NC(C3=C[C@H](Br)CC3)C3CC=CC3)[nH+]2)cc1

$$$$
