Cc1cc(C[NH+]2CC[C@@H](Cc3ccccc3O)C2)cc(Sc2ccc(N)nc2C)c1
     RDKit          3D

 60 63  0  0  1  0  0  0  0  0999 V2000
  135.2057  139.3665  158.6356 C   0  0  0  0  0  0  0  0  0  0  0  0
  134.1828  138.8436  159.6110 C   0  0  0  0  0  0  0  0  0  0  0  0
  133.8442  137.5024  159.6040 C   0  0  0  0  0  0  0  0  0  0  0  0
  132.9061  137.0180  160.4973 C   0  0  0  0  0  0  0  0  0  0  0  0
  132.5414  135.5559  160.4863 C   0  0  0  0  0  0  0  0  0  0  0  0
  131.4169  135.3386  159.5662 N   0  0  2  0  0  0  0  0  0  0  0  0
  131.6792  135.6247  158.6349 H   0  0  0  0  0  0  0  0  0  0  0  0
  130.2481  136.1251  160.0147 C   0  0  0  0  0  0  0  0  0  0  0  0
  129.0234  135.2339  159.6898 C   0  0  0  0  0  0  0  0  0  0  0  0
  129.5735  133.8180  160.0058 C   0  0  1  0  0  0  0  0  0  0  0  0
  129.5050  133.6044  161.0725 H   0  0  0  0  0  0  0  0  0  0  0  0
  128.8300  132.7552  159.1943 C   0  0  0  0  0  0  0  0  0  0  0  0
  127.5489  132.3902  159.8989 C   0  0  0  0  0  0  0  0  0  0  0  0
  127.5374  131.3663  160.8264 C   0  0  0  0  0  0  0  0  0  0  0  0
  126.3627  131.0316  161.4739 C   0  0  0  0  0  0  0  0  0  0  0  0
  125.1964  131.7201  161.1948 C   0  0  0  0  0  0  0  0  0  0  0  0
  125.2025  132.7446  160.2686 C   0  0  0  0  0  0  0  0  0  0  0  0
  126.3814  133.0860  159.6213 C   0  0  0  0  0  0  0  0  0  0  0  0
  126.3913  134.0973  158.7135 O   0  0  0  0  0  0  0  0  0  0  0  0
  131.0484  133.9110  159.5615 C   0  0  0  0  0  0  0  0  0  0  0  0
  132.3071  137.8715  161.4026 C   0  0  0  0  0  0  0  0  0  0  0  0
  132.6409  139.2204  161.4090 C   0  0  0  0  0  0  0  0  0  0  0  0
  131.8752  140.3143  162.5587 S   0  0  0  0  0  0  0  0  0  0  0  0
  130.2905  139.5845  162.8049 C   0  0  0  0  0  0  0  0  0  0  0  0
  130.0960  138.6426  163.8150 C   0  0  0  0  0  0  0  0  0  0  0  0
  128.8358  138.0963  163.9724 C   0  0  0  0  0  0  0  0  0  0  0  0
  127.8104  138.5014  163.1242 C   0  0  0  0  0  0  0  0  0  0  0  0
  126.5371  137.9571  163.2744 N   0  0  0  0  0  0  0  0  0  0  0  0
  128.0295  139.4016  162.1792 N   0  0  0  0  0  0  0  0  0  0  0  0
  129.2206  139.9400  161.9970 C   0  0  0  0  0  0  0  0  0  0  0  0
  129.4191  140.9571  160.9028 C   0  0  0  0  0  0  0  0  0  0  0  0
  133.5846  139.7037  160.5101 C   0  0  0  0  0  0  0  0  0  0  0  0
  136.1986  139.3010  159.0804 H   0  0  0  0  0  0  0  0  0  0  0  0
  135.1761  138.7703  157.7235 H   0  0  0  0  0  0  0  0  0  0  0  0
  134.9822  140.4065  158.3975 H   0  0  0  0  0  0  0  0  0  0  0  0
  134.3138  136.8319  158.8996 H   0  0  0  0  0  0  0  0  0  0  0  0
  133.3992  134.9698  160.1564 H   0  0  0  0  0  0  0  0  0  0  0  0
  132.2540  135.2455  161.4909 H   0  0  0  0  0  0  0  0  0  0  0  0
  130.3063  136.3138  161.0866 H   0  0  0  0  0  0  0  0  0  0  0  0
  130.1898  137.0649  159.4656 H   0  0  0  0  0  0  0  0  0  0  0  0
  128.7460  135.3194  158.6391 H   0  0  0  0  0  0  0  0  0  0  0  0
  128.1798  135.4781  160.3353 H   0  0  0  0  0  0  0  0  0  0  0  0
  128.6006  133.1487  158.2042 H   0  0  0  0  0  0  0  0  0  0  0  0
  129.4564  131.8685  159.0968 H   0  0  0  0  0  0  0  0  0  0  0  0
  128.4471  130.8270  161.0461 H   0  0  0  0  0  0  0  0  0  0  0  0
  126.3560  130.2313  162.1990 H   0  0  0  0  0  0  0  0  0  0  0  0
  124.2799  131.4567  161.7021 H   0  0  0  0  0  0  0  0  0  0  0  0
  124.2914  133.2823  160.0512 H   0  0  0  0  0  0  0  0  0  0  0  0
  125.5314  134.5215  158.5878 H   0  0  0  0  0  0  0  0  0  0  0  0
  131.1596  133.5027  158.5570 H   0  0  0  0  0  0  0  0  0  0  0  0
  131.6830  133.3618  160.2571 H   0  0  0  0  0  0  0  0  0  0  0  0
  131.5777  137.4918  162.1027 H   0  0  0  0  0  0  0  0  0  0  0  0
  130.9111  138.3466  164.4589 H   0  0  0  0  0  0  0  0  0  0  0  0
  128.6497  137.3641  164.7442 H   0  0  0  0  0  0  0  0  0  0  0  0
  126.3695  137.2997  163.9675 H   0  0  0  0  0  0  0  0  0  0  0  0
  125.8180  138.2356  162.6860 H   0  0  0  0  0  0  0  0  0  0  0  0
  129.7117  140.4495  159.9837 H   0  0  0  0  0  0  0  0  0  0  0  0
  128.4881  141.4995  160.7378 H   0  0  0  0  0  0  0  0  0  0  0  0
  130.2009  141.6579  161.1956 H   0  0  0  0  0  0  0  0  0  0  0  0
  133.8492  140.7508  160.5146 H   0  0  0  0  0  0  0  0  0  0  0  0
  1  2  1  0
  1 33  1  0
  1 34  1  0
  1 35  1  0
  2 32  2  0
  2  3  1  0
  3  4  2  0
  3 36  1  0
  4  5  1  0
  4 21  1  0
  5  6  1  0
  5 37  1  0
  5 38  1  0
  6  7  1  6
  6 20  1  0
  6  8  1  0
  8  9  1  0
  8 39  1  0
  8 40  1  0
  9 10  1  0
  9 41  1  0
  9 42  1  0
 10 11  1  1
 10 12  1  0
 10 20  1  0
 12 13  1  0
 12 43  1  0
 12 44  1  0
 13 18  1  0
 13 14  2  0
 14 15  1  0
 14 45  1  0
 15 16  2  0
 15 46  1  0
 16 17  1  0
 16 47  1  0
 17 18  2  0
 17 48  1  0
 18 19  1  0
 19 49  1  0
 20 50  1  0
 20 51  1  0
 21 22  2  0
 21 52  1  0
 22 23  1  0
 22 32  1  0
 23 24  1  0
 24 30  1  0
 24 25  2  0
 25 26  1  0
 25 53  1  0
 26 27  2  0
 26 54  1  0
 27 28  1  0
 27 29  1  0
 28 55  1  0
 28 56  1  0
 29 30  2  0
 30 31  1  0
 31 57  1  0
 31 58  1  0
 31 59  1  0
 32 60  1  0
M  CHG  1   6   1
M  END
>  <DOCK_score>  (1) 
-43.896008

>  <SMILES>  (1) 
Cc1cc(C[NH+]2CC[C@@H](Cc3ccccc3O)C2)cc(Sc2ccc(N)nc2C)c1

$$$$
