Nc1ccc(-c2c[nH]c(Nc3cc(O)cc(C(=O)Nc4ccc(-c5ccccc5)cc4)c3)[nH+]2)cc1
     RDKit          3D

 59 63  0  0  1  0  0  0  0  0999 V2000
  131.4997  129.4455  151.4425 N   0  0  0  0  0  0  0  0  0  0  0  0
  131.1560  130.1533  152.5968 C   0  0  0  0  0  0  0  0  0  0  0  0
  130.4348  131.3371  152.4966 C   0  0  0  0  0  0  0  0  0  0  0  0
  130.0944  132.0368  153.6351 C   0  0  0  0  0  0  0  0  0  0  0  0
  130.4743  131.5561  154.8871 C   0  0  0  0  0  0  0  0  0  0  0  0
  130.1099  132.3073  156.1133 C   0  0  0  0  0  0  0  0  0  0  0  0
  129.3480  131.8448  157.1356 C   0  0  0  0  0  0  0  0  0  0  0  0
  129.2621  132.8590  158.0591 N   0  0  0  0  0  0  0  0  0  0  0  0
  128.7825  132.8298  158.9018 H   0  0  0  0  0  0  0  0  0  0  0  0
  129.9747  133.9117  157.5731 C   0  0  0  0  0  0  0  0  0  0  0  0
  130.1395  135.1344  158.2033 N   0  0  0  0  0  0  0  0  0  0  0  0
  129.1398  135.6258  159.0480 C   0  0  0  0  0  0  0  0  0  0  0  0
  127.8105  135.2955  158.8157 C   0  0  0  0  0  0  0  0  0  0  0  0
  126.8155  135.7806  159.6508 C   0  0  0  0  0  0  0  0  0  0  0  0
  125.5165  135.4548  159.4190 O   0  0  0  0  0  0  0  0  0  0  0  0
  127.1432  136.5971  160.7211 C   0  0  0  0  0  0  0  0  0  0  0  0
  128.4766  136.9320  160.9588 C   0  0  0  0  0  0  0  0  0  0  0  0
  128.8299  137.8034  162.0997 C   0  0  0  0  0  0  0  0  0  0  0  0
  128.0218  138.6062  162.5243 O   0  0  0  0  0  0  0  0  0  0  0  0
  130.0477  137.7077  162.6689 N   0  0  0  0  0  0  0  0  0  0  0  0
  130.3817  138.5315  163.7473 C   0  0  0  0  0  0  0  0  0  0  0  0
  131.4620  139.4003  163.6483 C   0  0  0  0  0  0  0  0  0  0  0  0
  131.7898  140.2180  164.7088 C   0  0  0  0  0  0  0  0  0  0  0  0
  131.0437  140.1647  165.8851 C   0  0  0  0  0  0  0  0  0  0  0  0
  131.3982  141.0388  167.0301 C   0  0  0  0  0  0  0  0  0  0  0  0
  131.1373  140.6233  168.3343 C   0  0  0  0  0  0  0  0  0  0  0  0
  131.4739  141.4386  169.3959 C   0  0  0  0  0  0  0  0  0  0  0  0
  132.0602  142.6706  169.1663 C   0  0  0  0  0  0  0  0  0  0  0  0
  132.3162  143.0904  167.8737 C   0  0  0  0  0  0  0  0  0  0  0  0
  131.9887  142.2810  166.8050 C   0  0  0  0  0  0  0  0  0  0  0  0
  129.9641  139.2883  165.9843 C   0  0  0  0  0  0  0  0  0  0  0  0
  129.6364  138.4766  164.9192 C   0  0  0  0  0  0  0  0  0  0  0  0
  129.4757  136.4429  160.1168 C   0  0  0  0  0  0  0  0  0  0  0  0
  130.4750  133.5798  156.4077 N   0  0  0  0  0  0  0  0  0  0  0  0
  131.0212  134.1522  155.8466 H   0  0  0  0  0  0  0  0  0  0  0  0
  131.2023  130.3712  154.9849 C   0  0  0  0  0  0  0  0  0  0  0  0
  131.5355  129.6718  153.8442 C   0  0  0  0  0  0  0  0  0  0  0  0
  131.2349  129.7814  150.5712 H   0  0  0  0  0  0  0  0  0  0  0  0
  132.0030  128.6200  151.5112 H   0  0  0  0  0  0  0  0  0  0  0  0
  130.1409  131.7095  151.5263 H   0  0  0  0  0  0  0  0  0  0  0  0
  129.5336  132.9565  153.5567 H   0  0  0  0  0  0  0  0  0  0  0  0
  128.8955  130.8671  157.2097 H   0  0  0  0  0  0  0  0  0  0  0  0
  130.9484  135.6497  158.0583 H   0  0  0  0  0  0  0  0  0  0  0  0
  127.5514  134.6589  157.9824 H   0  0  0  0  0  0  0  0  0  0  0  0
  124.8956  135.8392  160.0528 H   0  0  0  0  0  0  0  0  0  0  0  0
  126.3667  136.9778  161.3681 H   0  0  0  0  0  0  0  0  0  0  0  0
  130.6926  137.0671  162.3301 H   0  0  0  0  0  0  0  0  0  0  0  0
  132.0428  139.4379  162.7385 H   0  0  0  0  0  0  0  0  0  0  0  0
  132.6266  140.8961  164.6298 H   0  0  0  0  0  0  0  0  0  0  0  0
  130.6760  139.6636  168.5143 H   0  0  0  0  0  0  0  0  0  0  0  0
  131.2760  141.1158  170.4073 H   0  0  0  0  0  0  0  0  0  0  0  0
  132.3172  143.3073  170.0000 H   0  0  0  0  0  0  0  0  0  0  0  0
  132.7733  144.0534  167.7005 H   0  0  0  0  0  0  0  0  0  0  0  0
  132.1893  142.6098  165.7959 H   0  0  0  0  0  0  0  0  0  0  0  0
  129.3849  139.2452  166.8948 H   0  0  0  0  0  0  0  0  0  0  0  0
  128.8002  137.7974  164.9958 H   0  0  0  0  0  0  0  0  0  0  0  0
  130.5091  136.6997  160.2975 H   0  0  0  0  0  0  0  0  0  0  0  0
  131.5016  129.9992  155.9536 H   0  0  0  0  0  0  0  0  0  0  0  0
  132.0954  128.7514  153.9197 H   0  0  0  0  0  0  0  0  0  0  0  0
  1  2  1  0
  1 38  1  0
  1 39  1  0
  2 37  2  0
  2  3  1  0
  3  4  2  0
  3 40  1  0
  4  5  1  0
  4 41  1  0
  5  6  1  0
  5 36  2  0
  6 34  1  0
  6  7  2  0
  7  8  1  0
  7 42  1  0
  8  9  1  0
  8 10  1  0
 10 11  1  0
 10 34  2  0
 11 12  1  0
 11 43  1  0
 12 33  1  0
 12 13  2  0
 13 14  1  0
 13 44  1  0
 14 15  1  0
 14 16  2  0
 15 45  1  0
 16 17  1  0
 16 46  1  0
 17 18  1  0
 17 33  2  0
 18 19  2  0
 18 20  1  0
 20 21  1  0
 20 47  1  0
 21 32  1  0
 21 22  2  0
 22 23  1  0
 22 48  1  0
 23 24  2  0
 23 49  1  0
 24 25  1  0
 24 31  1  0
 25 30  1  0
 25 26  2  0
 26 27  1  0
 26 50  1  0
 27 28  2  0
 27 51  1  0
 28 29  1  0
 28 52  1  0
 29 30  2  0
 29 53  1  0
 30 54  1  0
 31 32  2  0
 31 55  1  0
 32 56  1  0
 33 57  1  0
 34 35  1  0
 36 37  1  0
 36 58  1  0
 37 59  1  0
M  CHG  1  34   1
M  END
>  <DOCK_score>  (1) 
-59.104057

>  <SMILES>  (1) 
Nc1ccc(-c2c[nH]c(Nc3cc(O)cc(C(=O)Nc4ccc(-c5ccccc5)cc4)c3)[nH+]2)cc1

$$$$
