CCc1ccc(-c2c[nH]c(N[C@H](c3ccncn3)c3cccc(N)c3C)[nH+]2)cc1
     RDKit          3D

 54 57  0  0  1  0  0  0  0  0999 V2000
  129.7944  128.4950  150.7464 C   0  0  0  0  0  0  0  0  0  0  0  0
  130.9301  129.5031  150.9395 C   0  0  0  0  0  0  0  0  0  0  0  0
  130.8132  130.1364  152.3020 C   0  0  0  0  0  0  0  0  0  0  0  0
  131.4487  129.5596  153.3868 C   0  0  0  0  0  0  0  0  0  0  0  0
  131.3450  130.1353  154.6368 C   0  0  0  0  0  0  0  0  0  0  0  0
  130.5977  131.2997  154.8050 C   0  0  0  0  0  0  0  0  0  0  0  0
  130.4825  131.9231  156.1460 C   0  0  0  0  0  0  0  0  0  0  0  0
  129.9572  131.3429  157.2534 C   0  0  0  0  0  0  0  0  0  0  0  0
  130.0473  132.2651  158.2675 N   0  0  0  0  0  0  0  0  0  0  0  0
  129.7530  132.1422  159.1835 H   0  0  0  0  0  0  0  0  0  0  0  0
  130.6256  133.3829  157.7497 C   0  0  0  0  0  0  0  0  0  0  0  0
  130.8962  134.5477  158.4472 N   0  0  0  0  0  0  0  0  0  0  0  0
  130.5537  134.6470  159.8681 C   0  0  2  0  0  0  0  0  0  0  0  0
  130.7814  133.7032  160.3635 H   0  0  0  0  0  0  0  0  0  0  0  0
  129.0839  134.9476  160.0108 C   0  0  0  0  0  0  0  0  0  0  0  0
  128.4169  135.6717  159.0350 C   0  0  0  0  0  0  0  0  0  0  0  0
  127.0645  135.9201  159.2073 C   0  0  0  0  0  0  0  0  0  0  0  0
  126.4607  135.4688  160.2952 N   0  0  0  0  0  0  0  0  0  0  0  0
  127.1282  134.7874  161.2044 C   0  0  0  0  0  0  0  0  0  0  0  0
  128.4138  134.5283  161.0720 N   0  0  0  0  0  0  0  0  0  0  0  0
  131.3566  135.7534  160.5022 C   0  0  0  0  0  0  0  0  0  0  0  0
  130.8557  137.0424  160.5289 C   0  0  0  0  0  0  0  0  0  0  0  0
  131.5891  138.0606  161.1093 C   0  0  0  0  0  0  0  0  0  0  0  0
  132.8255  137.7936  161.6644 C   0  0  0  0  0  0  0  0  0  0  0  0
  133.3315  136.5004  161.6393 C   0  0  0  0  0  0  0  0  0  0  0  0
  134.5816  136.2270  162.1991 N   0  0  0  0  0  0  0  0  0  0  0  0
  132.5939  135.4805  161.0509 C   0  0  0  0  0  0  0  0  0  0  0  0
  133.1416  134.0770  161.0160 C   0  0  0  0  0  0  0  0  0  0  0  0
  130.8792  133.1768  156.4804 N   0  0  0  0  0  0  0  0  0  0  0  0
  131.2875  133.8173  155.8771 H   0  0  0  0  0  0  0  0  0  0  0  0
  129.9546  131.8730  153.7095 C   0  0  0  0  0  0  0  0  0  0  0  0
  130.0695  131.2916  152.4632 C   0  0  0  0  0  0  0  0  0  0  0  0
  129.8596  127.7226  151.5129 H   0  0  0  0  0  0  0  0  0  0  0  0
  128.8359  129.0076  150.8276 H   0  0  0  0  0  0  0  0  0  0  0  0
  129.8790  128.0369  149.7609 H   0  0  0  0  0  0  0  0  0  0  0  0
  130.8645  130.2747  150.1732 H   0  0  0  0  0  0  0  0  0  0  0  0
  131.8880  128.9899  150.8585 H   0  0  0  0  0  0  0  0  0  0  0  0
  132.0275  128.6573  153.2553 H   0  0  0  0  0  0  0  0  0  0  0  0
  131.8423  129.6846  155.4830 H   0  0  0  0  0  0  0  0  0  0  0  0
  129.5461  130.3467  157.3242 H   0  0  0  0  0  0  0  0  0  0  0  0
  131.3123  135.2982  157.9951 H   0  0  0  0  0  0  0  0  0  0  0  0
  128.9379  136.0307  158.1597 H   0  0  0  0  0  0  0  0  0  0  0  0
  126.5117  136.4779  158.4659 H   0  0  0  0  0  0  0  0  0  0  0  0
  126.6081  134.4321  162.0817 H   0  0  0  0  0  0  0  0  0  0  0  0
  129.8892  137.2539  160.0957 H   0  0  0  0  0  0  0  0  0  0  0  0
  131.1951  139.0661  161.1285 H   0  0  0  0  0  0  0  0  0  0  0  0
  133.3983  138.5895  162.1169 H   0  0  0  0  0  0  0  0  0  0  0  0
  135.0974  136.9406  162.6060 H   0  0  0  0  0  0  0  0  0  0  0  0
  134.9322  135.3226  162.1845 H   0  0  0  0  0  0  0  0  0  0  0  0
  132.8257  133.5413  161.9111 H   0  0  0  0  0  0  0  0  0  0  0  0
  132.7648  133.5619  160.1323 H   0  0  0  0  0  0  0  0  0  0  0  0
  134.2304  134.1127  160.9790 H   0  0  0  0  0  0  0  0  0  0  0  0
  129.3701  132.7725  153.8349 H   0  0  0  0  0  0  0  0  0  0  0  0
  129.5748  131.7371  151.6128 H   0  0  0  0  0  0  0  0  0  0  0  0
  1  2  1  0
  1 33  1  0
  1 34  1  0
  1 35  1  0
  2  3  1  0
  2 36  1  0
  2 37  1  0
  3 32  2  0
  3  4  1  0
  4  5  2  0
  4 38  1  0
  5  6  1  0
  5 39  1  0
  6  7  1  0
  6 31  2  0
  7 29  1  0
  7  8  2  0
  8  9  1  0
  8 40  1  0
  9 10  1  0
  9 11  1  0
 11 12  1  0
 11 29  2  0
 12 13  1  0
 12 41  1  0
 13 14  1  1
 13 15  1  0
 13 21  1  0
 15 20  1  0
 15 16  2  0
 16 17  1  0
 16 42  1  0
 17 18  2  0
 17 43  1  0
 18 19  1  0
 19 20  2  0
 19 44  1  0
 21 27  1  0
 21 22  2  0
 22 23  1  0
 22 45  1  0
 23 24  2  0
 23 46  1  0
 24 25  1  0
 24 47  1  0
 25 26  1  0
 25 27  2  0
 26 48  1  0
 26 49  1  0
 27 28  1  0
 28 50  1  0
 28 51  1  0
 28 52  1  0
 29 30  1  0
 31 32  1  0
 31 53  1  0
 32 54  1  0
M  CHG  1  29   1
M  END
>  <DOCK_score>  (1) 
-58.670738

>  <SMILES>  (1) 
CCc1ccc(-c2c[nH]c(N[C@H](c3ccncn3)c3cccc(N)c3C)[nH+]2)cc1

$$$$
