Cc1ccc2c(c1)C[C@H]([NH+]=C(NC1CC=CC1)N[C@H]1CCC(=O)NC1)CO2
     RDKit          3D

 56 59  0  0  1  0  0  0  0  0999 V2000
  136.6868  140.2020  161.9801 C   0  0  0  0  0  0  0  0  0  0  0  0
  135.2444  139.8932  161.6716 C   0  0  0  0  0  0  0  0  0  0  0  0
  134.2762  140.8647  161.8475 C   0  0  0  0  0  0  0  0  0  0  0  0
  132.9558  140.5806  161.5659 C   0  0  0  0  0  0  0  0  0  0  0  0
  132.5941  139.3182  161.1053 C   0  0  0  0  0  0  0  0  0  0  0  0
  133.5655  138.3490  160.9278 C   0  0  0  0  0  0  0  0  0  0  0  0
  134.8893  138.6399  161.2127 C   0  0  0  0  0  0  0  0  0  0  0  0
  133.2174  136.9705  160.4260 C   0  0  0  0  0  0  0  0  0  0  0  0
  131.7164  136.7233  160.5974 C   0  0  2  0  0  0  0  0  0  0  0  0
  131.4834  136.5965  161.6546 H   0  0  0  0  0  0  0  0  0  0  0  0
  131.3266  135.5201  159.8583 N   0  0  0  0  0  0  0  0  0  0  0  0
  131.9924  135.0188  159.3619 H   0  0  0  0  0  0  0  0  0  0  0  0
  130.0851  135.1231  159.8675 C   0  0  0  0  0  0  0  0  0  0  0  0
  129.5712  134.4488  158.7851 N   0  0  0  0  0  0  0  0  0  0  0  0
  130.4469  133.6139  157.9591 C   0  0  0  0  0  0  0  0  0  0  0  0
  129.6289  132.8015  156.9285 C   0  0  0  0  0  0  0  0  0  0  0  0
  130.3272  131.4629  156.8541 C   0  0  0  0  0  0  0  0  0  0  0  0
  131.1244  131.2910  157.8732 C   0  0  0  0  0  0  0  0  0  0  0  0
  131.0907  132.4854  158.7980 C   0  0  0  0  0  0  0  0  0  0  0  0
  129.2897  135.3788  160.9593 N   0  0  0  0  0  0  0  0  0  0  0  0
  127.8943  134.9325  160.9695 C   0  0  1  0  0  0  0  0  0  0  0  0
  127.5048  134.9190  159.9515 H   0  0  0  0  0  0  0  0  0  0  0  0
  127.8087  133.5249  161.5718 C   0  0  0  0  0  0  0  0  0  0  0  0
  126.3761  133.0128  161.4033 C   0  0  0  0  0  0  0  0  0  0  0  0
  125.4024  134.0559  161.8714 C   0  0  0  0  0  0  0  0  0  0  0  0
  124.2649  133.7117  162.1134 O   0  0  0  0  0  0  0  0  0  0  0  0
  125.7214  135.3404  162.0349 N   0  0  0  0  0  0  0  0  0  0  0  0
  127.0578  135.8835  161.8264 C   0  0  0  0  0  0  0  0  0  0  0  0
  130.9609  137.9380  160.0436 C   0  0  0  0  0  0  0  0  0  0  0  0
  131.2830  139.0737  160.8474 O   0  0  0  0  0  0  0  0  0  0  0  0
  137.1742  140.5916  161.0863 H   0  0  0  0  0  0  0  0  0  0  0  0
  136.7372  140.9464  162.7749 H   0  0  0  0  0  0  0  0  0  0  0  0
  137.1925  139.2918  162.3024 H   0  0  0  0  0  0  0  0  0  0  0  0
  134.5535  141.8454  162.2051 H   0  0  0  0  0  0  0  0  0  0  0  0
  132.2006  141.3402  161.7029 H   0  0  0  0  0  0  0  0  0  0  0  0
  135.6474  137.8831  161.0758 H   0  0  0  0  0  0  0  0  0  0  0  0
  133.7748  136.2261  160.9945 H   0  0  0  0  0  0  0  0  0  0  0  0
  133.4796  136.8923  159.3709 H   0  0  0  0  0  0  0  0  0  0  0  0
  128.6288  134.5259  158.5684 H   0  0  0  0  0  0  0  0  0  0  0  0
  131.2084  134.2178  157.4658 H   0  0  0  0  0  0  0  0  0  0  0  0
  128.6024  132.6755  157.2728 H   0  0  0  0  0  0  0  0  0  0  0  0
  129.6464  133.2942  155.9565 H   0  0  0  0  0  0  0  0  0  0  0  0
  130.1853  130.7433  156.0613 H   0  0  0  0  0  0  0  0  0  0  0  0
  131.7287  130.4105  158.0344 H   0  0  0  0  0  0  0  0  0  0  0  0
  132.1015  132.7636  159.0962 H   0  0  0  0  0  0  0  0  0  0  0  0
  130.4819  132.2706  159.6763 H   0  0  0  0  0  0  0  0  0  0  0  0
  129.6523  135.8546  161.7228 H   0  0  0  0  0  0  0  0  0  0  0  0
  128.0627  133.5629  162.6311 H   0  0  0  0  0  0  0  0  0  0  0  0
  128.4994  132.8604  161.0525 H   0  0  0  0  0  0  0  0  0  0  0  0
  126.2447  132.1047  161.9916 H   0  0  0  0  0  0  0  0  0  0  0  0
  126.1930  132.7926  160.3516 H   0  0  0  0  0  0  0  0  0  0  0  0
  125.0201  135.9515  162.3100 H   0  0  0  0  0  0  0  0  0  0  0  0
  126.9806  136.8476  161.3239 H   0  0  0  0  0  0  0  0  0  0  0  0
  127.5451  136.0217  162.7916 H   0  0  0  0  0  0  0  0  0  0  0  0
  131.2646  138.1206  159.0127 H   0  0  0  0  0  0  0  0  0  0  0  0
  129.8876  137.7521  160.0830 H   0  0  0  0  0  0  0  0  0  0  0  0
  1  2  1  0
  1 31  1  0
  1 32  1  0
  1 33  1  0
  2  7  2  0
  2  3  1  0
  3  4  2  0
  3 34  1  0
  4  5  1  0
  4 35  1  0
  5 30  1  0
  5  6  2  0
  6  7  1  0
  6  8  1  0
  7 36  1  0
  8  9  1  0
  8 37  1  0
  8 38  1  0
  9 10  1  1
  9 11  1  0
  9 29  1  0
 11 12  1  0
 13 11  2  0
 13 14  1  0
 13 20  1  0
 14 15  1  0
 14 39  1  0
 15 19  1  0
 15 16  1  0
 15 40  1  0
 16 17  1  0
 16 41  1  0
 16 42  1  0
 17 18  2  0
 17 43  1  0
 18 19  1  0
 18 44  1  0
 19 45  1  0
 19 46  1  0
 20 21  1  0
 20 47  1  0
 21 22  1  6
 21 28  1  0
 21 23  1  0
 23 24  1  0
 23 48  1  0
 23 49  1  0
 24 25  1  0
 24 50  1  0
 24 51  1  0
 25 26  2  0
 25 27  1  0
 27 28  1  0
 27 52  1  0
 28 53  1  0
 28 54  1  0
 29 30  1  0
 29 55  1  0
 29 56  1  0
M  CHG  1  11   1
M  END
>  <DOCK_score>  (1) 
-46.133488

>  <SMILES>  (1) 
Cc1ccc2c(c1)C[C@H]([NH+]=C(NC1CC=CC1)N[C@H]1CCC(=O)NC1)CO2

$$$$
