CC1=CC(Nc2ccc(-c3n[nH]cc3C[NH2+]CC3CC4C[C@@H]4C3)o2)CCC1
     RDKit          3D

 58 62  0  0  1  0  0  0  0  0999 V2000
  126.4559  135.4520  166.5636 C   0  0  0  0  0  0  0  0  0  0  0  0
  126.5976  136.4711  165.4626 C   0  0  0  0  0  0  0  0  0  0  0  0
  126.7638  136.0394  164.2536 C   0  0  0  0  0  0  0  0  0  0  0  0
  126.9301  136.9308  163.0579 C   0  0  1  0  0  0  0  0  0  0  0  0
  126.1374  136.4028  161.9446 N   0  0  0  0  0  0  0  0  0  0  0  0
  126.7038  135.4949  161.0574 C   0  0  0  0  0  0  0  0  0  0  0  0
  126.0375  134.5239  160.3844 C   0  0  0  0  0  0  0  0  0  0  0  0
  126.9883  133.8399  159.6014 C   0  0  0  0  0  0  0  0  0  0  0  0
  128.1899  134.4298  159.8369 C   0  0  0  0  0  0  0  0  0  0  0  0
  129.4790  134.0408  159.2287 C   0  0  0  0  0  0  0  0  0  0  0  0
  129.6658  133.0634  158.3636 N   0  0  0  0  0  0  0  0  0  0  0  0
  131.0272  133.0271  158.0362 N   0  0  0  0  0  0  0  0  0  0  0  0
  131.4478  132.4065  157.4207 H   0  0  0  0  0  0  0  0  0  0  0  0
  131.6520  134.0093  158.7212 C   0  0  0  0  0  0  0  0  0  0  0  0
  130.7287  134.6497  159.4698 C   0  0  0  0  0  0  0  0  0  0  0  0
  130.9861  135.8122  160.3937 C   0  0  0  0  0  0  0  0  0  0  0  0
  130.8422  137.0703  159.6492 N   0  0  0  0  0  0  0  0  0  0  0  0
  131.5069  137.0902  158.8904 H   0  0  0  0  0  0  0  0  0  0  0  0
  129.9061  137.1365  159.2783 H   0  0  0  0  0  0  0  0  0  0  0  0
  131.0932  138.2035  160.5498 C   0  0  0  0  0  0  0  0  0  0  0  0
  132.5126  138.1030  161.1124 C   0  0  2  0  0  0  0  0  0  0  0  0
  132.8687  139.3677  161.9328 C   0  0  0  0  0  0  0  0  0  0  0  0
  134.4101  139.4189  161.8990 C   0  0  2  0  0  0  0  0  0  0  0  0
  135.0840  140.1420  160.7314 C   0  0  0  0  0  0  0  0  0  0  0  0
  134.8489  138.6323  160.6514 C   0  0  2  0  0  0  0  0  0  0  0  0
  135.7049  137.9577  160.6634 H   0  0  0  0  0  0  0  0  0  0  0  0
  133.5588  138.1307  159.9704 C   0  0  0  0  0  0  0  0  0  0  0  0
  128.0044  135.4282  160.7260 O   0  0  0  0  0  0  0  0  0  0  0  0
  126.4591  138.3488  163.3880 C   0  0  0  0  0  0  0  0  0  0  0  0
  127.1118  138.7820  164.7069 C   0  0  0  0  0  0  0  0  0  0  0  0
  126.5376  137.9233  165.8360 C   0  0  0  0  0  0  0  0  0  0  0  0
  125.4032  135.1995  166.6917 H   0  0  0  0  0  0  0  0  0  0  0  0
  127.0156  134.5540  166.3017 H   0  0  0  0  0  0  0  0  0  0  0  0
  126.8462  135.8652  167.4937 H   0  0  0  0  0  0  0  0  0  0  0  0
  126.7838  134.9712  164.0956 H   0  0  0  0  0  0  0  0  0  0  0  0
  127.9817  136.9566  162.7724 H   0  0  0  0  0  0  0  0  0  0  0  0
  125.2174  136.6867  161.8267 H   0  0  0  0  0  0  0  0  0  0  0  0
  124.9794  134.3145  160.4388 H   0  0  0  0  0  0  0  0  0  0  0  0
  126.7987  133.0069  158.9407 H   0  0  0  0  0  0  0  0  0  0  0  0
  132.7061  134.2405  158.6792 H   0  0  0  0  0  0  0  0  0  0  0  0
  131.9972  135.7407  160.7945 H   0  0  0  0  0  0  0  0  0  0  0  0
  130.2680  135.7908  161.2134 H   0  0  0  0  0  0  0  0  0  0  0  0
  130.9866  139.1371  159.9975 H   0  0  0  0  0  0  0  0  0  0  0  0
  130.3752  138.1821  161.3695 H   0  0  0  0  0  0  0  0  0  0  0  0
  132.6242  137.2030  161.7168 H   0  0  0  0  0  0  0  0  0  0  0  0
  132.4471  140.2571  161.4647 H   0  0  0  0  0  0  0  0  0  0  0  0
  132.5124  139.2698  162.9582 H   0  0  0  0  0  0  0  0  0  0  0  0
  134.9420  139.3229  162.8456 H   0  0  0  0  0  0  0  0  0  0  0  0
  136.1088  140.4841  160.8762 H   0  0  0  0  0  0  0  0  0  0  0  0
  134.4589  140.7818  160.1087 H   0  0  0  0  0  0  0  0  0  0  0  0
  133.7063  137.1302  159.5639 H   0  0  0  0  0  0  0  0  0  0  0  0
  133.2475  138.8187  159.1846 H   0  0  0  0  0  0  0  0  0  0  0  0
  126.7579  139.0292  162.5906 H   0  0  0  0  0  0  0  0  0  0  0  0
  125.3744  138.3591  163.4952 H   0  0  0  0  0  0  0  0  0  0  0  0
  128.1902  138.6357  164.6475 H   0  0  0  0  0  0  0  0  0  0  0  0
  126.8914  139.8324  164.8971 H   0  0  0  0  0  0  0  0  0  0  0  0
  127.1169  138.0869  166.7447 H   0  0  0  0  0  0  0  0  0  0  0  0
  125.5000  138.2063  166.0132 H   0  0  0  0  0  0  0  0  0  0  0  0
  1  2  1  0
  1 32  1  0
  1 33  1  0
  1 34  1  0
  2 31  1  0
  2  3  2  0
  3  4  1  0
  3 35  1  0
  4  5  1  0
  4 29  1  0
  4 36  1  6
  5  6  1  0
  5 37  1  0
  6 28  1  0
  6  7  2  0
  7  8  1  0
  7 38  1  0
  8  9  2  0
  8 39  1  0
  9 10  1  0
  9 28  1  0
 10 15  1  0
 10 11  2  0
 11 12  1  0
 12 13  1  0
 12 14  1  0
 14 15  2  0
 14 40  1  0
 15 16  1  0
 16 17  1  0
 16 41  1  0
 16 42  1  0
 17 18  1  0
 17 19  1  0
 17 20  1  0
 20 21  1  0
 20 43  1  0
 20 44  1  0
 21 27  1  0
 21 22  1  0
 21 45  1  1
 22 23  1  0
 22 46  1  0
 22 47  1  0
 23 25  1  0
 23 24  1  0
 23 48  1  1
 24 25  1  0
 24 49  1  0
 24 50  1  0
 25 26  1  1
 25 27  1  0
 27 51  1  0
 27 52  1  0
 29 30  1  0
 29 53  1  0
 29 54  1  0
 30 31  1  0
 30 55  1  0
 30 56  1  0
 31 57  1  0
 31 58  1  0
M  CHG  1  17   1
M  END
>  <DOCK_score>  (1) 
-46.902008

>  <SMILES>  (1) 
CC1=CC(Nc2ccc(-c3n[nH]cc3C[NH2+]CC3CC4C[C@@H]4C3)o2)CCC1

$$$$
