OCCNc1ccc(-c2c[nH]c(Nc3ccc(O)c(C4CCCCC4)c3)[nH+]2)cc1
     RDKit          3D

 58 61  0  0  1  0  0  0  0  0999 V2000
  129.5907  127.1952  151.6191 O   0  0  0  0  0  0  0  0  0  0  0  0
  130.0551  128.1971  150.7121 C   0  0  0  0  0  0  0  0  0  0  0  0
  130.0959  129.5505  151.4244 C   0  0  0  0  0  0  0  0  0  0  0  0
  131.0034  129.4712  152.5715 N   0  0  0  0  0  0  0  0  0  0  0  0
  130.7760  130.2649  153.6983 C   0  0  0  0  0  0  0  0  0  0  0  0
  131.3469  129.9190  154.9173 C   0  0  0  0  0  0  0  0  0  0  0  0
  131.1238  130.7008  156.0309 C   0  0  0  0  0  0  0  0  0  0  0  0
  130.3251  131.8392  155.9334 C   0  0  0  0  0  0  0  0  0  0  0  0
  130.0836  132.6821  157.1302 C   0  0  0  0  0  0  0  0  0  0  0  0
  129.4935  132.2803  158.2832 C   0  0  0  0  0  0  0  0  0  0  0  0
  129.4715  133.3699  159.1205 N   0  0  0  0  0  0  0  0  0  0  0  0
  129.1112  133.3958  160.0207 H   0  0  0  0  0  0  0  0  0  0  0  0
  130.0495  134.4059  158.4533 C   0  0  0  0  0  0  0  0  0  0  0  0
  130.2240  135.6876  158.9488 N   0  0  0  0  0  0  0  0  0  0  0  0
  129.3170  136.2077  159.8799 C   0  0  0  0  0  0  0  0  0  0  0  0
  127.9908  135.7956  159.8630 C   0  0  0  0  0  0  0  0  0  0  0  0
  127.0969  136.3095  160.7814 C   0  0  0  0  0  0  0  0  0  0  0  0
  127.5246  137.2327  161.7246 C   0  0  0  0  0  0  0  0  0  0  0  0
  126.6448  137.7341  162.6322 O   0  0  0  0  0  0  0  0  0  0  0  0
  128.8475  137.6489  161.7387 C   0  0  0  0  0  0  0  0  0  0  0  0
  129.3094  138.6564  162.7597 C   0  0  0  0  0  0  0  0  0  0  0  0
  130.4159  138.0411  163.6189 C   0  0  0  0  0  0  0  0  0  0  0  0
  130.8849  139.0639  164.6555 C   0  0  0  0  0  0  0  0  0  0  0  0
  131.4246  140.3043  163.9403 C   0  0  0  0  0  0  0  0  0  0  0  0
  130.3181  140.9195  163.0813 C   0  0  0  0  0  0  0  0  0  0  0  0
  129.8491  139.8966  162.0446 C   0  0  0  0  0  0  0  0  0  0  0  0
  129.7430  137.1358  160.8206 C   0  0  0  0  0  0  0  0  0  0  0  0
  130.4086  133.9921  157.2624 N   0  0  0  0  0  0  0  0  0  0  0  0
  130.8404  134.5355  156.5847 H   0  0  0  0  0  0  0  0  0  0  0  0
  129.7491  132.1814  154.7110 C   0  0  0  0  0  0  0  0  0  0  0  0
  129.9794  131.3993  153.5987 C   0  0  0  0  0  0  0  0  0  0  0  0
  128.7040  127.3608  151.9677 H   0  0  0  0  0  0  0  0  0  0  0  0
  129.3794  128.2558  149.8588 H   0  0  0  0  0  0  0  0  0  0  0  0
  131.0557  127.9382  150.3660 H   0  0  0  0  0  0  0  0  0  0  0  0
  129.0952  129.8092  151.7703 H   0  0  0  0  0  0  0  0  0  0  0  0
  130.4500  130.3146  150.7325 H   0  0  0  0  0  0  0  0  0  0  0  0
  131.7631  128.8682  152.5483 H   0  0  0  0  0  0  0  0  0  0  0  0
  131.9654  129.0368  154.9926 H   0  0  0  0  0  0  0  0  0  0  0  0
  131.5677  130.4317  156.9780 H   0  0  0  0  0  0  0  0  0  0  0  0
  129.1132  131.2933  158.5014 H   0  0  0  0  0  0  0  0  0  0  0  0
  130.9746  136.2248  158.6505 H   0  0  0  0  0  0  0  0  0  0  0  0
  127.6588  135.0734  159.1319 H   0  0  0  0  0  0  0  0  0  0  0  0
  126.0655  135.9892  160.7683 H   0  0  0  0  0  0  0  0  0  0  0  0
  125.7462  137.3883  162.5416 H   0  0  0  0  0  0  0  0  0  0  0  0
  128.4707  138.9397  163.3956 H   0  0  0  0  0  0  0  0  0  0  0  0
  131.2546  137.7577  162.9828 H   0  0  0  0  0  0  0  0  0  0  0  0
  130.0314  137.1575  164.1284 H   0  0  0  0  0  0  0  0  0  0  0  0
  130.0463  139.3474  165.2915 H   0  0  0  0  0  0  0  0  0  0  0  0
  131.6732  138.6257  165.2676 H   0  0  0  0  0  0  0  0  0  0  0  0
  131.7586  141.0330  164.6790 H   0  0  0  0  0  0  0  0  0  0  0  0
  132.2632  140.0208  163.3044 H   0  0  0  0  0  0  0  0  0  0  0  0
  129.4795  141.2029  163.7172 H   0  0  0  0  0  0  0  0  0  0  0  0
  130.7026  141.8030  162.5718 H   0  0  0  0  0  0  0  0  0  0  0  0
  129.0608  140.3350  161.4325 H   0  0  0  0  0  0  0  0  0  0  0  0
  130.6878  139.6131  161.4086 H   0  0  0  0  0  0  0  0  0  0  0  0
  130.7740  137.4571  160.8343 H   0  0  0  0  0  0  0  0  0  0  0  0
  129.1262  133.0602  154.6341 H   0  0  0  0  0  0  0  0  0  0  0  0
  129.5368  131.6663  152.6504 H   0  0  0  0  0  0  0  0  0  0  0  0
  1  2  1  0
  1 32  1  0
  2  3  1  0
  2 33  1  0
  2 34  1  0
  3  4  1  0
  3 35  1  0
  3 36  1  0
  4  5  1  0
  4 37  1  0
  5 31  2  0
  5  6  1  0
  6  7  2  0
  6 38  1  0
  7  8  1  0
  7 39  1  0
  8  9  1  0
  8 30  2  0
  9 28  1  0
  9 10  2  0
 10 11  1  0
 10 40  1  0
 11 12  1  0
 11 13  1  0
 13 14  1  0
 13 28  2  0
 14 15  1  0
 14 41  1  0
 15 27  1  0
 15 16  2  0
 16 17  1  0
 16 42  1  0
 17 18  2  0
 17 43  1  0
 18 19  1  0
 18 20  1  0
 19 44  1  0
 20 21  1  0
 20 27  2  0
 21 26  1  0
 21 22  1  0
 21 45  1  0
 22 23  1  0
 22 46  1  0
 22 47  1  0
 23 24  1  0
 23 48  1  0
 23 49  1  0
 24 25  1  0
 24 50  1  0
 24 51  1  0
 25 26  1  0
 25 52  1  0
 25 53  1  0
 26 54  1  0
 26 55  1  0
 27 56  1  0
 28 29  1  0
 30 31  1  0
 30 57  1  0
 31 58  1  0
M  CHG  1  28   1
M  END
>  <DOCK_score>  (1) 
-51.654648

>  <SMILES>  (1) 
OCCNc1ccc(-c2c[nH]c(Nc3ccc(O)c(C4CCCCC4)c3)[nH+]2)cc1

$$$$
