CC(=O)C(C)[NH+]=C(NCC1CC(C(F)F)C1)N[C@H]1CC=C(Cc2ccc3ccoc3c2)C1
     RDKit          3D

 64 67  0  0  1  0  0  0  0  0999 V2000
  126.1679  134.2230  160.7257 C   0  0  0  0  0  0  0  0  0  0  0  0
  127.1191  135.3666  160.9678 C   0  0  0  0  0  0  0  0  0  0  0  0
  126.9850  136.4022  160.3613 O   0  0  0  0  0  0  0  0  0  0  0  0
  128.2374  135.2178  161.9669 C   0  0  2  0  0  0  0  0  0  0  0  0
  127.7515  135.6658  163.3468 C   0  0  0  0  0  0  0  0  0  0  0  0
  129.3729  136.0473  161.5559 N   0  0  0  0  0  0  0  0  0  0  0  0
  129.6960  136.7509  162.1401 H   0  0  0  0  0  0  0  0  0  0  0  0
  129.9489  135.8396  160.4052 C   0  0  0  0  0  0  0  0  0  0  0  0
  129.4908  134.8420  159.5775 N   0  0  0  0  0  0  0  0  0  0  0  0
  130.1379  134.6083  158.2842 C   0  0  0  0  0  0  0  0  0  0  0  0
  129.4402  133.4512  157.5664 C   0  0  2  0  0  0  0  0  0  0  0  0
  129.5332  132.1135  158.3191 C   0  0  0  0  0  0  0  0  0  0  0  0
  129.7487  131.4478  156.9496 C   0  0  2  0  0  0  0  0  0  0  0  0
  130.7978  130.3343  156.9678 C   0  0  0  0  0  0  0  0  0  0  0  0
  130.3999  129.3334  157.8606 F   0  0  0  0  0  0  0  0  0  0  0  0
  132.0287  130.8598  157.3749 F   0  0  0  0  0  0  0  0  0  0  0  0
  130.2946  132.8007  156.4632 C   0  0  0  0  0  0  0  0  0  0  0  0
  131.0144  136.6179  160.0194 N   0  0  0  0  0  0  0  0  0  0  0  0
  131.5024  137.6808  160.9014 C   0  0  1  0  0  0  0  0  0  0  0  0
  131.8289  137.2733  161.8582 H   0  0  0  0  0  0  0  0  0  0  0  0
  132.6362  138.4863  160.2254 C   0  0  0  0  0  0  0  0  0  0  0  0
  132.4058  139.9143  160.6622 C   0  0  0  0  0  0  0  0  0  0  0  0
  131.2012  140.0714  161.1394 C   0  0  0  0  0  0  0  0  0  0  0  0
  130.6539  141.3753  161.6603 C   0  0  0  0  0  0  0  0  0  0  0  0
  130.2633  141.2140  163.1069 C   0  0  0  0  0  0  0  0  0  0  0  0
  131.1948  141.4718  164.1023 C   0  0  0  0  0  0  0  0  0  0  0  0
  130.8558  141.3348  165.4199 C   0  0  0  0  0  0  0  0  0  0  0  0
  129.5687  140.9240  165.7632 C   0  0  0  0  0  0  0  0  0  0  0  0
  128.8756  140.6732  167.0325 C   0  0  0  0  0  0  0  0  0  0  0  0
  127.6314  140.2939  166.7101 C   0  0  0  0  0  0  0  0  0  0  0  0
  127.4818  140.2838  165.3741 O   0  0  0  0  0  0  0  0  0  0  0  0
  128.6225  140.6563  164.7597 C   0  0  0  0  0  0  0  0  0  0  0  0
  128.9861  140.8065  163.4271 C   0  0  0  0  0  0  0  0  0  0  0  0
  130.4273  138.7742  161.1007 C   0  0  0  0  0  0  0  0  0  0  0  0
  125.3227  134.3023  161.4096 H   0  0  0  0  0  0  0  0  0  0  0  0
  125.8081  134.2611  159.6975 H   0  0  0  0  0  0  0  0  0  0  0  0
  126.6848  133.2784  160.8949 H   0  0  0  0  0  0  0  0  0  0  0  0
  128.5476  134.1738  162.0122 H   0  0  0  0  0  0  0  0  0  0  0  0
  127.2761  136.6433  163.2649 H   0  0  0  0  0  0  0  0  0  0  0  0
  127.0320  134.9428  163.7311 H   0  0  0  0  0  0  0  0  0  0  0  0
  128.6004  135.7305  164.0276 H   0  0  0  0  0  0  0  0  0  0  0  0
  128.7389  134.2929  159.8499 H   0  0  0  0  0  0  0  0  0  0  0  0
  131.1868  134.3577  158.4428 H   0  0  0  0  0  0  0  0  0  0  0  0
  130.0677  135.5091  157.6747 H   0  0  0  0  0  0  0  0  0  0  0  0
  128.4295  133.7013  157.2435 H   0  0  0  0  0  0  0  0  0  0  0  0
  128.6028  131.8205  158.8053 H   0  0  0  0  0  0  0  0  0  0  0  0
  130.3970  132.0420  158.9800 H   0  0  0  0  0  0  0  0  0  0  0  0
  128.8224  131.1489  156.4589 H   0  0  0  0  0  0  0  0  0  0  0  0
  130.8960  129.9114  155.9680 H   0  0  0  0  0  0  0  0  0  0  0  0
  131.3675  132.9187  156.6153 H   0  0  0  0  0  0  0  0  0  0  0  0
  129.9780  133.0617  155.4534 H   0  0  0  0  0  0  0  0  0  0  0  0
  131.4430  136.4632  159.1630 H   0  0  0  0  0  0  0  0  0  0  0  0
  133.6089  138.1358  160.5706 H   0  0  0  0  0  0  0  0  0  0  0  0
  132.5653  138.4047  159.1408 H   0  0  0  0  0  0  0  0  0  0  0  0
  133.1413  140.7019  160.5886 H   0  0  0  0  0  0  0  0  0  0  0  0
  131.4160  142.1497  161.5739 H   0  0  0  0  0  0  0  0  0  0  0  0
  129.7782  141.6606  161.0772 H   0  0  0  0  0  0  0  0  0  0  0  0
  132.1930  141.7860  163.8349 H   0  0  0  0  0  0  0  0  0  0  0  0
  131.5832  141.5407  166.1912 H   0  0  0  0  0  0  0  0  0  0  0  0
  129.2859  140.7737  168.0265 H   0  0  0  0  0  0  0  0  0  0  0  0
  126.8605  140.0346  167.4205 H   0  0  0  0  0  0  0  0  0  0  0  0
  128.2700  140.6042  162.6444 H   0  0  0  0  0  0  0  0  0  0  0  0
  129.7270  138.7747  160.2655 H   0  0  0  0  0  0  0  0  0  0  0  0
  129.8982  138.6195  162.0410 H   0  0  0  0  0  0  0  0  0  0  0  0
  1  2  1  0
  1 35  1  0
  1 36  1  0
  1 37  1  0
  2  3  2  0
  2  4  1  0
  4  5  1  0
  4  6  1  0
  4 38  1  1
  5 39  1  0
  5 40  1  0
  5 41  1  0
  6  7  1  0
  8  6  2  0
  8  9  1  0
  8 18  1  0
  9 10  1  0
  9 42  1  0
 10 11  1  0
 10 43  1  0
 10 44  1  0
 11 17  1  0
 11 12  1  0
 11 45  1  6
 12 13  1  0
 12 46  1  0
 12 47  1  0
 13 14  1  0
 13 17  1  0
 13 48  1  6
 14 15  1  0
 14 16  1  0
 14 49  1  0
 17 50  1  0
 17 51  1  0
 18 19  1  0
 18 52  1  0
 19 20  1  1
 19 34  1  0
 19 21  1  0
 21 22  1  0
 21 53  1  0
 21 54  1  0
 22 23  2  0
 22 55  1  0
 23 24  1  0
 23 34  1  0
 24 25  1  0
 24 56  1  0
 24 57  1  0
 25 33  1  0
 25 26  2  0
 26 27  1  0
 26 58  1  0
 27 28  2  0
 27 59  1  0
 28 32  1  0
 28 29  1  0
 29 30  2  0
 29 60  1  0
 30 31  1  0
 30 61  1  0
 31 32  1  0
 32 33  2  0
 33 62  1  0
 34 63  1  0
 34 64  1  0
M  CHG  1   6   1
M  END
>  <DOCK_score>  (1) 
-45.976379

>  <SMILES>  (1) 
CC(=O)C(C)[NH+]=C(NCC1CC(C(F)F)C1)N[C@H]1CC=C(Cc2ccc3ccoc3c2)C1

$$$$
