Oc1ccc(N(Cc2ccncc2)[C@H]2CCC[NH+](Cc3ccccc3)C2)cc1O
     RDKit          3D

 57 60  0  0  1  0  0  0  0  0999 V2000
  127.1860  137.2906  165.2377 O   0  0  0  0  0  0  0  0  0  0  0  0
  128.0686  137.4022  164.2079 C   0  0  0  0  0  0  0  0  0  0  0  0
  129.4264  137.4960  164.4664 C   0  0  0  0  0  0  0  0  0  0  0  0
  130.3244  137.6047  163.4214 C   0  0  0  0  0  0  0  0  0  0  0  0
  129.8668  137.6306  162.1105 C   0  0  0  0  0  0  0  0  0  0  0  0
  130.7769  137.7455  161.0540 N   0  0  0  0  0  0  0  0  0  0  0  0
  131.1604  139.0695  160.5581 C   0  0  0  0  0  0  0  0  0  0  0  0
  132.6484  139.2518  160.7123 C   0  0  0  0  0  0  0  0  0  0  0  0
  133.1802  139.7992  161.8699 C   0  0  0  0  0  0  0  0  0  0  0  0
  134.5502  139.9466  161.9775 C   0  0  0  0  0  0  0  0  0  0  0  0
  135.3471  139.5833  160.9918 N   0  0  0  0  0  0  0  0  0  0  0  0
  134.8762  139.0644  159.8746 C   0  0  0  0  0  0  0  0  0  0  0  0
  133.5177  138.8818  159.6976 C   0  0  0  0  0  0  0  0  0  0  0  0
  131.3463  136.5415  160.4434 C   0  0  1  0  0  0  0  0  0  0  0  0
  132.0289  136.8265  159.6430 H   0  0  0  0  0  0  0  0  0  0  0  0
  132.1077  135.7415  161.5043 C   0  0  0  0  0  0  0  0  0  0  0  0
  132.6320  134.4475  160.8750 C   0  0  0  0  0  0  0  0  0  0  0  0
  131.4585  133.6609  160.2869 C   0  0  0  0  0  0  0  0  0  0  0  0
  130.7881  134.4690  159.2613 N   0  0  1  0  0  0  0  0  0  0  0  0
  131.4563  134.7333  158.5528 H   0  0  0  0  0  0  0  0  0  0  0  0
  129.7119  133.6814  158.6455 C   0  0  0  0  0  0  0  0  0  0  0  0
  130.2978  132.7459  157.6195 C   0  0  0  0  0  0  0  0  0  0  0  0
  130.4282  133.1553  156.3055 C   0  0  0  0  0  0  0  0  0  0  0  0
  130.9697  132.2988  155.3653 C   0  0  0  0  0  0  0  0  0  0  0  0
  131.3725  131.0298  155.7371 C   0  0  0  0  0  0  0  0  0  0  0  0
  131.2373  130.6185  157.0499 C   0  0  0  0  0  0  0  0  0  0  0  0
  130.6996  131.4766  157.9910 C   0  0  0  0  0  0  0  0  0  0  0  0
  130.2204  135.6773  159.8714 C   0  0  0  0  0  0  0  0  0  0  0  0
  128.5069  137.5367  161.8482 C   0  0  0  0  0  0  0  0  0  0  0  0
  127.6073  137.4225  162.8954 C   0  0  0  0  0  0  0  0  0  0  0  0
  126.2746  137.3301  162.6407 O   0  0  0  0  0  0  0  0  0  0  0  0
  127.5999  137.2852  166.1116 H   0  0  0  0  0  0  0  0  0  0  0  0
  129.7838  137.4799  165.4853 H   0  0  0  0  0  0  0  0  0  0  0  0
  131.3828  137.6736  163.6248 H   0  0  0  0  0  0  0  0  0  0  0  0
  130.8910  139.1554  159.5055 H   0  0  0  0  0  0  0  0  0  0  0  0
  130.6391  139.8369  161.1304 H   0  0  0  0  0  0  0  0  0  0  0  0
  132.5324  140.1028  162.6788 H   0  0  0  0  0  0  0  0  0  0  0  0
  134.9726  140.3676  162.8780 H   0  0  0  0  0  0  0  0  0  0  0  0
  135.5601  138.7788  159.0891 H   0  0  0  0  0  0  0  0  0  0  0  0
  133.1382  138.4564  158.7804 H   0  0  0  0  0  0  0  0  0  0  0  0
  132.9457  136.3321  161.8745 H   0  0  0  0  0  0  0  0  0  0  0  0
  131.4377  135.5001  162.3294 H   0  0  0  0  0  0  0  0  0  0  0  0
  133.1273  133.8465  161.6375 H   0  0  0  0  0  0  0  0  0  0  0  0
  133.3417  134.6885  160.0835 H   0  0  0  0  0  0  0  0  0  0  0  0
  130.7500  133.4196  161.0793 H   0  0  0  0  0  0  0  0  0  0  0  0
  131.8287  132.7392  159.8380 H   0  0  0  0  0  0  0  0  0  0  0  0
  129.1996  133.1027  159.4142 H   0  0  0  0  0  0  0  0  0  0  0  0
  129.0017  134.3521  158.1620 H   0  0  0  0  0  0  0  0  0  0  0  0
  130.1101  134.1454  156.0143 H   0  0  0  0  0  0  0  0  0  0  0  0
  131.0757  132.6202  154.3397 H   0  0  0  0  0  0  0  0  0  0  0  0
  131.7931  130.3597  155.0019 H   0  0  0  0  0  0  0  0  0  0  0  0
  131.5519  129.6271  157.3403 H   0  0  0  0  0  0  0  0  0  0  0  0
  130.5941  131.1553  159.0167 H   0  0  0  0  0  0  0  0  0  0  0  0
  129.5383  135.3931  160.6726 H   0  0  0  0  0  0  0  0  0  0  0  0
  129.6761  136.2439  159.1160 H   0  0  0  0  0  0  0  0  0  0  0  0
  128.1506  137.5523  160.8288 H   0  0  0  0  0  0  0  0  0  0  0  0
  126.0513  137.3530  161.7001 H   0  0  0  0  0  0  0  0  0  0  0  0
  1  2  1  0
  1 32  1  0
  2 30  2  0
  2  3  1  0
  3  4  2  0
  3 33  1  0
  4  5  1  0
  4 34  1  0
  5  6  1  0
  5 29  2  0
  6  7  1  0
  6 14  1  0
  7  8  1  0
  7 35  1  0
  7 36  1  0
  8 13  1  0
  8  9  2  0
  9 10  1  0
  9 37  1  0
 10 11  2  0
 10 38  1  0
 11 12  1  0
 12 13  2  0
 12 39  1  0
 13 40  1  0
 14 15  1  6
 14 28  1  0
 14 16  1  0
 16 17  1  0
 16 41  1  0
 16 42  1  0
 17 18  1  0
 17 43  1  0
 17 44  1  0
 18 19  1  0
 18 45  1  0
 18 46  1  0
 19 20  1  6
 19 21  1  0
 19 28  1  0
 21 22  1  0
 21 47  1  0
 21 48  1  0
 22 27  1  0
 22 23  2  0
 23 24  1  0
 23 49  1  0
 24 25  2  0
 24 50  1  0
 25 26  1  0
 25 51  1  0
 26 27  2  0
 26 52  1  0
 27 53  1  0
 28 54  1  0
 28 55  1  0
 29 30  1  0
 29 56  1  0
 30 31  1  0
 31 57  1  0
M  CHG  1  19   1
M  END
>  <DOCK_score>  (1) 
-45.475067

>  <SMILES>  (1) 
Oc1ccc(N(Cc2ccncc2)[C@H]2CCC[NH+](Cc3ccccc3)C2)cc1O

$$$$
