CCc1cccc([C@H](c2ccccc2)[NH+]2CC=C(c3ccccc3)CC2)c1
     RDKit          3D

 55 58  0  0  1  0  0  0  0  0999 V2000
  130.0199  131.7391  154.2346 C   0  0  0  0  0  0  0  0  0  0  0  0
  131.2530  131.9421  155.1172 C   0  0  0  0  0  0  0  0  0  0  0  0
  130.8677  131.7760  156.5647 C   0  0  0  0  0  0  0  0  0  0  0  0
  130.9335  130.5293  157.1589 C   0  0  0  0  0  0  0  0  0  0  0  0
  130.5806  130.3771  158.4865 C   0  0  0  0  0  0  0  0  0  0  0  0
  130.1667  131.4724  159.2218 C   0  0  0  0  0  0  0  0  0  0  0  0
  130.0959  132.7177  158.6263 C   0  0  0  0  0  0  0  0  0  0  0  0
  129.6396  133.9106  159.4263 C   0  0  2  0  0  0  0  0  0  0  0  0
  129.4108  133.5987  160.4452 H   0  0  0  0  0  0  0  0  0  0  0  0
  128.4057  134.4987  158.7919 C   0  0  0  0  0  0  0  0  0  0  0  0
  127.1538  134.0508  159.1699 C   0  0  0  0  0  0  0  0  0  0  0  0
  126.0217  134.5933  158.5911 C   0  0  0  0  0  0  0  0  0  0  0  0
  126.1419  135.5773  157.6277 C   0  0  0  0  0  0  0  0  0  0  0  0
  127.3941  136.0217  157.2460 C   0  0  0  0  0  0  0  0  0  0  0  0
  128.5260  135.4821  157.8278 C   0  0  0  0  0  0  0  0  0  0  0  0
  130.7063  134.9204  159.4511 N   0  0  1  0  0  0  0  0  0  0  0  0
  130.9191  135.2100  158.5082 H   0  0  0  0  0  0  0  0  0  0  0  0
  130.2654  136.0811  160.2335 C   0  0  0  0  0  0  0  0  0  0  0  0
  131.4012  137.0439  160.4272 C   0  0  0  0  0  0  0  0  0  0  0  0
  132.6621  136.7054  160.2641 C   0  0  0  0  0  0  0  0  0  0  0  0
  133.7081  137.7262  160.4842 C   0  0  0  0  0  0  0  0  0  0  0  0
  134.5729  138.0782  159.4473 C   0  0  0  0  0  0  0  0  0  0  0  0
  135.5474  139.0315  159.6594 C   0  0  0  0  0  0  0  0  0  0  0  0
  135.6687  139.6376  160.8971 C   0  0  0  0  0  0  0  0  0  0  0  0
  134.8181  139.2890  161.9310 C   0  0  0  0  0  0  0  0  0  0  0  0
  133.8354  138.3416  161.7301 C   0  0  0  0  0  0  0  0  0  0  0  0
  133.0767  135.3185  159.8558 C   0  0  0  0  0  0  0  0  0  0  0  0
  131.9098  134.3503  160.0768 C   0  0  0  0  0  0  0  0  0  0  0  0
  130.4489  132.8699  157.2983 C   0  0  0  0  0  0  0  0  0  0  0  0
  129.2609  132.4766  154.4956 H   0  0  0  0  0  0  0  0  0  0  0  0
  130.2986  131.8592  153.1878 H   0  0  0  0  0  0  0  0  0  0  0  0
  129.6217  130.7367  154.3918 H   0  0  0  0  0  0  0  0  0  0  0  0
  131.6512  132.9445  154.9602 H   0  0  0  0  0  0  0  0  0  0  0  0
  132.0121  131.2046  154.8564 H   0  0  0  0  0  0  0  0  0  0  0  0
  131.2611  129.6747  156.5858 H   0  0  0  0  0  0  0  0  0  0  0  0
  130.6324  129.4034  158.9507 H   0  0  0  0  0  0  0  0  0  0  0  0
  129.8951  131.3542  160.2603 H   0  0  0  0  0  0  0  0  0  0  0  0
  127.0600  133.2793  159.9198 H   0  0  0  0  0  0  0  0  0  0  0  0
  125.0435  134.2464  158.8894 H   0  0  0  0  0  0  0  0  0  0  0  0
  125.2576  135.9994  157.1736 H   0  0  0  0  0  0  0  0  0  0  0  0
  127.4880  136.7905  156.4934 H   0  0  0  0  0  0  0  0  0  0  0  0
  129.5042  135.8292  157.5297 H   0  0  0  0  0  0  0  0  0  0  0  0
  129.9078  135.7450  161.2068 H   0  0  0  0  0  0  0  0  0  0  0  0
  129.4532  136.5829  159.7077 H   0  0  0  0  0  0  0  0  0  0  0  0
  131.1729  138.0602  160.7129 H   0  0  0  0  0  0  0  0  0  0  0  0
  134.4797  137.6053  158.4808 H   0  0  0  0  0  0  0  0  0  0  0  0
  136.2175  139.3049  158.8576 H   0  0  0  0  0  0  0  0  0  0  0  0
  136.4335  140.3830  161.0581 H   0  0  0  0  0  0  0  0  0  0  0  0
  134.9208  139.7625  162.8962 H   0  0  0  0  0  0  0  0  0  0  0  0
  133.1694  138.0732  162.5368 H   0  0  0  0  0  0  0  0  0  0  0  0
  133.3578  135.3189  158.8027 H   0  0  0  0  0  0  0  0  0  0  0  0
  133.9279  135.0018  160.4584 H   0  0  0  0  0  0  0  0  0  0  0  0
  131.7383  134.2161  161.1448 H   0  0  0  0  0  0  0  0  0  0  0  0
  132.1391  133.3878  159.6193 H   0  0  0  0  0  0  0  0  0  0  0  0
  130.3978  133.8439  156.8342 H   0  0  0  0  0  0  0  0  0  0  0  0
  1  2  1  0
  1 30  1  0
  1 31  1  0
  1 32  1  0
  2  3  1  0
  2 33  1  0
  2 34  1  0
  3 29  2  0
  3  4  1  0
  4  5  2  0
  4 35  1  0
  5  6  1  0
  5 36  1  0
  6  7  2  0
  6 37  1  0
  7  8  1  0
  7 29  1  0
  8  9  1  1
  8 10  1  0
  8 16  1  0
 10 15  1  0
 10 11  2  0
 11 12  1  0
 11 38  1  0
 12 13  2  0
 12 39  1  0
 13 14  1  0
 13 40  1  0
 14 15  2  0
 14 41  1  0
 15 42  1  0
 16 17  1  6
 16 28  1  0
 16 18  1  0
 18 19  1  0
 18 43  1  0
 18 44  1  0
 19 20  2  0
 19 45  1  0
 20 21  1  0
 20 27  1  0
 21 26  1  0
 21 22  2  0
 22 23  1  0
 22 46  1  0
 23 24  2  0
 23 47  1  0
 24 25  1  0
 24 48  1  0
 25 26  2  0
 25 49  1  0
 26 50  1  0
 27 28  1  0
 27 51  1  0
 27 52  1  0
 28 53  1  0
 28 54  1  0
 29 55  1  0
M  CHG  1  16   1
M  END
>  <DOCK_score>  (1) 
-56.725887

>  <SMILES>  (1) 
CCc1cccc([C@H](c2ccccc2)[NH+]2CC=C(c3ccccc3)CC2)c1

$$$$
