CC1=CCC(NC(NC2COC2)=[NH+][C@@H]2COc3cc(-c4ccccc4)ccc3C2)CC1
     RDKit          3D

 63 67  0  0  1  0  0  0  0  0999 V2000
  134.9553  140.6426  161.5344 C   0  0  0  0  0  0  0  0  0  0  0  0
  134.1456  139.4126  161.2141 C   0  0  0  0  0  0  0  0  0  0  0  0
  133.0382  139.5677  160.5622 C   0  0  0  0  0  0  0  0  0  0  0  0
  132.1280  138.4407  160.1669 C   0  0  0  0  0  0  0  0  0  0  0  0
  132.4616  137.1864  160.9773 C   0  0  1  0  0  0  0  0  0  0  0  0
  131.7604  136.0321  160.4094 N   0  0  0  0  0  0  0  0  0  0  0  0
  130.5022  135.7042  160.8561 C   0  0  0  0  0  0  0  0  0  0  0  0
  129.9021  136.4594  161.8357 N   0  0  0  0  0  0  0  0  0  0  0  0
  128.5613  136.1099  162.3118 C   0  0  0  0  0  0  0  0  0  0  0  0
  127.4248  136.6698  161.4358 C   0  0  0  0  0  0  0  0  0  0  0  0
  126.7820  137.0051  162.6821 O   0  0  0  0  0  0  0  0  0  0  0  0
  128.0264  137.0495  163.4090 C   0  0  0  0  0  0  0  0  0  0  0  0
  129.8784  134.6774  160.3509 N   0  0  0  0  0  0  0  0  0  0  0  0
  129.2475  134.1783  160.8930 H   0  0  0  0  0  0  0  0  0  0  0  0
  130.1298  134.2771  158.9642 C   0  0  2  0  0  0  0  0  0  0  0  0
  130.8618  134.9485  158.5151 H   0  0  0  0  0  0  0  0  0  0  0  0
  128.8213  134.3298  158.1654 C   0  0  0  0  0  0  0  0  0  0  0  0
  129.1159  134.0371  156.7989 O   0  0  0  0  0  0  0  0  0  0  0  0
  129.8728  132.9407  156.5327 C   0  0  0  0  0  0  0  0  0  0  0  0
  129.8712  132.4350  155.2386 C   0  0  0  0  0  0  0  0  0  0  0  0
  130.6371  131.3176  154.9248 C   0  0  0  0  0  0  0  0  0  0  0  0
  130.6351  130.7764  153.5430 C   0  0  0  0  0  0  0  0  0  0  0  0
  130.8414  129.4156  153.3248 C   0  0  0  0  0  0  0  0  0  0  0  0
  130.8323  128.9167  152.0380 C   0  0  0  0  0  0  0  0  0  0  0  0
  130.6315  129.7664  150.9653 C   0  0  0  0  0  0  0  0  0  0  0  0
  130.4316  131.1189  151.1759 C   0  0  0  0  0  0  0  0  0  0  0  0
  130.4326  131.6277  152.4588 C   0  0  0  0  0  0  0  0  0  0  0  0
  131.4072  130.7084  155.9140 C   0  0  0  0  0  0  0  0  0  0  0  0
  131.4035  131.2153  157.1962 C   0  0  0  0  0  0  0  0  0  0  0  0
  130.6339  132.3242  157.5118 C   0  0  0  0  0  0  0  0  0  0  0  0
  130.6572  132.8407  158.9286 C   0  0  0  0  0  0  0  0  0  0  0  0
  133.9762  136.9514  160.9146 C   0  0  0  0  0  0  0  0  0  0  0  0
  134.6732  138.0842  161.6713 C   0  0  0  0  0  0  0  0  0  0  0  0
  135.6587  140.8358  160.7244 H   0  0  0  0  0  0  0  0  0  0  0  0
  134.2883  141.4972  161.6479 H   0  0  0  0  0  0  0  0  0  0  0  0
  135.5045  140.4847  162.4626 H   0  0  0  0  0  0  0  0  0  0  0  0
  132.7484  140.5713  160.2877 H   0  0  0  0  0  0  0  0  0  0  0  0
  132.2580  138.2303  159.1054 H   0  0  0  0  0  0  0  0  0  0  0  0
  131.0923  138.7258  160.3524 H   0  0  0  0  0  0  0  0  0  0  0  0
  132.1553  137.3275  162.0137 H   0  0  0  0  0  0  0  0  0  0  0  0
  132.1839  135.4993  159.7183 H   0  0  0  0  0  0  0  0  0  0  0  0
  130.3664  137.2236  162.2117 H   0  0  0  0  0  0  0  0  0  0  0  0
  128.4562  135.0513  162.5490 H   0  0  0  0  0  0  0  0  0  0  0  0
  127.7126  137.5366  160.8408 H   0  0  0  0  0  0  0  0  0  0  0  0
  126.8981  135.9101  160.8584 H   0  0  0  0  0  0  0  0  0  0  0  0
  127.9767  136.5909  164.3966 H   0  0  0  0  0  0  0  0  0  0  0  0
  128.4995  138.0313  163.4180 H   0  0  0  0  0  0  0  0  0  0  0  0
  128.3844  135.3254  158.2417 H   0  0  0  0  0  0  0  0  0  0  0  0
  128.1224  133.5905  158.5567 H   0  0  0  0  0  0  0  0  0  0  0  0
  129.2737  132.9107  154.4748 H   0  0  0  0  0  0  0  0  0  0  0  0
  131.0032  128.7521  154.1613 H   0  0  0  0  0  0  0  0  0  0  0  0
  130.9872  127.8614  151.8680 H   0  0  0  0  0  0  0  0  0  0  0  0
  130.6300  129.3725  149.9598 H   0  0  0  0  0  0  0  0  0  0  0  0
  130.2751  131.7780  150.3348 H   0  0  0  0  0  0  0  0  0  0  0  0
  130.2763  132.6839  152.6221 H   0  0  0  0  0  0  0  0  0  0  0  0
  132.0058  129.8413  155.6766 H   0  0  0  0  0  0  0  0  0  0  0  0
  132.0010  130.7420  157.9614 H   0  0  0  0  0  0  0  0  0  0  0  0
  131.6789  132.8198  159.3080 H   0  0  0  0  0  0  0  0  0  0  0  0
  130.0264  132.2071  159.5522 H   0  0  0  0  0  0  0  0  0  0  0  0
  134.2184  135.9963  161.3805 H   0  0  0  0  0  0  0  0  0  0  0  0
  134.3034  136.9456  159.8749 H   0  0  0  0  0  0  0  0  0  0  0  0
  134.4902  137.9711  162.7399 H   0  0  0  0  0  0  0  0  0  0  0  0
  135.7457  138.0390  161.4817 H   0  0  0  0  0  0  0  0  0  0  0  0
  1  2  1  0
  1 34  1  0
  1 35  1  0
  1 36  1  0
  2 33  1  0
  2  3  2  0
  3  4  1  0
  3 37  1  0
  4  5  1  0
  4 38  1  0
  4 39  1  0
  5  6  1  0
  5 32  1  0
  5 40  1  1
  6 41  1  0
  7  6  1  0
  7  8  1  0
  7 13  2  0
  8  9  1  0
  8 42  1  0
  9 12  1  0
  9 10  1  0
  9 43  1  0
 10 11  1  0
 10 44  1  0
 10 45  1  0
 11 12  1  0
 12 46  1  0
 12 47  1  0
 13 14  1  0
 13 15  1  0
 15 16  1  6
 15 31  1  0
 15 17  1  0
 17 18  1  0
 17 48  1  0
 17 49  1  0
 18 19  1  0
 19 30  2  0
 19 20  1  0
 20 21  2  0
 20 50  1  0
 21 22  1  0
 21 28  1  0
 22 27  1  0
 22 23  2  0
 23 24  1  0
 23 51  1  0
 24 25  2  0
 24 52  1  0
 25 26  1  0
 25 53  1  0
 26 27  2  0
 26 54  1  0
 27 55  1  0
 28 29  2  0
 28 56  1  0
 29 30  1  0
 29 57  1  0
 30 31  1  0
 31 58  1  0
 31 59  1  0
 32 33  1  0
 32 60  1  0
 32 61  1  0
 33 62  1  0
 33 63  1  0
M  CHG  1  13   1
M  END
>  <DOCK_score>  (1) 
-51.072601

>  <SMILES>  (1) 
CC1=CCC(NC(NC2COC2)=[NH+][C@@H]2COc3cc(-c4ccccc4)ccc3C2)CC1

$$$$
