C1=C(Sc2ccccc2C2=CC[N@@H+](Cc3ccc4sccc4c3)CC2)CCCC1
     RDKit          3D

 57 61  0  0  1  0  0  0  0  0999 V2000
  135.9261  135.4445  163.8194 C   0  0  0  0  0  0  0  0  0  0  0  0
  136.1442  136.7322  163.8332 C   0  0  0  0  0  0  0  0  0  0  0  0
  134.8255  137.8007  163.3598 S   0  0  0  0  0  0  0  0  0  0  0  0
  135.4902  138.6604  161.9729 C   0  0  0  0  0  0  0  0  0  0  0  0
  136.6361  139.4315  162.1139 C   0  0  0  0  0  0  0  0  0  0  0  0
  137.1529  140.1077  161.0264 C   0  0  0  0  0  0  0  0  0  0  0  0
  136.5363  140.0200  159.7896 C   0  0  0  0  0  0  0  0  0  0  0  0
  135.3999  139.2541  159.6308 C   0  0  0  0  0  0  0  0  0  0  0  0
  134.8673  138.5647  160.7201 C   0  0  0  0  0  0  0  0  0  0  0  0
  133.6509  137.7435  160.5564 C   0  0  0  0  0  0  0  0  0  0  0  0
  133.7135  136.4559  160.8241 C   0  0  0  0  0  0  0  0  0  0  0  0
  132.5328  135.5372  160.6956 C   0  0  0  0  0  0  0  0  0  0  0  0
  131.4979  136.1487  159.8538 N   0  0  1  0  0  0  0  0  0  0  0  0
  131.8321  136.2208  158.9044 H   0  0  0  0  0  0  0  0  0  0  0  0
  130.2850  135.3206  159.8864 C   0  0  0  0  0  0  0  0  0  0  0  0
  130.6036  133.9422  159.3672 C   0  0  0  0  0  0  0  0  0  0  0  0
  131.0289  132.9565  160.2480 C   0  0  0  0  0  0  0  0  0  0  0  0
  131.3276  131.6974  159.7844 C   0  0  0  0  0  0  0  0  0  0  0  0
  131.2049  131.4021  158.4229 C   0  0  0  0  0  0  0  0  0  0  0  0
  131.5087  129.9086  157.5446 S   0  0  0  0  0  0  0  0  0  0  0  0
  131.0591  130.6376  156.0151 C   0  0  0  0  0  0  0  0  0  0  0  0
  130.7114  131.9001  156.1677 C   0  0  0  0  0  0  0  0  0  0  0  0
  130.7772  132.3920  157.5343 C   0  0  0  0  0  0  0  0  0  0  0  0
  130.4774  133.6761  158.0385 C   0  0  0  0  0  0  0  0  0  0  0  0
  131.1914  137.4916  160.3711 C   0  0  0  0  0  0  0  0  0  0  0  0
  132.3849  138.4078  160.0894 C   0  0  0  0  0  0  0  0  0  0  0  0
  137.4490  137.3565  164.2336 C   0  0  0  0  0  0  0  0  0  0  0  0
  138.3037  136.3448  164.9998 C   0  0  0  0  0  0  0  0  0  0  0  0
  138.3497  135.0394  164.1958 C   0  0  0  0  0  0  0  0  0  0  0  0
  136.9517  134.4172  164.2009 C   0  0  0  0  0  0  0  0  0  0  0  0
  134.9506  135.0979  163.5118 H   0  0  0  0  0  0  0  0  0  0  0  0
  137.1221  139.5047  163.0756 H   0  0  0  0  0  0  0  0  0  0  0  0
  138.0419  140.7099  161.1417 H   0  0  0  0  0  0  0  0  0  0  0  0
  136.9475  140.5533  158.9451 H   0  0  0  0  0  0  0  0  0  0  0  0
  134.9235  139.1881  158.6638 H   0  0  0  0  0  0  0  0  0  0  0  0
  134.6558  136.0423  161.1514 H   0  0  0  0  0  0  0  0  0  0  0  0
  132.1214  135.3379  161.6851 H   0  0  0  0  0  0  0  0  0  0  0  0
  132.8546  134.5978  160.2461 H   0  0  0  0  0  0  0  0  0  0  0  0
  129.5173  135.7760  159.2608 H   0  0  0  0  0  0  0  0  0  0  0  0
  129.9222  135.2478  160.9116 H   0  0  0  0  0  0  0  0  0  0  0  0
  131.1252  133.1799  161.3003 H   0  0  0  0  0  0  0  0  0  0  0  0
  131.6584  130.9342  160.4733 H   0  0  0  0  0  0  0  0  0  0  0  0
  131.0655  130.1184  155.0681 H   0  0  0  0  0  0  0  0  0  0  0  0
  130.4012  132.5215  155.3406 H   0  0  0  0  0  0  0  0  0  0  0  0
  130.1451  134.4524  157.3654 H   0  0  0  0  0  0  0  0  0  0  0  0
  130.3045  137.8823  159.8722 H   0  0  0  0  0  0  0  0  0  0  0  0
  131.0164  137.4385  161.4456 H   0  0  0  0  0  0  0  0  0  0  0  0
  132.4498  138.6007  159.0187 H   0  0  0  0  0  0  0  0  0  0  0  0
  132.2524  139.3504  160.6205 H   0  0  0  0  0  0  0  0  0  0  0  0
  137.9843  137.6790  163.3407 H   0  0  0  0  0  0  0  0  0  0  0  0
  137.2560  138.2209  164.8689 H   0  0  0  0  0  0  0  0  0  0  0  0
  139.3139  136.7360  165.1210 H   0  0  0  0  0  0  0  0  0  0  0  0
  137.8608  136.1572  165.9779 H   0  0  0  0  0  0  0  0  0  0  0  0
  138.6525  135.2513  163.1703 H   0  0  0  0  0  0  0  0  0  0  0  0
  139.0587  134.3508  164.6555 H   0  0  0  0  0  0  0  0  0  0  0  0
  136.9211  133.5915  163.4902 H   0  0  0  0  0  0  0  0  0  0  0  0
  136.7274  134.0408  165.1990 H   0  0  0  0  0  0  0  0  0  0  0  0
  1 30  1  0
  1  2  2  0
  1 31  1  0
  2  3  1  0
  2 27  1  0
  3  4  1  0
  4  9  1  0
  4  5  2  0
  5  6  1  0
  5 32  1  0
  6  7  2  0
  6 33  1  0
  7  8  1  0
  7 34  1  0
  8  9  2  0
  8 35  1  0
  9 10  1  0
 10 26  1  0
 10 11  2  0
 11 12  1  0
 11 36  1  0
 12 13  1  0
 12 37  1  0
 12 38  1  0
 13 14  1  6
 13 15  1  0
 13 25  1  0
 15 16  1  0
 15 39  1  0
 15 40  1  0
 16 24  1  0
 16 17  2  0
 17 18  1  0
 17 41  1  0
 18 19  2  0
 18 42  1  0
 19 23  1  0
 19 20  1  0
 20 21  1  0
 21 22  2  0
 21 43  1  0
 22 23  1  0
 22 44  1  0
 23 24  2  0
 24 45  1  0
 25 26  1  0
 25 46  1  0
 25 47  1  0
 26 48  1  0
 26 49  1  0
 27 28  1  0
 27 50  1  0
 27 51  1  0
 28 29  1  0
 28 52  1  0
 28 53  1  0
 29 30  1  0
 29 54  1  0
 29 55  1  0
 30 56  1  0
 30 57  1  0
M  CHG  1  13   1
M  END
>  <DOCK_score>  (1) 
-58.011955

>  <SMILES>  (1) 
C1=C(Sc2ccccc2C2=CC[N@@H+](Cc3ccc4sccc4c3)CC2)CCCC1

$$$$
