CCc1ccc(-c2c[nH]c(NC(Cc3ccnn3C)[C@@H](C)C3=CC(O)CCC3O)[nH+]2)cc1
     RDKit          3D

 66 69  0  0  1  0  0  0  0  0999 V2000
  130.3892  128.9179  152.0708 C   0  0  0  0  0  0  0  0  0  0  0  0
  131.5411  129.8374  152.4805 C   0  0  0  0  0  0  0  0  0  0  0  0
  131.2040  130.5150  153.7839 C   0  0  0  0  0  0  0  0  0  0  0  0
  131.5589  129.9208  154.9809 C   0  0  0  0  0  0  0  0  0  0  0  0
  131.2570  130.5388  156.1773 C   0  0  0  0  0  0  0  0  0  0  0  0
  130.5845  131.7596  156.1779 C   0  0  0  0  0  0  0  0  0  0  0  0
  130.2533  132.4265  157.4609 C   0  0  0  0  0  0  0  0  0  0  0  0
  129.4738  131.9176  158.4469 C   0  0  0  0  0  0  0  0  0  0  0  0
  129.4338  132.8569  159.4484 N   0  0  0  0  0  0  0  0  0  0  0  0
  128.9565  132.7802  160.2892 H   0  0  0  0  0  0  0  0  0  0  0  0
  130.1838  133.9169  159.0410 C   0  0  0  0  0  0  0  0  0  0  0  0
  130.3956  135.0795  159.7623 N   0  0  0  0  0  0  0  0  0  0  0  0
  129.7866  135.2423  161.0847 C   0  0  2  0  0  0  0  0  0  0  0  0
  128.8652  136.4638  161.0750 C   0  0  0  0  0  0  0  0  0  0  0  0
  127.5485  136.0946  160.4418 C   0  0  0  0  0  0  0  0  0  0  0  0
  127.2403  136.1916  159.1277 C   0  0  0  0  0  0  0  0  0  0  0  0
  125.9246  135.7470  158.9604 C   0  0  0  0  0  0  0  0  0  0  0  0
  125.4572  135.4032  160.1330 N   0  0  0  0  0  0  0  0  0  0  0  0
  126.4638  135.6136  161.0843 N   0  0  0  0  0  0  0  0  0  0  0  0
  126.3576  135.3564  162.5227 C   0  0  0  0  0  0  0  0  0  0  0  0
  130.8851  135.4404  162.1311 C   0  0  1  0  0  0  0  0  0  0  0  0
  130.4322  135.5615  163.1150 H   0  0  0  0  0  0  0  0  0  0  0  0
  131.8066  134.2190  162.1406 C   0  0  0  0  0  0  0  0  0  0  0  0
  131.6860  136.6711  161.7918 C   0  0  0  0  0  0  0  0  0  0  0  0
  131.2959  137.8035  162.2828 C   0  0  0  0  0  0  0  0  0  0  0  0
  131.9863  139.1117  162.0305 C   0  0  2  0  0  0  0  0  0  0  0  0
  131.2333  139.8637  161.0767 O   0  0  0  0  0  0  0  0  0  0  0  0
  133.3958  138.8692  161.4863 C   0  0  0  0  0  0  0  0  0  0  0  0
  133.3036  137.8646  160.3309 C   0  0  0  0  0  0  0  0  0  0  0  0
  132.8827  136.5084  160.9009 C   0  0  2  0  0  0  0  0  0  0  0  0
  132.5570  135.6236  159.8272 O   0  0  0  0  0  0  0  0  0  0  0  0
  130.6719  133.6560  157.8529 N   0  0  0  0  0  0  0  0  0  0  0  0
  131.2410  134.2477  157.3362 H   0  0  0  0  0  0  0  0  0  0  0  0
  130.2247  132.3516  154.9685 C   0  0  0  0  0  0  0  0  0  0  0  0
  130.5359  131.7268  153.7779 C   0  0  0  0  0  0  0  0  0  0  0  0
  129.4796  129.5059  151.9501 H   0  0  0  0  0  0  0  0  0  0  0  0
  130.6330  128.4280  151.1280 H   0  0  0  0  0  0  0  0  0  0  0  0
  130.2348  128.1639  152.8428 H   0  0  0  0  0  0  0  0  0  0  0  0
  132.4507  129.2502  152.6008 H   0  0  0  0  0  0  0  0  0  0  0  0
  131.6953  130.5922  151.7081 H   0  0  0  0  0  0  0  0  0  0  0  0
  132.0767  128.9730  154.9793 H   0  0  0  0  0  0  0  0  0  0  0  0
  131.5385  130.0757  157.1117 H   0  0  0  0  0  0  0  0  0  0  0  0
  128.9808  130.9566  158.4460 H   0  0  0  0  0  0  0  0  0  0  0  0
  130.9473  135.7863  159.3919 H   0  0  0  0  0  0  0  0  0  0  0  0
  129.2074  134.3522  161.3300 H   0  0  0  0  0  0  0  0  0  0  0  0
  128.6951  136.7986  162.0982 H   0  0  0  0  0  0  0  0  0  0  0  0
  129.3312  137.2659  160.5028 H   0  0  0  0  0  0  0  0  0  0  0  0
  127.8951  136.5471  158.3460 H   0  0  0  0  0  0  0  0  0  0  0  0
  125.3863  135.6995  158.0254 H   0  0  0  0  0  0  0  0  0  0  0  0
  125.9928  136.2518  163.0258 H   0  0  0  0  0  0  0  0  0  0  0  0
  125.6627  134.5344  162.6945 H   0  0  0  0  0  0  0  0  0  0  0  0
  127.3383  135.0916  162.9178 H   0  0  0  0  0  0  0  0  0  0  0  0
  132.2595  134.0978  161.1568 H   0  0  0  0  0  0  0  0  0  0  0  0
  132.5892  134.3600  162.8860 H   0  0  0  0  0  0  0  0  0  0  0  0
  131.2273  133.3288  162.3860 H   0  0  0  0  0  0  0  0  0  0  0  0
  130.4212  137.8064  162.9162 H   0  0  0  0  0  0  0  0  0  0  0  0
  132.0506  139.6725  162.9630 H   0  0  0  0  0  0  0  0  0  0  0  0
  131.1380  139.4277  160.2188 H   0  0  0  0  0  0  0  0  0  0  0  0
  134.0283  138.4628  162.2757 H   0  0  0  0  0  0  0  0  0  0  0  0
  133.8151  139.8076  161.1235 H   0  0  0  0  0  0  0  0  0  0  0  0
  134.2758  137.7728  159.8467 H   0  0  0  0  0  0  0  0  0  0  0  0
  132.5616  138.2046  159.6083 H   0  0  0  0  0  0  0  0  0  0  0  0
  133.7076  136.0891  161.4770 H   0  0  0  0  0  0  0  0  0  0  0  0
  133.2593  135.5283  159.1693 H   0  0  0  0  0  0  0  0  0  0  0  0
  129.7031  133.2973  154.9632 H   0  0  0  0  0  0  0  0  0  0  0  0
  130.2577  132.1846  152.8402 H   0  0  0  0  0  0  0  0  0  0  0  0
  1  2  1  0
  1 36  1  0
  1 37  1  0
  1 38  1  0
  2  3  1  0
  2 39  1  0
  2 40  1  0
  3 35  2  0
  3  4  1  0
  4  5  2  0
  4 41  1  0
  5  6  1  0
  5 42  1  0
  6  7  1  0
  6 34  2  0
  7 32  1  0
  7  8  2  0
  8  9  1  0
  8 43  1  0
  9 10  1  0
  9 11  1  0
 11 12  1  0
 11 32  2  0
 12 13  1  0
 12 44  1  0
 13 14  1  0
 13 21  1  0
 13 45  1  1
 14 15  1  0
 14 46  1  0
 14 47  1  0
 15 19  1  0
 15 16  2  0
 16 17  1  0
 16 48  1  0
 17 18  2  0
 17 49  1  0
 18 19  1  0
 19 20  1  0
 20 50  1  0
 20 51  1  0
 20 52  1  0
 21 22  1  1
 21 23  1  0
 21 24  1  0
 23 53  1  0
 23 54  1  0
 23 55  1  0
 24 30  1  0
 24 25  2  0
 25 26  1  0
 25 56  1  0
 26 27  1  0
 26 28  1  0
 26 57  1  1
 27 58  1  0
 28 29  1  0
 28 59  1  0
 28 60  1  0
 29 30  1  0
 29 61  1  0
 29 62  1  0
 30 31  1  0
 30 63  1  1
 31 64  1  0
 32 33  1  0
 34 35  1  0
 34 65  1  0
 35 66  1  0
M  CHG  1  32   1
M  END
>  <DOCK_score>  (1) 
-59.448166

>  <SMILES>  (1) 
CCc1ccc(-c2c[nH]c(NC(Cc3ccnn3C)[C@@H](C)C3=CC(O)CCC3O)[nH+]2)cc1

$$$$
