C1=C(CCNc2ccc(-c3n[nH]cc3C[NH2+]CC3=CCOCC3)o2)CCC1
     RDKit          3D

 56 59  0  0  0  0  0  0  0  0999 V2000
  126.8166  140.7808  163.6979 C   0  0  0  0  0  0  0  0  0  0  0  0
  127.0577  139.5244  163.9566 C   0  0  0  0  0  0  0  0  0  0  0  0
  126.2582  138.3719  163.4055 C   0  0  0  0  0  0  0  0  0  0  0  0
  127.1746  137.4614  162.5857 C   0  0  0  0  0  0  0  0  0  0  0  0
  126.3973  136.3411  162.0499 N   0  0  0  0  0  0  0  0  0  0  0  0
  127.0190  135.3751  161.2672 C   0  0  0  0  0  0  0  0  0  0  0  0
  126.4159  134.2909  160.7189 C   0  0  0  0  0  0  0  0  0  0  0  0
  127.4066  133.5850  160.0081 C   0  0  0  0  0  0  0  0  0  0  0  0
  128.5689  134.2718  160.1656 C   0  0  0  0  0  0  0  0  0  0  0  0
  129.8798  133.8964  159.5968 C   0  0  0  0  0  0  0  0  0  0  0  0
  130.1265  132.8423  158.8442 N   0  0  0  0  0  0  0  0  0  0  0  0
  131.4878  132.8524  158.5150 N   0  0  0  0  0  0  0  0  0  0  0  0
  131.9460  132.1939  157.9695 H   0  0  0  0  0  0  0  0  0  0  0  0
  132.0524  133.9376  159.0876 C   0  0  0  0  0  0  0  0  0  0  0  0
  131.0887  134.6057  159.7573 C   0  0  0  0  0  0  0  0  0  0  0  0
  131.2727  135.8805  160.5397 C   0  0  0  0  0  0  0  0  0  0  0  0
  131.0502  137.0333  159.6570 N   0  0  0  0  0  0  0  0  0  0  0  0
  131.7124  137.0070  158.8961 H   0  0  0  0  0  0  0  0  0  0  0  0
  130.1119  136.9979  159.2875 H   0  0  0  0  0  0  0  0  0  0  0  0
  131.2296  138.2760  160.4196 C   0  0  0  0  0  0  0  0  0  0  0  0
  132.6311  138.3287  160.9712 C   0  0  0  0  0  0  0  0  0  0  0  0
  132.7940  138.3962  162.2590 C   0  0  0  0  0  0  0  0  0  0  0  0
  134.1477  138.4563  162.9076 C   0  0  0  0  0  0  0  0  0  0  0  0
  135.1599  138.0800  161.9718 O   0  0  0  0  0  0  0  0  0  0  0  0
  135.0577  138.7784  160.7247 C   0  0  0  0  0  0  0  0  0  0  0  0
  133.7878  138.3074  160.0103 C   0  0  0  0  0  0  0  0  0  0  0  0
  128.3201  135.3552  160.9311 O   0  0  0  0  0  0  0  0  0  0  0  0
  128.2434  139.3771  164.8815 C   0  0  0  0  0  0  0  0  0  0  0  0
  128.4437  140.7843  165.4908 C   0  0  0  0  0  0  0  0  0  0  0  0
  127.8050  141.6808  164.4024 C   0  0  0  0  0  0  0  0  0  0  0  0
  126.0184  141.1311  163.0603 H   0  0  0  0  0  0  0  0  0  0  0  0
  125.8241  137.8044  164.2287 H   0  0  0  0  0  0  0  0  0  0  0  0
  125.4613  138.7547  162.7679 H   0  0  0  0  0  0  0  0  0  0  0  0
  127.6087  138.0289  161.7625 H   0  0  0  0  0  0  0  0  0  0  0  0
  127.9715  137.0787  163.2233 H   0  0  0  0  0  0  0  0  0  0  0  0
  125.4488  136.2734  162.2413 H   0  0  0  0  0  0  0  0  0  0  0  0
  125.3740  134.0211  160.8088 H   0  0  0  0  0  0  0  0  0  0  0  0
  127.2698  132.6711  159.4493 H   0  0  0  0  0  0  0  0  0  0  0  0
  133.0915  134.2231  159.0187 H   0  0  0  0  0  0  0  0  0  0  0  0
  130.5573  135.9088  161.3617 H   0  0  0  0  0  0  0  0  0  0  0  0
  132.2863  135.9188  160.9389 H   0  0  0  0  0  0  0  0  0  0  0  0
  131.0646  139.1314  159.7646 H   0  0  0  0  0  0  0  0  0  0  0  0
  130.5144  138.3044  161.2416 H   0  0  0  0  0  0  0  0  0  0  0  0
  131.9179  138.4057  162.8905 H   0  0  0  0  0  0  0  0  0  0  0  0
  134.1732  137.7774  163.7599 H   0  0  0  0  0  0  0  0  0  0  0  0
  134.3330  139.4742  163.2507 H   0  0  0  0  0  0  0  0  0  0  0  0
  135.9290  138.5581  160.1079 H   0  0  0  0  0  0  0  0  0  0  0  0
  134.9991  139.8512  160.9084 H   0  0  0  0  0  0  0  0  0  0  0  0
  133.9342  137.2924  159.6410 H   0  0  0  0  0  0  0  0  0  0  0  0
  133.5755  138.9711  159.1720 H   0  0  0  0  0  0  0  0  0  0  0  0
  128.0258  138.6516  165.6653 H   0  0  0  0  0  0  0  0  0  0  0  0
  129.1281  139.0771  164.3200 H   0  0  0  0  0  0  0  0  0  0  0  0
  127.9162  140.8785  166.4399 H   0  0  0  0  0  0  0  0  0  0  0  0
  129.5031  141.0120  165.6097 H   0  0  0  0  0  0  0  0  0  0  0  0
  128.5636  142.0325  163.7033 H   0  0  0  0  0  0  0  0  0  0  0  0
  127.2898  142.5247  164.8614 H   0  0  0  0  0  0  0  0  0  0  0  0
  1 30  1  0
  1  2  2  0
  1 31  1  0
  2  3  1  0
  2 28  1  0
  3  4  1  0
  3 32  1  0
  3 33  1  0
  4  5  1  0
  4 34  1  0
  4 35  1  0
  5  6  1  0
  5 36  1  0
  6 27  1  0
  6  7  2  0
  7  8  1  0
  7 37  1  0
  8  9  2  0
  8 38  1  0
  9 10  1  0
  9 27  1  0
 10 15  1  0
 10 11  2  0
 11 12  1  0
 12 13  1  0
 12 14  1  0
 14 15  2  0
 14 39  1  0
 15 16  1  0
 16 17  1  0
 16 40  1  0
 16 41  1  0
 17 18  1  0
 17 19  1  0
 17 20  1  0
 20 21  1  0
 20 42  1  0
 20 43  1  0
 21 26  1  0
 21 22  2  0
 22 23  1  0
 22 44  1  0
 23 24  1  0
 23 45  1  0
 23 46  1  0
 24 25  1  0
 25 26  1  0
 25 47  1  0
 25 48  1  0
 26 49  1  0
 26 50  1  0
 28 29  1  0
 28 51  1  0
 28 52  1  0
 29 30  1  0
 29 53  1  0
 29 54  1  0
 30 55  1  0
 30 56  1  0
M  CHG  1  17   1
M  END
>  <DOCK_score>  (1) 
-41.093666

>  <SMILES>  (1) 
C1=C(CCNc2ccc(-c3n[nH]cc3C[NH2+]CC3=CCOCC3)o2)CCC1

$$$$
