CCc1ccccc1O[C@H](c1ccccc1)C1CC[NH+](Cc2cccc3ccccc23)CC1
     RDKit          3D

 67 71  0  0  1  0  0  0  0  0999 V2000
  133.4615  139.2336  158.2091 C   0  0  0  0  0  0  0  0  0  0  0  0
  134.8066  138.6517  158.6485 C   0  0  0  0  0  0  0  0  0  0  0  0
  135.1953  139.2362  159.9820 C   0  0  0  0  0  0  0  0  0  0  0  0
  135.9362  140.4011  160.0369 C   0  0  0  0  0  0  0  0  0  0  0  0
  136.2985  140.9344  161.2598 C   0  0  0  0  0  0  0  0  0  0  0  0
  135.9146  140.3074  162.4311 C   0  0  0  0  0  0  0  0  0  0  0  0
  135.1682  139.1463  162.3818 C   0  0  0  0  0  0  0  0  0  0  0  0
  134.8038  138.6087  161.1556 C   0  0  0  0  0  0  0  0  0  0  0  0
  134.0694  137.4664  161.1043 O   0  0  0  0  0  0  0  0  0  0  0  0
  133.1684  137.2253  162.1869 C   0  0  2  0  0  0  0  0  0  0  0  0
  132.8224  138.1769  162.5905 H   0  0  0  0  0  0  0  0  0  0  0  0
  133.8774  136.4497  163.2672 C   0  0  0  0  0  0  0  0  0  0  0  0
  133.5114  136.6143  164.5899 C   0  0  0  0  0  0  0  0  0  0  0  0
  134.1587  135.8997  165.5804 C   0  0  0  0  0  0  0  0  0  0  0  0
  135.1782  135.0269  165.2489 C   0  0  0  0  0  0  0  0  0  0  0  0
  135.5477  134.8661  163.9265 C   0  0  0  0  0  0  0  0  0  0  0  0
  134.8975  135.5776  162.9358 C   0  0  0  0  0  0  0  0  0  0  0  0
  131.9699  136.4189  161.6832 C   0  0  2  0  0  0  0  0  0  0  0  0
  132.4555  135.0857  161.1068 C   0  0  0  0  0  0  0  0  0  0  0  0
  131.2617  134.3192  160.5332 C   0  0  0  0  0  0  0  0  0  0  0  0
  130.6309  135.1124  159.4713 N   0  0  1  0  0  0  0  0  0  0  0  0
  131.3158  135.3287  158.7625 H   0  0  0  0  0  0  0  0  0  0  0  0
  129.5345  134.3404  158.8712 C   0  0  0  0  0  0  0  0  0  0  0  0
  130.0986  133.3490  157.8864 C   0  0  0  0  0  0  0  0  0  0  0  0
  130.2611  133.6983  156.5808 C   0  0  0  0  0  0  0  0  0  0  0  0
  130.7816  132.7953  155.6561 C   0  0  0  0  0  0  0  0  0  0  0  0
  131.1412  131.5371  156.0309 C   0  0  0  0  0  0  0  0  0  0  0  0
  130.9875  131.1401  157.3700 C   0  0  0  0  0  0  0  0  0  0  0  0
  131.3485  129.8499  157.7949 C   0  0  0  0  0  0  0  0  0  0  0  0
  131.1863  129.5010  159.1002 C   0  0  0  0  0  0  0  0  0  0  0  0
  130.6661  130.4045  160.0254 C   0  0  0  0  0  0  0  0  0  0  0  0
  130.3057  131.6620  159.6504 C   0  0  0  0  0  0  0  0  0  0  0  0
  130.4590  132.0591  158.3110 C   0  0  0  0  0  0  0  0  0  0  0  0
  130.0991  136.3607  160.0311 C   0  0  0  0  0  0  0  0  0  0  0  0
  131.2482  137.2057  160.5853 C   0  0  0  0  0  0  0  0  0  0  0  0
  133.1803  138.8109  157.2447 H   0  0  0  0  0  0  0  0  0  0  0  0
  132.7002  138.9877  158.9495 H   0  0  0  0  0  0  0  0  0  0  0  0
  133.5457  140.3168  158.1205 H   0  0  0  0  0  0  0  0  0  0  0  0
  135.5680  138.8976  157.9082 H   0  0  0  0  0  0  0  0  0  0  0  0
  134.7225  137.5685  158.7372 H   0  0  0  0  0  0  0  0  0  0  0  0
  136.2370  140.8928  159.1236 H   0  0  0  0  0  0  0  0  0  0  0  0
  136.8818  141.8424  161.3005 H   0  0  0  0  0  0  0  0  0  0  0  0
  136.1984  140.7262  163.3854 H   0  0  0  0  0  0  0  0  0  0  0  0
  134.8687  138.6570  163.2968 H   0  0  0  0  0  0  0  0  0  0  0  0
  132.7175  137.2991  164.8493 H   0  0  0  0  0  0  0  0  0  0  0  0
  133.8698  136.0251  166.6134 H   0  0  0  0  0  0  0  0  0  0  0  0
  135.6858  134.4705  166.0229 H   0  0  0  0  0  0  0  0  0  0  0  0
  136.3442  134.1842  163.6676 H   0  0  0  0  0  0  0  0  0  0  0  0
  135.1862  135.4519  161.9026 H   0  0  0  0  0  0  0  0  0  0  0  0
  131.2841  136.2306  162.5091 H   0  0  0  0  0  0  0  0  0  0  0  0
  132.9213  134.4959  161.8963 H   0  0  0  0  0  0  0  0  0  0  0  0
  133.1812  135.2739  160.3158 H   0  0  0  0  0  0  0  0  0  0  0  0
  130.5367  134.1312  161.3250 H   0  0  0  0  0  0  0  0  0  0  0  0
  131.6043  133.3697  160.1221 H   0  0  0  0  0  0  0  0  0  0  0  0
  128.8534  135.0175  158.3555 H   0  0  0  0  0  0  0  0  0  0  0  0
  128.9942  133.8079  159.6539 H   0  0  0  0  0  0  0  0  0  0  0  0
  129.9833  134.6905  156.2571 H   0  0  0  0  0  0  0  0  0  0  0  0
  130.9007  133.0980  154.6262 H   0  0  0  0  0  0  0  0  0  0  0  0
  131.5466  130.8491  155.3038 H   0  0  0  0  0  0  0  0  0  0  0  0
  131.7522  129.1391  157.0891 H   0  0  0  0  0  0  0  0  0  0  0  0
  131.4644  128.5090  159.4241 H   0  0  0  0  0  0  0  0  0  0  0  0
  130.5469  130.1018  161.0553 H   0  0  0  0  0  0  0  0  0  0  0  0
  129.9036  132.3512  160.3783 H   0  0  0  0  0  0  0  0  0  0  0  0
  129.5831  136.9181  159.2493 H   0  0  0  0  0  0  0  0  0  0  0  0
  129.3989  136.1293  160.8336 H   0  0  0  0  0  0  0  0  0  0  0  0
  130.8512  138.1314  161.0021 H   0  0  0  0  0  0  0  0  0  0  0  0
  131.9489  137.4380  159.7834 H   0  0  0  0  0  0  0  0  0  0  0  0
  1  2  1  0
  1 36  1  0
  1 37  1  0
  1 38  1  0
  2  3  1  0
  2 39  1  0
  2 40  1  0
  3  8  2  0
  3  4  1  0
  4  5  2  0
  4 41  1  0
  5  6  1  0
  5 42  1  0
  6  7  2  0
  6 43  1  0
  7  8  1  0
  7 44  1  0
  8  9  1  0
  9 10  1  0
 10 11  1  1
 10 12  1  0
 10 18  1  0
 12 17  1  0
 12 13  2  0
 13 14  1  0
 13 45  1  0
 14 15  2  0
 14 46  1  0
 15 16  1  0
 15 47  1  0
 16 17  2  0
 16 48  1  0
 17 49  1  0
 18 35  1  0
 18 19  1  0
 18 50  1  1
 19 20  1  0
 19 51  1  0
 19 52  1  0
 20 21  1  0
 20 53  1  0
 20 54  1  0
 21 22  1  6
 21 23  1  0
 21 34  1  0
 23 24  1  0
 23 55  1  0
 23 56  1  0
 24 33  1  0
 24 25  2  0
 25 26  1  0
 25 57  1  0
 26 27  2  0
 26 58  1  0
 27 28  1  0
 27 59  1  0
 28 33  2  0
 28 29  1  0
 29 30  2  0
 29 60  1  0
 30 31  1  0
 30 61  1  0
 31 32  2  0
 31 62  1  0
 32 33  1  0
 32 63  1  0
 34 35  1  0
 34 64  1  0
 34 65  1  0
 35 66  1  0
 35 67  1  0
M  CHG  1  21   1
M  END
>  <DOCK_score>  (1) 
-56.048481

>  <SMILES>  (1) 
CCc1ccccc1O[C@H](c1ccccc1)C1CC[NH+](Cc2cccc3ccccc23)CC1

$$$$
