[NH3+][C@H](C(=O)c1cccc(O)c1)c1cccc(-c2ccccc2)c1
     RDKit          3D

 41 43  0  0  1  0  0  0  0  0999 V2000
  130.0694  135.6947  158.6510 N   0  0  0  0  0  0  0  0  0  0  0  0
  129.5362  136.5030  158.9345 H   0  0  0  0  0  0  0  0  0  0  0  0
  130.8529  135.5726  159.2749 H   0  0  0  0  0  0  0  0  0  0  0  0
  130.4068  135.8277  157.7094 H   0  0  0  0  0  0  0  0  0  0  0  0
  129.2137  134.5016  158.7007 C   0  0  2  0  0  0  0  0  0  0  0  0
  128.3673  134.6333  158.0267 H   0  0  0  0  0  0  0  0  0  0  0  0
  128.7098  134.3031  160.1070 C   0  0  0  0  0  0  0  0  0  0  0  0
  129.3810  134.6677  161.0486 O   0  0  0  0  0  0  0  0  0  0  0  0
  127.4030  133.6665  160.3374 C   0  0  0  0  0  0  0  0  0  0  0  0
  127.1678  132.3627  159.8888 C   0  0  0  0  0  0  0  0  0  0  0  0
  125.9420  131.7702  160.1075 C   0  0  0  0  0  0  0  0  0  0  0  0
  124.9427  132.4609  160.7693 C   0  0  0  0  0  0  0  0  0  0  0  0
  125.1656  133.7556  161.2188 C   0  0  0  0  0  0  0  0  0  0  0  0
  124.1793  134.4280  161.8686 O   0  0  0  0  0  0  0  0  0  0  0  0
  126.3933  134.3602  161.0105 C   0  0  0  0  0  0  0  0  0  0  0  0
  130.0101  133.2943  158.2773 C   0  0  0  0  0  0  0  0  0  0  0  0
  130.6993  132.5557  159.2222 C   0  0  0  0  0  0  0  0  0  0  0  0
  131.4321  131.4466  158.8406 C   0  0  0  0  0  0  0  0  0  0  0  0
  131.4757  131.0682  157.5138 C   0  0  0  0  0  0  0  0  0  0  0  0
  130.7877  131.8115  156.5571 C   0  0  0  0  0  0  0  0  0  0  0  0
  130.8346  131.4122  155.1287 C   0  0  0  0  0  0  0  0  0  0  0  0
  130.7277  132.3769  154.1290 C   0  0  0  0  0  0  0  0  0  0  0  0
  130.7716  131.9998  152.8022 C   0  0  0  0  0  0  0  0  0  0  0  0
  130.9213  130.6670  152.4638 C   0  0  0  0  0  0  0  0  0  0  0  0
  131.0279  129.7051  153.4522 C   0  0  0  0  0  0  0  0  0  0  0  0
  130.9853  130.0711  154.7823 C   0  0  0  0  0  0  0  0  0  0  0  0
  130.0505  132.9279  156.9474 C   0  0  0  0  0  0  0  0  0  0  0  0
  127.9455  131.8206  159.3714 H   0  0  0  0  0  0  0  0  0  0  0  0
  125.7615  130.7634  159.7610 H   0  0  0  0  0  0  0  0  0  0  0  0
  123.9848  131.9910  160.9369 H   0  0  0  0  0  0  0  0  0  0  0  0
  124.4273  135.3214  162.1431 H   0  0  0  0  0  0  0  0  0  0  0  0
  126.5690  135.3656  161.3633 H   0  0  0  0  0  0  0  0  0  0  0  0
  130.6650  132.8460  160.2619 H   0  0  0  0  0  0  0  0  0  0  0  0
  131.9682  130.8734  159.5825 H   0  0  0  0  0  0  0  0  0  0  0  0
  132.0449  130.1995  157.2173 H   0  0  0  0  0  0  0  0  0  0  0  0
  130.6111  133.4180  154.3921 H   0  0  0  0  0  0  0  0  0  0  0  0
  130.6842  132.7462  152.0264 H   0  0  0  0  0  0  0  0  0  0  0  0
  130.9547  130.3763  151.4242 H   0  0  0  0  0  0  0  0  0  0  0  0
  131.1450  128.6660  153.1824 H   0  0  0  0  0  0  0  0  0  0  0  0
  131.0690  129.3193  155.5530 H   0  0  0  0  0  0  0  0  0  0  0  0
  129.5117  133.5049  156.2105 H   0  0  0  0  0  0  0  0  0  0  0  0
  1  2  1  0
  1  3  1  0
  1  4  1  0
  1  5  1  0
  5  6  1  6
  5  7  1  0
  5 16  1  0
  7  8  2  0
  7  9  1  0
  9 15  1  0
  9 10  2  0
 10 11  1  0
 10 28  1  0
 11 12  2  0
 11 29  1  0
 12 13  1  0
 12 30  1  0
 13 14  1  0
 13 15  2  0
 14 31  1  0
 15 32  1  0
 16 27  1  0
 16 17  2  0
 17 18  1  0
 17 33  1  0
 18 19  2  0
 18 34  1  0
 19 20  1  0
 19 35  1  0
 20 21  1  0
 20 27  2  0
 21 26  1  0
 21 22  2  0
 22 23  1  0
 22 36  1  0
 23 24  2  0
 23 37  1  0
 24 25  1  0
 24 38  1  0
 25 26  2  0
 25 39  1  0
 26 40  1  0
 27 41  1  0
M  CHG  1   1   1
M  END
>  <DOCK_score>  (1) 
-47.397224

>  <SMILES>  (1) 
[NH3+][C@H](C(=O)c1cccc(O)c1)c1cccc(-c2ccccc2)c1

$$$$
