Nc1ccc(-c2c[nH]c(Nc3ccc(O)c(NC(=S)N[C@@H]4CCC(=O)NC4)c3)[nH+]2)cc1
     RDKit          3D

 55 58  0  0  1  0  0  0  0  0999 V2000
  131.0474  129.2477  152.3201 N   0  0  0  0  0  0  0  0  0  0  0  0
  130.8159  130.0391  153.4478 C   0  0  0  0  0  0  0  0  0  0  0  0
  129.9631  131.1335  153.3651 C   0  0  0  0  0  0  0  0  0  0  0  0
  129.7336  131.9155  154.4774 C   0  0  0  0  0  0  0  0  0  0  0  0
  130.3575  131.6078  155.6853 C   0  0  0  0  0  0  0  0  0  0  0  0
  130.1125  132.4480  156.8832 C   0  0  0  0  0  0  0  0  0  0  0  0
  129.5820  132.0271  158.0582 C   0  0  0  0  0  0  0  0  0  0  0  0
  129.5314  133.1219  158.8875 N   0  0  0  0  0  0  0  0  0  0  0  0
  129.1993  133.1376  159.7988 H   0  0  0  0  0  0  0  0  0  0  0  0
  130.0277  134.1812  158.1919 C   0  0  0  0  0  0  0  0  0  0  0  0
  130.1456  135.4762  158.6691 N   0  0  0  0  0  0  0  0  0  0  0  0
  129.2417  135.9549  159.6250 C   0  0  0  0  0  0  0  0  0  0  0  0
  127.9429  135.4640  159.6595 C   0  0  0  0  0  0  0  0  0  0  0  0
  127.0488  135.9347  160.6024 C   0  0  0  0  0  0  0  0  0  0  0  0
  127.4457  136.8971  161.5162 C   0  0  0  0  0  0  0  0  0  0  0  0
  126.5643  137.3586  162.4444 O   0  0  0  0  0  0  0  0  0  0  0  0
  128.7474  137.3919  161.4850 C   0  0  0  0  0  0  0  0  0  0  0  0
  129.1503  138.3653  162.4085 N   0  0  0  0  0  0  0  0  0  0  0  0
  129.1028  138.1017  163.7294 C   0  0  0  0  0  0  0  0  0  0  0  0
  128.5499  136.5773  164.2786 S   0  0  0  0  0  0  0  0  0  0  0  0
  129.4904  139.0381  164.6178 N   0  0  0  0  0  0  0  0  0  0  0  0
  129.4388  138.7514  166.0536 C   0  0  2  0  0  0  0  0  0  0  0  0
  128.6324  138.0467  166.2571 H   0  0  0  0  0  0  0  0  0  0  0  0
  129.1940  140.0514  166.8293 C   0  0  0  0  0  0  0  0  0  0  0  0
  128.9631  139.7002  168.3012 C   0  0  0  0  0  0  0  0  0  0  0  0
  130.0398  138.7691  168.7795 C   0  0  0  0  0  0  0  0  0  0  0  0
  130.2035  138.6469  169.9750 O   0  0  0  0  0  0  0  0  0  0  0  0
  130.8260  138.0701  167.9601 N   0  0  0  0  0  0  0  0  0  0  0  0
  130.7723  138.1549  166.5060 C   0  0  0  0  0  0  0  0  0  0  0  0
  129.6454  136.9158  160.5418 C   0  0  0  0  0  0  0  0  0  0  0  0
  130.3787  133.7730  156.9965 N   0  0  0  0  0  0  0  0  0  0  0  0
  130.7643  134.3304  156.3026 H   0  0  0  0  0  0  0  0  0  0  0  0
  131.2166  130.5128  155.7645 C   0  0  0  0  0  0  0  0  0  0  0  0
  131.4388  129.7301  154.6512 C   0  0  0  0  0  0  0  0  0  0  0  0
  130.6124  129.4629  151.4794 H   0  0  0  0  0  0  0  0  0  0  0  0
  131.6421  128.4842  152.3766 H   0  0  0  0  0  0  0  0  0  0  0  0
  129.4801  131.3716  152.4289 H   0  0  0  0  0  0  0  0  0  0  0  0
  129.0705  132.7656  154.4128 H   0  0  0  0  0  0  0  0  0  0  0  0
  129.2611  131.0239  158.2965 H   0  0  0  0  0  0  0  0  0  0  0  0
  130.8543  136.0514  158.3410 H   0  0  0  0  0  0  0  0  0  0  0  0
  127.6312  134.7132  158.9485 H   0  0  0  0  0  0  0  0  0  0  0  0
  126.0394  135.5514  160.6270 H   0  0  0  0  0  0  0  0  0  0  0  0
  125.6868  136.9564  162.3879 H   0  0  0  0  0  0  0  0  0  0  0  0
  129.4635  139.2291  162.0974 H   0  0  0  0  0  0  0  0  0  0  0  0
  129.8037  139.9018  164.3067 H   0  0  0  0  0  0  0  0  0  0  0  0
  130.0641  140.7018  166.7394 H   0  0  0  0  0  0  0  0  0  0  0  0
  128.3149  140.5571  166.4298 H   0  0  0  0  0  0  0  0  0  0  0  0
  128.9814  140.6121  168.8981 H   0  0  0  0  0  0  0  0  0  0  0  0
  127.9926  139.2159  168.4099 H   0  0  0  0  0  0  0  0  0  0  0  0
  131.4743  137.4672  168.3566 H   0  0  0  0  0  0  0  0  0  0  0  0
  130.8826  137.1567  166.0826 H   0  0  0  0  0  0  0  0  0  0  0  0
  131.5877  138.7855  166.1516 H   0  0  0  0  0  0  0  0  0  0  0  0
  130.6564  137.2948  160.5180 H   0  0  0  0  0  0  0  0  0  0  0  0
  131.7046  130.2753  156.6982 H   0  0  0  0  0  0  0  0  0  0  0  0
  132.1005  128.8789  154.7134 H   0  0  0  0  0  0  0  0  0  0  0  0
  1  2  1  0
  1 35  1  0
  1 36  1  0
  2 34  2  0
  2  3  1  0
  3  4  2  0
  3 37  1  0
  4  5  1  0
  4 38  1  0
  5  6  1  0
  5 33  2  0
  6 31  1  0
  6  7  2  0
  7  8  1  0
  7 39  1  0
  8  9  1  0
  8 10  1  0
 10 11  1  0
 10 31  2  0
 11 12  1  0
 11 40  1  0
 12 30  1  0
 12 13  2  0
 13 14  1  0
 13 41  1  0
 14 15  2  0
 14 42  1  0
 15 16  1  0
 15 17  1  0
 16 43  1  0
 17 18  1  0
 17 30  2  0
 18 19  1  0
 18 44  1  0
 19 20  2  0
 19 21  1  0
 21 22  1  0
 21 45  1  0
 22 23  1  6
 22 29  1  0
 22 24  1  0
 24 25  1  0
 24 46  1  0
 24 47  1  0
 25 26  1  0
 25 48  1  0
 25 49  1  0
 26 27  2  0
 26 28  1  0
 28 29  1  0
 28 50  1  0
 29 51  1  0
 29 52  1  0
 30 53  1  0
 31 32  1  0
 33 34  1  0
 33 54  1  0
 34 55  1  0
M  CHG  1  31   1
M  END
>  <DOCK_score>  (1) 
-52.359695

>  <SMILES>  (1) 
Nc1ccc(-c2c[nH]c(Nc3ccc(O)c(NC(=S)N[C@@H]4CCC(=O)NC4)c3)[nH+]2)cc1

$$$$
