C/C=C/C[NH2+]Cc1c[nH]nc1-c1ccc(N[C@H]2C[C@@H](CO)C2)o1
     RDKit          3D

 48 50  0  0  1  0  0  0  0  0999 V2000
  134.8275  138.9414  160.7571 C   0  0  0  0  0  0  0  0  0  0  0  0
  133.4266  138.8543  160.2090 C   0  0  0  0  0  0  0  0  0  0  0  0
  132.4825  138.2797  160.9124 C   0  0  0  0  0  0  0  0  0  0  0  0
  131.0814  138.1926  160.3643 C   0  0  0  0  0  0  0  0  0  0  0  0
  130.9310  136.9468  159.6006 N   0  0  0  0  0  0  0  0  0  0  0  0
  131.5916  136.9379  158.8380 H   0  0  0  0  0  0  0  0  0  0  0  0
  129.9929  136.8884  159.2337 H   0  0  0  0  0  0  0  0  0  0  0  0
  131.1845  135.7988  160.4815 C   0  0  0  0  0  0  0  0  0  0  0  0
  131.0301  134.5207  159.6980 C   0  0  0  0  0  0  0  0  0  0  0  0
  132.0087  133.8760  159.0274 C   0  0  0  0  0  0  0  0  0  0  0  0
  131.4704  132.7767  158.4563 N   0  0  0  0  0  0  0  0  0  0  0  0
  131.9442  132.1281  157.9126 H   0  0  0  0  0  0  0  0  0  0  0  0
  130.1107  132.7317  158.7904 N   0  0  0  0  0  0  0  0  0  0  0  0
  129.8387  133.7819  159.5399 C   0  0  0  0  0  0  0  0  0  0  0  0
  128.5203  134.1238  160.1127 C   0  0  0  0  0  0  0  0  0  0  0  0
  127.3738  133.4118  159.9524 C   0  0  0  0  0  0  0  0  0  0  0  0
  126.3676  134.0926  160.6659 C   0  0  0  0  0  0  0  0  0  0  0  0
  126.9462  135.1879  161.2185 C   0  0  0  0  0  0  0  0  0  0  0  0
  126.3026  136.1377  162.0032 N   0  0  0  0  0  0  0  0  0  0  0  0
  127.0459  136.8553  163.0418 C   0  0  1  0  0  0  0  0  0  0  0  0
  127.8851  137.4258  162.6440 H   0  0  0  0  0  0  0  0  0  0  0  0
  126.1488  137.6626  163.9949 C   0  0  0  0  0  0  0  0  0  0  0  0
  127.0719  137.1957  165.1328 C   0  0  1  0  0  0  0  0  0  0  0  0
  127.9182  137.8596  165.3089 H   0  0  0  0  0  0  0  0  0  0  0  0
  126.3251  136.8319  166.4177 C   0  0  0  0  0  0  0  0  0  0  0  0
  127.1522  135.9956  167.2290 O   0  0  0  0  0  0  0  0  0  0  0  0
  127.4117  135.9811  164.2529 C   0  0  0  0  0  0  0  0  0  0  0  0
  128.2467  135.2000  160.8798 O   0  0  0  0  0  0  0  0  0  0  0  0
  135.2095  137.9368  160.9395 H   0  0  0  0  0  0  0  0  0  0  0  0
  135.4689  139.4486  160.0363 H   0  0  0  0  0  0  0  0  0  0  0  0
  134.8178  139.5016  161.6920 H   0  0  0  0  0  0  0  0  0  0  0  0
  133.2007  139.2656  159.2362 H   0  0  0  0  0  0  0  0  0  0  0  0
  132.7084  137.8682  161.8851 H   0  0  0  0  0  0  0  0  0  0  0  0
  130.8934  139.0444  159.7107 H   0  0  0  0  0  0  0  0  0  0  0  0
  130.3678  138.2022  161.1881 H   0  0  0  0  0  0  0  0  0  0  0  0
  130.4707  135.8084  161.3053 H   0  0  0  0  0  0  0  0  0  0  0  0
  132.1979  135.8619  160.8779 H   0  0  0  0  0  0  0  0  0  0  0  0
  133.0410  134.1861  158.9581 H   0  0  0  0  0  0  0  0  0  0  0  0
  127.2569  132.4986  159.3879 H   0  0  0  0  0  0  0  0  0  0  0  0
  125.3315  133.8003  160.7527 H   0  0  0  0  0  0  0  0  0  0  0  0
  125.3613  136.3252  161.8631 H   0  0  0  0  0  0  0  0  0  0  0  0
  126.1816  138.7379  163.8195 H   0  0  0  0  0  0  0  0  0  0  0  0
  125.1322  137.2766  164.0694 H   0  0  0  0  0  0  0  0  0  0  0  0
  126.0799  137.7417  166.9655 H   0  0  0  0  0  0  0  0  0  0  0  0
  125.4071  136.3008  166.1663 H   0  0  0  0  0  0  0  0  0  0  0  0
  127.9883  136.4047  167.4911 H   0  0  0  0  0  0  0  0  0  0  0  0
  126.7408  135.1347  164.3990 H   0  0  0  0  0  0  0  0  0  0  0  0
  128.4642  135.6991  164.2857 H   0  0  0  0  0  0  0  0  0  0  0  0
  1  2  1  0
  1 29  1  0
  1 30  1  0
  1 31  1  0
  2  3  2  0
  2 32  1  0
  3  4  1  0
  3 33  1  0
  4  5  1  0
  4 34  1  0
  4 35  1  0
  5  6  1  0
  5  7  1  0
  5  8  1  0
  8  9  1  0
  8 36  1  0
  8 37  1  0
  9 14  1  0
  9 10  2  0
 10 11  1  0
 10 38  1  0
 11 12  1  0
 11 13  1  0
 13 14  2  0
 14 15  1  0
 15 28  1  0
 15 16  2  0
 16 17  1  0
 16 39  1  0
 17 18  2  0
 17 40  1  0
 18 19  1  0
 18 28  1  0
 19 20  1  0
 19 41  1  0
 20 21  1  6
 20 27  1  0
 20 22  1  0
 22 23  1  0
 22 42  1  0
 22 43  1  0
 23 24  1  1
 23 25  1  0
 23 27  1  0
 25 26  1  0
 25 44  1  0
 25 45  1  0
 26 46  1  0
 27 47  1  0
 27 48  1  0
M  CHG  1   5   1
M  END
>  <DOCK_score>  (1) 
-41.09026

>  <SMILES>  (1) 
C/C=C/C[NH2+]Cc1c[nH]nc1-c1ccc(N[C@H]2C[C@@H](CO)C2)o1

$$$$
