Nc1ccc(-c2c[nH]c(Nc3ccc(O)c(-c4cccc5cc[nH]c45)c3)[nH+]2)cc1
     RDKit          3D

 49 53  0  0  1  0  0  0  0  0999 V2000
  131.3876  129.5270  152.0043 N   0  0  0  0  0  0  0  0  0  0  0  0
  131.0908  130.2187  153.1812 C   0  0  0  0  0  0  0  0  0  0  0  0
  130.2878  131.3526  153.1360 C   0  0  0  0  0  0  0  0  0  0  0  0
  129.9934  132.0366  154.2966 C   0  0  0  0  0  0  0  0  0  0  0  0
  130.5016  131.5904  155.5155 C   0  0  0  0  0  0  0  0  0  0  0  0
  130.1868  132.3250  156.7654 C   0  0  0  0  0  0  0  0  0  0  0  0
  129.5408  131.8209  157.8460 C   0  0  0  0  0  0  0  0  0  0  0  0
  129.4621  132.8337  158.7717 N   0  0  0  0  0  0  0  0  0  0  0  0
  129.0540  132.7791  159.6499 H   0  0  0  0  0  0  0  0  0  0  0  0
  130.0630  133.9275  158.2284 C   0  0  0  0  0  0  0  0  0  0  0  0
  130.1960  135.1627  158.8408 N   0  0  0  0  0  0  0  0  0  0  0  0
  129.2346  135.5941  159.7627 C   0  0  0  0  0  0  0  0  0  0  0  0
  127.9097  135.7372  159.3681 C   0  0  0  0  0  0  0  0  0  0  0  0
  126.9562  136.1620  160.2730 C   0  0  0  0  0  0  0  0  0  0  0  0
  127.3152  136.4436  161.5811 C   0  0  0  0  0  0  0  0  0  0  0  0
  126.3744  136.8565  162.4713 O   0  0  0  0  0  0  0  0  0  0  0  0
  128.6474  136.3074  161.9832 C   0  0  0  0  0  0  0  0  0  0  0  0
  129.0376  136.6125  163.3806 C   0  0  0  0  0  0  0  0  0  0  0  0
  129.0119  135.6139  164.3465 C   0  0  0  0  0  0  0  0  0  0  0  0
  129.3755  135.8906  165.6546 C   0  0  0  0  0  0  0  0  0  0  0  0
  129.7681  137.1599  166.0180 C   0  0  0  0  0  0  0  0  0  0  0  0
  129.8013  138.1791  165.0630 C   0  0  0  0  0  0  0  0  0  0  0  0
  130.1574  139.5998  165.1041 C   0  0  0  0  0  0  0  0  0  0  0  0
  129.9936  140.0807  163.8615 C   0  0  0  0  0  0  0  0  0  0  0  0
  129.5620  139.0839  163.0298 N   0  0  0  0  0  0  0  0  0  0  0  0
  129.3738  139.1899  162.0842 H   0  0  0  0  0  0  0  0  0  0  0  0
  129.4344  137.9093  163.7337 C   0  0  0  0  0  0  0  0  0  0  0  0
  129.6056  135.8783  161.0678 C   0  0  0  0  0  0  0  0  0  0  0  0
  130.4900  133.6206  157.0275 N   0  0  0  0  0  0  0  0  0  0  0  0
  130.9513  134.2233  156.4236 H   0  0  0  0  0  0  0  0  0  0  0  0
  131.3110  130.4561  155.5574 C   0  0  0  0  0  0  0  0  0  0  0  0
  131.5980  129.7720  154.3950 C   0  0  0  0  0  0  0  0  0  0  0  0
  131.0334  129.8388  151.1562 H   0  0  0  0  0  0  0  0  0  0  0  0
  131.9477  128.7363  152.0345 H   0  0  0  0  0  0  0  0  0  0  0  0
  129.8944  131.6983  152.1915 H   0  0  0  0  0  0  0  0  0  0  0  0
  129.3692  132.9174  154.2613 H   0  0  0  0  0  0  0  0  0  0  0  0
  129.1610  130.8161  157.9577 H   0  0  0  0  0  0  0  0  0  0  0  0
  130.9552  135.7287  158.6311 H   0  0  0  0  0  0  0  0  0  0  0  0
  127.6243  135.5153  158.3504 H   0  0  0  0  0  0  0  0  0  0  0  0
  125.9280  136.2711  159.9611 H   0  0  0  0  0  0  0  0  0  0  0  0
  125.4841  136.9237  162.0999 H   0  0  0  0  0  0  0  0  0  0  0  0
  128.7018  134.6152  164.0766 H   0  0  0  0  0  0  0  0  0  0  0  0
  129.3507  135.1050  166.3950 H   0  0  0  0  0  0  0  0  0  0  0  0
  130.0495  137.3670  167.0398 H   0  0  0  0  0  0  0  0  0  0  0  0
  130.4893  140.1543  165.9693 H   0  0  0  0  0  0  0  0  0  0  0  0
  130.1752  141.1026  163.5630 H   0  0  0  0  0  0  0  0  0  0  0  0
  130.6353  135.7676  161.3740 H   0  0  0  0  0  0  0  0  0  0  0  0
  131.7094  130.1112  156.5000 H   0  0  0  0  0  0  0  0  0  0  0  0
  132.2211  128.8904  154.4278 H   0  0  0  0  0  0  0  0  0  0  0  0
  1  2  1  0
  1 33  1  0
  1 34  1  0
  2 32  2  0
  2  3  1  0
  3  4  2  0
  3 35  1  0
  4  5  1  0
  4 36  1  0
  5  6  1  0
  5 31  2  0
  6 29  1  0
  6  7  2  0
  7  8  1  0
  7 37  1  0
  8  9  1  0
  8 10  1  0
 10 11  1  0
 10 29  2  0
 11 12  1  0
 11 38  1  0
 12 28  1  0
 12 13  2  0
 13 14  1  0
 13 39  1  0
 14 15  2  0
 14 40  1  0
 15 16  1  0
 15 17  1  0
 16 41  1  0
 17 18  1  0
 17 28  2  0
 18 27  1  0
 18 19  2  0
 19 20  1  0
 19 42  1  0
 20 21  2  0
 20 43  1  0
 21 22  1  0
 21 44  1  0
 22 27  2  0
 22 23  1  0
 23 24  2  0
 23 45  1  0
 24 25  1  0
 24 46  1  0
 25 26  1  0
 25 27  1  0
 28 47  1  0
 29 30  1  0
 31 32  1  0
 31 48  1  0
 32 49  1  0
M  CHG  1  29   1
M  END
>  <DOCK_score>  (1) 
-53.664913

>  <SMILES>  (1) 
Nc1ccc(-c2c[nH]c(Nc3ccc(O)c(-c4cccc5cc[nH]c45)c3)[nH+]2)cc1

$$$$
