O=C1CC[C@H](NC(N[C@H]2C[C@@H](Br)C2)=[NH+]C2CC2)CN1
     RDKit          3D

 41 43  0  0  1  0  0  0  0  0999 V2000
  123.8793  133.7092  162.0875 O   0  0  0  0  0  0  0  0  0  0  0  0
  125.0070  134.0555  161.8062 C   0  0  0  0  0  0  0  0  0  0  0  0
  126.0183  132.9922  161.4870 C   0  0  0  0  0  0  0  0  0  0  0  0
  127.4327  133.5679  161.5875 C   0  0  0  0  0  0  0  0  0  0  0  0
  127.4766  134.8857  160.8043 C   0  0  2  0  0  0  0  0  0  0  0  0
  127.0980  134.7240  159.7950 H   0  0  0  0  0  0  0  0  0  0  0  0
  128.8567  135.3730  160.7395 N   0  0  0  0  0  0  0  0  0  0  0  0
  129.6708  134.9952  159.6981 C   0  0  0  0  0  0  0  0  0  0  0  0
  129.1899  134.1601  158.7175 N   0  0  0  0  0  0  0  0  0  0  0  0
  130.0574  133.7577  157.6078 C   0  0  1  0  0  0  0  0  0  0  0  0
  130.4180  134.6036  157.0227 H   0  0  0  0  0  0  0  0  0  0  0  0
  131.1671  132.7752  158.0184 C   0  0  0  0  0  0  0  0  0  0  0  0
  130.8990  132.0415  156.6937 C   0  0  1  0  0  0  0  0  0  0  0  0
  131.4896  132.4184  155.8587 H   0  0  0  0  0  0  0  0  0  0  0  0
  130.9601  130.0829  156.8519 Br  0  0  0  0  0  0  0  0  0  0  0  0
  129.4754  132.6202  156.7521 C   0  0  0  0  0  0  0  0  0  0  0  0
  130.8987  135.4289  159.6402 N   0  0  0  0  0  0  0  0  0  0  0  0
  131.4731  135.1623  158.9054 H   0  0  0  0  0  0  0  0  0  0  0  0
  131.4112  136.3188  160.6851 C   0  0  0  0  0  0  0  0  0  0  0  0
  132.9286  136.3975  160.8642 C   0  0  0  0  0  0  0  0  0  0  0  0
  132.0723  135.6709  161.9033 C   0  0  0  0  0  0  0  0  0  0  0  0
  126.6021  135.9148  161.5216 C   0  0  0  0  0  0  0  0  0  0  0  0
  125.2825  135.3603  161.7962 N   0  0  0  0  0  0  0  0  0  0  0  0
  125.9114  132.1677  162.1919 H   0  0  0  0  0  0  0  0  0  0  0  0
  125.8516  132.6263  160.4739 H   0  0  0  0  0  0  0  0  0  0  0  0
  128.1485  132.8643  161.1623 H   0  0  0  0  0  0  0  0  0  0  0  0
  127.6772  133.7542  162.6332 H   0  0  0  0  0  0  0  0  0  0  0  0
  129.1960  135.9622  161.4313 H   0  0  0  0  0  0  0  0  0  0  0  0
  128.2761  133.8375  158.7604 H   0  0  0  0  0  0  0  0  0  0  0  0
  132.1556  133.2309  158.0729 H   0  0  0  0  0  0  0  0  0  0  0  0
  130.9226  132.1850  158.9016 H   0  0  0  0  0  0  0  0  0  0  0  0
  128.7686  131.9875  157.2892 H   0  0  0  0  0  0  0  0  0  0  0  0
  129.0971  132.9510  155.7848 H   0  0  0  0  0  0  0  0  0  0  0  0
  130.8367  137.2304  160.8496 H   0  0  0  0  0  0  0  0  0  0  0  0
  133.5456  135.7872  160.2047 H   0  0  0  0  0  0  0  0  0  0  0  0
  133.3528  137.3611  161.1466 H   0  0  0  0  0  0  0  0  0  0  0  0
  131.9331  136.1563  162.8692 H   0  0  0  0  0  0  0  0  0  0  0  0
  132.1259  134.5824  161.9272 H   0  0  0  0  0  0  0  0  0  0  0  0
  127.0764  136.1983  162.4612 H   0  0  0  0  0  0  0  0  0  0  0  0
  126.4976  136.7993  160.8931 H   0  0  0  0  0  0  0  0  0  0  0  0
  124.5593  135.9791  161.9831 H   0  0  0  0  0  0  0  0  0  0  0  0
  1  2  2  0
  2 23  1  0
  2  3  1  0
  3  4  1  0
  3 24  1  0
  3 25  1  0
  4  5  1  0
  4 26  1  0
  4 27  1  0
  5  6  1  6
  5  7  1  0
  5 22  1  0
  7 28  1  0
  8  7  1  0
  8  9  1  0
  8 17  2  0
  9 10  1  0
  9 29  1  0
 10 11  1  6
 10 16  1  0
 10 12  1  0
 12 13  1  0
 12 30  1  0
 12 31  1  0
 13 14  1  6
 13 15  1  0
 13 16  1  0
 16 32  1  0
 16 33  1  0
 17 18  1  0
 17 19  1  0
 19 21  1  0
 19 20  1  0
 19 34  1  0
 20 21  1  0
 20 35  1  0
 20 36  1  0
 21 37  1  0
 21 38  1  0
 22 23  1  0
 22 39  1  0
 22 40  1  0
 23 41  1  0
M  CHG  1  17   1
M  END
>  <DOCK_score>  (1) 
-42.476639

>  <SMILES>  (1) 
O=C1CC[C@H](NC(N[C@H]2C[C@@H](Br)C2)=[NH+]C2CC2)CN1

$$$$
