CC(C)n1ccc(CN(CC(=O)c2cccc3ccccc23)C(=O)c2c[nH]nc2[C@H]2CCC[NH2+]C2)n1
     RDKit          3D

 69 73  0  0  1  0  0  0  0  0999 V2000
  126.8307  136.9038  166.7059 C   0  0  0  0  0  0  0  0  0  0  0  0
  127.1577  138.3979  166.7399 C   0  0  0  0  0  0  0  0  0  0  0  0
  128.4287  138.6234  167.5613 C   0  0  0  0  0  0  0  0  0  0  0  0
  127.3667  138.8834  165.3736 N   0  0  0  0  0  0  0  0  0  0  0  0
  126.6556  139.8507  164.7573 C   0  0  0  0  0  0  0  0  0  0  0  0
  127.1631  140.0063  163.5126 C   0  0  0  0  0  0  0  0  0  0  0  0
  128.2149  139.0968  163.3600 C   0  0  0  0  0  0  0  0  0  0  0  0
  129.0618  138.9245  162.1255 C   0  0  0  0  0  0  0  0  0  0  0  0
  130.0564  137.8742  162.3585 N   0  0  0  0  0  0  0  0  0  0  0  0
  131.3683  138.2178  162.9125 C   0  0  0  0  0  0  0  0  0  0  0  0
  132.3242  138.5232  161.7882 C   0  0  0  0  0  0  0  0  0  0  0  0
  131.9084  138.9908  160.7488 O   0  0  0  0  0  0  0  0  0  0  0  0
  133.7567  138.2548  161.9503 C   0  0  0  0  0  0  0  0  0  0  0  0
  134.2148  136.9639  162.2013 C   0  0  0  0  0  0  0  0  0  0  0  0
  135.5705  136.7146  162.3546 C   0  0  0  0  0  0  0  0  0  0  0  0
  136.4987  137.7075  162.2674 C   0  0  0  0  0  0  0  0  0  0  0  0
  136.1094  139.0338  162.0156 C   0  0  0  0  0  0  0  0  0  0  0  0
  137.0565  140.0683  161.9232 C   0  0  0  0  0  0  0  0  0  0  0  0
  136.6423  141.3386  161.6594 C   0  0  0  0  0  0  0  0  0  0  0  0
  135.2907  141.6333  161.4991 C   0  0  0  0  0  0  0  0  0  0  0  0
  134.3451  140.6551  161.5891 C   0  0  0  0  0  0  0  0  0  0  0  0
  134.7363  139.3365  161.8458 C   0  0  0  0  0  0  0  0  0  0  0  0
  129.7644  136.5920  162.0631 C   0  0  0  0  0  0  0  0  0  0  0  0
  130.5899  135.7204  162.2564 O   0  0  0  0  0  0  0  0  0  0  0  0
  128.4441  136.2463  161.5056 C   0  0  0  0  0  0  0  0  0  0  0  0
  127.2197  136.4569  162.1076 C   0  0  0  0  0  0  0  0  0  0  0  0
  126.2762  135.9957  161.2713 N   0  0  0  0  0  0  0  0  0  0  0  0
  125.3196  136.0121  161.4316 H   0  0  0  0  0  0  0  0  0  0  0  0
  126.9051  135.4880  160.1291 N   0  0  0  0  0  0  0  0  0  0  0  0
  128.1953  135.6322  160.2578 C   0  0  0  0  0  0  0  0  0  0  0  0
  129.2375  135.2169  159.2517 C   0  0  1  0  0  0  0  0  0  0  0  0
  130.1001  135.8791  159.3267 H   0  0  0  0  0  0  0  0  0  0  0  0
  129.6732  133.7758  159.5318 C   0  0  0  0  0  0  0  0  0  0  0  0
  130.6733  133.3374  158.4580 C   0  0  0  0  0  0  0  0  0  0  0  0
  130.0314  133.4913  157.0775 C   0  0  0  0  0  0  0  0  0  0  0  0
  129.6612  134.8949  156.8598 N   0  0  0  0  0  0  0  0  0  0  0  0
  130.4791  135.4770  156.9611 H   0  0  0  0  0  0  0  0  0  0  0  0
  129.2864  135.0022  155.9292 H   0  0  0  0  0  0  0  0  0  0  0  0
  128.6490  135.3022  157.8417 C   0  0  0  0  0  0  0  0  0  0  0  0
  128.3398  138.4255  164.4761 N   0  0  0  0  0  0  0  0  0  0  0  0
  127.6949  136.3510  166.3374 H   0  0  0  0  0  0  0  0  0  0  0  0
  126.5831  136.5629  167.7112 H   0  0  0  0  0  0  0  0  0  0  0  0
  125.9812  136.7326  166.0447 H   0  0  0  0  0  0  0  0  0  0  0  0
  126.3296  138.9408  167.1957 H   0  0  0  0  0  0  0  0  0  0  0  0
  129.2567  138.0805  167.1055 H   0  0  0  0  0  0  0  0  0  0  0  0
  128.6615  139.6879  167.5856 H   0  0  0  0  0  0  0  0  0  0  0  0
  128.2731  138.2621  168.5779 H   0  0  0  0  0  0  0  0  0  0  0  0
  125.8318  140.4047  165.1828 H   0  0  0  0  0  0  0  0  0  0  0  0
  126.8164  140.7074  162.7680 H   0  0  0  0  0  0  0  0  0  0  0  0
  129.5696  139.8620  161.8994 H   0  0  0  0  0  0  0  0  0  0  0  0
  128.4267  138.6433  161.2854 H   0  0  0  0  0  0  0  0  0  0  0  0
  131.2733  139.0923  163.5561 H   0  0  0  0  0  0  0  0  0  0  0  0
  131.7482  137.3781  163.4944 H   0  0  0  0  0  0  0  0  0  0  0  0
  133.5085  136.1504  162.2776 H   0  0  0  0  0  0  0  0  0  0  0  0
  135.8995  135.7043  162.5490 H   0  0  0  0  0  0  0  0  0  0  0  0
  137.5453  137.4727  162.3927 H   0  0  0  0  0  0  0  0  0  0  0  0
  138.1079  139.8546  162.0462 H   0  0  0  0  0  0  0  0  0  0  0  0
  137.3722  142.1310  161.5836 H   0  0  0  0  0  0  0  0  0  0  0  0
  134.9874  142.6507  161.3006 H   0  0  0  0  0  0  0  0  0  0  0  0
  133.3000  140.8966  161.4626 H   0  0  0  0  0  0  0  0  0  0  0  0
  127.0519  136.9092  163.0739 H   0  0  0  0  0  0  0  0  0  0  0  0
  130.1448  133.7218  160.5129 H   0  0  0  0  0  0  0  0  0  0  0  0
  128.8024  133.1205  159.5081 H   0  0  0  0  0  0  0  0  0  0  0  0
  131.5658  133.9604  158.5159 H   0  0  0  0  0  0  0  0  0  0  0  0
  130.9463  132.2945  158.6190 H   0  0  0  0  0  0  0  0  0  0  0  0
  130.7407  133.1799  156.3108 H   0  0  0  0  0  0  0  0  0  0  0  0
  129.1389  132.8681  157.0209 H   0  0  0  0  0  0  0  0  0  0  0  0
  127.7861  134.6405  157.7680 H   0  0  0  0  0  0  0  0  0  0  0  0
  128.3382  136.3272  157.6396 H   0  0  0  0  0  0  0  0  0  0  0  0
  1  2  1  0
  1 41  1  0
  1 42  1  0
  1 43  1  0
  2  3  1  0
  2  4  1  0
  2 44  1  0
  3 45  1  0
  3 46  1  0
  3 47  1  0
  4 40  1  0
  4  5  1  0
  5  6  2  0
  5 48  1  0
  6  7  1  0
  6 49  1  0
  7  8  1  0
  7 40  2  0
  8  9  1  0
  8 50  1  0
  8 51  1  0
  9 10  1  0
  9 23  1  0
 10 11  1  0
 10 52  1  0
 10 53  1  0
 11 12  2  0
 11 13  1  0
 13 22  1  0
 13 14  2  0
 14 15  1  0
 14 54  1  0
 15 16  2  0
 15 55  1  0
 16 17  1  0
 16 56  1  0
 17 22  2  0
 17 18  1  0
 18 19  2  0
 18 57  1  0
 19 20  1  0
 19 58  1  0
 20 21  2  0
 20 59  1  0
 21 22  1  0
 21 60  1  0
 23 24  2  0
 23 25  1  0
 25 30  1  0
 25 26  2  0
 26 27  1  0
 26 61  1  0
 27 28  1  0
 27 29  1  0
 29 30  2  0
 30 31  1  0
 31 32  1  6
 31 39  1  0
 31 33  1  0
 33 34  1  0
 33 62  1  0
 33 63  1  0
 34 35  1  0
 34 64  1  0
 34 65  1  0
 35 36  1  0
 35 66  1  0
 35 67  1  0
 36 37  1  0
 36 38  1  0
 36 39  1  0
 39 68  1  0
 39 69  1  0
M  CHG  1  36   1
M  END
>  <DOCK_score>  (1) 
-43.565769

>  <SMILES>  (1) 
CC(C)n1ccc(CN(CC(=O)c2cccc3ccccc23)C(=O)c2c[nH]nc2[C@H]2CCC[NH2+]C2)n1

$$$$
