Cc1cccc(Sc2ccccc2N2CC[NH+](C(c3ccccc3)c3ccccc3)CC2)c1C
     RDKit          3D

 67 71  0  0  0  0  0  0  0  0999 V2000
  129.1931  141.9446  163.0601 C   0  0  0  0  0  0  0  0  0  0  0  0
  129.7459  140.5559  163.2522 C   0  0  0  0  0  0  0  0  0  0  0  0
  128.8865  139.4745  163.3266 C   0  0  0  0  0  0  0  0  0  0  0  0
  129.3893  138.1985  163.5029 C   0  0  0  0  0  0  0  0  0  0  0  0
  130.7520  137.9993  163.6057 C   0  0  0  0  0  0  0  0  0  0  0  0
  131.6183  139.0833  163.5313 C   0  0  0  0  0  0  0  0  0  0  0  0
  133.3577  138.8344  163.6626 S   0  0  0  0  0  0  0  0  0  0  0  0
  133.9635  139.4517  162.1277 C   0  0  0  0  0  0  0  0  0  0  0  0
  134.8666  140.5047  162.1088 C   0  0  0  0  0  0  0  0  0  0  0  0
  135.3402  140.9877  160.9032 C   0  0  0  0  0  0  0  0  0  0  0  0
  134.9162  140.4246  159.7135 C   0  0  0  0  0  0  0  0  0  0  0  0
  134.0210  139.3706  159.7229 C   0  0  0  0  0  0  0  0  0  0  0  0
  133.5362  138.8834  160.9271 C   0  0  0  0  0  0  0  0  0  0  0  0
  132.6253  137.8207  160.9387 N   0  0  0  0  0  0  0  0  0  0  0  0
  133.2300  136.6025  160.3819 C   0  0  0  0  0  0  0  0  0  0  0  0
  132.2241  135.4524  160.4672 C   0  0  0  0  0  0  0  0  0  0  0  0
  131.0119  135.8052  159.7164 N   0  0  0  0  0  0  0  0  0  0  0  0
  131.2533  135.9829  158.7529 H   0  0  0  0  0  0  0  0  0  0  0  0
  130.0539  134.6935  159.7836 C   0  0  0  0  0  0  0  0  0  0  0  0
  128.8102  135.0552  159.0133 C   0  0  0  0  0  0  0  0  0  0  0  0
  127.5872  134.5323  159.3900 C   0  0  0  0  0  0  0  0  0  0  0  0
  126.4456  134.8680  158.6864 C   0  0  0  0  0  0  0  0  0  0  0  0
  126.5286  135.7182  157.5996 C   0  0  0  0  0  0  0  0  0  0  0  0
  127.7523  136.2371  157.2197 C   0  0  0  0  0  0  0  0  0  0  0  0
  128.8930  135.9055  157.9266 C   0  0  0  0  0  0  0  0  0  0  0  0
  130.6749  133.4583  159.1838 C   0  0  0  0  0  0  0  0  0  0  0  0
  130.5248  133.1944  157.8352 C   0  0  0  0  0  0  0  0  0  0  0  0
  131.0986  132.0638  157.2842 C   0  0  0  0  0  0  0  0  0  0  0  0
  131.8134  131.1918  158.0838 C   0  0  0  0  0  0  0  0  0  0  0  0
  131.9589  131.4529  159.4335 C   0  0  0  0  0  0  0  0  0  0  0  0
  131.3897  132.5862  159.9834 C   0  0  0  0  0  0  0  0  0  0  0  0
  130.4059  137.0095  160.2994 C   0  0  0  0  0  0  0  0  0  0  0  0
  131.3967  138.1724  160.2126 C   0  0  0  0  0  0  0  0  0  0  0  0
  131.1090  140.3651  163.3590 C   0  0  0  0  0  0  0  0  0  0  0  0
  132.0441  141.5446  163.2836 C   0  0  0  0  0  0  0  0  0  0  0  0
  129.0003  142.3968  164.0330 H   0  0  0  0  0  0  0  0  0  0  0  0
  129.9159  142.5512  162.5143 H   0  0  0  0  0  0  0  0  0  0  0  0
  128.2631  141.8904  162.4941 H   0  0  0  0  0  0  0  0  0  0  0  0
  127.8203  139.6273  163.2473 H   0  0  0  0  0  0  0  0  0  0  0  0
  128.7154  137.3564  163.5604 H   0  0  0  0  0  0  0  0  0  0  0  0
  131.1438  137.0025  163.7440 H   0  0  0  0  0  0  0  0  0  0  0  0
  135.1994  140.9473  163.0361 H   0  0  0  0  0  0  0  0  0  0  0  0
  136.0431  141.8074  160.8904 H   0  0  0  0  0  0  0  0  0  0  0  0
  135.2886  140.8062  158.7745 H   0  0  0  0  0  0  0  0  0  0  0  0
  133.6960  138.9299  158.7921 H   0  0  0  0  0  0  0  0  0  0  0  0
  133.4991  136.7737  159.3396 H   0  0  0  0  0  0  0  0  0  0  0  0
  134.1236  136.3470  160.9514 H   0  0  0  0  0  0  0  0  0  0  0  0
  131.9656  135.2726  161.5108 H   0  0  0  0  0  0  0  0  0  0  0  0
  132.6657  134.5512  160.0418 H   0  0  0  0  0  0  0  0  0  0  0  0
  129.7935  134.5007  160.8243 H   0  0  0  0  0  0  0  0  0  0  0  0
  127.5231  133.8644  160.2364 H   0  0  0  0  0  0  0  0  0  0  0  0
  125.4897  134.4623  158.9830 H   0  0  0  0  0  0  0  0  0  0  0  0
  125.6373  135.9770  157.0472 H   0  0  0  0  0  0  0  0  0  0  0  0
  127.8171  136.9012  156.3705 H   0  0  0  0  0  0  0  0  0  0  0  0
  129.8490  136.3106  157.6296 H   0  0  0  0  0  0  0  0  0  0  0  0
  129.9626  133.8734  157.2113 H   0  0  0  0  0  0  0  0  0  0  0  0
  130.9845  131.8595  156.2298 H   0  0  0  0  0  0  0  0  0  0  0  0
  132.2579  130.3062  157.6542 H   0  0  0  0  0  0  0  0  0  0  0  0
  132.5171  130.7714  160.0583 H   0  0  0  0  0  0  0  0  0  0  0  0
  131.5031  132.7901  161.0380 H   0  0  0  0  0  0  0  0  0  0  0  0
  130.1567  136.8216  161.3438 H   0  0  0  0  0  0  0  0  0  0  0  0
  129.4994  137.2625  159.7495 H   0  0  0  0  0  0  0  0  0  0  0  0
  130.9527  139.0624  160.6587 H   0  0  0  0  0  0  0  0  0  0  0  0
  131.6355  138.3695  159.1676 H   0  0  0  0  0  0  0  0  0  0  0  0
  132.3299  141.7158  162.2458 H   0  0  0  0  0  0  0  0  0  0  0  0
  131.5433  142.4308  163.6736 H   0  0  0  0  0  0  0  0  0  0  0  0
  132.9354  141.3402  163.8768 H   0  0  0  0  0  0  0  0  0  0  0  0
  1  2  1  0
  1 36  1  0
  1 37  1  0
  1 38  1  0
  2 34  2  0
  2  3  1  0
  3  4  2  0
  3 39  1  0
  4  5  1  0
  4 40  1  0
  5  6  2  0
  5 41  1  0
  6  7  1  0
  6 34  1  0
  7  8  1  0
  8 13  1  0
  8  9  2  0
  9 10  1  0
  9 42  1  0
 10 11  2  0
 10 43  1  0
 11 12  1  0
 11 44  1  0
 12 13  2  0
 12 45  1  0
 13 14  1  0
 14 33  1  0
 14 15  1  0
 15 16  1  0
 15 46  1  0
 15 47  1  0
 16 17  1  0
 16 48  1  0
 16 49  1  0
 17 18  1  0
 17 19  1  0
 17 32  1  0
 19 20  1  0
 19 26  1  0
 19 50  1  0
 20 25  1  0
 20 21  2  0
 21 22  1  0
 21 51  1  0
 22 23  2  0
 22 52  1  0
 23 24  1  0
 23 53  1  0
 24 25  2  0
 24 54  1  0
 25 55  1  0
 26 31  1  0
 26 27  2  0
 27 28  1  0
 27 56  1  0
 28 29  2  0
 28 57  1  0
 29 30  1  0
 29 58  1  0
 30 31  2  0
 30 59  1  0
 31 60  1  0
 32 33  1  0
 32 61  1  0
 32 62  1  0
 33 63  1  0
 33 64  1  0
 34 35  1  0
 35 65  1  0
 35 66  1  0
 35 67  1  0
M  CHG  1  17   1
M  END
>  <DOCK_score>  (1) 
-57.932598

>  <SMILES>  (1) 
Cc1cccc(Sc2ccccc2N2CC[NH+](C(c3ccccc3)c3ccccc3)CC2)c1C

$$$$
