Nc1ccc(-c2c[nH]c(N[C@@H](C3=Cc4ccccc4C3)c3nccnc3-c3ccc(N)cc3)[nH+]2)cc1
     RDKit          3D

 62 67  0  0  1  0  0  0  0  0999 V2000
  131.5644  129.7239  151.9571 N   0  0  0  0  0  0  0  0  0  0  0  0
  131.2889  130.3924  153.1524 C   0  0  0  0  0  0  0  0  0  0  0  0
  130.8734  131.7185  153.1259 C   0  0  0  0  0  0  0  0  0  0  0  0
  130.6013  132.3805  154.3044 C   0  0  0  0  0  0  0  0  0  0  0  0
  130.7428  131.7187  155.5231 C   0  0  0  0  0  0  0  0  0  0  0  0
  130.4513  132.4290  156.7925 C   0  0  0  0  0  0  0  0  0  0  0  0
  129.9862  131.8644  157.9341 C   0  0  0  0  0  0  0  0  0  0  0  0
  129.8582  132.8763  158.8560 N   0  0  0  0  0  0  0  0  0  0  0  0
  129.5466  132.7849  159.7700 H   0  0  0  0  0  0  0  0  0  0  0  0
  130.2494  134.0297  158.2490 C   0  0  0  0  0  0  0  0  0  0  0  0
  130.2704  135.2830  158.8367 N   0  0  0  0  0  0  0  0  0  0  0  0
  129.8467  135.4462  160.2296 C   0  0  1  0  0  0  0  0  0  0  0  0
  130.2168  134.6096  160.8223 H   0  0  0  0  0  0  0  0  0  0  0  0
  130.4041  136.7350  160.7767 C   0  0  0  0  0  0  0  0  0  0  0  0
  129.8126  137.9159  160.7299 C   0  0  0  0  0  0  0  0  0  0  0  0
  130.6487  138.9529  161.3623 C   0  0  0  0  0  0  0  0  0  0  0  0
  130.4527  140.3234  161.5509 C   0  0  0  0  0  0  0  0  0  0  0  0
  131.4157  141.0738  162.1923 C   0  0  0  0  0  0  0  0  0  0  0  0
  132.5816  140.4792  162.6413 C   0  0  0  0  0  0  0  0  0  0  0  0
  132.7842  139.1217  162.4584 C   0  0  0  0  0  0  0  0  0  0  0  0
  131.8271  138.3639  161.8246 C   0  0  0  0  0  0  0  0  0  0  0  0
  131.7351  136.8992  161.4724 C   0  0  0  0  0  0  0  0  0  0  0  0
  128.3416  135.4817  160.2958 C   0  0  0  0  0  0  0  0  0  0  0  0
  127.6282  135.3719  159.1910 N   0  0  0  0  0  0  0  0  0  0  0  0
  126.3077  135.4026  159.2484 C   0  0  0  0  0  0  0  0  0  0  0  0
  125.6663  135.5494  160.4661 C   0  0  0  0  0  0  0  0  0  0  0  0
  126.3708  135.6604  161.5772 N   0  0  0  0  0  0  0  0  0  0  0  0
  127.6992  135.6250  161.5262 C   0  0  0  0  0  0  0  0  0  0  0  0
  128.4948  135.7432  162.7713 C   0  0  0  0  0  0  0  0  0  0  0  0
  128.3841  136.8844  163.5650 C   0  0  0  0  0  0  0  0  0  0  0  0
  129.1208  136.9899  164.7250 C   0  0  0  0  0  0  0  0  0  0  0  0
  129.9823  135.9642  165.0983 C   0  0  0  0  0  0  0  0  0  0  0  0
  130.7309  136.0755  166.2697 N   0  0  0  0  0  0  0  0  0  0  0  0
  130.0983  134.8277  164.3055 C   0  0  0  0  0  0  0  0  0  0  0  0
  129.3596  134.7158  163.1476 C   0  0  0  0  0  0  0  0  0  0  0  0
  130.5976  133.7593  157.0146 N   0  0  0  0  0  0  0  0  0  0  0  0
  130.9118  134.4068  156.3644 H   0  0  0  0  0  0  0  0  0  0  0  0
  131.1643  130.3902  155.5476 C   0  0  0  0  0  0  0  0  0  0  0  0
  131.4302  129.7305  154.3662 C   0  0  0  0  0  0  0  0  0  0  0  0
  131.4656  130.1850  151.1095 H   0  0  0  0  0  0  0  0  0  0  0  0
  131.8543  128.7984  151.9747 H   0  0  0  0  0  0  0  0  0  0  0  0
  130.7639  132.2308  152.1814 H   0  0  0  0  0  0  0  0  0  0  0  0
  130.2785  133.4110  154.2833 H   0  0  0  0  0  0  0  0  0  0  0  0
  129.7591  130.8200  158.0893 H   0  0  0  0  0  0  0  0  0  0  0  0
  130.5657  136.0531  158.3263 H   0  0  0  0  0  0  0  0  0  0  0  0
  128.8448  138.0976  160.2863 H   0  0  0  0  0  0  0  0  0  0  0  0
  129.5462  140.7935  161.1988 H   0  0  0  0  0  0  0  0  0  0  0  0
  131.2606  142.1321  162.3414 H   0  0  0  0  0  0  0  0  0  0  0  0
  133.3330  141.0742  163.1391 H   0  0  0  0  0  0  0  0  0  0  0  0
  133.6927  138.6583  162.8133 H   0  0  0  0  0  0  0  0  0  0  0  0
  132.5480  136.6206  160.8019 H   0  0  0  0  0  0  0  0  0  0  0  0
  131.7656  136.2912  162.3766 H   0  0  0  0  0  0  0  0  0  0  0  0
  125.7274  135.3124  158.3420 H   0  0  0  0  0  0  0  0  0  0  0  0
  124.5873  135.5734  160.5073 H   0  0  0  0  0  0  0  0  0  0  0  0
  127.7186  137.6834  163.2729 H   0  0  0  0  0  0  0  0  0  0  0  0
  129.0322  137.8718  165.3421 H   0  0  0  0  0  0  0  0  0  0  0  0
  131.3318  135.3603  166.5311 H   0  0  0  0  0  0  0  0  0  0  0  0
  130.6505  136.8680  166.8234 H   0  0  0  0  0  0  0  0  0  0  0  0
  130.7680  134.0323  164.5974 H   0  0  0  0  0  0  0  0  0  0  0  0
  129.4499  133.8328  162.5322 H   0  0  0  0  0  0  0  0  0  0  0  0
  131.2786  129.8767  156.4909 H   0  0  0  0  0  0  0  0  0  0  0  0
  131.7528  128.6999  154.3845 H   0  0  0  0  0  0  0  0  0  0  0  0
  1  2  1  0
  1 40  1  0
  1 41  1  0
  2 39  2  0
  2  3  1  0
  3  4  2  0
  3 42  1  0
  4  5  1  0
  4 43  1  0
  5  6  1  0
  5 38  2  0
  6 36  1  0
  6  7  2  0
  7  8  1  0
  7 44  1  0
  8  9  1  0
  8 10  1  0
 10 11  1  0
 10 36  2  0
 11 12  1  0
 11 45  1  0
 12 13  1  1
 12 14  1  0
 12 23  1  0
 14 22  1  0
 14 15  2  0
 15 16  1  0
 15 46  1  0
 16 21  2  0
 16 17  1  0
 17 18  2  0
 17 47  1  0
 18 19  1  0
 18 48  1  0
 19 20  2  0
 19 49  1  0
 20 21  1  0
 20 50  1  0
 21 22  1  0
 22 51  1  0
 22 52  1  0
 23 28  1  0
 23 24  2  0
 24 25  1  0
 25 26  2  0
 25 53  1  0
 26 27  1  0
 26 54  1  0
 27 28  2  0
 28 29  1  0
 29 35  1  0
 29 30  2  0
 30 31  1  0
 30 55  1  0
 31 32  2  0
 31 56  1  0
 32 33  1  0
 32 34  1  0
 33 57  1  0
 33 58  1  0
 34 35  2  0
 34 59  1  0
 35 60  1  0
 36 37  1  0
 38 39  1  0
 38 61  1  0
 39 62  1  0
M  CHG  1  36   1
M  END
>  <DOCK_score>  (1) 
-58.28688

>  <SMILES>  (1) 
Nc1ccc(-c2c[nH]c(N[C@@H](C3=Cc4ccccc4C3)c3nccnc3-c3ccc(N)cc3)[nH+]2)cc1

$$$$
