C[C@@](O)(C1=CCC1)C(Nc1[nH]cc(-c2cccnc2)[nH+]1)c1ccccc1
     RDKit          3D

 49 52  0  0  1  0  0  0  0  0999 V2000
  129.8163  137.9691  162.1304 C   0  0  0  0  0  0  0  0  0  0  0  0
  130.3976  137.5220  160.7876 C   0  0  1  0  0  0  0  0  0  0  0  0
  129.8296  138.3073  159.7375 O   0  0  0  0  0  0  0  0  0  0  0  0
  131.8930  137.7074  160.8009 C   0  0  0  0  0  0  0  0  0  0  0  0
  132.7019  138.4121  160.0700 C   0  0  0  0  0  0  0  0  0  0  0  0
  133.9307  137.9721  160.8058 C   0  0  0  0  0  0  0  0  0  0  0  0
  132.9812  137.1499  161.6670 C   0  0  0  0  0  0  0  0  0  0  0  0
  130.0687  136.0458  160.5556 C   0  0  2  0  0  0  0  0  0  0  0  0
  130.6253  135.6178  159.2699 N   0  0  0  0  0  0  0  0  0  0  0  0
  130.4540  134.3125  158.8415 C   0  0  0  0  0  0  0  0  0  0  0  0
  129.7866  133.3377  159.5171 N   0  0  0  0  0  0  0  0  0  0  0  0
  129.3488  133.4316  160.3775 H   0  0  0  0  0  0  0  0  0  0  0  0
  129.8466  132.1962  158.7551 C   0  0  0  0  0  0  0  0  0  0  0  0
  130.5485  132.5060  157.6369 C   0  0  0  0  0  0  0  0  0  0  0  0
  130.8677  131.5808  156.5222 C   0  0  0  0  0  0  0  0  0  0  0  0
  131.0083  132.0624  155.2174 C   0  0  0  0  0  0  0  0  0  0  0  0
  131.3111  131.1591  154.2134 C   0  0  0  0  0  0  0  0  0  0  0  0
  131.4533  129.8197  154.5287 C   0  0  0  0  0  0  0  0  0  0  0  0
  131.3097  129.3940  155.7686 N   0  0  0  0  0  0  0  0  0  0  0  0
  131.0266  130.2167  156.7579 C   0  0  0  0  0  0  0  0  0  0  0  0
  130.9031  133.8132  157.7159 N   0  0  0  0  0  0  0  0  0  0  0  0
  131.4101  134.2999  157.0475 H   0  0  0  0  0  0  0  0  0  0  0  0
  128.5733  135.8604  160.5423 C   0  0  0  0  0  0  0  0  0  0  0  0
  127.9008  135.5814  161.7173 C   0  0  0  0  0  0  0  0  0  0  0  0
  126.5283  135.4160  161.7057 C   0  0  0  0  0  0  0  0  0  0  0  0
  125.8297  135.5197  160.5174 C   0  0  0  0  0  0  0  0  0  0  0  0
  126.5029  135.7937  159.3415 C   0  0  0  0  0  0  0  0  0  0  0  0
  127.8746  135.9640  159.3539 C   0  0  0  0  0  0  0  0  0  0  0  0
  130.0505  139.0208  162.2957 H   0  0  0  0  0  0  0  0  0  0  0  0
  128.7345  137.8349  162.1207 H   0  0  0  0  0  0  0  0  0  0  0  0
  130.2495  137.3700  162.9314 H   0  0  0  0  0  0  0  0  0  0  0  0
  130.1536  138.0780  158.8557 H   0  0  0  0  0  0  0  0  0  0  0  0
  132.5456  139.0766  159.2330 H   0  0  0  0  0  0  0  0  0  0  0  0
  134.6144  137.3739  160.2035 H   0  0  0  0  0  0  0  0  0  0  0  0
  134.4309  138.7748  161.3476 H   0  0  0  0  0  0  0  0  0  0  0  0
  132.9308  137.4794  162.7048 H   0  0  0  0  0  0  0  0  0  0  0  0
  133.1161  136.0729  161.5664 H   0  0  0  0  0  0  0  0  0  0  0  0
  130.5020  135.4469  161.3566 H   0  0  0  0  0  0  0  0  0  0  0  0
  131.1139  136.2489  158.7186 H   0  0  0  0  0  0  0  0  0  0  0  0
  129.4167  131.2361  158.9995 H   0  0  0  0  0  0  0  0  0  0  0  0
  130.8876  133.1132  154.9990 H   0  0  0  0  0  0  0  0  0  0  0  0
  131.4306  131.4958  153.1943 H   0  0  0  0  0  0  0  0  0  0  0  0
  131.6858  129.1115  153.7470 H   0  0  0  0  0  0  0  0  0  0  0  0
  130.9172  129.8304  157.7605 H   0  0  0  0  0  0  0  0  0  0  0  0
  128.4471  135.4960  162.6450 H   0  0  0  0  0  0  0  0  0  0  0  0
  126.0024  135.2017  162.6243 H   0  0  0  0  0  0  0  0  0  0  0  0
  124.7581  135.3862  160.5076 H   0  0  0  0  0  0  0  0  0  0  0  0
  125.9571  135.8741  158.4130 H   0  0  0  0  0  0  0  0  0  0  0  0
  128.4006  136.1777  158.4351 H   0  0  0  0  0  0  0  0  0  0  0  0
  1  2  1  0
  1 29  1  0
  1 30  1  0
  1 31  1  0
  2  3  1  6
  2  4  1  0
  2  8  1  0
  3 32  1  0
  4  7  1  0
  4  5  2  0
  5  6  1  0
  5 33  1  0
  6  7  1  0
  6 34  1  0
  6 35  1  0
  7 36  1  0
  7 37  1  0
  8  9  1  0
  8 23  1  0
  8 38  1  1
  9 39  1  0
 10  9  1  0
 10 21  2  0
 10 11  1  0
 11 12  1  0
 11 13  1  0
 13 14  2  0
 13 40  1  0
 14 15  1  0
 14 21  1  0
 15 20  1  0
 15 16  2  0
 16 17  1  0
 16 41  1  0
 17 18  2  0
 17 42  1  0
 18 19  1  0
 18 43  1  0
 19 20  2  0
 20 44  1  0
 21 22  1  0
 23 28  1  0
 23 24  2  0
 24 25  1  0
 24 45  1  0
 25 26  2  0
 25 46  1  0
 26 27  1  0
 26 47  1  0
 27 28  2  0
 27 48  1  0
 28 49  1  0
M  CHG  1  21   1
M  END
>  <DOCK_score>  (1) 
-58.156532

>  <SMILES>  (1) 
C[C@@](O)(C1=CCC1)C(Nc1[nH]cc(-c2cccnc2)[nH+]1)c1ccccc1

$$$$
