CC(C)OC(=O)/C=C/[C@H](Nc1[nH]cc(-c2ccc(N)cc2)[nH+]1)c1ccccc1
     RDKit          3D

 53 55  0  0  1  0  0  0  0  0999 V2000
  131.5089  139.7206  165.1085 C   0  0  0  0  0  0  0  0  0  0  0  0
  131.4417  139.7296  163.5801 C   0  0  0  0  0  0  0  0  0  0  0  0
  132.7886  140.1822  163.0129 C   0  0  0  0  0  0  0  0  0  0  0  0
  131.1396  138.3924  163.1012 O   0  0  0  0  0  0  0  0  0  0  0  0
  130.4532  138.2971  161.9450 C   0  0  0  0  0  0  0  0  0  0  0  0
  130.1163  139.3038  161.3534 O   0  0  0  0  0  0  0  0  0  0  0  0
  130.1121  136.9757  161.3998 C   0  0  0  0  0  0  0  0  0  0  0  0
  129.4344  136.8814  160.2584 C   0  0  0  0  0  0  0  0  0  0  0  0
  129.0846  135.5265  159.6994 C   0  0  2  0  0  0  0  0  0  0  0  0
  128.9624  134.8165  160.5174 H   0  0  0  0  0  0  0  0  0  0  0  0
  130.1595  135.0711  158.8142 N   0  0  0  0  0  0  0  0  0  0  0  0
  130.0612  133.8443  158.1804 C   0  0  0  0  0  0  0  0  0  0  0  0
  129.4046  132.7538  158.6616 N   0  0  0  0  0  0  0  0  0  0  0  0
  128.9229  132.6977  159.5016 H   0  0  0  0  0  0  0  0  0  0  0  0
  129.5452  131.7486  157.7344 C   0  0  0  0  0  0  0  0  0  0  0  0
  130.2829  132.2541  156.7152 C   0  0  0  0  0  0  0  0  0  0  0  0
  130.6887  131.5274  155.4871 C   0  0  0  0  0  0  0  0  0  0  0  0
  130.2861  131.9918  154.2360 C   0  0  0  0  0  0  0  0  0  0  0  0
  130.6696  131.3183  153.0955 C   0  0  0  0  0  0  0  0  0  0  0  0
  131.4466  130.1701  153.1935 C   0  0  0  0  0  0  0  0  0  0  0  0
  131.8288  129.4857  152.0371 N   0  0  0  0  0  0  0  0  0  0  0  0
  131.8446  129.7020  154.4401 C   0  0  0  0  0  0  0  0  0  0  0  0
  131.4685  130.3759  155.5829 C   0  0  0  0  0  0  0  0  0  0  0  0
  130.5846  133.5417  157.0172 N   0  0  0  0  0  0  0  0  0  0  0  0
  131.1047  134.1427  156.4612 H   0  0  0  0  0  0  0  0  0  0  0  0
  127.7984  135.6213  158.9201 C   0  0  0  0  0  0  0  0  0  0  0  0
  126.5886  135.4097  159.5544 C   0  0  0  0  0  0  0  0  0  0  0  0
  125.4084  135.5005  158.8402 C   0  0  0  0  0  0  0  0  0  0  0  0
  125.4386  135.7950  157.4899 C   0  0  0  0  0  0  0  0  0  0  0  0
  126.6487  136.0014  156.8544 C   0  0  0  0  0  0  0  0  0  0  0  0
  127.8286  135.9145  157.5694 C   0  0  0  0  0  0  0  0  0  0  0  0
  130.5493  139.3981  165.5126 H   0  0  0  0  0  0  0  0  0  0  0  0
  132.2898  139.0332  165.4339 H   0  0  0  0  0  0  0  0  0  0  0  0
  131.7357  140.7244  165.4681 H   0  0  0  0  0  0  0  0  0  0  0  0
  130.6609  140.4170  163.2547 H   0  0  0  0  0  0  0  0  0  0  0  0
  132.7407  140.1886  161.9240 H   0  0  0  0  0  0  0  0  0  0  0  0
  133.0153  141.1860  163.3725 H   0  0  0  0  0  0  0  0  0  0  0  0
  133.5694  139.4947  163.3383 H   0  0  0  0  0  0  0  0  0  0  0  0
  130.4114  136.0810  161.9256 H   0  0  0  0  0  0  0  0  0  0  0  0
  129.1351  137.7762  159.7327 H   0  0  0  0  0  0  0  0  0  0  0  0
  130.9400  135.6292  158.6722 H   0  0  0  0  0  0  0  0  0  0  0  0
  129.1445  130.7481  157.8042 H   0  0  0  0  0  0  0  0  0  0  0  0
  129.6778  132.8810  154.1598 H   0  0  0  0  0  0  0  0  0  0  0  0
  130.3618  131.6804  152.1257 H   0  0  0  0  0  0  0  0  0  0  0  0
  132.3716  128.6848  152.1045 H   0  0  0  0  0  0  0  0  0  0  0  0
  131.5516  129.8121  151.1665 H   0  0  0  0  0  0  0  0  0  0  0  0
  132.4485  128.8096  154.5139 H   0  0  0  0  0  0  0  0  0  0  0  0
  131.7783  130.0120  156.5515 H   0  0  0  0  0  0  0  0  0  0  0  0
  126.5652  135.1763  160.6086 H   0  0  0  0  0  0  0  0  0  0  0  0
  124.4630  135.3388  159.3367 H   0  0  0  0  0  0  0  0  0  0  0  0
  124.5168  135.8634  156.9315 H   0  0  0  0  0  0  0  0  0  0  0  0
  126.6724  136.2312  155.7994 H   0  0  0  0  0  0  0  0  0  0  0  0
  128.7740  136.0756  157.0728 H   0  0  0  0  0  0  0  0  0  0  0  0
  1  2  1  0
  1 32  1  0
  1 33  1  0
  1 34  1  0
  2  3  1  0
  2  4  1  0
  2 35  1  0
  3 36  1  0
  3 37  1  0
  3 38  1  0
  4  5  1  0
  5  6  2  0
  5  7  1  0
  7  8  2  0
  7 39  1  0
  8  9  1  0
  8 40  1  0
  9 10  1  1
  9 11  1  0
  9 26  1  0
 11 41  1  0
 12 11  1  0
 12 24  2  0
 12 13  1  0
 13 14  1  0
 13 15  1  0
 15 16  2  0
 15 42  1  0
 16 17  1  0
 16 24  1  0
 17 23  1  0
 17 18  2  0
 18 19  1  0
 18 43  1  0
 19 20  2  0
 19 44  1  0
 20 21  1  0
 20 22  1  0
 21 45  1  0
 21 46  1  0
 22 23  2  0
 22 47  1  0
 23 48  1  0
 24 25  1  0
 26 31  1  0
 26 27  2  0
 27 28  1  0
 27 49  1  0
 28 29  2  0
 28 50  1  0
 29 30  1  0
 29 51  1  0
 30 31  2  0
 30 52  1  0
 31 53  1  0
M  CHG  1  24   1
M  END
>  <DOCK_score>  (1) 
-59.240055

>  <SMILES>  (1) 
CC(C)OC(=O)/C=C/[C@H](Nc1[nH]cc(-c2ccc(N)cc2)[nH+]1)c1ccccc1

$$$$
