Cc1cccc(Sc2ccc(-c3cc(Cl)ccc3Nc3[nH]cc(-c4ccccc4)[nH+]3)cc2)c1
     RDKit          3D

 56 60  0  0  1  0  0  0  0  0999 V2000
  134.9405  140.3432  165.6708 C   0  0  0  0  0  0  0  0  0  0  0  0
  135.5414  140.7714  164.3568 C   0  0  0  0  0  0  0  0  0  0  0  0
  136.2496  141.9561  164.2750 C   0  0  0  0  0  0  0  0  0  0  0  0
  136.8025  142.3537  163.0708 C   0  0  0  0  0  0  0  0  0  0  0  0
  136.6484  141.5677  161.9457 C   0  0  0  0  0  0  0  0  0  0  0  0
  135.9375  140.3764  162.0245 C   0  0  0  0  0  0  0  0  0  0  0  0
  135.7378  139.3708  160.5916 S   0  0  0  0  0  0  0  0  0  0  0  0
  134.1875  138.5821  160.8738 C   0  0  0  0  0  0  0  0  0  0  0  0
  133.0367  139.3477  161.0266 C   0  0  0  0  0  0  0  0  0  0  0  0
  131.8222  138.7325  161.2418 C   0  0  0  0  0  0  0  0  0  0  0  0
  131.7488  137.3416  161.3116 C   0  0  0  0  0  0  0  0  0  0  0  0
  130.4436  136.6778  161.5435 C   0  0  0  0  0  0  0  0  0  0  0  0
  129.7157  136.9499  162.6996 C   0  0  0  0  0  0  0  0  0  0  0  0
  128.5000  136.3293  162.9108 C   0  0  0  0  0  0  0  0  0  0  0  0
  127.5945  136.6692  164.3524 Cl  0  0  0  0  0  0  0  0  0  0  0  0
  128.0007  135.4364  161.9769 C   0  0  0  0  0  0  0  0  0  0  0  0
  128.7138  135.1592  160.8265 C   0  0  0  0  0  0  0  0  0  0  0  0
  129.9341  135.7790  160.5989 C   0  0  0  0  0  0  0  0  0  0  0  0
  130.6535  135.5039  159.4337 N   0  0  0  0  0  0  0  0  0  0  0  0
  130.5419  134.2635  158.8274 C   0  0  0  0  0  0  0  0  0  0  0  0
  130.2915  133.0881  159.4667 N   0  0  0  0  0  0  0  0  0  0  0  0
  130.1604  132.9693  160.4204 H   0  0  0  0  0  0  0  0  0  0  0  0
  130.2563  132.1018  158.5118 C   0  0  0  0  0  0  0  0  0  0  0  0
  130.4943  132.7006  157.3183 C   0  0  0  0  0  0  0  0  0  0  0  0
  130.5558  132.0245  155.9995 C   0  0  0  0  0  0  0  0  0  0  0  0
  130.1829  132.7094  154.8443 C   0  0  0  0  0  0  0  0  0  0  0  0
  130.2476  132.0773  153.6192 C   0  0  0  0  0  0  0  0  0  0  0  0
  130.6705  130.7629  153.5377 C   0  0  0  0  0  0  0  0  0  0  0  0
  131.0362  130.0762  154.6818 C   0  0  0  0  0  0  0  0  0  0  0  0
  130.9814  130.7003  155.9115 C   0  0  0  0  0  0  0  0  0  0  0  0
  130.6656  134.0270  157.5441 N   0  0  0  0  0  0  0  0  0  0  0  0
  130.8503  134.6939  156.8644 H   0  0  0  0  0  0  0  0  0  0  0  0
  132.9050  136.5761  161.1633 C   0  0  0  0  0  0  0  0  0  0  0  0
  134.1175  137.1952  160.9483 C   0  0  0  0  0  0  0  0  0  0  0  0
  135.3792  139.9830  163.2351 C   0  0  0  0  0  0  0  0  0  0  0  0
  133.9295  140.7417  165.7551 H   0  0  0  0  0  0  0  0  0  0  0  0
  134.9074  139.2547  165.7177 H   0  0  0  0  0  0  0  0  0  0  0  0
  135.5504  140.7237  166.4904 H   0  0  0  0  0  0  0  0  0  0  0  0
  136.3717  142.5726  165.1533 H   0  0  0  0  0  0  0  0  0  0  0  0
  137.3549  143.2798  163.0102 H   0  0  0  0  0  0  0  0  0  0  0  0
  137.0796  141.8788  161.0057 H   0  0  0  0  0  0  0  0  0  0  0  0
  133.0938  140.4248  160.9722 H   0  0  0  0  0  0  0  0  0  0  0  0
  130.9280  139.3273  161.3567 H   0  0  0  0  0  0  0  0  0  0  0  0
  130.1014  137.6458  163.4300 H   0  0  0  0  0  0  0  0  0  0  0  0
  127.0495  134.9550  162.1487 H   0  0  0  0  0  0  0  0  0  0  0  0
  128.3190  134.4625  160.1019 H   0  0  0  0  0  0  0  0  0  0  0  0
  131.2313  136.1816  159.0490 H   0  0  0  0  0  0  0  0  0  0  0  0
  130.0774  131.0500  158.6796 H   0  0  0  0  0  0  0  0  0  0  0  0
  129.8481  133.7343  154.9072 H   0  0  0  0  0  0  0  0  0  0  0  0
  129.9638  132.6086  152.7228 H   0  0  0  0  0  0  0  0  0  0  0  0
  130.7152  130.2707  152.5775 H   0  0  0  0  0  0  0  0  0  0  0  0
  131.3658  129.0500  154.6124 H   0  0  0  0  0  0  0  0  0  0  0  0
  131.2680  130.1637  156.8038 H   0  0  0  0  0  0  0  0  0  0  0  0
  132.8504  135.4988  161.2174 H   0  0  0  0  0  0  0  0  0  0  0  0
  135.0131  136.6026  160.8335 H   0  0  0  0  0  0  0  0  0  0  0  0
  134.8223  139.0600  163.2990 H   0  0  0  0  0  0  0  0  0  0  0  0
  1  2  1  0
  1 36  1  0
  1 37  1  0
  1 38  1  0
  2 35  2  0
  2  3  1  0
  3  4  2  0
  3 39  1  0
  4  5  1  0
  4 40  1  0
  5  6  2  0
  5 41  1  0
  6  7  1  0
  6 35  1  0
  7  8  1  0
  8 34  1  0
  8  9  2  0
  9 10  1  0
  9 42  1  0
 10 11  2  0
 10 43  1  0
 11 12  1  0
 11 33  1  0
 12 18  1  0
 12 13  2  0
 13 14  1  0
 13 44  1  0
 14 15  1  0
 14 16  2  0
 16 17  1  0
 16 45  1  0
 17 18  2  0
 17 46  1  0
 18 19  1  0
 19 47  1  0
 20 19  1  0
 20 31  2  0
 20 21  1  0
 21 22  1  0
 21 23  1  0
 23 24  2  0
 23 48  1  0
 24 25  1  0
 24 31  1  0
 25 30  1  0
 25 26  2  0
 26 27  1  0
 26 49  1  0
 27 28  2  0
 27 50  1  0
 28 29  1  0
 28 51  1  0
 29 30  2  0
 29 52  1  0
 30 53  1  0
 31 32  1  0
 33 34  2  0
 33 54  1  0
 34 55  1  0
 35 56  1  0
M  CHG  1  31   1
M  END
>  <DOCK_score>  (1) 
-57.81813

>  <SMILES>  (1) 
Cc1cccc(Sc2ccc(-c3cc(Cl)ccc3Nc3[nH]cc(-c4ccccc4)[nH+]3)cc2)c1

$$$$
