COc1cccc(N2CC[NH+](C(c3ccccc3)c3ccccc3)CC2)c1CC1=CCC=CC1
     RDKit          3D

 69 73  0  0  1  0  0  0  0  0999 V2000
  135.7912  141.6639  163.1480 C   0  0  0  0  0  0  0  0  0  0  0  0
  136.3518  140.4272  162.7027 O   0  0  0  0  0  0  0  0  0  0  0  0
  135.7636  139.8337  161.6309 C   0  0  0  0  0  0  0  0  0  0  0  0
  136.2005  140.1294  160.3469 C   0  0  0  0  0  0  0  0  0  0  0  0
  135.6040  139.5265  159.2561 C   0  0  0  0  0  0  0  0  0  0  0  0
  134.5709  138.6277  159.4394 C   0  0  0  0  0  0  0  0  0  0  0  0
  134.1256  138.3322  160.7218 C   0  0  0  0  0  0  0  0  0  0  0  0
  133.0775  137.4278  160.9072 N   0  0  0  0  0  0  0  0  0  0  0  0
  133.4528  136.0846  160.4434 C   0  0  0  0  0  0  0  0  0  0  0  0
  132.3023  135.1135  160.7181 C   0  0  0  0  0  0  0  0  0  0  0  0
  131.0959  135.5729  160.0174 N   0  0  0  0  0  0  0  0  0  0  0  0
  131.2799  135.6198  159.0265 H   0  0  0  0  0  0  0  0  0  0  0  0
  129.9965  134.6308  160.2666 C   0  0  0  0  0  0  0  0  0  0  0  0
  128.7586  135.1019  159.5478 C   0  0  0  0  0  0  0  0  0  0  0  0
  127.5085  134.8087  160.0595 C   0  0  0  0  0  0  0  0  0  0  0  0
  126.3731  135.2450  159.4028 C   0  0  0  0  0  0  0  0  0  0  0  0
  126.4873  135.9657  158.2294 C   0  0  0  0  0  0  0  0  0  0  0  0
  127.7377  136.2546  157.7144 C   0  0  0  0  0  0  0  0  0  0  0  0
  128.8732  135.8227  158.3738 C   0  0  0  0  0  0  0  0  0  0  0  0
  130.3818  133.2645  159.7611 C   0  0  0  0  0  0  0  0  0  0  0  0
  129.8807  132.1329  160.3771 C   0  0  0  0  0  0  0  0  0  0  0  0
  130.2304  130.8796  159.9103 C   0  0  0  0  0  0  0  0  0  0  0  0
  131.0892  130.7578  158.8341 C   0  0  0  0  0  0  0  0  0  0  0  0
  131.5944  131.8892  158.2212 C   0  0  0  0  0  0  0  0  0  0  0  0
  131.2407  133.1427  158.6849 C   0  0  0  0  0  0  0  0  0  0  0  0
  130.7195  136.9050  160.5087 C   0  0  0  0  0  0  0  0  0  0  0  0
  131.8568  137.8909  160.2323 C   0  0  0  0  0  0  0  0  0  0  0  0
  134.7278  138.9327  161.8192 C   0  0  0  0  0  0  0  0  0  0  0  0
  134.2518  138.6101  163.2121 C   0  0  0  0  0  0  0  0  0  0  0  0
  135.0320  137.4387  163.7509 C   0  0  0  0  0  0  0  0  0  0  0  0
  134.4539  136.6454  164.6006 C   0  0  0  0  0  0  0  0  0  0  0  0
  135.1383  135.4502  165.1923 C   0  0  0  0  0  0  0  0  0  0  0  0
  136.6281  135.5685  165.0773 C   0  0  0  0  0  0  0  0  0  0  0  0
  137.2080  136.3648  164.2315 C   0  0  0  0  0  0  0  0  0  0  0  0
  136.4441  137.2432  163.2871 C   0  0  0  0  0  0  0  0  0  0  0  0
  136.3533  142.0288  164.0077 H   0  0  0  0  0  0  0  0  0  0  0  0
  135.8422  142.3969  162.3429 H   0  0  0  0  0  0  0  0  0  0  0  0
  134.7506  141.5093  163.4333 H   0  0  0  0  0  0  0  0  0  0  0  0
  137.0081  140.8314  160.2003 H   0  0  0  0  0  0  0  0  0  0  0  0
  135.9461  139.7583  158.2583 H   0  0  0  0  0  0  0  0  0  0  0  0
  134.1063  138.1578  158.5851 H   0  0  0  0  0  0  0  0  0  0  0  0
  133.6568  136.1131  159.3731 H   0  0  0  0  0  0  0  0  0  0  0  0
  134.3441  135.7520  160.9753 H   0  0  0  0  0  0  0  0  0  0  0  0
  132.1075  135.0749  161.7899 H   0  0  0  0  0  0  0  0  0  0  0  0
  132.5730  134.1196  160.3619 H   0  0  0  0  0  0  0  0  0  0  0  0
  129.7978  134.5795  161.3372 H   0  0  0  0  0  0  0  0  0  0  0  0
  127.4189  134.2417  160.9745 H   0  0  0  0  0  0  0  0  0  0  0  0
  125.3964  135.0190  159.8046 H   0  0  0  0  0  0  0  0  0  0  0  0
  125.6004  136.3028  157.7133 H   0  0  0  0  0  0  0  0  0  0  0  0
  127.8273  136.8174  156.7970 H   0  0  0  0  0  0  0  0  0  0  0  0
  129.8499  136.0482  157.9718 H   0  0  0  0  0  0  0  0  0  0  0  0
  129.2131  132.2281  161.2207 H   0  0  0  0  0  0  0  0  0  0  0  0
  129.8359  129.9957  160.3893 H   0  0  0  0  0  0  0  0  0  0  0  0
  131.3659  129.7785  158.4722 H   0  0  0  0  0  0  0  0  0  0  0  0
  132.2658  131.7940  157.3807 H   0  0  0  0  0  0  0  0  0  0  0  0
  131.6357  134.0266  158.2064 H   0  0  0  0  0  0  0  0  0  0  0  0
  130.5328  136.8572  161.5815 H   0  0  0  0  0  0  0  0  0  0  0  0
  129.8167  137.2392  159.9974 H   0  0  0  0  0  0  0  0  0  0  0  0
  131.5838  138.8762  160.6102 H   0  0  0  0  0  0  0  0  0  0  0  0
  132.0346  137.9492  159.1586 H   0  0  0  0  0  0  0  0  0  0  0  0
  134.4034  139.4754  163.8575 H   0  0  0  0  0  0  0  0  0  0  0  0
  133.1915  138.3587  163.1847 H   0  0  0  0  0  0  0  0  0  0  0  0
  133.4347  136.8535  164.8909 H   0  0  0  0  0  0  0  0  0  0  0  0
  134.8098  134.5516  164.6701 H   0  0  0  0  0  0  0  0  0  0  0  0
  134.8662  135.3711  166.2449 H   0  0  0  0  0  0  0  0  0  0  0  0
  137.2460  134.9656  165.7262 H   0  0  0  0  0  0  0  0  0  0  0  0
  138.2873  136.3960  164.2076 H   0  0  0  0  0  0  0  0  0  0  0  0
  136.4351  136.7829  162.2990 H   0  0  0  0  0  0  0  0  0  0  0  0
  136.9371  138.2133  163.2247 H   0  0  0  0  0  0  0  0  0  0  0  0
  1  2  1  0
  1 36  1  0
  1 37  1  0
  1 38  1  0
  2  3  1  0
  3 28  2  0
  3  4  1  0
  4  5  2  0
  4 39  1  0
  5  6  1  0
  5 40  1  0
  6  7  2  0
  6 41  1  0
  7  8  1  0
  7 28  1  0
  8 27  1  0
  8  9  1  0
  9 10  1  0
  9 42  1  0
  9 43  1  0
 10 11  1  0
 10 44  1  0
 10 45  1  0
 11 12  1  0
 11 13  1  0
 11 26  1  0
 13 14  1  0
 13 20  1  0
 13 46  1  0
 14 19  1  0
 14 15  2  0
 15 16  1  0
 15 47  1  0
 16 17  2  0
 16 48  1  0
 17 18  1  0
 17 49  1  0
 18 19  2  0
 18 50  1  0
 19 51  1  0
 20 25  1  0
 20 21  2  0
 21 22  1  0
 21 52  1  0
 22 23  2  0
 22 53  1  0
 23 24  1  0
 23 54  1  0
 24 25  2  0
 24 55  1  0
 25 56  1  0
 26 27  1  0
 26 57  1  0
 26 58  1  0
 27 59  1  0
 27 60  1  0
 28 29  1  0
 29 30  1  0
 29 61  1  0
 29 62  1  0
 30 35  1  0
 30 31  2  0
 31 32  1  0
 31 63  1  0
 32 33  1  0
 32 64  1  0
 32 65  1  0
 33 34  2  0
 33 66  1  0
 34 35  1  0
 34 67  1  0
 35 68  1  0
 35 69  1  0
M  CHG  1  11   1
M  END
>  <DOCK_score>  (1) 
-55.908638

>  <SMILES>  (1) 
COc1cccc(N2CC[NH+](C(c3ccccc3)c3ccccc3)CC2)c1CC1=CCC=CC1

$$$$
