CC1=C(Nc2ccccc2Nc2ccccc2Cl)C[C@H]1Nc1[nH]c2ccccc2[nH+]1
     RDKit          3D

 53 57  0  0  1  0  0  0  0  0999 V2000
  131.8707  134.5444  161.9569 C   0  0  0  0  0  0  0  0  0  0  0  0
  130.9578  135.6021  161.3921 C   0  0  0  0  0  0  0  0  0  0  0  0
  130.7992  136.9001  161.6508 C   0  0  0  0  0  0  0  0  0  0  0  0
  131.4155  137.7724  162.5391 N   0  0  0  0  0  0  0  0  0  0  0  0
  131.0261  139.1161  162.5842 C   0  0  0  0  0  0  0  0  0  0  0  0
  129.7178  139.4510  162.9010 C   0  0  0  0  0  0  0  0  0  0  0  0
  129.3355  140.7787  162.9449 C   0  0  0  0  0  0  0  0  0  0  0  0
  130.2540  141.7765  162.6742 C   0  0  0  0  0  0  0  0  0  0  0  0
  131.5601  141.4522  162.3575 C   0  0  0  0  0  0  0  0  0  0  0  0
  131.9541  140.1229  162.3163 C   0  0  0  0  0  0  0  0  0  0  0  0
  133.2771  139.7924  162.0016 N   0  0  0  0  0  0  0  0  0  0  0  0
  133.6473  139.5826  160.6705 C   0  0  0  0  0  0  0  0  0  0  0  0
  132.7020  139.6962  159.6588 C   0  0  0  0  0  0  0  0  0  0  0  0
  133.0724  139.4938  158.3438 C   0  0  0  0  0  0  0  0  0  0  0  0
  134.3800  139.1673  158.0339 C   0  0  0  0  0  0  0  0  0  0  0  0
  135.3230  139.0476  159.0383 C   0  0  0  0  0  0  0  0  0  0  0  0
  134.9609  139.2543  160.3559 C   0  0  0  0  0  0  0  0  0  0  0  0
  136.1452  139.1045  161.6165 Cl  0  0  0  0  0  0  0  0  0  0  0  0
  129.7004  137.0767  160.6204 C   0  0  0  0  0  0  0  0  0  0  0  0
  129.8834  135.5788  160.3219 C   0  0  1  0  0  0  0  0  0  0  0  0
  129.0167  134.9703  160.5803 H   0  0  0  0  0  0  0  0  0  0  0  0
  130.3952  135.3030  158.9773 N   0  0  0  0  0  0  0  0  0  0  0  0
  130.4810  134.0069  158.5269 C   0  0  0  0  0  0  0  0  0  0  0  0
  130.1271  132.9314  159.2270 N   0  0  0  0  0  0  0  0  0  0  0  0
  129.7710  132.9340  160.1293 H   0  0  0  0  0  0  0  0  0  0  0  0
  130.3565  131.8197  158.4596 C   0  0  0  0  0  0  0  0  0  0  0  0
  130.1734  130.4549  158.6627 C   0  0  0  0  0  0  0  0  0  0  0  0
  130.5047  129.5635  157.6654 C   0  0  0  0  0  0  0  0  0  0  0  0
  131.0143  130.0170  156.4575 C   0  0  0  0  0  0  0  0  0  0  0  0
  131.1972  131.3651  156.2382 C   0  0  0  0  0  0  0  0  0  0  0  0
  130.8680  132.2791  157.2350 C   0  0  0  0  0  0  0  0  0  0  0  0
  130.9294  133.6447  157.3270 N   0  0  0  0  0  0  0  0  0  0  0  0
  131.2465  134.2461  156.6349 H   0  0  0  0  0  0  0  0  0  0  0  0
  132.8290  134.5770  161.4385 H   0  0  0  0  0  0  0  0  0  0  0  0
  132.0261  134.7286  163.0199 H   0  0  0  0  0  0  0  0  0  0  0  0
  131.4171  133.5627  161.8207 H   0  0  0  0  0  0  0  0  0  0  0  0
  132.1156  137.4503  163.1281 H   0  0  0  0  0  0  0  0  0  0  0  0
  128.9978  138.6744  163.1129 H   0  0  0  0  0  0  0  0  0  0  0  0
  128.3165  141.0376  163.1918 H   0  0  0  0  0  0  0  0  0  0  0  0
  129.9500  142.8121  162.7099 H   0  0  0  0  0  0  0  0  0  0  0  0
  132.2746  142.2340  162.1463 H   0  0  0  0  0  0  0  0  0  0  0  0
  133.9373  139.7090  162.7074 H   0  0  0  0  0  0  0  0  0  0  0  0
  131.6796  139.9464  159.9001 H   0  0  0  0  0  0  0  0  0  0  0  0
  132.3387  139.5867  157.5567 H   0  0  0  0  0  0  0  0  0  0  0  0
  134.6656  139.0057  157.0050 H   0  0  0  0  0  0  0  0  0  0  0  0
  136.3434  138.7928  158.7927 H   0  0  0  0  0  0  0  0  0  0  0  0
  129.9767  137.7269  159.7906 H   0  0  0  0  0  0  0  0  0  0  0  0
  128.7299  137.3234  161.0511 H   0  0  0  0  0  0  0  0  0  0  0  0
  130.6738  136.0348  158.4047 H   0  0  0  0  0  0  0  0  0  0  0  0
  129.7767  130.0954  159.6007 H   0  0  0  0  0  0  0  0  0  0  0  0
  130.3665  128.5044  157.8252 H   0  0  0  0  0  0  0  0  0  0  0  0
  131.2700  129.3084  155.6836 H   0  0  0  0  0  0  0  0  0  0  0  0
  131.5944  131.7116  155.2955 H   0  0  0  0  0  0  0  0  0  0  0  0
  1  2  1  0
  1 34  1  0
  1 35  1  0
  1 36  1  0
  2 20  1  0
  2  3  2  0
  3  4  1  0
  3 19  1  0
  4  5  1  0
  4 37  1  0
  5 10  1  0
  5  6  2  0
  6  7  1  0
  6 38  1  0
  7  8  2  0
  7 39  1  0
  8  9  1  0
  8 40  1  0
  9 10  2  0
  9 41  1  0
 10 11  1  0
 11 12  1  0
 11 42  1  0
 12 17  1  0
 12 13  2  0
 13 14  1  0
 13 43  1  0
 14 15  2  0
 14 44  1  0
 15 16  1  0
 15 45  1  0
 16 17  2  0
 16 46  1  0
 17 18  1  0
 19 20  1  0
 19 47  1  0
 19 48  1  0
 20 21  1  1
 20 22  1  0
 22 23  1  0
 22 49  1  0
 23 32  1  0
 23 24  2  0
 24 25  1  0
 24 26  1  0
 26 31  2  0
 26 27  1  0
 27 28  2  0
 27 50  1  0
 28 29  1  0
 28 51  1  0
 29 30  2  0
 29 52  1  0
 30 31  1  0
 30 53  1  0
 31 32  1  0
 32 33  1  0
M  CHG  1  24   1
M  END
>  <DOCK_score>  (1) 
-58.030437

>  <SMILES>  (1) 
CC1=C(Nc2ccccc2Nc2ccccc2Cl)C[C@H]1Nc1[nH]c2ccccc2[nH+]1

$$$$
