[NH3+][C@H](C(=O)N(Cc1ccccn1)Cc1ccccn1)c1ccc(C(=O)C2=COCCC2)c(Cl)c1
     RDKit          3D

 60 63  0  0  1  0  0  0  0  0999 V2000
  132.9331  135.1859  159.3269 N   0  0  0  0  0  0  0  0  0  0  0  0
  133.9031  135.4453  159.2270 H   0  0  0  0  0  0  0  0  0  0  0  0
  132.8717  134.2417  159.6772 H   0  0  0  0  0  0  0  0  0  0  0  0
  132.4757  135.2420  158.4293 H   0  0  0  0  0  0  0  0  0  0  0  0
  132.2761  136.1015  160.2694 C   0  0  2  0  0  0  0  0  0  0  0  0
  132.3425  137.1215  159.8911 H   0  0  0  0  0  0  0  0  0  0  0  0
  132.9592  136.0175  161.6101 C   0  0  0  0  0  0  0  0  0  0  0  0
  133.4825  134.9810  161.9602 O   0  0  0  0  0  0  0  0  0  0  0  0
  132.9887  137.0945  162.4199 N   0  0  0  0  0  0  0  0  0  0  0  0
  133.6529  137.0130  163.7232 C   0  0  0  0  0  0  0  0  0  0  0  0
  132.6552  137.3039  164.8145 C   0  0  0  0  0  0  0  0  0  0  0  0
  133.0623  137.2835  166.1353 C   0  0  0  0  0  0  0  0  0  0  0  0
  132.1367  137.5530  167.1315 C   0  0  0  0  0  0  0  0  0  0  0  0
  130.8305  137.8344  166.7604 C   0  0  0  0  0  0  0  0  0  0  0  0
  130.4960  137.8315  165.4197 C   0  0  0  0  0  0  0  0  0  0  0  0
  131.4043  137.5756  164.4983 N   0  0  0  0  0  0  0  0  0  0  0  0
  132.3565  138.3465  161.9969 C   0  0  0  0  0  0  0  0  0  0  0  0
  133.3608  139.1909  161.2555 C   0  0  0  0  0  0  0  0  0  0  0  0
  134.1416  140.0935  161.9527 C   0  0  0  0  0  0  0  0  0  0  0  0
  135.0663  140.8615  161.2620 C   0  0  0  0  0  0  0  0  0  0  0  0
  135.1635  140.7001  159.8880 C   0  0  0  0  0  0  0  0  0  0  0  0
  134.3453  139.7817  159.2585 C   0  0  0  0  0  0  0  0  0  0  0  0
  133.4805  139.0640  159.9485 N   0  0  0  0  0  0  0  0  0  0  0  0
  130.8275  135.7142  160.4187 C   0  0  0  0  0  0  0  0  0  0  0  0
  129.8766  136.2661  159.5776 C   0  0  0  0  0  0  0  0  0  0  0  0
  128.5490  135.9169  159.7084 C   0  0  0  0  0  0  0  0  0  0  0  0
  128.1638  135.0039  160.6917 C   0  0  0  0  0  0  0  0  0  0  0  0
  126.7415  134.6253  160.8379 C   0  0  0  0  0  0  0  0  0  0  0  0
  125.9075  135.4765  161.0882 O   0  0  0  0  0  0  0  0  0  0  0  0
  126.3496  133.2728  160.6870 C   0  0  0  0  0  0  0  0  0  0  0  0
  127.0572  132.4841  159.8707 C   0  0  0  0  0  0  0  0  0  0  0  0
  126.7537  131.1939  159.6547 O   0  0  0  0  0  0  0  0  0  0  0  0
  125.8560  130.5488  160.5985 C   0  0  0  0  0  0  0  0  0  0  0  0
  124.6502  131.4711  160.8235 C   0  0  0  0  0  0  0  0  0  0  0  0
  125.1566  132.7738  161.4552 C   0  0  0  0  0  0  0  0  0  0  0  0
  129.1279  134.4499  161.5373 C   0  0  0  0  0  0  0  0  0  0  0  0
  128.6604  133.3135  162.7636 Cl  0  0  0  0  0  0  0  0  0  0  0  0
  130.4549  134.8048  161.3916 C   0  0  0  0  0  0  0  0  0  0  0  0
  134.4610  137.7433  163.7654 H   0  0  0  0  0  0  0  0  0  0  0  0
  134.0607  136.0115  163.8611 H   0  0  0  0  0  0  0  0  0  0  0  0
  134.0883  137.0607  166.3879 H   0  0  0  0  0  0  0  0  0  0  0  0
  132.4261  137.5446  168.1720 H   0  0  0  0  0  0  0  0  0  0  0  0
  130.0831  138.0486  167.5100 H   0  0  0  0  0  0  0  0  0  0  0  0
  129.4800  138.0455  165.1225 H   0  0  0  0  0  0  0  0  0  0  0  0
  131.5139  138.1249  161.3419 H   0  0  0  0  0  0  0  0  0  0  0  0
  132.0025  138.8891  162.8736 H   0  0  0  0  0  0  0  0  0  0  0  0
  134.0358  140.1961  163.0226 H   0  0  0  0  0  0  0  0  0  0  0  0
  135.6931  141.5716  161.7809 H   0  0  0  0  0  0  0  0  0  0  0  0
  135.8696  141.2852  159.3174 H   0  0  0  0  0  0  0  0  0  0  0  0
  134.4147  139.6502  158.1887 H   0  0  0  0  0  0  0  0  0  0  0  0
  130.1753  136.9724  158.8171 H   0  0  0  0  0  0  0  0  0  0  0  0
  127.8087  136.3488  159.0511 H   0  0  0  0  0  0  0  0  0  0  0  0
  127.9118  132.9045  159.3614 H   0  0  0  0  0  0  0  0  0  0  0  0
  125.5186  129.5954  160.1920 H   0  0  0  0  0  0  0  0  0  0  0  0
  126.3738  130.3828  161.5433 H   0  0  0  0  0  0  0  0  0  0  0  0
  124.1675  131.6843  159.8697 H   0  0  0  0  0  0  0  0  0  0  0  0
  123.9396  130.9896  161.4953 H   0  0  0  0  0  0  0  0  0  0  0  0
  125.4421  132.5918  162.4912 H   0  0  0  0  0  0  0  0  0  0  0  0
  124.3650  133.5224  161.4231 H   0  0  0  0  0  0  0  0  0  0  0  0
  131.2025  134.3746  162.0416 H   0  0  0  0  0  0  0  0  0  0  0  0
  1  2  1  0
  1  3  1  0
  1  4  1  0
  1  5  1  0
  5  6  1  6
  5  7  1  0
  5 24  1  0
  7  8  2  0
  7  9  1  0
  9 10  1  0
  9 17  1  0
 10 11  1  0
 10 39  1  0
 10 40  1  0
 11 16  1  0
 11 12  2  0
 12 13  1  0
 12 41  1  0
 13 14  2  0
 13 42  1  0
 14 15  1  0
 14 43  1  0
 15 16  2  0
 15 44  1  0
 17 18  1  0
 17 45  1  0
 17 46  1  0
 18 23  1  0
 18 19  2  0
 19 20  1  0
 19 47  1  0
 20 21  2  0
 20 48  1  0
 21 22  1  0
 21 49  1  0
 22 23  2  0
 22 50  1  0
 24 38  1  0
 24 25  2  0
 25 26  1  0
 25 51  1  0
 26 27  2  0
 26 52  1  0
 27 28  1  0
 27 36  1  0
 28 29  2  0
 28 30  1  0
 30 35  1  0
 30 31  2  0
 31 32  1  0
 31 53  1  0
 32 33  1  0
 33 34  1  0
 33 54  1  0
 33 55  1  0
 34 35  1  0
 34 56  1  0
 34 57  1  0
 35 58  1  0
 35 59  1  0
 36 37  1  0
 36 38  2  0
 38 60  1  0
M  CHG  1   1   1
M  END
>  <DOCK_score>  (1) 
-41.0149

>  <SMILES>  (1) 
[NH3+][C@H](C(=O)N(Cc1ccccn1)Cc1ccccn1)c1ccc(C(=O)C2=COCCC2)c(Cl)c1

$$$$
