Cc1ccc(-c2ccccc2)c(Nc2[nH]cc(-c3ccc(C4CC=CC4)cc3)[nH+]2)c1
     RDKit          3D

 56 60  0  0  1  0  0  0  0  0999 V2000
  125.6528  135.1700  160.9096 C   0  0  0  0  0  0  0  0  0  0  0  0
  127.0022  135.8390  160.8563 C   0  0  0  0  0  0  0  0  0  0  0  0
  127.3173  136.8278  161.7720 C   0  0  0  0  0  0  0  0  0  0  0  0
  128.5506  137.4462  161.7318 C   0  0  0  0  0  0  0  0  0  0  0  0
  129.4834  137.0750  160.7664 C   0  0  0  0  0  0  0  0  0  0  0  0
  130.8096  137.7367  160.7186 C   0  0  0  0  0  0  0  0  0  0  0  0
  130.9935  138.8799  159.9426 C   0  0  0  0  0  0  0  0  0  0  0  0
  132.2291  139.4936  159.9052 C   0  0  0  0  0  0  0  0  0  0  0  0
  133.2861  138.9712  160.6285 C   0  0  0  0  0  0  0  0  0  0  0  0
  133.1107  137.8342  161.3965 C   0  0  0  0  0  0  0  0  0  0  0  0
  131.8785  137.2144  161.4451 C   0  0  0  0  0  0  0  0  0  0  0  0
  129.1627  136.0748  159.8412 C   0  0  0  0  0  0  0  0  0  0  0  0
  130.0901  135.6952  158.8698 N   0  0  0  0  0  0  0  0  0  0  0  0
  130.0946  134.3971  158.3861 C   0  0  0  0  0  0  0  0  0  0  0  0
  129.7244  133.2892  159.0849 N   0  0  0  0  0  0  0  0  0  0  0  0
  129.4125  133.2667  160.0031 H   0  0  0  0  0  0  0  0  0  0  0  0
  129.8730  132.2094  158.2498 C   0  0  0  0  0  0  0  0  0  0  0  0
  130.3295  132.6875  157.0654 C   0  0  0  0  0  0  0  0  0  0  0  0
  130.6369  131.8813  155.8588 C   0  0  0  0  0  0  0  0  0  0  0  0
  130.4910  132.4384  154.5896 C   0  0  0  0  0  0  0  0  0  0  0  0
  130.7781  131.6836  153.4704 C   0  0  0  0  0  0  0  0  0  0  0  0
  131.2103  130.3767  153.6067 C   0  0  0  0  0  0  0  0  0  0  0  0
  131.5227  129.5577  152.3808 C   0  0  0  0  0  0  0  0  0  0  0  0
  131.0677  128.0909  152.5625 C   0  0  0  0  0  0  0  0  0  0  0  0
  130.5518  127.6753  151.2045 C   0  0  0  0  0  0  0  0  0  0  0  0
  130.3246  128.7154  150.4494 C   0  0  0  0  0  0  0  0  0  0  0  0
  130.6513  129.9982  151.1779 C   0  0  0  0  0  0  0  0  0  0  0  0
  131.3515  129.8168  154.8637 C   0  0  0  0  0  0  0  0  0  0  0  0
  131.0723  130.5638  155.9900 C   0  0  0  0  0  0  0  0  0  0  0  0
  130.4607  134.0324  157.1814 N   0  0  0  0  0  0  0  0  0  0  0  0
  130.7731  134.6294  156.4836 H   0  0  0  0  0  0  0  0  0  0  0  0
  127.9164  135.4658  159.8904 C   0  0  0  0  0  0  0  0  0  0  0  0
  124.9496  135.7201  160.2843 H   0  0  0  0  0  0  0  0  0  0  0  0
  125.7399  134.1466  160.5446 H   0  0  0  0  0  0  0  0  0  0  0  0
  125.2930  135.1594  161.9384 H   0  0  0  0  0  0  0  0  0  0  0  0
  126.5949  137.1171  162.5211 H   0  0  0  0  0  0  0  0  0  0  0  0
  128.7922  138.2170  162.4486 H   0  0  0  0  0  0  0  0  0  0  0  0
  130.1701  139.2861  159.3743 H   0  0  0  0  0  0  0  0  0  0  0  0
  132.3719  140.3814  159.3069 H   0  0  0  0  0  0  0  0  0  0  0  0
  134.2522  139.4527  160.5932 H   0  0  0  0  0  0  0  0  0  0  0  0
  133.9395  137.4305  161.9590 H   0  0  0  0  0  0  0  0  0  0  0  0
  131.7426  136.3268  162.0450 H   0  0  0  0  0  0  0  0  0  0  0  0
  130.7315  136.3404  158.5333 H   0  0  0  0  0  0  0  0  0  0  0  0
  129.6658  131.1770  158.4899 H   0  0  0  0  0  0  0  0  0  0  0  0
  130.1544  133.4590  154.4821 H   0  0  0  0  0  0  0  0  0  0  0  0
  130.6654  132.1142  152.4865 H   0  0  0  0  0  0  0  0  0  0  0  0
  132.5836  129.6108  152.1366 H   0  0  0  0  0  0  0  0  0  0  0  0
  130.2729  128.0291  153.3058 H   0  0  0  0  0  0  0  0  0  0  0  0
  131.9107  127.4655  152.8561 H   0  0  0  0  0  0  0  0  0  0  0  0
  130.3922  126.6518  150.8987 H   0  0  0  0  0  0  0  0  0  0  0  0
  129.9526  128.6656  149.4367 H   0  0  0  0  0  0  0  0  0  0  0  0
  131.2125  130.6709  150.5291 H   0  0  0  0  0  0  0  0  0  0  0  0
  129.7379  130.4810  151.5249 H   0  0  0  0  0  0  0  0  0  0  0  0
  131.6848  128.7944  154.9641 H   0  0  0  0  0  0  0  0  0  0  0  0
  131.1871  130.1271  156.9711 H   0  0  0  0  0  0  0  0  0  0  0  0
  127.6630  134.6967  159.1758 H   0  0  0  0  0  0  0  0  0  0  0  0
  1  2  1  0
  1 33  1  0
  1 34  1  0
  1 35  1  0
  2 32  2  0
  2  3  1  0
  3  4  2  0
  3 36  1  0
  4  5  1  0
  4 37  1  0
  5  6  1  0
  5 12  2  0
  6 11  1  0
  6  7  2  0
  7  8  1  0
  7 38  1  0
  8  9  2  0
  8 39  1  0
  9 10  1  0
  9 40  1  0
 10 11  2  0
 10 41  1  0
 11 42  1  0
 12 13  1  0
 12 32  1  0
 13 43  1  0
 14 13  1  0
 14 30  2  0
 14 15  1  0
 15 16  1  0
 15 17  1  0
 17 18  2  0
 17 44  1  0
 18 19  1  0
 18 30  1  0
 19 29  1  0
 19 20  2  0
 20 21  1  0
 20 45  1  0
 21 22  2  0
 21 46  1  0
 22 23  1  0
 22 28  1  0
 23 27  1  0
 23 24  1  0
 23 47  1  0
 24 25  1  0
 24 48  1  0
 24 49  1  0
 25 26  2  0
 25 50  1  0
 26 27  1  0
 26 51  1  0
 27 52  1  0
 27 53  1  0
 28 29  2  0
 28 54  1  0
 29 55  1  0
 30 31  1  0
 32 56  1  0
M  CHG  1  30   1
M  END
>  <DOCK_score>  (1) 
-59.478558

>  <SMILES>  (1) 
Cc1ccc(-c2ccccc2)c(Nc2[nH]cc(-c3ccc(C4CC=CC4)cc3)[nH+]2)c1

$$$$
