CCc1ccc(-c2c[nH]c(N[C@H](c3ccccc3)C(O)(CBr)c3ccc(N)cc3)[nH+]2)cc1
     RDKit          3D

 60 63  0  0  1  0  0  0  0  0999 V2000
  130.4270  128.4947  151.1421 C   0  0  0  0  0  0  0  0  0  0  0  0
  131.5340  129.4830  151.5144 C   0  0  0  0  0  0  0  0  0  0  0  0
  131.1738  130.1791  152.8016 C   0  0  0  0  0  0  0  0  0  0  0  0
  131.5682  129.6378  154.0115 C   0  0  0  0  0  0  0  0  0  0  0  0
  131.2453  130.2735  155.1931 C   0  0  0  0  0  0  0  0  0  0  0  0
  130.5112  131.4579  155.1660 C   0  0  0  0  0  0  0  0  0  0  0  0
  130.1566  132.1431  156.4329 C   0  0  0  0  0  0  0  0  0  0  0  0
  129.4221  131.6190  157.4453 C   0  0  0  0  0  0  0  0  0  0  0  0
  129.3366  132.5856  158.4176 N   0  0  0  0  0  0  0  0  0  0  0  0
  128.8729  132.5076  159.2661 H   0  0  0  0  0  0  0  0  0  0  0  0
  130.0220  133.6730  157.9707 C   0  0  0  0  0  0  0  0  0  0  0  0
  130.1770  134.8660  158.6557 N   0  0  0  0  0  0  0  0  0  0  0  0
  129.1369  135.3189  159.5827 C   0  0  2  0  0  0  0  0  0  0  0  0
  129.0053  134.5777  160.3711 H   0  0  0  0  0  0  0  0  0  0  0  0
  127.8397  135.4937  158.8358 C   0  0  0  0  0  0  0  0  0  0  0  0
  126.6358  135.2965  159.4859 C   0  0  0  0  0  0  0  0  0  0  0  0
  125.4459  135.4611  158.8020 C   0  0  0  0  0  0  0  0  0  0  0  0
  125.4601  135.8141  157.4654 C   0  0  0  0  0  0  0  0  0  0  0  0
  126.6641  136.0060  156.8139 C   0  0  0  0  0  0  0  0  0  0  0  0
  127.8539  135.8457  157.4991 C   0  0  0  0  0  0  0  0  0  0  0  0
  129.5526  136.6544  160.2027 C   0  0  1  0  0  0  0  0  0  0  0  0
  129.7252  137.6260  159.1690 O   0  0  0  0  0  0  0  0  0  0  0  0
  128.4663  137.1275  161.1708 C   0  0  0  0  0  0  0  0  0  0  0  0
  129.0005  138.8436  161.9673 Br  0  0  0  0  0  0  0  0  0  0  0  0
  130.8498  136.4797  160.9495 C   0  0  0  0  0  0  0  0  0  0  0  0
  130.9252  135.5845  162.0009 C   0  0  0  0  0  0  0  0  0  0  0  0
  132.1138  135.4177  162.6839 C   0  0  0  0  0  0  0  0  0  0  0  0
  133.2314  136.1588  162.3211 C   0  0  0  0  0  0  0  0  0  0  0  0
  134.4337  135.9964  163.0131 N   0  0  0  0  0  0  0  0  0  0  0  0
  133.1506  137.0611  161.2681 C   0  0  0  0  0  0  0  0  0  0  0  0
  131.9603  137.2189  160.5856 C   0  0  0  0  0  0  0  0  0  0  0  0
  130.5149  133.4030  156.7866 N   0  0  0  0  0  0  0  0  0  0  0  0
  131.0489  134.0080  156.2483 H   0  0  0  0  0  0  0  0  0  0  0  0
  130.1118  131.9964  153.9441 C   0  0  0  0  0  0  0  0  0  0  0  0
  130.4449  131.3549  152.7684 C   0  0  0  0  0  0  0  0  0  0  0  0
  130.3174  127.7563  151.9363 H   0  0  0  0  0  0  0  0  0  0  0  0
  129.4875  129.0324  151.0138 H   0  0  0  0  0  0  0  0  0  0  0  0
  130.6874  127.9912  150.2111 H   0  0  0  0  0  0  0  0  0  0  0  0
  132.4732  128.9457  151.6425 H   0  0  0  0  0  0  0  0  0  0  0  0
  131.6434  130.2219  150.7201 H   0  0  0  0  0  0  0  0  0  0  0  0
  132.1331  128.7176  154.0314 H   0  0  0  0  0  0  0  0  0  0  0  0
  131.5576  129.8519  156.1372 H   0  0  0  0  0  0  0  0  0  0  0  0
  128.9873  130.6311  157.4802 H   0  0  0  0  0  0  0  0  0  0  0  0
  130.9743  135.4021  158.5219 H   0  0  0  0  0  0  0  0  0  0  0  0
  126.6250  135.0171  160.5291 H   0  0  0  0  0  0  0  0  0  0  0  0
  124.5053  135.3114  159.3111 H   0  0  0  0  0  0  0  0  0  0  0  0
  124.5305  135.9400  156.9304 H   0  0  0  0  0  0  0  0  0  0  0  0
  126.6752  136.2818  155.7699 H   0  0  0  0  0  0  0  0  0  0  0  0
  128.7946  135.9958  156.9902 H   0  0  0  0  0  0  0  0  0  0  0  0
  130.4003  137.3915  158.5176 H   0  0  0  0  0  0  0  0  0  0  0  0
  127.5282  137.2539  160.6306 H   0  0  0  0  0  0  0  0  0  0  0  0
  128.3346  136.3863  161.9591 H   0  0  0  0  0  0  0  0  0  0  0  0
  130.0545  135.0122  162.2855 H   0  0  0  0  0  0  0  0  0  0  0  0
  132.1732  134.7152  163.5020 H   0  0  0  0  0  0  0  0  0  0  0  0
  135.2136  136.5141  162.7585 H   0  0  0  0  0  0  0  0  0  0  0  0
  134.4890  135.3659  163.7481 H   0  0  0  0  0  0  0  0  0  0  0  0
  134.0175  137.6391  160.9836 H   0  0  0  0  0  0  0  0  0  0  0  0
  131.8967  137.9206  159.7672 H   0  0  0  0  0  0  0  0  0  0  0  0
  129.5424  132.9137  153.9173 H   0  0  0  0  0  0  0  0  0  0  0  0
  130.1356  131.7708  151.8211 H   0  0  0  0  0  0  0  0  0  0  0  0
  1  2  1  0
  1 36  1  0
  1 37  1  0
  1 38  1  0
  2  3  1  0
  2 39  1  0
  2 40  1  0
  3 35  2  0
  3  4  1  0
  4  5  2  0
  4 41  1  0
  5  6  1  0
  5 42  1  0
  6  7  1  0
  6 34  2  0
  7 32  1  0
  7  8  2  0
  8  9  1  0
  8 43  1  0
  9 10  1  0
  9 11  1  0
 11 12  1  0
 11 32  2  0
 12 13  1  0
 12 44  1  0
 13 14  1  1
 13 15  1  0
 13 21  1  0
 15 20  1  0
 15 16  2  0
 16 17  1  0
 16 45  1  0
 17 18  2  0
 17 46  1  0
 18 19  1  0
 18 47  1  0
 19 20  2  0
 19 48  1  0
 20 49  1  0
 21 22  1  6
 21 23  1  0
 21 25  1  0
 22 50  1  0
 23 24  1  0
 23 51  1  0
 23 52  1  0
 25 31  1  0
 25 26  2  0
 26 27  1  0
 26 53  1  0
 27 28  2  0
 27 54  1  0
 28 29  1  0
 28 30  1  0
 29 55  1  0
 29 56  1  0
 30 31  2  0
 30 57  1  0
 31 58  1  0
 32 33  1  0
 34 35  1  0
 34 59  1  0
 35 60  1  0
M  CHG  1  32   1
M  END
>  <DOCK_score>  (1) 
-67.668671

>  <SMILES>  (1) 
CCc1ccc(-c2c[nH]c(N[C@H](c3ccccc3)C(O)(CBr)c3ccc(N)cc3)[nH+]2)cc1

$$$$
