Cc1ccccc1N1CC[NH+]([C@@H](c2ccccc2)c2cccc(Nc3cccc(O)c3)c2)CC1
     RDKit          3D

 66 70  0  0  1  0  0  0  0  0999 V2000
  133.7409  136.3113  163.7169 C   0  0  0  0  0  0  0  0  0  0  0  0
  134.2963  137.0829  162.5476 C   0  0  0  0  0  0  0  0  0  0  0  0
  135.3304  137.9782  162.7385 C   0  0  0  0  0  0  0  0  0  0  0  0
  135.8368  138.6907  161.6670 C   0  0  0  0  0  0  0  0  0  0  0  0
  135.3137  138.5056  160.4002 C   0  0  0  0  0  0  0  0  0  0  0  0
  134.2830  137.6084  160.2015 C   0  0  0  0  0  0  0  0  0  0  0  0
  133.7718  136.8910  161.2759 C   0  0  0  0  0  0  0  0  0  0  0  0
  132.7290  135.9829  161.0784 N   0  0  0  0  0  0  0  0  0  0  0  0
  131.5149  136.6684  160.6129 C   0  0  0  0  0  0  0  0  0  0  0  0
  130.3823  135.6498  160.4665 C   0  0  0  0  0  0  0  0  0  0  0  0
  130.7783  134.6116  159.5057 N   0  0  0  0  0  0  0  0  0  0  0  0
  130.9779  135.0381  158.6133 H   0  0  0  0  0  0  0  0  0  0  0  0
  129.6837  133.6442  159.3518 C   0  0  1  0  0  0  0  0  0  0  0  0
  129.4675  133.1837  160.3158 H   0  0  0  0  0  0  0  0  0  0  0  0
  128.4537  134.3534  158.8468 C   0  0  0  0  0  0  0  0  0  0  0  0
  127.1979  133.8829  159.1821 C   0  0  0  0  0  0  0  0  0  0  0  0
  126.0695  134.5292  158.7131 C   0  0  0  0  0  0  0  0  0  0  0  0
  126.1970  135.6473  157.9103 C   0  0  0  0  0  0  0  0  0  0  0  0
  127.4527  136.1185  157.5758 C   0  0  0  0  0  0  0  0  0  0  0  0
  128.5811  135.4712  158.0436 C   0  0  0  0  0  0  0  0  0  0  0  0
  130.0896  132.5790  158.3661 C   0  0  0  0  0  0  0  0  0  0  0  0
  130.1378  131.2544  158.7612 C   0  0  0  0  0  0  0  0  0  0  0  0
  130.5095  130.2739  157.8600 C   0  0  0  0  0  0  0  0  0  0  0  0
  130.8344  130.6144  156.5614 C   0  0  0  0  0  0  0  0  0  0  0  0
  130.7871  131.9439  156.1612 C   0  0  0  0  0  0  0  0  0  0  0  0
  131.1149  132.2919  154.8484 N   0  0  0  0  0  0  0  0  0  0  0  0
  130.8840  131.3888  153.8078 C   0  0  0  0  0  0  0  0  0  0  0  0
  129.5953  130.9341  153.5541 C   0  0  0  0  0  0  0  0  0  0  0  0
  129.3666  130.0452  152.5221 C   0  0  0  0  0  0  0  0  0  0  0  0
  130.4192  129.5970  151.7465 C   0  0  0  0  0  0  0  0  0  0  0  0
  131.7088  130.0434  151.9983 C   0  0  0  0  0  0  0  0  0  0  0  0
  132.7425  129.6016  151.2347 O   0  0  0  0  0  0  0  0  0  0  0  0
  131.9420  130.9399  153.0294 C   0  0  0  0  0  0  0  0  0  0  0  0
  130.4075  132.9260  157.0679 C   0  0  0  0  0  0  0  0  0  0  0  0
  131.9774  133.9200  159.9966 C   0  0  0  0  0  0  0  0  0  0  0  0
  133.1235  134.9239  160.1388 C   0  0  0  0  0  0  0  0  0  0  0  0
  134.3486  135.4228  163.8876 H   0  0  0  0  0  0  0  0  0  0  0  0
  133.7576  136.9396  164.6075 H   0  0  0  0  0  0  0  0  0  0  0  0
  132.7147  136.0137  163.5014 H   0  0  0  0  0  0  0  0  0  0  0  0
  135.7413  138.1252  163.7263 H   0  0  0  0  0  0  0  0  0  0  0  0
  136.6429  139.3930  161.8197 H   0  0  0  0  0  0  0  0  0  0  0  0
  135.7115  139.0637  159.5656 H   0  0  0  0  0  0  0  0  0  0  0  0
  133.8744  137.4648  159.2122 H   0  0  0  0  0  0  0  0  0  0  0  0
  131.7094  137.1373  159.6483 H   0  0  0  0  0  0  0  0  0  0  0  0
  131.2273  137.4306  161.3369 H   0  0  0  0  0  0  0  0  0  0  0  0
  129.4848  136.1536  160.1076 H   0  0  0  0  0  0  0  0  0  0  0  0
  130.1791  135.1909  161.4340 H   0  0  0  0  0  0  0  0  0  0  0  0
  127.0983  133.0095  159.8098 H   0  0  0  0  0  0  0  0  0  0  0  0
  125.0885  134.1615  158.9751 H   0  0  0  0  0  0  0  0  0  0  0  0
  125.3154  136.1530  157.5447 H   0  0  0  0  0  0  0  0  0  0  0  0
  127.5523  136.9919  156.9486 H   0  0  0  0  0  0  0  0  0  0  0  0
  129.5623  135.8392  157.7820 H   0  0  0  0  0  0  0  0  0  0  0  0
  129.8840  130.9853  159.7758 H   0  0  0  0  0  0  0  0  0  0  0  0
  130.5458  129.2405  158.1717 H   0  0  0  0  0  0  0  0  0  0  0  0
  131.1244  129.8481  155.8579 H   0  0  0  0  0  0  0  0  0  0  0  0
  131.5030  133.1606  154.6595 H   0  0  0  0  0  0  0  0  0  0  0  0
  128.7718  131.2790  154.1618 H   0  0  0  0  0  0  0  0  0  0  0  0
  128.3640  129.6962  152.3238 H   0  0  0  0  0  0  0  0  0  0  0  0
  130.2376  128.8986  150.9429 H   0  0  0  0  0  0  0  0  0  0  0  0
  132.4818  128.9797  150.5419 H   0  0  0  0  0  0  0  0  0  0  0  0
  132.9450  131.2887  153.2266 H   0  0  0  0  0  0  0  0  0  0  0  0
  130.3652  133.9599  156.7588 H   0  0  0  0  0  0  0  0  0  0  0  0
  131.7657  133.4699  160.9666 H   0  0  0  0  0  0  0  0  0  0  0  0
  132.2626  133.1410  159.2895 H   0  0  0  0  0  0  0  0  0  0  0  0
  133.3443  135.3642  159.1665 H   0  0  0  0  0  0  0  0  0  0  0  0
  134.0094  134.4138  160.5169 H   0  0  0  0  0  0  0  0  0  0  0  0
  1  2  1  0
  1 37  1  0
  1 38  1  0
  1 39  1  0
  2  7  2  0
  2  3  1  0
  3  4  2  0
  3 40  1  0
  4  5  1  0
  4 41  1  0
  5  6  2  0
  5 42  1  0
  6  7  1  0
  6 43  1  0
  7  8  1  0
  8 36  1  0
  8  9  1  0
  9 10  1  0
  9 44  1  0
  9 45  1  0
 10 11  1  0
 10 46  1  0
 10 47  1  0
 11 12  1  0
 11 13  1  0
 11 35  1  0
 13 14  1  1
 13 15  1  0
 13 21  1  0
 15 20  1  0
 15 16  2  0
 16 17  1  0
 16 48  1  0
 17 18  2  0
 17 49  1  0
 18 19  1  0
 18 50  1  0
 19 20  2  0
 19 51  1  0
 20 52  1  0
 21 34  1  0
 21 22  2  0
 22 23  1  0
 22 53  1  0
 23 24  2  0
 23 54  1  0
 24 25  1  0
 24 55  1  0
 25 26  1  0
 25 34  2  0
 26 27  1  0
 26 56  1  0
 27 33  1  0
 27 28  2  0
 28 29  1  0
 28 57  1  0
 29 30  2  0
 29 58  1  0
 30 31  1  0
 30 59  1  0
 31 32  1  0
 31 33  2  0
 32 60  1  0
 33 61  1  0
 34 62  1  0
 35 36  1  0
 35 63  1  0
 35 64  1  0
 36 65  1  0
 36 66  1  0
M  CHG  1  11   1
M  END
>  <DOCK_score>  (1) 
-57.859772

>  <SMILES>  (1) 
Cc1ccccc1N1CC[NH+]([C@@H](c2ccccc2)c2cccc(Nc3cccc(O)c3)c2)CC1

$$$$
