CCc1ccc(C[C@H](Cc2ccnn2C)Nc2[nH]cc(-c3ccc(CC)cc3)[nH+]2)cc1
     RDKit          3D

 63 66  0  0  1  0  0  0  0  0999 V2000
  126.9758  136.3825  166.5444 C   0  0  0  0  0  0  0  0  0  0  0  0
  126.7368  137.6752  165.7617 C   0  0  0  0  0  0  0  0  0  0  0  0
  127.2305  137.5050  164.3480 C   0  0  0  0  0  0  0  0  0  0  0  0
  126.3771  137.0281  163.3707 C   0  0  0  0  0  0  0  0  0  0  0  0
  126.8300  136.8716  162.0741 C   0  0  0  0  0  0  0  0  0  0  0  0
  128.1364  137.1919  161.7549 C   0  0  0  0  0  0  0  0  0  0  0  0
  128.6303  137.0208  160.3414 C   0  0  0  0  0  0  0  0  0  0  0  0
  129.1970  135.6104  160.1664 C   0  0  2  0  0  0  0  0  0  0  0  0
  128.4163  134.8774  160.3698 H   0  0  0  0  0  0  0  0  0  0  0  0
  130.3580  135.4027  161.1412 C   0  0  0  0  0  0  0  0  0  0  0  0
  130.9161  134.0135  160.9689 C   0  0  0  0  0  0  0  0  0  0  0  0
  131.9144  133.6532  160.1295 C   0  0  0  0  0  0  0  0  0  0  0  0
  132.1261  132.2786  160.2773 C   0  0  0  0  0  0  0  0  0  0  0  0
  131.2850  131.8296  161.1734 N   0  0  0  0  0  0  0  0  0  0  0  0
  130.5139  132.9070  161.6284 N   0  0  0  0  0  0  0  0  0  0  0  0
  129.4555  132.8433  162.6394 C   0  0  0  0  0  0  0  0  0  0  0  0
  129.6772  135.4441  158.7925 N   0  0  0  0  0  0  0  0  0  0  0  0
  129.6502  134.1949  158.1962 C   0  0  0  0  0  0  0  0  0  0  0  0
  129.2080  133.0476  158.7794 N   0  0  0  0  0  0  0  0  0  0  0  0
  128.8582  132.9586  159.6798 H   0  0  0  0  0  0  0  0  0  0  0  0
  129.3479  132.0389  157.8575 C   0  0  0  0  0  0  0  0  0  0  0  0
  129.8710  132.5982  156.7384 C   0  0  0  0  0  0  0  0  0  0  0  0
  130.1955  131.8879  155.4773 C   0  0  0  0  0  0  0  0  0  0  0  0
  130.1249  132.5596  154.2580 C   0  0  0  0  0  0  0  0  0  0  0  0
  130.4282  131.8938  153.0879 C   0  0  0  0  0  0  0  0  0  0  0  0
  130.8021  130.5630  153.1232 C   0  0  0  0  0  0  0  0  0  0  0  0
  131.1329  129.8411  151.8424 C   0  0  0  0  0  0  0  0  0  0  0  0
  129.8619  129.2109  151.2695 C   0  0  0  0  0  0  0  0  0  0  0  0
  130.8687  129.8893  154.3302 C   0  0  0  0  0  0  0  0  0  0  0  0
  130.5725  130.5464  155.5071 C   0  0  0  0  0  0  0  0  0  0  0  0
  130.0507  133.9215  156.9785 N   0  0  0  0  0  0  0  0  0  0  0  0
  130.4148  134.5630  156.3487 H   0  0  0  0  0  0  0  0  0  0  0  0
  128.9911  137.6639  162.7334 C   0  0  0  0  0  0  0  0  0  0  0  0
  128.5368  137.8253  164.0289 C   0  0  0  0  0  0  0  0  0  0  0  0
  128.0421  136.1571  166.5566 H   0  0  0  0  0  0  0  0  0  0  0  0
  126.6187  136.5055  167.5670 H   0  0  0  0  0  0  0  0  0  0  0  0
  126.4368  135.5639  166.0675 H   0  0  0  0  0  0  0  0  0  0  0  0
  127.2759  138.4938  166.2387 H   0  0  0  0  0  0  0  0  0  0  0  0
  125.6704  137.9007  165.7495 H   0  0  0  0  0  0  0  0  0  0  0  0
  125.3567  136.7775  163.6201 H   0  0  0  0  0  0  0  0  0  0  0  0
  126.1635  136.4987  161.3104 H   0  0  0  0  0  0  0  0  0  0  0  0
  129.4110  137.7539  160.1381 H   0  0  0  0  0  0  0  0  0  0  0  0
  127.8033  137.1688  159.6471 H   0  0  0  0  0  0  0  0  0  0  0  0
  131.1387  136.1357  160.9378 H   0  0  0  0  0  0  0  0  0  0  0  0
  130.0006  135.5265  162.1635 H   0  0  0  0  0  0  0  0  0  0  0  0
  132.4528  134.3111  159.4632 H   0  0  0  0  0  0  0  0  0  0  0  0
  132.8578  131.6895  159.7444 H   0  0  0  0  0  0  0  0  0  0  0  0
  128.5010  132.6402  162.1538 H   0  0  0  0  0  0  0  0  0  0  0  0
  129.6788  132.0468  163.3493 H   0  0  0  0  0  0  0  0  0  0  0  0
  129.3993  133.7952  163.1671 H   0  0  0  0  0  0  0  0  0  0  0  0
  130.0142  136.2091  158.3005 H   0  0  0  0  0  0  0  0  0  0  0  0
  129.0904  130.9993  157.9972 H   0  0  0  0  0  0  0  0  0  0  0  0
  129.8329  133.5990  154.2291 H   0  0  0  0  0  0  0  0  0  0  0  0
  130.3738  132.4133  152.1426 H   0  0  0  0  0  0  0  0  0  0  0  0
  131.8666  129.0606  152.0438 H   0  0  0  0  0  0  0  0  0  0  0  0
  131.5438  130.5490  151.1224 H   0  0  0  0  0  0  0  0  0  0  0  0
  129.1283  129.9913  151.0681 H   0  0  0  0  0  0  0  0  0  0  0  0
  130.1011  128.6890  150.3429 H   0  0  0  0  0  0  0  0  0  0  0  0
  129.4510  128.5030  151.9894 H   0  0  0  0  0  0  0  0  0  0  0  0
  131.1568  128.8486  154.3517 H   0  0  0  0  0  0  0  0  0  0  0  0
  130.6292  130.0212  156.4491 H   0  0  0  0  0  0  0  0  0  0  0  0
  130.0130  137.9100  162.4848 H   0  0  0  0  0  0  0  0  0  0  0  0
  129.2035  138.1976  164.7926 H   0  0  0  0  0  0  0  0  0  0  0  0
  1  2  1  0
  1 35  1  0
  1 36  1  0
  1 37  1  0
  2  3  1  0
  2 38  1  0
  2 39  1  0
  3 34  2  0
  3  4  1  0
  4  5  2  0
  4 40  1  0
  5  6  1  0
  5 41  1  0
  6  7  1  0
  6 33  2  0
  7  8  1  0
  7 42  1  0
  7 43  1  0
  8  9  1  1
  8 10  1  0
  8 17  1  0
 10 11  1  0
 10 44  1  0
 10 45  1  0
 11 15  1  0
 11 12  2  0
 12 13  1  0
 12 46  1  0
 13 14  2  0
 13 47  1  0
 14 15  1  0
 15 16  1  0
 16 48  1  0
 16 49  1  0
 16 50  1  0
 17 51  1  0
 18 17  1  0
 18 31  2  0
 18 19  1  0
 19 20  1  0
 19 21  1  0
 21 22  2  0
 21 52  1  0
 22 23  1  0
 22 31  1  0
 23 30  1  0
 23 24  2  0
 24 25  1  0
 24 53  1  0
 25 26  2  0
 25 54  1  0
 26 27  1  0
 26 29  1  0
 27 28  1  0
 27 55  1  0
 27 56  1  0
 28 57  1  0
 28 58  1  0
 28 59  1  0
 29 30  2  0
 29 60  1  0
 30 61  1  0
 31 32  1  0
 33 34  1  0
 33 62  1  0
 34 63  1  0
M  CHG  1  31   1
M  END
>  <DOCK_score>  (1) 
-56.145538

>  <SMILES>  (1) 
CCc1ccc(C[C@H](Cc2ccnn2C)Nc2[nH]cc(-c3ccc(CC)cc3)[nH+]2)cc1

$$$$
