C[C@@H](Cc1ccccc1Cl)NC(NC1CC=CC1)=[NH+]C1CNCC1N
     RDKit          3D

 54 56  0  0  1  0  0  0  0  0999 V2000
  131.3386  133.1561  161.2249 C   0  0  0  0  0  0  0  0  0  0  0  0
  131.5701  134.3908  160.3513 C   0  0  1  0  0  0  0  0  0  0  0  0
  131.0474  135.2444  160.7828 H   0  0  0  0  0  0  0  0  0  0  0  0
  133.0684  134.6924  160.2813 C   0  0  0  0  0  0  0  0  0  0  0  0
  133.4939  135.4171  161.5322 C   0  0  0  0  0  0  0  0  0  0  0  0
  133.9192  134.7008  162.6353 C   0  0  0  0  0  0  0  0  0  0  0  0
  134.3140  135.3654  163.7811 C   0  0  0  0  0  0  0  0  0  0  0  0
  134.2738  136.7468  163.8283 C   0  0  0  0  0  0  0  0  0  0  0  0
  133.8438  137.4637  162.7280 C   0  0  0  0  0  0  0  0  0  0  0  0
  133.4534  136.7990  161.5789 C   0  0  0  0  0  0  0  0  0  0  0  0
  132.9136  137.6990  160.1960 Cl  0  0  0  0  0  0  0  0  0  0  0  0
  131.0595  134.1367  159.0018 N   0  0  0  0  0  0  0  0  0  0  0  0
  129.7300  133.8416  158.8141 C   0  0  0  0  0  0  0  0  0  0  0  0
  129.3457  133.0356  157.7686 N   0  0  0  0  0  0  0  0  0  0  0  0
  130.3531  132.4914  156.8546 C   0  0  0  0  0  0  0  0  0  0  0  0
  129.7254  131.4629  155.8853 C   0  0  0  0  0  0  0  0  0  0  0  0
  130.7798  130.3925  155.7255 C   0  0  0  0  0  0  0  0  0  0  0  0
  131.6790  130.4742  156.6680 C   0  0  0  0  0  0  0  0  0  0  0  0
  131.3743  131.6126  157.6136 C   0  0  0  0  0  0  0  0  0  0  0  0
  128.8338  134.3258  159.6273 N   0  0  0  0  0  0  0  0  0  0  0  0
  129.1049  134.8944  160.3648 H   0  0  0  0  0  0  0  0  0  0  0  0
  127.4171  134.0111  159.4273 C   0  0  1  0  0  0  0  0  0  0  0  0
  127.1729  132.5023  159.6153 C   0  0  0  0  0  0  0  0  0  0  0  0
  126.2516  132.3514  160.7624 N   0  0  0  0  0  0  0  0  0  0  0  0
  125.4887  133.6235  160.8390 C   0  0  0  0  0  0  0  0  0  0  0  0
  126.5565  134.6976  160.5128 C   0  0  2  0  0  0  0  0  0  0  0  0
  125.9255  135.9141  159.9835 N   0  0  0  0  0  0  0  0  0  0  0  0
  131.7185  133.3453  162.2289 H   0  0  0  0  0  0  0  0  0  0  0  0
  130.2712  132.9413  161.2748 H   0  0  0  0  0  0  0  0  0  0  0  0
  131.8614  132.3026  160.7934 H   0  0  0  0  0  0  0  0  0  0  0  0
  133.6235  133.7582  160.1960 H   0  0  0  0  0  0  0  0  0  0  0  0
  133.2731  135.3173  159.4119 H   0  0  0  0  0  0  0  0  0  0  0  0
  133.9466  133.6216  162.6007 H   0  0  0  0  0  0  0  0  0  0  0  0
  134.6499  134.8055  164.6414 H   0  0  0  0  0  0  0  0  0  0  0  0
  134.5788  137.2654  164.7252 H   0  0  0  0  0  0  0  0  0  0  0  0
  133.8127  138.5425  162.7648 H   0  0  0  0  0  0  0  0  0  0  0  0
  131.6597  134.1768  158.2407 H   0  0  0  0  0  0  0  0  0  0  0  0
  128.4077  132.8273  157.6361 H   0  0  0  0  0  0  0  0  0  0  0  0
  130.8543  133.2896  156.3072 H   0  0  0  0  0  0  0  0  0  0  0  0
  128.8175  131.0403  156.3159 H   0  0  0  0  0  0  0  0  0  0  0  0
  129.5093  131.9297  154.9242 H   0  0  0  0  0  0  0  0  0  0  0  0
  130.7885  129.6568  154.9349 H   0  0  0  0  0  0  0  0  0  0  0  0
  132.5295  129.8147  156.7598 H   0  0  0  0  0  0  0  0  0  0  0  0
  132.2793  132.1810  157.8277 H   0  0  0  0  0  0  0  0  0  0  0  0
  130.9369  131.2343  158.5376 H   0  0  0  0  0  0  0  0  0  0  0  0
  127.0969  134.3252  158.4338 H   0  0  0  0  0  0  0  0  0  0  0  0
  126.7185  132.0849  158.7167 H   0  0  0  0  0  0  0  0  0  0  0  0
  128.1154  131.9972  159.8270 H   0  0  0  0  0  0  0  0  0  0  0  0
  126.7620  132.1839  161.6165 H   0  0  0  0  0  0  0  0  0  0  0  0
  124.6895  133.6379  160.0979 H   0  0  0  0  0  0  0  0  0  0  0  0
  125.0852  133.7703  161.8409 H   0  0  0  0  0  0  0  0  0  0  0  0
  127.1565  134.9251  161.3939 H   0  0  0  0  0  0  0  0  0  0  0  0
  125.3627  136.3656  160.6888 H   0  0  0  0  0  0  0  0  0  0  0  0
  126.6172  136.5479  159.6122 H   0  0  0  0  0  0  0  0  0  0  0  0
  1  2  1  0
  1 28  1  0
  1 29  1  0
  1 30  1  0
  2  3  1  1
  2  4  1  0
  2 12  1  0
  4  5  1  0
  4 31  1  0
  4 32  1  0
  5 10  1  0
  5  6  2  0
  6  7  1  0
  6 33  1  0
  7  8  2  0
  7 34  1  0
  8  9  1  0
  8 35  1  0
  9 10  2  0
  9 36  1  0
 10 11  1  0
 12 37  1  0
 13 12  1  0
 13 14  1  0
 13 20  2  0
 14 15  1  0
 14 38  1  0
 15 19  1  0
 15 16  1  0
 15 39  1  0
 16 17  1  0
 16 40  1  0
 16 41  1  0
 17 18  2  0
 17 42  1  0
 18 19  1  0
 18 43  1  0
 19 44  1  0
 19 45  1  0
 20 21  1  0
 20 22  1  0
 22 26  1  0
 22 23  1  0
 22 46  1  6
 23 24  1  0
 23 47  1  0
 23 48  1  0
 24 25  1  0
 24 49  1  0
 25 26  1  0
 25 50  1  0
 25 51  1  0
 26 27  1  0
 26 52  1  1
 27 53  1  0
 27 54  1  0
M  CHG  1  20   1
M  END
>  <DOCK_score>  (1) 
-46.028961

>  <SMILES>  (1) 
C[C@@H](Cc1ccccc1Cl)NC(NC1CC=CC1)=[NH+]C1CNCC1N

$$$$
