c1ccc(C[C@H](Cc2cccc3ccccc23)N2CC[NH+](Cc3cccc4ccccc34)CC2)nc1
     RDKit          3D

 70 75  0  0  1  0  0  0  0  0999 V2000
  136.2883  141.0943  161.4141 C   0  0  0  0  0  0  0  0  0  0  0  0
  135.2961  141.1860  160.4497 C   0  0  0  0  0  0  0  0  0  0  0  0
  134.4951  140.0782  160.2198 C   0  0  0  0  0  0  0  0  0  0  0  0
  134.7106  138.9270  160.9541 C   0  0  0  0  0  0  0  0  0  0  0  0
  133.8463  137.7166  160.7122 C   0  0  0  0  0  0  0  0  0  0  0  0
  132.6242  137.7706  161.6311 C   0  0  2  0  0  0  0  0  0  0  0  0
  132.2565  138.7953  161.6868 H   0  0  0  0  0  0  0  0  0  0  0  0
  133.0168  137.2931  163.0307 C   0  0  0  0  0  0  0  0  0  0  0  0
  131.8130  137.3464  163.9358 C   0  0  0  0  0  0  0  0  0  0  0  0
  130.9954  136.2642  164.0513 C   0  0  0  0  0  0  0  0  0  0  0  0
  129.8786  136.2946  164.8838 C   0  0  0  0  0  0  0  0  0  0  0  0
  129.5723  137.4074  165.6055 C   0  0  0  0  0  0  0  0  0  0  0  0
  130.3928  138.5441  165.5119 C   0  0  0  0  0  0  0  0  0  0  0  0
  130.1087  139.7115  166.2412 C   0  0  0  0  0  0  0  0  0  0  0  0
  130.9258  140.7935  166.1252 C   0  0  0  0  0  0  0  0  0  0  0  0
  132.0429  140.7633  165.2921 C   0  0  0  0  0  0  0  0  0  0  0  0
  132.3489  139.6509  164.5705 C   0  0  0  0  0  0  0  0  0  0  0  0
  131.5323  138.5113  164.6695 C   0  0  0  0  0  0  0  0  0  0  0  0
  131.5693  136.9004  161.0948 N   0  0  0  0  0  0  0  0  0  0  0  0
  132.1243  135.6164  160.6438 C   0  0  0  0  0  0  0  0  0  0  0  0
  130.9883  134.7187  160.1488 C   0  0  0  0  0  0  0  0  0  0  0  0
  130.2850  135.3830  159.0435 N   0  0  0  0  0  0  0  0  0  0  0  0
  130.9347  135.5647  158.2931 H   0  0  0  0  0  0  0  0  0  0  0  0
  129.2060  134.5131  158.5568 C   0  0  0  0  0  0  0  0  0  0  0  0
  129.7819  133.4608  157.6446 C   0  0  0  0  0  0  0  0  0  0  0  0
  129.8795  133.6938  156.3071 C   0  0  0  0  0  0  0  0  0  0  0  0
  130.4135  132.7349  155.4488 C   0  0  0  0  0  0  0  0  0  0  0  0
  130.8440  131.5332  155.9216 C   0  0  0  0  0  0  0  0  0  0  0  0
  130.7544  131.2543  157.2958 C   0  0  0  0  0  0  0  0  0  0  0  0
  131.1892  130.0253  157.8209 C   0  0  0  0  0  0  0  0  0  0  0  0
  131.0873  129.7903  159.1574 C   0  0  0  0  0  0  0  0  0  0  0  0
  130.5569  130.7513  160.0166 C   0  0  0  0  0  0  0  0  0  0  0  0
  130.1264  131.9526  159.5442 C   0  0  0  0  0  0  0  0  0  0  0  0
  130.2155  132.2317  158.1696 C   0  0  0  0  0  0  0  0  0  0  0  0
  129.7154  136.6519  159.5157 C   0  0  0  0  0  0  0  0  0  0  0  0
  130.8409  137.5657  160.0053 C   0  0  0  0  0  0  0  0  0  0  0  0
  135.6640  138.8759  161.8634 N   0  0  0  0  0  0  0  0  0  0  0  0
  136.4486  139.9082  162.1047 C   0  0  0  0  0  0  0  0  0  0  0  0
  136.9308  141.9378  161.6194 H   0  0  0  0  0  0  0  0  0  0  0  0
  135.1504  142.0989  159.8914 H   0  0  0  0  0  0  0  0  0  0  0  0
  133.7128  140.1138  159.4761 H   0  0  0  0  0  0  0  0  0  0  0  0
  133.5190  137.7057  159.6727 H   0  0  0  0  0  0  0  0  0  0  0  0
  134.4191  136.8133  160.9223 H   0  0  0  0  0  0  0  0  0  0  0  0
  133.3844  136.2685  162.9751 H   0  0  0  0  0  0  0  0  0  0  0  0
  133.7996  137.9389  163.4287 H   0  0  0  0  0  0  0  0  0  0  0  0
  131.2158  135.3686  163.4894 H   0  0  0  0  0  0  0  0  0  0  0  0
  129.2460  135.4223  164.9573 H   0  0  0  0  0  0  0  0  0  0  0  0
  128.7033  137.4166  166.2465 H   0  0  0  0  0  0  0  0  0  0  0  0
  129.2462  139.7497  166.8902 H   0  0  0  0  0  0  0  0  0  0  0  0
  130.7053  141.6893  166.6867 H   0  0  0  0  0  0  0  0  0  0  0  0
  132.6748  141.6360  165.2178 H   0  0  0  0  0  0  0  0  0  0  0  0
  133.2178  139.6419  163.9290 H   0  0  0  0  0  0  0  0  0  0  0  0
  132.8304  135.7906  159.8318 H   0  0  0  0  0  0  0  0  0  0  0  0
  132.6369  135.1302  161.4738 H   0  0  0  0  0  0  0  0  0  0  0  0
  130.2897  134.5336  160.9647 H   0  0  0  0  0  0  0  0  0  0  0  0
  131.3994  133.7711  159.8006 H   0  0  0  0  0  0  0  0  0  0  0  0
  128.7174  134.0317  159.4039 H   0  0  0  0  0  0  0  0  0  0  0  0
  128.4775  135.1102  158.0084 H   0  0  0  0  0  0  0  0  0  0  0  0
  129.5414  134.6377  155.9056 H   0  0  0  0  0  0  0  0  0  0  0  0
  130.4831  132.9466  154.3920 H   0  0  0  0  0  0  0  0  0  0  0  0
  131.2528  130.7981  155.2441 H   0  0  0  0  0  0  0  0  0  0  0  0
  131.6015  129.2711  157.1670 H   0  0  0  0  0  0  0  0  0  0  0  0
  131.4222  128.8451  159.5583 H   0  0  0  0  0  0  0  0  0  0  0  0
  130.4871  130.5392  161.0733 H   0  0  0  0  0  0  0  0  0  0  0  0
  129.7184  132.6878  160.2220 H   0  0  0  0  0  0  0  0  0  0  0  0
  129.0233  136.4569  160.3349 H   0  0  0  0  0  0  0  0  0  0  0  0
  129.1828  137.1375  158.6979 H   0  0  0  0  0  0  0  0  0  0  0  0
  130.4170  138.5016  160.3695 H   0  0  0  0  0  0  0  0  0  0  0  0
  131.5258  137.7720  159.1828 H   0  0  0  0  0  0  0  0  0  0  0  0
  137.2222  139.8271  162.8539 H   0  0  0  0  0  0  0  0  0  0  0  0
  1 38  2  0
  1  2  1  0
  1 39  1  0
  2  3  2  0
  2 40  1  0
  3  4  1  0
  3 41  1  0
  4  5  1  0
  4 37  2  0
  5  6  1  0
  5 42  1  0
  5 43  1  0
  6  7  1  1
  6  8  1  0
  6 19  1  0
  8  9  1  0
  8 44  1  0
  8 45  1  0
  9 18  1  0
  9 10  2  0
 10 11  1  0
 10 46  1  0
 11 12  2  0
 11 47  1  0
 12 13  1  0
 12 48  1  0
 13 18  2  0
 13 14  1  0
 14 15  2  0
 14 49  1  0
 15 16  1  0
 15 50  1  0
 16 17  2  0
 16 51  1  0
 17 18  1  0
 17 52  1  0
 19 36  1  0
 19 20  1  0
 20 21  1  0
 20 53  1  0
 20 54  1  0
 21 22  1  0
 21 55  1  0
 21 56  1  0
 22 23  1  0
 22 24  1  0
 22 35  1  0
 24 25  1  0
 24 57  1  0
 24 58  1  0
 25 34  1  0
 25 26  2  0
 26 27  1  0
 26 59  1  0
 27 28  2  0
 27 60  1  0
 28 29  1  0
 28 61  1  0
 29 34  2  0
 29 30  1  0
 30 31  2  0
 30 62  1  0
 31 32  1  0
 31 63  1  0
 32 33  2  0
 32 64  1  0
 33 34  1  0
 33 65  1  0
 35 36  1  0
 35 66  1  0
 35 67  1  0
 36 68  1  0
 36 69  1  0
 37 38  1  0
 38 70  1  0
M  CHG  1  22   1
M  END
>  <DOCK_score>  (1) 
-56.311493

>  <SMILES>  (1) 
c1ccc(C[C@H](Cc2cccc3ccccc23)N2CC[NH+](Cc3cccc4ccccc34)CC2)nc1

$$$$
