O=C(/C=C/[C@H](Nc1[nH]cc(C2CC2)[nH+]1)c1ccccc1)OCC1CC=CC1
     RDKit          3D

 53 56  0  0  1  0  0  0  0  0999 V2000
  130.6768  139.3076  161.1539 O   0  0  0  0  0  0  0  0  0  0  0  0
  131.5518  138.5339  160.8184 C   0  0  0  0  0  0  0  0  0  0  0  0
  131.2004  137.1886  160.3426 C   0  0  0  0  0  0  0  0  0  0  0  0
  129.9238  136.8177  160.2792 C   0  0  0  0  0  0  0  0  0  0  0  0
  129.5633  135.4383  159.7911 C   0  0  2  0  0  0  0  0  0  0  0  0
  130.0225  134.6920  160.4395 H   0  0  0  0  0  0  0  0  0  0  0  0
  130.0516  135.2618  158.4213 N   0  0  0  0  0  0  0  0  0  0  0  0
  129.8367  134.0649  157.7583 C   0  0  0  0  0  0  0  0  0  0  0  0
  129.1951  132.9782  158.2661 N   0  0  0  0  0  0  0  0  0  0  0  0
  128.8067  132.8992  159.1515 H   0  0  0  0  0  0  0  0  0  0  0  0
  129.1992  132.0130  157.2846 C   0  0  0  0  0  0  0  0  0  0  0  0
  129.8425  132.5337  156.2259 C   0  0  0  0  0  0  0  0  0  0  0  0
  130.0951  131.8340  154.9154 C   0  0  0  0  0  0  0  0  0  0  0  0
  131.2812  130.8699  154.8463 C   0  0  0  0  0  0  0  0  0  0  0  0
  131.3536  132.2239  154.1374 C   0  0  0  0  0  0  0  0  0  0  0  0
  130.2225  133.7848  156.5360 N   0  0  0  0  0  0  0  0  0  0  0  0
  130.7058  134.3865  155.9484 H   0  0  0  0  0  0  0  0  0  0  0  0
  128.0657  135.2721  159.8161 C   0  0  0  0  0  0  0  0  0  0  0  0
  127.4433  134.7826  160.9492 C   0  0  0  0  0  0  0  0  0  0  0  0
  126.0695  134.6310  160.9723 C   0  0  0  0  0  0  0  0  0  0  0  0
  125.3181  134.9692  159.8624 C   0  0  0  0  0  0  0  0  0  0  0  0
  125.9404  135.4592  158.7295 C   0  0  0  0  0  0  0  0  0  0  0  0
  127.3144  135.6095  158.7059 C   0  0  0  0  0  0  0  0  0  0  0  0
  132.8449  138.9095  160.8827 O   0  0  0  0  0  0  0  0  0  0  0  0
  133.1180  140.2525  161.3623 C   0  0  0  0  0  0  0  0  0  0  0  0
  134.6286  140.4956  161.3653 C   0  0  0  0  0  0  0  0  0  0  0  0
  135.2483  140.1555  159.9901 C   0  0  0  0  0  0  0  0  0  0  0  0
  136.5861  139.5325  160.3150 C   0  0  0  0  0  0  0  0  0  0  0  0
  136.6424  139.1666  161.5666 C   0  0  0  0  0  0  0  0  0  0  0  0
  135.3517  139.4845  162.2851 C   0  0  0  0  0  0  0  0  0  0  0  0
  131.9779  136.5010  160.0443 H   0  0  0  0  0  0  0  0  0  0  0  0
  129.1462  137.5053  160.5774 H   0  0  0  0  0  0  0  0  0  0  0  0
  130.5254  135.9832  157.9785 H   0  0  0  0  0  0  0  0  0  0  0  0
  128.7701  131.0243  157.3535 H   0  0  0  0  0  0  0  0  0  0  0  0
  129.2054  131.5800  154.3388 H   0  0  0  0  0  0  0  0  0  0  0  0
  131.8788  130.7418  155.7487 H   0  0  0  0  0  0  0  0  0  0  0  0
  131.1721  129.9814  154.2244 H   0  0  0  0  0  0  0  0  0  0  0  0
  131.2920  132.2261  153.0491 H   0  0  0  0  0  0  0  0  0  0  0  0
  131.9988  132.9864  154.5735 H   0  0  0  0  0  0  0  0  0  0  0  0
  128.0304  134.5189  161.8165 H   0  0  0  0  0  0  0  0  0  0  0  0
  125.5833  134.2486  161.8575 H   0  0  0  0  0  0  0  0  0  0  0  0
  124.2451  134.8467  159.8789 H   0  0  0  0  0  0  0  0  0  0  0  0
  125.3533  135.7232  157.8623 H   0  0  0  0  0  0  0  0  0  0  0  0
  127.8006  135.9922  157.8208 H   0  0  0  0  0  0  0  0  0  0  0  0
  132.6347  140.9775  160.7075 H   0  0  0  0  0  0  0  0  0  0  0  0
  132.7304  140.3625  162.3752 H   0  0  0  0  0  0  0  0  0  0  0  0
  134.8571  141.5211  161.6554 H   0  0  0  0  0  0  0  0  0  0  0  0
  134.6184  139.4448  159.4550 H   0  0  0  0  0  0  0  0  0  0  0  0
  135.3848  141.0620  159.4004 H   0  0  0  0  0  0  0  0  0  0  0  0
  137.3901  139.4069  159.6050 H   0  0  0  0  0  0  0  0  0  0  0  0
  137.4992  138.6983  162.0283 H   0  0  0  0  0  0  0  0  0  0  0  0
  135.5585  139.9348  163.2560 H   0  0  0  0  0  0  0  0  0  0  0  0
  134.7513  138.5825  162.4040 H   0  0  0  0  0  0  0  0  0  0  0  0
  1  2  2  0
  2  3  1  0
  2 24  1  0
  3  4  2  0
  3 31  1  0
  4  5  1  0
  4 32  1  0
  5  6  1  1
  5  7  1  0
  5 18  1  0
  7 33  1  0
  8  7  1  0
  8 16  2  0
  8  9  1  0
  9 10  1  0
  9 11  1  0
 11 12  2  0
 11 34  1  0
 12 13  1  0
 12 16  1  0
 13 15  1  0
 13 14  1  0
 13 35  1  0
 14 15  1  0
 14 36  1  0
 14 37  1  0
 15 38  1  0
 15 39  1  0
 16 17  1  0
 18 23  1  0
 18 19  2  0
 19 20  1  0
 19 40  1  0
 20 21  2  0
 20 41  1  0
 21 22  1  0
 21 42  1  0
 22 23  2  0
 22 43  1  0
 23 44  1  0
 24 25  1  0
 25 26  1  0
 25 45  1  0
 25 46  1  0
 26 30  1  0
 26 27  1  0
 26 47  1  0
 27 28  1  0
 27 48  1  0
 27 49  1  0
 28 29  2  0
 28 50  1  0
 29 30  1  0
 29 51  1  0
 30 52  1  0
 30 53  1  0
M  CHG  1  16   1
M  END
>  <DOCK_score>  (1) 
-56.926727

>  <SMILES>  (1) 
O=C(/C=C/[C@H](Nc1[nH]cc(C2CC2)[nH+]1)c1ccccc1)OCC1CC=CC1

$$$$
