c1ccc2[nH]c(Nc3ccc(-c4n[nH]cc4C[NH2+]CC4CC5C[C@@H]5C4)o3)nc2c1
     RDKit          3D

 54 59  0  0  1  0  0  0  0  0999 V2000
  129.7636  138.0894  166.0916 C   0  0  0  0  0  0  0  0  0  0  0  0
  128.6805  138.8489  166.5090 C   0  0  0  0  0  0  0  0  0  0  0  0
  127.4848  138.7970  165.8228 C   0  0  0  0  0  0  0  0  0  0  0  0
  127.3632  137.9808  164.7084 C   0  0  0  0  0  0  0  0  0  0  0  0
  126.3338  137.7142  163.8210 N   0  0  0  0  0  0  0  0  0  0  0  0
  125.4425  138.0963  163.8423 H   0  0  0  0  0  0  0  0  0  0  0  0
  126.8066  136.8110  162.9120 C   0  0  0  0  0  0  0  0  0  0  0  0
  126.0798  136.2885  161.8615 N   0  0  0  0  0  0  0  0  0  0  0  0
  126.6723  135.3810  160.9891 C   0  0  0  0  0  0  0  0  0  0  0  0
  126.0320  134.3869  160.3249 C   0  0  0  0  0  0  0  0  0  0  0  0
  127.0022  133.7149  159.5559 C   0  0  0  0  0  0  0  0  0  0  0  0
  128.1905  134.3297  159.7965 C   0  0  0  0  0  0  0  0  0  0  0  0
  129.4928  133.9574  159.2063 C   0  0  0  0  0  0  0  0  0  0  0  0
  129.7078  132.9692  158.3603 N   0  0  0  0  0  0  0  0  0  0  0  0
  131.0722  132.9565  158.0443 N   0  0  0  0  0  0  0  0  0  0  0  0
  131.5110  132.3354  157.4422 H   0  0  0  0  0  0  0  0  0  0  0  0
  131.6724  133.9556  158.7270 C   0  0  0  0  0  0  0  0  0  0  0  0
  130.7284  134.5922  159.4529 C   0  0  0  0  0  0  0  0  0  0  0  0
  130.9546  135.7706  160.3643 C   0  0  0  0  0  0  0  0  0  0  0  0
  130.7959  137.0166  159.6024 N   0  0  0  0  0  0  0  0  0  0  0  0
  131.4683  137.0390  158.8505 H   0  0  0  0  0  0  0  0  0  0  0  0
  129.8629  137.0607  159.2205 H   0  0  0  0  0  0  0  0  0  0  0  0
  131.0161  138.1654  160.4910 C   0  0  0  0  0  0  0  0  0  0  0  0
  132.4308  138.0983  161.0700 C   0  0  2  0  0  0  0  0  0  0  0  0
  132.7546  139.3795  161.8780 C   0  0  0  0  0  0  0  0  0  0  0  0
  134.2951  139.4588  161.8602 C   0  0  2  0  0  0  0  0  0  0  0  0
  134.9684  140.1796  160.6906 C   0  0  0  0  0  0  0  0  0  0  0  0
  134.7619  138.6650  160.6275 C   0  0  2  0  0  0  0  0  0  0  0  0
  135.6301  138.0064  160.6572 H   0  0  0  0  0  0  0  0  0  0  0  0
  133.4888  138.1309  159.9391 C   0  0  0  0  0  0  0  0  0  0  0  0
  127.9767  135.3382  160.6671 O   0  0  0  0  0  0  0  0  0  0  0  0
  128.0546  136.5190  163.1827 N   0  0  0  0  0  0  0  0  0  0  0  0
  128.4568  137.2096  164.2813 C   0  0  0  0  0  0  0  0  0  0  0  0
  129.6610  137.2735  164.9873 C   0  0  0  0  0  0  0  0  0  0  0  0
  130.6947  138.1388  166.6368 H   0  0  0  0  0  0  0  0  0  0  0  0
  128.7739  139.4847  167.3771 H   0  0  0  0  0  0  0  0  0  0  0  0
  126.6452  139.3908  166.1530 H   0  0  0  0  0  0  0  0  0  0  0  0
  125.1572  136.5569  161.7292 H   0  0  0  0  0  0  0  0  0  0  0  0
  124.9782  134.1557  160.3746 H   0  0  0  0  0  0  0  0  0  0  0  0
  126.8347  132.8712  158.9030 H   0  0  0  0  0  0  0  0  0  0  0  0
  132.7234  134.2022  158.6974 H   0  0  0  0  0  0  0  0  0  0  0  0
  130.2280  135.7464  161.1765 H   0  0  0  0  0  0  0  0  0  0  0  0
  131.9624  135.7229  160.7768 H   0  0  0  0  0  0  0  0  0  0  0  0
  130.8984  139.0898  159.9256 H   0  0  0  0  0  0  0  0  0  0  0  0
  130.2897  138.1411  161.3032 H   0  0  0  0  0  0  0  0  0  0  0  0
  132.5523  137.2080  161.6870 H   0  0  0  0  0  0  0  0  0  0  0  0
  132.3219  140.2552  161.3942 H   0  0  0  0  0  0  0  0  0  0  0  0
  132.3891  139.2880  162.9007 H   0  0  0  0  0  0  0  0  0  0  0  0
  134.8183  139.3846  162.8135 H   0  0  0  0  0  0  0  0  0  0  0  0
  135.9852  140.5423  160.8420 H   0  0  0  0  0  0  0  0  0  0  0  0
  134.3386  140.7998  160.0531 H   0  0  0  0  0  0  0  0  0  0  0  0
  133.6590  137.1283  159.5470 H   0  0  0  0  0  0  0  0  0  0  0  0
  133.1736  138.8031  159.1411 H   0  0  0  0  0  0  0  0  0  0  0  0
  130.5084  136.6852  164.6677 H   0  0  0  0  0  0  0  0  0  0  0  0
  1 34  2  0
  1  2  1  0
  1 35  1  0
  2  3  2  0
  2 36  1  0
  3  4  1  0
  3 37  1  0
  4 33  2  0
  4  5  1  0
  5  6  1  0
  5  7  1  0
  7  8  1  0
  7 32  2  0
  8  9  1  0
  8 38  1  0
  9 31  1  0
  9 10  2  0
 10 11  1  0
 10 39  1  0
 11 12  2  0
 11 40  1  0
 12 13  1  0
 12 31  1  0
 13 18  1  0
 13 14  2  0
 14 15  1  0
 15 16  1  0
 15 17  1  0
 17 18  2  0
 17 41  1  0
 18 19  1  0
 19 20  1  0
 19 42  1  0
 19 43  1  0
 20 21  1  0
 20 22  1  0
 20 23  1  0
 23 24  1  0
 23 44  1  0
 23 45  1  0
 24 30  1  0
 24 25  1  0
 24 46  1  1
 25 26  1  0
 25 47  1  0
 25 48  1  0
 26 28  1  0
 26 27  1  0
 26 49  1  1
 27 28  1  0
 27 50  1  0
 27 51  1  0
 28 29  1  1
 28 30  1  0
 30 52  1  0
 30 53  1  0
 32 33  1  0
 33 34  1  0
 34 54  1  0
M  CHG  1  20   1
M  END
>  <DOCK_score>  (1) 
-46.084087

>  <SMILES>  (1) 
c1ccc2[nH]c(Nc3ccc(-c4n[nH]cc4C[NH2+]CC4CC5C[C@@H]5C4)o3)nc2c1

$$$$
