Cc1ccc([C@@H]([NH3+])c2cccc(NCCC3CCC3)c2)cc1
     RDKit          3D

 49 51  0  0  1  0  0  0  0  0999 V2000
  130.7032  129.1681  158.2378 C   0  0  0  0  0  0  0  0  0  0  0  0
  130.4411  130.6032  158.6159 C   0  0  0  0  0  0  0  0  0  0  0  0
  131.2930  131.6000  158.1783 C   0  0  0  0  0  0  0  0  0  0  0  0
  131.0525  132.9164  158.5251 C   0  0  0  0  0  0  0  0  0  0  0  0
  129.9601  133.2359  159.3093 C   0  0  0  0  0  0  0  0  0  0  0  0
  129.6981  134.6710  159.6877 C   0  0  1  0  0  0  0  0  0  0  0  0
  130.2071  134.8985  160.6243 H   0  0  0  0  0  0  0  0  0  0  0  0
  130.2015  135.5563  158.6291 N   0  0  0  0  0  0  0  0  0  0  0  0
  131.1940  135.4142  158.5156 H   0  0  0  0  0  0  0  0  0  0  0  0
  129.7303  135.3457  157.7620 H   0  0  0  0  0  0  0  0  0  0  0  0
  130.0262  136.5171  158.8825 H   0  0  0  0  0  0  0  0  0  0  0  0
  128.2157  134.8831  159.8572 C   0  0  0  0  0  0  0  0  0  0  0  0
  127.3593  134.6555  158.7953 C   0  0  0  0  0  0  0  0  0  0  0  0
  125.9981  134.8435  158.9482 C   0  0  0  0  0  0  0  0  0  0  0  0
  125.4902  135.2704  160.1596 C   0  0  0  0  0  0  0  0  0  0  0  0
  126.3479  135.5055  161.2265 C   0  0  0  0  0  0  0  0  0  0  0  0
  125.8375  135.9377  162.4527 N   0  0  0  0  0  0  0  0  0  0  0  0
  126.6281  135.7714  163.6747 C   0  0  0  0  0  0  0  0  0  0  0  0
  125.6890  135.5933  164.8694 C   0  0  0  0  0  0  0  0  0  0  0  0
  126.5147  135.4196  166.1457 C   0  0  0  0  0  0  0  0  0  0  0  0
  125.6614  135.2907  167.4187 C   0  0  0  0  0  0  0  0  0  0  0  0
  126.7105  136.1766  168.1149 C   0  0  0  0  0  0  0  0  0  0  0  0
  127.0408  136.7438  166.7242 C   0  0  0  0  0  0  0  0  0  0  0  0
  127.7145  135.3101  161.0711 C   0  0  0  0  0  0  0  0  0  0  0  0
  129.1110  132.2386  159.7513 C   0  0  0  0  0  0  0  0  0  0  0  0
  129.3482  130.9229  159.3998 C   0  0  0  0  0  0  0  0  0  0  0  0
  131.3388  128.7041  158.9919 H   0  0  0  0  0  0  0  0  0  0  0  0
  129.7575  128.6295  158.1783 H   0  0  0  0  0  0  0  0  0  0  0  0
  131.2030  129.1329  157.2699 H   0  0  0  0  0  0  0  0  0  0  0  0
  132.1468  131.3502  157.5658 H   0  0  0  0  0  0  0  0  0  0  0  0
  131.7183  133.6950  158.1834 H   0  0  0  0  0  0  0  0  0  0  0  0
  127.7545  134.3262  157.8456 H   0  0  0  0  0  0  0  0  0  0  0  0
  125.3318  134.6605  158.1182 H   0  0  0  0  0  0  0  0  0  0  0  0
  124.4273  135.4217  160.2770 H   0  0  0  0  0  0  0  0  0  0  0  0
  124.9595  136.3480  162.4950 H   0  0  0  0  0  0  0  0  0  0  0  0
  127.2647  134.8918  163.5787 H   0  0  0  0  0  0  0  0  0  0  0  0
  127.2487  136.6541  163.8289 H   0  0  0  0  0  0  0  0  0  0  0  0
  125.0524  136.4728  164.9654 H   0  0  0  0  0  0  0  0  0  0  0  0
  125.0683  134.7106  164.7153 H   0  0  0  0  0  0  0  0  0  0  0  0
  127.2799  134.6489  166.0532 H   0  0  0  0  0  0  0  0  0  0  0  0
  124.6805  135.7587  167.3360 H   0  0  0  0  0  0  0  0  0  0  0  0
  125.6153  134.2754  167.8124 H   0  0  0  0  0  0  0  0  0  0  0  0
  127.5290  135.6125  168.5619 H   0  0  0  0  0  0  0  0  0  0  0  0
  126.2804  136.9116  168.7952 H   0  0  0  0  0  0  0  0  0  0  0  0
  128.1067  136.8999  166.5581 H   0  0  0  0  0  0  0  0  0  0  0  0
  126.4385  137.6099  166.4500 H   0  0  0  0  0  0  0  0  0  0  0  0
  128.3842  135.4923  161.8985 H   0  0  0  0  0  0  0  0  0  0  0  0
  128.2599  132.4877  160.3678 H   0  0  0  0  0  0  0  0  0  0  0  0
  128.6824  130.1441  159.7415 H   0  0  0  0  0  0  0  0  0  0  0  0
  1  2  1  0
  1 27  1  0
  1 28  1  0
  1 29  1  0
  2 26  2  0
  2  3  1  0
  3  4  2  0
  3 30  1  0
  4  5  1  0
  4 31  1  0
  5  6  1  0
  5 25  2  0
  6  7  1  1
  6  8  1  0
  6 12  1  0
  8  9  1  0
  8 10  1  0
  8 11  1  0
 12 24  1  0
 12 13  2  0
 13 14  1  0
 13 32  1  0
 14 15  2  0
 14 33  1  0
 15 16  1  0
 15 34  1  0
 16 17  1  0
 16 24  2  0
 17 18  1  0
 17 35  1  0
 18 19  1  0
 18 36  1  0
 18 37  1  0
 19 20  1  0
 19 38  1  0
 19 39  1  0
 20 23  1  0
 20 21  1  0
 20 40  1  0
 21 22  1  0
 21 41  1  0
 21 42  1  0
 22 23  1  0
 22 43  1  0
 22 44  1  0
 23 45  1  0
 23 46  1  0
 24 47  1  0
 25 26  1  0
 25 48  1  0
 26 49  1  0
M  CHG  1   8   1
M  END
>  <DOCK_score>  (1) 
-41.538883

>  <SMILES>  (1) 
Cc1ccc([C@@H]([NH3+])c2cccc(NCCC3CCC3)c2)cc1

$$$$
