O=C1CC[C@H]([NH+]=C(NCc2cccc3ccccc23)NC2CC2)CN1
     RDKit          3D

 50 53  0  0  1  0  0  0  0  0999 V2000
  125.5163  136.9956  164.6790 O   0  0  0  0  0  0  0  0  0  0  0  0
  126.6034  137.0219  164.1420 C   0  0  0  0  0  0  0  0  0  0  0  0
  127.8269  136.9943  165.0123 C   0  0  0  0  0  0  0  0  0  0  0  0
  129.0446  137.4670  164.2141 C   0  0  0  0  0  0  0  0  0  0  0  0
  129.0741  136.7095  162.8811 C   0  0  2  0  0  0  0  0  0  0  0  0
  129.0107  135.6375  163.0681 H   0  0  0  0  0  0  0  0  0  0  0  0
  130.3197  137.0119  162.1716 N   0  0  0  0  0  0  0  0  0  0  0  0
  130.9691  137.6142  162.5669 H   0  0  0  0  0  0  0  0  0  0  0  0
  130.5551  136.4715  161.0090 C   0  0  0  0  0  0  0  0  0  0  0  0
  130.0390  135.2330  160.7095 N   0  0  0  0  0  0  0  0  0  0  0  0
  129.7088  134.8925  159.3235 C   0  0  0  0  0  0  0  0  0  0  0  0
  129.8801  133.4098  159.1159 C   0  0  0  0  0  0  0  0  0  0  0  0
  131.0815  132.9089  158.7173 C   0  0  0  0  0  0  0  0  0  0  0  0
  131.2588  131.5410  158.5207 C   0  0  0  0  0  0  0  0  0  0  0  0
  130.2358  130.6655  158.7215 C   0  0  0  0  0  0  0  0  0  0  0  0
  128.9811  131.1453  159.1333 C   0  0  0  0  0  0  0  0  0  0  0  0
  127.9014  130.2723  159.3511 C   0  0  0  0  0  0  0  0  0  0  0  0
  126.7048  130.7716  159.7649 C   0  0  0  0  0  0  0  0  0  0  0  0
  126.5276  132.1399  159.9620 C   0  0  0  0  0  0  0  0  0  0  0  0
  127.5486  133.0156  159.7560 C   0  0  0  0  0  0  0  0  0  0  0  0
  128.8022  132.5364  159.3384 C   0  0  0  0  0  0  0  0  0  0  0  0
  131.3195  137.1400  160.0823 N   0  0  0  0  0  0  0  0  0  0  0  0
  131.8696  138.4598  160.4012 C   0  0  0  0  0  0  0  0  0  0  0  0
  132.2652  139.3624  159.2309 C   0  0  0  0  0  0  0  0  0  0  0  0
  131.0172  139.6827  160.0562 C   0  0  0  0  0  0  0  0  0  0  0  0
  127.8808  137.1578  162.0366 C   0  0  0  0  0  0  0  0  0  0  0  0
  126.6483  137.0743  162.8102 N   0  0  0  0  0  0  0  0  0  0  0  0
  127.9976  135.9770  165.3646 H   0  0  0  0  0  0  0  0  0  0  0  0
  127.6774  137.6523  165.8682 H   0  0  0  0  0  0  0  0  0  0  0  0
  129.9551  137.2576  164.7754 H   0  0  0  0  0  0  0  0  0  0  0  0
  128.9669  138.5378  164.0260 H   0  0  0  0  0  0  0  0  0  0  0  0
  129.8935  134.5844  161.4161 H   0  0  0  0  0  0  0  0  0  0  0  0
  128.6755  135.1714  159.1172 H   0  0  0  0  0  0  0  0  0  0  0  0
  130.3727  135.4329  158.6486 H   0  0  0  0  0  0  0  0  0  0  0  0
  131.9094  133.5820  158.5506 H   0  0  0  0  0  0  0  0  0  0  0  0
  132.2222  131.1696  158.2039 H   0  0  0  0  0  0  0  0  0  0  0  0
  130.3879  129.6079  158.5648 H   0  0  0  0  0  0  0  0  0  0  0  0
  128.0240  129.2097  159.2023 H   0  0  0  0  0  0  0  0  0  0  0  0
  125.8778  130.0981  159.9351 H   0  0  0  0  0  0  0  0  0  0  0  0
  125.5653  132.5108  160.2829 H   0  0  0  0  0  0  0  0  0  0  0  0
  127.3964  134.0734  159.9120 H   0  0  0  0  0  0  0  0  0  0  0  0
  131.4946  136.7379  159.2171 H   0  0  0  0  0  0  0  0  0  0  0  0
  132.4791  138.5095  161.3036 H   0  0  0  0  0  0  0  0  0  0  0  0
  133.1349  140.0059  159.3633 H   0  0  0  0  0  0  0  0  0  0  0  0
  132.1163  138.9744  158.2233 H   0  0  0  0  0  0  0  0  0  0  0  0
  130.0474  139.5052  159.5916 H   0  0  0  0  0  0  0  0  0  0  0  0
  131.0661  140.5369  160.7316 H   0  0  0  0  0  0  0  0  0  0  0  0
  128.0344  138.1875  161.7138 H   0  0  0  0  0  0  0  0  0  0  0  0
  127.7993  136.5167  161.1589 H   0  0  0  0  0  0  0  0  0  0  0  0
  125.8080  137.0556  162.3260 H   0  0  0  0  0  0  0  0  0  0  0  0
  1  2  2  0
  2 27  1  0
  2  3  1  0
  3  4  1  0
  3 28  1  0
  3 29  1  0
  4  5  1  0
  4 30  1  0
  4 31  1  0
  5  6  1  1
  5  7  1  0
  5 26  1  0
  7  8  1  0
  9  7  2  0
  9 10  1  0
  9 22  1  0
 10 11  1  0
 10 32  1  0
 11 12  1  0
 11 33  1  0
 11 34  1  0
 12 21  1  0
 12 13  2  0
 13 14  1  0
 13 35  1  0
 14 15  2  0
 14 36  1  0
 15 16  1  0
 15 37  1  0
 16 21  2  0
 16 17  1  0
 17 18  2  0
 17 38  1  0
 18 19  1  0
 18 39  1  0
 19 20  2  0
 19 40  1  0
 20 21  1  0
 20 41  1  0
 22 23  1  0
 22 42  1  0
 23 25  1  0
 23 24  1  0
 23 43  1  0
 24 25  1  0
 24 44  1  0
 24 45  1  0
 25 46  1  0
 25 47  1  0
 26 27  1  0
 26 48  1  0
 26 49  1  0
 27 50  1  0
M  CHG  1   7   1
M  END
>  <DOCK_score>  (1) 
-42.006191

>  <SMILES>  (1) 
O=C1CC[C@H]([NH+]=C(NCc2cccc3ccccc23)NC2CC2)CN1

$$$$
