N#Cc1ccc(Nc2ccc(Nc3[nH]cc(-c4ccc(N)cc4)[nH+]3)cc2)cc1
     RDKit          3D

 47 50  0  0  1  0  0  0  0  0999 V2000
  128.6053  138.6320  168.1540 N   0  0  0  0  0  0  0  0  0  0  0  0
  128.2473  138.3176  167.1228 C   0  0  0  0  0  0  0  0  0  0  0  0
  127.7970  137.9210  165.8228 C   0  0  0  0  0  0  0  0  0  0  0  0
  128.2490  138.5991  164.6870 C   0  0  0  0  0  0  0  0  0  0  0  0
  127.8128  138.2158  163.4390 C   0  0  0  0  0  0  0  0  0  0  0  0
  126.9216  137.1548  163.3073 C   0  0  0  0  0  0  0  0  0  0  0  0
  126.4822  136.7702  162.0438 N   0  0  0  0  0  0  0  0  0  0  0  0
  127.4052  136.3454  161.0811 C   0  0  0  0  0  0  0  0  0  0  0  0
  126.9670  135.9665  159.8184 C   0  0  0  0  0  0  0  0  0  0  0  0
  127.8770  135.5431  158.8705 C   0  0  0  0  0  0  0  0  0  0  0  0
  129.2314  135.5056  159.1760 C   0  0  0  0  0  0  0  0  0  0  0  0
  130.1548  135.0808  158.2130 N   0  0  0  0  0  0  0  0  0  0  0  0
  130.0621  133.8058  157.6798 C   0  0  0  0  0  0  0  0  0  0  0  0
  129.5777  132.7098  158.3250 N   0  0  0  0  0  0  0  0  0  0  0  0
  129.2386  132.6808  159.2334 H   0  0  0  0  0  0  0  0  0  0  0  0
  129.6553  131.6522  157.4508 C   0  0  0  0  0  0  0  0  0  0  0  0
  130.1929  132.1305  156.3013 C   0  0  0  0  0  0  0  0  0  0  0  0
  130.4698  131.3446  155.0739 C   0  0  0  0  0  0  0  0  0  0  0  0
  129.8521  131.6866  153.8719 C   0  0  0  0  0  0  0  0  0  0  0  0
  130.1157  130.9586  152.7309 C   0  0  0  0  0  0  0  0  0  0  0  0
  130.9871  129.8767  152.7816 C   0  0  0  0  0  0  0  0  0  0  0  0
  131.2479  129.1367  151.6257 N   0  0  0  0  0  0  0  0  0  0  0  0
  131.5996  129.5306  153.9799 C   0  0  0  0  0  0  0  0  0  0  0  0
  131.3438  130.2597  155.1220 C   0  0  0  0  0  0  0  0  0  0  0  0
  130.4318  133.4546  156.4720 N   0  0  0  0  0  0  0  0  0  0  0  0
  130.8152  134.0471  155.8065 H   0  0  0  0  0  0  0  0  0  0  0  0
  129.6698  135.8890  160.4369 C   0  0  0  0  0  0  0  0  0  0  0  0
  128.7596  136.3078  161.3864 C   0  0  0  0  0  0  0  0  0  0  0  0
  126.4640  136.4813  164.4363 C   0  0  0  0  0  0  0  0  0  0  0  0
  126.9010  136.8555  165.6867 C   0  0  0  0  0  0  0  0  0  0  0  0
  128.9401  139.4228  164.7888 H   0  0  0  0  0  0  0  0  0  0  0  0
  128.1624  138.7390  162.5612 H   0  0  0  0  0  0  0  0  0  0  0  0
  125.5364  136.7964  161.8304 H   0  0  0  0  0  0  0  0  0  0  0  0
  125.9143  135.9999  159.5794 H   0  0  0  0  0  0  0  0  0  0  0  0
  127.5362  135.2454  157.8899 H   0  0  0  0  0  0  0  0  0  0  0  0
  130.8592  135.6794  157.9193 H   0  0  0  0  0  0  0  0  0  0  0  0
  129.3508  130.6341  157.6438 H   0  0  0  0  0  0  0  0  0  0  0  0
  129.1709  132.5239  153.8334 H   0  0  0  0  0  0  0  0  0  0  0  0
  129.6410  131.2261  151.7984 H   0  0  0  0  0  0  0  0  0  0  0  0
  131.8560  128.3820  151.6599 H   0  0  0  0  0  0  0  0  0  0  0  0
  130.8206  129.3780  150.7886 H   0  0  0  0  0  0  0  0  0  0  0  0
  132.2764  128.6898  154.0168 H   0  0  0  0  0  0  0  0  0  0  0  0
  131.8202  129.9905  156.0530 H   0  0  0  0  0  0  0  0  0  0  0  0
  130.7230  135.8599  160.6744 H   0  0  0  0  0  0  0  0  0  0  0  0
  129.1004  136.6060  162.3669 H   0  0  0  0  0  0  0  0  0  0  0  0
  125.7687  135.6618  164.3309 H   0  0  0  0  0  0  0  0  0  0  0  0
  126.5489  136.3302  166.5621 H   0  0  0  0  0  0  0  0  0  0  0  0
  1  2  3  0
  2  3  1  0
  3 30  2  0
  3  4  1  0
  4  5  2  0
  4 31  1  0
  5  6  1  0
  5 32  1  0
  6  7  1  0
  6 29  2  0
  7  8  1  0
  7 33  1  0
  8 28  1  0
  8  9  2  0
  9 10  1  0
  9 34  1  0
 10 11  2  0
 10 35  1  0
 11 12  1  0
 11 27  1  0
 12 36  1  0
 13 12  1  0
 13 25  2  0
 13 14  1  0
 14 15  1  0
 14 16  1  0
 16 17  2  0
 16 37  1  0
 17 18  1  0
 17 25  1  0
 18 24  1  0
 18 19  2  0
 19 20  1  0
 19 38  1  0
 20 21  2  0
 20 39  1  0
 21 22  1  0
 21 23  1  0
 22 40  1  0
 22 41  1  0
 23 24  2  0
 23 42  1  0
 24 43  1  0
 25 26  1  0
 27 28  2  0
 27 44  1  0
 28 45  1  0
 29 30  1  0
 29 46  1  0
 30 47  1  0
M  CHG  1  25   1
M  END
>  <DOCK_score>  (1) 
-55.155235

>  <SMILES>  (1) 
N#Cc1ccc(Nc2ccc(Nc3[nH]cc(-c4ccc(N)cc4)[nH+]3)cc2)cc1

$$$$
