CCC[C@H](Nc1[nH]cc(-c2ccc(NC3CC3)cc2)[nH+]1)c1ccccc1
     RDKit          3D

 53 56  0  0  1  0  0  0  0  0999 V2000
  132.9592  136.5181  161.7965 C   0  0  0  0  0  0  0  0  0  0  0  0
  132.2330  137.4753  160.8492 C   0  0  0  0  0  0  0  0  0  0  0  0
  130.7215  137.2965  161.0036 C   0  0  0  0  0  0  0  0  0  0  0  0
  130.3408  135.8545  160.6622 C   0  0  2  0  0  0  0  0  0  0  0  0
  130.8582  135.1726  161.3369 H   0  0  0  0  0  0  0  0  0  0  0  0
  130.7286  135.5614  159.2801 N   0  0  0  0  0  0  0  0  0  0  0  0
  130.4833  134.3092  158.7430 C   0  0  0  0  0  0  0  0  0  0  0  0
  129.8863  133.2721  159.3908 N   0  0  0  0  0  0  0  0  0  0  0  0
  129.5595  133.2767  160.3040 H   0  0  0  0  0  0  0  0  0  0  0  0
  129.8326  132.2163  158.5119 C   0  0  0  0  0  0  0  0  0  0  0  0
  130.3977  132.6393  157.3542 C   0  0  0  0  0  0  0  0  0  0  0  0
  130.5604  131.8361  156.1176 C   0  0  0  0  0  0  0  0  0  0  0  0
  129.9616  132.2536  154.9301 C   0  0  0  0  0  0  0  0  0  0  0  0
  130.1190  131.5084  153.7806 C   0  0  0  0  0  0  0  0  0  0  0  0
  130.8643  130.3357  153.8080 C   0  0  0  0  0  0  0  0  0  0  0  0
  131.0177  129.5789  152.6438 N   0  0  0  0  0  0  0  0  0  0  0  0
  130.3938  130.0228  151.3946 C   0  0  0  0  0  0  0  0  0  0  0  0
  128.9110  129.7035  151.1941 C   0  0  0  0  0  0  0  0  0  0  0  0
  129.9720  128.9447  150.3941 C   0  0  0  0  0  0  0  0  0  0  0  0
  131.4578  129.9145  154.9922 C   0  0  0  0  0  0  0  0  0  0  0  0
  131.3077  130.6596  156.1428 C   0  0  0  0  0  0  0  0  0  0  0  0
  130.7827  133.9289  157.5248 N   0  0  0  0  0  0  0  0  0  0  0  0
  131.2128  134.4809  156.8531 H   0  0  0  0  0  0  0  0  0  0  0  0
  128.8519  135.6785  160.8141 C   0  0  0  0  0  0  0  0  0  0  0  0
  128.3232  135.2832  162.0286 C   0  0  0  0  0  0  0  0  0  0  0  0
  126.9574  135.1214  162.1681 C   0  0  0  0  0  0  0  0  0  0  0  0
  126.1206  135.3535  161.0926 C   0  0  0  0  0  0  0  0  0  0  0  0
  126.6493  135.7474  159.8778 C   0  0  0  0  0  0  0  0  0  0  0  0
  128.0151  135.9097  159.7385 C   0  0  0  0  0  0  0  0  0  0  0  0
  132.6882  135.4908  161.5532 H   0  0  0  0  0  0  0  0  0  0  0  0
  134.0362  136.6454  161.6864 H   0  0  0  0  0  0  0  0  0  0  0  0
  132.6709  136.7361  162.8248 H   0  0  0  0  0  0  0  0  0  0  0  0
  132.5216  137.2571  159.8208 H   0  0  0  0  0  0  0  0  0  0  0  0
  132.5042  138.5026  161.0925 H   0  0  0  0  0  0  0  0  0  0  0  0
  130.2041  137.9785  160.3288 H   0  0  0  0  0  0  0  0  0  0  0  0
  130.4330  137.5146  162.0320 H   0  0  0  0  0  0  0  0  0  0  0  0
  131.1572  136.2447  158.7413 H   0  0  0  0  0  0  0  0  0  0  0  0
  129.4193  131.2376  158.7062 H   0  0  0  0  0  0  0  0  0  0  0  0
  129.3782  133.1623  154.9094 H   0  0  0  0  0  0  0  0  0  0  0  0
  129.6587  131.8338  152.8593 H   0  0  0  0  0  0  0  0  0  0  0  0
  131.5385  128.7610  152.6618 H   0  0  0  0  0  0  0  0  0  0  0  0
  130.7648  130.9654  150.9921 H   0  0  0  0  0  0  0  0  0  0  0  0
  128.4002  129.1635  151.9913 H   0  0  0  0  0  0  0  0  0  0  0  0
  128.3062  130.4361  150.6596 H   0  0  0  0  0  0  0  0  0  0  0  0
  130.0652  129.1782  149.3336 H   0  0  0  0  0  0  0  0  0  0  0  0
  130.1591  127.9057  150.6653 H   0  0  0  0  0  0  0  0  0  0  0  0
  132.0364  129.0027  155.0113 H   0  0  0  0  0  0  0  0  0  0  0  0
  131.7692  130.3320  157.0627 H   0  0  0  0  0  0  0  0  0  0  0  0
  128.9769  135.1022  162.8691 H   0  0  0  0  0  0  0  0  0  0  0  0
  126.5439  134.8179  163.1186 H   0  0  0  0  0  0  0  0  0  0  0  0
  125.0536  135.2266  161.2015 H   0  0  0  0  0  0  0  0  0  0  0  0
  125.9956  135.9280  159.0372 H   0  0  0  0  0  0  0  0  0  0  0  0
  128.4284  136.2168  158.7890 H   0  0  0  0  0  0  0  0  0  0  0  0
  1  2  1  0
  1 30  1  0
  1 31  1  0
  1 32  1  0
  2  3  1  0
  2 33  1  0
  2 34  1  0
  3  4  1  0
  3 35  1  0
  3 36  1  0
  4  5  1  1
  4  6  1  0
  4 24  1  0
  6 37  1  0
  7  6  1  0
  7 22  2  0
  7  8  1  0
  8  9  1  0
  8 10  1  0
 10 11  2  0
 10 38  1  0
 11 12  1  0
 11 22  1  0
 12 21  1  0
 12 13  2  0
 13 14  1  0
 13 39  1  0
 14 15  2  0
 14 40  1  0
 15 16  1  0
 15 20  1  0
 16 17  1  0
 16 41  1  0
 17 19  1  0
 17 18  1  0
 17 42  1  0
 18 19  1  0
 18 43  1  0
 18 44  1  0
 19 45  1  0
 19 46  1  0
 20 21  2  0
 20 47  1  0
 21 48  1  0
 22 23  1  0
 24 29  1  0
 24 25  2  0
 25 26  1  0
 25 49  1  0
 26 27  2  0
 26 50  1  0
 27 28  1  0
 27 51  1  0
 28 29  2  0
 28 52  1  0
 29 53  1  0
M  CHG  1  22   1
M  END
>  <DOCK_score>  (1) 
-56.222855

>  <SMILES>  (1) 
CCC[C@H](Nc1[nH]cc(-c2ccc(NC3CC3)cc2)[nH+]1)c1ccccc1

$$$$
