OC[C@@H](Cc1cccc(-c2ccccc2)c1)Nc1[nH]cc(-c2ccc(F)cc2)[nH+]1
     RDKit          3D

 52 55  0  0  1  0  0  0  0  0999 V2000
  130.8793  134.2035  161.8436 O   0  0  0  0  0  0  0  0  0  0  0  0
  130.9220  135.6122  161.6077 C   0  0  0  0  0  0  0  0  0  0  0  0
  129.8941  135.9813  160.5362 C   0  0  1  0  0  0  0  0  0  0  0  0
  128.9823  135.4054  160.6939 H   0  0  0  0  0  0  0  0  0  0  0  0
  129.5760  137.4751  160.6277 C   0  0  0  0  0  0  0  0  0  0  0  0
  130.8367  138.2713  160.4096 C   0  0  0  0  0  0  0  0  0  0  0  0
  131.1945  138.6615  159.1315 C   0  0  0  0  0  0  0  0  0  0  0  0
  132.3501  139.3928  158.9243 C   0  0  0  0  0  0  0  0  0  0  0  0
  133.1533  139.7367  159.9931 C   0  0  0  0  0  0  0  0  0  0  0  0
  132.8007  139.3415  161.2815 C   0  0  0  0  0  0  0  0  0  0  0  0
  133.6635  139.7029  162.4335 C   0  0  0  0  0  0  0  0  0  0  0  0
  133.1015  139.9005  163.6932 C   0  0  0  0  0  0  0  0  0  0  0  0
  133.9094  140.2305  164.7624 C   0  0  0  0  0  0  0  0  0  0  0  0
  135.2730  140.3772  164.5827 C   0  0  0  0  0  0  0  0  0  0  0  0
  135.8354  140.1878  163.3333 C   0  0  0  0  0  0  0  0  0  0  0  0
  135.0378  139.8514  162.2584 C   0  0  0  0  0  0  0  0  0  0  0  0
  131.6324  138.6095  161.4853 C   0  0  0  0  0  0  0  0  0  0  0  0
  130.4400  135.6785  159.2109 N   0  0  0  0  0  0  0  0  0  0  0  0
  130.2363  134.4307  158.6470 C   0  0  0  0  0  0  0  0  0  0  0  0
  129.5448  133.4065  159.2169 N   0  0  0  0  0  0  0  0  0  0  0  0
  129.1100  133.4191  160.0839 H   0  0  0  0  0  0  0  0  0  0  0  0
  129.5768  132.3510  158.3376 C   0  0  0  0  0  0  0  0  0  0  0  0
  130.2861  132.7605  157.2571 C   0  0  0  0  0  0  0  0  0  0  0  0
  130.5817  131.9516  156.0491 C   0  0  0  0  0  0  0  0  0  0  0  0
  130.1398  132.3771  154.7977 C   0  0  0  0  0  0  0  0  0  0  0  0
  130.4216  131.6242  153.6762 C   0  0  0  0  0  0  0  0  0  0  0  0
  131.1326  130.4415  153.7942 C   0  0  0  0  0  0  0  0  0  0  0  0
  131.4013  129.7048  152.6939 F   0  0  0  0  0  0  0  0  0  0  0  0
  131.5693  130.0115  155.0370 C   0  0  0  0  0  0  0  0  0  0  0  0
  131.2971  130.7610  156.1632 C   0  0  0  0  0  0  0  0  0  0  0  0
  130.6730  134.0427  157.4735 N   0  0  0  0  0  0  0  0  0  0  0  0
  131.1919  134.5850  156.8591 H   0  0  0  0  0  0  0  0  0  0  0  0
  131.0759  133.6677  161.0630 H   0  0  0  0  0  0  0  0  0  0  0  0
  131.9187  135.8935  161.2673 H   0  0  0  0  0  0  0  0  0  0  0  0
  130.6905  136.1424  162.5314 H   0  0  0  0  0  0  0  0  0  0  0  0
  129.1700  137.7004  161.6138 H   0  0  0  0  0  0  0  0  0  0  0  0
  128.8437  137.7381  159.8645 H   0  0  0  0  0  0  0  0  0  0  0  0
  130.5693  138.3943  158.2926 H   0  0  0  0  0  0  0  0  0  0  0  0
  132.6245  139.6951  157.9245 H   0  0  0  0  0  0  0  0  0  0  0  0
  134.0557  140.3071  159.8299 H   0  0  0  0  0  0  0  0  0  0  0  0
  132.0362  139.7911  163.8336 H   0  0  0  0  0  0  0  0  0  0  0  0
  133.4755  140.3788  165.7402 H   0  0  0  0  0  0  0  0  0  0  0  0
  135.9009  140.6401  165.4211 H   0  0  0  0  0  0  0  0  0  0  0  0
  136.9008  140.3034  163.1986 H   0  0  0  0  0  0  0  0  0  0  0  0
  135.4780  139.7035  161.2834 H   0  0  0  0  0  0  0  0  0  0  0  0
  131.3522  138.3042  162.4825 H   0  0  0  0  0  0  0  0  0  0  0  0
  130.9440  136.3523  158.7285 H   0  0  0  0  0  0  0  0  0  0  0  0
  129.1232  131.3812  158.4798 H   0  0  0  0  0  0  0  0  0  0  0  0
  129.5813  133.2967  154.7052 H   0  0  0  0  0  0  0  0  0  0  0  0
  130.0833  131.9553  152.7054 H   0  0  0  0  0  0  0  0  0  0  0  0
  132.1234  129.0886  155.1244 H   0  0  0  0  0  0  0  0  0  0  0  0
  131.6382  130.4256  157.1314 H   0  0  0  0  0  0  0  0  0  0  0  0
  1  2  1  0
  1 33  1  0
  2  3  1  0
  2 34  1  0
  2 35  1  0
  3  4  1  1
  3  5  1  0
  3 18  1  0
  5  6  1  0
  5 36  1  0
  5 37  1  0
  6 17  1  0
  6  7  2  0
  7  8  1  0
  7 38  1  0
  8  9  2  0
  8 39  1  0
  9 10  1  0
  9 40  1  0
 10 11  1  0
 10 17  2  0
 11 16  1  0
 11 12  2  0
 12 13  1  0
 12 41  1  0
 13 14  2  0
 13 42  1  0
 14 15  1  0
 14 43  1  0
 15 16  2  0
 15 44  1  0
 16 45  1  0
 17 46  1  0
 18 47  1  0
 19 18  1  0
 19 31  2  0
 19 20  1  0
 20 21  1  0
 20 22  1  0
 22 23  2  0
 22 48  1  0
 23 24  1  0
 23 31  1  0
 24 30  1  0
 24 25  2  0
 25 26  1  0
 25 49  1  0
 26 27  2  0
 26 50  1  0
 27 28  1  0
 27 29  1  0
 29 30  2  0
 29 51  1  0
 30 52  1  0
 31 32  1  0
M  CHG  1  31   1
M  END
>  <DOCK_score>  (1) 
-56.832558

>  <SMILES>  (1) 
OC[C@@H](Cc1cccc(-c2ccccc2)c1)Nc1[nH]cc(-c2ccc(F)cc2)[nH+]1

$$$$
