Cc1nc(C[NH+]=C(NC2CCC(=O)NC2)N[C@@H]2CCCC=C2Br)[nH]c1C
     RDKit          3D

 54 56  0  0  1  0  0  0  0  0999 V2000
  128.1852  131.1918  158.8064 C   0  0  0  0  0  0  0  0  0  0  0  0
  129.3938  132.0898  158.7436 C   0  0  0  0  0  0  0  0  0  0  0  0
  129.8686  132.8434  159.7464 N   0  0  0  0  0  0  0  0  0  0  0  0
  130.9240  133.4917  159.3352 C   0  0  0  0  0  0  0  0  0  0  0  0
  131.7461  134.4462  160.1623 C   0  0  0  0  0  0  0  0  0  0  0  0
  131.2098  135.8020  160.0204 N   0  0  0  0  0  0  0  0  0  0  0  0
  131.5396  136.3829  159.3169 H   0  0  0  0  0  0  0  0  0  0  0  0
  130.2897  136.2280  160.8393 C   0  0  0  0  0  0  0  0  0  0  0  0
  129.3983  135.3403  161.3938 N   0  0  0  0  0  0  0  0  0  0  0  0
  128.3641  135.8191  162.3142 C   0  0  2  0  0  0  0  0  0  0  0  0
  128.0110  134.7104  163.3132 C   0  0  0  0  0  0  0  0  0  0  0  0
  127.0661  135.2915  164.3672 C   0  0  0  0  0  0  0  0  0  0  0  0
  125.9507  136.0429  163.6988 C   0  0  0  0  0  0  0  0  0  0  0  0
  124.9547  136.2878  164.3461 O   0  0  0  0  0  0  0  0  0  0  0  0
  125.9966  136.4551  162.4313 N   0  0  0  0  0  0  0  0  0  0  0  0
  127.1077  136.1908  161.5258 C   0  0  0  0  0  0  0  0  0  0  0  0
  130.2104  137.5653  161.1488 N   0  0  0  0  0  0  0  0  0  0  0  0
  131.4211  138.3902  161.1484 C   0  0  2  0  0  0  0  0  0  0  0  0
  131.8686  138.3745  160.1546 H   0  0  0  0  0  0  0  0  0  0  0  0
  132.4176  137.8240  162.1623 C   0  0  0  0  0  0  0  0  0  0  0  0
  133.5571  138.8353  162.3396 C   0  0  0  0  0  0  0  0  0  0  0  0
  132.9951  140.0834  163.0235 C   0  0  0  0  0  0  0  0  0  0  0  0
  131.7492  140.5402  162.3225 C   0  0  0  0  0  0  0  0  0  0  0  0
  131.0615  139.8016  161.5098 C   0  0  0  0  0  0  0  0  0  0  0  0
  129.5090  140.5486  160.7304 Br  0  0  0  0  0  0  0  0  0  0  0  0
  131.1607  133.1610  158.0475 N   0  0  0  0  0  0  0  0  0  0  0  0
  131.8838  133.4916  157.4919 H   0  0  0  0  0  0  0  0  0  0  0  0
  130.1898  132.2717  157.6728 C   0  0  0  0  0  0  0  0  0  0  0  0
  130.0401  131.6219  156.3214 C   0  0  0  0  0  0  0  0  0  0  0  0
  128.4884  130.1965  159.1311 H   0  0  0  0  0  0  0  0  0  0  0  0
  127.4647  131.6012  159.5144 H   0  0  0  0  0  0  0  0  0  0  0  0
  127.7282  131.1282  157.8188 H   0  0  0  0  0  0  0  0  0  0  0  0
  132.7803  134.4266  159.8187 H   0  0  0  0  0  0  0  0  0  0  0  0
  131.7055  134.1472  161.2097 H   0  0  0  0  0  0  0  0  0  0  0  0
  129.4542  134.3967  161.1755 H   0  0  0  0  0  0  0  0  0  0  0  0
  128.7301  136.6934  162.8526 H   0  0  0  0  0  0  0  0  0  0  0  0
  127.5162  133.8909  162.7919 H   0  0  0  0  0  0  0  0  0  0  0  0
  128.9193  134.3457  163.7928 H   0  0  0  0  0  0  0  0  0  0  0  0
  127.6226  135.9697  165.0141 H   0  0  0  0  0  0  0  0  0  0  0  0
  126.6492  134.4812  164.9653 H   0  0  0  0  0  0  0  0  0  0  0  0
  125.2436  136.9629  162.0909 H   0  0  0  0  0  0  0  0  0  0  0  0
  127.3067  137.0816  160.9300 H   0  0  0  0  0  0  0  0  0  0  0  0
  126.8409  135.3669  160.8638 H   0  0  0  0  0  0  0  0  0  0  0  0
  129.3530  137.9626  161.3673 H   0  0  0  0  0  0  0  0  0  0  0  0
  131.9174  137.6644  163.1177 H   0  0  0  0  0  0  0  0  0  0  0  0
  132.8193  136.8802  161.7935 H   0  0  0  0  0  0  0  0  0  0  0  0
  133.9635  139.1034  161.3643 H   0  0  0  0  0  0  0  0  0  0  0  0
  134.3433  138.4016  162.9575 H   0  0  0  0  0  0  0  0  0  0  0  0
  133.7396  140.8788  162.9921 H   0  0  0  0  0  0  0  0  0  0  0  0
  132.7607  139.8515  164.0625 H   0  0  0  0  0  0  0  0  0  0  0  0
  131.4047  141.5471  162.5066 H   0  0  0  0  0  0  0  0  0  0  0  0
  130.5982  130.6857  156.3045 H   0  0  0  0  0  0  0  0  0  0  0  0
  128.9861  131.4200  156.1301 H   0  0  0  0  0  0  0  0  0  0  0  0
  130.4276  132.2898  155.5520 H   0  0  0  0  0  0  0  0  0  0  0  0
  1  2  1  0
  1 30  1  0
  1 31  1  0
  1 32  1  0
  2 28  2  0
  2  3  1  0
  3  4  2  0
  4  5  1  0
  4 26  1  0
  5  6  1  0
  5 33  1  0
  5 34  1  0
  6  7  1  0
  8  6  2  0
  8  9  1  0
  8 17  1  0
  9 10  1  0
  9 35  1  0
 10 16  1  0
 10 11  1  0
 10 36  1  1
 11 12  1  0
 11 37  1  0
 11 38  1  0
 12 13  1  0
 12 39  1  0
 12 40  1  0
 13 14  2  0
 13 15  1  0
 15 16  1  0
 15 41  1  0
 16 42  1  0
 16 43  1  0
 17 18  1  0
 17 44  1  0
 18 19  1  6
 18 24  1  0
 18 20  1  0
 20 21  1  0
 20 45  1  0
 20 46  1  0
 21 22  1  0
 21 47  1  0
 21 48  1  0
 22 23  1  0
 22 49  1  0
 22 50  1  0
 23 24  2  0
 23 51  1  0
 24 25  1  0
 26 27  1  0
 26 28  1  0
 28 29  1  0
 29 52  1  0
 29 53  1  0
 29 54  1  0
M  CHG  1   6   1
M  END
>  <DOCK_score>  (1) 
-44.126801

>  <SMILES>  (1) 
Cc1nc(C[NH+]=C(NC2CCC(=O)NC2)N[C@@H]2CCCC=C2Br)[nH]c1C

$$$$
