CC1=C(c2ccc([C@@H](Cc3ccccc3)Nc3[nH]cc(-c4ccc(O)cc4)[nH+]3)cc2)CCC1
     RDKit          3D

 63 67  0  0  1  0  0  0  0  0999 V2000
  135.3478  139.2713  159.5314 C   0  0  0  0  0  0  0  0  0  0  0  0
  135.3264  139.5176  161.0180 C   0  0  0  0  0  0  0  0  0  0  0  0
  134.4374  139.0047  161.8507 C   0  0  0  0  0  0  0  0  0  0  0  0
  133.3294  138.1124  161.4497 C   0  0  0  0  0  0  0  0  0  0  0  0
  133.2396  136.8248  161.9799 C   0  0  0  0  0  0  0  0  0  0  0  0
  132.2031  135.9967  161.6012 C   0  0  0  0  0  0  0  0  0  0  0  0
  131.2537  136.4407  160.6981 C   0  0  0  0  0  0  0  0  0  0  0  0
  130.1240  135.5309  160.2893 C   0  0  1  0  0  0  0  0  0  0  0  0
  130.2226  134.5753  160.8041 H   0  0  0  0  0  0  0  0  0  0  0  0
  128.7883  136.1766  160.6636 C   0  0  0  0  0  0  0  0  0  0  0  0
  127.6585  135.2668  160.2548 C   0  0  0  0  0  0  0  0  0  0  0  0
  127.0945  135.3869  158.9984 C   0  0  0  0  0  0  0  0  0  0  0  0
  126.0615  134.5492  158.6216 C   0  0  0  0  0  0  0  0  0  0  0  0
  125.5855  133.5984  159.5051 C   0  0  0  0  0  0  0  0  0  0  0  0
  126.1459  133.4819  160.7633 C   0  0  0  0  0  0  0  0  0  0  0  0
  127.1826  134.3161  161.1381 C   0  0  0  0  0  0  0  0  0  0  0  0
  130.1722  135.3129  158.8414 N   0  0  0  0  0  0  0  0  0  0  0  0
  130.3238  134.0318  158.3390 C   0  0  0  0  0  0  0  0  0  0  0  0
  130.4446  132.8983  159.0819 N   0  0  0  0  0  0  0  0  0  0  0  0
  130.4396  132.8426  160.0504 H   0  0  0  0  0  0  0  0  0  0  0  0
  130.5744  131.8464  158.2067 C   0  0  0  0  0  0  0  0  0  0  0  0
  130.5290  132.3677  156.9559 C   0  0  0  0  0  0  0  0  0  0  0  0
  130.6302  131.6045  155.6876 C   0  0  0  0  0  0  0  0  0  0  0  0
  129.9839  132.0652  154.5418 C   0  0  0  0  0  0  0  0  0  0  0  0
  130.0804  131.3536  153.3642 C   0  0  0  0  0  0  0  0  0  0  0  0
  130.8201  130.1792  153.3198 C   0  0  0  0  0  0  0  0  0  0  0  0
  130.9131  129.4811  152.1574 O   0  0  0  0  0  0  0  0  0  0  0  0
  131.4647  129.7185  154.4588 C   0  0  0  0  0  0  0  0  0  0  0  0
  131.3722  130.4256  155.6394 C   0  0  0  0  0  0  0  0  0  0  0  0
  130.3806  133.7114  157.0692 N   0  0  0  0  0  0  0  0  0  0  0  0
  130.3228  134.3353  156.3287 H   0  0  0  0  0  0  0  0  0  0  0  0
  131.3401  137.7141  160.1645 C   0  0  0  0  0  0  0  0  0  0  0  0
  132.3688  138.5539  160.5390 C   0  0  0  0  0  0  0  0  0  0  0  0
  134.7033  139.4588  163.2672 C   0  0  0  0  0  0  0  0  0  0  0  0
  136.1567  139.9899  163.2440 C   0  0  0  0  0  0  0  0  0  0  0  0
  136.3186  140.3842  161.7582 C   0  0  0  0  0  0  0  0  0  0  0  0
  134.7464  140.0288  159.0289 H   0  0  0  0  0  0  0  0  0  0  0  0
  136.3745  139.3233  159.1693 H   0  0  0  0  0  0  0  0  0  0  0  0
  134.9379  138.2835  159.3210 H   0  0  0  0  0  0  0  0  0  0  0  0
  133.9802  136.4771  162.6850 H   0  0  0  0  0  0  0  0  0  0  0  0
  132.1325  134.9999  162.0108 H   0  0  0  0  0  0  0  0  0  0  0  0
  128.7525  136.3389  161.7408 H   0  0  0  0  0  0  0  0  0  0  0  0
  128.6897  137.1322  160.1487 H   0  0  0  0  0  0  0  0  0  0  0  0
  127.4634  136.1327  158.3099 H   0  0  0  0  0  0  0  0  0  0  0  0
  125.6232  134.6405  157.6388 H   0  0  0  0  0  0  0  0  0  0  0  0
  124.7755  132.9469  159.2123 H   0  0  0  0  0  0  0  0  0  0  0  0
  125.7739  132.7392  161.4535 H   0  0  0  0  0  0  0  0  0  0  0  0
  127.6202  134.2252  162.1212 H   0  0  0  0  0  0  0  0  0  0  0  0
  130.0978  136.0661  158.2347 H   0  0  0  0  0  0  0  0  0  0  0  0
  130.6896  130.8042  158.4655 H   0  0  0  0  0  0  0  0  0  0  0  0
  129.4081  132.9782  154.5761 H   0  0  0  0  0  0  0  0  0  0  0  0
  129.5761  131.7077  152.4771 H   0  0  0  0  0  0  0  0  0  0  0  0
  130.4318  129.8791  151.4192 H   0  0  0  0  0  0  0  0  0  0  0  0
  132.0395  128.8050  154.4207 H   0  0  0  0  0  0  0  0  0  0  0  0
  131.8743  130.0663  156.5254 H   0  0  0  0  0  0  0  0  0  0  0  0
  130.5983  138.0532  159.4566 H   0  0  0  0  0  0  0  0  0  0  0  0
  132.4325  139.5494  160.1253 H   0  0  0  0  0  0  0  0  0  0  0  0
  134.0110  140.2527  163.5474 H   0  0  0  0  0  0  0  0  0  0  0  0
  134.6182  138.6192  163.9571 H   0  0  0  0  0  0  0  0  0  0  0  0
  136.8660  139.2097  163.5205 H   0  0  0  0  0  0  0  0  0  0  0  0
  136.2631  140.8593  163.8928 H   0  0  0  0  0  0  0  0  0  0  0  0
  137.3329  140.1748  161.4183 H   0  0  0  0  0  0  0  0  0  0  0  0
  136.0806  141.4386  161.6173 H   0  0  0  0  0  0  0  0  0  0  0  0
  1  2  1  0
  1 37  1  0
  1 38  1  0
  1 39  1  0
  2 36  1  0
  2  3  2  0
  3  4  1  0
  3 34  1  0
  4 33  1  0
  4  5  2  0
  5  6  1  0
  5 40  1  0
  6  7  2  0
  6 41  1  0
  7  8  1  0
  7 32  1  0
  8  9  1  1
  8 10  1  0
  8 17  1  0
 10 11  1  0
 10 42  1  0
 10 43  1  0
 11 16  1  0
 11 12  2  0
 12 13  1  0
 12 44  1  0
 13 14  2  0
 13 45  1  0
 14 15  1  0
 14 46  1  0
 15 16  2  0
 15 47  1  0
 16 48  1  0
 17 49  1  0
 18 17  1  0
 18 30  2  0
 18 19  1  0
 19 20  1  0
 19 21  1  0
 21 22  2  0
 21 50  1  0
 22 23  1  0
 22 30  1  0
 23 29  1  0
 23 24  2  0
 24 25  1  0
 24 51  1  0
 25 26  2  0
 25 52  1  0
 26 27  1  0
 26 28  1  0
 27 53  1  0
 28 29  2  0
 28 54  1  0
 29 55  1  0
 30 31  1  0
 32 33  2  0
 32 56  1  0
 33 57  1  0
 34 35  1  0
 34 58  1  0
 34 59  1  0
 35 36  1  0
 35 60  1  0
 35 61  1  0
 36 62  1  0
 36 63  1  0
M  CHG  1  30   1
M  END
>  <DOCK_score>  (1) 
-56.441784

>  <SMILES>  (1) 
CC1=C(c2ccc([C@@H](Cc3ccccc3)Nc3[nH]cc(-c4ccc(O)cc4)[nH+]3)cc2)CCC1

$$$$
