CCc1ccc(-c2c[nH]c(N[C@H](Cc3cccc(O)c3)c3ccnn3-c3ccc(F)cc3)[nH+]2)cc1
     RDKit          3D

 62 66  0  0  1  0  0  0  0  0999 V2000
  132.1864  129.7517  152.7257 C   0  0  0  0  0  0  0  0  0  0  0  0
  130.7746  129.7514  153.3150 C   0  0  0  0  0  0  0  0  0  0  0  0
  130.7498  130.6000  154.5601 C   0  0  0  0  0  0  0  0  0  0  0  0
  130.4624  131.9501  154.4683 C   0  0  0  0  0  0  0  0  0  0  0  0
  130.4383  132.7320  155.6053 C   0  0  0  0  0  0  0  0  0  0  0  0
  130.7042  132.1589  156.8476 C   0  0  0  0  0  0  0  0  0  0  0  0
  130.6797  132.9941  158.0732 C   0  0  0  0  0  0  0  0  0  0  0  0
  130.3521  132.5726  159.3198 C   0  0  0  0  0  0  0  0  0  0  0  0
  130.4607  133.6614  160.1503 N   0  0  0  0  0  0  0  0  0  0  0  0
  130.2866  133.6759  161.1044 H   0  0  0  0  0  0  0  0  0  0  0  0
  130.8518  134.7175  159.3861 C   0  0  0  0  0  0  0  0  0  0  0  0
  131.0752  136.0049  159.8436 N   0  0  0  0  0  0  0  0  0  0  0  0
  130.8916  136.3202  161.2624 C   0  0  2  0  0  0  0  0  0  0  0  0
  129.8608  136.1138  161.5500 H   0  0  0  0  0  0  0  0  0  0  0  0
  131.2008  137.7998  161.5001 C   0  0  0  0  0  0  0  0  0  0  0  0
  132.6260  138.0852  161.1024 C   0  0  0  0  0  0  0  0  0  0  0  0
  132.9178  138.4706  159.8067 C   0  0  0  0  0  0  0  0  0  0  0  0
  134.2243  138.7332  159.4388 C   0  0  0  0  0  0  0  0  0  0  0  0
  135.2419  138.6122  160.3655 C   0  0  0  0  0  0  0  0  0  0  0  0
  134.9517  138.2263  161.6660 C   0  0  0  0  0  0  0  0  0  0  0  0
  135.9508  138.1071  162.5795 O   0  0  0  0  0  0  0  0  0  0  0  0
  133.6391  137.9675  162.0338 C   0  0  0  0  0  0  0  0  0  0  0  0
  131.8234  135.4731  162.0901 C   0  0  0  0  0  0  0  0  0  0  0  0
  133.0338  135.0070  161.7036 C   0  0  0  0  0  0  0  0  0  0  0  0
  133.5687  134.2667  162.7635 C   0  0  0  0  0  0  0  0  0  0  0  0
  132.7107  134.2870  163.7515 N   0  0  0  0  0  0  0  0  0  0  0  0
  131.6029  135.0468  163.3540 N   0  0  0  0  0  0  0  0  0  0  0  0
  130.4650  135.3150  164.1289 C   0  0  0  0  0  0  0  0  0  0  0  0
  130.5899  135.9855  165.3382 C   0  0  0  0  0  0  0  0  0  0  0  0
  129.4678  136.2528  166.0976 C   0  0  0  0  0  0  0  0  0  0  0  0
  128.2198  135.8431  165.6585 C   0  0  0  0  0  0  0  0  0  0  0  0
  127.1239  136.1007  166.4054 F   0  0  0  0  0  0  0  0  0  0  0  0
  128.0939  135.1700  164.4549 C   0  0  0  0  0  0  0  0  0  0  0  0
  129.2132  134.9054  163.6903 C   0  0  0  0  0  0  0  0  0  0  0  0
  130.9817  134.3148  158.1456 N   0  0  0  0  0  0  0  0  0  0  0  0
  131.2507  134.8721  157.3986 H   0  0  0  0  0  0  0  0  0  0  0  0
  130.9986  130.7993  156.9335 C   0  0  0  0  0  0  0  0  0  0  0  0
  131.0138  130.0258  155.7905 C   0  0  0  0  0  0  0  0  0  0  0  0
  132.8852  129.3448  153.4566 H   0  0  0  0  0  0  0  0  0  0  0  0
  132.2044  129.1380  151.8250 H   0  0  0  0  0  0  0  0  0  0  0  0
  132.4757  130.7724  152.4755 H   0  0  0  0  0  0  0  0  0  0  0  0
  130.4851  128.7309  153.5650 H   0  0  0  0  0  0  0  0  0  0  0  0
  130.0757  130.1585  152.5841 H   0  0  0  0  0  0  0  0  0  0  0  0
  130.2570  132.3932  153.5050 H   0  0  0  0  0  0  0  0  0  0  0  0
  130.2136  133.7859  155.5325 H   0  0  0  0  0  0  0  0  0  0  0  0
  130.0611  131.5724  159.6050 H   0  0  0  0  0  0  0  0  0  0  0  0
  131.3533  136.6980  159.2247 H   0  0  0  0  0  0  0  0  0  0  0  0
  130.5268  138.4126  160.9014 H   0  0  0  0  0  0  0  0  0  0  0  0
  131.0641  138.0345  162.5558 H   0  0  0  0  0  0  0  0  0  0  0  0
  132.1238  138.5659  159.0810 H   0  0  0  0  0  0  0  0  0  0  0  0
  134.4496  139.0335  158.4262 H   0  0  0  0  0  0  0  0  0  0  0  0
  136.2623  138.8175  160.0776 H   0  0  0  0  0  0  0  0  0  0  0  0
  135.6506  137.8335  163.4571 H   0  0  0  0  0  0  0  0  0  0  0  0
  133.4102  137.6709  163.0467 H   0  0  0  0  0  0  0  0  0  0  0  0
  133.5036  135.1763  160.7460 H   0  0  0  0  0  0  0  0  0  0  0  0
  134.5252  133.7652  162.7659 H   0  0  0  0  0  0  0  0  0  0  0  0
  131.5635  136.3013  165.6830 H   0  0  0  0  0  0  0  0  0  0  0  0
  129.5640  136.7780  167.0363 H   0  0  0  0  0  0  0  0  0  0  0  0
  127.1199  134.8514  164.1140 H   0  0  0  0  0  0  0  0  0  0  0  0
  129.1147  134.3805  162.7517 H   0  0  0  0  0  0  0  0  0  0  0  0
  131.2097  130.3510  157.8930 H   0  0  0  0  0  0  0  0  0  0  0  0
  131.2374  128.9714  155.8563 H   0  0  0  0  0  0  0  0  0  0  0  0
  1  2  1  0
  1 39  1  0
  1 40  1  0
  1 41  1  0
  2  3  1  0
  2 42  1  0
  2 43  1  0
  3 38  2  0
  3  4  1  0
  4  5  2  0
  4 44  1  0
  5  6  1  0
  5 45  1  0
  6  7  1  0
  6 37  2  0
  7 35  1  0
  7  8  2  0
  8  9  1  0
  8 46  1  0
  9 10  1  0
  9 11  1  0
 11 12  1  0
 11 35  2  0
 12 13  1  0
 12 47  1  0
 13 14  1  1
 13 15  1  0
 13 23  1  0
 15 16  1  0
 15 48  1  0
 15 49  1  0
 16 22  1  0
 16 17  2  0
 17 18  1  0
 17 50  1  0
 18 19  2  0
 18 51  1  0
 19 20  1  0
 19 52  1  0
 20 21  1  0
 20 22  2  0
 21 53  1  0
 22 54  1  0
 23 27  1  0
 23 24  2  0
 24 25  1  0
 24 55  1  0
 25 26  2  0
 25 56  1  0
 26 27  1  0
 27 28  1  0
 28 34  1  0
 28 29  2  0
 29 30  1  0
 29 57  1  0
 30 31  2  0
 30 58  1  0
 31 32  1  0
 31 33  1  0
 33 34  2  0
 33 59  1  0
 34 60  1  0
 35 36  1  0
 37 38  1  0
 37 61  1  0
 38 62  1  0
M  CHG  1  35   1
M  END
>  <DOCK_score>  (1) 
-60.072117

>  <SMILES>  (1) 
CCc1ccc(-c2c[nH]c(N[C@H](Cc3cccc(O)c3)c3ccnn3-c3ccc(F)cc3)[nH+]2)cc1

$$$$
