Cc1cc(O)cc(C[NH+]=C(NCc2c[nH]nc2-c2ccccc2)NC2CC=CC2)c1
     RDKit          3D

 58 61  0  0  1  0  0  0  0  0999 V2000
  127.4962  135.1916  167.2355 C   0  0  0  0  0  0  0  0  0  0  0  0
  127.3052  135.5794  165.7919 C   0  0  0  0  0  0  0  0  0  0  0  0
  126.0508  135.5050  165.2173 C   0  0  0  0  0  0  0  0  0  0  0  0
  125.8758  135.8622  163.8883 C   0  0  0  0  0  0  0  0  0  0  0  0
  124.6430  135.7900  163.3209 O   0  0  0  0  0  0  0  0  0  0  0  0
  126.9615  136.2927  163.1393 C   0  0  0  0  0  0  0  0  0  0  0  0
  128.2134  136.3648  163.7183 C   0  0  0  0  0  0  0  0  0  0  0  0
  129.3931  136.8325  162.9053 C   0  0  0  0  0  0  0  0  0  0  0  0
  129.3726  136.1787  161.5944 N   0  0  0  0  0  0  0  0  0  0  0  0
  128.6644  135.5534  161.3754 H   0  0  0  0  0  0  0  0  0  0  0  0
  130.3062  136.4376  160.7226 C   0  0  0  0  0  0  0  0  0  0  0  0
  131.3102  137.3241  161.0331 N   0  0  0  0  0  0  0  0  0  0  0  0
  132.3595  137.6151  160.0531 C   0  0  0  0  0  0  0  0  0  0  0  0
  133.3298  138.6097  160.6363 C   0  0  0  0  0  0  0  0  0  0  0  0
  134.6774  138.5345  160.5781 C   0  0  0  0  0  0  0  0  0  0  0  0
  135.1828  139.6140  161.2130 N   0  0  0  0  0  0  0  0  0  0  0  0
  136.1241  139.8203  161.3235 H   0  0  0  0  0  0  0  0  0  0  0  0
  134.1118  140.3810  161.6892 N   0  0  0  0  0  0  0  0  0  0  0  0
  132.9930  139.7799  161.3441 C   0  0  0  0  0  0  0  0  0  0  0  0
  131.6187  140.2515  161.6480 C   0  0  0  0  0  0  0  0  0  0  0  0
  131.2107  140.4106  162.9704 C   0  0  0  0  0  0  0  0  0  0  0  0
  129.9334  140.8544  163.2473 C   0  0  0  0  0  0  0  0  0  0  0  0
  129.0555  141.1303  162.2145 C   0  0  0  0  0  0  0  0  0  0  0  0
  129.4536  140.9688  160.8998 C   0  0  0  0  0  0  0  0  0  0  0  0
  130.7305  140.5309  160.6116 C   0  0  0  0  0  0  0  0  0  0  0  0
  130.2871  135.8241  159.4923 N   0  0  0  0  0  0  0  0  0  0  0  0
  129.2174  134.8795  159.1614 C   0  0  0  0  0  0  0  0  0  0  0  0
  129.3283  133.5942  160.0141 C   0  0  0  0  0  0  0  0  0  0  0  0
  128.9307  132.4767  159.0781 C   0  0  0  0  0  0  0  0  0  0  0  0
  128.9684  132.8699  157.8341 C   0  0  0  0  0  0  0  0  0  0  0  0
  129.3973  134.3152  157.7330 C   0  0  0  0  0  0  0  0  0  0  0  0
  128.3853  136.0087  165.0434 C   0  0  0  0  0  0  0  0  0  0  0  0
  127.3545  136.0674  167.8688 H   0  0  0  0  0  0  0  0  0  0  0  0
  126.7683  134.4265  167.5056 H   0  0  0  0  0  0  0  0  0  0  0  0
  128.5038  134.8004  167.3764 H   0  0  0  0  0  0  0  0  0  0  0  0
  125.2073  135.1698  165.8025 H   0  0  0  0  0  0  0  0  0  0  0  0
  124.6211  136.0590  162.3924 H   0  0  0  0  0  0  0  0  0  0  0  0
  126.8276  136.5717  162.1045 H   0  0  0  0  0  0  0  0  0  0  0  0
  129.3379  137.9130  162.7734 H   0  0  0  0  0  0  0  0  0  0  0  0
  130.3166  136.5766  163.4247 H   0  0  0  0  0  0  0  0  0  0  0  0
  131.3236  137.7569  161.9010 H   0  0  0  0  0  0  0  0  0  0  0  0
  132.8884  136.6953  159.8031 H   0  0  0  0  0  0  0  0  0  0  0  0
  131.9097  138.0318  159.1518 H   0  0  0  0  0  0  0  0  0  0  0  0
  135.2497  137.7502  160.1054 H   0  0  0  0  0  0  0  0  0  0  0  0
  131.8940  140.1913  163.7775 H   0  0  0  0  0  0  0  0  0  0  0  0
  129.6175  140.9826  164.2720 H   0  0  0  0  0  0  0  0  0  0  0  0
  128.0557  141.4739  162.4355 H   0  0  0  0  0  0  0  0  0  0  0  0
  128.7642  141.1858  160.0973 H   0  0  0  0  0  0  0  0  0  0  0  0
  131.0405  140.4058  159.5847 H   0  0  0  0  0  0  0  0  0  0  0  0
  130.9819  136.0168  158.8434 H   0  0  0  0  0  0  0  0  0  0  0  0
  128.2382  135.3438  159.2782 H   0  0  0  0  0  0  0  0  0  0  0  0
  130.3530  133.4545  160.3588 H   0  0  0  0  0  0  0  0  0  0  0  0
  128.6447  133.6409  160.8619 H   0  0  0  0  0  0  0  0  0  0  0  0
  128.6517  131.4832  159.3967 H   0  0  0  0  0  0  0  0  0  0  0  0
  128.7245  132.2443  156.9881 H   0  0  0  0  0  0  0  0  0  0  0  0
  128.7605  134.8519  157.0297 H   0  0  0  0  0  0  0  0  0  0  0  0
  130.4412  134.3828  157.4268 H   0  0  0  0  0  0  0  0  0  0  0  0
  129.3658  136.0619  165.4932 H   0  0  0  0  0  0  0  0  0  0  0  0
  1  2  1  0
  1 33  1  0
  1 34  1  0
  1 35  1  0
  2 32  2  0
  2  3  1  0
  3  4  2  0
  3 36  1  0
  4  5  1  0
  4  6  1  0
  5 37  1  0
  6  7  2  0
  6 38  1  0
  7  8  1  0
  7 32  1  0
  8  9  1  0
  8 39  1  0
  8 40  1  0
  9 10  1  0
 11  9  2  0
 11 12  1  0
 11 26  1  0
 12 13  1  0
 12 41  1  0
 13 14  1  0
 13 42  1  0
 13 43  1  0
 14 19  1  0
 14 15  2  0
 15 16  1  0
 15 44  1  0
 16 17  1  0
 16 18  1  0
 18 19  2  0
 19 20  1  0
 20 25  1  0
 20 21  2  0
 21 22  1  0
 21 45  1  0
 22 23  2  0
 22 46  1  0
 23 24  1  0
 23 47  1  0
 24 25  2  0
 24 48  1  0
 25 49  1  0
 26 27  1  0
 26 50  1  0
 27 31  1  0
 27 28  1  0
 27 51  1  0
 28 29  1  0
 28 52  1  0
 28 53  1  0
 29 30  2  0
 29 54  1  0
 30 31  1  0
 30 55  1  0
 31 56  1  0
 31 57  1  0
 32 58  1  0
M  CHG  1   9   1
M  END
>  <DOCK_score>  (1) 
-46.327591

>  <SMILES>  (1) 
Cc1cc(O)cc(C[NH+]=C(NCc2c[nH]nc2-c2ccccc2)NC2CC=CC2)c1

$$$$
