CCc1ccc([C@@H](CO)Nc2[nH]cc(-c3ccc(-c4ccccc4)cc3)[nH+]2)cc1
     RDKit          3D

 55 58  0  0  1  0  0  0  0  0999 V2000
  131.4343  141.8561  163.2527 C   0  0  0  0  0  0  0  0  0  0  0  0
  132.5437  141.0618  162.5603 C   0  0  0  0  0  0  0  0  0  0  0  0
  132.0093  139.7184  162.1352 C   0  0  0  0  0  0  0  0  0  0  0  0
  131.4378  139.5656  160.8859 C   0  0  0  0  0  0  0  0  0  0  0  0
  130.9473  138.3334  160.4962 C   0  0  0  0  0  0  0  0  0  0  0  0
  131.0290  137.2537  161.3556 C   0  0  0  0  0  0  0  0  0  0  0  0
  130.4942  135.9103  160.9307 C   0  0  1  0  0  0  0  0  0  0  0  0
  130.6460  135.1885  161.7332 H   0  0  0  0  0  0  0  0  0  0  0  0
  128.9993  136.0293  160.6276 C   0  0  0  0  0  0  0  0  0  0  0  0
  128.3975  134.7344  160.6824 O   0  0  0  0  0  0  0  0  0  0  0  0
  131.2019  135.4609  159.7293 N   0  0  0  0  0  0  0  0  0  0  0  0
  130.8804  134.2450  159.1508 C   0  0  0  0  0  0  0  0  0  0  0  0
  130.4120  133.1517  159.8123 N   0  0  0  0  0  0  0  0  0  0  0  0
  130.2444  133.0850  160.7654 H   0  0  0  0  0  0  0  0  0  0  0  0
  130.2199  132.1603  158.8814 C   0  0  0  0  0  0  0  0  0  0  0  0
  130.5763  132.6758  157.6781 C   0  0  0  0  0  0  0  0  0  0  0  0
  130.5350  131.9653  156.3777 C   0  0  0  0  0  0  0  0  0  0  0  0
  129.7383  132.4526  155.3415 C   0  0  0  0  0  0  0  0  0  0  0  0
  129.7034  131.7949  154.1319 C   0  0  0  0  0  0  0  0  0  0  0  0
  130.4565  130.6366  153.9460 C   0  0  0  0  0  0  0  0  0  0  0  0
  130.4143  129.9244  152.6458 C   0  0  0  0  0  0  0  0  0  0  0  0
  130.6057  128.5447  152.5968 C   0  0  0  0  0  0  0  0  0  0  0  0
  130.5608  127.8872  151.3843 C   0  0  0  0  0  0  0  0  0  0  0  0
  130.3365  128.5963  150.2178 C   0  0  0  0  0  0  0  0  0  0  0  0
  130.1506  129.9663  150.2600 C   0  0  0  0  0  0  0  0  0  0  0  0
  130.1886  130.6337  151.4674 C   0  0  0  0  0  0  0  0  0  0  0  0
  131.2496  130.1460  154.9837 C   0  0  0  0  0  0  0  0  0  0  0  0
  131.2885  130.8060  156.1918 C   0  0  0  0  0  0  0  0  0  0  0  0
  130.9773  133.9570  157.8759 N   0  0  0  0  0  0  0  0  0  0  0  0
  131.2868  134.5626  157.1843 H   0  0  0  0  0  0  0  0  0  0  0  0
  131.5962  137.4076  162.6068 C   0  0  0  0  0  0  0  0  0  0  0  0
  132.0903  138.6389  162.9949 C   0  0  0  0  0  0  0  0  0  0  0  0
  131.8208  142.8279  163.5601 H   0  0  0  0  0  0  0  0  0  0  0  0
  130.6032  141.9977  162.5617 H   0  0  0  0  0  0  0  0  0  0  0  0
  131.0886  141.3087  164.1296 H   0  0  0  0  0  0  0  0  0  0  0  0
  133.3747  140.9204  163.2512 H   0  0  0  0  0  0  0  0  0  0  0  0
  132.8893  141.6093  161.6834 H   0  0  0  0  0  0  0  0  0  0  0  0
  131.3742  140.4091  160.2144 H   0  0  0  0  0  0  0  0  0  0  0  0
  130.5004  138.2141  159.5202 H   0  0  0  0  0  0  0  0  0  0  0  0
  128.5296  136.6797  161.3654 H   0  0  0  0  0  0  0  0  0  0  0  0
  128.8630  136.4515  159.6319 H   0  0  0  0  0  0  0  0  0  0  0  0
  128.7670  134.1018  160.0513 H   0  0  0  0  0  0  0  0  0  0  0  0
  131.8958  136.0152  159.3392 H   0  0  0  0  0  0  0  0  0  0  0  0
  129.8589  131.1603  159.0715 H   0  0  0  0  0  0  0  0  0  0  0  0
  129.1514  133.3476  155.4867 H   0  0  0  0  0  0  0  0  0  0  0  0
  129.0894  132.1744  153.3284 H   0  0  0  0  0  0  0  0  0  0  0  0
  130.7854  127.9907  153.5062 H   0  0  0  0  0  0  0  0  0  0  0  0
  130.7050  126.8175  151.3454 H   0  0  0  0  0  0  0  0  0  0  0  0
  130.3066  128.0783  149.2707 H   0  0  0  0  0  0  0  0  0  0  0  0
  129.9757  130.5149  149.3462 H   0  0  0  0  0  0  0  0  0  0  0  0
  130.0440  131.7036  151.4990 H   0  0  0  0  0  0  0  0  0  0  0  0
  131.8329  129.2485  154.8397 H   0  0  0  0  0  0  0  0  0  0  0  0
  131.9025  130.4266  156.9951 H   0  0  0  0  0  0  0  0  0  0  0  0
  131.6562  136.5651  163.2799 H   0  0  0  0  0  0  0  0  0  0  0  0
  132.5365  138.7585  163.9712 H   0  0  0  0  0  0  0  0  0  0  0  0
  1  2  1  0
  1 33  1  0
  1 34  1  0
  1 35  1  0
  2  3  1  0
  2 36  1  0
  2 37  1  0
  3 32  2  0
  3  4  1  0
  4  5  2  0
  4 38  1  0
  5  6  1  0
  5 39  1  0
  6  7  1  0
  6 31  2  0
  7  8  1  1
  7  9  1  0
  7 11  1  0
  9 10  1  0
  9 40  1  0
  9 41  1  0
 10 42  1  0
 11 43  1  0
 12 11  1  0
 12 29  2  0
 12 13  1  0
 13 14  1  0
 13 15  1  0
 15 16  2  0
 15 44  1  0
 16 17  1  0
 16 29  1  0
 17 28  1  0
 17 18  2  0
 18 19  1  0
 18 45  1  0
 19 20  2  0
 19 46  1  0
 20 21  1  0
 20 27  1  0
 21 26  1  0
 21 22  2  0
 22 23  1  0
 22 47  1  0
 23 24  2  0
 23 48  1  0
 24 25  1  0
 24 49  1  0
 25 26  2  0
 25 50  1  0
 26 51  1  0
 27 28  2  0
 27 52  1  0
 28 53  1  0
 29 30  1  0
 31 32  1  0
 31 54  1  0
 32 55  1  0
M  CHG  1  29   1
M  END
>  <DOCK_score>  (1) 
-57.147152

>  <SMILES>  (1) 
CCc1ccc([C@@H](CO)Nc2[nH]cc(-c3ccc(-c4ccccc4)cc3)[nH+]2)cc1

$$$$
