C1=C(CNc2ccc(-c3n[nH]cc3C[NH2+]CC3=CCCC3)o2)CCOC1
     RDKit          3D

 53 56  0  0  0  0  0  0  0  0999 V2000
  126.5155  136.9075  165.1272 C   0  0  0  0  0  0  0  0  0  0  0  0
  126.9654  136.3436  164.0458 C   0  0  0  0  0  0  0  0  0  0  0  0
  126.8498  137.0861  162.7395 C   0  0  0  0  0  0  0  0  0  0  0  0
  126.0419  136.3020  161.8021 N   0  0  0  0  0  0  0  0  0  0  0  0
  126.6535  135.3823  160.9581 C   0  0  0  0  0  0  0  0  0  0  0  0
  126.0366  134.3495  160.3316 C   0  0  0  0  0  0  0  0  0  0  0  0
  127.0212  133.6770  159.5809 C   0  0  0  0  0  0  0  0  0  0  0  0
  128.1920  134.3354  159.7878 C   0  0  0  0  0  0  0  0  0  0  0  0
  129.4996  133.9823  159.1973 C   0  0  0  0  0  0  0  0  0  0  0  0
  129.7344  132.9792  158.3745 N   0  0  0  0  0  0  0  0  0  0  0  0
  131.0969  132.9928  158.0503 N   0  0  0  0  0  0  0  0  0  0  0  0
  131.5480  132.3671  157.4620 H   0  0  0  0  0  0  0  0  0  0  0  0
  131.6742  134.0279  158.6979 C   0  0  0  0  0  0  0  0  0  0  0  0
  130.7176  134.6623  159.4088 C   0  0  0  0  0  0  0  0  0  0  0  0
  130.9161  135.8778  160.2773 C   0  0  0  0  0  0  0  0  0  0  0  0
  130.7119  137.0914  159.4751 N   0  0  0  0  0  0  0  0  0  0  0  0
  131.3761  137.1084  158.7157 H   0  0  0  0  0  0  0  0  0  0  0  0
  129.7744  137.0941  159.1019 H   0  0  0  0  0  0  0  0  0  0  0  0
  130.9055  138.2762  160.3215 C   0  0  0  0  0  0  0  0  0  0  0  0
  132.3057  138.2722  160.8788 C   0  0  0  0  0  0  0  0  0  0  0  0
  132.5936  138.2501  162.1518 C   0  0  0  0  0  0  0  0  0  0  0  0
  134.0884  138.2498  162.3715 C   0  0  0  0  0  0  0  0  0  0  0  0
  134.6887  137.8622  161.0001 C   0  0  0  0  0  0  0  0  0  0  0  0
  133.5606  138.3001  160.0376 C   0  0  0  0  0  0  0  0  0  0  0  0
  127.9543  135.3704  160.6208 O   0  0  0  0  0  0  0  0  0  0  0  0
  127.6021  134.9812  164.0494 C   0  0  0  0  0  0  0  0  0  0  0  0
  127.9843  134.5952  165.4811 C   0  0  0  0  0  0  0  0  0  0  0  0
  126.8638  134.8587  166.3347 O   0  0  0  0  0  0  0  0  0  0  0  0
  126.5859  136.2531  166.4776 C   0  0  0  0  0  0  0  0  0  0  0  0
  126.0676  137.8872  165.0508 H   0  0  0  0  0  0  0  0  0  0  0  0
  126.3730  138.0512  162.9111 H   0  0  0  0  0  0  0  0  0  0  0  0
  127.8440  137.2414  162.3206 H   0  0  0  0  0  0  0  0  0  0  0  0
  125.0802  136.4246  161.7704 H   0  0  0  0  0  0  0  0  0  0  0  0
  124.9899  134.0913  160.3963 H   0  0  0  0  0  0  0  0  0  0  0  0
  126.8738  132.8054  158.9604 H   0  0  0  0  0  0  0  0  0  0  0  0
  132.7176  134.3030  158.6515 H   0  0  0  0  0  0  0  0  0  0  0  0
  130.1985  135.8596  161.0975 H   0  0  0  0  0  0  0  0  0  0  0  0
  131.9288  135.8749  160.6803 H   0  0  0  0  0  0  0  0  0  0  0  0
  130.7540  139.1768  159.7263 H   0  0  0  0  0  0  0  0  0  0  0  0
  130.1878  138.2579  161.1418 H   0  0  0  0  0  0  0  0  0  0  0  0
  131.8595  138.2321  162.9439 H   0  0  0  0  0  0  0  0  0  0  0  0
  134.3634  137.5148  163.1279 H   0  0  0  0  0  0  0  0  0  0  0  0
  134.4257  139.2436  162.6664 H   0  0  0  0  0  0  0  0  0  0  0  0
  134.8610  136.7876  160.9381 H   0  0  0  0  0  0  0  0  0  0  0  0
  135.6069  138.4159  160.8044 H   0  0  0  0  0  0  0  0  0  0  0  0
  133.4766  137.5991  159.2072 H   0  0  0  0  0  0  0  0  0  0  0  0
  133.7471  139.3081  159.6674 H   0  0  0  0  0  0  0  0  0  0  0  0
  128.4960  134.9939  163.4260 H   0  0  0  0  0  0  0  0  0  0  0  0
  126.8940  134.2530  163.6540 H   0  0  0  0  0  0  0  0  0  0  0  0
  128.8399  135.1878  165.8051 H   0  0  0  0  0  0  0  0  0  0  0  0
  128.2349  133.5351  165.5211 H   0  0  0  0  0  0  0  0  0  0  0  0
  127.3761  136.7207  167.0650 H   0  0  0  0  0  0  0  0  0  0  0  0
  125.6329  136.3809  166.9912 H   0  0  0  0  0  0  0  0  0  0  0  0
  1 29  1  0
  1  2  2  0
  1 30  1  0
  2  3  1  0
  2 26  1  0
  3  4  1  0
  3 31  1  0
  3 32  1  0
  4  5  1  0
  4 33  1  0
  5 25  1  0
  5  6  2  0
  6  7  1  0
  6 34  1  0
  7  8  2  0
  7 35  1  0
  8  9  1  0
  8 25  1  0
  9 14  1  0
  9 10  2  0
 10 11  1  0
 11 12  1  0
 11 13  1  0
 13 14  2  0
 13 36  1  0
 14 15  1  0
 15 16  1  0
 15 37  1  0
 15 38  1  0
 16 17  1  0
 16 18  1  0
 16 19  1  0
 19 20  1  0
 19 39  1  0
 19 40  1  0
 20 24  1  0
 20 21  2  0
 21 22  1  0
 21 41  1  0
 22 23  1  0
 22 42  1  0
 22 43  1  0
 23 24  1  0
 23 44  1  0
 23 45  1  0
 24 46  1  0
 24 47  1  0
 26 27  1  0
 26 48  1  0
 26 49  1  0
 27 28  1  0
 27 50  1  0
 27 51  1  0
 28 29  1  0
 29 52  1  0
 29 53  1  0
M  CHG  1  16   1
M  END
>  <DOCK_score>  (1) 
-43.458572

>  <SMILES>  (1) 
C1=C(CNc2ccc(-c3n[nH]cc3C[NH2+]CC3=CCCC3)o2)CCOC1

$$$$
