Cn1cc(CNc2[nH+]cc(NCC3C[C@H](O)C3(C)C)n2C)cn1
     RDKit          3D

 50 52  0  0  1  0  0  0  0  0999 V2000
  131.0459  129.6429  150.4553 C   0  0  0  0  0  0  0  0  0  0  0  0
  131.0379  130.0607  151.8595 N   0  0  0  0  0  0  0  0  0  0  0  0
  130.7709  131.3020  152.3169 C   0  0  0  0  0  0  0  0  0  0  0  0
  130.8660  131.2735  153.6664 C   0  0  0  0  0  0  0  0  0  0  0  0
  130.6482  132.4399  154.5954 C   0  0  0  0  0  0  0  0  0  0  0  0
  129.8172  132.0160  155.7249 N   0  0  0  0  0  0  0  0  0  0  0  0
  129.9670  132.6247  156.9638 C   0  0  0  0  0  0  0  0  0  0  0  0
  130.8160  133.5806  157.2490 N   0  0  0  0  0  0  0  0  0  0  0  0
  131.4432  133.9784  156.6250 H   0  0  0  0  0  0  0  0  0  0  0  0
  130.6796  133.9270  158.5441 C   0  0  0  0  0  0  0  0  0  0  0  0
  129.7160  133.1539  159.0889 C   0  0  0  0  0  0  0  0  0  0  0  0
  129.2687  133.1894  160.4145 N   0  0  0  0  0  0  0  0  0  0  0  0
  129.5126  134.3760  161.2384 C   0  0  0  0  0  0  0  0  0  0  0  0
  128.3435  135.3511  161.0869 C   0  0  2  0  0  0  0  0  0  0  0  0
  128.4729  136.6089  161.9620 C   0  0  0  0  0  0  0  0  0  0  0  0
  126.9637  136.4825  162.2293 C   0  0  2  0  0  0  0  0  0  0  0  0
  126.3458  137.0072  161.5007 H   0  0  0  0  0  0  0  0  0  0  0  0
  126.5956  136.7692  163.5801 O   0  0  0  0  0  0  0  0  0  0  0  0
  127.1178  134.9803  161.9385 C   0  0  0  0  0  0  0  0  0  0  0  0
  125.9625  134.3916  161.1264 C   0  0  0  0  0  0  0  0  0  0  0  0
  127.4602  134.1467  163.1749 C   0  0  0  0  0  0  0  0  0  0  0  0
  129.2584  132.3236  158.0907 N   0  0  0  0  0  0  0  0  0  0  0  0
  128.2091  131.3087  158.2147 C   0  0  0  0  0  0  0  0  0  0  0  0
  131.2027  129.9702  154.0467 C   0  0  0  0  0  0  0  0  0  0  0  0
  131.3060  129.2425  152.9644 N   0  0  0  0  0  0  0  0  0  0  0  0
  132.0454  129.7779  150.0417 H   0  0  0  0  0  0  0  0  0  0  0  0
  130.7635  128.5923  150.3872 H   0  0  0  0  0  0  0  0  0  0  0  0
  130.3350  130.2475  149.8923 H   0  0  0  0  0  0  0  0  0  0  0  0
  130.5214  132.1627  151.7142 H   0  0  0  0  0  0  0  0  0  0  0  0
  131.6103  132.7946  154.9650 H   0  0  0  0  0  0  0  0  0  0  0  0
  130.1469  133.2444  154.0572 H   0  0  0  0  0  0  0  0  0  0  0  0
  129.1625  131.3101  155.6074 H   0  0  0  0  0  0  0  0  0  0  0  0
  131.2460  134.6890  159.0586 H   0  0  0  0  0  0  0  0  0  0  0  0
  128.7971  132.4284  160.7878 H   0  0  0  0  0  0  0  0  0  0  0  0
  129.6057  134.0798  162.2832 H   0  0  0  0  0  0  0  0  0  0  0  0
  130.4338  134.8601  160.9144 H   0  0  0  0  0  0  0  0  0  0  0  0
  128.1029  135.5651  160.0455 H   0  0  0  0  0  0  0  0  0  0  0  0
  129.0874  136.4614  162.8503 H   0  0  0  0  0  0  0  0  0  0  0  0
  128.7438  137.5042  161.4026 H   0  0  0  0  0  0  0  0  0  0  0  0
  127.2322  136.4544  164.2364 H   0  0  0  0  0  0  0  0  0  0  0  0
  126.2967  133.4834  160.6247 H   0  0  0  0  0  0  0  0  0  0  0  0
  125.1336  134.1543  161.7931 H   0  0  0  0  0  0  0  0  0  0  0  0
  125.6342  135.1177  160.3826 H   0  0  0  0  0  0  0  0  0  0  0  0
  128.1424  134.7076  163.8137 H   0  0  0  0  0  0  0  0  0  0  0  0
  126.5471  133.9231  163.7267 H   0  0  0  0  0  0  0  0  0  0  0  0
  127.9348  133.2156  162.8654 H   0  0  0  0  0  0  0  0  0  0  0  0
  128.6560  130.3575  158.5036 H   0  0  0  0  0  0  0  0  0  0  0  0
  127.4917  131.6188  158.9745 H   0  0  0  0  0  0  0  0  0  0  0  0
  127.6989  131.1949  157.2582 H   0  0  0  0  0  0  0  0  0  0  0  0
  131.3523  129.6247  155.0589 H   0  0  0  0  0  0  0  0  0  0  0  0
  1  2  1  0
  1 26  1  0
  1 27  1  0
  1 28  1  0
  2 25  1  0
  2  3  1  0
  3  4  2  0
  3 29  1  0
  4  5  1  0
  4 24  1  0
  5  6  1  0
  5 30  1  0
  5 31  1  0
  6 32  1  0
  7  6  1  0
  7 22  1  0
  7  8  2  0
  8  9  1  0
  8 10  1  0
 10 11  2  0
 10 33  1  0
 11 12  1  0
 11 22  1  0
 12 13  1  0
 12 34  1  0
 13 14  1  0
 13 35  1  0
 13 36  1  0
 14 19  1  0
 14 15  1  0
 14 37  1  6
 15 16  1  0
 15 38  1  0
 15 39  1  0
 16 17  1  6
 16 18  1  0
 16 19  1  0
 18 40  1  0
 19 20  1  0
 19 21  1  0
 20 41  1  0
 20 42  1  0
 20 43  1  0
 21 44  1  0
 21 45  1  0
 21 46  1  0
 22 23  1  0
 23 47  1  0
 23 48  1  0
 23 49  1  0
 24 25  2  0
 24 50  1  0
M  CHG  1   8   1
M  END
>  <DOCK_score>  (1) 
-42.240704

>  <SMILES>  (1) 
Cn1cc(CNc2[nH+]cc(NCC3C[C@H](O)C3(C)C)n2C)cn1

$$$$
