c1ccc(CCCc2cccc3[nH]c(CNC4CC[N@@H+]5CCCCC45)cc23)cc1
     RDKit          3D

 63 67  0  0  1  0  0  0  0  0999 V2000
  138.1391  135.5023  165.5087 C   0  0  0  0  0  0  0  0  0  0  0  0
  138.3310  135.7788  164.1681 C   0  0  0  0  0  0  0  0  0  0  0  0
  137.5250  136.7037  163.5309 C   0  0  0  0  0  0  0  0  0  0  0  0
  136.5272  137.3519  164.2344 C   0  0  0  0  0  0  0  0  0  0  0  0
  135.6488  138.3604  163.5398 C   0  0  0  0  0  0  0  0  0  0  0  0
  136.2821  139.7489  163.6483 C   0  0  0  0  0  0  0  0  0  0  0  0
  135.3902  140.7727  162.9431 C   0  0  0  0  0  0  0  0  0  0  0  0
  135.2468  140.3979  161.4905 C   0  0  0  0  0  0  0  0  0  0  0  0
  136.1339  140.8772  160.5679 C   0  0  0  0  0  0  0  0  0  0  0  0
  136.0098  140.5376  159.2279 C   0  0  0  0  0  0  0  0  0  0  0  0
  134.9913  139.7122  158.8035 C   0  0  0  0  0  0  0  0  0  0  0  0
  134.0772  139.2130  159.7252 C   0  0  0  0  0  0  0  0  0  0  0  0
  132.9790  138.3890  159.6205 N   0  0  0  0  0  0  0  0  0  0  0  0
  132.6531  137.9972  158.7951 H   0  0  0  0  0  0  0  0  0  0  0  0
  132.4159  138.2055  160.8539 C   0  0  0  0  0  0  0  0  0  0  0  0
  131.1967  137.3643  161.1316 C   0  0  0  0  0  0  0  0  0  0  0  0
  131.3094  136.0868  160.4153 N   0  0  0  0  0  0  0  0  0  0  0  0
  129.9938  135.4516  160.2614 C   0  0  1  0  0  0  0  0  0  0  0  0
  129.0800  136.3092  159.3488 C   0  0  0  0  0  0  0  0  0  0  0  0
  128.8104  135.4205  158.1052 C   0  0  0  0  0  0  0  0  0  0  0  0
  129.9599  134.5019  158.0849 N   0  0  2  0  0  0  0  0  0  0  0  0
  130.7825  134.9896  157.7633 H   0  0  0  0  0  0  0  0  0  0  0  0
  129.7696  133.2847  157.3075 C   0  0  0  0  0  0  0  0  0  0  0  0
  131.0749  132.4776  157.3713 C   0  0  0  0  0  0  0  0  0  0  0  0
  131.4569  132.1665  158.8180 C   0  0  0  0  0  0  0  0  0  0  0  0
  131.4840  133.4536  159.6581 C   0  0  0  0  0  0  0  0  0  0  0  0
  130.1246  134.1212  159.5134 C   0  0  1  0  0  0  0  0  0  0  0  0
  133.1100  138.8857  161.7798 C   0  0  0  0  0  0  0  0  0  0  0  0
  134.2074  139.5603  161.0825 C   0  0  0  0  0  0  0  0  0  0  0  0
  136.3388  137.0792  165.5764 C   0  0  0  0  0  0  0  0  0  0  0  0
  137.1413  136.1506  166.2124 C   0  0  0  0  0  0  0  0  0  0  0  0
  138.7691  134.7801  166.0067 H   0  0  0  0  0  0  0  0  0  0  0  0
  139.1108  135.2727  163.6184 H   0  0  0  0  0  0  0  0  0  0  0  0
  137.6751  136.9199  162.4835 H   0  0  0  0  0  0  0  0  0  0  0  0
  134.6659  138.3716  164.0110 H   0  0  0  0  0  0  0  0  0  0  0  0
  135.5450  138.0893  162.4891 H   0  0  0  0  0  0  0  0  0  0  0  0
  137.2650  139.7378  163.1772 H   0  0  0  0  0  0  0  0  0  0  0  0
  136.3858  140.0200  164.6989 H   0  0  0  0  0  0  0  0  0  0  0  0
  135.8413  141.7619  163.0202 H   0  0  0  0  0  0  0  0  0  0  0  0
  134.4073  140.7839  163.4141 H   0  0  0  0  0  0  0  0  0  0  0  0
  136.9381  141.5251  160.8841 H   0  0  0  0  0  0  0  0  0  0  0  0
  136.7213  140.9205  158.5113 H   0  0  0  0  0  0  0  0  0  0  0  0
  134.9035  139.4536  157.7586 H   0  0  0  0  0  0  0  0  0  0  0  0
  131.1221  137.1751  162.2025 H   0  0  0  0  0  0  0  0  0  0  0  0
  130.3056  137.8931  160.7933 H   0  0  0  0  0  0  0  0  0  0  0  0
  131.9576  135.4681  160.8792 H   0  0  0  0  0  0  0  0  0  0  0  0
  129.5275  135.3005  161.2350 H   0  0  0  0  0  0  0  0  0  0  0  0
  128.1450  136.5412  159.8588 H   0  0  0  0  0  0  0  0  0  0  0  0
  129.5905  137.2267  159.0557 H   0  0  0  0  0  0  0  0  0  0  0  0
  127.8788  134.8671  158.2234 H   0  0  0  0  0  0  0  0  0  0  0  0
  128.7838  136.0258  157.1990 H   0  0  0  0  0  0  0  0  0  0  0  0
  128.9561  132.6977  157.7337 H   0  0  0  0  0  0  0  0  0  0  0  0
  129.5392  133.5396  156.2730 H   0  0  0  0  0  0  0  0  0  0  0  0
  131.8727  133.0568  156.9063 H   0  0  0  0  0  0  0  0  0  0  0  0
  130.9454  131.5430  156.8256 H   0  0  0  0  0  0  0  0  0  0  0  0
  132.4435  131.7036  158.8377 H   0  0  0  0  0  0  0  0  0  0  0  0
  130.7274  131.4761  159.2414 H   0  0  0  0  0  0  0  0  0  0  0  0
  132.2646  134.1196  159.2902 H   0  0  0  0  0  0  0  0  0  0  0  0
  131.6672  133.2092  160.7042 H   0  0  0  0  0  0  0  0  0  0  0  0
  129.3256  133.4435  159.8144 H   0  0  0  0  0  0  0  0  0  0  0  0
  132.8995  138.9273  162.8383 H   0  0  0  0  0  0  0  0  0  0  0  0
  135.5619  137.5889  166.1272 H   0  0  0  0  0  0  0  0  0  0  0  0
  136.9917  135.9348  167.2599 H   0  0  0  0  0  0  0  0  0  0  0  0
  1 31  2  0
  1  2  1  0
  1 32  1  0
  2  3  2  0
  2 33  1  0
  3  4  1  0
  3 34  1  0
  4  5  1  0
  4 30  2  0
  5  6  1  0
  5 35  1  0
  5 36  1  0
  6  7  1  0
  6 37  1  0
  6 38  1  0
  7  8  1  0
  7 39  1  0
  7 40  1  0
  8 29  1  0
  8  9  2  0
  9 10  1  0
  9 41  1  0
 10 11  2  0
 10 42  1  0
 11 12  1  0
 11 43  1  0
 12 29  2  0
 12 13  1  0
 13 14  1  0
 13 15  1  0
 15 16  1  0
 15 28  2  0
 16 17  1  0
 16 44  1  0
 16 45  1  0
 17 18  1  0
 17 46  1  0
 18 27  1  0
 18 19  1  0
 18 47  1  1
 19 20  1  0
 19 48  1  0
 19 49  1  0
 20 21  1  0
 20 50  1  0
 20 51  1  0
 21 22  1  6
 21 27  1  0
 21 23  1  0
 23 24  1  0
 23 52  1  0
 23 53  1  0
 24 25  1  0
 24 54  1  0
 24 55  1  0
 25 26  1  0
 25 56  1  0
 25 57  1  0
 26 27  1  0
 26 58  1  0
 26 59  1  0
 27 60  1  1
 28 29  1  0
 28 61  1  0
 30 31  1  0
 30 62  1  0
 31 63  1  0
M  CHG  1  21   1
M  END
>  <DOCK_score>  (1) 
-57.104553

>  <SMILES>  (1) 
c1ccc(CCCc2cccc3[nH]c(CNC4CC[N@@H+]5CCCCC45)cc23)cc1

$$$$
