CCc1ccc(-c2c[nH]c(N[C@H](c3ccc(F)cc3)c3ccc(OC)cc3)[nH+]2)cc1
     RDKit          3D

 55 58  0  0  1  0  0  0  0  0999 V2000
  130.0365  128.6200  151.7497 C   0  0  0  0  0  0  0  0  0  0  0  0
  131.0676  129.7385  151.9120 C   0  0  0  0  0  0  0  0  0  0  0  0
  130.8274  130.4584  153.2140 C   0  0  0  0  0  0  0  0  0  0  0  0
  131.4571  130.0257  154.3665 C   0  0  0  0  0  0  0  0  0  0  0  0
  131.2454  130.6844  155.5607 C   0  0  0  0  0  0  0  0  0  0  0  0
  130.3861  131.7808  155.6058 C   0  0  0  0  0  0  0  0  0  0  0  0
  130.1502  132.4895  156.8874 C   0  0  0  0  0  0  0  0  0  0  0  0
  129.6399  131.9437  158.0191 C   0  0  0  0  0  0  0  0  0  0  0  0
  129.5915  132.9453  158.9579 N   0  0  0  0  0  0  0  0  0  0  0  0
  129.2720  132.8627  159.8701 H   0  0  0  0  0  0  0  0  0  0  0  0
  130.0741  134.0748  158.3721 C   0  0  0  0  0  0  0  0  0  0  0  0
  130.1936  135.3117  158.9822 N   0  0  0  0  0  0  0  0  0  0  0  0
  129.7818  135.4830  160.3777 C   0  0  2  0  0  0  0  0  0  0  0  0
  130.3667  134.8183  161.0133 H   0  0  0  0  0  0  0  0  0  0  0  0
  128.3184  135.1496  160.5141 C   0  0  0  0  0  0  0  0  0  0  0  0
  127.8361  134.6300  161.7009 C   0  0  0  0  0  0  0  0  0  0  0  0
  126.4936  134.3283  161.8289 C   0  0  0  0  0  0  0  0  0  0  0  0
  125.6332  134.5370  160.7641 C   0  0  0  0  0  0  0  0  0  0  0  0
  124.3214  134.2381  160.8864 F   0  0  0  0  0  0  0  0  0  0  0  0
  126.1184  135.0525  159.5743 C   0  0  0  0  0  0  0  0  0  0  0  0
  127.4604  135.3583  159.4504 C   0  0  0  0  0  0  0  0  0  0  0  0
  130.0126  136.9117  160.7979 C   0  0  0  0  0  0  0  0  0  0  0  0
  131.0370  137.6427  160.2250 C   0  0  0  0  0  0  0  0  0  0  0  0
  131.2471  138.9544  160.6044 C   0  0  0  0  0  0  0  0  0  0  0  0
  130.4366  139.5343  161.5692 C   0  0  0  0  0  0  0  0  0  0  0  0
  130.6445  140.8228  161.9483 O   0  0  0  0  0  0  0  0  0  0  0  0
  129.7715  141.3547  162.9465 C   0  0  0  0  0  0  0  0  0  0  0  0
  129.4128  138.7970  162.1467 C   0  0  0  0  0  0  0  0  0  0  0  0
  129.2033  137.4876  161.7597 C   0  0  0  0  0  0  0  0  0  0  0  0
  130.4123  133.7971  157.1366 N   0  0  0  0  0  0  0  0  0  0  0  0
  130.7878  134.4266  156.5012 H   0  0  0  0  0  0  0  0  0  0  0  0
  129.7497  132.2092  154.4422 C   0  0  0  0  0  0  0  0  0  0  0  0
  129.9733  131.5463  153.2525 C   0  0  0  0  0  0  0  0  0  0  0  0
  130.2101  128.0994  150.8080 H   0  0  0  0  0  0  0  0  0  0  0  0
  130.1314  127.9163  152.5767 H   0  0  0  0  0  0  0  0  0  0  0  0
  129.0336  129.0470  151.7493 H   0  0  0  0  0  0  0  0  0  0  0  0
  132.0701  129.3120  151.9119 H   0  0  0  0  0  0  0  0  0  0  0  0
  130.9724  130.4427  151.0846 H   0  0  0  0  0  0  0  0  0  0  0  0
  132.1191  129.1731  154.3314 H   0  0  0  0  0  0  0  0  0  0  0  0
  131.7413  130.3485  156.4594 H   0  0  0  0  0  0  0  0  0  0  0  0
  129.3304  130.9181  158.1558 H   0  0  0  0  0  0  0  0  0  0  0  0
  130.5502  136.0650  158.4858 H   0  0  0  0  0  0  0  0  0  0  0  0
  128.5081  134.4635  162.5299 H   0  0  0  0  0  0  0  0  0  0  0  0
  126.1162  133.9263  162.7575 H   0  0  0  0  0  0  0  0  0  0  0  0
  125.4483  135.2154  158.7430 H   0  0  0  0  0  0  0  0  0  0  0  0
  127.8390  135.7608  158.5225 H   0  0  0  0  0  0  0  0  0  0  0  0
  131.6705  137.1892  159.4771 H   0  0  0  0  0  0  0  0  0  0  0  0
  132.0445  139.5263  160.1535 H   0  0  0  0  0  0  0  0  0  0  0  0
  129.8595  140.7637  163.8582 H   0  0  0  0  0  0  0  0  0  0  0  0
  130.0458  142.3885  163.1558 H   0  0  0  0  0  0  0  0  0  0  0  0
  128.7430  141.3173  162.5872 H   0  0  0  0  0  0  0  0  0  0  0  0
  128.7807  139.2463  162.8983 H   0  0  0  0  0  0  0  0  0  0  0  0
  128.4065  136.9132  162.2086 H   0  0  0  0  0  0  0  0  0  0  0  0
  129.0826  133.0581  154.4715 H   0  0  0  0  0  0  0  0  0  0  0  0
  129.4810  131.8777  152.3502 H   0  0  0  0  0  0  0  0  0  0  0  0
  1  2  1  0
  1 34  1  0
  1 35  1  0
  1 36  1  0
  2  3  1  0
  2 37  1  0
  2 38  1  0
  3 33  2  0
  3  4  1  0
  4  5  2  0
  4 39  1  0
  5  6  1  0
  5 40  1  0
  6  7  1  0
  6 32  2  0
  7 30  1  0
  7  8  2  0
  8  9  1  0
  8 41  1  0
  9 10  1  0
  9 11  1  0
 11 12  1  0
 11 30  2  0
 12 13  1  0
 12 42  1  0
 13 14  1  1
 13 15  1  0
 13 22  1  0
 15 21  1  0
 15 16  2  0
 16 17  1  0
 16 43  1  0
 17 18  2  0
 17 44  1  0
 18 19  1  0
 18 20  1  0
 20 21  2  0
 20 45  1  0
 21 46  1  0
 22 29  1  0
 22 23  2  0
 23 24  1  0
 23 47  1  0
 24 25  2  0
 24 48  1  0
 25 26  1  0
 25 28  1  0
 26 27  1  0
 27 49  1  0
 27 50  1  0
 27 51  1  0
 28 29  2  0
 28 52  1  0
 29 53  1  0
 30 31  1  0
 32 33  1  0
 32 54  1  0
 33 55  1  0
M  CHG  1  30   1
M  END
>  <DOCK_score>  (1) 
-57.686375

>  <SMILES>  (1) 
CCc1ccc(-c2c[nH]c(N[C@H](c3ccc(F)cc3)c3ccc(OC)cc3)[nH+]2)cc1

$$$$
