O=C1CC[C@H](NC(N[C@H]2COc3ccc(CCCCc4ccccc4)cc3C2)=[NH+]C2CC2)CN1
     RDKit          3D

 71 75  0  0  1  0  0  0  0  0999 V2000
  123.8293  133.6365  161.3940 O   0  0  0  0  0  0  0  0  0  0  0  0
  124.9700  133.9428  161.1182 C   0  0  0  0  0  0  0  0  0  0  0  0
  125.8819  132.8774  160.5809 C   0  0  0  0  0  0  0  0  0  0  0  0
  127.3396  133.3266  160.7086 C   0  0  0  0  0  0  0  0  0  0  0  0
  127.4597  134.7481  160.1462 C   0  0  2  0  0  0  0  0  0  0  0  0
  127.0342  134.7819  159.1433 H   0  0  0  0  0  0  0  0  0  0  0  0
  128.8707  135.1388  160.0949 N   0  0  0  0  0  0  0  0  0  0  0  0
  129.7590  134.4092  159.3407 C   0  0  0  0  0  0  0  0  0  0  0  0
  131.0785  134.3302  159.7183 N   0  0  0  0  0  0  0  0  0  0  0  0
  131.5383  135.0234  160.9243 C   0  0  1  0  0  0  0  0  0  0  0  0
  130.9345  135.9161  161.0874 H   0  0  0  0  0  0  0  0  0  0  0  0
  131.4188  134.0891  162.1351 C   0  0  0  0  0  0  0  0  0  0  0  0
  131.7749  134.8232  163.3072 O   0  0  0  0  0  0  0  0  0  0  0  0
  132.9302  135.5375  163.2823 C   0  0  0  0  0  0  0  0  0  0  0  0
  133.4769  135.9580  164.4908 C   0  0  0  0  0  0  0  0  0  0  0  0
  134.6446  136.6926  164.5065 C   0  0  0  0  0  0  0  0  0  0  0  0
  135.2748  137.0129  163.3178 C   0  0  0  0  0  0  0  0  0  0  0  0
  136.5493  137.8169  163.3336 C   0  0  0  0  0  0  0  0  0  0  0  0
  136.2127  139.3076  163.2606 C   0  0  0  0  0  0  0  0  0  0  0  0
  135.3504  139.6953  164.4635 C   0  0  0  0  0  0  0  0  0  0  0  0
  135.0140  141.1860  164.3905 C   0  0  0  0  0  0  0  0  0  0  0  0
  134.1646  141.5678  165.5754 C   0  0  0  0  0  0  0  0  0  0  0  0
  132.7867  141.4947  165.4905 C   0  0  0  0  0  0  0  0  0  0  0  0
  132.0078  141.8402  166.5788 C   0  0  0  0  0  0  0  0  0  0  0  0
  132.6064  142.2692  167.7489 C   0  0  0  0  0  0  0  0  0  0  0  0
  133.9840  142.3473  167.8321 C   0  0  0  0  0  0  0  0  0  0  0  0
  134.7630  141.9967  166.7453 C   0  0  0  0  0  0  0  0  0  0  0  0
  134.7357  136.5961  162.1167 C   0  0  0  0  0  0  0  0  0  0  0  0
  133.5644  135.8573  162.0948 C   0  0  0  0  0  0  0  0  0  0  0  0
  133.0088  135.4173  160.7642 C   0  0  0  0  0  0  0  0  0  0  0  0
  129.3500  133.7925  158.2677 N   0  0  0  0  0  0  0  0  0  0  0  0
  128.4190  133.8483  158.0013 H   0  0  0  0  0  0  0  0  0  0  0  0
  130.2966  133.0151  157.4640 C   0  0  0  0  0  0  0  0  0  0  0  0
  129.7225  131.9348  156.5452 C   0  0  0  0  0  0  0  0  0  0  0  0
  130.4752  131.5368  157.8165 C   0  0  0  0  0  0  0  0  0  0  0  0
  126.6951  135.7062  161.0605 C   0  0  0  0  0  0  0  0  0  0  0  0
  125.3472  135.2077  161.3078 N   0  0  0  0  0  0  0  0  0  0  0  0
  125.6490  132.6971  159.5314 H   0  0  0  0  0  0  0  0  0  0  0  0
  125.7357  131.9570  161.1462 H   0  0  0  0  0  0  0  0  0  0  0  0
  127.9822  132.6525  160.1422 H   0  0  0  0  0  0  0  0  0  0  0  0
  127.6348  133.3208  161.7578 H   0  0  0  0  0  0  0  0  0  0  0  0
  129.1790  135.9098  160.5962 H   0  0  0  0  0  0  0  0  0  0  0  0
  131.7054  133.8154  159.1862 H   0  0  0  0  0  0  0  0  0  0  0  0
  130.3928  133.7316  162.2231 H   0  0  0  0  0  0  0  0  0  0  0  0
  132.0940  133.2420  162.0131 H   0  0  0  0  0  0  0  0  0  0  0  0
  132.9855  135.7084  165.4196 H   0  0  0  0  0  0  0  0  0  0  0  0
  135.0660  137.0174  165.4462 H   0  0  0  0  0  0  0  0  0  0  0  0
  137.0966  137.6125  164.2538 H   0  0  0  0  0  0  0  0  0  0  0  0
  137.1637  137.5408  162.4765 H   0  0  0  0  0  0  0  0  0  0  0  0
  137.1345  139.8892  163.2720 H   0  0  0  0  0  0  0  0  0  0  0  0
  135.6655  139.5120  162.3404 H   0  0  0  0  0  0  0  0  0  0  0  0
  134.4285  139.1138  164.4521 H   0  0  0  0  0  0  0  0  0  0  0  0
  135.8976  139.4909  165.3838 H   0  0  0  0  0  0  0  0  0  0  0  0
  135.9358  141.7675  164.4019 H   0  0  0  0  0  0  0  0  0  0  0  0
  134.4668  141.3904  163.4703 H   0  0  0  0  0  0  0  0  0  0  0  0
  132.3190  141.1638  164.5750 H   0  0  0  0  0  0  0  0  0  0  0  0
  130.9315  141.7794  166.5138 H   0  0  0  0  0  0  0  0  0  0  0  0
  131.9976  142.5434  168.5977 H   0  0  0  0  0  0  0  0  0  0  0  0
  134.4516  142.6826  168.7460 H   0  0  0  0  0  0  0  0  0  0  0  0
  135.8394  142.0582  166.8103 H   0  0  0  0  0  0  0  0  0  0  0  0
  135.2300  136.8473  161.1898 H   0  0  0  0  0  0  0  0  0  0  0  0
  133.5760  134.5609  160.3995 H   0  0  0  0  0  0  0  0  0  0  0  0
  133.0892  136.2358  160.0489 H   0  0  0  0  0  0  0  0  0  0  0  0
  131.1744  133.5587  157.1149 H   0  0  0  0  0  0  0  0  0  0  0  0
  128.6406  131.8025  156.5386 H   0  0  0  0  0  0  0  0  0  0  0  0
  130.2225  131.7677  155.5912 H   0  0  0  0  0  0  0  0  0  0  0  0
  131.4703  131.1081  157.6988 H   0  0  0  0  0  0  0  0  0  0  0  0
  129.8887  131.1430  158.6465 H   0  0  0  0  0  0  0  0  0  0  0  0
  127.2230  135.7969  162.0097 H   0  0  0  0  0  0  0  0  0  0  0  0
  126.6385  136.6869  160.5882 H   0  0  0  0  0  0  0  0  0  0  0  0
  124.6824  135.8372  161.6283 H   0  0  0  0  0  0  0  0  0  0  0  0
  1  2  2  0
  2 37  1  0
  2  3  1  0
  3  4  1  0
  3 38  1  0
  3 39  1  0
  4  5  1  0
  4 40  1  0
  4 41  1  0
  5  6  1  6
  5  7  1  0
  5 36  1  0
  7 42  1  0
  8  7  1  0
  8  9  1  0
  8 31  2  0
  9 10  1  0
  9 43  1  0
 10 11  1  1
 10 30  1  0
 10 12  1  0
 12 13  1  0
 12 44  1  0
 12 45  1  0
 13 14  1  0
 14 29  2  0
 14 15  1  0
 15 16  2  0
 15 46  1  0
 16 17  1  0
 16 47  1  0
 17 18  1  0
 17 28  2  0
 18 19  1  0
 18 48  1  0
 18 49  1  0
 19 20  1  0
 19 50  1  0
 19 51  1  0
 20 21  1  0
 20 52  1  0
 20 53  1  0
 21 22  1  0
 21 54  1  0
 21 55  1  0
 22 27  1  0
 22 23  2  0
 23 24  1  0
 23 56  1  0
 24 25  2  0
 24 57  1  0
 25 26  1  0
 25 58  1  0
 26 27  2  0
 26 59  1  0
 27 60  1  0
 28 29  1  0
 28 61  1  0
 29 30  1  0
 30 62  1  0
 30 63  1  0
 31 32  1  0
 31 33  1  0
 33 35  1  0
 33 34  1  0
 33 64  1  0
 34 35  1  0
 34 65  1  0
 34 66  1  0
 35 67  1  0
 35 68  1  0
 36 37  1  0
 36 69  1  0
 36 70  1  0
 37 71  1  0
M  CHG  1  31   1
M  END
>  <DOCK_score>  (1) 
-46.643787

>  <SMILES>  (1) 
O=C1CC[C@H](NC(N[C@H]2COc3ccc(CCCCc4ccccc4)cc3C2)=[NH+]C2CC2)CN1

$$$$
