O[C@@H]1C=C[C@@H]([NH+]=C(NC2CC=CC2)N[C@H]2Cc3ccc(-c4ccccc4)cc3C2)[C@@H]1Cl
     RDKit          3D

 60 64  0  0  1  0  0  0  0  0999 V2000
  125.0358  135.3028  161.7160 O   0  0  0  0  0  0  0  0  0  0  0  0
  126.2281  135.3317  160.9289 C   0  0  2  0  0  0  0  0  0  0  0  0
  126.7502  136.2785  161.0667 H   0  0  0  0  0  0  0  0  0  0  0  0
  125.9064  135.1212  159.4675 C   0  0  0  0  0  0  0  0  0  0  0  0
  126.7321  134.2697  158.9225 C   0  0  0  0  0  0  0  0  0  0  0  0
  127.7478  133.7776  159.9271 C   0  0  1  0  0  0  0  0  0  0  0  0
  127.8721  132.6979  159.8436 H   0  0  0  0  0  0  0  0  0  0  0  0
  129.0315  134.4550  159.7286 N   0  0  0  0  0  0  0  0  0  0  0  0
  129.2205  135.2829  160.1971 H   0  0  0  0  0  0  0  0  0  0  0  0
  129.9196  133.9450  158.9222 C   0  0  0  0  0  0  0  0  0  0  0  0
  129.5172  133.2020  157.8379 N   0  0  0  0  0  0  0  0  0  0  0  0
  130.5153  132.6288  156.9314 C   0  0  0  0  0  0  0  0  0  0  0  0
  129.8991  132.3288  155.5453 C   0  0  0  0  0  0  0  0  0  0  0  0
  130.5536  131.0389  155.1057 C   0  0  0  0  0  0  0  0  0  0  0  0
  131.1194  130.4317  156.1131 C   0  0  0  0  0  0  0  0  0  0  0  0
  130.9366  131.2142  157.3926 C   0  0  0  0  0  0  0  0  0  0  0  0
  131.2588  134.1506  159.1560 N   0  0  0  0  0  0  0  0  0  0  0  0
  131.6875  134.9426  160.3114 C   0  0  1  0  0  0  0  0  0  0  0  0
  131.2867  135.9548  160.2554 H   0  0  0  0  0  0  0  0  0  0  0  0
  131.2740  134.2566  161.6306 C   0  0  0  0  0  0  0  0  0  0  0  0
  132.3976  134.5534  162.6011 C   0  0  0  0  0  0  0  0  0  0  0  0
  132.4315  134.4709  163.9843 C   0  0  0  0  0  0  0  0  0  0  0  0
  133.5805  134.7941  164.6743 C   0  0  0  0  0  0  0  0  0  0  0  0
  134.7145  135.2061  163.9770 C   0  0  0  0  0  0  0  0  0  0  0  0
  135.9555  135.5557  164.7117 C   0  0  0  0  0  0  0  0  0  0  0  0
  137.1997  135.3565  164.1170 C   0  0  0  0  0  0  0  0  0  0  0  0
  138.3506  135.6879  164.8031 C   0  0  0  0  0  0  0  0  0  0  0  0
  138.2707  136.2072  166.0827 C   0  0  0  0  0  0  0  0  0  0  0  0
  137.0383  136.4020  166.6799 C   0  0  0  0  0  0  0  0  0  0  0  0
  135.8808  136.0791  166.0008 C   0  0  0  0  0  0  0  0  0  0  0  0
  134.6776  135.2878  162.5878 C   0  0  0  0  0  0  0  0  0  0  0  0
  133.5206  134.9619  161.9040 C   0  0  0  0  0  0  0  0  0  0  0  0
  133.2269  134.9673  160.4188 C   0  0  0  0  0  0  0  0  0  0  0  0
  127.1503  134.1486  161.3043 C   0  0  2  0  0  0  0  0  0  0  0  0
  127.9303  134.4648  161.9968 H   0  0  0  0  0  0  0  0  0  0  0  0
  126.1997  132.7775  161.9879 Cl  0  0  0  0  0  0  0  0  0  0  0  0
  124.4195  136.0225  161.5230 H   0  0  0  0  0  0  0  0  0  0  0  0
  125.0983  135.6095  158.9435 H   0  0  0  0  0  0  0  0  0  0  0  0
  126.6967  133.9610  157.8882 H   0  0  0  0  0  0  0  0  0  0  0  0
  128.5723  133.0571  157.6728 H   0  0  0  0  0  0  0  0  0  0  0  0
  131.3809  133.2849  156.8411 H   0  0  0  0  0  0  0  0  0  0  0  0
  128.8203  132.1975  155.6297 H   0  0  0  0  0  0  0  0  0  0  0  0
  130.1311  133.1311  154.8449 H   0  0  0  0  0  0  0  0  0  0  0  0
  130.5530  130.6688  154.0912 H   0  0  0  0  0  0  0  0  0  0  0  0
  131.6492  129.4932  156.0412 H   0  0  0  0  0  0  0  0  0  0  0  0
  131.8736  131.2591  157.9475 H   0  0  0  0  0  0  0  0  0  0  0  0
  130.1537  130.7652  158.0038 H   0  0  0  0  0  0  0  0  0  0  0  0
  131.9196  133.7711  158.5559 H   0  0  0  0  0  0  0  0  0  0  0  0
  130.3370  134.6757  161.9974 H   0  0  0  0  0  0  0  0  0  0  0  0
  131.1760  133.1810  161.4830 H   0  0  0  0  0  0  0  0  0  0  0  0
  131.5524  134.1521  164.5249 H   0  0  0  0  0  0  0  0  0  0  0  0
  133.6018  134.7280  165.7521 H   0  0  0  0  0  0  0  0  0  0  0  0
  137.2634  134.9473  163.1196 H   0  0  0  0  0  0  0  0  0  0  0  0
  139.3153  135.5381  164.3414 H   0  0  0  0  0  0  0  0  0  0  0  0
  139.1738  136.4609  166.6177 H   0  0  0  0  0  0  0  0  0  0  0  0
  136.9817  136.8073  167.6792 H   0  0  0  0  0  0  0  0  0  0  0  0
  134.9191  136.2313  166.4681 H   0  0  0  0  0  0  0  0  0  0  0  0
  135.5541  135.6063  162.0432 H   0  0  0  0  0  0  0  0  0  0  0  0
  133.6532  134.0827  159.9458 H   0  0  0  0  0  0  0  0  0  0  0  0
  133.6239  135.8710  159.9565 H   0  0  0  0  0  0  0  0  0  0  0  0
  1  2  1  0
  1 37  1  0
  2  3  1  6
  2 34  1  0
  2  4  1  0
  4  5  2  0
  4 38  1  0
  5  6  1  0
  5 39  1  0
  6  7  1  1
  6  8  1  0
  6 34  1  0
  8  9  1  0
 10  8  2  0
 10 11  1  0
 10 17  1  0
 11 12  1  0
 11 40  1  0
 12 16  1  0
 12 13  1  0
 12 41  1  0
 13 14  1  0
 13 42  1  0
 13 43  1  0
 14 15  2  0
 14 44  1  0
 15 16  1  0
 15 45  1  0
 16 46  1  0
 16 47  1  0
 17 18  1  0
 17 48  1  0
 18 19  1  6
 18 33  1  0
 18 20  1  0
 20 21  1  0
 20 49  1  0
 20 50  1  0
 21 32  2  0
 21 22  1  0
 22 23  2  0
 22 51  1  0
 23 24  1  0
 23 52  1  0
 24 25  1  0
 24 31  2  0
 25 30  1  0
 25 26  2  0
 26 27  1  0
 26 53  1  0
 27 28  2  0
 27 54  1  0
 28 29  1  0
 28 55  1  0
 29 30  2  0
 29 56  1  0
 30 57  1  0
 31 32  1  0
 31 58  1  0
 32 33  1  0
 33 59  1  0
 33 60  1  0
 34 35  1  1
 34 36  1  0
M  CHG  1   8   1
M  END
>  <DOCK_score>  (1) 
-51.329041

>  <SMILES>  (1) 
O[C@@H]1C=C[C@@H]([NH+]=C(NC2CC=CC2)N[C@H]2Cc3ccc(-c4ccccc4)cc3C2)[C@@H]1Cl

$$$$
