CC1=C(C)C(N[C@@H]2COC[C@@H]2[NH+]=C(N[C@H]2CCC(=O)NC2)N[C@H]2CCC(=O)NC2)CC1
     RDKit          3D

 68 71  0  0  1  0  0  0  0  0999 V2000
  124.0822  131.5165  161.8789 C   0  0  0  0  0  0  0  0  0  0  0  0
  125.2924  131.6565  160.9917 C   0  0  0  0  0  0  0  0  0  0  0  0
  125.7330  132.7901  160.5175 C   0  0  0  0  0  0  0  0  0  0  0  0
  125.0988  134.1306  160.7859 C   0  0  0  0  0  0  0  0  0  0  0  0
  126.9627  132.5817  159.6645 C   0  0  1  0  0  0  0  0  0  0  0  0
  127.9873  133.5826  159.9905 N   0  0  0  0  0  0  0  0  0  0  0  0
  128.9622  133.7129  158.8993 C   0  0  2  0  0  0  0  0  0  0  0  0
  128.4653  134.0218  157.9796 H   0  0  0  0  0  0  0  0  0  0  0  0
  129.7197  132.3832  158.6886 C   0  0  0  0  0  0  0  0  0  0  0  0
  131.0729  132.7757  158.3712 O   0  0  0  0  0  0  0  0  0  0  0  0
  131.3661  133.8795  159.2551 C   0  0  0  0  0  0  0  0  0  0  0  0
  130.0702  134.7200  159.2806 C   0  0  2  0  0  0  0  0  0  0  0  0
  130.1228  135.5253  158.5480 H   0  0  0  0  0  0  0  0  0  0  0  0
  129.8343  135.2592  160.6221 N   0  0  0  0  0  0  0  0  0  0  0  0
  129.0624  134.9688  161.1327 H   0  0  0  0  0  0  0  0  0  0  0  0
  130.6617  136.1290  161.1297 C   0  0  0  0  0  0  0  0  0  0  0  0
  131.7558  136.5405  160.4060 N   0  0  0  0  0  0  0  0  0  0  0  0
  132.6859  137.5183  160.9764 C   0  0  1  0  0  0  0  0  0  0  0  0
  132.1494  138.1794  161.6569 H   0  0  0  0  0  0  0  0  0  0  0  0
  133.7997  136.7870  161.7353 C   0  0  0  0  0  0  0  0  0  0  0  0
  134.6479  137.8280  162.4704 C   0  0  0  0  0  0  0  0  0  0  0  0
  135.0262  138.9356  161.5295 C   0  0  0  0  0  0  0  0  0  0  0  0
  135.9455  139.6633  161.8394 O   0  0  0  0  0  0  0  0  0  0  0  0
  134.4050  139.1622  160.3714 N   0  0  0  0  0  0  0  0  0  0  0  0
  133.3176  138.3415  159.8530 C   0  0  0  0  0  0  0  0  0  0  0  0
  130.4404  136.6351  162.3887 N   0  0  0  0  0  0  0  0  0  0  0  0
  129.0722  136.7631  162.8965 C   0  0  1  0  0  0  0  0  0  0  0  0
  128.5981  135.7820  162.9217 H   0  0  0  0  0  0  0  0  0  0  0  0
  129.1013  137.3607  164.3084 C   0  0  0  0  0  0  0  0  0  0  0  0
  127.6832  137.3132  164.8830 C   0  0  0  0  0  0  0  0  0  0  0  0
  126.7091  137.8715  163.8858 C   0  0  0  0  0  0  0  0  0  0  0  0
  125.6129  138.2085  164.2807 O   0  0  0  0  0  0  0  0  0  0  0  0
  126.9844  138.0160  162.5890 N   0  0  0  0  0  0  0  0  0  0  0  0
  128.2724  137.6962  161.9863 C   0  0  0  0  0  0  0  0  0  0  0  0
  127.4592  131.1638  160.0303 C   0  0  0  0  0  0  0  0  0  0  0  0
  126.1548  130.5034  160.5339 C   0  0  0  0  0  0  0  0  0  0  0  0
  123.1956  131.3668  161.2628 H   0  0  0  0  0  0  0  0  0  0  0  0
  124.2139  130.6604  162.5404 H   0  0  0  0  0  0  0  0  0  0  0  0
  123.9621  132.4211  162.4749 H   0  0  0  0  0  0  0  0  0  0  0  0
  124.3508  134.3384  160.0209 H   0  0  0  0  0  0  0  0  0  0  0  0
  124.6222  134.1172  161.7662 H   0  0  0  0  0  0  0  0  0  0  0  0
  125.8650  134.9057  160.7649 H   0  0  0  0  0  0  0  0  0  0  0  0
  126.7041  132.6324  158.6068 H   0  0  0  0  0  0  0  0  0  0  0  0
  127.5664  134.4735  160.2076 H   0  0  0  0  0  0  0  0  0  0  0  0
  129.7016  131.7875  159.6012 H   0  0  0  0  0  0  0  0  0  0  0  0
  129.2826  131.8245  157.8610 H   0  0  0  0  0  0  0  0  0  0  0  0
  132.1938  134.4703  158.8627 H   0  0  0  0  0  0  0  0  0  0  0  0
  131.6006  133.5133  160.2547 H   0  0  0  0  0  0  0  0  0  0  0  0
  131.9120  136.1835  159.5176 H   0  0  0  0  0  0  0  0  0  0  0  0
  133.3609  136.0965  162.4555 H   0  0  0  0  0  0  0  0  0  0  0  0
  134.4231  136.2362  161.0311 H   0  0  0  0  0  0  0  0  0  0  0  0
  135.5516  137.3537  162.8533 H   0  0  0  0  0  0  0  0  0  0  0  0
  134.0759  138.2391  163.3023 H   0  0  0  0  0  0  0  0  0  0  0  0
  134.6946  139.9207  159.8409 H   0  0  0  0  0  0  0  0  0  0  0  0
  133.7068  137.6689  159.0886 H   0  0  0  0  0  0  0  0  0  0  0  0
  132.5604  138.9892  159.4114 H   0  0  0  0  0  0  0  0  0  0  0  0
  131.1900  136.9073  162.9408 H   0  0  0  0  0  0  0  0  0  0  0  0
  129.7726  136.7783  164.9395 H   0  0  0  0  0  0  0  0  0  0  0  0
  129.4446  138.3942  164.2626 H   0  0  0  0  0  0  0  0  0  0  0  0
  127.6433  137.9039  165.7981 H   0  0  0  0  0  0  0  0  0  0  0  0
  127.4184  136.2801  165.1086 H   0  0  0  0  0  0  0  0  0  0  0  0
  126.2834  138.3550  162.0104 H   0  0  0  0  0  0  0  0  0  0  0  0
  128.8353  138.6163  161.8298 H   0  0  0  0  0  0  0  0  0  0  0  0
  128.1062  137.2077  161.0263 H   0  0  0  0  0  0  0  0  0  0  0  0
  127.8462  130.6461  159.1525 H   0  0  0  0  0  0  0  0  0  0  0  0
  128.2084  131.2033  160.8210 H   0  0  0  0  0  0  0  0  0  0  0  0
  125.6660  129.9618  159.7242 H   0  0  0  0  0  0  0  0  0  0  0  0
  126.3658  129.8330  161.3671 H   0  0  0  0  0  0  0  0  0  0  0  0
  1  2  1  0
  1 37  1  0
  1 38  1  0
  1 39  1  0
  2 36  1  0
  2  3  2  0
  3  4  1  0
  3  5  1  0
  4 40  1  0
  4 41  1  0
  4 42  1  0
  5  6  1  0
  5 35  1  0
  5 43  1  6
  6  7  1  0
  6 44  1  0
  7  8  1  6
  7 12  1  0
  7  9  1  0
  9 10  1  0
  9 45  1  0
  9 46  1  0
 10 11  1  0
 11 12  1  0
 11 47  1  0
 11 48  1  0
 12 13  1  6
 12 14  1  0
 14 15  1  0
 16 14  2  0
 16 17  1  0
 16 26  1  1
 17 18  1  0
 17 49  1  0
 18 19  1  1
 18 25  1  0
 18 20  1  0
 20 21  1  0
 20 50  1  0
 20 51  1  0
 21 22  1  0
 21 52  1  0
 21 53  1  0
 22 23  2  0
 22 24  1  0
 24 25  1  0
 24 54  1  0
 25 55  1  0
 25 56  1  0
 26 27  1  0
 26 57  1  0
 27 28  1  1
 27 34  1  0
 27 29  1  0
 29 30  1  0
 29 58  1  0
 29 59  1  0
 30 31  1  0
 30 60  1  0
 30 61  1  0
 31 32  2  0
 31 33  1  0
 33 34  1  0
 33 62  1  0
 34 63  1  0
 34 64  1  0
 35 36  1  0
 35 65  1  0
 35 66  1  0
 36 67  1  0
 36 68  1  0
M  CHG  1  14   1
M  END
>  <DOCK_score>  (1) 
-41.337296

>  <SMILES>  (1) 
CC1=C(C)C(N[C@@H]2COC[C@@H]2[NH+]=C(N[C@H]2CCC(=O)NC2)N[C@H]2CCC(=O)NC2)CC1

$$$$
