Oc1ccccc1[C@H](Nc1[nH]cc(-c2ccc(F)cc2)[nH+]1)c1ccccc1
     RDKit          3D

 46 49  0  0  1  0  0  0  0  0999 V2000
  127.9844  136.4745  162.3528 O   0  0  0  0  0  0  0  0  0  0  0  0
  128.7377  137.3344  161.6180 C   0  0  0  0  0  0  0  0  0  0  0  0
  129.0491  138.5896  162.1208 C   0  0  0  0  0  0  0  0  0  0  0  0
  129.8152  139.4615  161.3722 C   0  0  0  0  0  0  0  0  0  0  0  0
  130.2720  139.0845  160.1226 C   0  0  0  0  0  0  0  0  0  0  0  0
  129.9632  137.8344  159.6194 C   0  0  0  0  0  0  0  0  0  0  0  0
  129.1971  136.9586  160.3643 C   0  0  0  0  0  0  0  0  0  0  0  0
  128.8612  135.5958  159.8154 C   0  0  2  0  0  0  0  0  0  0  0  0
  128.7517  134.8896  160.6382 H   0  0  0  0  0  0  0  0  0  0  0  0
  129.9371  135.1483  158.9275 N   0  0  0  0  0  0  0  0  0  0  0  0
  129.8507  133.9164  158.3017 C   0  0  0  0  0  0  0  0  0  0  0  0
  129.2057  132.8224  158.7907 N   0  0  0  0  0  0  0  0  0  0  0  0
  128.7280  132.7658  159.6331 H   0  0  0  0  0  0  0  0  0  0  0  0
  129.3562  131.8127  157.8709 C   0  0  0  0  0  0  0  0  0  0  0  0
  130.0882  132.3185  156.8477 C   0  0  0  0  0  0  0  0  0  0  0  0
  130.5005  131.5875  155.6244 C   0  0  0  0  0  0  0  0  0  0  0  0
  130.0931  132.0383  154.3702 C   0  0  0  0  0  0  0  0  0  0  0  0
  130.4833  131.3582  153.2346 C   0  0  0  0  0  0  0  0  0  0  0  0
  131.2693  130.2229  153.3406 C   0  0  0  0  0  0  0  0  0  0  0  0
  131.6442  129.5571  152.2264 F   0  0  0  0  0  0  0  0  0  0  0  0
  131.6724  129.7677  154.5859 C   0  0  0  0  0  0  0  0  0  0  0  0
  131.2917  130.4447  155.7263 C   0  0  0  0  0  0  0  0  0  0  0  0
  130.3720  133.6129  157.1380 N   0  0  0  0  0  0  0  0  0  0  0  0
  130.8816  134.2169  156.5753 H   0  0  0  0  0  0  0  0  0  0  0  0
  127.5699  135.6701  159.0419 C   0  0  0  0  0  0  0  0  0  0  0  0
  126.3660  135.4477  159.6840 C   0  0  0  0  0  0  0  0  0  0  0  0
  125.1812  135.5201  158.9755 C   0  0  0  0  0  0  0  0  0  0  0  0
  125.2009  135.8058  157.6231 C   0  0  0  0  0  0  0  0  0  0  0  0
  126.4051  136.0236  156.9802 C   0  0  0  0  0  0  0  0  0  0  0  0
  127.5896  135.9554  157.6895 C   0  0  0  0  0  0  0  0  0  0  0  0
  127.7117  136.8256  163.2116 H   0  0  0  0  0  0  0  0  0  0  0  0
  128.6923  138.8846  163.0965 H   0  0  0  0  0  0  0  0  0  0  0  0
  130.0542  140.4403  161.7612 H   0  0  0  0  0  0  0  0  0  0  0  0
  130.8710  139.7677  159.5388 H   0  0  0  0  0  0  0  0  0  0  0  0
  130.3210  137.5423  158.6432 H   0  0  0  0  0  0  0  0  0  0  0  0
  130.7100  135.7150  158.7781 H   0  0  0  0  0  0  0  0  0  0  0  0
  128.9658  130.8087  157.9478 H   0  0  0  0  0  0  0  0  0  0  0  0
  129.4763  132.9209  154.2867 H   0  0  0  0  0  0  0  0  0  0  0  0
  130.1718  131.7095  152.2620 H   0  0  0  0  0  0  0  0  0  0  0  0
  132.2851  128.8817  154.6640 H   0  0  0  0  0  0  0  0  0  0  0  0
  131.6065  130.0896  156.6965 H   0  0  0  0  0  0  0  0  0  0  0  0
  126.3509  135.2205  160.7397 H   0  0  0  0  0  0  0  0  0  0  0  0
  124.2403  135.3503  159.4778 H   0  0  0  0  0  0  0  0  0  0  0  0
  124.2755  135.8590  157.0689 H   0  0  0  0  0  0  0  0  0  0  0  0
  126.4206  136.2466  155.9235 H   0  0  0  0  0  0  0  0  0  0  0  0
  128.5304  136.1251  157.1871 H   0  0  0  0  0  0  0  0  0  0  0  0
  1  2  1  0
  1 31  1  0
  2  7  2  0
  2  3  1  0
  3  4  2  0
  3 32  1  0
  4  5  1  0
  4 33  1  0
  5  6  2  0
  5 34  1  0
  6  7  1  0
  6 35  1  0
  7  8  1  0
  8  9  1  1
  8 10  1  0
  8 25  1  0
 10 36  1  0
 11 10  1  0
 11 23  2  0
 11 12  1  0
 12 13  1  0
 12 14  1  0
 14 15  2  0
 14 37  1  0
 15 16  1  0
 15 23  1  0
 16 22  1  0
 16 17  2  0
 17 18  1  0
 17 38  1  0
 18 19  2  0
 18 39  1  0
 19 20  1  0
 19 21  1  0
 21 22  2  0
 21 40  1  0
 22 41  1  0
 23 24  1  0
 25 30  1  0
 25 26  2  0
 26 27  1  0
 26 42  1  0
 27 28  2  0
 27 43  1  0
 28 29  1  0
 28 44  1  0
 29 30  2  0
 29 45  1  0
 30 46  1  0
M  CHG  1  23   1
M  END
>  <DOCK_score>  (1) 
-57.348656

>  <SMILES>  (1) 
Oc1ccccc1[C@H](Nc1[nH]cc(-c2ccc(F)cc2)[nH+]1)c1ccccc1

$$$$
