CCc1ccc(-c2c[nH]c(N[C@@H](CNc3ccc(N)cc3)c3ccc(Br)cc3)[nH+]2)cc1
     RDKit          3D

 58 61  0  0  1  0  0  0  0  0999 V2000
  132.1580  129.7266  152.5122 C   0  0  0  0  0  0  0  0  0  0  0  0
  130.7308  129.7344  153.0633 C   0  0  0  0  0  0  0  0  0  0  0  0
  130.6860  130.5494  154.3302 C   0  0  0  0  0  0  0  0  0  0  0  0
  130.4232  131.9061  154.2678 C   0  0  0  0  0  0  0  0  0  0  0  0
  130.3753  132.6562  155.4252 C   0  0  0  0  0  0  0  0  0  0  0  0
  130.6037  132.0466  156.6575 C   0  0  0  0  0  0  0  0  0  0  0  0
  130.5591  132.8486  157.9046 C   0  0  0  0  0  0  0  0  0  0  0  0
  130.2012  132.3963  159.1319 C   0  0  0  0  0  0  0  0  0  0  0  0
  130.2997  133.4616  159.9936 N   0  0  0  0  0  0  0  0  0  0  0  0
  130.1081  133.4510  160.9444 H   0  0  0  0  0  0  0  0  0  0  0  0
  130.7154  134.5346  159.2670 C   0  0  0  0  0  0  0  0  0  0  0  0
  130.9386  135.8073  159.7639 N   0  0  0  0  0  0  0  0  0  0  0  0
  131.3748  135.9860  161.1511 C   0  0  1  0  0  0  0  0  0  0  0  0
  132.1022  135.2152  161.4053 H   0  0  0  0  0  0  0  0  0  0  0  0
  132.0168  137.3657  161.3100 C   0  0  0  0  0  0  0  0  0  0  0  0
  133.1733  137.4720  160.4169 N   0  0  0  0  0  0  0  0  0  0  0  0
  133.9271  138.6512  160.3851 C   0  0  0  0  0  0  0  0  0  0  0  0
  135.0266  138.7501  159.5427 C   0  0  0  0  0  0  0  0  0  0  0  0
  135.7678  139.9148  159.5086 C   0  0  0  0  0  0  0  0  0  0  0  0
  135.4190  140.9837  160.3233 C   0  0  0  0  0  0  0  0  0  0  0  0
  136.1733  142.1627  160.2922 N   0  0  0  0  0  0  0  0  0  0  0  0
  134.3223  140.8832  161.1691 C   0  0  0  0  0  0  0  0  0  0  0  0
  133.5786  139.7202  161.2001 C   0  0  0  0  0  0  0  0  0  0  0  0
  130.1852  135.8768  162.0696 C   0  0  0  0  0  0  0  0  0  0  0  0
  130.3463  135.3924  163.3544 C   0  0  0  0  0  0  0  0  0  0  0  0
  129.2563  135.2967  164.1989 C   0  0  0  0  0  0  0  0  0  0  0  0
  128.0022  135.6756  163.7549 C   0  0  0  0  0  0  0  0  0  0  0  0
  126.5096  135.5387  164.9076 Br  0  0  0  0  0  0  0  0  0  0  0  0
  127.8406  136.1553  162.4675 C   0  0  0  0  0  0  0  0  0  0  0  0
  128.9321  136.2558  161.6255 C   0  0  0  0  0  0  0  0  0  0  0  0
  130.8748  134.1629  158.0203 N   0  0  0  0  0  0  0  0  0  0  0  0
  131.1693  134.7366  157.2956 H   0  0  0  0  0  0  0  0  0  0  0  0
  130.8736  130.6803  156.7139 C   0  0  0  0  0  0  0  0  0  0  0  0
  130.9135  129.9390  155.5505 C   0  0  0  0  0  0  0  0  0  0  0  0
  132.4704  130.7487  152.2980 H   0  0  0  0  0  0  0  0  0  0  0  0
  132.8301  129.2885  153.2500 H   0  0  0  0  0  0  0  0  0  0  0  0
  132.1904  129.1373  151.5958 H   0  0  0  0  0  0  0  0  0  0  0  0
  130.0587  130.1726  152.3255 H   0  0  0  0  0  0  0  0  0  0  0  0
  130.4184  128.7124  153.2776 H   0  0  0  0  0  0  0  0  0  0  0  0
  130.2511  132.3783  153.3119 H   0  0  0  0  0  0  0  0  0  0  0  0
  130.1654  133.7145  155.3758 H   0  0  0  0  0  0  0  0  0  0  0  0
  129.8967  131.3912  159.3836 H   0  0  0  0  0  0  0  0  0  0  0  0
  130.8064  136.5807  159.1936 H   0  0  0  0  0  0  0  0  0  0  0  0
  131.2894  138.1365  161.0558 H   0  0  0  0  0  0  0  0  0  0  0  0
  132.3414  137.4986  162.3420 H   0  0  0  0  0  0  0  0  0  0  0  0
  133.4165  136.7253  159.8476 H   0  0  0  0  0  0  0  0  0  0  0  0
  135.3002  137.9170  158.9121 H   0  0  0  0  0  0  0  0  0  0  0  0
  136.6210  139.9927  158.8510 H   0  0  0  0  0  0  0  0  0  0  0  0
  135.9300  142.9094  160.8615 H   0  0  0  0  0  0  0  0  0  0  0  0
  136.9395  142.2330  159.7013 H   0  0  0  0  0  0  0  0  0  0  0  0
  134.0513  141.7146  161.8030 H   0  0  0  0  0  0  0  0  0  0  0  0
  132.7261  139.6418  161.8584 H   0  0  0  0  0  0  0  0  0  0  0  0
  131.3248  135.0927  163.6996 H   0  0  0  0  0  0  0  0  0  0  0  0
  129.3829  134.9218  165.2037 H   0  0  0  0  0  0  0  0  0  0  0  0
  126.8616  136.4511  162.1204 H   0  0  0  0  0  0  0  0  0  0  0  0
  128.8060  136.6305  160.6205 H   0  0  0  0  0  0  0  0  0  0  0  0
  131.0517  130.2027  157.6661 H   0  0  0  0  0  0  0  0  0  0  0  0
  131.1228  128.8803  155.5930 H   0  0  0  0  0  0  0  0  0  0  0  0
  1  2  1  0
  1 35  1  0
  1 36  1  0
  1 37  1  0
  2  3  1  0
  2 38  1  0
  2 39  1  0
  3 34  2  0
  3  4  1  0
  4  5  2  0
  4 40  1  0
  5  6  1  0
  5 41  1  0
  6  7  1  0
  6 33  2  0
  7 31  1  0
  7  8  2  0
  8  9  1  0
  8 42  1  0
  9 10  1  0
  9 11  1  0
 11 12  1  0
 11 31  2  0
 12 13  1  0
 12 43  1  0
 13 14  1  1
 13 15  1  0
 13 24  1  0
 15 16  1  0
 15 44  1  0
 15 45  1  0
 16 17  1  0
 16 46  1  0
 17 23  1  0
 17 18  2  0
 18 19  1  0
 18 47  1  0
 19 20  2  0
 19 48  1  0
 20 21  1  0
 20 22  1  0
 21 49  1  0
 21 50  1  0
 22 23  2  0
 22 51  1  0
 23 52  1  0
 24 30  1  0
 24 25  2  0
 25 26  1  0
 25 53  1  0
 26 27  2  0
 26 54  1  0
 27 28  1  0
 27 29  1  0
 29 30  2  0
 29 55  1  0
 30 56  1  0
 31 32  1  0
 33 34  1  0
 33 57  1  0
 34 58  1  0
M  CHG  1  31   1
M  END
>  <DOCK_score>  (1) 
-59.255657

>  <SMILES>  (1) 
CCc1ccc(-c2c[nH]c(N[C@@H](CNc3ccc(N)cc3)c3ccc(Br)cc3)[nH+]2)cc1

$$$$
