CCc1ccc(-c2c[nH]c(N[C@@H](C=CCCCc3ccccc3)c3ccc(CC)cc3)[nH+]2)cc1
     RDKit          3D

 70 73  0  0  1  0  0  0  0  0999 V2000
  130.4473  129.0036  152.0529 C   0  0  0  0  0  0  0  0  0  0  0  0
  131.7211  129.6786  152.5656 C   0  0  0  0  0  0  0  0  0  0  0  0
  131.4075  130.4592  153.8160 C   0  0  0  0  0  0  0  0  0  0  0  0
  131.5090  129.8485  155.0530 C   0  0  0  0  0  0  0  0  0  0  0  0
  131.2285  130.5601  156.2017 C   0  0  0  0  0  0  0  0  0  0  0  0
  130.8315  131.8931  156.1130 C   0  0  0  0  0  0  0  0  0  0  0  0
  130.5233  132.6617  157.3438 C   0  0  0  0  0  0  0  0  0  0  0  0
  130.0376  132.1516  158.5026 C   0  0  0  0  0  0  0  0  0  0  0  0
  129.8999  133.2040  159.3746 N   0  0  0  0  0  0  0  0  0  0  0  0
  129.5733  133.1554  160.2867 H   0  0  0  0  0  0  0  0  0  0  0  0
  130.3059  134.3275  158.7226 C   0  0  0  0  0  0  0  0  0  0  0  0
  130.3232  135.6060  159.2533 N   0  0  0  0  0  0  0  0  0  0  0  0
  129.8780  135.8336  160.6304 C   0  0  1  0  0  0  0  0  0  0  0  0
  130.5010  135.2565  161.3136 H   0  0  0  0  0  0  0  0  0  0  0  0
  129.9949  137.2994  160.9603 C   0  0  0  0  0  0  0  0  0  0  0  0
  130.7647  137.6895  161.9459 C   0  0  0  0  0  0  0  0  0  0  0  0
  130.8818  139.1552  162.2759 C   0  0  0  0  0  0  0  0  0  0  0  0
  132.0317  139.7683  161.4741 C   0  0  0  0  0  0  0  0  0  0  0  0
  133.3388  139.0587  161.8331 C   0  0  0  0  0  0  0  0  0  0  0  0
  134.4714  139.6626  161.0434 C   0  0  0  0  0  0  0  0  0  0  0  0
  134.8054  139.1436  159.8065 C   0  0  0  0  0  0  0  0  0  0  0  0
  135.8412  139.7005  159.0801 C   0  0  0  0  0  0  0  0  0  0  0  0
  136.5497  140.7699  159.5950 C   0  0  0  0  0  0  0  0  0  0  0  0
  136.2192  141.2857  160.8342 C   0  0  0  0  0  0  0  0  0  0  0  0
  135.1801  140.7320  161.5584 C   0  0  0  0  0  0  0  0  0  0  0  0
  128.4417  135.4000  160.7720 C   0  0  0  0  0  0  0  0  0  0  0  0
  127.5868  135.4753  159.6884 C   0  0  0  0  0  0  0  0  0  0  0  0
  126.2703  135.0737  159.8174 C   0  0  0  0  0  0  0  0  0  0  0  0
  125.8065  134.6050  161.0323 C   0  0  0  0  0  0  0  0  0  0  0  0
  124.3702  134.1717  161.1742 C   0  0  0  0  0  0  0  0  0  0  0  0
  124.2521  132.6821  160.8450 C   0  0  0  0  0  0  0  0  0  0  0  0
  126.6602  134.5342  162.1172 C   0  0  0  0  0  0  0  0  0  0  0  0
  127.9777  134.9320  161.9872 C   0  0  0  0  0  0  0  0  0  0  0  0
  130.6832  133.9985  157.5113 N   0  0  0  0  0  0  0  0  0  0  0  0
  131.0205  134.6130  156.8408 H   0  0  0  0  0  0  0  0  0  0  0  0
  130.7255  132.5016  154.8635 C   0  0  0  0  0  0  0  0  0  0  0  0
  131.0139  131.7819  153.7218 C   0  0  0  0  0  0  0  0  0  0  0  0
  130.0619  128.3275  152.8162 H   0  0  0  0  0  0  0  0  0  0  0  0
  129.6986  129.7631  151.8287 H   0  0  0  0  0  0  0  0  0  0  0  0
  130.6742  128.4389  151.1486 H   0  0  0  0  0  0  0  0  0  0  0  0
  132.4699  128.9188  152.7898 H   0  0  0  0  0  0  0  0  0  0  0  0
  132.1066  130.3545  151.8023 H   0  0  0  0  0  0  0  0  0  0  0  0
  131.8122  128.8141  155.1203 H   0  0  0  0  0  0  0  0  0  0  0  0
  131.3126  130.0838  157.1674 H   0  0  0  0  0  0  0  0  0  0  0  0
  129.8035  131.1162  158.7016 H   0  0  0  0  0  0  0  0  0  0  0  0
  130.6303  136.3511  158.7134 H   0  0  0  0  0  0  0  0  0  0  0  0
  129.4442  138.0283  160.3843 H   0  0  0  0  0  0  0  0  0  0  0  0
  131.3154  136.9606  162.5219 H   0  0  0  0  0  0  0  0  0  0  0  0
  129.9505  139.6607  162.0202 H   0  0  0  0  0  0  0  0  0  0  0  0
  131.0784  139.2732  163.3415 H   0  0  0  0  0  0  0  0  0  0  0  0
  131.8351  139.6503  160.4085 H   0  0  0  0  0  0  0  0  0  0  0  0
  132.1162  140.8285  161.7129 H   0  0  0  0  0  0  0  0  0  0  0  0
  133.5355  139.1767  162.8988 H   0  0  0  0  0  0  0  0  0  0  0  0
  133.2542  137.9986  161.5945 H   0  0  0  0  0  0  0  0  0  0  0  0
  134.2547  138.3052  159.4062 H   0  0  0  0  0  0  0  0  0  0  0  0
  136.0997  139.2973  158.1120 H   0  0  0  0  0  0  0  0  0  0  0  0
  137.3619  141.2021  159.0293 H   0  0  0  0  0  0  0  0  0  0  0  0
  136.7731  142.1209  161.2367 H   0  0  0  0  0  0  0  0  0  0  0  0
  134.9220  141.1347  162.5267 H   0  0  0  0  0  0  0  0  0  0  0  0
  127.9482  135.8450  158.7402 H   0  0  0  0  0  0  0  0  0  0  0  0
  125.6033  135.1295  158.9698 H   0  0  0  0  0  0  0  0  0  0  0  0
  124.0378  134.3450  162.1977 H   0  0  0  0  0  0  0  0  0  0  0  0
  123.7480  134.7460  160.4878 H   0  0  0  0  0  0  0  0  0  0  0  0
  124.5845  132.5087  159.8215 H   0  0  0  0  0  0  0  0  0  0  0  0
  124.8743  132.1079  161.5314 H   0  0  0  0  0  0  0  0  0  0  0  0
  123.2131  132.3687  160.9476 H   0  0  0  0  0  0  0  0  0  0  0  0
  126.2978  134.1683  163.0665 H   0  0  0  0  0  0  0  0  0  0  0  0
  128.6445  134.8770  162.8350 H   0  0  0  0  0  0  0  0  0  0  0  0
  130.4180  133.5343  154.7889 H   0  0  0  0  0  0  0  0  0  0  0  0
  130.9318  132.2522  152.7531 H   0  0  0  0  0  0  0  0  0  0  0  0
  1  2  1  0
  1 38  1  0
  1 39  1  0
  1 40  1  0
  2  3  1  0
  2 41  1  0
  2 42  1  0
  3 37  2  0
  3  4  1  0
  4  5  2  0
  4 43  1  0
  5  6  1  0
  5 44  1  0
  6  7  1  0
  6 36  2  0
  7 34  1  0
  7  8  2  0
  8  9  1  0
  8 45  1  0
  9 10  1  0
  9 11  1  0
 11 12  1  0
 11 34  2  0
 12 13  1  0
 12 46  1  0
 13 14  1  1
 13 15  1  0
 13 26  1  0
 15 16  2  0
 15 47  1  0
 16 17  1  0
 16 48  1  0
 17 18  1  0
 17 49  1  0
 17 50  1  0
 18 19  1  0
 18 51  1  0
 18 52  1  0
 19 20  1  0
 19 53  1  0
 19 54  1  0
 20 25  1  0
 20 21  2  0
 21 22  1  0
 21 55  1  0
 22 23  2  0
 22 56  1  0
 23 24  1  0
 23 57  1  0
 24 25  2  0
 24 58  1  0
 25 59  1  0
 26 33  1  0
 26 27  2  0
 27 28  1  0
 27 60  1  0
 28 29  2  0
 28 61  1  0
 29 30  1  0
 29 32  1  0
 30 31  1  0
 30 62  1  0
 30 63  1  0
 31 64  1  0
 31 65  1  0
 31 66  1  0
 32 33  2  0
 32 67  1  0
 33 68  1  0
 34 35  1  0
 36 37  1  0
 36 69  1  0
 37 70  1  0
M  CHG  1  34   1
M  END
>  <DOCK_score>  (1) 
-66.890511

>  <SMILES>  (1) 
CCc1ccc(-c2c[nH]c(N[C@@H](C=CCCCc3ccccc3)c3ccc(CC)cc3)[nH+]2)cc1

$$$$
