Cc1ccc2c(C[C@H]([NH2+]Cc3cccc4c3OCO4)c3cnn4ccccc34)c[nH]c2c1
     RDKit          3D

 57 62  0  0  1  0  0  0  0  0999 V2000
  128.4561  140.9697  165.2093 C   0  0  0  0  0  0  0  0  0  0  0  0
  128.5357  139.7572  164.3178 C   0  0  0  0  0  0  0  0  0  0  0  0
  129.7765  139.2608  163.9421 C   0  0  0  0  0  0  0  0  0  0  0  0
  129.8691  138.1629  163.1342 C   0  0  0  0  0  0  0  0  0  0  0  0
  128.7069  137.5345  162.6826 C   0  0  0  0  0  0  0  0  0  0  0  0
  128.4429  136.3720  161.8313 C   0  0  0  0  0  0  0  0  0  0  0  0
  129.4728  135.4895  161.1745 C   0  0  0  0  0  0  0  0  0  0  0  0
  129.8114  136.0446  159.7895 C   0  0  2  0  0  0  0  0  0  0  0  0
  128.9005  136.4004  159.3081 H   0  0  0  0  0  0  0  0  0  0  0  0
  130.4158  134.9847  158.9715 N   0  0  0  0  0  0  0  0  0  0  0  0
  130.9290  135.4000  158.2085 H   0  0  0  0  0  0  0  0  0  0  0  0
  131.0438  134.4373  159.5407 H   0  0  0  0  0  0  0  0  0  0  0  0
  129.3586  134.1169  158.4355 C   0  0  0  0  0  0  0  0  0  0  0  0
  129.9786  133.0295  157.5962 C   0  0  0  0  0  0  0  0  0  0  0  0
  130.1848  133.2329  156.2441 C   0  0  0  0  0  0  0  0  0  0  0  0
  130.7535  132.2381  155.4714 C   0  0  0  0  0  0  0  0  0  0  0  0
  131.1185  131.0349  156.0471 C   0  0  0  0  0  0  0  0  0  0  0  0
  130.9146  130.8241  157.4007 C   0  0  0  0  0  0  0  0  0  0  0  0
  130.3469  131.8291  158.1807 C   0  0  0  0  0  0  0  0  0  0  0  0
  130.2483  131.3802  159.4660 O   0  0  0  0  0  0  0  0  0  0  0  0
  130.3915  129.9496  159.3876 C   0  0  0  0  0  0  0  0  0  0  0  0
  131.1797  129.7494  158.1994 O   0  0  0  0  0  0  0  0  0  0  0  0
  130.7842  137.1868  159.9303 C   0  0  0  0  0  0  0  0  0  0  0  0
  130.5769  138.4938  159.5200 C   0  0  0  0  0  0  0  0  0  0  0  0
  131.6434  139.2072  159.8074 N   0  0  0  0  0  0  0  0  0  0  0  0
  132.5914  138.3792  160.4214 N   0  0  0  0  0  0  0  0  0  0  0  0
  133.8456  138.6166  160.9060 C   0  0  0  0  0  0  0  0  0  0  0  0
  134.5679  137.6218  161.4623 C   0  0  0  0  0  0  0  0  0  0  0  0
  134.0399  136.3232  161.5515 C   0  0  0  0  0  0  0  0  0  0  0  0
  132.7914  136.0712  161.0728 C   0  0  0  0  0  0  0  0  0  0  0  0
  132.0514  137.1210  160.4959 C   0  0  0  0  0  0  0  0  0  0  0  0
  127.1095  136.2382  161.7521 C   0  0  0  0  0  0  0  0  0  0  0  0
  126.4980  137.2231  162.4789 N   0  0  0  0  0  0  0  0  0  0  0  0
  125.5387  137.3329  162.5723 H   0  0  0  0  0  0  0  0  0  0  0  0
  127.4470  138.0352  163.0582 C   0  0  0  0  0  0  0  0  0  0  0  0
  127.3763  139.1571  163.8781 C   0  0  0  0  0  0  0  0  0  0  0  0
  128.4295  141.8704  164.5961 H   0  0  0  0  0  0  0  0  0  0  0  0
  127.5519  140.9161  165.8156 H   0  0  0  0  0  0  0  0  0  0  0  0
  129.3293  140.9994  165.8610 H   0  0  0  0  0  0  0  0  0  0  0  0
  130.6758  139.7465  164.2910 H   0  0  0  0  0  0  0  0  0  0  0  0
  130.8380  137.7824  162.8459 H   0  0  0  0  0  0  0  0  0  0  0  0
  129.0752  134.4797  161.0740 H   0  0  0  0  0  0  0  0  0  0  0  0
  130.3744  135.4657  161.7868 H   0  0  0  0  0  0  0  0  0  0  0  0
  128.8041  133.6682  159.2597 H   0  0  0  0  0  0  0  0  0  0  0  0
  128.6801  134.7082  157.8206 H   0  0  0  0  0  0  0  0  0  0  0  0
  129.9004  134.1711  155.7908 H   0  0  0  0  0  0  0  0  0  0  0  0
  130.9131  132.4006  154.4157 H   0  0  0  0  0  0  0  0  0  0  0  0
  131.5625  130.2592  155.4408 H   0  0  0  0  0  0  0  0  0  0  0  0
  129.4170  129.4722  159.2857 H   0  0  0  0  0  0  0  0  0  0  0  0
  130.9149  129.5663  160.2636 H   0  0  0  0  0  0  0  0  0  0  0  0
  129.6832  138.8668  159.0418 H   0  0  0  0  0  0  0  0  0  0  0  0
  134.2638  139.6103  160.8433 H   0  0  0  0  0  0  0  0  0  0  0  0
  135.5585  137.8255  161.8413 H   0  0  0  0  0  0  0  0  0  0  0  0
  134.6216  135.5296  161.9967 H   0  0  0  0  0  0  0  0  0  0  0  0
  132.3731  135.0773  161.1343 H   0  0  0  0  0  0  0  0  0  0  0  0
  126.5956  135.4672  161.1973 H   0  0  0  0  0  0  0  0  0  0  0  0
  126.4158  139.5496  164.1774 H   0  0  0  0  0  0  0  0  0  0  0  0
  1  2  1  0
  1 37  1  0
  1 38  1  0
  1 39  1  0
  2 36  2  0
  2  3  1  0
  3  4  2  0
  3 40  1  0
  4  5  1  0
  4 41  1  0
  5 35  2  0
  5  6  1  0
  6  7  1  0
  6 32  2  0
  7  8  1  0
  7 42  1  0
  7 43  1  0
  8  9  1  6
  8 10  1  0
  8 23  1  0
 10 11  1  0
 10 12  1  0
 10 13  1  0
 13 14  1  0
 13 44  1  0
 13 45  1  0
 14 19  1  0
 14 15  2  0
 15 16  1  0
 15 46  1  0
 16 17  2  0
 16 47  1  0
 17 18  1  0
 17 48  1  0
 18 22  1  0
 18 19  2  0
 19 20  1  0
 20 21  1  0
 21 22  1  0
 21 49  1  0
 21 50  1  0
 23 31  2  0
 23 24  1  0
 24 25  2  0
 24 51  1  0
 25 26  1  0
 26 31  1  0
 26 27  1  0
 27 28  2  0
 27 52  1  0
 28 29  1  0
 28 53  1  0
 29 30  2  0
 29 54  1  0
 30 31  1  0
 30 55  1  0
 32 33  1  0
 32 56  1  0
 33 34  1  0
 33 35  1  0
 35 36  1  0
 36 57  1  0
M  CHG  1  10   1
M  END
>  <DOCK_score>  (1) 
-45.960709

>  <SMILES>  (1) 
Cc1ccc2c(C[C@H]([NH2+]Cc3cccc4c3OCO4)c3cnn4ccccc34)c[nH]c2c1

$$$$
