CCC=Cc1ccc(-c2c[nH]c(N[C@@H](c3ccccc3)c3ccc4c(c3)CC4)[nH+]2)cc1
     RDKit          3D

 59 63  0  0  1  0  0  0  0  0999 V2000
  130.0465  127.9007  150.1351 C   0  0  0  0  0  0  0  0  0  0  0  0
  130.7789  129.2440  150.1343 C   0  0  0  0  0  0  0  0  0  0  0  0
  130.4680  129.9865  151.4084 C   0  0  0  0  0  0  0  0  0  0  0  0
  131.2356  129.8208  152.4769 C   0  0  0  0  0  0  0  0  0  0  0  0
  130.9310  130.5479  153.7258 C   0  0  0  0  0  0  0  0  0  0  0  0
  130.1321  131.6928  153.6903 C   0  0  0  0  0  0  0  0  0  0  0  0
  129.8480  132.3701  154.8546 C   0  0  0  0  0  0  0  0  0  0  0  0
  130.3578  131.9128  156.0703 C   0  0  0  0  0  0  0  0  0  0  0  0
  130.0511  132.6423  157.3236 C   0  0  0  0  0  0  0  0  0  0  0  0
  129.4029  132.1373  158.4035 C   0  0  0  0  0  0  0  0  0  0  0  0
  129.3329  133.1455  159.3334 N   0  0  0  0  0  0  0  0  0  0  0  0
  128.9260  133.0892  160.2122 H   0  0  0  0  0  0  0  0  0  0  0  0
  129.9405  134.2380  158.7951 C   0  0  0  0  0  0  0  0  0  0  0  0
  130.0831  135.4680  159.4140 N   0  0  0  0  0  0  0  0  0  0  0  0
  129.5555  135.6737  160.7651 C   0  0  1  0  0  0  0  0  0  0  0  0
  130.0343  134.9762  161.4523 H   0  0  0  0  0  0  0  0  0  0  0  0
  129.8391  137.0869  161.2053 C   0  0  0  0  0  0  0  0  0  0  0  0
  130.0215  137.3697  162.5461 C   0  0  0  0  0  0  0  0  0  0  0  0
  130.2859  138.6652  162.9494 C   0  0  0  0  0  0  0  0  0  0  0  0
  130.3585  139.6796  162.0129 C   0  0  0  0  0  0  0  0  0  0  0  0
  130.1713  139.3974  160.6727 C   0  0  0  0  0  0  0  0  0  0  0  0
  129.9111  138.1011  160.2689 C   0  0  0  0  0  0  0  0  0  0  0  0
  128.0673  135.4368  160.7647 C   0  0  0  0  0  0  0  0  0  0  0  0
  127.3284  135.6952  159.6253 C   0  0  0  0  0  0  0  0  0  0  0  0
  125.9641  135.4767  159.6287 C   0  0  0  0  0  0  0  0  0  0  0  0
  125.3403  135.0017  160.7673 C   0  0  0  0  0  0  0  0  0  0  0  0
  126.0741  134.7408  161.9107 C   0  0  0  0  0  0  0  0  0  0  0  0
  127.4458  134.9623  161.9016 C   0  0  0  0  0  0  0  0  0  0  0  0
  124.8893  134.2809  162.7340 C   0  0  0  0  0  0  0  0  0  0  0  0
  124.0789  134.5689  161.4702 C   0  0  0  0  0  0  0  0  0  0  0  0
  130.3634  133.9353  157.5921 N   0  0  0  0  0  0  0  0  0  0  0  0
  130.8276  134.5384  156.9907 H   0  0  0  0  0  0  0  0  0  0  0  0
  131.1607  130.7722  156.1061 C   0  0  0  0  0  0  0  0  0  0  0  0
  131.4413  130.0907  154.9432 C   0  0  0  0  0  0  0  0  0  0  0  0
  130.2714  127.3638  149.2137 H   0  0  0  0  0  0  0  0  0  0  0  0
  130.3741  127.3087  150.9897 H   0  0  0  0  0  0  0  0  0  0  0  0
  128.9723  128.0726  150.2025 H   0  0  0  0  0  0  0  0  0  0  0  0
  130.4513  129.8360  149.2797 H   0  0  0  0  0  0  0  0  0  0  0  0
  131.8532  129.0722  150.0669 H   0  0  0  0  0  0  0  0  0  0  0  0
  129.6199  130.6537  151.4513 H   0  0  0  0  0  0  0  0  0  0  0  0
  132.0840  129.1528  152.4343 H   0  0  0  0  0  0  0  0  0  0  0  0
  129.7375  132.0469  152.7494 H   0  0  0  0  0  0  0  0  0  0  0  0
  129.2302  133.2556  154.8272 H   0  0  0  0  0  0  0  0  0  0  0  0
  129.0162  131.1347  158.5110 H   0  0  0  0  0  0  0  0  0  0  0  0
  130.5324  136.1937  158.9530 H   0  0  0  0  0  0  0  0  0  0  0  0
  129.9608  136.5781  163.2781 H   0  0  0  0  0  0  0  0  0  0  0  0
  130.4325  138.8857  163.9964 H   0  0  0  0  0  0  0  0  0  0  0  0
  130.5618  140.6922  162.3283 H   0  0  0  0  0  0  0  0  0  0  0  0
  130.2281  140.1897  159.9410 H   0  0  0  0  0  0  0  0  0  0  0  0
  129.7646  137.8808  159.2218 H   0  0  0  0  0  0  0  0  0  0  0  0
  127.8158  136.0659  158.7357 H   0  0  0  0  0  0  0  0  0  0  0  0
  125.3839  135.6772  158.7400 H   0  0  0  0  0  0  0  0  0  0  0  0
  128.0292  134.7578  162.7872 H   0  0  0  0  0  0  0  0  0  0  0  0
  124.6508  134.9358  163.5721 H   0  0  0  0  0  0  0  0  0  0  0  0
  124.9231  133.2265  163.0082 H   0  0  0  0  0  0  0  0  0  0  0  0
  123.3594  135.3780  161.5971 H   0  0  0  0  0  0  0  0  0  0  0  0
  123.6306  133.6755  161.0353 H   0  0  0  0  0  0  0  0  0  0  0  0
  131.5587  130.4215  157.0468 H   0  0  0  0  0  0  0  0  0  0  0  0
  132.0595  129.2057  154.9715 H   0  0  0  0  0  0  0  0  0  0  0  0
  1  2  1  0
  1 35  1  0
  1 36  1  0
  1 37  1  0
  2  3  1  0
  2 38  1  0
  2 39  1  0
  3  4  2  0
  3 40  1  0
  4  5  1  0
  4 41  1  0
  5 34  2  0
  5  6  1  0
  6  7  2  0
  6 42  1  0
  7  8  1  0
  7 43  1  0
  8  9  1  0
  8 33  2  0
  9 31  1  0
  9 10  2  0
 10 11  1  0
 10 44  1  0
 11 12  1  0
 11 13  1  0
 13 14  1  0
 13 31  2  0
 14 15  1  0
 14 45  1  0
 15 16  1  1
 15 17  1  0
 15 23  1  0
 17 22  1  0
 17 18  2  0
 18 19  1  0
 18 46  1  0
 19 20  2  0
 19 47  1  0
 20 21  1  0
 20 48  1  0
 21 22  2  0
 21 49  1  0
 22 50  1  0
 23 28  1  0
 23 24  2  0
 24 25  1  0
 24 51  1  0
 25 26  2  0
 25 52  1  0
 26 30  1  0
 26 27  1  0
 27 28  2  0
 27 29  1  0
 28 53  1  0
 29 30  1  0
 29 54  1  0
 29 55  1  0
 30 56  1  0
 30 57  1  0
 31 32  1  0
 33 34  1  0
 33 58  1  0
 34 59  1  0
M  CHG  1  31   1
M  END
>  <DOCK_score>  (1) 
-60.142445

>  <SMILES>  (1) 
CCC=Cc1ccc(-c2c[nH]c(N[C@@H](c3ccccc3)c3ccc4c(c3)CC4)[nH+]2)cc1

$$$$
