C[C@H](CNC1c2cc(O)ccc2-c2ccc(O)cc21)Nc1[nH]cc(-c2ccc(Br)cc2)[nH+]1
     RDKit          3D

 56 60  0  0  1  0  0  0  0  0999 V2000
  128.6936  136.5318  159.9431 C   0  0  0  0  0  0  0  0  0  0  0  0
  129.7360  135.4818  160.3329 C   0  0  2  0  0  0  0  0  0  0  0  0
  129.2332  134.6031  160.7368 H   0  0  0  0  0  0  0  0  0  0  0  0
  130.6748  136.0638  161.3916 C   0  0  0  0  0  0  0  0  0  0  0  0
  131.3525  137.2481  160.8474 N   0  0  0  0  0  0  0  0  0  0  0  0
  132.5716  137.5533  161.6081 C   0  0  0  0  0  0  0  0  0  0  0  0
  133.4556  138.4883  160.8199 C   0  0  0  0  0  0  0  0  0  0  0  0
  134.0677  138.3656  159.5914 C   0  0  0  0  0  0  0  0  0  0  0  0
  134.8455  139.4039  159.0966 C   0  0  0  0  0  0  0  0  0  0  0  0
  135.4531  139.2813  157.8872 O   0  0  0  0  0  0  0  0  0  0  0  0
  134.9975  140.5698  159.8351 C   0  0  0  0  0  0  0  0  0  0  0  0
  134.3827  140.6985  161.0617 C   0  0  0  0  0  0  0  0  0  0  0  0
  133.6037  139.6546  161.5662 C   0  0  0  0  0  0  0  0  0  0  0  0
  132.8434  139.5293  162.8345 C   0  0  0  0  0  0  0  0  0  0  0  0
  132.6818  140.4180  163.8999 C   0  0  0  0  0  0  0  0  0  0  0  0
  131.9117  140.0607  164.9854 C   0  0  0  0  0  0  0  0  0  0  0  0
  131.2932  138.8182  165.0242 C   0  0  0  0  0  0  0  0  0  0  0  0
  130.5337  138.4702  166.0961 O   0  0  0  0  0  0  0  0  0  0  0  0
  131.4504  137.9316  163.9674 C   0  0  0  0  0  0  0  0  0  0  0  0
  132.2204  138.2849  162.8805 C   0  0  0  0  0  0  0  0  0  0  0  0
  130.5110  135.1003  159.1496 N   0  0  0  0  0  0  0  0  0  0  0  0
  130.0880  134.0489  158.3546 C   0  0  0  0  0  0  0  0  0  0  0  0
  128.9718  133.2981  158.5611 N   0  0  0  0  0  0  0  0  0  0  0  0
  128.3352  133.4023  159.2855 H   0  0  0  0  0  0  0  0  0  0  0  0
  128.9134  132.3651  157.5542 C   0  0  0  0  0  0  0  0  0  0  0  0
  129.9946  132.5724  156.7624 C   0  0  0  0  0  0  0  0  0  0  0  0
  130.3477  131.7988  155.5470 C   0  0  0  0  0  0  0  0  0  0  0  0
  131.1597  130.6704  155.6477 C   0  0  0  0  0  0  0  0  0  0  0  0
  131.4804  129.9509  154.5147 C   0  0  0  0  0  0  0  0  0  0  0  0
  131.0070  130.3548  153.2784 C   0  0  0  0  0  0  0  0  0  0  0  0
  131.4575  129.3689  151.7289 Br  0  0  0  0  0  0  0  0  0  0  0  0
  130.2045  131.4776  153.1722 C   0  0  0  0  0  0  0  0  0  0  0  0
  129.8732  132.2010  154.2997 C   0  0  0  0  0  0  0  0  0  0  0  0
  130.6935  133.6159  157.2758 N   0  0  0  0  0  0  0  0  0  0  0  0
  131.5119  133.9814  156.9050 H   0  0  0  0  0  0  0  0  0  0  0  0
  128.1171  136.8156  160.8235 H   0  0  0  0  0  0  0  0  0  0  0  0
  129.1964  137.4105  159.5393 H   0  0  0  0  0  0  0  0  0  0  0  0
  128.0248  136.1173  159.1889 H   0  0  0  0  0  0  0  0  0  0  0  0
  131.4175  135.3159  161.6693 H   0  0  0  0  0  0  0  0  0  0  0  0
  130.0983  136.3476  162.2720 H   0  0  0  0  0  0  0  0  0  0  0  0
  130.7310  138.0427  160.8264 H   0  0  0  0  0  0  0  0  0  0  0  0
  133.1098  136.6341  161.8400 H   0  0  0  0  0  0  0  0  0  0  0  0
  133.9455  137.4604  159.0152 H   0  0  0  0  0  0  0  0  0  0  0  0
  135.2856  138.4368  157.4467 H   0  0  0  0  0  0  0  0  0  0  0  0
  135.5992  141.3783  159.4469 H   0  0  0  0  0  0  0  0  0  0  0  0
  134.5037  141.6068  161.6333 H   0  0  0  0  0  0  0  0  0  0  0  0
  133.1611  141.3855  163.8732 H   0  0  0  0  0  0  0  0  0  0  0  0
  131.7885  140.7493  165.8082 H   0  0  0  0  0  0  0  0  0  0  0  0
  130.4831  139.1517  166.7802 H   0  0  0  0  0  0  0  0  0  0  0  0
  130.9695  136.9651  163.9974 H   0  0  0  0  0  0  0  0  0  0  0  0
  131.3205  135.5844  158.9233 H   0  0  0  0  0  0  0  0  0  0  0  0
  128.1519  131.6114  157.4190 H   0  0  0  0  0  0  0  0  0  0  0  0
  131.5336  130.3573  156.6112 H   0  0  0  0  0  0  0  0  0  0  0  0
  132.1063  129.0742  154.5922 H   0  0  0  0  0  0  0  0  0  0  0  0
  129.8374  131.7883  152.2052 H   0  0  0  0  0  0  0  0  0  0  0  0
  129.2469  133.0769  154.2158 H   0  0  0  0  0  0  0  0  0  0  0  0
  1  2  1  0
  1 36  1  0
  1 37  1  0
  1 38  1  0
  2  3  1  1
  2  4  1  0
  2 21  1  0
  4  5  1  0
  4 39  1  0
  4 40  1  0
  5  6  1  0
  5 41  1  0
  6 20  1  0
  6  7  1  0
  6 42  1  0
  7 13  1  0
  7  8  2  0
  8  9  1  0
  8 43  1  0
  9 10  1  0
  9 11  2  0
 10 44  1  0
 11 12  1  0
 11 45  1  0
 12 13  2  0
 12 46  1  0
 13 14  1  0
 14 20  2  0
 14 15  1  0
 15 16  2  0
 15 47  1  0
 16 17  1  0
 16 48  1  0
 17 18  1  0
 17 19  2  0
 18 49  1  0
 19 20  1  0
 19 50  1  0
 21 51  1  0
 22 21  1  0
 22 34  2  0
 22 23  1  0
 23 24  1  0
 23 25  1  0
 25 26  2  0
 25 52  1  0
 26 27  1  0
 26 34  1  0
 27 33  1  0
 27 28  2  0
 28 29  1  0
 28 53  1  0
 29 30  2  0
 29 54  1  0
 30 31  1  0
 30 32  1  0
 32 33  2  0
 32 55  1  0
 33 56  1  0
 34 35  1  0
M  CHG  1  34   1
M  END
>  <DOCK_score>  (1) 
-57.172432

>  <SMILES>  (1) 
C[C@H](CNC1c2cc(O)ccc2-c2ccc(O)cc21)Nc1[nH]cc(-c2ccc(Br)cc2)[nH+]1

$$$$
