CCCC=Cc1ccc(C[NH+]2CCN([C@@H](Cc3ccccc3)C(F)F)CC2)cc1
     RDKit          3D

 62 64  0  0  1  0  0  0  0  0999 V2000
  137.8687  135.0060  165.2359 C   0  0  0  0  0  0  0  0  0  0  0  0
  138.2250  136.4455  164.8593 C   0  0  0  0  0  0  0  0  0  0  0  0
  138.1289  136.6144  163.3417 C   0  0  0  0  0  0  0  0  0  0  0  0
  136.7236  136.3102  162.8904 C   0  0  0  0  0  0  0  0  0  0  0  0
  136.0106  137.2402  162.2706 C   0  0  0  0  0  0  0  0  0  0  0  0
  134.6319  136.9426  161.8281 C   0  0  0  0  0  0  0  0  0  0  0  0
  133.9274  135.8809  162.3975 C   0  0  0  0  0  0  0  0  0  0  0  0
  132.6413  135.6074  161.9794 C   0  0  0  0  0  0  0  0  0  0  0  0
  132.0506  136.3823  160.9972 C   0  0  0  0  0  0  0  0  0  0  0  0
  130.6457  136.0776  160.5450 C   0  0  0  0  0  0  0  0  0  0  0  0
  130.6868  135.1264  159.4264 N   0  0  0  0  0  0  0  0  0  0  0  0
  131.2066  135.5296  158.6613 H   0  0  0  0  0  0  0  0  0  0  0  0
  131.3413  133.8859  159.8627 C   0  0  0  0  0  0  0  0  0  0  0  0
  131.4010  132.9016  158.6925 C   0  0  0  0  0  0  0  0  0  0  0  0
  130.0368  132.6177  158.2249 N   0  0  0  0  0  0  0  0  0  0  0  0
  130.0480  131.6310  157.1366 C   0  0  1  0  0  0  0  0  0  0  0  0
  129.1147  131.6958  156.5776 H   0  0  0  0  0  0  0  0  0  0  0  0
  131.2240  131.9176  156.2007 C   0  0  0  0  0  0  0  0  0  0  0  0
  130.9750  131.2631  154.8663 C   0  0  0  0  0  0  0  0  0  0  0  0
  131.4136  129.9723  154.6368 C   0  0  0  0  0  0  0  0  0  0  0  0
  131.1809  129.3703  153.4145 C   0  0  0  0  0  0  0  0  0  0  0  0
  130.5188  130.0627  152.4179 C   0  0  0  0  0  0  0  0  0  0  0  0
  130.0848  131.3552  152.6455 C   0  0  0  0  0  0  0  0  0  0  0  0
  130.3128  131.9554  153.8697 C   0  0  0  0  0  0  0  0  0  0  0  0
  130.1943  130.2257  157.7238 C   0  0  0  0  0  0  0  0  0  0  0  0
  131.5374  129.9878  158.0351 F   0  0  0  0  0  0  0  0  0  0  0  0
  129.4212  130.1229  158.8853 F   0  0  0  0  0  0  0  0  0  0  0  0
  129.3601  133.8540  157.8079 C   0  0  0  0  0  0  0  0  0  0  0  0
  129.3173  134.8305  158.9854 C   0  0  0  0  0  0  0  0  0  0  0  0
  132.7461  137.4321  160.4245 C   0  0  0  0  0  0  0  0  0  0  0  0
  134.0305  137.7198  160.8380 C   0  0  0  0  0  0  0  0  0  0  0  0
  138.5628  134.3208  164.7495 H   0  0  0  0  0  0  0  0  0  0  0  0
  137.9371  134.8857  166.3171 H   0  0  0  0  0  0  0  0  0  0  0  0
  136.8522  134.7861  164.9095 H   0  0  0  0  0  0  0  0  0  0  0  0
  139.2414  136.6655  165.1857 H   0  0  0  0  0  0  0  0  0  0  0  0
  137.5308  137.1308  165.3457 H   0  0  0  0  0  0  0  0  0  0  0  0
  138.8230  135.9290  162.8552 H   0  0  0  0  0  0  0  0  0  0  0  0
  138.3827  137.6398  163.0733 H   0  0  0  0  0  0  0  0  0  0  0  0
  136.2974  135.3347  163.0719 H   0  0  0  0  0  0  0  0  0  0  0  0
  136.4368  138.2158  162.0890 H   0  0  0  0  0  0  0  0  0  0  0  0
  134.3877  135.2749  163.1639 H   0  0  0  0  0  0  0  0  0  0  0  0
  132.0946  134.7865  162.4195 H   0  0  0  0  0  0  0  0  0  0  0  0
  130.1605  136.9984  160.2212 H   0  0  0  0  0  0  0  0  0  0  0  0
  130.0843  135.6423  161.3716 H   0  0  0  0  0  0  0  0  0  0  0  0
  130.7730  133.4436  160.6809 H   0  0  0  0  0  0  0  0  0  0  0  0
  132.3530  134.1088  160.2018 H   0  0  0  0  0  0  0  0  0  0  0  0
  131.8732  131.9754  159.0200 H   0  0  0  0  0  0  0  0  0  0  0  0
  131.9808  133.3380  157.8793 H   0  0  0  0  0  0  0  0  0  0  0  0
  131.3256  132.9942  156.0640 H   0  0  0  0  0  0  0  0  0  0  0  0
  132.1403  131.5184  156.6358 H   0  0  0  0  0  0  0  0  0  0  0  0
  131.9349  129.4330  155.4139 H   0  0  0  0  0  0  0  0  0  0  0  0
  131.5204  128.3606  153.2365 H   0  0  0  0  0  0  0  0  0  0  0  0
  130.3410  129.5940  151.4613 H   0  0  0  0  0  0  0  0  0  0  0  0
  129.5678  131.8963  151.8669 H   0  0  0  0  0  0  0  0  0  0  0  0
  129.9741  132.9654  154.0475 H   0  0  0  0  0  0  0  0  0  0  0  0
  129.8544  129.4901  156.9948 H   0  0  0  0  0  0  0  0  0  0  0  0
  129.9063  134.3062  156.9801 H   0  0  0  0  0  0  0  0  0  0  0  0
  128.3434  133.6228  157.4901 H   0  0  0  0  0  0  0  0  0  0  0  0
  128.7593  134.3834  159.8080 H   0  0  0  0  0  0  0  0  0  0  0  0
  128.8284  135.7537  158.6741 H   0  0  0  0  0  0  0  0  0  0  0  0
  132.2809  138.0305  159.6550 H   0  0  0  0  0  0  0  0  0  0  0  0
  134.5710  138.5421  160.3929 H   0  0  0  0  0  0  0  0  0  0  0  0
  1  2  1  0
  1 32  1  0
  1 33  1  0
  1 34  1  0
  2  3  1  0
  2 35  1  0
  2 36  1  0
  3  4  1  0
  3 37  1  0
  3 38  1  0
  4  5  2  0
  4 39  1  0
  5  6  1  0
  5 40  1  0
  6 31  2  0
  6  7  1  0
  7  8  2  0
  7 41  1  0
  8  9  1  0
  8 42  1  0
  9 10  1  0
  9 30  2  0
 10 11  1  0
 10 43  1  0
 10 44  1  0
 11 12  1  0
 11 29  1  0
 11 13  1  0
 13 14  1  0
 13 45  1  0
 13 46  1  0
 14 15  1  0
 14 47  1  0
 14 48  1  0
 15 16  1  0
 15 28  1  0
 16 17  1  6
 16 18  1  0
 16 25  1  0
 18 19  1  0
 18 49  1  0
 18 50  1  0
 19 24  1  0
 19 20  2  0
 20 21  1  0
 20 51  1  0
 21 22  2  0
 21 52  1  0
 22 23  1  0
 22 53  1  0
 23 24  2  0
 23 54  1  0
 24 55  1  0
 25 26  1  0
 25 27  1  0
 25 56  1  0
 28 29  1  0
 28 57  1  0
 28 58  1  0
 29 59  1  0
 29 60  1  0
 30 31  1  0
 30 61  1  0
 31 62  1  0
M  CHG  1  11   1
M  END
>  <DOCK_score>  (1) 
-56.308235

>  <SMILES>  (1) 
CCCC=Cc1ccc(C[NH+]2CCN([C@@H](Cc3ccccc3)C(F)F)CC2)cc1

$$$$
