C[NH2+]Cc1ccc([C@@H](O)c2ccc(Nc3ccc([N+](=O)[O-])cc3Cl)o2)o1
     RDKit          3D

 43 45  0  0  1  0  0  0  0  0999 V2000
  133.1338  135.9731  160.8382 C   0  0  0  0  0  0  0  0  0  0  0  0
  132.0269  135.3620  160.0903 N   0  0  0  0  0  0  0  0  0  0  0  0
  131.9724  135.7762  159.1719 H   0  0  0  0  0  0  0  0  0  0  0  0
  131.1604  135.5204  160.5826 H   0  0  0  0  0  0  0  0  0  0  0  0
  132.2606  133.9173  159.9629 C   0  0  0  0  0  0  0  0  0  0  0  0
  131.1252  133.2904  159.1957 C   0  0  0  0  0  0  0  0  0  0  0  0
  131.0672  133.1386  157.8604 C   0  0  0  0  0  0  0  0  0  0  0  0
  129.8342  132.5093  157.5727 C   0  0  0  0  0  0  0  0  0  0  0  0
  129.2124  132.3142  158.7495 C   0  0  0  0  0  0  0  0  0  0  0  0
  127.8623  131.6716  158.9368 C   0  0  1  0  0  0  0  0  0  0  0  0
  127.4586  131.3846  157.9659 H   0  0  0  0  0  0  0  0  0  0  0  0
  127.9974  130.5105  159.7587 O   0  0  0  0  0  0  0  0  0  0  0  0
  126.9278  132.6504  159.6000 C   0  0  0  0  0  0  0  0  0  0  0  0
  125.6428  132.4158  159.9196 C   0  0  0  0  0  0  0  0  0  0  0  0
  125.1456  133.5955  160.5194 C   0  0  0  0  0  0  0  0  0  0  0  0
  126.1642  134.4874  160.5306 C   0  0  0  0  0  0  0  0  0  0  0  0
  126.1073  135.7844  161.0340 N   0  0  0  0  0  0  0  0  0  0  0  0
  127.2381  136.6040  160.9827 C   0  0  0  0  0  0  0  0  0  0  0  0
  128.1628  136.4514  159.9573 C   0  0  0  0  0  0  0  0  0  0  0  0
  129.2823  137.2588  159.9130 C   0  0  0  0  0  0  0  0  0  0  0  0
  129.4775  138.2274  160.8815 C   0  0  0  0  0  0  0  0  0  0  0  0
  130.6783  139.0964  160.8254 N   0  0  0  0  0  0  0  0  0  0  0  0
  131.4908  138.9567  159.9293 O   0  0  0  0  0  0  0  0  0  0  0  0
  130.8521  139.9493  161.6778 O   0  0  0  0  0  0  0  0  0  0  0  0
  128.5566  138.3869  161.8998 C   0  0  0  0  0  0  0  0  0  0  0  0
  127.4371  137.5784  161.9542 C   0  0  0  0  0  0  0  0  0  0  0  0
  126.2808  137.7795  163.2332 Cl  0  0  0  0  0  0  0  0  0  0  0  0
  127.2380  133.9078  159.9673 O   0  0  0  0  0  0  0  0  0  0  0  0
  129.9964  132.7946  159.7285 O   0  0  0  0  0  0  0  0  0  0  0  0
  133.1926  135.5257  161.8304 H   0  0  0  0  0  0  0  0  0  0  0  0
  134.0697  135.8019  160.3064 H   0  0  0  0  0  0  0  0  0  0  0  0
  132.9604  137.0451  160.9327 H   0  0  0  0  0  0  0  0  0  0  0  0
  132.3193  133.4699  160.9552 H   0  0  0  0  0  0  0  0  0  0  0  0
  133.1966  133.7462  159.4313 H   0  0  0  0  0  0  0  0  0  0  0  0
  131.8184  133.4399  157.1451 H   0  0  0  0  0  0  0  0  0  0  0  0
  129.4628  132.2379  156.5957 H   0  0  0  0  0  0  0  0  0  0  0  0
  128.3521  130.6913  160.6398 H   0  0  0  0  0  0  0  0  0  0  0  0
  125.0949  131.5006  159.7500 H   0  0  0  0  0  0  0  0  0  0  0  0
  124.1459  133.7546  160.8957 H   0  0  0  0  0  0  0  0  0  0  0  0
  125.2829  136.1190  161.4202 H   0  0  0  0  0  0  0  0  0  0  0  0
  128.0086  135.6989  159.1980 H   0  0  0  0  0  0  0  0  0  0  0  0
  130.0038  137.1371  159.1186 H   0  0  0  0  0  0  0  0  0  0  0  0
  128.7124  139.1442  162.6539 H   0  0  0  0  0  0  0  0  0  0  0  0
  1  2  1  0
  1 30  1  0
  1 31  1  0
  1 32  1  0
  2  3  1  0
  2  4  1  0
  2  5  1  0
  5  6  1  0
  5 33  1  0
  5 34  1  0
  6 29  1  0
  6  7  2  0
  7  8  1  0
  7 35  1  0
  8  9  2  0
  8 36  1  0
  9 10  1  0
  9 29  1  0
 10 11  1  6
 10 12  1  0
 10 13  1  0
 12 37  1  0
 13 28  1  0
 13 14  2  0
 14 15  1  0
 14 38  1  0
 15 16  2  0
 15 39  1  0
 16 17  1  0
 16 28  1  0
 17 18  1  0
 17 40  1  0
 18 26  1  0
 18 19  2  0
 19 20  1  0
 19 41  1  0
 20 21  2  0
 20 42  1  0
 21 22  1  0
 21 25  1  0
 22 23  2  0
 22 24  1  0
 25 26  2  0
 25 43  1  0
 26 27  1  0
M  CHG  3   2   1  22   1  24  -1
M  END
>  <DOCK_score>  (1) 
-42.555443

>  <SMILES>  (1) 
C[NH2+]Cc1ccc([C@@H](O)c2ccc(Nc3ccc([N+](=O)[O-])cc3Cl)o2)o1

$$$$
