Oc1ccc2c(c1)C(NCC=C[NH2+][C@H]1C[C@@H](O)C1)c1cc(O)ccc1-2
     RDKit          3D

 48 51  0  0  1  0  0  0  0  0999 V2000
  131.9083  130.0000  157.8644 O   0  0  0  0  0  0  0  0  0  0  0  0
  130.7368  130.4135  158.4153 C   0  0  0  0  0  0  0  0  0  0  0  0
  129.6863  129.5186  158.5658 C   0  0  0  0  0  0  0  0  0  0  0  0
  128.4968  129.9335  159.1249 C   0  0  0  0  0  0  0  0  0  0  0  0
  128.3446  131.2577  159.5419 C   0  0  0  0  0  0  0  0  0  0  0  0
  129.4028  132.1500  159.3873 C   0  0  0  0  0  0  0  0  0  0  0  0
  130.5922  131.7298  158.8331 C   0  0  0  0  0  0  0  0  0  0  0  0
  128.9513  133.4876  159.9207 C   0  0  0  0  0  0  0  0  0  0  0  0
  129.8087  133.9033  161.0388 N   0  0  0  0  0  0  0  0  0  0  0  0
  129.7156  135.3521  161.2630 C   0  0  0  0  0  0  0  0  0  0  0  0
  130.5838  136.0719  160.2634 C   0  0  0  0  0  0  0  0  0  0  0  0
  131.1325  137.2190  160.5785 C   0  0  0  0  0  0  0  0  0  0  0  0
  131.9379  137.8868  159.6512 N   0  0  0  0  0  0  0  0  0  0  0  0
  131.9882  137.3481  158.7997 H   0  0  0  0  0  0  0  0  0  0  0  0
  131.5417  138.7932  159.4529 H   0  0  0  0  0  0  0  0  0  0  0  0
  133.2881  138.0532  160.2056 C   0  0  1  0  0  0  0  0  0  0  0  0
  133.6318  137.1758  160.7536 H   0  0  0  0  0  0  0  0  0  0  0  0
  134.3111  138.5835  159.1875 C   0  0  0  0  0  0  0  0  0  0  0  0
  134.8746  139.4522  160.3267 C   0  0  1  0  0  0  0  0  0  0  0  0
  135.6534  138.9575  160.9071 H   0  0  0  0  0  0  0  0  0  0  0  0
  135.2411  140.7713  159.9171 O   0  0  0  0  0  0  0  0  0  0  0  0
  133.4810  139.3725  160.9720 C   0  0  0  0  0  0  0  0  0  0  0  0
  127.5338  133.2889  160.3989 C   0  0  0  0  0  0  0  0  0  0  0  0
  126.6237  134.1483  160.9745 C   0  0  0  0  0  0  0  0  0  0  0  0
  125.3604  133.6895  161.3241 C   0  0  0  0  0  0  0  0  0  0  0  0
  124.4627  134.5368  161.8922 O   0  0  0  0  0  0  0  0  0  0  0  0
  125.0151  132.3648  161.0933 C   0  0  0  0  0  0  0  0  0  0  0  0
  125.9228  131.5020  160.5178 C   0  0  0  0  0  0  0  0  0  0  0  0
  127.1945  131.9586  160.1644 C   0  0  0  0  0  0  0  0  0  0  0  0
  132.5809  130.6922  157.8052 H   0  0  0  0  0  0  0  0  0  0  0  0
  129.8016  128.4940  158.2442 H   0  0  0  0  0  0  0  0  0  0  0  0
  127.6820  129.2341  159.2410 H   0  0  0  0  0  0  0  0  0  0  0  0
  131.4109  132.4252  158.7202 H   0  0  0  0  0  0  0  0  0  0  0  0
  128.9787  134.2361  159.1287 H   0  0  0  0  0  0  0  0  0  0  0  0
  129.5812  133.3921  161.8783 H   0  0  0  0  0  0  0  0  0  0  0  0
  128.6809  135.6727  161.1428 H   0  0  0  0  0  0  0  0  0  0  0  0
  130.0536  135.5859  162.2726 H   0  0  0  0  0  0  0  0  0  0  0  0
  130.7535  135.6422  159.2872 H   0  0  0  0  0  0  0  0  0  0  0  0
  130.9628  137.6488  161.5546 H   0  0  0  0  0  0  0  0  0  0  0  0
  135.0069  137.8237  158.8313 H   0  0  0  0  0  0  0  0  0  0  0  0
  133.8632  139.1609  158.3786 H   0  0  0  0  0  0  0  0  0  0  0  0
  135.2657  141.4146  160.6386 H   0  0  0  0  0  0  0  0  0  0  0  0
  132.8056  140.1659  160.6520 H   0  0  0  0  0  0  0  0  0  0  0  0
  133.5061  139.2490  162.0547 H   0  0  0  0  0  0  0  0  0  0  0  0
  126.8927  135.1788  161.1539 H   0  0  0  0  0  0  0  0  0  0  0  0
  124.7938  135.4372  162.0132 H   0  0  0  0  0  0  0  0  0  0  0  0
  124.0325  132.0094  161.3660 H   0  0  0  0  0  0  0  0  0  0  0  0
  125.6503  130.4722  160.3395 H   0  0  0  0  0  0  0  0  0  0  0  0
  1  2  1  0
  1 30  1  0
  2  7  2  0
  2  3  1  0
  3  4  2  0
  3 31  1  0
  4  5  1  0
  4 32  1  0
  5 29  1  0
  5  6  2  0
  6  7  1  0
  6  8  1  0
  7 33  1  0
  8  9  1  0
  8 23  1  0
  8 34  1  0
  9 10  1  0
  9 35  1  0
 10 11  1  0
 10 36  1  0
 10 37  1  0
 11 12  2  0
 11 38  1  0
 12 13  1  0
 12 39  1  0
 13 14  1  0
 13 15  1  0
 13 16  1  0
 16 17  1  1
 16 22  1  0
 16 18  1  0
 18 19  1  0
 18 40  1  0
 18 41  1  0
 19 20  1  1
 19 21  1  0
 19 22  1  0
 21 42  1  0
 22 43  1  0
 22 44  1  0
 23 29  2  0
 23 24  1  0
 24 25  2  0
 24 45  1  0
 25 26  1  0
 25 27  1  0
 26 46  1  0
 27 28  2  0
 27 47  1  0
 28 29  1  0
 28 48  1  0
M  CHG  1  13   1
M  END
>  <DOCK_score>  (1) 
-41.13517

>  <SMILES>  (1) 
Oc1ccc2c(c1)C(NCC=C[NH2+][C@H]1C[C@@H](O)C1)c1cc(O)ccc1-2

$$$$
