Cn1nncc1C[C@@H](Nc1[nH]cc(-c2ccc(N)cc2)[nH+]1)C(c1ccccc1)c1ccccc1
     RDKit          3D

 62 66  0  0  1  0  0  0  0  0999 V2000
  126.9137  134.4214  161.4907 C   0  0  0  0  0  0  0  0  0  0  0  0
  127.2802  134.6359  160.0885 N   0  0  0  0  0  0  0  0  0  0  0  0
  126.8111  133.9897  159.0791 N   0  0  0  0  0  0  0  0  0  0  0  0
  127.3399  134.4238  157.9897 N   0  0  0  0  0  0  0  0  0  0  0  0
  128.1970  135.4072  158.2863 C   0  0  0  0  0  0  0  0  0  0  0  0
  128.1697  135.5478  159.6322 C   0  0  0  0  0  0  0  0  0  0  0  0
  128.9652  136.5273  160.4561 C   0  0  0  0  0  0  0  0  0  0  0  0
  130.2946  135.8891  160.8641 C   0  0  1  0  0  0  0  0  0  0  0  0
  130.1016  134.9920  161.4523 H   0  0  0  0  0  0  0  0  0  0  0  0
  131.0536  135.5317  159.6631 N   0  0  0  0  0  0  0  0  0  0  0  0
  130.8946  134.2813  159.0904 C   0  0  0  0  0  0  0  0  0  0  0  0
  130.5699  133.1400  159.7564 N   0  0  0  0  0  0  0  0  0  0  0  0
  130.4097  133.0566  160.7094 H   0  0  0  0  0  0  0  0  0  0  0  0
  130.5113  132.1268  158.8289 C   0  0  0  0  0  0  0  0  0  0  0  0
  130.8017  132.6787  157.6249 C   0  0  0  0  0  0  0  0  0  0  0  0
  130.8582  131.9623  156.3270 C   0  0  0  0  0  0  0  0  0  0  0  0
  130.5414  132.6315  155.1459 C   0  0  0  0  0  0  0  0  0  0  0  0
  130.5995  131.9651  153.9402 C   0  0  0  0  0  0  0  0  0  0  0  0
  130.9628  130.6235  153.9033 C   0  0  0  0  0  0  0  0  0  0  0  0
  131.0157  129.9486  152.6814 N   0  0  0  0  0  0  0  0  0  0  0  0
  131.2738  129.9534  155.0799 C   0  0  0  0  0  0  0  0  0  0  0  0
  131.2225  130.6172  156.2874 C   0  0  0  0  0  0  0  0  0  0  0  0
  131.0268  134.0027  157.8163 N   0  0  0  0  0  0  0  0  0  0  0  0
  131.2519  134.6411  157.1216 H   0  0  0  0  0  0  0  0  0  0  0  0
  131.1022  136.8835  161.7006 C   0  0  0  0  0  0  0  0  0  0  0  0
  132.1418  136.1402  162.4993 C   0  0  0  0  0  0  0  0  0  0  0  0
  132.5560  136.6327  163.7226 C   0  0  0  0  0  0  0  0  0  0  0  0
  133.5096  135.9508  164.4552 C   0  0  0  0  0  0  0  0  0  0  0  0
  134.0483  134.7760  163.9648 C   0  0  0  0  0  0  0  0  0  0  0  0
  133.6376  134.2860  162.7392 C   0  0  0  0  0  0  0  0  0  0  0  0
  132.6808  134.9655  162.0087 C   0  0  0  0  0  0  0  0  0  0  0  0
  131.7818  137.8718  160.7884 C   0  0  0  0  0  0  0  0  0  0  0  0
  133.0506  137.6089  160.3069 C   0  0  0  0  0  0  0  0  0  0  0  0
  133.6722  138.5133  159.4662 C   0  0  0  0  0  0  0  0  0  0  0  0
  133.0289  139.6854  159.1153 C   0  0  0  0  0  0  0  0  0  0  0  0
  131.7621  139.9508  159.6007 C   0  0  0  0  0  0  0  0  0  0  0  0
  131.1386  139.0441  160.4373 C   0  0  0  0  0  0  0  0  0  0  0  0
  126.0675  135.0590  161.7467 H   0  0  0  0  0  0  0  0  0  0  0  0
  126.6394  133.3769  161.6388 H   0  0  0  0  0  0  0  0  0  0  0  0
  127.7614  134.6687  162.1298 H   0  0  0  0  0  0  0  0  0  0  0  0
  128.7947  135.9756  157.5891 H   0  0  0  0  0  0  0  0  0  0  0  0
  128.4005  136.7932  161.3498 H   0  0  0  0  0  0  0  0  0  0  0  0
  129.1582  137.4243  159.8680 H   0  0  0  0  0  0  0  0  0  0  0  0
  131.6673  136.1711  159.2692 H   0  0  0  0  0  0  0  0  0  0  0  0
  130.2785  131.0901  159.0223 H   0  0  0  0  0  0  0  0  0  0  0  0
  130.2544  133.6724  155.1749 H   0  0  0  0  0  0  0  0  0  0  0  0
  130.3584  132.4843  153.0244 H   0  0  0  0  0  0  0  0  0  0  0  0
  131.2689  129.0134  152.6543 H   0  0  0  0  0  0  0  0  0  0  0  0
  130.7983  130.4166  151.8593 H   0  0  0  0  0  0  0  0  0  0  0  0
  131.5557  128.9112  155.0488 H   0  0  0  0  0  0  0  0  0  0  0  0
  131.4648  130.0959  157.2016 H   0  0  0  0  0  0  0  0  0  0  0  0
  130.4343  137.4146  162.3787 H   0  0  0  0  0  0  0  0  0  0  0  0
  132.1349  137.5503  164.1060 H   0  0  0  0  0  0  0  0  0  0  0  0
  133.8336  136.3358  165.4109 H   0  0  0  0  0  0  0  0  0  0  0  0
  134.7933  134.2433  164.5372 H   0  0  0  0  0  0  0  0  0  0  0  0
  134.0617  133.3705  162.3540 H   0  0  0  0  0  0  0  0  0  0  0  0
  132.3568  134.5805  161.0530 H   0  0  0  0  0  0  0  0  0  0  0  0
  133.5550  136.6952  160.5846 H   0  0  0  0  0  0  0  0  0  0  0  0
  134.6620  138.3062  159.0872 H   0  0  0  0  0  0  0  0  0  0  0  0
  133.5162  140.3941  158.4620 H   0  0  0  0  0  0  0  0  0  0  0  0
  131.2597  140.8668  159.3269 H   0  0  0  0  0  0  0  0  0  0  0  0
  130.1490  139.2514  160.8169 H   0  0  0  0  0  0  0  0  0  0  0  0
  1  2  1  0
  1 38  1  0
  1 39  1  0
  1 40  1  0
  2  6  1  0
  2  3  1  0
  3  4  2  0
  4  5  1  0
  5  6  2  0
  5 41  1  0
  6  7  1  0
  7  8  1  0
  7 42  1  0
  7 43  1  0
  8  9  1  1
  8 10  1  0
  8 25  1  0
 10 44  1  0
 11 10  1  0
 11 23  2  0
 11 12  1  0
 12 13  1  0
 12 14  1  0
 14 15  2  0
 14 45  1  0
 15 16  1  0
 15 23  1  0
 16 22  1  0
 16 17  2  0
 17 18  1  0
 17 46  1  0
 18 19  2  0
 18 47  1  0
 19 20  1  0
 19 21  1  0
 20 48  1  0
 20 49  1  0
 21 22  2  0
 21 50  1  0
 22 51  1  0
 23 24  1  0
 25 26  1  0
 25 32  1  0
 25 52  1  0
 26 31  1  0
 26 27  2  0
 27 28  1  0
 27 53  1  0
 28 29  2  0
 28 54  1  0
 29 30  1  0
 29 55  1  0
 30 31  2  0
 30 56  1  0
 31 57  1  0
 32 37  1  0
 32 33  2  0
 33 34  1  0
 33 58  1  0
 34 35  2  0
 34 59  1  0
 35 36  1  0
 35 60  1  0
 36 37  2  0
 36 61  1  0
 37 62  1  0
M  CHG  1  23   1
M  END
>  <DOCK_score>  (1) 
-57.484951

>  <SMILES>  (1) 
Cn1nncc1C[C@@H](Nc1[nH]cc(-c2ccc(N)cc2)[nH+]1)C(c1ccccc1)c1ccccc1

$$$$
