Nc1ccc(-c2c[nH]c(N[C@H](c3ccncc3)c3ccccc3-c3ccncc3)[nH+]2)cc1
     RDKit          3D

 55 59  0  0  1  0  0  0  0  0999 V2000
  131.3289  129.4787  151.2028 N   0  0  0  0  0  0  0  0  0  0  0  0
  131.0758  130.1269  152.4141 C   0  0  0  0  0  0  0  0  0  0  0  0
  130.3183  131.2921  152.4326 C   0  0  0  0  0  0  0  0  0  0  0  0
  130.0670  131.9334  153.6270 C   0  0  0  0  0  0  0  0  0  0  0  0
  130.5735  131.4124  154.8168 C   0  0  0  0  0  0  0  0  0  0  0  0
  130.3046  132.1006  156.1032 C   0  0  0  0  0  0  0  0  0  0  0  0
  129.6533  131.5735  157.1693 C   0  0  0  0  0  0  0  0  0  0  0  0
  129.6273  132.5455  158.1412 N   0  0  0  0  0  0  0  0  0  0  0  0
  129.2291  132.4668  159.0221 H   0  0  0  0  0  0  0  0  0  0  0  0
  130.2641  133.6382  157.6391 C   0  0  0  0  0  0  0  0  0  0  0  0
  130.4548  134.8371  158.3046 N   0  0  0  0  0  0  0  0  0  0  0  0
  129.4808  135.2829  159.3041 C   0  0  2  0  0  0  0  0  0  0  0  0
  129.4172  134.5450  160.1038 H   0  0  0  0  0  0  0  0  0  0  0  0
  128.1299  135.4378  158.6549 C   0  0  0  0  0  0  0  0  0  0  0  0
  128.0210  135.7826  157.3162 C   0  0  0  0  0  0  0  0  0  0  0  0
  126.7650  135.9115  156.7540 C   0  0  0  0  0  0  0  0  0  0  0  0
  125.6792  135.7200  157.4775 N   0  0  0  0  0  0  0  0  0  0  0  0
  125.7448  135.3958  158.7540 C   0  0  0  0  0  0  0  0  0  0  0  0
  126.9660  135.2445  159.3832 C   0  0  0  0  0  0  0  0  0  0  0  0
  129.9182  136.6068  159.8759 C   0  0  0  0  0  0  0  0  0  0  0  0
  130.0703  137.7010  159.0482 C   0  0  0  0  0  0  0  0  0  0  0  0
  130.4706  138.9170  159.5717 C   0  0  0  0  0  0  0  0  0  0  0  0
  130.7217  139.0438  160.9263 C   0  0  0  0  0  0  0  0  0  0  0  0
  130.5728  137.9566  161.7629 C   0  0  0  0  0  0  0  0  0  0  0  0
  130.1692  136.7290  161.2409 C   0  0  0  0  0  0  0  0  0  0  0  0
  130.0078  135.5563  162.1355 C   0  0  0  0  0  0  0  0  0  0  0  0
  128.7845  135.2905  162.7570 C   0  0  0  0  0  0  0  0  0  0  0  0
  128.6763  134.1858  163.5767 C   0  0  0  0  0  0  0  0  0  0  0  0
  129.7102  133.3935  163.7852 N   0  0  0  0  0  0  0  0  0  0  0  0
  130.8832  133.6119  163.2224 C   0  0  0  0  0  0  0  0  0  0  0  0
  131.0766  134.6906  162.3840 C   0  0  0  0  0  0  0  0  0  0  0  0
  130.6623  133.3705  156.4192 N   0  0  0  0  0  0  0  0  0  0  0  0
  131.1388  133.9820  155.8362 H   0  0  0  0  0  0  0  0  0  0  0  0
  131.3379  130.2469  154.7951 C   0  0  0  0  0  0  0  0  0  0  0  0
  131.5813  129.6054  153.5991 C   0  0  0  0  0  0  0  0  0  0  0  0
  130.9762  129.8419  150.3754 H   0  0  0  0  0  0  0  0  0  0  0  0
  131.8575  128.6654  151.1891 H   0  0  0  0  0  0  0  0  0  0  0  0
  129.9264  131.6955  151.5106 H   0  0  0  0  0  0  0  0  0  0  0  0
  129.4782  132.8386  153.6410 H   0  0  0  0  0  0  0  0  0  0  0  0
  129.2348  130.5803  157.2410 H   0  0  0  0  0  0  0  0  0  0  0  0
  131.2332  135.3818  158.1091 H   0  0  0  0  0  0  0  0  0  0  0  0
  128.9064  135.9451  156.7197 H   0  0  0  0  0  0  0  0  0  0  0  0
  126.6717  136.1766  155.7113 H   0  0  0  0  0  0  0  0  0  0  0  0
  124.8336  135.2471  159.3143 H   0  0  0  0  0  0  0  0  0  0  0  0
  127.0131  134.9796  160.4290 H   0  0  0  0  0  0  0  0  0  0  0  0
  129.8761  137.6076  157.9899 H   0  0  0  0  0  0  0  0  0  0  0  0
  130.5882  139.7706  158.9205 H   0  0  0  0  0  0  0  0  0  0  0  0
  131.0341  139.9956  161.3298 H   0  0  0  0  0  0  0  0  0  0  0  0
  130.7644  138.0579  162.8209 H   0  0  0  0  0  0  0  0  0  0  0  0
  127.9351  135.9375  162.5943 H   0  0  0  0  0  0  0  0  0  0  0  0
  127.7339  133.9699  164.0582 H   0  0  0  0  0  0  0  0  0  0  0  0
  131.7033  132.9377  163.4209 H   0  0  0  0  0  0  0  0  0  0  0  0
  132.0396  134.8638  161.9271 H   0  0  0  0  0  0  0  0  0  0  0  0
  131.7348  129.8438  155.7152 H   0  0  0  0  0  0  0  0  0  0  0  0
  132.1690  128.6994  153.5825 H   0  0  0  0  0  0  0  0  0  0  0  0
  1  2  1  0
  1 36  1  0
  1 37  1  0
  2 35  2  0
  2  3  1  0
  3  4  2  0
  3 38  1  0
  4  5  1  0
  4 39  1  0
  5  6  1  0
  5 34  2  0
  6 32  1  0
  6  7  2  0
  7  8  1  0
  7 40  1  0
  8  9  1  0
  8 10  1  0
 10 11  1  0
 10 32  2  0
 11 12  1  0
 11 41  1  0
 12 13  1  1
 12 14  1  0
 12 20  1  0
 14 19  1  0
 14 15  2  0
 15 16  1  0
 15 42  1  0
 16 17  2  0
 16 43  1  0
 17 18  1  0
 18 19  2  0
 18 44  1  0
 19 45  1  0
 20 25  1  0
 20 21  2  0
 21 22  1  0
 21 46  1  0
 22 23  2  0
 22 47  1  0
 23 24  1  0
 23 48  1  0
 24 25  2  0
 24 49  1  0
 25 26  1  0
 26 31  1  0
 26 27  2  0
 27 28  1  0
 27 50  1  0
 28 29  2  0
 28 51  1  0
 29 30  1  0
 30 31  2  0
 30 52  1  0
 31 53  1  0
 32 33  1  0
 34 35  1  0
 34 54  1  0
 35 55  1  0
M  CHG  1  32   1
M  END
>  <DOCK_score>  (1) 
-66.604286

>  <SMILES>  (1) 
Nc1ccc(-c2c[nH]c(N[C@H](c3ccncc3)c3ccccc3-c3ccncc3)[nH+]2)cc1

$$$$
