O=C1NCC(NC(N[C@@H]2Cc3ccc(Br)cc3C2)=[NH+]C2CC2)CN1
     RDKit          3D

 47 50  0  0  1  0  0  0  0  0999 V2000
  124.2292  133.5863  161.2110 O   0  0  0  0  0  0  0  0  0  0  0  0
  125.4095  133.8779  161.2253 C   0  0  0  0  0  0  0  0  0  0  0  0
  126.2782  133.0790  160.5876 N   0  0  0  0  0  0  0  0  0  0  0  0
  127.7130  133.3685  160.5778 C   0  0  0  0  0  0  0  0  0  0  0  0
  127.9211  134.8828  160.6880 C   0  0  0  0  0  0  0  0  0  0  0  0
  129.3525  135.1762  160.7942 N   0  0  0  0  0  0  0  0  0  0  0  0
  130.2083  134.7980  159.7869 C   0  0  0  0  0  0  0  0  0  0  0  0
  131.5516  135.0734  159.8867 N   0  0  0  0  0  0  0  0  0  0  0  0
  132.1902  135.1387  161.2036 C   0  0  2  0  0  0  0  0  0  0  0  0
  131.4648  134.9464  161.9942 H   0  0  0  0  0  0  0  0  0  0  0  0
  132.8795  136.5038  161.4120 C   0  0  0  0  0  0  0  0  0  0  0  0
  134.1277  136.1952  162.2166 C   0  0  0  0  0  0  0  0  0  0  0  0
  134.9490  137.0330  162.9527 C   0  0  0  0  0  0  0  0  0  0  0  0
  136.0464  136.5226  163.6175 C   0  0  0  0  0  0  0  0  0  0  0  0
  136.3270  135.1697  163.5490 C   0  0  0  0  0  0  0  0  0  0  0  0
  137.8292  134.4672  164.4576 Br  0  0  0  0  0  0  0  0  0  0  0  0
  135.5085  134.3324  162.8149 C   0  0  0  0  0  0  0  0  0  0  0  0
  134.4078  134.8432  162.1478 C   0  0  0  0  0  0  0  0  0  0  0  0
  133.3714  134.1490  161.2903 C   0  0  0  0  0  0  0  0  0  0  0  0
  129.7463  134.1785  158.7375 N   0  0  0  0  0  0  0  0  0  0  0  0
  128.8410  134.3484  158.4333 H   0  0  0  0  0  0  0  0  0  0  0  0
  130.5942  133.2254  158.0171 C   0  0  0  0  0  0  0  0  0  0  0  0
  130.0180  131.8351  157.7418 C   0  0  0  0  0  0  0  0  0  0  0  0
  131.1138  132.0143  158.7945 C   0  0  0  0  0  0  0  0  0  0  0  0
  127.1985  135.3844  161.9427 C   0  0  0  0  0  0  0  0  0  0  0  0
  125.7916  134.9854  161.8784 N   0  0  0  0  0  0  0  0  0  0  0  0
  125.9487  132.2936  160.1233 H   0  0  0  0  0  0  0  0  0  0  0  0
  128.1510  133.0074  159.6472 H   0  0  0  0  0  0  0  0  0  0  0  0
  128.1915  132.8726  161.4222 H   0  0  0  0  0  0  0  0  0  0  0  0
  127.5114  135.3738  159.8054 H   0  0  0  0  0  0  0  0  0  0  0  0
  129.6965  135.6374  161.5753 H   0  0  0  0  0  0  0  0  0  0  0  0
  132.0773  135.2204  159.0850 H   0  0  0  0  0  0  0  0  0  0  0  0
  133.1489  136.9421  160.4509 H   0  0  0  0  0  0  0  0  0  0  0  0
  132.2255  137.1774  161.9657 H   0  0  0  0  0  0  0  0  0  0  0  0
  134.7302  138.0893  163.0070 H   0  0  0  0  0  0  0  0  0  0  0  0
  136.6845  137.1788  164.1909 H   0  0  0  0  0  0  0  0  0  0  0  0
  135.7277  133.2763  162.7619 H   0  0  0  0  0  0  0  0  0  0  0  0
  133.0522  133.2194  161.7612 H   0  0  0  0  0  0  0  0  0  0  0  0
  133.7734  133.9519  160.2964 H   0  0  0  0  0  0  0  0  0  0  0  0
  131.2501  133.6574  157.2612 H   0  0  0  0  0  0  0  0  0  0  0  0
  129.0081  131.6294  158.0966 H   0  0  0  0  0  0  0  0  0  0  0  0
  130.2946  131.3522  156.8047 H   0  0  0  0  0  0  0  0  0  0  0  0
  132.1113  131.6494  158.5498 H   0  0  0  0  0  0  0  0  0  0  0  0
  130.8247  131.9268  159.8418 H   0  0  0  0  0  0  0  0  0  0  0  0
  127.6608  134.9483  162.8283 H   0  0  0  0  0  0  0  0  0  0  0  0
  127.2670  136.4711  161.9927 H   0  0  0  0  0  0  0  0  0  0  0  0
  125.1217  135.5334  162.3166 H   0  0  0  0  0  0  0  0  0  0  0  0
  1  2  2  0
  2 26  1  0
  2  3  1  0
  3  4  1  0
  3 27  1  0
  4  5  1  0
  4 28  1  0
  4 29  1  0
  5  6  1  0
  5 25  1  0
  5 30  1  0
  6 31  1  0
  7  6  1  0
  7  8  1  0
  7 20  2  0
  8  9  1  0
  8 32  1  0
  9 10  1  1
  9 19  1  0
  9 11  1  0
 11 12  1  0
 11 33  1  0
 11 34  1  0
 12 18  2  0
 12 13  1  0
 13 14  2  0
 13 35  1  0
 14 15  1  0
 14 36  1  0
 15 16  1  0
 15 17  2  0
 17 18  1  0
 17 37  1  0
 18 19  1  0
 19 38  1  0
 19 39  1  0
 20 21  1  0
 20 22  1  0
 22 24  1  0
 22 23  1  0
 22 40  1  0
 23 24  1  0
 23 41  1  0
 23 42  1  0
 24 43  1  0
 24 44  1  0
 25 26  1  0
 25 45  1  0
 25 46  1  0
 26 47  1  0
M  CHG  1  20   1
M  END
>  <DOCK_score>  (1) 
-44.66449

>  <SMILES>  (1) 
O=C1NCC(NC(N[C@@H]2Cc3ccc(Br)cc3C2)=[NH+]C2CC2)CN1

$$$$
