O[C@@H](c1ccc(-c2ccccc2)cc1)C(c1ccccn1)N1CCC[NH+](Cc2ccccc2)CC1
     RDKit          3D

 69 73  0  0  1  0  0  0  0  0999 V2000
  126.2546  135.5576  161.8607 O   0  0  0  0  0  0  0  0  0  0  0  0
  127.6745  135.7180  161.8471 C   0  0  1  0  0  0  0  0  0  0  0  0
  128.0772  135.4738  162.8301 H   0  0  0  0  0  0  0  0  0  0  0  0
  128.2742  134.7973  160.8157 C   0  0  0  0  0  0  0  0  0  0  0  0
  127.9097  134.9204  159.4871 C   0  0  0  0  0  0  0  0  0  0  0  0
  128.4601  134.0837  158.5375 C   0  0  0  0  0  0  0  0  0  0  0  0
  129.3758  133.1059  158.9209 C   0  0  0  0  0  0  0  0  0  0  0  0
  129.9666  132.1996  157.9053 C   0  0  0  0  0  0  0  0  0  0  0  0
  130.3503  130.9078  158.2596 C   0  0  0  0  0  0  0  0  0  0  0  0
  130.8948  130.0675  157.3097 C   0  0  0  0  0  0  0  0  0  0  0  0
  131.0692  130.5090  156.0105 C   0  0  0  0  0  0  0  0  0  0  0  0
  130.6949  131.7921  155.6545 C   0  0  0  0  0  0  0  0  0  0  0  0
  130.1450  132.6394  156.5952 C   0  0  0  0  0  0  0  0  0  0  0  0
  129.7350  132.9826  160.2616 C   0  0  0  0  0  0  0  0  0  0  0  0
  129.1827  133.8285  161.2019 C   0  0  0  0  0  0  0  0  0  0  0  0
  128.0207  137.1673  161.4998 C   0  0  1  0  0  0  0  0  0  0  0  0
  127.4210  138.0880  162.5312 C   0  0  0  0  0  0  0  0  0  0  0  0
  126.6917  137.5576  163.5787 C   0  0  0  0  0  0  0  0  0  0  0  0
  126.1486  138.4129  164.5249 C   0  0  0  0  0  0  0  0  0  0  0  0
  126.3512  139.7767  164.3754 C   0  0  0  0  0  0  0  0  0  0  0  0
  127.0873  140.2341  163.2992 C   0  0  0  0  0  0  0  0  0  0  0  0
  127.5935  139.3906  162.4207 N   0  0  0  0  0  0  0  0  0  0  0  0
  129.4803  137.3322  161.4858 N   0  0  0  0  0  0  0  0  0  0  0  0
  130.0305  137.3067  162.8605 C   0  0  0  0  0  0  0  0  0  0  0  0
  131.4930  137.7826  162.9122 C   0  0  0  0  0  0  0  0  0  0  0  0
  132.3030  137.2430  161.7606 C   0  0  0  0  0  0  0  0  0  0  0  0
  132.2883  138.2334  160.6627 N   0  0  1  0  0  0  0  0  0  0  0  0
  132.3750  139.1576  161.0582 H   0  0  0  0  0  0  0  0  0  0  0  0
  133.4389  137.9846  159.7838 C   0  0  0  0  0  0  0  0  0  0  0  0
  134.6792  138.5791  160.3994 C   0  0  0  0  0  0  0  0  0  0  0  0
  135.0360  139.8835  160.1131 C   0  0  0  0  0  0  0  0  0  0  0  0
  136.1732  140.4292  160.6788 C   0  0  0  0  0  0  0  0  0  0  0  0
  136.9534  139.6704  161.5311 C   0  0  0  0  0  0  0  0  0  0  0  0
  136.5994  138.3644  161.8135 C   0  0  0  0  0  0  0  0  0  0  0  0
  135.4599  137.8201  161.2512 C   0  0  0  0  0  0  0  0  0  0  0  0
  131.1171  138.1760  159.9007 C   0  0  0  0  0  0  0  0  0  0  0  0
  129.8619  138.5048  160.7314 C   0  0  0  0  0  0  0  0  0  0  0  0
  125.8280  135.7585  161.0164 H   0  0  0  0  0  0  0  0  0  0  0  0
  127.1967  135.6758  159.1915 H   0  0  0  0  0  0  0  0  0  0  0  0
  128.1782  134.1835  157.4996 H   0  0  0  0  0  0  0  0  0  0  0  0
  130.2187  130.5636  159.2748 H   0  0  0  0  0  0  0  0  0  0  0  0
  131.1891  129.0647  157.5824 H   0  0  0  0  0  0  0  0  0  0  0  0
  131.4995  129.8495  155.2713 H   0  0  0  0  0  0  0  0  0  0  0  0
  130.8336  132.1319  154.6388 H   0  0  0  0  0  0  0  0  0  0  0  0
  129.8537  133.6412  156.3164 H   0  0  0  0  0  0  0  0  0  0  0  0
  130.4440  132.2262  160.5643 H   0  0  0  0  0  0  0  0  0  0  0  0
  129.4607  133.7340  162.2413 H   0  0  0  0  0  0  0  0  0  0  0  0
  127.6179  137.4115  160.5168 H   0  0  0  0  0  0  0  0  0  0  0  0
  126.5498  136.4902  163.6611 H   0  0  0  0  0  0  0  0  0  0  0  0
  125.5772  138.0267  165.3561 H   0  0  0  0  0  0  0  0  0  0  0  0
  125.9387  140.4724  165.0911 H   0  0  0  0  0  0  0  0  0  0  0  0
  127.2496  141.2946  163.1757 H   0  0  0  0  0  0  0  0  0  0  0  0
  129.4254  137.9538  163.4954 H   0  0  0  0  0  0  0  0  0  0  0  0
  129.9781  136.2874  163.2433 H   0  0  0  0  0  0  0  0  0  0  0  0
  131.5127  138.8719  162.8800 H   0  0  0  0  0  0  0  0  0  0  0  0
  131.9419  137.4477  163.8474 H   0  0  0  0  0  0  0  0  0  0  0  0
  131.8663  136.3066  161.4136 H   0  0  0  0  0  0  0  0  0  0  0  0
  133.3297  137.0718  162.0844 H   0  0  0  0  0  0  0  0  0  0  0  0
  133.2596  138.4442  158.8118 H   0  0  0  0  0  0  0  0  0  0  0  0
  133.5746  136.9103  159.6583 H   0  0  0  0  0  0  0  0  0  0  0  0
  134.4261  140.4765  159.4477 H   0  0  0  0  0  0  0  0  0  0  0  0
  136.4521  141.4483  160.4550 H   0  0  0  0  0  0  0  0  0  0  0  0
  137.8419  140.0966  161.9731 H   0  0  0  0  0  0  0  0  0  0  0  0
  137.2115  137.7702  162.4759 H   0  0  0  0  0  0  0  0  0  0  0  0
  135.1809  136.8011  161.4752 H   0  0  0  0  0  0  0  0  0  0  0  0
  131.1943  138.8890  159.0800 H   0  0  0  0  0  0  0  0  0  0  0  0
  131.0139  137.1729  159.4867 H   0  0  0  0  0  0  0  0  0  0  0  0
  130.0815  139.3241  161.4161 H   0  0  0  0  0  0  0  0  0  0  0  0
  129.0482  138.7914  160.0654 H   0  0  0  0  0  0  0  0  0  0  0  0
  1  2  1  0
  1 38  1  0
  2  3  1  1
  2  4  1  0
  2 16  1  0
  4 15  1  0
  4  5  2  0
  5  6  1  0
  5 39  1  0
  6  7  2  0
  6 40  1  0
  7  8  1  0
  7 14  1  0
  8 13  1  0
  8  9  2  0
  9 10  1  0
  9 41  1  0
 10 11  2  0
 10 42  1  0
 11 12  1  0
 11 43  1  0
 12 13  2  0
 12 44  1  0
 13 45  1  0
 14 15  2  0
 14 46  1  0
 15 47  1  0
 16 17  1  0
 16 23  1  0
 16 48  1  6
 17 22  1  0
 17 18  2  0
 18 19  1  0
 18 49  1  0
 19 20  2  0
 19 50  1  0
 20 21  1  0
 20 51  1  0
 21 22  2  0
 21 52  1  0
 23 37  1  0
 23 24  1  0
 24 25  1  0
 24 53  1  0
 24 54  1  0
 25 26  1  0
 25 55  1  0
 25 56  1  0
 26 27  1  0
 26 57  1  0
 26 58  1  0
 27 28  1  1
 27 29  1  0
 27 36  1  0
 29 30  1  0
 29 59  1  0
 29 60  1  0
 30 35  1  0
 30 31  2  0
 31 32  1  0
 31 61  1  0
 32 33  2  0
 32 62  1  0
 33 34  1  0
 33 63  1  0
 34 35  2  0
 34 64  1  0
 35 65  1  0
 36 37  1  0
 36 66  1  0
 36 67  1  0
 37 68  1  0
 37 69  1  0
M  CHG  1  27   1
M  END
>  <DOCK_score>  (1) 
-47.16885

>  <SMILES>  (1) 
O[C@@H](c1ccc(-c2ccccc2)cc1)C(c1ccccn1)N1CCC[NH+](Cc2ccccc2)CC1

$$$$
