Nc1ccc(-c2c[nH]c(NC(C[C@@H]3CCC4C5C=CC(CC5)C4C3)c3ccccc3)[nH+]2)cc1
     RDKit          3D

 68 73  0  0  1  0  0  0  0  0999 V2000
  131.7393  129.3371  151.7800 N   0  0  0  0  0  0  0  0  0  0  0  0
  131.3302  130.0771  152.8920 C   0  0  0  0  0  0  0  0  0  0  0  0
  130.5245  131.1969  152.7225 C   0  0  0  0  0  0  0  0  0  0  0  0
  130.1198  131.9286  153.8188 C   0  0  0  0  0  0  0  0  0  0  0  0
  130.5189  131.5443  155.0980 C   0  0  0  0  0  0  0  0  0  0  0  0
  130.0846  132.3299  156.2791 C   0  0  0  0  0  0  0  0  0  0  0  0
  129.3466  131.8667  157.3180 C   0  0  0  0  0  0  0  0  0  0  0  0
  129.1737  132.9198  158.1849 N   0  0  0  0  0  0  0  0  0  0  0  0
  128.6866  132.8997  159.0235 H   0  0  0  0  0  0  0  0  0  0  0  0
  129.8119  133.9954  157.6490 C   0  0  0  0  0  0  0  0  0  0  0  0
  129.8765  135.2581  158.2128 N   0  0  0  0  0  0  0  0  0  0  0  0
  128.7818  135.7393  159.0591 C   0  0  1  0  0  0  0  0  0  0  0  0
  129.1006  137.1525  159.5511 C   0  0  0  0  0  0  0  0  0  0  0  0
  130.3988  137.1300  160.3604 C   0  0  2  0  0  0  0  0  0  0  0  0
  131.2172  136.7726  159.7353 H   0  0  0  0  0  0  0  0  0  0  0  0
  130.2360  136.2114  161.5777 C   0  0  0  0  0  0  0  0  0  0  0  0
  131.5899  136.0765  162.2607 C   0  0  0  0  0  0  0  0  0  0  0  0
  132.1510  137.4132  162.7126 C   0  0  1  0  0  0  0  0  0  0  0  0
  133.6809  137.2462  162.8716 C   0  0  1  0  0  0  0  0  0  0  0  0
  134.2078  136.9137  161.4805 C   0  0  0  0  0  0  0  0  0  0  0  0
  133.9327  137.8425  160.5679 C   0  0  0  0  0  0  0  0  0  0  0  0
  133.1798  139.0476  161.1128 C   0  0  2  0  0  0  0  0  0  0  0  0
  134.0632  139.6481  162.2260 C   0  0  0  0  0  0  0  0  0  0  0  0
  134.2875  138.5831  163.3017 C   0  0  0  0  0  0  0  0  0  0  0  0
  131.8961  138.5674  161.7858 C   0  0  1  0  0  0  0  0  0  0  0  0
  130.7137  138.5331  160.8713 C   0  0  0  0  0  0  0  0  0  0  0  0
  127.5029  135.7614  158.2622 C   0  0  0  0  0  0  0  0  0  0  0  0
  126.2901  135.5657  158.8958 C   0  0  0  0  0  0  0  0  0  0  0  0
  125.1175  135.5807  158.1637 C   0  0  0  0  0  0  0  0  0  0  0  0
  125.1571  135.8011  156.7997 C   0  0  0  0  0  0  0  0  0  0  0  0
  126.3698  135.9976  156.1662 C   0  0  0  0  0  0  0  0  0  0  0  0
  127.5429  135.9778  156.8974 C   0  0  0  0  0  0  0  0  0  0  0  0
  130.3508  133.6403  156.5080 N   0  0  0  0  0  0  0  0  0  0  0  0
  130.8603  134.2214  155.9218 H   0  0  0  0  0  0  0  0  0  0  0  0
  131.3314  130.4240  155.2651 C   0  0  0  0  0  0  0  0  0  0  0  0
  131.7290  129.6918  154.1663 C   0  0  0  0  0  0  0  0  0  0  0  0
  131.4614  129.6057  150.8898 H   0  0  0  0  0  0  0  0  0  0  0  0
  132.3013  128.5557  151.8971 H   0  0  0  0  0  0  0  0  0  0  0  0
  130.2153  131.4942  151.7312 H   0  0  0  0  0  0  0  0  0  0  0  0
  129.4944  132.7991  153.6866 H   0  0  0  0  0  0  0  0  0  0  0  0
  128.9675  130.8630  157.4411 H   0  0  0  0  0  0  0  0  0  0  0  0
  130.6466  135.8243  158.0475 H   0  0  0  0  0  0  0  0  0  0  0  0
  128.6649  135.0744  159.9150 H   0  0  0  0  0  0  0  0  0  0  0  0
  129.2174  137.8174  158.6953 H   0  0  0  0  0  0  0  0  0  0  0  0
  128.2861  137.5104  160.1808 H   0  0  0  0  0  0  0  0  0  0  0  0
  129.5162  136.6456  162.2717 H   0  0  0  0  0  0  0  0  0  0  0  0
  129.8882  135.2305  161.2537 H   0  0  0  0  0  0  0  0  0  0  0  0
  131.4829  135.4274  163.1299 H   0  0  0  0  0  0  0  0  0  0  0  0
  132.2920  135.6188  161.5639 H   0  0  0  0  0  0  0  0  0  0  0  0
  131.7244  137.6611  163.6846 H   0  0  0  0  0  0  0  0  0  0  0  0
  133.9161  136.4515  163.5796 H   0  0  0  0  0  0  0  0  0  0  0  0
  134.7537  136.0093  161.2565 H   0  0  0  0  0  0  0  0  0  0  0  0
  134.2188  137.7489  159.5307 H   0  0  0  0  0  0  0  0  0  0  0  0
  132.9813  139.7773  160.3278 H   0  0  0  0  0  0  0  0  0  0  0  0
  135.0224  139.9527  161.8074 H   0  0  0  0  0  0  0  0  0  0  0  0
  133.5638  140.5129  162.6628 H   0  0  0  0  0  0  0  0  0  0  0  0
  133.8198  138.9074  164.2313 H   0  0  0  0  0  0  0  0  0  0  0  0
  135.3579  138.4563  163.4640 H   0  0  0  0  0  0  0  0  0  0  0  0
  131.6570  139.3865  162.4640 H   0  0  0  0  0  0  0  0  0  0  0  0
  130.9097  139.1818  160.0176 H   0  0  0  0  0  0  0  0  0  0  0  0
  129.8448  138.9148  161.4073 H   0  0  0  0  0  0  0  0  0  0  0  0
  126.2589  135.3966  159.9620 H   0  0  0  0  0  0  0  0  0  0  0  0
  124.1702  135.4235  158.6581 H   0  0  0  0  0  0  0  0  0  0  0  0
  124.2407  135.8163  156.2284 H   0  0  0  0  0  0  0  0  0  0  0  0
  126.4011  136.1664  155.0999 H   0  0  0  0  0  0  0  0  0  0  0  0
  128.4904  136.1310  156.4024 H   0  0  0  0  0  0  0  0  0  0  0  0
  131.6456  130.1271  156.2548 H   0  0  0  0  0  0  0  0  0  0  0  0
  132.3551  128.8214  154.2956 H   0  0  0  0  0  0  0  0  0  0  0  0
  1  2  1  0
  1 37  1  0
  1 38  1  0
  2 36  2  0
  2  3  1  0
  3  4  2  0
  3 39  1  0
  4  5  1  0
  4 40  1  0
  5  6  1  0
  5 35  2  0
  6 33  1  0
  6  7  2  0
  7  8  1  0
  7 41  1  0
  8  9  1  0
  8 10  1  0
 10 11  1  0
 10 33  2  0
 11 12  1  0
 11 42  1  0
 12 13  1  0
 12 27  1  0
 12 43  1  1
 13 14  1  0
 13 44  1  0
 13 45  1  0
 14 15  1  6
 14 26  1  0
 14 16  1  0
 16 17  1  0
 16 46  1  0
 16 47  1  0
 17 18  1  0
 17 48  1  0
 17 49  1  0
 18 25  1  0
 18 19  1  0
 18 50  1  1
 19 24  1  0
 19 20  1  0
 19 51  1  1
 20 21  2  0
 20 52  1  0
 21 22  1  0
 21 53  1  0
 22 23  1  0
 22 25  1  0
 22 54  1  6
 23 24  1  0
 23 55  1  0
 23 56  1  0
 24 57  1  0
 24 58  1  0
 25 26  1  0
 25 59  1  1
 26 60  1  0
 26 61  1  0
 27 32  1  0
 27 28  2  0
 28 29  1  0
 28 62  1  0
 29 30  2  0
 29 63  1  0
 30 31  1  0
 30 64  1  0
 31 32  2  0
 31 65  1  0
 32 66  1  0
 33 34  1  0
 35 36  1  0
 35 67  1  0
 36 68  1  0
M  CHG  1  33   1
M  END
>  <DOCK_score>  (1) 
-63.010742

>  <SMILES>  (1) 
Nc1ccc(-c2c[nH]c(NC(C[C@@H]3CCC4C5C=CC(CC5)C4C3)c3ccccc3)[nH+]2)cc1

$$$$
