CCc1ccc(-c2c[nH]c(N[C@H](c3ccccc3)c3cccc4ccccc34)[nH+]2)cc1
     RDKit          3D

 57 61  0  0  1  0  0  0  0  0999 V2000
  130.6228  128.2884  151.9130 C   0  0  0  0  0  0  0  0  0  0  0  0
  131.6685  129.3582  152.2322 C   0  0  0  0  0  0  0  0  0  0  0  0
  131.2415  130.1296  153.4543 C   0  0  0  0  0  0  0  0  0  0  0  0
  131.6310  129.7018  154.7108 C   0  0  0  0  0  0  0  0  0  0  0  0
  131.2465  130.4074  155.8328 C   0  0  0  0  0  0  0  0  0  0  0  0
  130.4552  131.5470  155.6989 C   0  0  0  0  0  0  0  0  0  0  0  0
  130.0343  132.3065  156.9015 C   0  0  0  0  0  0  0  0  0  0  0  0
  129.3006  131.8230  157.9344 C   0  0  0  0  0  0  0  0  0  0  0  0
  129.1420  132.8545  158.8277 N   0  0  0  0  0  0  0  0  0  0  0  0
  128.6613  132.8166  159.6694 H   0  0  0  0  0  0  0  0  0  0  0  0
  129.7838  133.9391  158.3140 C   0  0  0  0  0  0  0  0  0  0  0  0
  129.8613  135.1867  158.9089 N   0  0  0  0  0  0  0  0  0  0  0  0
  128.7762  135.6538  159.7753 C   0  0  2  0  0  0  0  0  0  0  0  0
  128.6610  134.9685  160.6149 H   0  0  0  0  0  0  0  0  0  0  0  0
  127.4919  135.7047  158.9887 C   0  0  0  0  0  0  0  0  0  0  0  0
  126.2827  135.4953  159.6250 C   0  0  0  0  0  0  0  0  0  0  0  0
  125.1042  135.5460  158.9042 C   0  0  0  0  0  0  0  0  0  0  0  0
  125.1356  135.7975  157.5453 C   0  0  0  0  0  0  0  0  0  0  0  0
  126.3450  136.0022  156.9080 C   0  0  0  0  0  0  0  0  0  0  0  0
  127.5232  135.9553  157.6296 C   0  0  0  0  0  0  0  0  0  0  0  0
  129.1036  137.0311  160.2921 C   0  0  0  0  0  0  0  0  0  0  0  0
  129.8621  137.8796  159.5456 C   0  0  0  0  0  0  0  0  0  0  0  0
  130.1694  139.1591  160.0039 C   0  0  0  0  0  0  0  0  0  0  0  0
  129.7307  139.5929  161.2173 C   0  0  0  0  0  0  0  0  0  0  0  0
  128.9505  138.7430  162.0191 C   0  0  0  0  0  0  0  0  0  0  0  0
  128.4795  139.1556  163.2773 C   0  0  0  0  0  0  0  0  0  0  0  0
  127.7267  138.3048  164.0266 C   0  0  0  0  0  0  0  0  0  0  0  0
  127.4143  137.0272  163.5656 C   0  0  0  0  0  0  0  0  0  0  0  0
  127.8525  136.5934  162.3523 C   0  0  0  0  0  0  0  0  0  0  0  0
  128.6323  137.4438  161.5499 C   0  0  0  0  0  0  0  0  0  0  0  0
  130.3201  133.6063  157.1653 N   0  0  0  0  0  0  0  0  0  0  0  0
  130.8371  134.1957  156.5942 H   0  0  0  0  0  0  0  0  0  0  0  0
  130.0614  131.9704  154.4308 C   0  0  0  0  0  0  0  0  0  0  0  0
  130.4561  131.2600  153.3154 C   0  0  0  0  0  0  0  0  0  0  0  0
  130.5296  127.6072  152.7589 H   0  0  0  0  0  0  0  0  0  0  0  0
  129.6615  128.7656  151.7233 H   0  0  0  0  0  0  0  0  0  0  0  0
  130.9321  127.7301  151.0294 H   0  0  0  0  0  0  0  0  0  0  0  0
  132.6305  128.8806  152.4223 H   0  0  0  0  0  0  0  0  0  0  0  0
  131.7623  130.0392  151.3867 H   0  0  0  0  0  0  0  0  0  0  0  0
  132.2405  128.8162  154.8136 H   0  0  0  0  0  0  0  0  0  0  0  0
  131.5548  130.0749  156.8130 H   0  0  0  0  0  0  0  0  0  0  0  0
  128.9147  130.8194  158.0352 H   0  0  0  0  0  0  0  0  0  0  0  0
  130.6341  135.7515  158.7521 H   0  0  0  0  0  0  0  0  0  0  0  0
  126.2586  135.2952  160.6860 H   0  0  0  0  0  0  0  0  0  0  0  0
  124.1593  135.3857  159.4021 H   0  0  0  0  0  0  0  0  0  0  0  0
  124.2151  135.8338  156.9815 H   0  0  0  0  0  0  0  0  0  0  0  0
  126.3695  136.1983  155.8462 H   0  0  0  0  0  0  0  0  0  0  0  0
  128.4681  136.1149  157.1316 H   0  0  0  0  0  0  0  0  0  0  0  0
  130.2268  137.5583  158.5811 H   0  0  0  0  0  0  0  0  0  0  0  0
  130.7689  139.8145  159.3895 H   0  0  0  0  0  0  0  0  0  0  0  0
  129.9807  140.5856  161.5617 H   0  0  0  0  0  0  0  0  0  0  0  0
  128.7134  140.1429  163.6474 H   0  0  0  0  0  0  0  0  0  0  0  0
  127.3664  138.6244  164.9933 H   0  0  0  0  0  0  0  0  0  0  0  0
  126.8151  136.3716  164.1801 H   0  0  0  0  0  0  0  0  0  0  0  0
  127.6019  135.6009  162.0078 H   0  0  0  0  0  0  0  0  0  0  0  0
  129.4478  132.8524  154.3211 H   0  0  0  0  0  0  0  0  0  0  0  0
  130.1520  131.5873  152.3323 H   0  0  0  0  0  0  0  0  0  0  0  0
  1  2  1  0
  1 35  1  0
  1 36  1  0
  1 37  1  0
  2  3  1  0
  2 38  1  0
  2 39  1  0
  3 34  2  0
  3  4  1  0
  4  5  2  0
  4 40  1  0
  5  6  1  0
  5 41  1  0
  6  7  1  0
  6 33  2  0
  7 31  1  0
  7  8  2  0
  8  9  1  0
  8 42  1  0
  9 10  1  0
  9 11  1  0
 11 12  1  0
 11 31  2  0
 12 13  1  0
 12 43  1  0
 13 14  1  1
 13 15  1  0
 13 21  1  0
 15 20  1  0
 15 16  2  0
 16 17  1  0
 16 44  1  0
 17 18  2  0
 17 45  1  0
 18 19  1  0
 18 46  1  0
 19 20  2  0
 19 47  1  0
 20 48  1  0
 21 30  1  0
 21 22  2  0
 22 23  1  0
 22 49  1  0
 23 24  2  0
 23 50  1  0
 24 25  1  0
 24 51  1  0
 25 30  2  0
 25 26  1  0
 26 27  2  0
 26 52  1  0
 27 28  1  0
 27 53  1  0
 28 29  2  0
 28 54  1  0
 29 30  1  0
 29 55  1  0
 31 32  1  0
 33 34  1  0
 33 56  1  0
 34 57  1  0
M  CHG  1  31   1
M  END
>  <DOCK_score>  (1) 
-63.652134

>  <SMILES>  (1) 
CCc1ccc(-c2c[nH]c(N[C@H](c3ccccc3)c3cccc4ccccc34)[nH+]2)cc1

$$$$
