Cn1cc(Nc2ncnc3c2ncn3C[C@H]2CCC[NH2+]2)c(N)n1
     RDKit          3D

 43 46  0  0  1  0  0  0  0  0999 V2000
  125.4515  135.5119  167.1294 C   0  0  0  0  0  0  0  0  0  0  0  0
  126.1478  136.4554  166.2510 N   0  0  0  0  0  0  0  0  0  0  0  0
  126.7216  136.1592  165.0544 C   0  0  0  0  0  0  0  0  0  0  0  0
  127.2583  137.3027  164.5613 C   0  0  0  0  0  0  0  0  0  0  0  0
  127.9469  137.4371  163.3396 N   0  0  0  0  0  0  0  0  0  0  0  0
  127.6300  136.6149  162.2731 C   0  0  0  0  0  0  0  0  0  0  0  0
  126.6783  135.6932  162.3840 N   0  0  0  0  0  0  0  0  0  0  0  0
  126.3660  134.9074  161.3698 C   0  0  0  0  0  0  0  0  0  0  0  0
  126.9763  134.9801  160.2056 N   0  0  0  0  0  0  0  0  0  0  0  0
  127.9444  135.8675  160.0023 C   0  0  0  0  0  0  0  0  0  0  0  0
  128.3105  136.7307  161.0487 C   0  0  0  0  0  0  0  0  0  0  0  0
  129.3057  137.5229  160.5831 N   0  0  0  0  0  0  0  0  0  0  0  0
  129.5675  137.2088  159.3476 C   0  0  0  0  0  0  0  0  0  0  0  0
  128.7540  136.1925  158.9432 N   0  0  0  0  0  0  0  0  0  0  0  0
  128.7450  135.5634  157.6202 C   0  0  0  0  0  0  0  0  0  0  0  0
  129.7178  134.3825  157.6104 C   0  0  1  0  0  0  0  0  0  0  0  0
  130.6235  134.6334  158.1625 H   0  0  0  0  0  0  0  0  0  0  0  0
  129.0454  133.1249  158.2152 C   0  0  0  0  0  0  0  0  0  0  0  0
  129.8708  131.9842  157.5636 C   0  0  0  0  0  0  0  0  0  0  0  0
  130.1692  132.5334  156.1527 C   0  0  0  0  0  0  0  0  0  0  0  0
  130.0507  134.0015  156.2212 N   0  0  0  0  0  0  0  0  0  0  0  0
  129.3196  134.3126  155.5993 H   0  0  0  0  0  0  0  0  0  0  0  0
  130.9272  134.4238  155.9541 H   0  0  0  0  0  0  0  0  0  0  0  0
  127.0039  138.3322  165.4876 C   0  0  0  0  0  0  0  0  0  0  0  0
  127.3889  139.6725  165.3523 N   0  0  0  0  0  0  0  0  0  0  0  0
  126.3395  137.8209  166.4965 N   0  0  0  0  0  0  0  0  0  0  0  0
  124.3931  135.4878  166.8705 H   0  0  0  0  0  0  0  0  0  0  0  0
  125.8787  134.5169  167.0052 H   0  0  0  0  0  0  0  0  0  0  0  0
  125.5649  135.8292  168.1660 H   0  0  0  0  0  0  0  0  0  0  0  0
  126.7458  135.1883  164.5822 H   0  0  0  0  0  0  0  0  0  0  0  0
  128.6433  138.1059  163.2462 H   0  0  0  0  0  0  0  0  0  0  0  0
  125.5837  134.1746  161.5018 H   0  0  0  0  0  0  0  0  0  0  0  0
  130.3187  137.6831  158.7334 H   0  0  0  0  0  0  0  0  0  0  0  0
  127.7397  135.2079  157.3937 H   0  0  0  0  0  0  0  0  0  0  0  0
  129.0504  136.2921  156.8693 H   0  0  0  0  0  0  0  0  0  0  0  0
  129.1485  133.1107  159.3003 H   0  0  0  0  0  0  0  0  0  0  0  0
  127.9970  133.0639  157.9234 H   0  0  0  0  0  0  0  0  0  0  0  0
  129.2827  131.0684  157.5042 H   0  0  0  0  0  0  0  0  0  0  0  0
  130.7959  131.8117  158.1135 H   0  0  0  0  0  0  0  0  0  0  0  0
  129.4468  132.1360  155.4396 H   0  0  0  0  0  0  0  0  0  0  0  0
  131.1791  132.2566  155.8503 H   0  0  0  0  0  0  0  0  0  0  0  0
  127.1641  140.3139  166.0444 H   0  0  0  0  0  0  0  0  0  0  0  0
  127.8800  139.9592  164.5664 H   0  0  0  0  0  0  0  0  0  0  0  0
  1  2  1  0
  1 27  1  0
  1 28  1  0
  1 29  1  0
  2 26  1  0
  2  3  1  0
  3  4  2  0
  3 30  1  0
  4  5  1  0
  4 24  1  0
  5  6  1  0
  5 31  1  0
  6 11  1  0
  6  7  2  0
  7  8  1  0
  8  9  2  0
  8 32  1  0
  9 10  1  0
 10 14  1  0
 10 11  2  0
 11 12  1  0
 12 13  2  0
 13 14  1  0
 13 33  1  0
 14 15  1  0
 15 16  1  0
 15 34  1  0
 15 35  1  0
 16 17  1  1
 16 21  1  0
 16 18  1  0
 18 19  1  0
 18 36  1  0
 18 37  1  0
 19 20  1  0
 19 38  1  0
 19 39  1  0
 20 21  1  0
 20 40  1  0
 20 41  1  0
 21 22  1  0
 21 23  1  0
 24 25  1  0
 24 26  2  0
 25 42  1  0
 25 43  1  0
M  CHG  1  21   1
M  END
>  <DOCK_score>  (1) 
-43.114838

>  <SMILES>  (1) 
Cn1cc(Nc2ncnc3c2ncn3C[C@H]2CCC[NH2+]2)c(N)n1

$$$$
