c1ccc(C(Nc2[nH]cc(-c3ccc4ncccc4n3)[nH+]2)c2ccccc2)cc1
     RDKit          3D

 49 53  0  0  1  0  0  0  0  0999 V2000
  129.6114  139.8186  161.0655 C   0  0  0  0  0  0  0  0  0  0  0  0
  128.8530  138.9880  161.8691 C   0  0  0  0  0  0  0  0  0  0  0  0
  128.5727  137.6977  161.4599 C   0  0  0  0  0  0  0  0  0  0  0  0
  129.0508  137.2379  160.2471 C   0  0  0  0  0  0  0  0  0  0  0  0
  128.7457  135.8312  159.8012 C   0  0  0  0  0  0  0  0  0  0  0  0
  129.8420  135.3350  158.9658 N   0  0  0  0  0  0  0  0  0  0  0  0
  129.7853  134.0573  158.4366 C   0  0  0  0  0  0  0  0  0  0  0  0
  129.1608  132.9901  159.0067 N   0  0  0  0  0  0  0  0  0  0  0  0
  128.6799  132.9890  159.8491 H   0  0  0  0  0  0  0  0  0  0  0  0
  129.3364  131.9174  158.1714 C   0  0  0  0  0  0  0  0  0  0  0  0
  130.0638  132.3570  157.1123 C   0  0  0  0  0  0  0  0  0  0  0  0
  130.4963  131.5432  155.9537 C   0  0  0  0  0  0  0  0  0  0  0  0
  131.3171  130.4223  156.1677 C   0  0  0  0  0  0  0  0  0  0  0  0
  131.7225  129.6662  155.1107 C   0  0  0  0  0  0  0  0  0  0  0  0
  131.2980  130.0382  153.8169 C   0  0  0  0  0  0  0  0  0  0  0  0
  131.6641  129.3337  152.7441 N   0  0  0  0  0  0  0  0  0  0  0  0
  131.2740  129.6737  151.5393 C   0  0  0  0  0  0  0  0  0  0  0  0
  130.4599  130.7831  151.3208 C   0  0  0  0  0  0  0  0  0  0  0  0
  130.0493  131.5464  152.3760 C   0  0  0  0  0  0  0  0  0  0  0  0
  130.4709  131.1782  153.6695 C   0  0  0  0  0  0  0  0  0  0  0  0
  130.1028  131.8848  154.7406 N   0  0  0  0  0  0  0  0  0  0  0  0
  130.3289  133.6742  157.3077 N   0  0  0  0  0  0  0  0  0  0  0  0
  130.8371  134.2413  156.7067 H   0  0  0  0  0  0  0  0  0  0  0  0
  127.4651  135.8227  159.0067 C   0  0  0  0  0  0  0  0  0  0  0  0
  126.2555  135.6297  159.6474 C   0  0  0  0  0  0  0  0  0  0  0  0
  125.0804  135.6267  158.9192 C   0  0  0  0  0  0  0  0  0  0  0  0
  125.1160  135.8066  157.5491 C   0  0  0  0  0  0  0  0  0  0  0  0
  126.3260  135.9944  156.9078 C   0  0  0  0  0  0  0  0  0  0  0  0
  127.5006  136.0025  157.6366 C   0  0  0  0  0  0  0  0  0  0  0  0
  129.8137  138.0667  159.4459 C   0  0  0  0  0  0  0  0  0  0  0  0
  130.0896  139.3588  159.8526 C   0  0  0  0  0  0  0  0  0  0  0  0
  129.8308  140.8265  161.3853 H   0  0  0  0  0  0  0  0  0  0  0  0
  128.4798  139.3471  162.8168 H   0  0  0  0  0  0  0  0  0  0  0  0
  127.9804  137.0487  162.0880 H   0  0  0  0  0  0  0  0  0  0  0  0
  128.6354  135.1889  160.6750 H   0  0  0  0  0  0  0  0  0  0  0  0
  130.6076  135.9020  158.7833 H   0  0  0  0  0  0  0  0  0  0  0  0
  128.9665  130.9145  158.3259 H   0  0  0  0  0  0  0  0  0  0  0  0
  131.6260  130.1617  157.1692 H   0  0  0  0  0  0  0  0  0  0  0  0
  132.3540  128.8026  155.2583 H   0  0  0  0  0  0  0  0  0  0  0  0
  131.5913  129.0788  150.6954 H   0  0  0  0  0  0  0  0  0  0  0  0
  130.1540  131.0395  150.3173 H   0  0  0  0  0  0  0  0  0  0  0  0
  129.4179  132.4092  152.2234 H   0  0  0  0  0  0  0  0  0  0  0  0
  126.2281  135.4848  160.7173 H   0  0  0  0  0  0  0  0  0  0  0  0
  124.1350  135.4796  159.4202 H   0  0  0  0  0  0  0  0  0  0  0  0
  124.1983  135.7999  156.9796 H   0  0  0  0  0  0  0  0  0  0  0  0
  126.3539  136.1345  155.8372 H   0  0  0  0  0  0  0  0  0  0  0  0
  128.4462  136.1490  157.1355 H   0  0  0  0  0  0  0  0  0  0  0  0
  130.1911  137.7061  158.5003 H   0  0  0  0  0  0  0  0  0  0  0  0
  130.6825  140.0077  159.2250 H   0  0  0  0  0  0  0  0  0  0  0  0
  1 31  2  0
  1  2  1  0
  1 32  1  0
  2  3  2  0
  2 33  1  0
  3  4  1  0
  3 34  1  0
  4  5  1  0
  4 30  2  0
  5  6  1  0
  5 24  1  0
  5 35  1  0
  6 36  1  0
  7  6  1  0
  7 22  2  0
  7  8  1  0
  8  9  1  0
  8 10  1  0
 10 11  2  0
 10 37  1  0
 11 12  1  0
 11 22  1  0
 12 21  1  0
 12 13  2  0
 13 14  1  0
 13 38  1  0
 14 15  2  0
 14 39  1  0
 15 20  1  0
 15 16  1  0
 16 17  2  0
 17 18  1  0
 17 40  1  0
 18 19  2  0
 18 41  1  0
 19 20  1  0
 19 42  1  0
 20 21  2  0
 22 23  1  0
 24 29  1  0
 24 25  2  0
 25 26  1  0
 25 43  1  0
 26 27  2  0
 26 44  1  0
 27 28  1  0
 27 45  1  0
 28 29  2  0
 28 46  1  0
 29 47  1  0
 30 31  1  0
 30 48  1  0
 31 49  1  0
M  CHG  1  22   1
M  END
>  <DOCK_score>  (1) 
-57.109489

>  <SMILES>  (1) 
c1ccc(C(Nc2[nH]cc(-c3ccc4ncccc4n3)[nH+]2)c2ccccc2)cc1

$$$$
