CCc1ccc([C@@H](CNc2ccccc2)Nc2[nH]cc(-c3ccc(-c4ccccc4)cc3)[nH+]2)cc1
     RDKit          3D

 66 70  0  0  1  0  0  0  0  0999 V2000
  136.6816  139.8367  162.1404 C   0  0  0  0  0  0  0  0  0  0  0  0
  135.4450  140.0457  163.0166 C   0  0  0  0  0  0  0  0  0  0  0  0
  134.3678  139.0756  162.6049 C   0  0  0  0  0  0  0  0  0  0  0  0
  134.2945  137.8304  163.2010 C   0  0  0  0  0  0  0  0  0  0  0  0
  133.3038  136.9422  162.8265 C   0  0  0  0  0  0  0  0  0  0  0  0
  132.3918  137.2954  161.8495 C   0  0  0  0  0  0  0  0  0  0  0  0
  131.3141  136.3257  161.4386 C   0  0  1  0  0  0  0  0  0  0  0  0
  131.4127  135.4068  162.0164 H   0  0  0  0  0  0  0  0  0  0  0  0
  129.9411  136.9479  161.7005 C   0  0  0  0  0  0  0  0  0  0  0  0
  128.9305  136.2580  160.8951 N   0  0  0  0  0  0  0  0  0  0  0  0
  128.2653  135.1445  161.4134 C   0  0  0  0  0  0  0  0  0  0  0  0
  127.0507  134.7444  160.8708 C   0  0  0  0  0  0  0  0  0  0  0  0
  126.3980  133.6401  161.3825 C   0  0  0  0  0  0  0  0  0  0  0  0
  126.9470  132.9392  162.4406 C   0  0  0  0  0  0  0  0  0  0  0  0
  128.1533  133.3379  162.9866 C   0  0  0  0  0  0  0  0  0  0  0  0
  128.8140  134.4381  162.4763 C   0  0  0  0  0  0  0  0  0  0  0  0
  131.4484  136.0220  160.0117 N   0  0  0  0  0  0  0  0  0  0  0  0
  131.0532  134.7872  159.5267 C   0  0  0  0  0  0  0  0  0  0  0  0
  130.5218  133.7772  160.2685 N   0  0  0  0  0  0  0  0  0  0  0  0
  130.3540  133.7930  161.2236 H   0  0  0  0  0  0  0  0  0  0  0  0
  130.2675  132.7316  159.4151 C   0  0  0  0  0  0  0  0  0  0  0  0
  130.6506  133.1321  158.1767 C   0  0  0  0  0  0  0  0  0  0  0  0
  130.5631  132.3287  156.9339 C   0  0  0  0  0  0  0  0  0  0  0  0
  130.3720  132.9622  155.7057 C   0  0  0  0  0  0  0  0  0  0  0  0
  130.2952  132.2160  154.5508 C   0  0  0  0  0  0  0  0  0  0  0  0
  130.3983  130.8265  154.6100 C   0  0  0  0  0  0  0  0  0  0  0  0
  130.3093  130.0226  153.3670 C   0  0  0  0  0  0  0  0  0  0  0  0
  130.9946  128.8130  153.2654 C   0  0  0  0  0  0  0  0  0  0  0  0
  130.9047  128.0672  152.1077 C   0  0  0  0  0  0  0  0  0  0  0  0
  130.1443  128.5227  151.0456 C   0  0  0  0  0  0  0  0  0  0  0  0
  129.4660  129.7246  151.1389 C   0  0  0  0  0  0  0  0  0  0  0  0
  129.5447  130.4766  152.2935 C   0  0  0  0  0  0  0  0  0  0  0  0
  130.5846  130.1926  155.8383 C   0  0  0  0  0  0  0  0  0  0  0  0
  130.6662  130.9388  156.9930 C   0  0  0  0  0  0  0  0  0  0  0  0
  131.1237  134.4000  158.2766 N   0  0  0  0  0  0  0  0  0  0  0  0
  131.4622  134.9337  157.5406 H   0  0  0  0  0  0  0  0  0  0  0  0
  132.4684  138.5386  161.2498 C   0  0  0  0  0  0  0  0  0  0  0  0
  133.4565  139.4286  161.6273 C   0  0  0  0  0  0  0  0  0  0  0  0
  136.4198  140.0062  161.0959 H   0  0  0  0  0  0  0  0  0  0  0  0
  137.0454  138.8165  162.2627 H   0  0  0  0  0  0  0  0  0  0  0  0
  137.4609  140.5383  162.4382 H   0  0  0  0  0  0  0  0  0  0  0  0
  135.7068  139.8760  164.0610 H   0  0  0  0  0  0  0  0  0  0  0  0
  135.0813  141.0659  162.8944 H   0  0  0  0  0  0  0  0  0  0  0  0
  135.0092  137.5529  163.9616 H   0  0  0  0  0  0  0  0  0  0  0  0
  133.2437  135.9710  163.2953 H   0  0  0  0  0  0  0  0  0  0  0  0
  129.6931  136.8493  162.7574 H   0  0  0  0  0  0  0  0  0  0  0  0
  129.9630  138.0036  161.4296 H   0  0  0  0  0  0  0  0  0  0  0  0
  128.7234  136.5743  160.0019 H   0  0  0  0  0  0  0  0  0  0  0  0
  126.6193  135.2939  160.0473 H   0  0  0  0  0  0  0  0  0  0  0  0
  125.4557  133.3261  160.9585 H   0  0  0  0  0  0  0  0  0  0  0  0
  126.4322  132.0786  162.8417 H   0  0  0  0  0  0  0  0  0  0  0  0
  128.5791  132.7885  163.8131 H   0  0  0  0  0  0  0  0  0  0  0  0
  129.7559  134.7492  162.9034 H   0  0  0  0  0  0  0  0  0  0  0  0
  131.8142  136.6862  159.4069 H   0  0  0  0  0  0  0  0  0  0  0  0
  129.8436  131.7740  159.6792 H   0  0  0  0  0  0  0  0  0  0  0  0
  130.2880  134.0379  155.6604 H   0  0  0  0  0  0  0  0  0  0  0  0
  130.1509  132.7066  153.5995 H   0  0  0  0  0  0  0  0  0  0  0  0
  131.5920  128.4585  154.0923 H   0  0  0  0  0  0  0  0  0  0  0  0
  131.4319  127.1278  152.0294 H   0  0  0  0  0  0  0  0  0  0  0  0
  130.0805  127.9378  150.1399 H   0  0  0  0  0  0  0  0  0  0  0  0
  128.8740  130.0753  150.3066 H   0  0  0  0  0  0  0  0  0  0  0  0
  129.0153  131.4152  152.3650 H   0  0  0  0  0  0  0  0  0  0  0  0
  130.6644  129.1165  155.8840 H   0  0  0  0  0  0  0  0  0  0  0  0
  130.8105  130.4480  157.9441 H   0  0  0  0  0  0  0  0  0  0  0  0
  131.7560  138.8147  160.4865 H   0  0  0  0  0  0  0  0  0  0  0  0
  133.5163  140.3998  161.1588 H   0  0  0  0  0  0  0  0  0  0  0  0
  1  2  1  0
  1 39  1  0
  1 40  1  0
  1 41  1  0
  2  3  1  0
  2 42  1  0
  2 43  1  0
  3 38  2  0
  3  4  1  0
  4  5  2  0
  4 44  1  0
  5  6  1  0
  5 45  1  0
  6  7  1  0
  6 37  2  0
  7  8  1  1
  7  9  1  0
  7 17  1  0
  9 10  1  0
  9 46  1  0
  9 47  1  0
 10 11  1  0
 10 48  1  0
 11 16  1  0
 11 12  2  0
 12 13  1  0
 12 49  1  0
 13 14  2  0
 13 50  1  0
 14 15  1  0
 14 51  1  0
 15 16  2  0
 15 52  1  0
 16 53  1  0
 17 54  1  0
 18 17  1  0
 18 35  2  0
 18 19  1  0
 19 20  1  0
 19 21  1  0
 21 22  2  0
 21 55  1  0
 22 23  1  0
 22 35  1  0
 23 34  1  0
 23 24  2  0
 24 25  1  0
 24 56  1  0
 25 26  2  0
 25 57  1  0
 26 27  1  0
 26 33  1  0
 27 32  1  0
 27 28  2  0
 28 29  1  0
 28 58  1  0
 29 30  2  0
 29 59  1  0
 30 31  1  0
 30 60  1  0
 31 32  2  0
 31 61  1  0
 32 62  1  0
 33 34  2  0
 33 63  1  0
 34 64  1  0
 35 36  1  0
 37 38  1  0
 37 65  1  0
 38 66  1  0
M  CHG  1  35   1
M  END
>  <DOCK_score>  (1) 
-59.4673

>  <SMILES>  (1) 
CCc1ccc([C@@H](CNc2ccccc2)Nc2[nH]cc(-c3ccc(-c4ccccc4)cc3)[nH+]2)cc1

$$$$
