Oc1ccc2c(c1)[C@H](N[C@H]1C[C@H]1Nc1[nH]cc(-c3ccccc3)[nH+]1)c1ccccc1-2
     RDKit          3D

 53 58  0  0  1  0  0  0  0  0999 V2000
  131.7582  131.1310  156.9068 O   0  0  0  0  0  0  0  0  0  0  0  0
  130.5932  131.4859  157.5093 C   0  0  0  0  0  0  0  0  0  0  0  0
  129.8573  130.5396  158.2099 C   0  0  0  0  0  0  0  0  0  0  0  0
  128.6753  130.8953  158.8224 C   0  0  0  0  0  0  0  0  0  0  0  0
  128.2133  132.2109  158.7401 C   0  0  0  0  0  0  0  0  0  0  0  0
  128.9569  133.1547  158.0361 C   0  0  0  0  0  0  0  0  0  0  0  0
  130.1388  132.7953  157.4258 C   0  0  0  0  0  0  0  0  0  0  0  0
  128.2193  134.4686  158.1190 C   0  0  2  0  0  0  0  0  0  0  0  0
  127.9444  134.8084  157.1204 H   0  0  0  0  0  0  0  0  0  0  0  0
  129.0549  135.4767  158.7849 N   0  0  0  0  0  0  0  0  0  0  0  0
  129.0146  135.3134  160.2442 C   0  0  1  0  0  0  0  0  0  0  0  0
  128.0291  135.4056  160.7006 H   0  0  0  0  0  0  0  0  0  0  0  0
  129.9929  134.3177  160.8709 C   0  0  0  0  0  0  0  0  0  0  0  0
  130.2146  135.8223  161.0455 C   0  0  1  0  0  0  0  0  0  0  0  0
  130.0185  136.2490  162.0291 H   0  0  0  0  0  0  0  0  0  0  0  0
  131.3159  136.4352  160.2987 N   0  0  0  0  0  0  0  0  0  0  0  0
  132.4271  136.9133  160.9717 C   0  0  0  0  0  0  0  0  0  0  0  0
  132.6185  136.8677  162.3184 N   0  0  0  0  0  0  0  0  0  0  0  0
  132.0063  136.4978  162.9735 H   0  0  0  0  0  0  0  0  0  0  0  0
  133.8388  137.4424  162.5786 C   0  0  0  0  0  0  0  0  0  0  0  0
  134.3576  137.8222  161.3846 C   0  0  0  0  0  0  0  0  0  0  0  0
  135.6654  138.4894  161.1737 C   0  0  0  0  0  0  0  0  0  0  0  0
  135.8422  139.3578  160.0981 C   0  0  0  0  0  0  0  0  0  0  0  0
  137.0594  139.9811  159.9106 C   0  0  0  0  0  0  0  0  0  0  0  0
  138.1064  139.7354  160.7805 C   0  0  0  0  0  0  0  0  0  0  0  0
  137.9385  138.8696  161.8462 C   0  0  0  0  0  0  0  0  0  0  0  0
  136.7239  138.2460  162.0474 C   0  0  0  0  0  0  0  0  0  0  0  0
  133.4708  137.4792  160.4166 N   0  0  0  0  0  0  0  0  0  0  0  0
  133.5894  137.6309  159.4660 H   0  0  0  0  0  0  0  0  0  0  0  0
  126.9793  134.1999  158.9360 C   0  0  0  0  0  0  0  0  0  0  0  0
  125.9406  135.0128  159.3366 C   0  0  0  0  0  0  0  0  0  0  0  0
  124.9079  134.4931  160.0974 C   0  0  0  0  0  0  0  0  0  0  0  0
  124.9159  133.1579  160.4580 C   0  0  0  0  0  0  0  0  0  0  0  0
  125.9514  132.3370  160.0616 C   0  0  0  0  0  0  0  0  0  0  0  0
  126.9962  132.8542  159.2937 C   0  0  0  0  0  0  0  0  0  0  0  0
  132.1992  131.8570  156.4447 H   0  0  0  0  0  0  0  0  0  0  0  0
  130.2122  129.5216  158.2747 H   0  0  0  0  0  0  0  0  0  0  0  0
  128.1055  130.1563  159.3661 H   0  0  0  0  0  0  0  0  0  0  0  0
  130.7109  133.5317  156.8808 H   0  0  0  0  0  0  0  0  0  0  0  0
  128.7781  136.4095  158.5177 H   0  0  0  0  0  0  0  0  0  0  0  0
  129.6511  133.7553  161.7398 H   0  0  0  0  0  0  0  0  0  0  0  0
  130.6662  133.7837  160.2003 H   0  0  0  0  0  0  0  0  0  0  0  0
  131.2663  136.5061  159.3325 H   0  0  0  0  0  0  0  0  0  0  0  0
  134.2974  137.5674  163.5484 H   0  0  0  0  0  0  0  0  0  0  0  0
  135.0271  139.5465  159.4153 H   0  0  0  0  0  0  0  0  0  0  0  0
  137.1960  140.6582  159.0804 H   0  0  0  0  0  0  0  0  0  0  0  0
  139.0586  140.2214  160.6272 H   0  0  0  0  0  0  0  0  0  0  0  0
  138.7593  138.6816  162.5225 H   0  0  0  0  0  0  0  0  0  0  0  0
  136.5935  137.5708  162.8802 H   0  0  0  0  0  0  0  0  0  0  0  0
  125.9325  136.0558  159.0563 H   0  0  0  0  0  0  0  0  0  0  0  0
  124.0945  135.1312  160.4101 H   0  0  0  0  0  0  0  0  0  0  0  0
  124.1081  132.7563  161.0517 H   0  0  0  0  0  0  0  0  0  0  0  0
  125.9514  131.2939  160.3413 H   0  0  0  0  0  0  0  0  0  0  0  0
  1  2  1  0
  1 36  1  0
  2  7  2  0
  2  3  1  0
  3  4  2  0
  3 37  1  0
  4  5  1  0
  4 38  1  0
  5 35  1  0
  5  6  2  0
  6  7  1  0
  6  8  1  0
  7 39  1  0
  8  9  1  6
  8 10  1  0
  8 30  1  0
 10 11  1  0
 10 40  1  0
 11 12  1  1
 11 14  1  0
 11 13  1  0
 13 14  1  0
 13 41  1  0
 13 42  1  0
 14 15  1  1
 14 16  1  0
 16 43  1  0
 17 16  1  0
 17 28  2  0
 17 18  1  0
 18 19  1  0
 18 20  1  0
 20 21  2  0
 20 44  1  0
 21 22  1  0
 21 28  1  0
 22 27  1  0
 22 23  2  0
 23 24  1  0
 23 45  1  0
 24 25  2  0
 24 46  1  0
 25 26  1  0
 25 47  1  0
 26 27  2  0
 26 48  1  0
 27 49  1  0
 28 29  1  0
 30 35  2  0
 30 31  1  0
 31 32  2  0
 31 50  1  0
 32 33  1  0
 32 51  1  0
 33 34  2  0
 33 52  1  0
 34 35  1  0
 34 53  1  0
M  CHG  1  28   1
M  END
>  <DOCK_score>  (1) 
-57.696911

>  <SMILES>  (1) 
Oc1ccc2c(c1)[C@H](N[C@H]1C[C@H]1Nc1[nH]cc(-c3ccccc3)[nH+]1)c1ccccc1-2

$$$$
