C[C@H](Cc1c[nH]c2ccc(O)cc12)[NH2+]C1CC(Cc2cccc3nonc23)C1
     RDKit          3D

 53 57  0  0  1  0  0  0  0  0999 V2000
  128.9727  137.0188  160.8776 C   0  0  0  0  0  0  0  0  0  0  0  0
  129.7296  137.2574  159.5695 C   0  0  2  0  0  0  0  0  0  0  0  0
  129.8569  138.3288  159.4136 H   0  0  0  0  0  0  0  0  0  0  0  0
  128.9350  136.6635  158.4048 C   0  0  0  0  0  0  0  0  0  0  0  0
  128.7590  135.1825  158.6202 C   0  0  0  0  0  0  0  0  0  0  0  0
  129.5827  134.2107  158.1969 C   0  0  0  0  0  0  0  0  0  0  0  0
  129.1002  132.9897  158.5816 N   0  0  0  0  0  0  0  0  0  0  0  0
  129.5245  132.1381  158.3931 H   0  0  0  0  0  0  0  0  0  0  0  0
  127.9173  133.1501  159.2722 C   0  0  0  0  0  0  0  0  0  0  0  0
  127.0296  132.2587  159.8656 C   0  0  0  0  0  0  0  0  0  0  0  0
  125.9019  132.7299  160.4996 C   0  0  0  0  0  0  0  0  0  0  0  0
  125.6374  134.0961  160.5544 C   0  0  0  0  0  0  0  0  0  0  0  0
  124.5192  134.5447  161.1850 O   0  0  0  0  0  0  0  0  0  0  0  0
  126.5060  134.9969  159.9717 C   0  0  0  0  0  0  0  0  0  0  0  0
  127.6531  134.5302  159.3257 C   0  0  0  0  0  0  0  0  0  0  0  0
  131.0478  136.6131  159.6420 N   0  0  0  0  0  0  0  0  0  0  0  0
  131.4084  136.4790  158.7092 H   0  0  0  0  0  0  0  0  0  0  0  0
  130.9603  135.7186  160.1007 H   0  0  0  0  0  0  0  0  0  0  0  0
  131.9688  137.4665  160.4047 C   0  0  1  0  0  0  0  0  0  0  0  0
  132.2041  136.9872  161.8469 C   0  0  0  0  0  0  0  0  0  0  0  0
  133.6803  137.3705  161.6498 C   0  0  1  0  0  0  0  0  0  0  0  0
  134.6621  136.3729  162.2676 C   0  0  0  0  0  0  0  0  0  0  0  0
  134.6096  136.4808  163.7698 C   0  0  0  0  0  0  0  0  0  0  0  0
  135.4325  137.3377  164.4234 C   0  0  0  0  0  0  0  0  0  0  0  0
  135.4087  137.4696  165.8177 C   0  0  0  0  0  0  0  0  0  0  0  0
  134.5694  136.7396  166.5931 C   0  0  0  0  0  0  0  0  0  0  0  0
  133.6882  135.8238  165.9861 C   0  0  0  0  0  0  0  0  0  0  0  0
  132.7634  134.9669  166.3422 N   0  0  0  0  0  0  0  0  0  0  0  0
  132.3159  134.4297  165.3489 O   0  0  0  0  0  0  0  0  0  0  0  0
  132.7924  134.7788  164.2876 N   0  0  0  0  0  0  0  0  0  0  0  0
  133.7092  135.6886  164.5081 C   0  0  0  0  0  0  0  0  0  0  0  0
  133.4527  137.1588  160.1437 C   0  0  0  0  0  0  0  0  0  0  0  0
  127.9948  137.4969  160.8239 H   0  0  0  0  0  0  0  0  0  0  0  0
  128.8454  135.9476  161.0334 H   0  0  0  0  0  0  0  0  0  0  0  0
  129.5389  137.4419  161.7074 H   0  0  0  0  0  0  0  0  0  0  0  0
  127.9570  137.1417  158.3510 H   0  0  0  0  0  0  0  0  0  0  0  0
  129.4744  136.8335  157.4729 H   0  0  0  0  0  0  0  0  0  0  0  0
  130.4928  134.3694  157.6375 H   0  0  0  0  0  0  0  0  0  0  0  0
  127.2251  131.1972  159.8294 H   0  0  0  0  0  0  0  0  0  0  0  0
  125.2158  132.0334  160.9585 H   0  0  0  0  0  0  0  0  0  0  0  0
  124.4194  135.5064  161.1722 H   0  0  0  0  0  0  0  0  0  0  0  0
  126.3000  136.0562  160.0152 H   0  0  0  0  0  0  0  0  0  0  0  0
  131.7231  138.5259  160.3313 H   0  0  0  0  0  0  0  0  0  0  0  0
  131.6924  137.5909  162.5965 H   0  0  0  0  0  0  0  0  0  0  0  0
  132.0451  135.9175  161.9828 H   0  0  0  0  0  0  0  0  0  0  0  0
  133.9024  138.4037  161.9169 H   0  0  0  0  0  0  0  0  0  0  0  0
  134.3901  135.3613  161.9662 H   0  0  0  0  0  0  0  0  0  0  0  0
  135.6718  136.5957  161.9225 H   0  0  0  0  0  0  0  0  0  0  0  0
  136.1235  137.9394  163.8518 H   0  0  0  0  0  0  0  0  0  0  0  0
  136.0818  138.1701  166.2894 H   0  0  0  0  0  0  0  0  0  0  0  0
  134.5767  136.8592  167.6665 H   0  0  0  0  0  0  0  0  0  0  0  0
  133.6350  136.1359  159.8141 H   0  0  0  0  0  0  0  0  0  0  0  0
  133.9492  137.9009  159.5186 H   0  0  0  0  0  0  0  0  0  0  0  0
  1  2  1  0
  1 33  1  0
  1 34  1  0
  1 35  1  0
  2  3  1  6
  2  4  1  0
  2 16  1  0
  4  5  1  0
  4 36  1  0
  4 37  1  0
  5 15  1  0
  5  6  2  0
  6  7  1  0
  6 38  1  0
  7  8  1  0
  7  9  1  0
  9 15  2  0
  9 10  1  0
 10 11  2  0
 10 39  1  0
 11 12  1  0
 11 40  1  0
 12 13  1  0
 12 14  2  0
 13 41  1  0
 14 15  1  0
 14 42  1  0
 16 17  1  0
 16 18  1  0
 16 19  1  0
 19 32  1  0
 19 20  1  0
 19 43  1  1
 20 21  1  0
 20 44  1  0
 20 45  1  0
 21 22  1  0
 21 32  1  0
 21 46  1  6
 22 23  1  0
 22 47  1  0
 22 48  1  0
 23 31  1  0
 23 24  2  0
 24 25  1  0
 24 49  1  0
 25 26  2  0
 25 50  1  0
 26 27  1  0
 26 51  1  0
 27 31  1  0
 27 28  2  0
 28 29  1  0
 29 30  1  0
 30 31  2  0
 32 52  1  0
 32 53  1  0
M  CHG  1  16   1
M  END
>  <DOCK_score>  (1) 
-45.096062

>  <SMILES>  (1) 
C[C@H](Cc1c[nH]c2ccc(O)cc12)[NH2+]C1CC(Cc2cccc3nonc23)C1

$$$$
