CCc1cccc([C@H](Nc2[nH]cc(-c3ccc(Br)cc3)[nH+]2)c2cccc(F)c2)c1
     RDKit          3D

 51 54  0  0  1  0  0  0  0  0999 V2000
  133.9870  139.2915  159.6840 C   0  0  0  0  0  0  0  0  0  0  0  0
  133.5279  138.7045  161.0202 C   0  0  0  0  0  0  0  0  0  0  0  0
  132.0629  138.3600  160.9408 C   0  0  0  0  0  0  0  0  0  0  0  0
  131.1111  139.3005  161.2905 C   0  0  0  0  0  0  0  0  0  0  0  0
  129.7681  138.9842  161.2185 C   0  0  0  0  0  0  0  0  0  0  0  0
  129.3754  137.7277  160.7960 C   0  0  0  0  0  0  0  0  0  0  0  0
  130.3263  136.7878  160.4461 C   0  0  0  0  0  0  0  0  0  0  0  0
  129.8982  135.4181  159.9860 C   0  0  2  0  0  0  0  0  0  0  0  0
  130.3105  134.6641  160.6565 H   0  0  0  0  0  0  0  0  0  0  0  0
  130.3902  135.1837  158.6261 N   0  0  0  0  0  0  0  0  0  0  0  0
  130.1189  133.9850  157.9888 C   0  0  0  0  0  0  0  0  0  0  0  0
  129.4044  132.9523  158.5134 N   0  0  0  0  0  0  0  0  0  0  0  0
  128.9975  132.9238  159.3935 H   0  0  0  0  0  0  0  0  0  0  0  0
  129.3666  131.9574  157.5667 C   0  0  0  0  0  0  0  0  0  0  0  0
  130.0582  132.4105  156.4919 C   0  0  0  0  0  0  0  0  0  0  0  0
  130.2841  131.6729  155.2250 C   0  0  0  0  0  0  0  0  0  0  0  0
  129.8215  132.1964  154.0190 C   0  0  0  0  0  0  0  0  0  0  0  0
  130.0393  131.5090  152.8425 C   0  0  0  0  0  0  0  0  0  0  0  0
  130.7052  130.2959  152.8599 C   0  0  0  0  0  0  0  0  0  0  0  0
  130.9926  129.3556  151.2447 Br  0  0  0  0  0  0  0  0  0  0  0  0
  131.1621  129.7688  154.0556 C   0  0  0  0  0  0  0  0  0  0  0  0
  130.9545  130.4510  155.2372 C   0  0  0  0  0  0  0  0  0  0  0  0
  130.5031  133.6598  156.7787 N   0  0  0  0  0  0  0  0  0  0  0  0
  131.0244  134.2214  156.1841 H   0  0  0  0  0  0  0  0  0  0  0  0
  128.3936  135.3318  159.9977 C   0  0  0  0  0  0  0  0  0  0  0  0
  127.7349  134.9022  161.1350 C   0  0  0  0  0  0  0  0  0  0  0  0
  126.3554  134.8172  161.1454 C   0  0  0  0  0  0  0  0  0  0  0  0
  125.6324  135.1660  160.0201 C   0  0  0  0  0  0  0  0  0  0  0  0
  126.2906  135.6013  158.8826 C   0  0  0  0  0  0  0  0  0  0  0  0
  125.5850  135.9430  157.7824 F   0  0  0  0  0  0  0  0  0  0  0  0
  127.6728  135.6866  158.8737 C   0  0  0  0  0  0  0  0  0  0  0  0
  131.6704  137.1022  160.5235 C   0  0  0  0  0  0  0  0  0  0  0  0
  133.4131  140.1923  159.4666 H   0  0  0  0  0  0  0  0  0  0  0  0
  135.0465  139.5407  159.7415 H   0  0  0  0  0  0  0  0  0  0  0  0
  133.8283  138.5597  158.8920 H   0  0  0  0  0  0  0  0  0  0  0  0
  133.6866  139.4363  161.8122 H   0  0  0  0  0  0  0  0  0  0  0  0
  134.1017  137.8036  161.2377 H   0  0  0  0  0  0  0  0  0  0  0  0
  131.4185  140.2817  161.6213 H   0  0  0  0  0  0  0  0  0  0  0  0
  129.0251  139.7186  161.4923 H   0  0  0  0  0  0  0  0  0  0  0  0
  128.3255  137.4806  160.7398 H   0  0  0  0  0  0  0  0  0  0  0  0
  130.9060  135.8684  158.1723 H   0  0  0  0  0  0  0  0  0  0  0  0
  128.8786  130.9986  157.6603 H   0  0  0  0  0  0  0  0  0  0  0  0
  129.2974  133.1407  154.0046 H   0  0  0  0  0  0  0  0  0  0  0  0
  129.6849  131.9158  151.9068 H   0  0  0  0  0  0  0  0  0  0  0  0
  131.6815  128.8220  154.0640 H   0  0  0  0  0  0  0  0  0  0  0  0
  131.3112  130.0389  156.1696 H   0  0  0  0  0  0  0  0  0  0  0  0
  128.2990  134.6288  162.0145 H   0  0  0  0  0  0  0  0  0  0  0  0
  125.8422  134.4776  162.0329 H   0  0  0  0  0  0  0  0  0  0  0  0
  124.5546  135.0987  160.0283 H   0  0  0  0  0  0  0  0  0  0  0  0
  128.1871  136.0261  157.9867 H   0  0  0  0  0  0  0  0  0  0  0  0
  132.4136  136.3663  160.2543 H   0  0  0  0  0  0  0  0  0  0  0  0
  1  2  1  0
  1 33  1  0
  1 34  1  0
  1 35  1  0
  2  3  1  0
  2 36  1  0
  2 37  1  0
  3 32  2  0
  3  4  1  0
  4  5  2  0
  4 38  1  0
  5  6  1  0
  5 39  1  0
  6  7  2  0
  6 40  1  0
  7  8  1  0
  7 32  1  0
  8  9  1  1
  8 10  1  0
  8 25  1  0
 10 41  1  0
 11 10  1  0
 11 23  2  0
 11 12  1  0
 12 13  1  0
 12 14  1  0
 14 15  2  0
 14 42  1  0
 15 16  1  0
 15 23  1  0
 16 22  1  0
 16 17  2  0
 17 18  1  0
 17 43  1  0
 18 19  2  0
 18 44  1  0
 19 20  1  0
 19 21  1  0
 21 22  2  0
 21 45  1  0
 22 46  1  0
 23 24  1  0
 25 31  1  0
 25 26  2  0
 26 27  1  0
 26 47  1  0
 27 28  2  0
 27 48  1  0
 28 29  1  0
 28 49  1  0
 29 30  1  0
 29 31  2  0
 31 50  1  0
 32 51  1  0
M  CHG  1  23   1
M  END
>  <DOCK_score>  (1) 
-60.824078

>  <SMILES>  (1) 
CCc1cccc([C@H](Nc2[nH]cc(-c3ccc(Br)cc3)[nH+]2)c2cccc(F)c2)c1

$$$$
