CCc1ccc(-c2c[nH]c(N[C@@H](Cc3ccc(-c4ccc(C)cc4)cc3)c3ccccc3)[nH+]2)cc1
     RDKit          3D

 67 71  0  0  1  0  0  0  0  0999 V2000
  129.8230  128.6562  150.7124 C   0  0  0  0  0  0  0  0  0  0  0  0
  131.0097  129.5795  150.9951 C   0  0  0  0  0  0  0  0  0  0  0  0
  130.8311  130.2287  152.3434 C   0  0  0  0  0  0  0  0  0  0  0  0
  131.3358  129.6153  153.4753 C   0  0  0  0  0  0  0  0  0  0  0  0
  131.1803  130.2078  154.7121 C   0  0  0  0  0  0  0  0  0  0  0  0
  130.5032  131.4212  154.8202 C   0  0  0  0  0  0  0  0  0  0  0  0
  130.3281  132.0602  156.1474 C   0  0  0  0  0  0  0  0  0  0  0  0
  129.6910  131.5198  157.2155 C   0  0  0  0  0  0  0  0  0  0  0  0
  129.7613  132.4427  158.2306 N   0  0  0  0  0  0  0  0  0  0  0  0
  129.3947  132.3441  159.1231 H   0  0  0  0  0  0  0  0  0  0  0  0
  130.4401  133.5211  157.7526 C   0  0  0  0  0  0  0  0  0  0  0  0
  130.7270  134.6734  158.4641 N   0  0  0  0  0  0  0  0  0  0  0  0
  130.2889  134.8031  159.8560 C   0  0  1  0  0  0  0  0  0  0  0  0
  130.7346  134.0074  160.4528 H   0  0  0  0  0  0  0  0  0  0  0  0
  130.7306  136.1612  160.4052 C   0  0  0  0  0  0  0  0  0  0  0  0
  130.7342  136.1166  161.9116 C   0  0  0  0  0  0  0  0  0  0  0  0
  131.8777  135.7303  162.5869 C   0  0  0  0  0  0  0  0  0  0  0  0
  131.8882  135.6934  163.9666 C   0  0  0  0  0  0  0  0  0  0  0  0
  130.7404  136.0351  164.6788 C   0  0  0  0  0  0  0  0  0  0  0  0
  130.7439  135.9918  166.1621 C   0  0  0  0  0  0  0  0  0  0  0  0
  129.5677  135.7160  166.8563 C   0  0  0  0  0  0  0  0  0  0  0  0
  129.5780  135.6713  168.2358 C   0  0  0  0  0  0  0  0  0  0  0  0
  130.7506  135.9113  168.9293 C   0  0  0  0  0  0  0  0  0  0  0  0
  130.7546  135.8676  170.4358 C   0  0  0  0  0  0  0  0  0  0  0  0
  131.9198  136.1909  168.2454 C   0  0  0  0  0  0  0  0  0  0  0  0
  131.9223  136.2324  166.8659 C   0  0  0  0  0  0  0  0  0  0  0  0
  129.5895  136.4181  163.9932 C   0  0  0  0  0  0  0  0  0  0  0  0
  129.5918  136.4570  162.6136 C   0  0  0  0  0  0  0  0  0  0  0  0
  128.7869  134.6994  159.9215 C   0  0  0  0  0  0  0  0  0  0  0  0
  128.1787  134.1762  161.0473 C   0  0  0  0  0  0  0  0  0  0  0  0
  126.8008  134.0847  161.1091 C   0  0  0  0  0  0  0  0  0  0  0  0
  126.0314  134.5087  160.0417 C   0  0  0  0  0  0  0  0  0  0  0  0
  126.6399  135.0269  158.9138 C   0  0  0  0  0  0  0  0  0  0  0  0
  128.0176  135.1221  158.8537 C   0  0  0  0  0  0  0  0  0  0  0  0
  130.7821  133.2864  156.5092 N   0  0  0  0  0  0  0  0  0  0  0  0
  131.2785  133.8935  155.9383 H   0  0  0  0  0  0  0  0  0  0  0  0
  129.9918  132.0323  153.6767 C   0  0  0  0  0  0  0  0  0  0  0  0
  130.1581  131.4335  152.4445 C   0  0  0  0  0  0  0  0  0  0  0  0
  129.9520  128.1868  149.7372 H   0  0  0  0  0  0  0  0  0  0  0  0
  129.7709  127.8862  151.4821 H   0  0  0  0  0  0  0  0  0  0  0  0
  128.9008  129.2373  150.7168 H   0  0  0  0  0  0  0  0  0  0  0  0
  131.9315  128.9991  150.9902 H   0  0  0  0  0  0  0  0  0  0  0  0
  131.0614  130.3501  150.2249 H   0  0  0  0  0  0  0  0  0  0  0  0
  131.8561  128.6727  153.3909 H   0  0  0  0  0  0  0  0  0  0  0  0
  131.5788  129.7301  155.5949 H   0  0  0  0  0  0  0  0  0  0  0  0
  129.2184  130.5497  157.2596 H   0  0  0  0  0  0  0  0  0  0  0  0
  131.2184  135.3950  158.0410 H   0  0  0  0  0  0  0  0  0  0  0  0
  131.7341  136.3894  160.0461 H   0  0  0  0  0  0  0  0  0  0  0  0
  130.0391  136.9326  160.0661 H   0  0  0  0  0  0  0  0  0  0  0  0
  132.7655  135.4614  162.0338 H   0  0  0  0  0  0  0  0  0  0  0  0
  132.7831  135.3958  164.4930 H   0  0  0  0  0  0  0  0  0  0  0  0
  128.6506  135.5335  166.3160 H   0  0  0  0  0  0  0  0  0  0  0  0
  128.6679  135.4532  168.7749 H   0  0  0  0  0  0  0  0  0  0  0  0
  130.5323  136.8604  170.8284 H   0  0  0  0  0  0  0  0  0  0  0  0
  129.9971  135.1635  170.7807 H   0  0  0  0  0  0  0  0  0  0  0  0
  131.7350  135.5487  170.7877 H   0  0  0  0  0  0  0  0  0  0  0  0
  132.8325  136.3773  168.7919 H   0  0  0  0  0  0  0  0  0  0  0  0
  132.8358  136.4508  166.3327 H   0  0  0  0  0  0  0  0  0  0  0  0
  128.6969  136.6836  164.5403 H   0  0  0  0  0  0  0  0  0  0  0  0
  128.7004  136.7541  162.0812 H   0  0  0  0  0  0  0  0  0  0  0  0
  128.7798  133.8419  161.8799 H   0  0  0  0  0  0  0  0  0  0  0  0
  126.3254  133.6795  161.9901 H   0  0  0  0  0  0  0  0  0  0  0  0
  124.9550  134.4346  160.0889 H   0  0  0  0  0  0  0  0  0  0  0  0
  126.0389  135.3578  158.0798 H   0  0  0  0  0  0  0  0  0  0  0  0
  128.4929  135.5269  157.9725 H   0  0  0  0  0  0  0  0  0  0  0  0
  129.4661  132.9725  153.7548 H   0  0  0  0  0  0  0  0  0  0  0  0
  129.7620  131.9059  151.5578 H   0  0  0  0  0  0  0  0  0  0  0  0
  1  2  1  0
  1 39  1  0
  1 40  1  0
  1 41  1  0
  2  3  1  0
  2 42  1  0
  2 43  1  0
  3 38  2  0
  3  4  1  0
  4  5  2  0
  4 44  1  0
  5  6  1  0
  5 45  1  0
  6  7  1  0
  6 37  2  0
  7 35  1  0
  7  8  2  0
  8  9  1  0
  8 46  1  0
  9 10  1  0
  9 11  1  0
 11 12  1  0
 11 35  2  0
 12 13  1  0
 12 47  1  0
 13 14  1  1
 13 15  1  0
 13 29  1  0
 15 16  1  0
 15 48  1  0
 15 49  1  0
 16 28  1  0
 16 17  2  0
 17 18  1  0
 17 50  1  0
 18 19  2  0
 18 51  1  0
 19 20  1  0
 19 27  1  0
 20 26  1  0
 20 21  2  0
 21 22  1  0
 21 52  1  0
 22 23  2  0
 22 53  1  0
 23 24  1  0
 23 25  1  0
 24 54  1  0
 24 55  1  0
 24 56  1  0
 25 26  2  0
 25 57  1  0
 26 58  1  0
 27 28  2  0
 27 59  1  0
 28 60  1  0
 29 34  1  0
 29 30  2  0
 30 31  1  0
 30 61  1  0
 31 32  2  0
 31 62  1  0
 32 33  1  0
 32 63  1  0
 33 34  2  0
 33 64  1  0
 34 65  1  0
 35 36  1  0
 37 38  1  0
 37 66  1  0
 38 67  1  0
M  CHG  1  35   1
M  END
>  <DOCK_score>  (1) 
-61.899204

>  <SMILES>  (1) 
CCc1ccc(-c2c[nH]c(N[C@@H](Cc3ccc(-c4ccc(C)cc4)cc3)c3ccccc3)[nH+]2)cc1

$$$$
