COc1cccc(-c2cccc(C3=CC[N@H+](Cc4ccc(-c5ccccc5)[nH]4)CC3)c2)c1
     RDKit          3D

 61 65  0  0  1  0  0  0  0  0999 V2000
  136.2182  139.4887  167.6786 C   0  0  0  0  0  0  0  0  0  0  0  0
  135.7625  138.9500  166.4360 O   0  0  0  0  0  0  0  0  0  0  0  0
  135.8865  139.7414  165.3380 C   0  0  0  0  0  0  0  0  0  0  0  0
  136.4364  141.0106  165.4557 C   0  0  0  0  0  0  0  0  0  0  0  0
  136.5642  141.8186  164.3418 C   0  0  0  0  0  0  0  0  0  0  0  0
  136.1510  141.3657  163.1046 C   0  0  0  0  0  0  0  0  0  0  0  0
  135.5933  140.0952  162.9789 C   0  0  0  0  0  0  0  0  0  0  0  0
  135.1432  139.6081  161.6512 C   0  0  0  0  0  0  0  0  0  0  0  0
  135.7800  140.0507  160.4924 C   0  0  0  0  0  0  0  0  0  0  0  0
  135.3632  139.5991  159.2557 C   0  0  0  0  0  0  0  0  0  0  0  0
  134.3180  138.7021  159.1584 C   0  0  0  0  0  0  0  0  0  0  0  0
  133.6691  138.2557  160.3106 C   0  0  0  0  0  0  0  0  0  0  0  0
  132.5464  137.2998  160.2057 C   0  0  0  0  0  0  0  0  0  0  0  0
  131.3234  137.7687  160.0835 C   0  0  0  0  0  0  0  0  0  0  0  0
  130.1160  136.8828  159.9758 C   0  0  0  0  0  0  0  0  0  0  0  0
  130.5120  135.5219  159.5953 N   0  0  2  0  0  0  0  0  0  0  0  0
  130.8743  135.5264  158.6536 H   0  0  0  0  0  0  0  0  0  0  0  0
  129.3463  134.6312  159.6713 C   0  0  0  0  0  0  0  0  0  0  0  0
  129.6006  133.3992  158.8415 C   0  0  0  0  0  0  0  0  0  0  0  0
  129.3389  132.1282  159.2152 C   0  0  0  0  0  0  0  0  0  0  0  0
  129.7211  131.2854  158.1588 C   0  0  0  0  0  0  0  0  0  0  0  0
  130.2088  132.0777  157.1636 C   0  0  0  0  0  0  0  0  0  0  0  0
  130.7277  131.6154  155.8584 C   0  0  0  0  0  0  0  0  0  0  0  0
  130.6106  132.4284  154.7300 C   0  0  0  0  0  0  0  0  0  0  0  0
  131.1015  131.9933  153.5163 C   0  0  0  0  0  0  0  0  0  0  0  0
  131.6994  130.7499  153.4141 C   0  0  0  0  0  0  0  0  0  0  0  0
  131.8134  129.9368  154.5277 C   0  0  0  0  0  0  0  0  0  0  0  0
  131.3314  130.3619  155.7484 C   0  0  0  0  0  0  0  0  0  0  0  0
  130.1279  133.3803  157.5846 N   0  0  0  0  0  0  0  0  0  0  0  0
  130.4027  134.1581  157.0743 H   0  0  0  0  0  0  0  0  0  0  0  0
  131.5535  135.0498  160.5213 C   0  0  0  0  0  0  0  0  0  0  0  0
  132.8433  135.8258  160.2422 C   0  0  0  0  0  0  0  0  0  0  0  0
  134.0859  138.7091  161.5607 C   0  0  0  0  0  0  0  0  0  0  0  0
  135.4646  139.2811  164.1016 C   0  0  0  0  0  0  0  0  0  0  0  0
  137.2801  139.7235  167.6052 H   0  0  0  0  0  0  0  0  0  0  0  0
  135.6602  140.3966  167.9075 H   0  0  0  0  0  0  0  0  0  0  0  0
  136.0620  138.7566  168.4709 H   0  0  0  0  0  0  0  0  0  0  0  0
  136.7649  141.3678  166.4207 H   0  0  0  0  0  0  0  0  0  0  0  0
  136.9927  142.8053  164.4385 H   0  0  0  0  0  0  0  0  0  0  0  0
  136.2568  141.9976  162.2353 H   0  0  0  0  0  0  0  0  0  0  0  0
  136.6012  140.7488  160.5621 H   0  0  0  0  0  0  0  0  0  0  0  0
  135.8599  139.9451  158.3613 H   0  0  0  0  0  0  0  0  0  0  0  0
  133.9991  138.3488  158.1888 H   0  0  0  0  0  0  0  0  0  0  0  0
  131.1816  138.8391  160.0594 H   0  0  0  0  0  0  0  0  0  0  0  0
  129.4395  137.2854  159.2218 H   0  0  0  0  0  0  0  0  0  0  0  0
  129.6062  136.8539  160.9388 H   0  0  0  0  0  0  0  0  0  0  0  0
  129.1769  134.3422  160.7085 H   0  0  0  0  0  0  0  0  0  0  0  0
  128.4668  135.1506  159.2905 H   0  0  0  0  0  0  0  0  0  0  0  0
  128.9129  131.8158  160.1573 H   0  0  0  0  0  0  0  0  0  0  0  0
  129.6430  130.2084  158.1391 H   0  0  0  0  0  0  0  0  0  0  0  0
  130.1402  133.3975  154.8076 H   0  0  0  0  0  0  0  0  0  0  0  0
  131.0153  132.6231  152.6432 H   0  0  0  0  0  0  0  0  0  0  0  0
  132.0783  130.4122  152.4608 H   0  0  0  0  0  0  0  0  0  0  0  0
  132.2811  128.9670  154.4412 H   0  0  0  0  0  0  0  0  0  0  0  0
  131.4206  129.7261  156.6167 H   0  0  0  0  0  0  0  0  0  0  0  0
  131.2362  135.2252  161.5492 H   0  0  0  0  0  0  0  0  0  0  0  0
  131.7263  133.9849  160.3656 H   0  0  0  0  0  0  0  0  0  0  0  0
  133.5680  135.6209  161.0303 H   0  0  0  0  0  0  0  0  0  0  0  0
  133.2539  135.5143  159.2819 H   0  0  0  0  0  0  0  0  0  0  0  0
  133.5897  138.3639  162.4558 H   0  0  0  0  0  0  0  0  0  0  0  0
  135.0366  138.2940  164.0085 H   0  0  0  0  0  0  0  0  0  0  0  0
  1  2  1  0
  1 35  1  0
  1 36  1  0
  1 37  1  0
  2  3  1  0
  3 34  2  0
  3  4  1  0
  4  5  2  0
  4 38  1  0
  5  6  1  0
  5 39  1  0
  6  7  2  0
  6 40  1  0
  7  8  1  0
  7 34  1  0
  8 33  1  0
  8  9  2  0
  9 10  1  0
  9 41  1  0
 10 11  2  0
 10 42  1  0
 11 12  1  0
 11 43  1  0
 12 13  1  0
 12 33  2  0
 13 32  1  0
 13 14  2  0
 14 15  1  0
 14 44  1  0
 15 16  1  0
 15 45  1  0
 15 46  1  0
 16 17  1  6
 16 18  1  0
 16 31  1  0
 18 19  1  0
 18 47  1  0
 18 48  1  0
 19 29  1  0
 19 20  2  0
 20 21  1  0
 20 49  1  0
 21 22  2  0
 21 50  1  0
 22 23  1  0
 22 29  1  0
 23 28  1  0
 23 24  2  0
 24 25  1  0
 24 51  1  0
 25 26  2  0
 25 52  1  0
 26 27  1  0
 26 53  1  0
 27 28  2  0
 27 54  1  0
 28 55  1  0
 29 30  1  0
 31 32  1  0
 31 56  1  0
 31 57  1  0
 32 58  1  0
 32 59  1  0
 33 60  1  0
 34 61  1  0
M  CHG  1  16   1
M  END
>  <DOCK_score>  (1) 
-59.009682

>  <SMILES>  (1) 
COc1cccc(-c2cccc(C3=CC[N@H+](Cc4ccc(-c5ccccc5)[nH]4)CC3)c2)c1

$$$$
