Cc1c(Nc2ccc(O)cc2Nc2[nH]c3ccccc3[nH+]2)ccc(N)c1Nc1cc(O)ccc1Cl
     RDKit          3D

 59 63  0  0  0  0  0  0  0  0999 V2000
  133.4862  136.7176  161.0862 C   0  0  0  0  0  0  0  0  0  0  0  0
  132.8198  137.9808  161.5669 C   0  0  0  0  0  0  0  0  0  0  0  0
  131.5247  138.2802  161.1645 C   0  0  0  0  0  0  0  0  0  0  0  0
  130.8384  137.4086  160.3113 N   0  0  0  0  0  0  0  0  0  0  0  0
  129.6345  136.8235  160.7274 C   0  0  0  0  0  0  0  0  0  0  0  0
  129.1196  137.1123  161.9823 C   0  0  0  0  0  0  0  0  0  0  0  0
  127.9321  136.5359  162.3925 C   0  0  0  0  0  0  0  0  0  0  0  0
  127.2521  135.6678  161.5511 C   0  0  0  0  0  0  0  0  0  0  0  0
  126.0839  135.1031  161.9585 O   0  0  0  0  0  0  0  0  0  0  0  0
  127.7614  135.3753  160.2951 C   0  0  0  0  0  0  0  0  0  0  0  0
  128.9500  135.9549  159.8778 C   0  0  0  0  0  0  0  0  0  0  0  0
  129.4643  135.6650  158.6076 N   0  0  0  0  0  0  0  0  0  0  0  0
  129.7756  134.3678  158.2710 C   0  0  0  0  0  0  0  0  0  0  0  0
  129.6333  133.3161  159.0749 N   0  0  0  0  0  0  0  0  0  0  0  0
  129.2966  133.3389  159.9843 H   0  0  0  0  0  0  0  0  0  0  0  0
  130.0391  132.1958  158.3991 C   0  0  0  0  0  0  0  0  0  0  0  0
  130.1100  130.8452  158.7285 C   0  0  0  0  0  0  0  0  0  0  0  0
  130.5846  129.9391  157.8051 C   0  0  0  0  0  0  0  0  0  0  0  0
  130.9916  130.3628  156.5485 C   0  0  0  0  0  0  0  0  0  0  0  0
  130.9276  131.6960  156.2059 C   0  0  0  0  0  0  0  0  0  0  0  0
  130.4512  132.6249  157.1268 C   0  0  0  0  0  0  0  0  0  0  0  0
  130.2683  133.9821  157.0957 N   0  0  0  0  0  0  0  0  0  0  0  0
  130.4645  134.5638  156.3446 H   0  0  0  0  0  0  0  0  0  0  0  0
  130.9103  139.4438  161.6078 C   0  0  0  0  0  0  0  0  0  0  0  0
  131.5858  140.3073  162.4506 C   0  0  0  0  0  0  0  0  0  0  0  0
  132.8785  140.0137  162.8548 C   0  0  0  0  0  0  0  0  0  0  0  0
  133.5629  140.8907  163.7095 N   0  0  0  0  0  0  0  0  0  0  0  0
  133.4967  138.8426  162.4159 C   0  0  0  0  0  0  0  0  0  0  0  0
  134.8001  138.5409  162.8279 N   0  0  0  0  0  0  0  0  0  0  0  0
  135.8910  138.9867  162.0770 C   0  0  0  0  0  0  0  0  0  0  0  0
  135.6832  139.7240  160.9191 C   0  0  0  0  0  0  0  0  0  0  0  0
  136.7677  140.1681  160.1795 C   0  0  0  0  0  0  0  0  0  0  0  0
  136.5674  140.8938  159.0479 O   0  0  0  0  0  0  0  0  0  0  0  0
  138.0584  139.8666  160.5912 C   0  0  0  0  0  0  0  0  0  0  0  0
  138.2645  139.1284  161.7413 C   0  0  0  0  0  0  0  0  0  0  0  0
  137.1861  138.6878  162.4852 C   0  0  0  0  0  0  0  0  0  0  0  0
  137.4487  137.7604  163.9289 Cl  0  0  0  0  0  0  0  0  0  0  0  0
  134.0169  136.9184  160.1555 H   0  0  0  0  0  0  0  0  0  0  0  0
  132.7309  135.9507  160.9155 H   0  0  0  0  0  0  0  0  0  0  0  0
  134.1930  136.3703  161.8397 H   0  0  0  0  0  0  0  0  0  0  0  0
  131.1960  137.2092  159.4318 H   0  0  0  0  0  0  0  0  0  0  0  0
  129.6465  137.7884  162.6393 H   0  0  0  0  0  0  0  0  0  0  0  0
  127.5329  136.7620  163.3701 H   0  0  0  0  0  0  0  0  0  0  0  0
  125.6836  134.5132  161.3051 H   0  0  0  0  0  0  0  0  0  0  0  0
  127.2310  134.6994  159.6409 H   0  0  0  0  0  0  0  0  0  0  0  0
  129.6010  136.3788  157.9652 H   0  0  0  0  0  0  0  0  0  0  0  0
  129.7941  130.5086  159.7048 H   0  0  0  0  0  0  0  0  0  0  0  0
  130.6396  128.8913  158.0615 H   0  0  0  0  0  0  0  0  0  0  0  0
  131.3616  129.6428  155.8337 H   0  0  0  0  0  0  0  0  0  0  0  0
  131.2457  132.0193  155.2257 H   0  0  0  0  0  0  0  0  0  0  0  0
  129.9032  139.6752  161.2935 H   0  0  0  0  0  0  0  0  0  0  0  0
  131.1055  141.2117  162.7938 H   0  0  0  0  0  0  0  0  0  0  0  0
  133.1047  141.6595  164.0835 H   0  0  0  0  0  0  0  0  0  0  0  0
  134.4942  140.7283  163.9265 H   0  0  0  0  0  0  0  0  0  0  0  0
  134.9461  138.0224  163.6346 H   0  0  0  0  0  0  0  0  0  0  0  0
  134.6783  139.9542  160.5974 H   0  0  0  0  0  0  0  0  0  0  0  0
  135.6357  141.0492  158.8401 H   0  0  0  0  0  0  0  0  0  0  0  0
  138.9031  140.2089  160.0117 H   0  0  0  0  0  0  0  0  0  0  0  0
  139.2700  138.8952  162.0593 H   0  0  0  0  0  0  0  0  0  0  0  0
  1  2  1  0
  1 38  1  0
  1 39  1  0
  1 40  1  0
  2 28  2  0
  2  3  1  0
  3  4  1  0
  3 24  2  0
  4  5  1  0
  4 41  1  0
  5 11  1  0
  5  6  2  0
  6  7  1  0
  6 42  1  0
  7  8  2  0
  7 43  1  0
  8  9  1  0
  8 10  1  0
  9 44  1  0
 10 11  2  0
 10 45  1  0
 11 12  1  0
 12 13  1  0
 12 46  1  0
 13 22  1  0
 13 14  2  0
 14 15  1  0
 14 16  1  0
 16 21  2  0
 16 17  1  0
 17 18  2  0
 17 47  1  0
 18 19  1  0
 18 48  1  0
 19 20  2  0
 19 49  1  0
 20 21  1  0
 20 50  1  0
 21 22  1  0
 22 23  1  0
 24 25  1  0
 24 51  1  0
 25 26  2  0
 25 52  1  0
 26 27  1  0
 26 28  1  0
 27 53  1  0
 27 54  1  0
 28 29  1  0
 29 30  1  0
 29 55  1  0
 30 36  1  0
 30 31  2  0
 31 32  1  0
 31 56  1  0
 32 33  1  0
 32 34  2  0
 33 57  1  0
 34 35  1  0
 34 58  1  0
 35 36  2  0
 35 59  1  0
 36 37  1  0
M  CHG  1  14   1
M  END
>  <DOCK_score>  (1) 
-59.538822

>  <SMILES>  (1) 
Cc1c(Nc2ccc(O)cc2Nc2[nH]c3ccccc3[nH+]2)ccc(N)c1Nc1cc(O)ccc1Cl

$$$$
