C1=CCCC([NH2+]Cc2c[nH]nc2-c2ccc(N[C@@H]3CC34CCOCC4)o2)CC1
     RDKit          3D

 59 63  0  0  1  0  0  0  0  0999 V2000
  135.1895  139.6490  161.6972 C   0  0  0  0  0  0  0  0  0  0  0  0
  134.2387  140.3637  161.1846 C   0  0  0  0  0  0  0  0  0  0  0  0
  132.7980  139.9126  161.2945 C   0  0  0  0  0  0  0  0  0  0  0  0
  132.5894  138.7135  160.3668 C   0  0  0  0  0  0  0  0  0  0  0  0
  132.9723  137.4203  161.0648 C   0  0  0  0  0  0  0  0  0  0  0  0
  132.5854  136.2915  160.2078 N   0  0  0  0  0  0  0  0  0  0  0  0
  132.7867  136.5161  159.2449 H   0  0  0  0  0  0  0  0  0  0  0  0
  133.1060  135.4705  160.4776 H   0  0  0  0  0  0  0  0  0  0  0  0
  131.1475  136.0318  160.3599 C   0  0  0  0  0  0  0  0  0  0  0  0
  130.7506  134.8739  159.4808 C   0  0  0  0  0  0  0  0  0  0  0  0
  131.5736  134.1675  158.6766 C   0  0  0  0  0  0  0  0  0  0  0  0
  130.8396  133.2169  158.0583 N   0  0  0  0  0  0  0  0  0  0  0  0
  131.1732  132.5644  157.4228 H   0  0  0  0  0  0  0  0  0  0  0  0
  129.5135  133.3364  158.4932 N   0  0  0  0  0  0  0  0  0  0  0  0
  129.4542  134.3313  159.3564 C   0  0  0  0  0  0  0  0  0  0  0  0
  128.2442  134.7977  160.0646 C   0  0  0  0  0  0  0  0  0  0  0  0
  126.9984  134.2678  159.9458 C   0  0  0  0  0  0  0  0  0  0  0  0
  126.1553  135.0136  160.7932 C   0  0  0  0  0  0  0  0  0  0  0  0
  126.9260  135.9594  161.3857 C   0  0  0  0  0  0  0  0  0  0  0  0
  126.4861  136.9099  162.2996 N   0  0  0  0  0  0  0  0  0  0  0  0
  127.3987  137.4139  163.3288 C   0  0  2  0  0  0  0  0  0  0  0  0
  128.4233  137.5918  163.0026 H   0  0  0  0  0  0  0  0  0  0  0  0
  127.1880  136.9218  164.7628 C   0  0  0  0  0  0  0  0  0  0  0  0
  126.8211  138.3548  164.3842 C   0  0  0  0  0  0  0  0  0  0  0  0
  125.3341  138.7121  164.2873 C   0  0  0  0  0  0  0  0  0  0  0  0
  125.2004  140.0317  163.5178 C   0  0  0  0  0  0  0  0  0  0  0  0
  126.0192  141.0251  164.1373 O   0  0  0  0  0  0  0  0  0  0  0  0
  127.4207  140.7516  164.0911 C   0  0  0  0  0  0  0  0  0  0  0  0
  127.7172  139.4847  164.9026 C   0  0  0  0  0  0  0  0  0  0  0  0
  128.1878  135.8193  160.9448 O   0  0  0  0  0  0  0  0  0  0  0  0
  134.4553  137.3105  161.3722 C   0  0  0  0  0  0  0  0  0  0  0  0
  134.8721  138.3532  162.4123 C   0  0  0  0  0  0  0  0  0  0  0  0
  136.2148  139.9770  161.6100 H   0  0  0  0  0  0  0  0  0  0  0  0
  134.4752  141.2867  160.6761 H   0  0  0  0  0  0  0  0  0  0  0  0
  132.5833  139.6213  162.3227 H   0  0  0  0  0  0  0  0  0  0  0  0
  132.1361  140.7265  160.9988 H   0  0  0  0  0  0  0  0  0  0  0  0
  131.5410  138.6655  160.0726 H   0  0  0  0  0  0  0  0  0  0  0  0
  133.2060  138.8370  159.4765 H   0  0  0  0  0  0  0  0  0  0  0  0
  132.4182  137.3521  162.0008 H   0  0  0  0  0  0  0  0  0  0  0  0
  130.9303  135.7893  161.4001 H   0  0  0  0  0  0  0  0  0  0  0  0
  130.5851  136.9188  160.0684 H   0  0  0  0  0  0  0  0  0  0  0  0
  132.6332  134.3333  158.5499 H   0  0  0  0  0  0  0  0  0  0  0  0
  126.7100  133.4347  159.3221 H   0  0  0  0  0  0  0  0  0  0  0  0
  125.0965  134.8613  160.9424 H   0  0  0  0  0  0  0  0  0  0  0  0
  125.5750  137.2397  162.2556 H   0  0  0  0  0  0  0  0  0  0  0  0
  126.3705  136.2229  164.9402 H   0  0  0  0  0  0  0  0  0  0  0  0
  128.0743  136.7753  165.3801 H   0  0  0  0  0  0  0  0  0  0  0  0
  124.8017  137.9231  163.7563 H   0  0  0  0  0  0  0  0  0  0  0  0
  124.9192  138.8284  165.2885 H   0  0  0  0  0  0  0  0  0  0  0  0
  124.1602  140.3572  163.5317 H   0  0  0  0  0  0  0  0  0  0  0  0
  125.5227  139.8859  162.4869 H   0  0  0  0  0  0  0  0  0  0  0  0
  127.9697  141.5922  164.5154 H   0  0  0  0  0  0  0  0  0  0  0  0
  127.7280  140.6008  163.0562 H   0  0  0  0  0  0  0  0  0  0  0  0
  127.5047  139.6667  165.9560 H   0  0  0  0  0  0  0  0  0  0  0  0
  128.7643  139.2063  164.7828 H   0  0  0  0  0  0  0  0  0  0  0  0
  134.6689  136.3136  161.7579 H   0  0  0  0  0  0  0  0  0  0  0  0
  135.0244  137.4697  160.4562 H   0  0  0  0  0  0  0  0  0  0  0  0
  135.7558  138.0043  162.9468 H   0  0  0  0  0  0  0  0  0  0  0  0
  134.0555  138.5143  163.1162 H   0  0  0  0  0  0  0  0  0  0  0  0
  1 32  1  0
  1  2  2  0
  1 33  1  0
  2  3  1  0
  2 34  1  0
  3  4  1  0
  3 35  1  0
  3 36  1  0
  4  5  1  0
  4 37  1  0
  4 38  1  0
  5  6  1  0
  5 31  1  0
  5 39  1  0
  6  7  1  0
  6  8  1  0
  6  9  1  0
  9 10  1  0
  9 40  1  0
  9 41  1  0
 10 15  1  0
 10 11  2  0
 11 12  1  0
 11 42  1  0
 12 13  1  0
 12 14  1  0
 14 15  2  0
 15 16  1  0
 16 30  1  0
 16 17  2  0
 17 18  1  0
 17 43  1  0
 18 19  2  0
 18 44  1  0
 19 20  1  0
 19 30  1  0
 20 21  1  0
 20 45  1  0
 21 22  1  6
 21 24  1  0
 21 23  1  0
 23 24  1  0
 23 46  1  0
 23 47  1  0
 24 29  1  0
 24 25  1  0
 25 26  1  0
 25 48  1  0
 25 49  1  0
 26 27  1  0
 26 50  1  0
 26 51  1  0
 27 28  1  0
 28 29  1  0
 28 52  1  0
 28 53  1  0
 29 54  1  0
 29 55  1  0
 31 32  1  0
 31 56  1  0
 31 57  1  0
 32 58  1  0
 32 59  1  0
M  CHG  1   6   1
M  END
>  <DOCK_score>  (1) 
-44.087513

>  <SMILES>  (1) 
C1=CCCC([NH2+]Cc2c[nH]nc2-c2ccc(N[C@@H]3CC34CCOCC4)o2)CC1

$$$$
