O=C1CC[C@H](NC(NC2CC2)=[NH+][C@H]2COc3c(F)cc(F)cc3C2)CN1
     RDKit          3D

 49 52  0  0  1  0  0  0  0  0999 V2000
  123.6937  134.0738  161.5857 O   0  0  0  0  0  0  0  0  0  0  0  0
  124.8640  134.2075  161.2970 C   0  0  0  0  0  0  0  0  0  0  0  0
  125.5945  133.0264  160.7254 C   0  0  0  0  0  0  0  0  0  0  0  0
  127.1050  133.2453  160.8399 C   0  0  0  0  0  0  0  0  0  0  0  0
  127.4353  134.6421  160.3011 C   0  0  2  0  0  0  0  0  0  0  0  0
  127.0071  134.7652  159.3063 H   0  0  0  0  0  0  0  0  0  0  0  0
  128.8889  134.8126  160.2349 N   0  0  0  0  0  0  0  0  0  0  0  0
  129.5706  134.4642  159.0930 C   0  0  0  0  0  0  0  0  0  0  0  0
  128.8883  133.9557  158.0131 N   0  0  0  0  0  0  0  0  0  0  0  0
  129.6148  133.5845  156.7963 C   0  0  0  0  0  0  0  0  0  0  0  0
  129.3689  132.1865  156.2254 C   0  0  0  0  0  0  0  0  0  0  0  0
  130.6950  132.5080  156.9191 C   0  0  0  0  0  0  0  0  0  0  0  0
  130.8639  134.6160  159.0340 N   0  0  0  0  0  0  0  0  0  0  0  0
  131.2923  134.7995  158.1834 H   0  0  0  0  0  0  0  0  0  0  0  0
  131.6702  134.5094  160.2525 C   0  0  1  0  0  0  0  0  0  0  0  0
  131.1920  133.8220  160.9505 H   0  0  0  0  0  0  0  0  0  0  0  0
  133.0731  133.9979  159.9011 C   0  0  0  0  0  0  0  0  0  0  0  0
  133.7988  133.8057  161.1163 O   0  0  0  0  0  0  0  0  0  0  0  0
  133.7986  134.8190  162.0228 C   0  0  0  0  0  0  0  0  0  0  0  0
  134.7658  134.8127  163.0258 C   0  0  0  0  0  0  0  0  0  0  0  0
  135.6768  133.8163  163.0763 F   0  0  0  0  0  0  0  0  0  0  0  0
  134.7963  135.8221  163.9683 C   0  0  0  0  0  0  0  0  0  0  0  0
  133.8625  136.8433  163.9165 C   0  0  0  0  0  0  0  0  0  0  0  0
  133.8889  137.8309  164.8381 F   0  0  0  0  0  0  0  0  0  0  0  0
  132.9027  136.8513  162.9213 C   0  0  0  0  0  0  0  0  0  0  0  0
  132.8696  135.8418  161.9725 C   0  0  0  0  0  0  0  0  0  0  0  0
  131.8099  135.8888  160.9010 C   0  0  0  0  0  0  0  0  0  0  0  0
  126.8391  135.6836  161.2488 C   0  0  0  0  0  0  0  0  0  0  0  0
  125.4334  135.3953  161.5046 N   0  0  0  0  0  0  0  0  0  0  0  0
  125.3161  132.1276  161.2756 H   0  0  0  0  0  0  0  0  0  0  0  0
  125.3244  132.9068  159.6761 H   0  0  0  0  0  0  0  0  0  0  0  0
  127.4082  133.1730  161.8844 H   0  0  0  0  0  0  0  0  0  0  0  0
  127.6306  132.4928  160.2519 H   0  0  0  0  0  0  0  0  0  0  0  0
  129.3703  135.1713  160.9968 H   0  0  0  0  0  0  0  0  0  0  0  0
  127.9259  133.8428  158.0568 H   0  0  0  0  0  0  0  0  0  0  0  0
  129.7893  134.3941  156.0875 H   0  0  0  0  0  0  0  0  0  0  0  0
  128.6665  131.5430  156.7552 H   0  0  0  0  0  0  0  0  0  0  0  0
  129.3819  132.0762  155.1411 H   0  0  0  0  0  0  0  0  0  0  0  0
  131.5800  132.6089  156.2908 H   0  0  0  0  0  0  0  0  0  0  0  0
  130.8654  132.0762  157.9054 H   0  0  0  0  0  0  0  0  0  0  0  0
  132.9954  133.0511  159.3665 H   0  0  0  0  0  0  0  0  0  0  0  0
  133.5859  134.7308  159.2785 H   0  0  0  0  0  0  0  0  0  0  0  0
  135.5472  135.8147  164.7445 H   0  0  0  0  0  0  0  0  0  0  0  0
  132.1754  137.6487  162.8827 H   0  0  0  0  0  0  0  0  0  0  0  0
  132.0930  136.6189  160.1428 H   0  0  0  0  0  0  0  0  0  0  0  0
  130.8579  136.1786  161.3458 H   0  0  0  0  0  0  0  0  0  0  0  0
  126.9280  136.6726  160.7992 H   0  0  0  0  0  0  0  0  0  0  0  0
  127.3878  135.6653  162.1905 H   0  0  0  0  0  0  0  0  0  0  0  0
  124.8774  136.1122  161.8477 H   0  0  0  0  0  0  0  0  0  0  0  0
  1  2  2  0
  2 29  1  0
  2  3  1  0
  3  4  1  0
  3 30  1  0
  3 31  1  0
  4  5  1  0
  4 32  1  0
  4 33  1  0
  5  6  1  6
  5  7  1  0
  5 28  1  0
  7 34  1  0
  8  7  1  0
  8  9  1  0
  8 13  2  0
  9 10  1  0
  9 35  1  0
 10 12  1  0
 10 11  1  0
 10 36  1  0
 11 12  1  0
 11 37  1  0
 11 38  1  0
 12 39  1  0
 12 40  1  0
 13 14  1  0
 13 15  1  0
 15 16  1  1
 15 27  1  0
 15 17  1  0
 17 18  1  0
 17 41  1  0
 17 42  1  0
 18 19  1  0
 19 26  2  0
 19 20  1  0
 20 21  1  0
 20 22  2  0
 22 23  1  0
 22 43  1  0
 23 24  1  0
 23 25  2  0
 25 26  1  0
 25 44  1  0
 26 27  1  0
 27 45  1  0
 27 46  1  0
 28 29  1  0
 28 47  1  0
 28 48  1  0
 29 49  1  0
M  CHG  1  13   1
M  END
>  <DOCK_score>  (1) 
-47.488338

>  <SMILES>  (1) 
O=C1CC[C@H](NC(NC2CC2)=[NH+][C@H]2COc3c(F)cc(F)cc3C2)CN1

$$$$
