O=C1CC(C[NH2+]Cc2c[nH]nc2-c2ccc(NC[C@H]3CC4CC3C4)o2)CN1
     RDKit          3D

 55 59  0  0  1  0  0  0  0  0999 V2000
  135.9195  139.2634  159.8155 O   0  0  0  0  0  0  0  0  0  0  0  0
  134.7978  139.2217  160.2750 C   0  0  0  0  0  0  0  0  0  0  0  0
  133.7074  138.2795  159.8150 C   0  0  0  0  0  0  0  0  0  0  0  0
  132.6619  138.3250  160.9534 C   0  0  2  0  0  0  0  0  0  0  0  0
  131.2397  138.2547  160.3938 C   0  0  0  0  0  0  0  0  0  0  0  0
  131.0687  137.0016  159.6466 N   0  0  0  0  0  0  0  0  0  0  0  0
  131.7312  136.9703  158.8862 H   0  0  0  0  0  0  0  0  0  0  0  0
  130.1308  136.9553  159.2777 H   0  0  0  0  0  0  0  0  0  0  0  0
  131.2987  135.8612  160.5437 C   0  0  0  0  0  0  0  0  0  0  0  0
  131.1234  134.5757  159.7771 C   0  0  0  0  0  0  0  0  0  0  0  0
  132.0914  133.9060  159.1157 C   0  0  0  0  0  0  0  0  0  0  0  0
  131.5341  132.8103  158.5557 N   0  0  0  0  0  0  0  0  0  0  0  0
  131.9969  132.1482  158.0186 H   0  0  0  0  0  0  0  0  0  0  0  0
  130.1728  132.7952  158.8851 N   0  0  0  0  0  0  0  0  0  0  0  0
  129.9192  133.8565  159.6252 C   0  0  0  0  0  0  0  0  0  0  0  0
  128.6059  134.2296  160.1898 C   0  0  0  0  0  0  0  0  0  0  0  0
  127.4481  133.5337  160.0400 C   0  0  0  0  0  0  0  0  0  0  0  0
  126.4526  134.2415  160.7422 C   0  0  0  0  0  0  0  0  0  0  0  0
  127.0484  135.3362  161.2774 C   0  0  0  0  0  0  0  0  0  0  0  0
  126.4200  136.3075  162.0481 N   0  0  0  0  0  0  0  0  0  0  0  0
  127.2138  137.1796  162.9173 C   0  0  0  0  0  0  0  0  0  0  0  0
  126.3769  137.5884  164.1311 C   0  0  1  0  0  0  0  0  0  0  0  0
  125.4775  138.1252  163.8294 H   0  0  0  0  0  0  0  0  0  0  0  0
  126.0340  136.3596  165.0273 C   0  0  0  0  0  0  0  0  0  0  0  0
  126.7698  136.7957  166.3403 C   0  0  2  0  0  0  0  0  0  0  0  0
  126.4858  138.3140  166.5519 C   0  0  0  0  0  0  0  0  0  0  0  0
  127.2222  138.4174  165.1575 C   0  0  1  0  0  0  0  0  0  0  0  0
  128.1220  137.3375  165.8108 C   0  0  0  0  0  0  0  0  0  0  0  0
  128.3498  135.3204  160.9423 O   0  0  0  0  0  0  0  0  0  0  0  0
  132.9405  139.7078  161.5831 C   0  0  0  0  0  0  0  0  0  0  0  0
  134.3432  140.0055  161.2679 N   0  0  0  0  0  0  0  0  0  0  0  0
  134.1001  137.2696  159.6979 H   0  0  0  0  0  0  0  0  0  0  0  0
  133.2686  138.6281  158.8800 H   0  0  0  0  0  0  0  0  0  0  0  0
  132.8352  137.5260  161.6743 H   0  0  0  0  0  0  0  0  0  0  0  0
  131.0688  139.1009  159.7283 H   0  0  0  0  0  0  0  0  0  0  0  0
  130.5239  138.2884  161.2152 H   0  0  0  0  0  0  0  0  0  0  0  0
  130.5831  135.8950  161.3652 H   0  0  0  0  0  0  0  0  0  0  0  0
  132.3120  135.9112  160.9423 H   0  0  0  0  0  0  0  0  0  0  0  0
  133.1287  134.1976  159.0431 H   0  0  0  0  0  0  0  0  0  0  0  0
  127.3172  132.6125  159.4917 H   0  0  0  0  0  0  0  0  0  0  0  0
  125.4125  133.9660  160.8349 H   0  0  0  0  0  0  0  0  0  0  0  0
  125.4560  136.4079  162.0103 H   0  0  0  0  0  0  0  0  0  0  0  0
  127.5111  138.0706  162.3644 H   0  0  0  0  0  0  0  0  0  0  0  0
  128.1035  136.6462  163.2524 H   0  0  0  0  0  0  0  0  0  0  0  0
  126.4549  135.4399  164.6209 H   0  0  0  0  0  0  0  0  0  0  0  0
  124.9593  136.2680  165.1840 H   0  0  0  0  0  0  0  0  0  0  0  0
  126.7412  136.1170  167.1927 H   0  0  0  0  0  0  0  0  0  0  0  0
  125.4286  138.5795  166.5400 H   0  0  0  0  0  0  0  0  0  0  0  0
  127.0359  138.7632  167.3787 H   0  0  0  0  0  0  0  0  0  0  0  0
  127.6453  139.3686  164.8347 H   0  0  0  0  0  0  0  0  0  0  0  0
  128.7862  137.7181  166.5868 H   0  0  0  0  0  0  0  0  0  0  0  0
  128.6198  136.6792  165.0987 H   0  0  0  0  0  0  0  0  0  0  0  0
  132.2871  140.4612  161.1432 H   0  0  0  0  0  0  0  0  0  0  0  0
  132.7964  139.6665  162.6628 H   0  0  0  0  0  0  0  0  0  0  0  0
  134.8737  140.6809  161.7188 H   0  0  0  0  0  0  0  0  0  0  0  0
  1  2  2  0
  2 31  1  0
  2  3  1  0
  3  4  1  0
  3 32  1  0
  3 33  1  0
  4  5  1  0
  4 30  1  0
  4 34  1  1
  5  6  1  0
  5 35  1  0
  5 36  1  0
  6  7  1  0
  6  8  1  0
  6  9  1  0
  9 10  1  0
  9 37  1  0
  9 38  1  0
 10 15  1  0
 10 11  2  0
 11 12  1  0
 11 39  1  0
 12 13  1  0
 12 14  1  0
 14 15  2  0
 15 16  1  0
 16 29  1  0
 16 17  2  0
 17 18  1  0
 17 40  1  0
 18 19  2  0
 18 41  1  0
 19 20  1  0
 19 29  1  0
 20 21  1  0
 20 42  1  0
 21 22  1  0
 21 43  1  0
 21 44  1  0
 22 23  1  6
 22 27  1  0
 22 24  1  0
 24 25  1  0
 24 45  1  0
 24 46  1  0
 25 28  1  0
 25 26  1  0
 25 47  1  1
 26 27  1  0
 26 48  1  0
 26 49  1  0
 27 28  1  0
 27 50  1  6
 28 51  1  0
 28 52  1  0
 30 31  1  0
 30 53  1  0
 30 54  1  0
 31 55  1  0
M  CHG  1   6   1
M  END
>  <DOCK_score>  (1) 
-40.963264

>  <SMILES>  (1) 
O=C1CC(C[NH2+]Cc2c[nH]nc2-c2ccc(NC[C@H]3CC4CC3C4)o2)CN1

$$$$
