C=CN(CCO)CC1CC[N@H+]1Cc1ccccc1
     RDKit          3D

 41 42  0  0  1  0  0  0  0  0999 V2000
  130.3257  137.1408  160.3279 C   0  0  0  0  0  0  0  0  0  0  0  0
  129.5909  136.2003  160.8913 C   0  0  0  0  0  0  0  0  0  0  0  0
  128.8705  135.3147  160.0999 N   0  0  0  0  0  0  0  0  0  0  0  0
  127.6163  134.7424  160.5964 C   0  0  0  0  0  0  0  0  0  0  0  0
  126.4869  135.7593  160.4201 C   0  0  0  0  0  0  0  0  0  0  0  0
  125.2637  135.2013  160.9043 O   0  0  0  0  0  0  0  0  0  0  0  0
  129.3645  134.9528  158.7691 C   0  0  0  0  0  0  0  0  0  0  0  0
  130.7414  134.2981  158.8969 C   0  0  1  0  0  0  0  0  0  0  0  0
  130.7276  132.9720  159.6785 C   0  0  0  0  0  0  0  0  0  0  0  0
  131.6931  132.4422  158.6030 C   0  0  0  0  0  0  0  0  0  0  0  0
  131.1271  133.4867  157.7212 N   0  0  1  0  0  0  0  0  0  0  0  0
  131.8233  133.9350  157.1448 H   0  0  0  0  0  0  0  0  0  0  0  0
  129.9717  133.0172  156.9449 C   0  0  0  0  0  0  0  0  0  0  0  0
  130.4523  132.2028  155.7716 C   0  0  0  0  0  0  0  0  0  0  0  0
  130.7140  132.8200  154.5627 C   0  0  0  0  0  0  0  0  0  0  0  0
  131.1591  132.0736  153.4876 C   0  0  0  0  0  0  0  0  0  0  0  0
  131.3339  130.7087  153.6189 C   0  0  0  0  0  0  0  0  0  0  0  0
  131.0672  130.0907  154.8263 C   0  0  0  0  0  0  0  0  0  0  0  0
  130.6262  130.8377  155.9025 C   0  0  0  0  0  0  0  0  0  0  0  0
  130.8439  137.8620  160.9427 H   0  0  0  0  0  0  0  0  0  0  0  0
  130.4126  137.1865  159.2525 H   0  0  0  0  0  0  0  0  0  0  0  0
  129.5499  136.1192  161.9675 H   0  0  0  0  0  0  0  0  0  0  0  0
  127.3822  133.8382  160.0347 H   0  0  0  0  0  0  0  0  0  0  0  0
  127.7223  134.4966  161.6530 H   0  0  0  0  0  0  0  0  0  0  0  0
  126.7211  136.6634  160.9818 H   0  0  0  0  0  0  0  0  0  0  0  0
  126.3810  136.0052  159.3635 H   0  0  0  0  0  0  0  0  0  0  0  0
  124.5027  135.7924  160.8237 H   0  0  0  0  0  0  0  0  0  0  0  0
  128.6714  134.2531  158.3022 H   0  0  0  0  0  0  0  0  0  0  0  0
  129.4442  135.8497  158.1549 H   0  0  0  0  0  0  0  0  0  0  0  0
  131.5139  134.9934  159.2253 H   0  0  0  0  0  0  0  0  0  0  0  0
  131.1726  133.0431  160.6710 H   0  0  0  0  0  0  0  0  0  0  0  0
  129.7573  132.4753  159.6826 H   0  0  0  0  0  0  0  0  0  0  0  0
  132.7452  132.5938  158.8442 H   0  0  0  0  0  0  0  0  0  0  0  0
  131.4737  131.4250  158.2787 H   0  0  0  0  0  0  0  0  0  0  0  0
  129.3346  132.4004  157.5786 H   0  0  0  0  0  0  0  0  0  0  0  0
  129.4039  133.8747  156.5838 H   0  0  0  0  0  0  0  0  0  0  0  0
  130.5740  133.8859  154.4590 H   0  0  0  0  0  0  0  0  0  0  0  0
  131.3678  132.5566  152.5444 H   0  0  0  0  0  0  0  0  0  0  0  0
  131.6790  130.1252  152.7781 H   0  0  0  0  0  0  0  0  0  0  0  0
  131.2037  129.0242  154.9288 H   0  0  0  0  0  0  0  0  0  0  0  0
  130.4178  130.3549  156.8459 H   0  0  0  0  0  0  0  0  0  0  0  0
  1  2  2  0
  1 20  1  0
  1 21  1  0
  2  3  1  0
  2 22  1  0
  3  4  1  0
  3  7  1  0
  4  5  1  0
  4 23  1  0
  4 24  1  0
  5  6  1  0
  5 25  1  0
  5 26  1  0
  6 27  1  0
  7  8  1  0
  7 28  1  0
  7 29  1  0
  8 11  1  0
  8  9  1  0
  8 30  1  1
  9 10  1  0
  9 31  1  0
  9 32  1  0
 10 11  1  0
 10 33  1  0
 10 34  1  0
 11 12  1  6
 11 13  1  0
 13 14  1  0
 13 35  1  0
 13 36  1  0
 14 19  1  0
 14 15  2  0
 15 16  1  0
 15 37  1  0
 16 17  2  0
 16 38  1  0
 17 18  1  0
 17 39  1  0
 18 19  2  0
 18 40  1  0
 19 41  1  0
M  CHG  1  11   1
M  END
>  <DOCK_score>  (1) 
-42.99366

>  <SMILES>  (1) 
C=CN(CCO)CC1CC[N@H+]1Cc1ccccc1

$$$$
