Nc1ccc(-c2c[nH]c(N[C@H](CO)CCBr)[nH+]2)cc1
     RDKit          3D

 37 38  0  0  1  0  0  0  0  0999 V2000
  131.1064  129.8176  150.5407 N   0  0  0  0  0  0  0  0  0  0  0  0
  131.0168  130.2990  151.8490 C   0  0  0  0  0  0  0  0  0  0  0  0
  130.2638  131.4350  152.1203 C   0  0  0  0  0  0  0  0  0  0  0  0
  130.1740  131.9120  153.4110 C   0  0  0  0  0  0  0  0  0  0  0  0
  130.8394  131.2537  154.4441 C   0  0  0  0  0  0  0  0  0  0  0  0
  130.7443  131.7650  155.8335 C   0  0  0  0  0  0  0  0  0  0  0  0
  130.2462  131.0910  156.8993 C   0  0  0  0  0  0  0  0  0  0  0  0
  130.3479  131.9293  157.9842 N   0  0  0  0  0  0  0  0  0  0  0  0
  130.0731  131.7293  158.8927 H   0  0  0  0  0  0  0  0  0  0  0  0
  130.9058  133.0912  157.5480 C   0  0  0  0  0  0  0  0  0  0  0  0
  131.1796  134.1986  158.3325 N   0  0  0  0  0  0  0  0  0  0  0  0
  130.8642  134.1789  159.7630 C   0  0  2  0  0  0  0  0  0  0  0  0
  129.9069  133.6811  159.9173 H   0  0  0  0  0  0  0  0  0  0  0  0
  130.7831  135.6140  160.2871 C   0  0  0  0  0  0  0  0  0  0  0  0
  132.0381  136.2667  160.0848 O   0  0  0  0  0  0  0  0  0  0  0  0
  131.9598  133.4220  160.5164 C   0  0  0  0  0  0  0  0  0  0  0  0
  131.9218  133.8089  161.9962 C   0  0  0  0  0  0  0  0  0  0  0  0
  130.1668  133.3436  162.7502 Br  0  0  0  0  0  0  0  0  0  0  0  0
  131.1360  132.9912  156.2615 N   0  0  0  0  0  0  0  0  0  0  0  0
  131.5263  133.6830  155.7046 H   0  0  0  0  0  0  0  0  0  0  0  0
  131.5986  130.1175  154.1688 C   0  0  0  0  0  0  0  0  0  0  0  0
  131.6806  129.6405  152.8775 C   0  0  0  0  0  0  0  0  0  0  0  0
  130.6431  130.2760  149.8225 H   0  0  0  0  0  0  0  0  0  0  0  0
  131.6316  129.0244  150.3506 H   0  0  0  0  0  0  0  0  0  0  0  0
  129.7489  131.9450  151.3196 H   0  0  0  0  0  0  0  0  0  0  0  0
  129.5886  132.7948  153.6214 H   0  0  0  0  0  0  0  0  0  0  0  0
  129.8457  130.0880  156.8965 H   0  0  0  0  0  0  0  0  0  0  0  0
  131.5802  134.9875  157.9350 H   0  0  0  0  0  0  0  0  0  0  0  0
  130.0024  136.1533  159.7505 H   0  0  0  0  0  0  0  0  0  0  0  0
  130.5485  135.5995  161.3515 H   0  0  0  0  0  0  0  0  0  0  0  0
  132.3109  136.3163  159.1584 H   0  0  0  0  0  0  0  0  0  0  0  0
  131.7946  132.3493  160.4168 H   0  0  0  0  0  0  0  0  0  0  0  0
  132.9329  133.6800  160.0984 H   0  0  0  0  0  0  0  0  0  0  0  0
  132.7024  133.2698  162.5329 H   0  0  0  0  0  0  0  0  0  0  0  0
  132.0871  134.8817  162.0956 H   0  0  0  0  0  0  0  0  0  0  0  0
  132.1185  129.6085  154.9669 H   0  0  0  0  0  0  0  0  0  0  0  0
  132.2651  128.7577  152.6644 H   0  0  0  0  0  0  0  0  0  0  0  0
  1  2  1  0
  1 23  1  0
  1 24  1  0
  2 22  2  0
  2  3  1  0
  3  4  2  0
  3 25  1  0
  4  5  1  0
  4 26  1  0
  5  6  1  0
  5 21  2  0
  6 19  1  0
  6  7  2  0
  7  8  1  0
  7 27  1  0
  8  9  1  0
  8 10  1  0
 10 11  1  0
 10 19  2  0
 11 12  1  0
 11 28  1  0
 12 13  1  6
 12 14  1  0
 12 16  1  0
 14 15  1  0
 14 29  1  0
 14 30  1  0
 15 31  1  0
 16 17  1  0
 16 32  1  0
 16 33  1  0
 17 18  1  0
 17 34  1  0
 17 35  1  0
 19 20  1  0
 21 22  1  0
 21 36  1  0
 22 37  1  0
M  CHG  1  19   1
M  END
>  <DOCK_score>  (1) 
-59.536427

>  <SMILES>  (1) 
Nc1ccc(-c2c[nH]c(N[C@H](CO)CCBr)[nH+]2)cc1

$$$$
