Cn1nccc1[C@@H](c1ccccc1)C(CCc1ccccc1)Nc1[nH]cc(-c2ccc(N)cc2)[nH+]1
     RDKit          3D

 66 70  0  0  1  0  0  0  0  0999 V2000
  128.5072  136.1705  157.7709 C   0  0  0  0  0  0  0  0  0  0  0  0
  127.9304  135.3067  158.8038 N   0  0  0  0  0  0  0  0  0  0  0  0
  126.9208  134.3544  158.6125 N   0  0  0  0  0  0  0  0  0  0  0  0
  126.6691  133.7884  159.7649 C   0  0  0  0  0  0  0  0  0  0  0  0
  127.5124  134.3576  160.7247 C   0  0  0  0  0  0  0  0  0  0  0  0
  128.2795  135.2855  160.1072 C   0  0  0  0  0  0  0  0  0  0  0  0
  129.3309  136.1460  160.7594 C   0  0  1  0  0  0  0  0  0  0  0  0
  129.3972  137.0990  160.2345 H   0  0  0  0  0  0  0  0  0  0  0  0
  128.9581  136.3903  162.1989 C   0  0  0  0  0  0  0  0  0  0  0  0
  128.1882  137.4875  162.5369 C   0  0  0  0  0  0  0  0  0  0  0  0
  127.8430  137.7095  163.8570 C   0  0  0  0  0  0  0  0  0  0  0  0
  128.2744  136.8386  164.8400 C   0  0  0  0  0  0  0  0  0  0  0  0
  129.0486  135.7442  164.5026 C   0  0  0  0  0  0  0  0  0  0  0  0
  129.3906  135.5201  163.1822 C   0  0  0  0  0  0  0  0  0  0  0  0
  130.6836  135.4339  160.6965 C   0  0  2  0  0  0  0  0  0  0  0  0
  131.7511  136.3076  161.3587 C   0  0  0  0  0  0  0  0  0  0  0  0
  131.8442  137.6453  160.6221 C   0  0  0  0  0  0  0  0  0  0  0  0
  132.8955  138.5058  161.2743 C   0  0  0  0  0  0  0  0  0  0  0  0
  132.5484  139.3601  162.3040 C   0  0  0  0  0  0  0  0  0  0  0  0
  133.5129  140.1491  162.9024 C   0  0  0  0  0  0  0  0  0  0  0  0
  134.8243  140.0847  162.4701 C   0  0  0  0  0  0  0  0  0  0  0  0
  135.1717  139.2300  161.4407 C   0  0  0  0  0  0  0  0  0  0  0  0
  134.2073  138.4404  160.8428 C   0  0  0  0  0  0  0  0  0  0  0  0
  131.0460  135.1966  159.2971 N   0  0  0  0  0  0  0  0  0  0  0  0
  130.6603  134.0233  158.6717 C   0  0  0  0  0  0  0  0  0  0  0  0
  129.9506  133.0148  159.2468 N   0  0  0  0  0  0  0  0  0  0  0  0
  129.6267  132.9887  160.1608 H   0  0  0  0  0  0  0  0  0  0  0  0
  129.7744  132.0413  158.2921 C   0  0  0  0  0  0  0  0  0  0  0  0
  130.3890  132.4795  157.1658 C   0  0  0  0  0  0  0  0  0  0  0  0
  130.4636  131.7545  155.8736 C   0  0  0  0  0  0  0  0  0  0  0  0
  129.9213  132.3228  154.7220 C   0  0  0  0  0  0  0  0  0  0  0  0
  129.9969  131.6497  153.5209 C   0  0  0  0  0  0  0  0  0  0  0  0
  130.6024  130.4003  153.4601 C   0  0  0  0  0  0  0  0  0  0  0  0
  130.6722  129.7177  152.2433 N   0  0  0  0  0  0  0  0  0  0  0  0
  131.1393  129.8294  154.6082 C   0  0  0  0  0  0  0  0  0  0  0  0
  131.0711  130.5014  155.8103 C   0  0  0  0  0  0  0  0  0  0  0  0
  130.9234  133.6982  157.4293 N   0  0  0  0  0  0  0  0  0  0  0  0
  131.4211  134.2422  156.7990 H   0  0  0  0  0  0  0  0  0  0  0  0
  129.3601  135.6695  157.3130 H   0  0  0  0  0  0  0  0  0  0  0  0
  127.7557  136.3778  157.0092 H   0  0  0  0  0  0  0  0  0  0  0  0
  128.8353  137.1070  158.2220 H   0  0  0  0  0  0  0  0  0  0  0  0
  125.9369  133.0150  159.9441 H   0  0  0  0  0  0  0  0  0  0  0  0
  127.5457  134.1013  161.7733 H   0  0  0  0  0  0  0  0  0  0  0  0
  127.8540  138.1697  161.7693 H   0  0  0  0  0  0  0  0  0  0  0  0
  127.2384  138.5647  164.1205 H   0  0  0  0  0  0  0  0  0  0  0  0
  128.0068  137.0134  165.8716 H   0  0  0  0  0  0  0  0  0  0  0  0
  129.3860  135.0640  165.2708 H   0  0  0  0  0  0  0  0  0  0  0  0
  129.9955  134.6652  162.9186 H   0  0  0  0  0  0  0  0  0  0  0  0
  130.6174  134.4809  161.2214 H   0  0  0  0  0  0  0  0  0  0  0  0
  132.7148  135.8002  161.3141 H   0  0  0  0  0  0  0  0  0  0  0  0
  131.4814  136.4843  162.4000 H   0  0  0  0  0  0  0  0  0  0  0  0
  130.8804  138.1526  160.6667 H   0  0  0  0  0  0  0  0  0  0  0  0
  132.1140  137.4687  159.5808 H   0  0  0  0  0  0  0  0  0  0  0  0
  131.5228  139.4145  162.6379 H   0  0  0  0  0  0  0  0  0  0  0  0
  133.2416  140.8168  163.7067 H   0  0  0  0  0  0  0  0  0  0  0  0
  135.5780  140.7011  162.9377 H   0  0  0  0  0  0  0  0  0  0  0  0
  136.1965  139.1788  161.1038 H   0  0  0  0  0  0  0  0  0  0  0  0
  134.4787  137.7726  160.0386 H   0  0  0  0  0  0  0  0  0  0  0  0
  131.5562  135.8615  158.8088 H   0  0  0  0  0  0  0  0  0  0  0  0
  129.2512  131.1048  158.4169 H   0  0  0  0  0  0  0  0  0  0  0  0
  129.4459  133.2913  154.7697 H   0  0  0  0  0  0  0  0  0  0  0  0
  129.5807  132.0915  152.6275 H   0  0  0  0  0  0  0  0  0  0  0  0
  131.0952  128.8455  152.2004 H   0  0  0  0  0  0  0  0  0  0  0  0
  130.2980  130.1151  151.4420 H   0  0  0  0  0  0  0  0  0  0  0  0
  131.6099  128.8585  154.5587 H   0  0  0  0  0  0  0  0  0  0  0  0
  131.4883  130.0575  156.7021 H   0  0  0  0  0  0  0  0  0  0  0  0
  1  2  1  0
  1 39  1  0
  1 40  1  0
  1 41  1  0
  2  6  1  0
  2  3  1  0
  3  4  2  0
  4  5  1  0
  4 42  1  0
  5  6  2  0
  5 43  1  0
  6  7  1  0
  7  8  1  6
  7  9  1  0
  7 15  1  0
  9 14  1  0
  9 10  2  0
 10 11  1  0
 10 44  1  0
 11 12  2  0
 11 45  1  0
 12 13  1  0
 12 46  1  0
 13 14  2  0
 13 47  1  0
 14 48  1  0
 15 16  1  0
 15 24  1  0
 15 49  1  1
 16 17  1  0
 16 50  1  0
 16 51  1  0
 17 18  1  0
 17 52  1  0
 17 53  1  0
 18 23  1  0
 18 19  2  0
 19 20  1  0
 19 54  1  0
 20 21  2  0
 20 55  1  0
 21 22  1  0
 21 56  1  0
 22 23  2  0
 22 57  1  0
 23 58  1  0
 24 59  1  0
 25 24  1  0
 25 37  2  0
 25 26  1  0
 26 27  1  0
 26 28  1  0
 28 29  2  0
 28 60  1  0
 29 30  1  0
 29 37  1  0
 30 36  1  0
 30 31  2  0
 31 32  1  0
 31 61  1  0
 32 33  2  0
 32 62  1  0
 33 34  1  0
 33 35  1  0
 34 63  1  0
 34 64  1  0
 35 36  2  0
 35 65  1  0
 36 66  1  0
 37 38  1  0
M  CHG  1  37   1
M  END
>  <DOCK_score>  (1) 
-63.181717

>  <SMILES>  (1) 
Cn1nccc1[C@@H](c1ccccc1)C(CCc1ccccc1)Nc1[nH]cc(-c2ccc(N)cc2)[nH+]1

$$$$
