CCc1ccc(-c2c[nH]c(N[C@H](Cc3ccc(CO)cc3)c3ccccc3)[nH+]2)cc1
     RDKit          3D

 58 61  0  0  1  0  0  0  0  0999 V2000
  130.4412  128.6528  151.9823 C   0  0  0  0  0  0  0  0  0  0  0  0
  131.5353  129.6721  152.3058 C   0  0  0  0  0  0  0  0  0  0  0  0
  131.1418  130.4606  153.5284 C   0  0  0  0  0  0  0  0  0  0  0  0
  131.5094  130.0132  154.7841 C   0  0  0  0  0  0  0  0  0  0  0  0
  131.1569  130.7340  155.9070 C   0  0  0  0  0  0  0  0  0  0  0  0
  130.4190  131.9090  155.7743 C   0  0  0  0  0  0  0  0  0  0  0  0
  130.0323  132.6851  156.9778 C   0  0  0  0  0  0  0  0  0  0  0  0
  129.2763  132.2342  158.0093 C   0  0  0  0  0  0  0  0  0  0  0  0
  129.1637  133.2706  158.9039 N   0  0  0  0  0  0  0  0  0  0  0  0
  128.6805  133.2538  159.7448 H   0  0  0  0  0  0  0  0  0  0  0  0
  129.8549  134.3255  158.3924 C   0  0  0  0  0  0  0  0  0  0  0  0
  129.9890  135.5673  158.9893 N   0  0  0  0  0  0  0  0  0  0  0  0
  129.3553  135.8301  160.2838 C   0  0  2  0  0  0  0  0  0  0  0  0
  128.3679  135.3689  160.3051 H   0  0  0  0  0  0  0  0  0  0  0  0
  129.2173  137.3404  160.4868 C   0  0  0  0  0  0  0  0  0  0  0  0
  130.5825  137.9780  160.4572 C   0  0  0  0  0  0  0  0  0  0  0  0
  131.1128  138.4207  159.2599 C   0  0  0  0  0  0  0  0  0  0  0  0
  132.3628  139.0104  159.2335 C   0  0  0  0  0  0  0  0  0  0  0  0
  133.0873  139.1471  160.4029 C   0  0  0  0  0  0  0  0  0  0  0  0
  134.4527  139.7843  160.3732 C   0  0  0  0  0  0  0  0  0  0  0  0
  135.2016  139.2552  159.2773 O   0  0  0  0  0  0  0  0  0  0  0  0
  132.5593  138.6995  161.5994 C   0  0  0  0  0  0  0  0  0  0  0  0
  131.3069  138.1150  161.6266 C   0  0  0  0  0  0  0  0  0  0  0  0
  130.2044  135.2507  161.3857 C   0  0  0  0  0  0  0  0  0  0  0  0
  129.6132  134.8116  162.5555 C   0  0  0  0  0  0  0  0  0  0  0  0
  130.3915  134.2761  163.5645 C   0  0  0  0  0  0  0  0  0  0  0  0
  131.7622  134.1881  163.4075 C   0  0  0  0  0  0  0  0  0  0  0  0
  132.3539  134.6320  162.2397 C   0  0  0  0  0  0  0  0  0  0  0  0
  131.5750  135.1636  161.2289 C   0  0  0  0  0  0  0  0  0  0  0  0
  130.3774  133.9699  157.2441 N   0  0  0  0  0  0  0  0  0  0  0  0
  130.9218  134.5357  156.6746 H   0  0  0  0  0  0  0  0  0  0  0  0
  130.0464  132.3523  154.5066 C   0  0  0  0  0  0  0  0  0  0  0  0
  130.4094  131.6264  153.3903 C   0  0  0  0  0  0  0  0  0  0  0  0
  130.7257  128.0827  151.0980 H   0  0  0  0  0  0  0  0  0  0  0  0
  130.3157  127.9751  152.8267 H   0  0  0  0  0  0  0  0  0  0  0  0
  129.5031  129.1742  151.7922 H   0  0  0  0  0  0  0  0  0  0  0  0
  132.4732  129.1514  152.4953 H   0  0  0  0  0  0  0  0  0  0  0  0
  131.6606  130.3505  151.4609 H   0  0  0  0  0  0  0  0  0  0  0  0
  132.0770  129.1001  154.8861 H   0  0  0  0  0  0  0  0  0  0  0  0
  131.4484  130.3861  156.8870 H   0  0  0  0  0  0  0  0  0  0  0  0
  128.8449  131.2491  158.1084 H   0  0  0  0  0  0  0  0  0  0  0  0
  130.5028  136.2634  158.5506 H   0  0  0  0  0  0  0  0  0  0  0  0
  128.6034  137.7595  159.6897 H   0  0  0  0  0  0  0  0  0  0  0  0
  128.7458  137.5360  161.4498 H   0  0  0  0  0  0  0  0  0  0  0  0
  130.5488  138.3097  158.3455 H   0  0  0  0  0  0  0  0  0  0  0  0
  132.7753  139.3604  158.2987 H   0  0  0  0  0  0  0  0  0  0  0  0
  134.3478  140.8628  160.2546 H   0  0  0  0  0  0  0  0  0  0  0  0
  134.9736  139.5704  161.3064 H   0  0  0  0  0  0  0  0  0  0  0  0
  134.7962  139.4091  158.4130 H   0  0  0  0  0  0  0  0  0  0  0  0
  133.1253  138.8063  162.5129 H   0  0  0  0  0  0  0  0  0  0  0  0
  130.8945  137.7650  162.5614 H   0  0  0  0  0  0  0  0  0  0  0  0
  128.5427  134.8837  162.6798 H   0  0  0  0  0  0  0  0  0  0  0  0
  129.9293  133.9288  164.4767 H   0  0  0  0  0  0  0  0  0  0  0  0
  132.3705  133.7722  164.1970 H   0  0  0  0  0  0  0  0  0  0  0  0
  133.4247  134.5633  162.1170 H   0  0  0  0  0  0  0  0  0  0  0  0
  132.0374  135.5105  160.3166 H   0  0  0  0  0  0  0  0  0  0  0  0
  129.4744  133.2620  154.3979 H   0  0  0  0  0  0  0  0  0  0  0  0
  130.1209  131.9688  152.4075 H   0  0  0  0  0  0  0  0  0  0  0  0
  1  2  1  0
  1 34  1  0
  1 35  1  0
  1 36  1  0
  2  3  1  0
  2 37  1  0
  2 38  1  0
  3 33  2  0
  3  4  1  0
  4  5  2  0
  4 39  1  0
  5  6  1  0
  5 40  1  0
  6  7  1  0
  6 32  2  0
  7 30  1  0
  7  8  2  0
  8  9  1  0
  8 41  1  0
  9 10  1  0
  9 11  1  0
 11 12  1  0
 11 30  2  0
 12 13  1  0
 12 42  1  0
 13 14  1  6
 13 15  1  0
 13 24  1  0
 15 16  1  0
 15 43  1  0
 15 44  1  0
 16 23  1  0
 16 17  2  0
 17 18  1  0
 17 45  1  0
 18 19  2  0
 18 46  1  0
 19 20  1  0
 19 22  1  0
 20 21  1  0
 20 47  1  0
 20 48  1  0
 21 49  1  0
 22 23  2  0
 22 50  1  0
 23 51  1  0
 24 29  1  0
 24 25  2  0
 25 26  1  0
 25 52  1  0
 26 27  2  0
 26 53  1  0
 27 28  1  0
 27 54  1  0
 28 29  2  0
 28 55  1  0
 29 56  1  0
 30 31  1  0
 32 33  1  0
 32 57  1  0
 33 58  1  0
M  CHG  1  30   1
M  END
>  <DOCK_score>  (1) 
-57.39233

>  <SMILES>  (1) 
CCc1ccc(-c2c[nH]c(N[C@H](Cc3ccc(CO)cc3)c3ccccc3)[nH+]2)cc1

$$$$
