Cc1ccc([C@H](CCSC2CCCCC2)Nc2[nH]cc(-c3ccc(Br)cc3)[nH+]2)[nH]1
     RDKit          3D

 59 62  0  0  1  0  0  0  0  0999 V2000
  124.6230  134.6710  161.8597 C   0  0  0  0  0  0  0  0  0  0  0  0
  125.8388  135.1006  161.0799 C   0  0  0  0  0  0  0  0  0  0  0  0
  125.8533  135.4888  159.7886 C   0  0  0  0  0  0  0  0  0  0  0  0
  127.1861  135.8038  159.4578 C   0  0  0  0  0  0  0  0  0  0  0  0
  127.9353  135.5960  160.5596 C   0  0  0  0  0  0  0  0  0  0  0  0
  129.4238  135.8051  160.6681 C   0  0  2  0  0  0  0  0  0  0  0  0
  129.8358  135.1104  161.4001 H   0  0  0  0  0  0  0  0  0  0  0  0
  129.7061  137.2414  161.1131 C   0  0  0  0  0  0  0  0  0  0  0  0
  131.1176  137.3262  161.6974 C   0  0  0  0  0  0  0  0  0  0  0  0
  132.3249  136.8358  160.4354 S   0  0  0  0  0  0  0  0  0  0  0  0
  133.9101  136.9984  161.3022 C   0  0  0  0  0  0  0  0  0  0  0  0
  133.9229  136.0718  162.5198 C   0  0  0  0  0  0  0  0  0  0  0  0
  135.2599  136.2090  163.2508 C   0  0  0  0  0  0  0  0  0  0  0  0
  135.4442  137.6569  163.7097 C   0  0  0  0  0  0  0  0  0  0  0  0
  135.4313  138.5833  162.4922 C   0  0  0  0  0  0  0  0  0  0  0  0
  134.0943  138.4462  161.7610 C   0  0  0  0  0  0  0  0  0  0  0  0
  130.0468  135.5665  159.3638 N   0  0  0  0  0  0  0  0  0  0  0  0
  129.9263  134.3289  158.7552 C   0  0  0  0  0  0  0  0  0  0  0  0
  129.2534  133.2592  159.2603 N   0  0  0  0  0  0  0  0  0  0  0  0
  128.7764  133.2268  160.1043 H   0  0  0  0  0  0  0  0  0  0  0  0
  129.3743  132.2336  158.3542 C   0  0  0  0  0  0  0  0  0  0  0  0
  130.1169  132.7057  157.3224 C   0  0  0  0  0  0  0  0  0  0  0  0
  130.5057  131.9477  156.1081 C   0  0  0  0  0  0  0  0  0  0  0  0
  130.1074  132.3924  154.8486 C   0  0  0  0  0  0  0  0  0  0  0  0
  130.4771  131.6870  153.7218 C   0  0  0  0  0  0  0  0  0  0  0  0
  131.2317  130.5327  153.8416 C   0  0  0  0  0  0  0  0  0  0  0  0
  131.7274  129.5663  152.2936 Br  0  0  0  0  0  0  0  0  0  0  0  0
  131.6251  130.0838  155.0903 C   0  0  0  0  0  0  0  0  0  0  0  0
  131.2660  130.7852  156.2230 C   0  0  0  0  0  0  0  0  0  0  0  0
  130.4364  133.9959  157.5947 N   0  0  0  0  0  0  0  0  0  0  0  0
  130.9608  134.5782  157.0229 H   0  0  0  0  0  0  0  0  0  0  0  0
  127.1138  135.1643  161.5585 N   0  0  0  0  0  0  0  0  0  0  0  0
  127.3906  134.9402  162.4607 H   0  0  0  0  0  0  0  0  0  0  0  0
  124.4874  133.5943  161.7572 H   0  0  0  0  0  0  0  0  0  0  0  0
  124.7586  134.9216  162.9118 H   0  0  0  0  0  0  0  0  0  0  0  0
  123.7431  135.1862  161.4740 H   0  0  0  0  0  0  0  0  0  0  0  0
  125.0006  135.5438  159.1279 H   0  0  0  0  0  0  0  0  0  0  0  0
  127.5425  136.1479  158.4980 H   0  0  0  0  0  0  0  0  0  0  0  0
  129.6271  137.9095  160.2556 H   0  0  0  0  0  0  0  0  0  0  0  0
  128.9807  137.5361  161.8714 H   0  0  0  0  0  0  0  0  0  0  0  0
  131.3187  138.3495  162.0145 H   0  0  0  0  0  0  0  0  0  0  0  0
  131.1967  136.6580  162.5549 H   0  0  0  0  0  0  0  0  0  0  0  0
  134.7222  136.7245  160.6288 H   0  0  0  0  0  0  0  0  0  0  0  0
  133.1109  136.3457  163.1932 H   0  0  0  0  0  0  0  0  0  0  0  0
  133.7916  135.0405  162.1929 H   0  0  0  0  0  0  0  0  0  0  0  0
  136.0721  135.9351  162.5775 H   0  0  0  0  0  0  0  0  0  0  0  0
  135.2691  135.5490  164.1183 H   0  0  0  0  0  0  0  0  0  0  0  0
  136.3967  137.7545  164.2305 H   0  0  0  0  0  0  0  0  0  0  0  0
  134.6320  137.9307  164.3832 H   0  0  0  0  0  0  0  0  0  0  0  0
  136.2435  138.3095  161.8187 H   0  0  0  0  0  0  0  0  0  0  0  0
  135.5625  139.6148  162.8191 H   0  0  0  0  0  0  0  0  0  0  0  0
  134.0851  139.1062  160.8936 H   0  0  0  0  0  0  0  0  0  0  0  0
  133.2822  138.7201  162.4345 H   0  0  0  0  0  0  0  0  0  0  0  0
  130.5438  136.2755  158.9268 H   0  0  0  0  0  0  0  0  0  0  0  0
  128.9573  131.2417  158.4458 H   0  0  0  0  0  0  0  0  0  0  0  0
  129.5141  133.2902  154.7546 H   0  0  0  0  0  0  0  0  0  0  0  0
  130.1730  132.0334  152.7451 H   0  0  0  0  0  0  0  0  0  0  0  0
  132.2137  129.1826  155.1782 H   0  0  0  0  0  0  0  0  0  0  0  0
  131.5737  130.4341  157.1969 H   0  0  0  0  0  0  0  0  0  0  0  0
  1  2  1  0
  1 34  1  0
  1 35  1  0
  1 36  1  0
  2 32  1  0
  2  3  2  0
  3  4  1  0
  3 37  1  0
  4  5  2  0
  4 38  1  0
  5  6  1  0
  5 32  1  0
  6  7  1  1
  6  8  1  0
  6 17  1  0
  8  9  1  0
  8 39  1  0
  8 40  1  0
  9 10  1  0
  9 41  1  0
  9 42  1  0
 10 11  1  0
 11 16  1  0
 11 12  1  0
 11 43  1  0
 12 13  1  0
 12 44  1  0
 12 45  1  0
 13 14  1  0
 13 46  1  0
 13 47  1  0
 14 15  1  0
 14 48  1  0
 14 49  1  0
 15 16  1  0
 15 50  1  0
 15 51  1  0
 16 52  1  0
 16 53  1  0
 17 54  1  0
 18 17  1  0
 18 30  2  0
 18 19  1  0
 19 20  1  0
 19 21  1  0
 21 22  2  0
 21 55  1  0
 22 23  1  0
 22 30  1  0
 23 29  1  0
 23 24  2  0
 24 25  1  0
 24 56  1  0
 25 26  2  0
 25 57  1  0
 26 27  1  0
 26 28  1  0
 28 29  2  0
 28 58  1  0
 29 59  1  0
 30 31  1  0
 32 33  1  0
M  CHG  1  30   1
M  END
>  <DOCK_score>  (1) 
-56.571068

>  <SMILES>  (1) 
Cc1ccc([C@H](CCSC2CCCCC2)Nc2[nH]cc(-c3ccc(Br)cc3)[nH+]2)[nH]1

$$$$
