C1=Cc2ccc(-c3cc(NCC[N@@H+]4CCc5ccccc5C4)cc(C4CC4)c3)cc2C1
     RDKit          3D

 62 67  0  0  1  0  0  0  0  0999 V2000
  138.6636  136.5829  167.3354 C   0  0  0  0  0  0  0  0  0  0  0  0
  137.8467  135.5925  167.0195 C   0  0  0  0  0  0  0  0  0  0  0  0
  137.1279  135.8776  165.7647 C   0  0  0  0  0  0  0  0  0  0  0  0
  136.1790  135.1420  165.0467 C   0  0  0  0  0  0  0  0  0  0  0  0
  135.6510  135.6494  163.8817 C   0  0  0  0  0  0  0  0  0  0  0  0
  136.0654  136.8933  163.4056 C   0  0  0  0  0  0  0  0  0  0  0  0
  135.4975  137.4344  162.1471 C   0  0  0  0  0  0  0  0  0  0  0  0
  134.1980  137.1046  161.7688 C   0  0  0  0  0  0  0  0  0  0  0  0
  133.6749  137.6098  160.5881 C   0  0  0  0  0  0  0  0  0  0  0  0
  132.3740  137.2782  160.2019 N   0  0  0  0  0  0  0  0  0  0  0  0
  131.4181  136.7844  161.1963 C   0  0  0  0  0  0  0  0  0  0  0  0
  130.0776  136.4977  160.5168 C   0  0  0  0  0  0  0  0  0  0  0  0
  130.2654  135.4825  159.4718 N   0  0  2  0  0  0  0  0  0  0  0  0
  130.9234  135.8203  158.7855 H   0  0  0  0  0  0  0  0  0  0  0  0
  128.9764  135.2014  158.8214 C   0  0  0  0  0  0  0  0  0  0  0  0
  129.2332  134.3864  157.5532 C   0  0  0  0  0  0  0  0  0  0  0  0
  130.1107  133.2038  157.8755 C   0  0  0  0  0  0  0  0  0  0  0  0
  130.1840  132.1621  156.9639 C   0  0  0  0  0  0  0  0  0  0  0  0
  130.9791  131.0638  157.2238 C   0  0  0  0  0  0  0  0  0  0  0  0
  131.7057  131.0031  158.3983 C   0  0  0  0  0  0  0  0  0  0  0  0
  131.6324  132.0396  159.3070 C   0  0  0  0  0  0  0  0  0  0  0  0
  130.8329  133.1431  159.0483 C   0  0  0  0  0  0  0  0  0  0  0  0
  130.7777  134.2476  160.0705 C   0  0  0  0  0  0  0  0  0  0  0  0
  134.4434  138.4510  159.7917 C   0  0  0  0  0  0  0  0  0  0  0  0
  135.7306  138.7813  160.1703 C   0  0  0  0  0  0  0  0  0  0  0  0
  136.5582  139.6938  159.3021 C   0  0  0  0  0  0  0  0  0  0  0  0
  137.7323  140.4214  159.9599 C   0  0  0  0  0  0  0  0  0  0  0  0
  136.4708  141.1972  159.5727 C   0  0  0  0  0  0  0  0  0  0  0  0
  136.2608  138.2784  161.3417 C   0  0  0  0  0  0  0  0  0  0  0  0
  137.0117  137.6303  164.1195 C   0  0  0  0  0  0  0  0  0  0  0  0
  137.5343  137.1255  165.2843 C   0  0  0  0  0  0  0  0  0  0  0  0
  138.5484  137.6498  166.2721 C   0  0  0  0  0  0  0  0  0  0  0  0
  139.3036  136.6223  168.2045 H   0  0  0  0  0  0  0  0  0  0  0  0
  137.7224  134.6929  167.6040 H   0  0  0  0  0  0  0  0  0  0  0  0
  135.8582  134.1764  165.4089 H   0  0  0  0  0  0  0  0  0  0  0  0
  134.9157  135.0805  163.3318 H   0  0  0  0  0  0  0  0  0  0  0  0
  133.6012  136.4545  162.3912 H   0  0  0  0  0  0  0  0  0  0  0  0
  132.1036  137.3747  159.2754 H   0  0  0  0  0  0  0  0  0  0  0  0
  131.2789  137.5376  161.9717 H   0  0  0  0  0  0  0  0  0  0  0  0
  131.8015  135.8678  161.6448 H   0  0  0  0  0  0  0  0  0  0  0  0
  129.6942  137.4142  160.0683 H   0  0  0  0  0  0  0  0  0  0  0  0
  129.3665  136.1302  161.2568 H   0  0  0  0  0  0  0  0  0  0  0  0
  128.4859  136.1392  158.5606 H   0  0  0  0  0  0  0  0  0  0  0  0
  128.3407  134.6322  159.4997 H   0  0  0  0  0  0  0  0  0  0  0  0
  128.2836  134.0339  157.1504 H   0  0  0  0  0  0  0  0  0  0  0  0
  129.7290  135.0144  156.8129 H   0  0  0  0  0  0  0  0  0  0  0  0
  129.6163  132.2097  156.0464 H   0  0  0  0  0  0  0  0  0  0  0  0
  131.0334  130.2541  156.5111 H   0  0  0  0  0  0  0  0  0  0  0  0
  132.3301  130.1463  158.6045 H   0  0  0  0  0  0  0  0  0  0  0  0
  132.2003  131.9910  160.2243 H   0  0  0  0  0  0  0  0  0  0  0  0
  130.1213  133.9485  160.8877 H   0  0  0  0  0  0  0  0  0  0  0  0
  131.7794  134.4257  160.4616 H   0  0  0  0  0  0  0  0  0  0  0  0
  134.0336  138.8472  158.8744 H   0  0  0  0  0  0  0  0  0  0  0  0
  136.6798  139.3750  158.2670 H   0  0  0  0  0  0  0  0  0  0  0  0
  137.9062  140.2403  161.0206 H   0  0  0  0  0  0  0  0  0  0  0  0
  138.6265  140.5816  159.3575 H   0  0  0  0  0  0  0  0  0  0  0  0
  136.5355  141.8673  158.7155 H   0  0  0  0  0  0  0  0  0  0  0  0
  135.8147  141.5263  160.3784 H   0  0  0  0  0  0  0  0  0  0  0  0
  137.2672  138.5391  161.6345 H   0  0  0  0  0  0  0  0  0  0  0  0
  137.3324  138.5955  163.7562 H   0  0  0  0  0  0  0  0  0  0  0  0
  139.5103  137.7993  165.7817 H   0  0  0  0  0  0  0  0  0  0  0  0
  138.1989  138.5842  166.7112 H   0  0  0  0  0  0  0  0  0  0  0  0
  1 32  1  0
  1  2  2  0
  1 33  1  0
  2  3  1  0
  2 34  1  0
  3 31  2  0
  3  4  1  0
  4  5  2  0
  4 35  1  0
  5  6  1  0
  5 36  1  0
  6  7  1  0
  6 30  2  0
  7 29  1  0
  7  8  2  0
  8  9  1  0
  8 37  1  0
  9 10  1  0
  9 24  2  0
 10 11  1  0
 10 38  1  0
 11 12  1  0
 11 39  1  0
 11 40  1  0
 12 13  1  0
 12 41  1  0
 12 42  1  0
 13 14  1  6
 13 23  1  0
 13 15  1  0
 15 16  1  0
 15 43  1  0
 15 44  1  0
 16 17  1  0
 16 45  1  0
 16 46  1  0
 17 22  2  0
 17 18  1  0
 18 19  2  0
 18 47  1  0
 19 20  1  0
 19 48  1  0
 20 21  2  0
 20 49  1  0
 21 22  1  0
 21 50  1  0
 22 23  1  0
 23 51  1  0
 23 52  1  0
 24 25  1  0
 24 53  1  0
 25 26  1  0
 25 29  2  0
 26 28  1  0
 26 27  1  0
 26 54  1  0
 27 28  1  0
 27 55  1  0
 27 56  1  0
 28 57  1  0
 28 58  1  0
 29 59  1  0
 30 31  1  0
 30 60  1  0
 31 32  1  0
 32 61  1  0
 32 62  1  0
M  CHG  1  13   1
M  END
>  <DOCK_score>  (1) 
-56.434334

>  <SMILES>  (1) 
C1=Cc2ccc(-c3cc(NCC[N@@H+]4CCc5ccccc5C4)cc(C4CC4)c3)cc2C1

$$$$
