CC=CC=CC=C[C@@H]1C=CCC(C[NH+]2CCN(C(Cc3ccccc3)C(F)(F)F)CC2)=C1
     RDKit          3D

 66 68  0  0  1  0  0  0  0  0999 V2000
  136.8211  143.0603  167.2366 C   0  0  0  0  0  0  0  0  0  0  0  0
  136.8407  142.2431  165.9707 C   0  0  0  0  0  0  0  0  0  0  0  0
  135.7797  141.5098  165.6342 C   0  0  0  0  0  0  0  0  0  0  0  0
  135.7989  140.7154  164.4038 C   0  0  0  0  0  0  0  0  0  0  0  0
  134.7250  139.9733  164.0633 C   0  0  0  0  0  0  0  0  0  0  0  0
  134.7442  139.1789  162.8328 C   0  0  0  0  0  0  0  0  0  0  0  0
  133.6831  138.4456  162.4964 C   0  0  0  0  0  0  0  0  0  0  0  0
  133.7028  137.6282  161.2305 C   0  0  2  0  0  0  0  0  0  0  0  0
  134.5197  136.9083  161.2829 H   0  0  0  0  0  0  0  0  0  0  0  0
  133.9250  138.5392  160.0608 C   0  0  0  0  0  0  0  0  0  0  0  0
  132.9655  138.9349  159.2833 C   0  0  0  0  0  0  0  0  0  0  0  0
  131.5382  138.5202  159.4786 C   0  0  0  0  0  0  0  0  0  0  0  0
  131.4435  137.2860  160.3241 C   0  0  0  0  0  0  0  0  0  0  0  0
  130.1781  136.4693  160.2684 C   0  0  0  0  0  0  0  0  0  0  0  0
  130.2969  135.4534  159.2140 N   0  0  0  0  0  0  0  0  0  0  0  0
  130.7582  135.8544  158.4112 H   0  0  0  0  0  0  0  0  0  0  0  0
  128.9576  134.9903  158.8276 C   0  0  0  0  0  0  0  0  0  0  0  0
  129.0799  133.9456  157.7161 C   0  0  0  0  0  0  0  0  0  0  0  0
  129.8881  132.8159  158.1962 N   0  0  0  0  0  0  0  0  0  0  0  0
  129.9816  131.7640  157.1750 C   0  0  1  0  0  0  0  0  0  0  0  0
  131.0417  132.1495  156.1413 C   0  0  0  0  0  0  0  0  0  0  0  0
  130.8132  131.3694  154.8723 C   0  0  0  0  0  0  0  0  0  0  0  0
  131.4263  130.1433  154.6950 C   0  0  0  0  0  0  0  0  0  0  0  0
  131.2129  129.4256  153.5330 C   0  0  0  0  0  0  0  0  0  0  0  0
  130.3945  129.9386  152.5441 C   0  0  0  0  0  0  0  0  0  0  0  0
  129.7855  131.1672  152.7193 C   0  0  0  0  0  0  0  0  0  0  0  0
  129.9948  131.8826  153.8835 C   0  0  0  0  0  0  0  0  0  0  0  0
  130.3732  130.4423  157.8387 C   0  0  0  0  0  0  0  0  0  0  0  0
  129.4038  130.0898  158.7838 F   0  0  0  0  0  0  0  0  0  0  0  0
  130.4622  129.4406  156.8661 F   0  0  0  0  0  0  0  0  0  0  0  0
  131.6116  130.5879  158.4729 F   0  0  0  0  0  0  0  0  0  0  0  0
  131.2238  133.2683  158.6102 C   0  0  0  0  0  0  0  0  0  0  0  0
  131.0838  134.3186  159.7143 C   0  0  0  0  0  0  0  0  0  0  0  0
  132.4045  136.8899  161.1019 C   0  0  0  0  0  0  0  0  0  0  0  0
  136.6743  142.4015  168.0923 H   0  0  0  0  0  0  0  0  0  0  0  0
  137.7686  143.5884  167.3430 H   0  0  0  0  0  0  0  0  0  0  0  0
  136.0060  143.7825  167.1902 H   0  0  0  0  0  0  0  0  0  0  0  0
  137.7146  142.2513  165.3360 H   0  0  0  0  0  0  0  0  0  0  0  0
  134.9058  141.5015  166.2688 H   0  0  0  0  0  0  0  0  0  0  0  0
  136.6744  140.7202  163.7716 H   0  0  0  0  0  0  0  0  0  0  0  0
  133.8512  139.9649  164.6979 H   0  0  0  0  0  0  0  0  0  0  0  0
  135.6180  139.1872  162.1983 H   0  0  0  0  0  0  0  0  0  0  0  0
  132.8093  138.4373  163.1310 H   0  0  0  0  0  0  0  0  0  0  0  0
  134.9286  138.8812  159.8556 H   0  0  0  0  0  0  0  0  0  0  0  0
  133.2048  139.5914  158.4597 H   0  0  0  0  0  0  0  0  0  0  0  0
  131.0873  138.3227  158.5061 H   0  0  0  0  0  0  0  0  0  0  0  0
  130.9944  139.3297  159.9657 H   0  0  0  0  0  0  0  0  0  0  0  0
  130.0195  135.9791  161.2289 H   0  0  0  0  0  0  0  0  0  0  0  0
  129.3334  137.1226  160.0500 H   0  0  0  0  0  0  0  0  0  0  0  0
  128.4637  134.5455  159.6915 H   0  0  0  0  0  0  0  0  0  0  0  0
  128.3704  135.8356  158.4688 H   0  0  0  0  0  0  0  0  0  0  0  0
  129.5614  134.3940  156.8470 H   0  0  0  0  0  0  0  0  0  0  0  0
  128.0870  133.5909  157.4395 H   0  0  0  0  0  0  0  0  0  0  0  0
  129.0167  131.6506  156.6808 H   0  0  0  0  0  0  0  0  0  0  0  0
  130.9715  133.2165  155.9295 H   0  0  0  0  0  0  0  0  0  0  0  0
  132.0324  131.9217  156.5346 H   0  0  0  0  0  0  0  0  0  0  0  0
  132.0691  129.7445  155.4658 H   0  0  0  0  0  0  0  0  0  0  0  0
  131.6888  128.4658  153.3959 H   0  0  0  0  0  0  0  0  0  0  0  0
  130.2313  129.3799  151.6344 H   0  0  0  0  0  0  0  0  0  0  0  0
  129.1465  131.5683  151.9466 H   0  0  0  0  0  0  0  0  0  0  0  0
  129.5194  132.8425  154.0202 H   0  0  0  0  0  0  0  0  0  0  0  0
  131.7406  133.7055  157.7558 H   0  0  0  0  0  0  0  0  0  0  0  0
  131.7955  132.4197  158.9858 H   0  0  0  0  0  0  0  0  0  0  0  0
  132.0729  134.6659  160.0129 H   0  0  0  0  0  0  0  0  0  0  0  0
  130.5790  133.8771  160.5736 H   0  0  0  0  0  0  0  0  0  0  0  0
  132.2626  135.9895  161.6812 H   0  0  0  0  0  0  0  0  0  0  0  0
  1  2  1  0
  1 35  1  0
  1 36  1  0
  1 37  1  0
  2  3  2  0
  2 38  1  0
  3  4  1  0
  3 39  1  0
  4  5  2  0
  4 40  1  0
  5  6  1  0
  5 41  1  0
  6  7  2  0
  6 42  1  0
  7  8  1  0
  7 43  1  0
  8  9  1  1
  8 34  1  0
  8 10  1  0
 10 11  2  0
 10 44  1  0
 11 12  1  0
 11 45  1  0
 12 13  1  0
 12 46  1  0
 12 47  1  0
 13 14  1  0
 13 34  2  0
 14 15  1  0
 14 48  1  0
 14 49  1  0
 15 16  1  0
 15 33  1  0
 15 17  1  0
 17 18  1  0
 17 50  1  0
 17 51  1  0
 18 19  1  0
 18 52  1  0
 18 53  1  0
 19 20  1  0
 19 32  1  0
 20 21  1  0
 20 28  1  0
 20 54  1  6
 21 22  1  0
 21 55  1  0
 21 56  1  0
 22 27  1  0
 22 23  2  0
 23 24  1  0
 23 57  1  0
 24 25  2  0
 24 58  1  0
 25 26  1  0
 25 59  1  0
 26 27  2  0
 26 60  1  0
 27 61  1  0
 28 29  1  0
 28 30  1  0
 28 31  1  0
 32 33  1  0
 32 62  1  0
 32 63  1  0
 33 64  1  0
 33 65  1  0
 34 66  1  0
M  CHG  1  15   1
M  END
>  <DOCK_score>  (1) 
-58.296051

>  <SMILES>  (1) 
CC=CC=CC=C[C@@H]1C=CCC(C[NH+]2CCN(C(Cc3ccccc3)C(F)(F)F)CC2)=C1

$$$$
