Oc1ccc(SCCCl)c(Nc2[nH]cc(-c3ccccc3)[nH+]2)c1
     RDKit          3D

 40 42  0  0  1  0  0  0  0  0999 V2000
  125.4342  135.0920  160.7706 O   0  0  0  0  0  0  0  0  0  0  0  0
  126.5589  134.5211  160.2622 C   0  0  0  0  0  0  0  0  0  0  0  0
  126.6137  133.1481  160.0725 C   0  0  0  0  0  0  0  0  0  0  0  0
  127.7570  132.5629  159.5609 C   0  0  0  0  0  0  0  0  0  0  0  0
  128.8492  133.3493  159.2261 C   0  0  0  0  0  0  0  0  0  0  0  0
  130.3042  132.6043  158.5683 S   0  0  0  0  0  0  0  0  0  0  0  0
  129.7045  131.8040  157.0549 C   0  0  0  0  0  0  0  0  0  0  0  0
  130.8685  131.1000  156.3546 C   0  0  0  0  0  0  0  0  0  0  0  0
  131.5683  129.8555  157.4558 Cl  0  0  0  0  0  0  0  0  0  0  0  0
  128.7944  134.7309  159.4111 C   0  0  0  0  0  0  0  0  0  0  0  0
  129.8954  135.5282  159.0746 N   0  0  0  0  0  0  0  0  0  0  0  0
  130.5158  136.2972  160.0450 C   0  0  0  0  0  0  0  0  0  0  0  0
  130.1492  136.3692  161.3540 N   0  0  0  0  0  0  0  0  0  0  0  0
  129.4129  135.8955  161.7714 H   0  0  0  0  0  0  0  0  0  0  0  0
  131.0158  137.2350  161.9752 C   0  0  0  0  0  0  0  0  0  0  0  0
  131.8814  137.6730  161.0273 C   0  0  0  0  0  0  0  0  0  0  0  0
  132.9947  138.6304  161.2377 C   0  0  0  0  0  0  0  0  0  0  0  0
  134.1464  138.5464  160.4571 C   0  0  0  0  0  0  0  0  0  0  0  0
  135.1767  139.4434  160.6534 C   0  0  0  0  0  0  0  0  0  0  0  0
  135.0726  140.4174  161.6302 C   0  0  0  0  0  0  0  0  0  0  0  0
  133.9344  140.5018  162.4117 C   0  0  0  0  0  0  0  0  0  0  0  0
  132.8955  139.6137  162.2204 C   0  0  0  0  0  0  0  0  0  0  0  0
  131.5496  137.0801  159.8535 N   0  0  0  0  0  0  0  0  0  0  0  0
  132.0043  137.2143  159.0072 H   0  0  0  0  0  0  0  0  0  0  0  0
  127.6475  135.3130  159.9294 C   0  0  0  0  0  0  0  0  0  0  0  0
  125.4884  136.0531  160.8632 H   0  0  0  0  0  0  0  0  0  0  0  0
  125.7626  132.5344  160.3285 H   0  0  0  0  0  0  0  0  0  0  0  0
  127.7979  131.4932  159.4178 H   0  0  0  0  0  0  0  0  0  0  0  0
  128.9379  131.0723  157.3101 H   0  0  0  0  0  0  0  0  0  0  0  0
  129.2814  132.5563  156.3893 H   0  0  0  0  0  0  0  0  0  0  0  0
  130.5079  130.6190  155.4453 H   0  0  0  0  0  0  0  0  0  0  0  0
  131.6350  131.8316  156.0993 H   0  0  0  0  0  0  0  0  0  0  0  0
  130.2234  135.5420  158.1619 H   0  0  0  0  0  0  0  0  0  0  0  0
  131.0071  137.5161  163.0179 H   0  0  0  0  0  0  0  0  0  0  0  0
  134.2306  137.7837  159.6973 H   0  0  0  0  0  0  0  0  0  0  0  0
  136.0677  139.3821  160.0461 H   0  0  0  0  0  0  0  0  0  0  0  0
  135.8831  141.1146  161.7831 H   0  0  0  0  0  0  0  0  0  0  0  0
  133.8584  141.2643  163.1727 H   0  0  0  0  0  0  0  0  0  0  0  0
  132.0070  139.6807  162.8310 H   0  0  0  0  0  0  0  0  0  0  0  0
  127.6023  136.3823  160.0742 H   0  0  0  0  0  0  0  0  0  0  0  0
  1  2  1  0
  1 26  1  0
  2 25  2  0
  2  3  1  0
  3  4  2  0
  3 27  1  0
  4  5  1  0
  4 28  1  0
  5  6  1  0
  5 10  2  0
  6  7  1  0
  7  8  1  0
  7 29  1  0
  7 30  1  0
  8  9  1  0
  8 31  1  0
  8 32  1  0
 10 11  1  0
 10 25  1  0
 11 33  1  0
 12 11  1  0
 12 23  2  0
 12 13  1  0
 13 14  1  0
 13 15  1  0
 15 16  2  0
 15 34  1  0
 16 17  1  0
 16 23  1  0
 17 22  1  0
 17 18  2  0
 18 19  1  0
 18 35  1  0
 19 20  2  0
 19 36  1  0
 20 21  1  0
 20 37  1  0
 21 22  2  0
 21 38  1  0
 22 39  1  0
 23 24  1  0
 25 40  1  0
M  CHG  1  23   1
M  END
>  <DOCK_score>  (1) 
-51.314411

>  <SMILES>  (1) 
Oc1ccc(SCCCl)c(Nc2[nH]cc(-c3ccccc3)[nH+]2)c1

$$$$
