CCc1ccc(-c2c[nH]c(N[C@H](c3ccccc3)C(O)C3=CCCCCC3)[nH+]2)cc1
     RDKit          3D

 62 65  0  0  1  0  0  0  0  0999 V2000
  130.5773  128.4401  151.5831 C   0  0  0  0  0  0  0  0  0  0  0  0
  131.6557  129.4680  151.9327 C   0  0  0  0  0  0  0  0  0  0  0  0
  131.2756  130.1822  153.2043 C   0  0  0  0  0  0  0  0  0  0  0  0
  131.6861  129.6782  154.4256 C   0  0  0  0  0  0  0  0  0  0  0  0
  131.3409  130.3270  155.5937 C   0  0  0  0  0  0  0  0  0  0  0  0
  130.5775  131.4919  155.5414 C   0  0  0  0  0  0  0  0  0  0  0  0
  130.2035  132.1938  156.7934 C   0  0  0  0  0  0  0  0  0  0  0  0
  129.4710  131.6759  157.8103 C   0  0  0  0  0  0  0  0  0  0  0  0
  129.3624  132.6585  158.7641 N   0  0  0  0  0  0  0  0  0  0  0  0
  128.8950  132.5879  159.6112 H   0  0  0  0  0  0  0  0  0  0  0  0
  130.0324  133.7492  158.3018 C   0  0  0  0  0  0  0  0  0  0  0  0
  130.1624  134.9570  158.9657 N   0  0  0  0  0  0  0  0  0  0  0  0
  129.1084  135.4089  159.8773 C   0  0  2  0  0  0  0  0  0  0  0  0
  128.9838  134.6801  160.6783 H   0  0  0  0  0  0  0  0  0  0  0  0
  127.8138  135.5480  159.1188 C   0  0  0  0  0  0  0  0  0  0  0  0
  126.6089  135.3423  159.7642 C   0  0  0  0  0  0  0  0  0  0  0  0
  125.4211  135.4737  159.0693 C   0  0  0  0  0  0  0  0  0  0  0  0
  125.4387  135.8030  157.7268 C   0  0  0  0  0  0  0  0  0  0  0  0
  126.6439  136.0038  157.0800 C   0  0  0  0  0  0  0  0  0  0  0  0
  127.8314  135.8759  157.7760 C   0  0  0  0  0  0  0  0  0  0  0  0
  129.4972  136.7624  160.4754 C   0  0  1  0  0  0  0  0  0  0  0  0
  128.3283  137.4168  160.9730 O   0  0  0  0  0  0  0  0  0  0  0  0
  130.4734  136.5513  161.6039 C   0  0  0  0  0  0  0  0  0  0  0  0
  131.6537  137.0812  161.5421 C   0  0  0  0  0  0  0  0  0  0  0  0
  132.6424  136.8808  162.6707 C   0  0  0  0  0  0  0  0  0  0  0  0
  132.1795  137.6935  163.8819 C   0  0  0  0  0  0  0  0  0  0  0  0
  131.1828  136.9030  164.7110 C   0  0  0  0  0  0  0  0  0  0  0  0
  129.8667  136.6457  163.9988 C   0  0  0  0  0  0  0  0  0  0  0  0
  130.0715  135.7159  162.8005 C   0  0  0  0  0  0  0  0  0  0  0  0
  130.5295  133.4693  157.1218 N   0  0  0  0  0  0  0  0  0  0  0  0
  131.0489  134.0764  156.5719 H   0  0  0  0  0  0  0  0  0  0  0  0
  130.1621  131.9917  154.3083 C   0  0  0  0  0  0  0  0  0  0  0  0
  130.5180  131.3377  153.1463 C   0  0  0  0  0  0  0  0  0  0  0  0
  130.4896  127.7163  152.3934 H   0  0  0  0  0  0  0  0  0  0  0  0
  129.6226  128.9473  151.4441 H   0  0  0  0  0  0  0  0  0  0  0  0
  130.8519  127.9242  150.6630 H   0  0  0  0  0  0  0  0  0  0  0  0
  131.7428  130.1923  151.1221 H   0  0  0  0  0  0  0  0  0  0  0  0
  132.6098  128.9612  152.0714 H   0  0  0  0  0  0  0  0  0  0  0  0
  132.2775  128.7754  154.4651 H   0  0  0  0  0  0  0  0  0  0  0  0
  131.6619  129.9330  156.5467 H   0  0  0  0  0  0  0  0  0  0  0  0
  129.0524  130.6815  157.8604 H   0  0  0  0  0  0  0  0  0  0  0  0
  130.9514  135.5040  158.8273 H   0  0  0  0  0  0  0  0  0  0  0  0
  126.5952  135.0815  160.8122 H   0  0  0  0  0  0  0  0  0  0  0  0
  124.4796  135.3166  159.5745 H   0  0  0  0  0  0  0  0  0  0  0  0
  124.5109  135.9032  157.1832 H   0  0  0  0  0  0  0  0  0  0  0  0
  126.6575  136.2606  156.0311 H   0  0  0  0  0  0  0  0  0  0  0  0
  128.7729  136.0327  157.2707 H   0  0  0  0  0  0  0  0  0  0  0  0
  129.9597  137.3803  159.7058 H   0  0  0  0  0  0  0  0  0  0  0  0
  127.8645  136.9227  161.6627 H   0  0  0  0  0  0  0  0  0  0  0  0
  131.9329  137.6719  160.6821 H   0  0  0  0  0  0  0  0  0  0  0  0
  133.6289  137.2216  162.3567 H   0  0  0  0  0  0  0  0  0  0  0  0
  132.6872  135.8241  162.9346 H   0  0  0  0  0  0  0  0  0  0  0  0
  131.7092  138.6145  163.5375 H   0  0  0  0  0  0  0  0  0  0  0  0
  133.0435  137.9407  164.4988 H   0  0  0  0  0  0  0  0  0  0  0  0
  130.9800  137.4530  165.6300 H   0  0  0  0  0  0  0  0  0  0  0  0
  131.6303  135.9444  164.9736 H   0  0  0  0  0  0  0  0  0  0  0  0
  129.4554  137.5934  163.6514 H   0  0  0  0  0  0  0  0  0  0  0  0
  129.1666  136.1843  164.6953 H   0  0  0  0  0  0  0  0  0  0  0  0
  129.1424  135.1889  162.5833 H   0  0  0  0  0  0  0  0  0  0  0  0
  130.8576  134.9948  163.0239 H   0  0  0  0  0  0  0  0  0  0  0  0
  129.5663  132.8914  154.2621 H   0  0  0  0  0  0  0  0  0  0  0  0
  130.2003  131.7266  152.1902 H   0  0  0  0  0  0  0  0  0  0  0  0
  1  2  1  0
  1 34  1  0
  1 35  1  0
  1 36  1  0
  2  3  1  0
  2 37  1  0
  2 38  1  0
  3 33  2  0
  3  4  1  0
  4  5  2  0
  4 39  1  0
  5  6  1  0
  5 40  1  0
  6  7  1  0
  6 32  2  0
  7 30  1  0
  7  8  2  0
  8  9  1  0
  8 41  1  0
  9 10  1  0
  9 11  1  0
 11 12  1  0
 11 30  2  0
 12 13  1  0
 12 42  1  0
 13 14  1  1
 13 15  1  0
 13 21  1  0
 15 20  1  0
 15 16  2  0
 16 17  1  0
 16 43  1  0
 17 18  2  0
 17 44  1  0
 18 19  1  0
 18 45  1  0
 19 20  2  0
 19 46  1  0
 20 47  1  0
 21 22  1  0
 21 23  1  0
 21 48  1  6
 22 49  1  0
 23 29  1  0
 23 24  2  0
 24 25  1  0
 24 50  1  0
 25 26  1  0
 25 51  1  0
 25 52  1  0
 26 27  1  0
 26 53  1  0
 26 54  1  0
 27 28  1  0
 27 55  1  0
 27 56  1  0
 28 29  1  0
 28 57  1  0
 28 58  1  0
 29 59  1  0
 29 60  1  0
 30 31  1  0
 32 33  1  0
 32 61  1  0
 33 62  1  0
M  CHG  1  30   1
M  END
>  <DOCK_score>  (1) 
-60.805988

>  <SMILES>  (1) 
CCc1ccc(-c2c[nH]c(N[C@H](c3ccccc3)C(O)C3=CCCCCC3)[nH+]2)cc1

$$$$
