Cc1c(C=C[C@@H](Cc2ccccc2)Nc2[nH]cc(-c3ccc(N)cc3)[nH+]2)ccc2c1CCC2
     RDKit          3D

 64 68  0  0  1  0  0  0  0  0999 V2000
  133.8822  135.0883  163.2728 C   0  0  0  0  0  0  0  0  0  0  0  0
  134.3299  136.1815  162.3372 C   0  0  0  0  0  0  0  0  0  0  0  0
  133.5864  136.4656  161.1922 C   0  0  0  0  0  0  0  0  0  0  0  0
  132.3598  135.6969  160.8931 C   0  0  0  0  0  0  0  0  0  0  0  0
  131.1943  136.3207  160.7947 C   0  0  0  0  0  0  0  0  0  0  0  0
  129.9436  135.5371  160.4896 C   0  0  1  0  0  0  0  0  0  0  0  0
  130.0399  134.5284  160.8914 H   0  0  0  0  0  0  0  0  0  0  0  0
  128.7393  136.2289  161.1313 C   0  0  0  0  0  0  0  0  0  0  0  0
  127.4885  135.4453  160.8263 C   0  0  0  0  0  0  0  0  0  0  0  0
  126.7512  135.7338  159.6932 C   0  0  0  0  0  0  0  0  0  0  0  0
  125.6068  135.0117  159.4110 C   0  0  0  0  0  0  0  0  0  0  0  0
  125.1939  134.0082  160.2673 C   0  0  0  0  0  0  0  0  0  0  0  0
  125.9284  133.7231  161.4032 C   0  0  0  0  0  0  0  0  0  0  0  0
  127.0757  134.4417  161.6827 C   0  0  0  0  0  0  0  0  0  0  0  0
  129.7518  135.4688  159.0388 N   0  0  0  0  0  0  0  0  0  0  0  0
  129.7180  134.2399  158.4023 C   0  0  0  0  0  0  0  0  0  0  0  0
  129.2769  133.0752  158.9504 N   0  0  0  0  0  0  0  0  0  0  0  0
  128.9331  132.9573  159.8498 H   0  0  0  0  0  0  0  0  0  0  0  0
  129.4090  132.0963  157.9942 C   0  0  0  0  0  0  0  0  0  0  0  0
  129.9264  132.6913  156.8912 C   0  0  0  0  0  0  0  0  0  0  0  0
  130.2406  132.0228  155.6047 C   0  0  0  0  0  0  0  0  0  0  0  0
  130.1576  132.7351  154.4092 C   0  0  0  0  0  0  0  0  0  0  0  0
  130.4557  132.1131  153.2153 C   0  0  0  0  0  0  0  0  0  0  0  0
  130.8276  130.7740  153.2020 C   0  0  0  0  0  0  0  0  0  0  0  0
  131.1240  130.1445  151.9905 N   0  0  0  0  0  0  0  0  0  0  0  0
  130.9055  130.0604  154.3920 C   0  0  0  0  0  0  0  0  0  0  0  0
  130.6138  130.6797  155.5889 C   0  0  0  0  0  0  0  0  0  0  0  0
  130.1004  134.0076  157.1702 N   0  0  0  0  0  0  0  0  0  0  0  0
  130.4534  134.6706  156.5564 H   0  0  0  0  0  0  0  0  0  0  0  0
  134.0097  137.4755  160.3278 C   0  0  0  0  0  0  0  0  0  0  0  0
  135.1521  138.1909  160.6176 C   0  0  0  0  0  0  0  0  0  0  0  0
  135.8889  137.9048  161.7561 C   0  0  0  0  0  0  0  0  0  0  0  0
  135.4771  136.9005  162.6148 C   0  0  0  0  0  0  0  0  0  0  0  0
  136.4463  136.7883  163.7726 C   0  0  0  0  0  0  0  0  0  0  0  0
  137.7198  137.5246  163.3061 C   0  0  0  0  0  0  0  0  0  0  0  0
  137.1626  138.5341  162.2803 C   0  0  0  0  0  0  0  0  0  0  0  0
  134.3308  134.1428  162.9679 H   0  0  0  0  0  0  0  0  0  0  0  0
  134.1962  135.3284  164.2886 H   0  0  0  0  0  0  0  0  0  0  0  0
  132.7961  135.0029  163.2388 H   0  0  0  0  0  0  0  0  0  0  0  0
  132.4132  134.6273  160.7548 H   0  0  0  0  0  0  0  0  0  0  0  0
  131.1409  137.3905  160.9331 H   0  0  0  0  0  0  0  0  0  0  0  0
  128.8819  136.2798  162.2107 H   0  0  0  0  0  0  0  0  0  0  0  0
  128.6429  137.2376  160.7296 H   0  0  0  0  0  0  0  0  0  0  0  0
  127.0714  136.5208  159.0265 H   0  0  0  0  0  0  0  0  0  0  0  0
  125.0326  135.2347  158.5237 H   0  0  0  0  0  0  0  0  0  0  0  0
  124.2972  133.4470  160.0492 H   0  0  0  0  0  0  0  0  0  0  0  0
  125.6056  132.9393  162.0724 H   0  0  0  0  0  0  0  0  0  0  0  0
  127.6493  134.2192  162.5703 H   0  0  0  0  0  0  0  0  0  0  0  0
  129.6485  136.2846  158.5243 H   0  0  0  0  0  0  0  0  0  0  0  0
  129.1502  131.0532  158.1011 H   0  0  0  0  0  0  0  0  0  0  0  0
  129.8641  133.7744  154.4188 H   0  0  0  0  0  0  0  0  0  0  0  0
  130.3956  132.6657  152.2892 H   0  0  0  0  0  0  0  0  0  0  0  0
  131.3839  129.2100  151.9804 H   0  0  0  0  0  0  0  0  0  0  0  0
  131.0699  130.6419  151.1596 H   0  0  0  0  0  0  0  0  0  0  0  0
  131.1943  129.0198  154.3792 H   0  0  0  0  0  0  0  0  0  0  0  0
  130.6748  130.1249  156.5135 H   0  0  0  0  0  0  0  0  0  0  0  0
  133.4422  137.6989  159.4366 H   0  0  0  0  0  0  0  0  0  0  0  0
  135.4778  138.9752  159.9504 H   0  0  0  0  0  0  0  0  0  0  0  0
  136.0339  137.2703  164.6590 H   0  0  0  0  0  0  0  0  0  0  0  0
  136.6689  135.7416  163.9792 H   0  0  0  0  0  0  0  0  0  0  0  0
  138.4150  136.8328  162.8304 H   0  0  0  0  0  0  0  0  0  0  0  0
  138.1986  138.0416  164.1377 H   0  0  0  0  0  0  0  0  0  0  0  0
  137.8745  138.6800  161.4680 H   0  0  0  0  0  0  0  0  0  0  0  0
  136.9426  139.4854  162.7650 H   0  0  0  0  0  0  0  0  0  0  0  0
  1  2  1  0
  1 37  1  0
  1 38  1  0
  1 39  1  0
  2 33  2  0
  2  3  1  0
  3  4  1  0
  3 30  2  0
  4  5  2  0
  4 40  1  0
  5  6  1  0
  5 41  1  0
  6  7  1  1
  6  8  1  0
  6 15  1  0
  8  9  1  0
  8 42  1  0
  8 43  1  0
  9 14  1  0
  9 10  2  0
 10 11  1  0
 10 44  1  0
 11 12  2  0
 11 45  1  0
 12 13  1  0
 12 46  1  0
 13 14  2  0
 13 47  1  0
 14 48  1  0
 15 49  1  0
 16 15  1  0
 16 28  2  0
 16 17  1  0
 17 18  1  0
 17 19  1  0
 19 20  2  0
 19 50  1  0
 20 21  1  0
 20 28  1  0
 21 27  1  0
 21 22  2  0
 22 23  1  0
 22 51  1  0
 23 24  2  0
 23 52  1  0
 24 25  1  0
 24 26  1  0
 25 53  1  0
 25 54  1  0
 26 27  2  0
 26 55  1  0
 27 56  1  0
 28 29  1  0
 30 31  1  0
 30 57  1  0
 31 32  2  0
 31 58  1  0
 32 36  1  0
 32 33  1  0
 33 34  1  0
 34 35  1  0
 34 59  1  0
 34 60  1  0
 35 36  1  0
 35 61  1  0
 35 62  1  0
 36 63  1  0
 36 64  1  0
M  CHG  1  28   1
M  END
>  <DOCK_score>  (1) 
-59.266827

>  <SMILES>  (1) 
Cc1c(C=C[C@@H](Cc2ccccc2)Nc2[nH]cc(-c3ccc(N)cc3)[nH+]2)ccc2c1CCC2

$$$$
