Cc1ccccc1[C@H](Nc1[nH]cc(-c2ccc(Br)cc2)[nH+]1)c1ccccc1
     RDKit          3D

 48 51  0  0  1  0  0  0  0  0999 V2000
  133.2303  136.0546  160.6625 C   0  0  0  0  0  0  0  0  0  0  0  0
  132.2478  137.1073  161.1073 C   0  0  0  0  0  0  0  0  0  0  0  0
  132.7031  138.3395  161.5383 C   0  0  0  0  0  0  0  0  0  0  0  0
  131.8022  139.3052  161.9458 C   0  0  0  0  0  0  0  0  0  0  0  0
  130.4456  139.0387  161.9230 C   0  0  0  0  0  0  0  0  0  0  0  0
  129.9904  137.8083  161.4879 C   0  0  0  0  0  0  0  0  0  0  0  0
  130.8919  136.8407  161.0848 C   0  0  0  0  0  0  0  0  0  0  0  0
  130.3958  135.4974  160.6151 C   0  0  2  0  0  0  0  0  0  0  0  0
  130.8075  134.7149  161.2524 H   0  0  0  0  0  0  0  0  0  0  0  0
  130.8232  135.2756  159.2315 N   0  0  0  0  0  0  0  0  0  0  0  0
  130.4828  134.1014  158.5817 C   0  0  0  0  0  0  0  0  0  0  0  0
  129.7631  133.0785  159.1182 N   0  0  0  0  0  0  0  0  0  0  0  0
  129.3996  133.0412  160.0167 H   0  0  0  0  0  0  0  0  0  0  0  0
  129.6467  132.1086  158.1522 C   0  0  0  0  0  0  0  0  0  0  0  0
  130.2980  132.5662  157.0544 C   0  0  0  0  0  0  0  0  0  0  0  0
  130.4366  131.8531  155.7611 C   0  0  0  0  0  0  0  0  0  0  0  0
  129.9369  132.4227  154.5914 C   0  0  0  0  0  0  0  0  0  0  0  0
  130.0687  131.7554  153.3908 C   0  0  0  0  0  0  0  0  0  0  0  0
  130.6912  130.5198  153.3479 C   0  0  0  0  0  0  0  0  0  0  0  0
  130.8616  129.6075  151.7002 Br  0  0  0  0  0  0  0  0  0  0  0  0
  131.1944  129.9523  154.5057 C   0  0  0  0  0  0  0  0  0  0  0  0
  131.0676  130.6113  155.7115 C   0  0  0  0  0  0  0  0  0  0  0  0
  130.8052  133.7893  157.3502 N   0  0  0  0  0  0  0  0  0  0  0  0
  131.3217  134.3452  156.7459 H   0  0  0  0  0  0  0  0  0  0  0  0
  128.8909  135.4645  160.6873 C   0  0  0  0  0  0  0  0  0  0  0  0
  128.2636  135.0285  161.8395 C   0  0  0  0  0  0  0  0  0  0  0  0
  126.8831  135.0026  161.9073 C   0  0  0  0  0  0  0  0  0  0  0  0
  126.1301  135.4032  160.8196 C   0  0  0  0  0  0  0  0  0  0  0  0
  126.7574  135.8345  159.6658 C   0  0  0  0  0  0  0  0  0  0  0  0
  128.1378  135.8647  159.5995 C   0  0  0  0  0  0  0  0  0  0  0  0
  133.4332  136.1735  159.5982 H   0  0  0  0  0  0  0  0  0  0  0  0
  134.1584  136.1634  161.2238 H   0  0  0  0  0  0  0  0  0  0  0  0
  132.8098  135.0654  160.8440 H   0  0  0  0  0  0  0  0  0  0  0  0
  133.7627  138.5478  161.5562 H   0  0  0  0  0  0  0  0  0  0  0  0
  132.1576  140.2679  162.2825 H   0  0  0  0  0  0  0  0  0  0  0  0
  129.7416  139.7931  162.2417 H   0  0  0  0  0  0  0  0  0  0  0  0
  128.9305  137.6015  161.4662 H   0  0  0  0  0  0  0  0  0  0  0  0
  131.3445  135.9513  158.7706 H   0  0  0  0  0  0  0  0  0  0  0  0
  129.1340  131.1628  158.2486 H   0  0  0  0  0  0  0  0  0  0  0  0
  129.4467  133.3847  154.6246 H   0  0  0  0  0  0  0  0  0  0  0  0
  129.6818  132.1958  152.4839 H   0  0  0  0  0  0  0  0  0  0  0  0
  131.6828  128.9899  154.4661 H   0  0  0  0  0  0  0  0  0  0  0  0
  131.4569  130.1659  156.6150 H   0  0  0  0  0  0  0  0  0  0  0  0
  128.8521  134.7117  162.6879 H   0  0  0  0  0  0  0  0  0  0  0  0
  126.3930  134.6659  162.8089 H   0  0  0  0  0  0  0  0  0  0  0  0
  125.0516  135.3797  160.8714 H   0  0  0  0  0  0  0  0  0  0  0  0
  126.1689  136.1475  158.8159 H   0  0  0  0  0  0  0  0  0  0  0  0
  128.6279  136.2013  158.6978 H   0  0  0  0  0  0  0  0  0  0  0  0
  1  2  1  0
  1 31  1  0
  1 32  1  0
  1 33  1  0
  2  7  2  0
  2  3  1  0
  3  4  2  0
  3 34  1  0
  4  5  1  0
  4 35  1  0
  5  6  2  0
  5 36  1  0
  6  7  1  0
  6 37  1  0
  7  8  1  0
  8  9  1  1
  8 10  1  0
  8 25  1  0
 10 38  1  0
 11 10  1  0
 11 23  2  0
 11 12  1  0
 12 13  1  0
 12 14  1  0
 14 15  2  0
 14 39  1  0
 15 16  1  0
 15 23  1  0
 16 22  1  0
 16 17  2  0
 17 18  1  0
 17 40  1  0
 18 19  2  0
 18 41  1  0
 19 20  1  0
 19 21  1  0
 21 22  2  0
 21 42  1  0
 22 43  1  0
 23 24  1  0
 25 30  1  0
 25 26  2  0
 26 27  1  0
 26 44  1  0
 27 28  2  0
 27 45  1  0
 28 29  1  0
 28 46  1  0
 29 30  2  0
 29 47  1  0
 30 48  1  0
M  CHG  1  23   1
M  END
>  <DOCK_score>  (1) 
-58.396118

>  <SMILES>  (1) 
Cc1ccccc1[C@H](Nc1[nH]cc(-c2ccc(Br)cc2)[nH+]1)c1ccccc1

$$$$
