C(=CC1CC1)C[NH2+]Cc1c[nH]nc1-c1ccc(Nc2n[nH]c3ccccc23)o1
     RDKit          3D

 51 55  0  0  0  0  0  0  0  0999 V2000
  132.6983  138.9174  160.7839 C   0  0  0  0  0  0  0  0  0  0  0  0
  133.6500  139.3924  160.0192 C   0  0  0  0  0  0  0  0  0  0  0  0
  135.0537  139.5178  160.5531 C   0  0  0  0  0  0  0  0  0  0  0  0
  135.3759  140.7419  161.4124 C   0  0  0  0  0  0  0  0  0  0  0  0
  135.9268  140.6400  159.9880 C   0  0  0  0  0  0  0  0  0  0  0  0
  131.2947  138.7920  160.2500 C   0  0  0  0  0  0  0  0  0  0  0  0
  131.1217  137.4702  159.6330 N   0  0  0  0  0  0  0  0  0  0  0  0
  131.7803  137.3634  158.8759 H   0  0  0  0  0  0  0  0  0  0  0  0
  130.1819  137.3862  159.2754 H   0  0  0  0  0  0  0  0  0  0  0  0
  131.3581  136.4257  160.6386 C   0  0  0  0  0  0  0  0  0  0  0  0
  131.1806  135.0696  160.0055 C   0  0  0  0  0  0  0  0  0  0  0  0
  132.1457  134.3389  159.4073 C   0  0  0  0  0  0  0  0  0  0  0  0
  131.5887  133.1889  158.9695 N   0  0  0  0  0  0  0  0  0  0  0  0
  132.0503  132.4751  158.5022 H   0  0  0  0  0  0  0  0  0  0  0  0
  130.2295  133.2049  159.3073 N   0  0  0  0  0  0  0  0  0  0  0  0
  129.9767  134.3377  159.9330 C   0  0  0  0  0  0  0  0  0  0  0  0
  128.6657  134.7647  160.4638 C   0  0  0  0  0  0  0  0  0  0  0  0
  127.5094  134.0530  160.3965 C   0  0  0  0  0  0  0  0  0  0  0  0
  126.5149  134.8300  161.0219 C   0  0  0  0  0  0  0  0  0  0  0  0
  127.1113  135.9749  161.4394 C   0  0  0  0  0  0  0  0  0  0  0  0
  126.4841  137.0205  162.1068 N   0  0  0  0  0  0  0  0  0  0  0  0
  127.2172  138.1490  162.4827 C   0  0  0  0  0  0  0  0  0  0  0  0
  128.4913  138.3476  162.2694 N   0  0  0  0  0  0  0  0  0  0  0  0
  128.8753  139.5895  162.7853 N   0  0  0  0  0  0  0  0  0  0  0  0
  129.7708  139.9605  162.7487 H   0  0  0  0  0  0  0  0  0  0  0  0
  127.7857  140.1994  163.3507 C   0  0  0  0  0  0  0  0  0  0  0  0
  127.5908  141.4182  163.9966 C   0  0  0  0  0  0  0  0  0  0  0  0
  126.3503  141.7500  164.4623 C   0  0  0  0  0  0  0  0  0  0  0  0
  125.2749  140.8853  164.3007 C   0  0  0  0  0  0  0  0  0  0  0  0
  125.4368  139.6848  163.6711 C   0  0  0  0  0  0  0  0  0  0  0  0
  126.6957  139.3250  163.1811 C   0  0  0  0  0  0  0  0  0  0  0  0
  128.4119  135.9254  161.1036 O   0  0  0  0  0  0  0  0  0  0  0  0
  132.9196  138.6158  161.7970 H   0  0  0  0  0  0  0  0  0  0  0  0
  133.4286  139.6942  159.0061 H   0  0  0  0  0  0  0  0  0  0  0  0
  135.5445  138.5791  160.8100 H   0  0  0  0  0  0  0  0  0  0  0  0
  134.5727  141.4565  161.5918 H   0  0  0  0  0  0  0  0  0  0  0  0
  136.0790  140.6085  162.2346 H   0  0  0  0  0  0  0  0  0  0  0  0
  136.9921  140.4396  159.8734 H   0  0  0  0  0  0  0  0  0  0  0  0
  135.4860  141.2873  159.2298 H   0  0  0  0  0  0  0  0  0  0  0  0
  131.1192  139.5671  159.5038 H   0  0  0  0  0  0  0  0  0  0  0  0
  130.5832  138.9072  161.0677 H   0  0  0  0  0  0  0  0  0  0  0  0
  130.6466  136.5409  161.4562 H   0  0  0  0  0  0  0  0  0  0  0  0
  132.3733  136.5163  161.0248 H   0  0  0  0  0  0  0  0  0  0  0  0
  133.1817  134.6238  159.2984 H   0  0  0  0  0  0  0  0  0  0  0  0
  127.3783  133.0790  159.9487 H   0  0  0  0  0  0  0  0  0  0  0  0
  125.4754  134.5647  161.1458 H   0  0  0  0  0  0  0  0  0  0  0  0
  125.5375  136.9667  162.3115 H   0  0  0  0  0  0  0  0  0  0  0  0
  128.4186  142.0993  164.1286 H   0  0  0  0  0  0  0  0  0  0  0  0
  126.2038  142.6960  164.9625 H   0  0  0  0  0  0  0  0  0  0  0  0
  124.3018  141.1656  164.6761 H   0  0  0  0  0  0  0  0  0  0  0  0
  124.5959  139.0182  163.5487 H   0  0  0  0  0  0  0  0  0  0  0  0
  1  2  2  0
  1  6  1  0
  1 33  1  0
  2  3  1  0
  2 34  1  0
  3  5  1  0
  3  4  1  0
  3 35  1  0
  4  5  1  0
  4 36  1  0
  4 37  1  0
  5 38  1  0
  5 39  1  0
  6  7  1  0
  6 40  1  0
  6 41  1  0
  7  8  1  0
  7  9  1  0
  7 10  1  0
 10 11  1  0
 10 42  1  0
 10 43  1  0
 11 16  1  0
 11 12  2  0
 12 13  1  0
 12 44  1  0
 13 14  1  0
 13 15  1  0
 15 16  2  0
 16 17  1  0
 17 32  1  0
 17 18  2  0
 18 19  1  0
 18 45  1  0
 19 20  2  0
 19 46  1  0
 20 21  1  0
 20 32  1  0
 21 22  1  0
 21 47  1  0
 22 31  1  0
 22 23  2  0
 23 24  1  0
 24 25  1  0
 24 26  1  0
 26 31  2  0
 26 27  1  0
 27 28  2  0
 27 48  1  0
 28 29  1  0
 28 49  1  0
 29 30  2  0
 29 50  1  0
 30 31  1  0
 30 51  1  0
M  CHG  1   7   1
M  END
>  <DOCK_score>  (1) 
-48.184696

>  <SMILES>  (1) 
C(=CC1CC1)C[NH2+]Cc1c[nH]nc1-c1ccc(Nc2n[nH]c3ccccc23)o1

$$$$
