O=C1CC[C@H](NC(NC2CCC2)=[NH+]CCc2c[nH]c3ccc(O)cc23)CN1
     RDKit          3D

 55 58  0  0  1  0  0  0  0  0999 V2000
  123.8838  133.9991  161.5997 O   0  0  0  0  0  0  0  0  0  0  0  0
  125.0640  134.2345  161.4494 C   0  0  0  0  0  0  0  0  0  0  0  0
  125.9869  133.0853  161.1613 C   0  0  0  0  0  0  0  0  0  0  0  0
  127.4348  133.4987  161.4358 C   0  0  0  0  0  0  0  0  0  0  0  0
  127.6954  134.8416  160.7428 C   0  0  2  0  0  0  0  0  0  0  0  0
  127.4070  134.7765  159.6936 H   0  0  0  0  0  0  0  0  0  0  0  0
  129.1179  135.1777  160.8414 N   0  0  0  0  0  0  0  0  0  0  0  0
  129.9911  134.7664  159.8625 C   0  0  0  0  0  0  0  0  0  0  0  0
  129.5293  134.0396  158.7907 N   0  0  0  0  0  0  0  0  0  0  0  0
  130.4598  133.6014  157.7475 C   0  0  0  0  0  0  0  0  0  0  0  0
  129.7666  132.9614  156.5330 C   0  0  0  0  0  0  0  0  0  0  0  0
  130.9137  131.9374  156.5170 C   0  0  0  0  0  0  0  0  0  0  0  0
  131.0842  132.2224  158.0185 C   0  0  0  0  0  0  0  0  0  0  0  0
  131.2567  135.0657  159.9504 N   0  0  0  0  0  0  0  0  0  0  0  0
  131.7838  135.1855  159.1450 H   0  0  0  0  0  0  0  0  0  0  0  0
  131.8829  135.2212  161.2657 C   0  0  0  0  0  0  0  0  0  0  0  0
  132.4446  136.6382  161.3988 C   0  0  0  0  0  0  0  0  0  0  0  0
  131.3258  137.6375  161.2536 C   0  0  0  0  0  0  0  0  0  0  0  0
  130.9052  138.2046  160.1119 C   0  0  0  0  0  0  0  0  0  0  0  0
  129.8673  139.0578  160.3697 N   0  0  0  0  0  0  0  0  0  0  0  0
  129.3966  139.5809  159.7020 H   0  0  0  0  0  0  0  0  0  0  0  0
  129.5939  139.0678  161.7212 C   0  0  0  0  0  0  0  0  0  0  0  0
  128.6645  139.7463  162.5027 C   0  0  0  0  0  0  0  0  0  0  0  0
  128.6324  139.5453  163.8644 C   0  0  0  0  0  0  0  0  0  0  0  0
  129.5239  138.6650  164.4727 C   0  0  0  0  0  0  0  0  0  0  0  0
  129.4784  138.4778  165.8188 O   0  0  0  0  0  0  0  0  0  0  0  0
  130.4538  137.9822  163.7147 C   0  0  0  0  0  0  0  0  0  0  0  0
  130.4957  138.1786  162.3325 C   0  0  0  0  0  0  0  0  0  0  0  0
  126.8638  135.9206  161.4374 C   0  0  0  0  0  0  0  0  0  0  0  0
  125.4727  135.5000  161.5484 N   0  0  0  0  0  0  0  0  0  0  0  0
  125.7242  132.2415  161.7992 H   0  0  0  0  0  0  0  0  0  0  0  0
  125.8857  132.7929  160.1162 H   0  0  0  0  0  0  0  0  0  0  0  0
  128.1135  132.7434  161.0396 H   0  0  0  0  0  0  0  0  0  0  0  0
  127.5888  133.6040  162.5097 H   0  0  0  0  0  0  0  0  0  0  0  0
  129.4438  135.6906  161.5976 H   0  0  0  0  0  0  0  0  0  0  0  0
  128.5875  133.8170  158.7252 H   0  0  0  0  0  0  0  0  0  0  0  0
  131.1893  134.3665  157.4824 H   0  0  0  0  0  0  0  0  0  0  0  0
  128.7949  132.5250  156.7646 H   0  0  0  0  0  0  0  0  0  0  0  0
  129.7439  133.6054  155.6539 H   0  0  0  0  0  0  0  0  0  0  0  0
  131.7673  132.2473  155.9141 H   0  0  0  0  0  0  0  0  0  0  0  0
  130.5880  130.9201  156.2999 H   0  0  0  0  0  0  0  0  0  0  0  0
  132.1249  132.2696  158.3386 H   0  0  0  0  0  0  0  0  0  0  0  0
  130.4727  131.5839  158.6562 H   0  0  0  0  0  0  0  0  0  0  0  0
  131.1396  135.0503  162.0444 H   0  0  0  0  0  0  0  0  0  0  0  0
  132.6919  134.4984  161.3706 H   0  0  0  0  0  0  0  0  0  0  0  0
  132.9104  136.7539  162.3773 H   0  0  0  0  0  0  0  0  0  0  0  0
  133.1877  136.8091  160.6199 H   0  0  0  0  0  0  0  0  0  0  0  0
  131.3226  138.0137  159.1343 H   0  0  0  0  0  0  0  0  0  0  0  0
  127.9685  140.4312  162.0413 H   0  0  0  0  0  0  0  0  0  0  0  0
  127.9090  140.0750  164.4664 H   0  0  0  0  0  0  0  0  0  0  0  0
  128.7961  138.9977  166.2654 H   0  0  0  0  0  0  0  0  0  0  0  0
  131.1447  137.2998  164.1876 H   0  0  0  0  0  0  0  0  0  0  0  0
  127.2667  136.1000  162.4342 H   0  0  0  0  0  0  0  0  0  0  0  0
  126.9162  136.8435  160.8597 H   0  0  0  0  0  0  0  0  0  0  0  0
  124.8023  136.1834  161.7045 H   0  0  0  0  0  0  0  0  0  0  0  0
  1  2  2  0
  2 30  1  0
  2  3  1  0
  3  4  1  0
  3 31  1  0
  3 32  1  0
  4  5  1  0
  4 33  1  0
  4 34  1  0
  5  6  1  6
  5  7  1  0
  5 29  1  0
  7 35  1  0
  8  7  1  0
  8  9  1  0
  8 14  2  0
  9 10  1  0
  9 36  1  0
 10 13  1  0
 10 11  1  0
 10 37  1  0
 11 12  1  0
 11 38  1  0
 11 39  1  0
 12 13  1  0
 12 40  1  0
 12 41  1  0
 13 42  1  0
 13 43  1  0
 14 15  1  0
 14 16  1  0
 16 17  1  0
 16 44  1  0
 16 45  1  0
 17 18  1  0
 17 46  1  0
 17 47  1  0
 18 28  1  0
 18 19  2  0
 19 20  1  0
 19 48  1  0
 20 21  1  0
 20 22  1  0
 22 28  2  0
 22 23  1  0
 23 24  2  0
 23 49  1  0
 24 25  1  0
 24 50  1  0
 25 26  1  0
 25 27  2  0
 26 51  1  0
 27 28  1  0
 27 52  1  0
 29 30  1  0
 29 53  1  0
 29 54  1  0
 30 55  1  0
M  CHG  1  14   1
M  END
>  <DOCK_score>  (1) 
-45.453812

>  <SMILES>  (1) 
O=C1CC[C@H](NC(NC2CCC2)=[NH+]CCc2c[nH]c3ccc(O)cc23)CN1

$$$$
