CNC(NCc1cc(O)cc(Nc2ccccc2)c1)=[NH+]C
     RDKit          3D

 42 43  0  0  0  0  0  0  0  0999 V2000
  132.0496  133.4333  159.2809 C   0  0  0  0  0  0  0  0  0  0  0  0
  130.6266  133.0903  159.2205 N   0  0  0  0  0  0  0  0  0  0  0  0
  130.0145  132.9926  158.0416 C   0  0  0  0  0  0  0  0  0  0  0  0
  128.6859  132.6724  157.9852 N   0  0  0  0  0  0  0  0  0  0  0  0
  128.0907  131.8296  159.0252 C   0  0  0  0  0  0  0  0  0  0  0  0
  126.9866  132.5880  159.7157 C   0  0  0  0  0  0  0  0  0  0  0  0
  125.7798  131.9658  159.9749 C   0  0  0  0  0  0  0  0  0  0  0  0
  124.7609  132.6611  160.6105 C   0  0  0  0  0  0  0  0  0  0  0  0
  123.5752  132.0478  160.8650 O   0  0  0  0  0  0  0  0  0  0  0  0
  124.9532  133.9815  160.9861 C   0  0  0  0  0  0  0  0  0  0  0  0
  126.1657  134.6049  160.7250 C   0  0  0  0  0  0  0  0  0  0  0  0
  126.3636  135.9354  161.1024 N   0  0  0  0  0  0  0  0  0  0  0  0
  127.5843  136.5620  160.8391 C   0  0  0  0  0  0  0  0  0  0  0  0
  128.3464  137.0689  161.8844 C   0  0  0  0  0  0  0  0  0  0  0  0
  129.5553  137.6824  161.6210 C   0  0  0  0  0  0  0  0  0  0  0  0
  130.0021  137.8024  160.3176 C   0  0  0  0  0  0  0  0  0  0  0  0
  129.2433  137.3045  159.2746 C   0  0  0  0  0  0  0  0  0  0  0  0
  128.0362  136.6846  159.5312 C   0  0  0  0  0  0  0  0  0  0  0  0
  127.1845  133.9017  160.0931 C   0  0  0  0  0  0  0  0  0  0  0  0
  130.6975  133.2013  156.9172 N   0  0  0  0  0  0  0  0  0  0  0  0
  131.6406  133.4244  156.9569 H   0  0  0  0  0  0  0  0  0  0  0  0
  130.0242  133.0936  155.6206 C   0  0  0  0  0  0  0  0  0  0  0  0
  132.6214  132.7163  158.6918 H   0  0  0  0  0  0  0  0  0  0  0  0
  132.1992  134.4353  158.8789 H   0  0  0  0  0  0  0  0  0  0  0  0
  132.3868  133.4033  160.3170 H   0  0  0  0  0  0  0  0  0  0  0  0
  130.1300  132.9344  160.0391 H   0  0  0  0  0  0  0  0  0  0  0  0
  128.1377  133.0034  157.2565 H   0  0  0  0  0  0  0  0  0  0  0  0
  127.6824  130.9264  158.5714 H   0  0  0  0  0  0  0  0  0  0  0  0
  128.8546  131.5569  159.7533 H   0  0  0  0  0  0  0  0  0  0  0  0
  125.6296  130.9372  159.6820 H   0  0  0  0  0  0  0  0  0  0  0  0
  123.5358  131.1287  160.5670 H   0  0  0  0  0  0  0  0  0  0  0  0
  124.1611  134.5243  161.4805 H   0  0  0  0  0  0  0  0  0  0  0  0
  125.6535  136.4241  161.5472 H   0  0  0  0  0  0  0  0  0  0  0  0
  127.9959  136.9792  162.9019 H   0  0  0  0  0  0  0  0  0  0  0  0
  130.1501  138.0731  162.4334 H   0  0  0  0  0  0  0  0  0  0  0  0
  130.9458  138.2865  160.1139 H   0  0  0  0  0  0  0  0  0  0  0  0
  129.5951  137.4000  158.2580 H   0  0  0  0  0  0  0  0  0  0  0  0
  127.4439  136.2959  158.7160 H   0  0  0  0  0  0  0  0  0  0  0  0
  128.1298  134.3841  159.8934 H   0  0  0  0  0  0  0  0  0  0  0  0
  130.7384  133.2964  154.8225 H   0  0  0  0  0  0  0  0  0  0  0  0
  129.6230  132.0872  155.5019 H   0  0  0  0  0  0  0  0  0  0  0  0
  129.2105  133.8173  155.5725 H   0  0  0  0  0  0  0  0  0  0  0  0
  1  2  1  0
  1 23  1  0
  1 24  1  0
  1 25  1  0
  2  3  1  0
  2 26  1  0
  3  4  1  0
  3 20  2  0
  4  5  1  0
  4 27  1  0
  5  6  1  0
  5 28  1  0
  5 29  1  0
  6 19  2  0
  6  7  1  0
  7  8  2  0
  7 30  1  0
  8  9  1  0
  8 10  1  0
  9 31  1  0
 10 11  2  0
 10 32  1  0
 11 12  1  0
 11 19  1  0
 12 13  1  0
 12 33  1  0
 13 18  1  0
 13 14  2  0
 14 15  1  0
 14 34  1  0
 15 16  2  0
 15 35  1  0
 16 17  1  0
 16 36  1  0
 17 18  2  0
 17 37  1  0
 18 38  1  0
 19 39  1  0
 20 21  1  0
 20 22  1  0
 22 40  1  0
 22 41  1  0
 22 42  1  0
M  CHG  1  20   1
M  END
>  <DOCK_score>  (1) 
-40.938625

>  <SMILES>  (1) 
CNC(NCc1cc(O)cc(Nc2ccccc2)c1)=[NH+]C

$$$$
