CCc1ccc(-c2c[nH]c(N[C@@H](CC3CC(=C4CCC4)C3)c3ccccc3)[nH+]2)cc1
     RDKit          3D

 62 66  0  0  1  0  0  0  0  0999 V2000
  130.5921  128.4129  151.6710 C   0  0  0  0  0  0  0  0  0  0  0  0
  131.6709  129.4353  152.0335 C   0  0  0  0  0  0  0  0  0  0  0  0
  131.2739  130.1590  153.2944 C   0  0  0  0  0  0  0  0  0  0  0  0
  131.6595  129.6603  154.5251 C   0  0  0  0  0  0  0  0  0  0  0  0
  131.3038  130.3218  155.6830 C   0  0  0  0  0  0  0  0  0  0  0  0
  130.5446  131.4884  155.6107 C   0  0  0  0  0  0  0  0  0  0  0  0
  130.1543  132.2008  156.8519 C   0  0  0  0  0  0  0  0  0  0  0  0
  129.4147  131.6890  157.8669 C   0  0  0  0  0  0  0  0  0  0  0  0
  129.2915  132.6806  158.8096 N   0  0  0  0  0  0  0  0  0  0  0  0
  128.8156  132.6161  159.6523 H   0  0  0  0  0  0  0  0  0  0  0  0
  129.9601  133.7702  158.3427 C   0  0  0  0  0  0  0  0  0  0  0  0
  130.0775  134.9851  158.9959 N   0  0  0  0  0  0  0  0  0  0  0  0
  129.0127  135.4404  159.8931 C   0  0  1  0  0  0  0  0  0  0  0  0
  128.8844  134.7189  160.7000 H   0  0  0  0  0  0  0  0  0  0  0  0
  129.3886  136.8019  160.4812 C   0  0  0  0  0  0  0  0  0  0  0  0
  128.5738  137.0511  161.7520 C   0  0  0  0  0  0  0  0  0  0  0  0
  128.9258  138.3694  162.4625 C   0  0  0  0  0  0  0  0  0  0  0  0
  128.8106  137.5991  163.7629 C   0  0  0  0  0  0  0  0  0  0  0  0
  128.5484  137.8981  165.0110 C   0  0  0  0  0  0  0  0  0  0  0  0
  128.4244  137.1400  166.3157 C   0  0  0  0  0  0  0  0  0  0  0  0
  127.4923  138.2576  166.7997 C   0  0  0  0  0  0  0  0  0  0  0  0
  128.2274  139.1550  165.7918 C   0  0  0  0  0  0  0  0  0  0  0  0
  129.1310  136.3332  162.9932 C   0  0  0  0  0  0  0  0  0  0  0  0
  127.7244  135.5650  159.1212 C   0  0  0  0  0  0  0  0  0  0  0  0
  126.5146  135.3593  159.7576 C   0  0  0  0  0  0  0  0  0  0  0  0
  125.3327  135.4781  159.0504 C   0  0  0  0  0  0  0  0  0  0  0  0
  125.3610  135.7935  157.7048 C   0  0  0  0  0  0  0  0  0  0  0  0
  126.5711  135.9941  157.0672 C   0  0  0  0  0  0  0  0  0  0  0  0
  127.7528  135.8796  157.7754 C   0  0  0  0  0  0  0  0  0  0  0  0
  130.4792  133.4777  157.1753 N   0  0  0  0  0  0  0  0  0  0  0  0
  131.0090  134.0790  156.6287 H   0  0  0  0  0  0  0  0  0  0  0  0
  130.1538  131.9834  154.3678 C   0  0  0  0  0  0  0  0  0  0  0  0
  130.5202  131.3168  153.2163 C   0  0  0  0  0  0  0  0  0  0  0  0
  130.8792  127.8896  150.7590 H   0  0  0  0  0  0  0  0  0  0  0  0
  130.4853  127.6945  152.4837 H   0  0  0  0  0  0  0  0  0  0  0  0
  129.6435  128.9258  151.5124 H   0  0  0  0  0  0  0  0  0  0  0  0
  132.6193  128.9230  152.1916 H   0  0  0  0  0  0  0  0  0  0  0  0
  131.7775  130.1543  151.2203 H   0  0  0  0  0  0  0  0  0  0  0  0
  132.2438  128.7537  154.5802 H   0  0  0  0  0  0  0  0  0  0  0  0
  131.6094  129.9339  156.6435 H   0  0  0  0  0  0  0  0  0  0  0  0
  129.0014  130.6929  157.9230 H   0  0  0  0  0  0  0  0  0  0  0  0
  130.8650  135.5349  158.8595 H   0  0  0  0  0  0  0  0  0  0  0  0
  130.4513  136.8125  160.7229 H   0  0  0  0  0  0  0  0  0  0  0  0
  129.1739  137.5840  159.7528 H   0  0  0  0  0  0  0  0  0  0  0  0
  127.5039  136.9038  161.6051 H   0  0  0  0  0  0  0  0  0  0  0  0
  129.9347  138.7240  162.2519 H   0  0  0  0  0  0  0  0  0  0  0  0
  128.1693  139.1453  162.3450 H   0  0  0  0  0  0  0  0  0  0  0  0
  127.9282  136.1748  166.2134 H   0  0  0  0  0  0  0  0  0  0  0  0
  129.3583  137.0788  166.8746 H   0  0  0  0  0  0  0  0  0  0  0  0
  127.6476  138.5445  167.8397 H   0  0  0  0  0  0  0  0  0  0  0  0
  126.4437  138.0880  166.5550 H   0  0  0  0  0  0  0  0  0  0  0  0
  129.1073  139.6467  166.2070 H   0  0  0  0  0  0  0  0  0  0  0  0
  127.5698  139.8424  165.2596 H   0  0  0  0  0  0  0  0  0  0  0  0
  128.5396  135.4715  163.3027 H   0  0  0  0  0  0  0  0  0  0  0  0
  130.1976  136.1168  162.9315 H   0  0  0  0  0  0  0  0  0  0  0  0
  126.4926  135.1093  160.8079 H   0  0  0  0  0  0  0  0  0  0  0  0
  124.3873  135.3217  159.5487 H   0  0  0  0  0  0  0  0  0  0  0  0
  124.4378  135.8836  157.1519 H   0  0  0  0  0  0  0  0  0  0  0  0
  126.5933  136.2404  156.0160 H   0  0  0  0  0  0  0  0  0  0  0  0
  128.6981  136.0363  157.2773 H   0  0  0  0  0  0  0  0  0  0  0  0
  129.5653  132.8869  154.3059 H   0  0  0  0  0  0  0  0  0  0  0  0
  130.2177  131.6993  152.2526 H   0  0  0  0  0  0  0  0  0  0  0  0
  1  2  1  0
  1 34  1  0
  1 35  1  0
  1 36  1  0
  2  3  1  0
  2 37  1  0
  2 38  1  0
  3 33  2  0
  3  4  1  0
  4  5  2  0
  4 39  1  0
  5  6  1  0
  5 40  1  0
  6  7  1  0
  6 32  2  0
  7 30  1  0
  7  8  2  0
  8  9  1  0
  8 41  1  0
  9 10  1  0
  9 11  1  0
 11 12  1  0
 11 30  2  0
 12 13  1  0
 12 42  1  0
 13 14  1  1
 13 15  1  0
 13 24  1  0
 15 16  1  0
 15 43  1  0
 15 44  1  0
 16 23  1  0
 16 17  1  0
 16 45  1  0
 17 18  1  0
 17 46  1  0
 17 47  1  0
 18 19  2  0
 18 23  1  0
 19 22  1  0
 19 20  1  0
 20 21  1  0
 20 48  1  0
 20 49  1  0
 21 22  1  0
 21 50  1  0
 21 51  1  0
 22 52  1  0
 22 53  1  0
 23 54  1  0
 23 55  1  0
 24 29  1  0
 24 25  2  0
 25 26  1  0
 25 56  1  0
 26 27  2  0
 26 57  1  0
 27 28  1  0
 27 58  1  0
 28 29  2  0
 28 59  1  0
 29 60  1  0
 30 31  1  0
 32 33  1  0
 32 61  1  0
 33 62  1  0
M  CHG  1  30   1
M  END
>  <DOCK_score>  (1) 
-60.073673

>  <SMILES>  (1) 
CCc1ccc(-c2c[nH]c(N[C@@H](CC3CC(=C4CCC4)C3)c3ccccc3)[nH+]2)cc1

$$$$
