CN(C)c1cc(C[NH+](CCc2ccc(Br)cc2F)C[C@@H]2CCCO2)ccn1
     RDKit          3D

 55 57  0  0  1  0  0  0  0  0999 V2000
  129.1569  140.1405  161.4358 C   0  0  0  0  0  0  0  0  0  0  0  0
  128.1560  139.2438  162.0191 N   0  0  0  0  0  0  0  0  0  0  0  0
  127.2282  139.7444  163.0362 C   0  0  0  0  0  0  0  0  0  0  0  0
  128.0867  137.9180  161.6075 C   0  0  0  0  0  0  0  0  0  0  0  0
  128.9708  137.4489  160.6409 C   0  0  0  0  0  0  0  0  0  0  0  0
  128.8907  136.1275  160.2407 C   0  0  0  0  0  0  0  0  0  0  0  0
  129.8302  135.5802  159.1972 C   0  0  0  0  0  0  0  0  0  0  0  0
  130.3404  134.2739  159.6345 N   0  0  1  0  0  0  0  0  0  0  0  0
  129.5954  133.7500  160.0689 H   0  0  0  0  0  0  0  0  0  0  0  0
  130.8475  133.5322  158.4723 C   0  0  0  0  0  0  0  0  0  0  0  0
  129.6753  132.8974  157.7214 C   0  0  0  0  0  0  0  0  0  0  0  0
  130.1956  132.1365  156.5291 C   0  0  0  0  0  0  0  0  0  0  0  0
  130.3266  132.7707  155.3080 C   0  0  0  0  0  0  0  0  0  0  0  0
  130.8091  132.0751  154.2154 C   0  0  0  0  0  0  0  0  0  0  0  0
  131.1507  130.7401  154.3400 C   0  0  0  0  0  0  0  0  0  0  0  0
  131.8040  129.7877  152.8427 Br  0  0  0  0  0  0  0  0  0  0  0  0
  131.0150  130.1026  155.5593 C   0  0  0  0  0  0  0  0  0  0  0  0
  130.5370  130.8008  156.6554 C   0  0  0  0  0  0  0  0  0  0  0  0
  130.4035  130.1788  157.8473 F   0  0  0  0  0  0  0  0  0  0  0  0
  131.4282  134.4720  160.6016 C   0  0  0  0  0  0  0  0  0  0  0  0
  130.8367  134.7765  161.9794 C   0  0  2  0  0  0  0  0  0  0  0  0
  130.2300  135.6808  161.9296 H   0  0  0  0  0  0  0  0  0  0  0  0
  131.9730  134.9618  163.0080 C   0  0  0  0  0  0  0  0  0  0  0  0
  131.3942  134.2624  164.2680 C   0  0  0  0  0  0  0  0  0  0  0  0
  130.5814  133.1136  163.6196 C   0  0  0  0  0  0  0  0  0  0  0  0
  130.0322  133.6752  162.4170 O   0  0  0  0  0  0  0  0  0  0  0  0
  127.9253  135.3160  160.8225 C   0  0  0  0  0  0  0  0  0  0  0  0
  127.0804  135.8476  161.7758 C   0  0  0  0  0  0  0  0  0  0  0  0
  127.1798  137.1127  162.1386 N   0  0  0  0  0  0  0  0  0  0  0  0
  129.0016  140.2069  160.3589 H   0  0  0  0  0  0  0  0  0  0  0  0
  129.0589  141.1316  161.8787 H   0  0  0  0  0  0  0  0  0  0  0  0
  130.1548  139.7502  161.6356 H   0  0  0  0  0  0  0  0  0  0  0  0
  127.6637  139.6050  164.0256 H   0  0  0  0  0  0  0  0  0  0  0  0
  127.0418  140.8051  162.8676 H   0  0  0  0  0  0  0  0  0  0  0  0
  126.2884  139.1958  162.9723 H   0  0  0  0  0  0  0  0  0  0  0  0
  129.7095  138.1078  160.2089 H   0  0  0  0  0  0  0  0  0  0  0  0
  129.2973  135.4646  158.2534 H   0  0  0  0  0  0  0  0  0  0  0  0
  130.6639  136.2692  159.0617 H   0  0  0  0  0  0  0  0  0  0  0  0
  131.3772  134.2153  157.8083 H   0  0  0  0  0  0  0  0  0  0  0  0
  131.5292  132.7512  158.8090 H   0  0  0  0  0  0  0  0  0  0  0  0
  129.1456  132.2143  158.3854 H   0  0  0  0  0  0  0  0  0  0  0  0
  128.9938  133.6784  157.3848 H   0  0  0  0  0  0  0  0  0  0  0  0
  130.0560  133.8116  155.2085 H   0  0  0  0  0  0  0  0  0  0  0  0
  130.9150  132.5726  153.2627 H   0  0  0  0  0  0  0  0  0  0  0  0
  131.2820  129.0606  155.6570 H   0  0  0  0  0  0  0  0  0  0  0  0
  132.0335  133.5672  160.6581 H   0  0  0  0  0  0  0  0  0  0  0  0
  132.0517  135.3067  160.2814 H   0  0  0  0  0  0  0  0  0  0  0  0
  132.8840  134.4660  162.6730 H   0  0  0  0  0  0  0  0  0  0  0  0
  132.1537  136.0194  163.1998 H   0  0  0  0  0  0  0  0  0  0  0  0
  130.7448  134.9358  164.8277 H   0  0  0  0  0  0  0  0  0  0  0  0
  132.1907  133.8714  164.9010 H   0  0  0  0  0  0  0  0  0  0  0  0
  129.7817  132.7926  164.2869 H   0  0  0  0  0  0  0  0  0  0  0  0
  131.2357  132.2751  163.3811 H   0  0  0  0  0  0  0  0  0  0  0  0
  127.8364  134.2798  160.5318 H   0  0  0  0  0  0  0  0  0  0  0  0
  126.3253  135.2214  162.2274 H   0  0  0  0  0  0  0  0  0  0  0  0
  1  2  1  0
  1 30  1  0
  1 31  1  0
  1 32  1  0
  2  3  1  0
  2  4  1  0
  3 33  1  0
  3 34  1  0
  3 35  1  0
  4 29  2  0
  4  5  1  0
  5  6  2  0
  5 36  1  0
  6  7  1  0
  6 27  1  0
  7  8  1  0
  7 37  1  0
  7 38  1  0
  8  9  1  1
  8 10  1  0
  8 20  1  0
 10 11  1  0
 10 39  1  0
 10 40  1  0
 11 12  1  0
 11 41  1  0
 11 42  1  0
 12 18  1  0
 12 13  2  0
 13 14  1  0
 13 43  1  0
 14 15  2  0
 14 44  1  0
 15 16  1  0
 15 17  1  0
 17 18  2  0
 17 45  1  0
 18 19  1  0
 20 21  1  0
 20 46  1  0
 20 47  1  0
 21 22  1  6
 21 26  1  0
 21 23  1  0
 23 24  1  0
 23 48  1  0
 23 49  1  0
 24 25  1  0
 24 50  1  0
 24 51  1  0
 25 26  1  0
 25 52  1  0
 25 53  1  0
 27 28  2  0
 27 54  1  0
 28 29  1  0
 28 55  1  0
M  CHG  1   8   1
M  END
>  <DOCK_score>  (1) 
-41.870552

>  <SMILES>  (1) 
CN(C)c1cc(C[NH+](CCc2ccc(Br)cc2F)C[C@@H]2CCCO2)ccn1

$$$$
