Cc1c[nH]c(Nc2ccc(Nc3ccc(N[C@H]4CC=C(CCc5cccc6ccccc56)C4)cc3)cc2)[nH+]1
     RDKit          3D

 72 77  0  0  1  0  0  0  0  0999 V2000
  130.0182  131.8260  154.6300 C   0  0  0  0  0  0  0  0  0  0  0  0
  129.8040  132.4884  155.9666 C   0  0  0  0  0  0  0  0  0  0  0  0
  129.3560  131.8851  157.0810 C   0  0  0  0  0  0  0  0  0  0  0  0
  129.3082  132.8455  158.0656 N   0  0  0  0  0  0  0  0  0  0  0  0
  129.0245  132.7165  158.9841 H   0  0  0  0  0  0  0  0  0  0  0  0
  129.7340  134.0105  157.5062 C   0  0  0  0  0  0  0  0  0  0  0  0
  129.8392  135.2301  158.1552 N   0  0  0  0  0  0  0  0  0  0  0  0
  128.9744  135.5374  159.2128 C   0  0  0  0  0  0  0  0  0  0  0  0
  129.3988  136.3755  160.2357 C   0  0  0  0  0  0  0  0  0  0  0  0
  128.5463  136.6782  161.2788 C   0  0  0  0  0  0  0  0  0  0  0  0
  127.2641  136.1448  161.3048 C   0  0  0  0  0  0  0  0  0  0  0  0
  126.3999  136.4516  162.3621 N   0  0  0  0  0  0  0  0  0  0  0  0
  126.7545  136.1191  163.6749 C   0  0  0  0  0  0  0  0  0  0  0  0
  126.3030  136.8957  164.7341 C   0  0  0  0  0  0  0  0  0  0  0  0
  126.6530  136.5680  166.0288 C   0  0  0  0  0  0  0  0  0  0  0  0
  127.4569  135.4620  166.2720 C   0  0  0  0  0  0  0  0  0  0  0  0
  127.8125  135.1303  167.5847 N   0  0  0  0  0  0  0  0  0  0  0  0
  127.9420  136.1818  168.5964 C   0  0  1  0  0  0  0  0  0  0  0  0
  127.0011  136.7172  168.7238 H   0  0  0  0  0  0  0  0  0  0  0  0
  128.4365  135.6004  169.9412 C   0  0  0  0  0  0  0  0  0  0  0  0
  129.9384  135.7602  169.8996 C   0  0  0  0  0  0  0  0  0  0  0  0
  130.2955  136.6075  168.9731 C   0  0  0  0  0  0  0  0  0  0  0  0
  131.7217  136.9906  168.6723 C   0  0  0  0  0  0  0  0  0  0  0  0
  132.0523  136.6276  167.2233 C   0  0  0  0  0  0  0  0  0  0  0  0
  133.4784  137.0107  166.9222 C   0  0  0  0  0  0  0  0  0  0  0  0
  134.4849  136.1179  167.1290 C   0  0  0  0  0  0  0  0  0  0  0  0
  135.8093  136.4537  166.8558 C   0  0  0  0  0  0  0  0  0  0  0  0
  136.1352  137.6846  166.3744 C   0  0  0  0  0  0  0  0  0  0  0  0
  135.1233  138.6329  166.1486 C   0  0  0  0  0  0  0  0  0  0  0  0
  135.4210  139.9140  165.6528 C   0  0  0  0  0  0  0  0  0  0  0  0
  134.4147  140.8068  165.4467 C   0  0  0  0  0  0  0  0  0  0  0  0
  133.0900  140.4710  165.7205 C   0  0  0  0  0  0  0  0  0  0  0  0
  132.7641  139.2404  166.2019 C   0  0  0  0  0  0  0  0  0  0  0  0
  133.7754  138.2893  166.4211 C   0  0  0  0  0  0  0  0  0  0  0  0
  129.0909  137.1586  168.2464 C   0  0  0  0  0  0  0  0  0  0  0  0
  127.9127  134.6884  165.2126 C   0  0  0  0  0  0  0  0  0  0  0  0
  127.5581  135.0127  163.9182 C   0  0  0  0  0  0  0  0  0  0  0  0
  126.8415  135.3023  160.2844 C   0  0  0  0  0  0  0  0  0  0  0  0
  127.6924  135.0036  159.2391 C   0  0  0  0  0  0  0  0  0  0  0  0
  130.0226  133.7841  156.2463 N   0  0  0  0  0  0  0  0  0  0  0  0
  130.3457  134.4474  155.6167 H   0  0  0  0  0  0  0  0  0  0  0  0
  129.1035  131.8919  154.0410 H   0  0  0  0  0  0  0  0  0  0  0  0
  130.8280  132.3287  154.1011 H   0  0  0  0  0  0  0  0  0  0  0  0
  130.2783  130.7784  154.7813 H   0  0  0  0  0  0  0  0  0  0  0  0
  129.0856  130.8447  157.1843 H   0  0  0  0  0  0  0  0  0  0  0  0
  130.5120  135.8711  157.8770 H   0  0  0  0  0  0  0  0  0  0  0  0
  130.3958  136.7903  160.2153 H   0  0  0  0  0  0  0  0  0  0  0  0
  128.8766  137.3294  162.0745 H   0  0  0  0  0  0  0  0  0  0  0  0
  125.5554  136.8945  162.1851 H   0  0  0  0  0  0  0  0  0  0  0  0
  125.6778  137.7558  164.5449 H   0  0  0  0  0  0  0  0  0  0  0  0
  126.3020  137.1718  166.8524 H   0  0  0  0  0  0  0  0  0  0  0  0
  127.9730  134.2041  167.8244 H   0  0  0  0  0  0  0  0  0  0  0  0
  128.1687  134.5469  170.0208 H   0  0  0  0  0  0  0  0  0  0  0  0
  128.0177  136.1636  170.7753 H   0  0  0  0  0  0  0  0  0  0  0  0
  130.6262  135.2417  170.5511 H   0  0  0  0  0  0  0  0  0  0  0  0
  132.3916  136.4532  169.3434 H   0  0  0  0  0  0  0  0  0  0  0  0
  131.8475  138.0638  168.8158 H   0  0  0  0  0  0  0  0  0  0  0  0
  131.3824  137.1649  166.5520 H   0  0  0  0  0  0  0  0  0  0  0  0
  131.9264  135.5544  167.0797 H   0  0  0  0  0  0  0  0  0  0  0  0
  134.2534  135.1342  167.5104 H   0  0  0  0  0  0  0  0  0  0  0  0
  136.5889  135.7267  167.0287 H   0  0  0  0  0  0  0  0  0  0  0  0
  137.1660  137.9310  166.1674 H   0  0  0  0  0  0  0  0  0  0  0  0
  136.4429  140.1885  165.4368 H   0  0  0  0  0  0  0  0  0  0  0  0
  134.6463  141.7904  165.0657 H   0  0  0  0  0  0  0  0  0  0  0  0
  132.3105  141.1982  165.5484 H   0  0  0  0  0  0  0  0  0  0  0  0
  131.7333  138.9942  166.4094 H   0  0  0  0  0  0  0  0  0  0  0  0
  128.8600  138.1631  168.6011 H   0  0  0  0  0  0  0  0  0  0  0  0
  129.2669  137.1660  167.1707 H   0  0  0  0  0  0  0  0  0  0  0  0
  128.5413  133.8307  165.4016 H   0  0  0  0  0  0  0  0  0  0  0  0
  127.9093  134.4088  163.0946 H   0  0  0  0  0  0  0  0  0  0  0  0
  125.8463  134.8837  160.3071 H   0  0  0  0  0  0  0  0  0  0  0  0
  127.3625  134.3519  158.4437 H   0  0  0  0  0  0  0  0  0  0  0  0
  1  2  1  0
  1 42  1  0
  1 43  1  0
  1 44  1  0
  2 40  1  0
  2  3  2  0
  3  4  1  0
  3 45  1  0
  4  5  1  0
  4  6  1  0
  6  7  1  0
  6 40  2  0
  7  8  1  0
  7 46  1  0
  8 39  1  0
  8  9  2  0
  9 10  1  0
  9 47  1  0
 10 11  2  0
 10 48  1  0
 11 12  1  0
 11 38  1  0
 12 13  1  0
 12 49  1  0
 13 37  1  0
 13 14  2  0
 14 15  1  0
 14 50  1  0
 15 16  2  0
 15 51  1  0
 16 17  1  0
 16 36  1  0
 17 18  1  0
 17 52  1  0
 18 19  1  1
 18 35  1  0
 18 20  1  0
 20 21  1  0
 20 53  1  0
 20 54  1  0
 21 22  2  0
 21 55  1  0
 22 23  1  0
 22 35  1  0
 23 24  1  0
 23 56  1  0
 23 57  1  0
 24 25  1  0
 24 58  1  0
 24 59  1  0
 25 34  1  0
 25 26  2  0
 26 27  1  0
 26 60  1  0
 27 28  2  0
 27 61  1  0
 28 29  1  0
 28 62  1  0
 29 34  2  0
 29 30  1  0
 30 31  2  0
 30 63  1  0
 31 32  1  0
 31 64  1  0
 32 33  2  0
 32 65  1  0
 33 34  1  0
 33 66  1  0
 35 67  1  0
 35 68  1  0
 36 37  2  0
 36 69  1  0
 37 70  1  0
 38 39  2  0
 38 71  1  0
 39 72  1  0
 40 41  1  0
M  CHG  1  40   1
M  END
>  <DOCK_score>  (1) 
-54.72451

>  <SMILES>  (1) 
Cc1c[nH]c(Nc2ccc(Nc3ccc(N[C@H]4CC=C(CCc5cccc6ccccc56)C4)cc3)cc2)[nH+]1

$$$$
