O=C1CC[C@H]([NH+]=C(NC2CCC2)N[C@@H]2Cc3ccc(Cl)cc3C2)CN1
     RDKit          3D

 51 54  0  0  1  0  0  0  0  0999 V2000
  123.5895  134.1348  161.2759 O   0  0  0  0  0  0  0  0  0  0  0  0
  124.7893  134.2699  161.1610 C   0  0  0  0  0  0  0  0  0  0  0  0
  125.5769  133.1424  160.5580 C   0  0  0  0  0  0  0  0  0  0  0  0
  127.0615  133.3067  160.8927 C   0  0  0  0  0  0  0  0  0  0  0  0
  127.4749  134.7473  160.5683 C   0  0  2  0  0  0  0  0  0  0  0  0
  127.1848  134.9895  159.5458 H   0  0  0  0  0  0  0  0  0  0  0  0
  128.9260  134.8868  160.7135 N   0  0  0  0  0  0  0  0  0  0  0  0
  129.3055  135.1436  161.5685 H   0  0  0  0  0  0  0  0  0  0  0  0
  129.7072  134.6658  159.6939 C   0  0  0  0  0  0  0  0  0  0  0  0
  129.3364  133.7613  158.7270 N   0  0  0  0  0  0  0  0  0  0  0  0
  130.3602  133.0184  157.9878 C   0  0  0  0  0  0  0  0  0  0  0  0
  129.8447  131.7075  157.3705 C   0  0  0  0  0  0  0  0  0  0  0  0
  131.1843  131.0770  157.7860 C   0  0  0  0  0  0  0  0  0  0  0  0
  131.2594  132.1508  158.8842 C   0  0  0  0  0  0  0  0  0  0  0  0
  130.9023  135.3368  159.5852 N   0  0  0  0  0  0  0  0  0  0  0  0
  131.2975  136.3004  160.6154 C   0  0  2  0  0  0  0  0  0  0  0  0
  130.8858  136.0195  161.5848 H   0  0  0  0  0  0  0  0  0  0  0  0
  130.8659  137.7297  160.2245 C   0  0  0  0  0  0  0  0  0  0  0  0
  131.9663  138.6313  160.7415 C   0  0  0  0  0  0  0  0  0  0  0  0
  131.9766  139.9988  160.9619 C   0  0  0  0  0  0  0  0  0  0  0  0
  133.1124  140.6163  161.4469 C   0  0  0  0  0  0  0  0  0  0  0  0
  134.2447  139.8674  161.7135 C   0  0  0  0  0  0  0  0  0  0  0  0
  135.6744  140.6404  162.3240 Cl  0  0  0  0  0  0  0  0  0  0  0  0
  134.2361  138.5027  161.4937 C   0  0  0  0  0  0  0  0  0  0  0  0
  133.0972  137.8827  161.0079 C   0  0  0  0  0  0  0  0  0  0  0  0
  132.8341  136.4267  160.6880 C   0  0  0  0  0  0  0  0  0  0  0  0
  126.7687  135.6907  161.5427 C   0  0  0  0  0  0  0  0  0  0  0  0
  125.3378  135.4137  161.5720 N   0  0  0  0  0  0  0  0  0  0  0  0
  125.2180  132.1947  160.9594 H   0  0  0  0  0  0  0  0  0  0  0  0
  125.4470  133.1482  159.4758 H   0  0  0  0  0  0  0  0  0  0  0  0
  127.2229  133.1085  161.9524 H   0  0  0  0  0  0  0  0  0  0  0  0
  127.6515  132.6116  160.2954 H   0  0  0  0  0  0  0  0  0  0  0  0
  128.3971  133.6151  158.5344 H   0  0  0  0  0  0  0  0  0  0  0  0
  130.9144  133.6437  157.2880 H   0  0  0  0  0  0  0  0  0  0  0  0
  128.9843  131.2881  157.8921 H   0  0  0  0  0  0  0  0  0  0  0  0
  129.7026  131.7595  156.2912 H   0  0  0  0  0  0  0  0  0  0  0  0
  131.9640  131.1706  157.0299 H   0  0  0  0  0  0  0  0  0  0  0  0
  131.0882  130.0626  158.1729 H   0  0  0  0  0  0  0  0  0  0  0  0
  132.2594  132.5606  159.0268 H   0  0  0  0  0  0  0  0  0  0  0  0
  130.7863  131.8536  159.8202 H   0  0  0  0  0  0  0  0  0  0  0  0
  131.4836  135.1722  158.8264 H   0  0  0  0  0  0  0  0  0  0  0  0
  130.7833  137.8168  159.1411 H   0  0  0  0  0  0  0  0  0  0  0  0
  129.9170  137.9811  160.6983 H   0  0  0  0  0  0  0  0  0  0  0  0
  131.0930  140.5840  160.7536 H   0  0  0  0  0  0  0  0  0  0  0  0
  133.1169  141.6828  161.6175 H   0  0  0  0  0  0  0  0  0  0  0  0
  135.1201  137.9184  161.7020 H   0  0  0  0  0  0  0  0  0  0  0  0
  133.2294  135.7884  161.4782 H   0  0  0  0  0  0  0  0  0  0  0  0
  133.2810  136.1634  159.7291 H   0  0  0  0  0  0  0  0  0  0  0  0
  127.1859  135.5562  162.5407 H   0  0  0  0  0  0  0  0  0  0  0  0
  126.9241  136.7211  161.2231 H   0  0  0  0  0  0  0  0  0  0  0  0
  124.7481  136.1031  161.9154 H   0  0  0  0  0  0  0  0  0  0  0  0
  1  2  2  0
  2 28  1  0
  2  3  1  0
  3  4  1  0
  3 29  1  0
  3 30  1  0
  4  5  1  0
  4 31  1  0
  4 32  1  0
  5  6  1  6
  5  7  1  0
  5 27  1  0
  7  8  1  0
  9  7  2  0
  9 10  1  0
  9 15  1  0
 10 11  1  0
 10 33  1  0
 11 14  1  0
 11 12  1  0
 11 34  1  0
 12 13  1  0
 12 35  1  0
 12 36  1  0
 13 14  1  0
 13 37  1  0
 13 38  1  0
 14 39  1  0
 14 40  1  0
 15 16  1  0
 15 41  1  0
 16 17  1  1
 16 26  1  0
 16 18  1  0
 18 19  1  0
 18 42  1  0
 18 43  1  0
 19 25  2  0
 19 20  1  0
 20 21  2  0
 20 44  1  0
 21 22  1  0
 21 45  1  0
 22 23  1  0
 22 24  2  0
 24 25  1  0
 24 46  1  0
 25 26  1  0
 26 47  1  0
 26 48  1  0
 27 28  1  0
 27 49  1  0
 27 50  1  0
 28 51  1  0
M  CHG  1   7   1
M  END
>  <DOCK_score>  (1) 
-46.457703

>  <SMILES>  (1) 
O=C1CC[C@H]([NH+]=C(NC2CCC2)N[C@@H]2Cc3ccc(Cl)cc3C2)CN1

$$$$
