CCc1ccc(-c2c[nH]c(N[C@@H](c3ccc(F)cc3)c3cccs3)[nH+]2)cc1
     RDKit          3D

 48 51  0  0  1  0  0  0  0  0999 V2000
  130.2868  128.4963  151.6945 C   0  0  0  0  0  0  0  0  0  0  0  0
  131.3918  129.5125  151.9893 C   0  0  0  0  0  0  0  0  0  0  0  0
  131.0663  130.2542  153.2601 C   0  0  0  0  0  0  0  0  0  0  0  0
  131.5100  129.7659  154.4754 C   0  0  0  0  0  0  0  0  0  0  0  0
  131.2198  130.4439  155.6420 C   0  0  0  0  0  0  0  0  0  0  0  0
  130.4683  131.6167  155.5947 C   0  0  0  0  0  0  0  0  0  0  0  0
  130.1485  132.3469  156.8457 C   0  0  0  0  0  0  0  0  0  0  0  0
  129.4573  131.8538  157.9031 C   0  0  0  0  0  0  0  0  0  0  0  0
  129.3913  132.8572  158.8390 N   0  0  0  0  0  0  0  0  0  0  0  0
  128.9590  132.8067  159.7059 H   0  0  0  0  0  0  0  0  0  0  0  0
  130.0448  133.9350  158.3258 C   0  0  0  0  0  0  0  0  0  0  0  0
  130.2063  135.1561  158.9576 N   0  0  0  0  0  0  0  0  0  0  0  0
  129.6484  135.3681  160.2955 C   0  0  1  0  0  0  0  0  0  0  0  0
  130.0879  134.6521  160.9900 H   0  0  0  0  0  0  0  0  0  0  0  0
  129.9608  136.7693  160.7538 C   0  0  0  0  0  0  0  0  0  0  0  0
  129.0948  137.4258  161.6084 C   0  0  0  0  0  0  0  0  0  0  0  0
  129.3827  138.7089  162.0332 C   0  0  0  0  0  0  0  0  0  0  0  0
  130.5337  139.3411  161.5940 C   0  0  0  0  0  0  0  0  0  0  0  0
  130.8138  140.5972  162.0048 F   0  0  0  0  0  0  0  0  0  0  0  0
  131.3976  138.6845  160.7340 C   0  0  0  0  0  0  0  0  0  0  0  0
  131.1103  137.3994  160.3147 C   0  0  0  0  0  0  0  0  0  0  0  0
  128.1544  135.1749  160.2531 C   0  0  0  0  0  0  0  0  0  0  0  0
  127.3081  135.8851  159.5057 C   0  0  0  0  0  0  0  0  0  0  0  0
  125.9769  135.5268  159.6315 C   0  0  0  0  0  0  0  0  0  0  0  0
  125.7423  134.5257  160.4813 C   0  0  0  0  0  0  0  0  0  0  0  0
  127.2608  133.9735  161.1761 S   0  0  0  0  0  0  0  0  0  0  0  0
  130.5008  133.6243  157.1369 N   0  0  0  0  0  0  0  0  0  0  0  0
  131.0073  134.2142  156.5569 H   0  0  0  0  0  0  0  0  0  0  0  0
  130.0189  132.1013  154.3676 C   0  0  0  0  0  0  0  0  0  0  0  0
  130.3199  131.4181  153.2068 C   0  0  0  0  0  0  0  0  0  0  0  0
  130.2153  127.7882  152.5201 H   0  0  0  0  0  0  0  0  0  0  0  0
  129.3359  129.0163  151.5785 H   0  0  0  0  0  0  0  0  0  0  0  0
  130.5221  127.9599  150.7752 H   0  0  0  0  0  0  0  0  0  0  0  0
  132.3424  128.9930  152.1048 H   0  0  0  0  0  0  0  0  0  0  0  0
  131.4630  130.2211  151.1632 H   0  0  0  0  0  0  0  0  0  0  0  0
  132.0882  128.8545  154.5114 H   0  0  0  0  0  0  0  0  0  0  0  0
  131.5708  130.0641  156.5902 H   0  0  0  0  0  0  0  0  0  0  0  0
  129.0385  130.8623  157.9921 H   0  0  0  0  0  0  0  0  0  0  0  0
  130.6891  135.8714  158.5145 H   0  0  0  0  0  0  0  0  0  0  0  0
  128.1950  136.9340  161.9476 H   0  0  0  0  0  0  0  0  0  0  0  0
  128.7081  139.2201  162.7041 H   0  0  0  0  0  0  0  0  0  0  0  0
  132.2954  139.1768  160.3906 H   0  0  0  0  0  0  0  0  0  0  0  0
  131.7842  136.8870  159.6441 H   0  0  0  0  0  0  0  0  0  0  0  0
  127.6366  136.6791  158.8515 H   0  0  0  0  0  0  0  0  0  0  0  0
  125.1882  136.0201  159.0831 H   0  0  0  0  0  0  0  0  0  0  0  0
  124.7690  134.1147  160.7056 H   0  0  0  0  0  0  0  0  0  0  0  0
  129.4361  133.0096  154.3252 H   0  0  0  0  0  0  0  0  0  0  0  0
  129.9720  131.7925  152.2554 H   0  0  0  0  0  0  0  0  0  0  0  0
  1  2  1  0
  1 31  1  0
  1 32  1  0
  1 33  1  0
  2  3  1  0
  2 34  1  0
  2 35  1  0
  3 30  2  0
  3  4  1  0
  4  5  2  0
  4 36  1  0
  5  6  1  0
  5 37  1  0
  6  7  1  0
  6 29  2  0
  7 27  1  0
  7  8  2  0
  8  9  1  0
  8 38  1  0
  9 10  1  0
  9 11  1  0
 11 12  1  0
 11 27  2  0
 12 13  1  0
 12 39  1  0
 13 14  1  1
 13 15  1  0
 13 22  1  0
 15 21  1  0
 15 16  2  0
 16 17  1  0
 16 40  1  0
 17 18  2  0
 17 41  1  0
 18 19  1  0
 18 20  1  0
 20 21  2  0
 20 42  1  0
 21 43  1  0
 22 26  1  0
 22 23  2  0
 23 24  1  0
 23 44  1  0
 24 25  2  0
 24 45  1  0
 25 26  1  0
 25 46  1  0
 27 28  1  0
 29 30  1  0
 29 47  1  0
 30 48  1  0
M  CHG  1  27   1
M  END
>  <DOCK_score>  (1) 
-60.262119

>  <SMILES>  (1) 
CCc1ccc(-c2c[nH]c(N[C@@H](c3ccc(F)cc3)c3cccs3)[nH+]2)cc1

$$$$
