[NH3+][C@H](C(=O)Nc1n[nH]cc1I)c1cccc(O)c1
     RDKit          3D

 30 31  0  0  1  0  0  0  0  0999 V2000
  130.2878  134.6289  157.4367 N   0  0  0  0  0  0  0  0  0  0  0  0
  130.7216  134.8226  158.3268 H   0  0  0  0  0  0  0  0  0  0  0  0
  130.9833  134.2856  156.7913 H   0  0  0  0  0  0  0  0  0  0  0  0
  129.8780  135.4752  157.0709 H   0  0  0  0  0  0  0  0  0  0  0  0
  129.2404  133.6142  157.6131 C   0  0  2  0  0  0  0  0  0  0  0  0
  128.7718  133.4047  156.6514 H   0  0  0  0  0  0  0  0  0  0  0  0
  128.2016  134.1267  158.5771 C   0  0  0  0  0  0  0  0  0  0  0  0
  127.9809  135.3169  158.6545 O   0  0  0  0  0  0  0  0  0  0  0  0
  127.5177  133.2627  159.3531 N   0  0  0  0  0  0  0  0  0  0  0  0
  126.5516  133.7394  160.2497 C   0  0  0  0  0  0  0  0  0  0  0  0
  126.2199  134.9962  160.4289 N   0  0  0  0  0  0  0  0  0  0  0  0
  125.2195  135.0490  161.4078 N   0  0  0  0  0  0  0  0  0  0  0  0
  124.7876  135.8521  161.7385 H   0  0  0  0  0  0  0  0  0  0  0  0
  124.9613  133.7864  161.8105 C   0  0  0  0  0  0  0  0  0  0  0  0
  125.7651  132.9549  161.1089 C   0  0  0  0  0  0  0  0  0  0  0  0
  125.8285  130.8676  161.2773 I   0  0  0  0  0  0  0  0  0  0  0  0
  129.8524  132.3500  158.1595 C   0  0  0  0  0  0  0  0  0  0  0  0
  129.9426  132.1610  159.5265 C   0  0  0  0  0  0  0  0  0  0  0  0
  130.5039  131.0028  160.0308 C   0  0  0  0  0  0  0  0  0  0  0  0
  130.9759  130.0306  159.1699 C   0  0  0  0  0  0  0  0  0  0  0  0
  130.8817  130.2155  157.7984 C   0  0  0  0  0  0  0  0  0  0  0  0
  131.3405  129.2585  156.9495 O   0  0  0  0  0  0  0  0  0  0  0  0
  130.3232  131.3815  157.2946 C   0  0  0  0  0  0  0  0  0  0  0  0
  127.6942  132.3109  159.2912 H   0  0  0  0  0  0  0  0  0  0  0  0
  124.2382  133.4922  162.5568 H   0  0  0  0  0  0  0  0  0  0  0  0
  129.5742  132.9197  160.2010 H   0  0  0  0  0  0  0  0  0  0  0  0
  130.5732  130.8575  161.0988 H   0  0  0  0  0  0  0  0  0  0  0  0
  131.4140  129.1258  159.5645 H   0  0  0  0  0  0  0  0  0  0  0  0
  131.2314  129.4776  156.0140 H   0  0  0  0  0  0  0  0  0  0  0  0
  130.2525  131.5296  156.2272 H   0  0  0  0  0  0  0  0  0  0  0  0
  1  2  1  0
  1  3  1  0
  1  4  1  0
  1  5  1  0
  5  6  1  6
  5  7  1  0
  5 17  1  0
  7  8  2  0
  7  9  1  0
  9 10  1  0
  9 24  1  0
 10 15  1  0
 10 11  2  0
 11 12  1  0
 12 13  1  0
 12 14  1  0
 14 15  2  0
 14 25  1  0
 15 16  1  0
 17 23  1  0
 17 18  2  0
 18 19  1  0
 18 26  1  0
 19 20  2  0
 19 27  1  0
 20 21  1  0
 20 28  1  0
 21 22  1  0
 21 23  2  0
 22 29  1  0
 23 30  1  0
M  CHG  1   1   1
M  END
>  <DOCK_score>  (1) 
-41.17437

>  <SMILES>  (1) 
[NH3+][C@H](C(=O)Nc1n[nH]cc1I)c1cccc(O)c1

$$$$
