C/C=C/C[NH2+]Cc1c[nH]nc1-c1ccc(NCCc2ccccc2Br)o1
     RDKit          3D

 50 52  0  0  0  0  0  0  0  0999 V2000
  134.4442  139.9319  158.3315 C   0  0  0  0  0  0  0  0  0  0  0  0
  133.4369  139.0956  159.0778 C   0  0  0  0  0  0  0  0  0  0  0  0
  133.8415  138.2084  159.9524 C   0  0  0  0  0  0  0  0  0  0  0  0
  132.8343  137.3720  160.6987 C   0  0  0  0  0  0  0  0  0  0  0  0
  132.5630  136.1419  159.9430 N   0  0  0  0  0  0  0  0  0  0  0  0
  133.4189  135.6190  159.8333 H   0  0  0  0  0  0  0  0  0  0  0  0
  132.1952  136.3797  159.0342 H   0  0  0  0  0  0  0  0  0  0  0  0
  131.5811  135.3267  160.6707 C   0  0  0  0  0  0  0  0  0  0  0  0
  131.3028  134.0646  159.8955 C   0  0  0  0  0  0  0  0  0  0  0  0
  132.2260  133.2660  159.3183 C   0  0  0  0  0  0  0  0  0  0  0  0
  131.5783  132.2445  158.7172 N   0  0  0  0  0  0  0  0  0  0  0  0
  131.9929  131.5213  158.2213 H   0  0  0  0  0  0  0  0  0  0  0  0
  130.2043  132.4102  158.9334 N   0  0  0  0  0  0  0  0  0  0  0  0
  130.0316  133.5053  159.6472 C   0  0  0  0  0  0  0  0  0  0  0  0
  128.7365  134.0529  160.1010 C   0  0  0  0  0  0  0  0  0  0  0  0
  127.5137  133.5131  159.8548 C   0  0  0  0  0  0  0  0  0  0  0  0
  126.5650  134.3550  160.4680 C   0  0  0  0  0  0  0  0  0  0  0  0
  127.2536  135.3643  161.0569 C   0  0  0  0  0  0  0  0  0  0  0  0
  126.6968  136.4177  161.7730 N   0  0  0  0  0  0  0  0  0  0  0  0
  127.5628  137.4440  162.3585 C   0  0  0  0  0  0  0  0  0  0  0  0
  127.3681  137.4706  163.8759 C   0  0  0  0  0  0  0  0  0  0  0  0
  128.2589  138.5263  164.4783 C   0  0  0  0  0  0  0  0  0  0  0  0
  129.5428  138.2029  164.8757 C   0  0  0  0  0  0  0  0  0  0  0  0
  130.3600  139.1713  165.4279 C   0  0  0  0  0  0  0  0  0  0  0  0
  129.8934  140.4635  165.5841 C   0  0  0  0  0  0  0  0  0  0  0  0
  128.6103  140.7877  165.1865 C   0  0  0  0  0  0  0  0  0  0  0  0
  127.7938  139.8200  164.6285 C   0  0  0  0  0  0  0  0  0  0  0  0
  126.0401  140.2646  164.0785 Br  0  0  0  0  0  0  0  0  0  0  0  0
  128.5644  135.1778  160.8267 O   0  0  0  0  0  0  0  0  0  0  0  0
  135.1047  139.2804  157.7593 H   0  0  0  0  0  0  0  0  0  0  0  0
  133.9239  140.6081  157.6531 H   0  0  0  0  0  0  0  0  0  0  0  0
  135.0327  140.5121  159.0422 H   0  0  0  0  0  0  0  0  0  0  0  0
  132.3813  139.2279  158.8916 H   0  0  0  0  0  0  0  0  0  0  0  0
  134.8973  138.0762  160.1386 H   0  0  0  0  0  0  0  0  0  0  0  0
  131.9096  137.9369  160.8174 H   0  0  0  0  0  0  0  0  0  0  0  0
  133.2316  137.1152  161.6807 H   0  0  0  0  0  0  0  0  0  0  0  0
  130.6565  135.8915  160.7892 H   0  0  0  0  0  0  0  0  0  0  0  0
  131.9785  135.0698  161.6526 H   0  0  0  0  0  0  0  0  0  0  0  0
  133.2948  133.4198  159.3309 H   0  0  0  0  0  0  0  0  0  0  0  0
  127.3086  132.6122  159.2956 H   0  0  0  0  0  0  0  0  0  0  0  0
  125.4932  134.2222  160.4688 H   0  0  0  0  0  0  0  0  0  0  0  0
  125.7345  136.4754  161.8813 H   0  0  0  0  0  0  0  0  0  0  0  0
  128.6037  137.2150  162.1297 H   0  0  0  0  0  0  0  0  0  0  0  0
  127.3051  138.4178  161.9421 H   0  0  0  0  0  0  0  0  0  0  0  0
  126.3272  137.6996  164.1047 H   0  0  0  0  0  0  0  0  0  0  0  0
  127.6258  136.4968  164.2924 H   0  0  0  0  0  0  0  0  0  0  0  0
  129.9076  137.1937  164.7545 H   0  0  0  0  0  0  0  0  0  0  0  0
  131.3631  138.9184  165.7384 H   0  0  0  0  0  0  0  0  0  0  0  0
  130.5323  141.2197  166.0158 H   0  0  0  0  0  0  0  0  0  0  0  0
  128.2461  141.7972  165.3077 H   0  0  0  0  0  0  0  0  0  0  0  0
  1  2  1  0
  1 30  1  0
  1 31  1  0
  1 32  1  0
  2  3  2  0
  2 33  1  0
  3  4  1  0
  3 34  1  0
  4  5  1  0
  4 35  1  0
  4 36  1  0
  5  6  1  0
  5  7  1  0
  5  8  1  0
  8  9  1  0
  8 37  1  0
  8 38  1  0
  9 14  1  0
  9 10  2  0
 10 11  1  0
 10 39  1  0
 11 12  1  0
 11 13  1  0
 13 14  2  0
 14 15  1  0
 15 29  1  0
 15 16  2  0
 16 17  1  0
 16 40  1  0
 17 18  2  0
 17 41  1  0
 18 19  1  0
 18 29  1  0
 19 20  1  0
 19 42  1  0
 20 21  1  0
 20 43  1  0
 20 44  1  0
 21 22  1  0
 21 45  1  0
 21 46  1  0
 22 27  1  0
 22 23  2  0
 23 24  1  0
 23 47  1  0
 24 25  2  0
 24 48  1  0
 25 26  1  0
 25 49  1  0
 26 27  2  0
 26 50  1  0
 27 28  1  0
M  CHG  1   5   1
M  END
>  <DOCK_score>  (1) 
-44.353073

>  <SMILES>  (1) 
C/C=C/C[NH2+]Cc1c[nH]nc1-c1ccc(NCCc2ccccc2Br)o1

$$$$
