C[NH2+][C@@H]1CC=C(c2[nH]ncc2C(=O)c2cnn(-c3ccccc3)c2)C1
     RDKit          3D

 45 48  0  0  1  0  0  0  0  0999 V2000
  133.3374  138.1786  159.7947 C   0  0  0  0  0  0  0  0  0  0  0  0
  133.2267  136.7197  159.6630 N   0  0  0  0  0  0  0  0  0  0  0  0
  134.1356  136.3006  159.7917 H   0  0  0  0  0  0  0  0  0  0  0  0
  132.8775  136.4902  158.7446 H   0  0  0  0  0  0  0  0  0  0  0  0
  132.3016  136.2048  160.6814 C   0  0  2  0  0  0  0  0  0  0  0  0
  132.6579  136.4404  161.6842 H   0  0  0  0  0  0  0  0  0  0  0  0
  132.0852  134.6834  160.5142 C   0  0  0  0  0  0  0  0  0  0  0  0
  130.6299  134.4597  160.8540 C   0  0  0  0  0  0  0  0  0  0  0  0
  129.9589  135.6040  160.8235 C   0  0  0  0  0  0  0  0  0  0  0  0
  128.5228  135.7376  161.1055 C   0  0  0  0  0  0  0  0  0  0  0  0
  127.9541  135.9704  162.3178 N   0  0  0  0  0  0  0  0  0  0  0  0
  128.4288  136.0778  163.1570 H   0  0  0  0  0  0  0  0  0  0  0  0
  126.5663  136.0226  162.1488 N   0  0  0  0  0  0  0  0  0  0  0  0
  126.2773  135.8402  160.8901 C   0  0  0  0  0  0  0  0  0  0  0  0
  127.4804  135.6502  160.1783 C   0  0  0  0  0  0  0  0  0  0  0  0
  127.6128  135.4070  158.7336 C   0  0  0  0  0  0  0  0  0  0  0  0
  127.1985  136.2292  157.9377 O   0  0  0  0  0  0  0  0  0  0  0  0
  128.2476  134.1670  158.2498 C   0  0  0  0  0  0  0  0  0  0  0  0
  128.2497  132.9145  158.9051 C   0  0  0  0  0  0  0  0  0  0  0  0
  128.9103  132.0700  158.1616 N   0  0  0  0  0  0  0  0  0  0  0  0
  129.3642  132.7326  157.0157 N   0  0  0  0  0  0  0  0  0  0  0  0
  130.1159  132.1586  155.9814 C   0  0  0  0  0  0  0  0  0  0  0  0
  130.5001  132.9279  154.8911 C   0  0  0  0  0  0  0  0  0  0  0  0
  131.2449  132.3606  153.8757 C   0  0  0  0  0  0  0  0  0  0  0  0
  131.5990  131.0255  153.9389 C   0  0  0  0  0  0  0  0  0  0  0  0
  131.2133  130.2554  155.0208 C   0  0  0  0  0  0  0  0  0  0  0  0
  130.4729  130.8182  156.0419 C   0  0  0  0  0  0  0  0  0  0  0  0
  128.9565  134.0136  157.0744 C   0  0  0  0  0  0  0  0  0  0  0  0
  130.8714  136.7500  160.4528 C   0  0  0  0  0  0  0  0  0  0  0  0
  133.7147  138.4262  160.7869 H   0  0  0  0  0  0  0  0  0  0  0  0
  134.0238  138.5606  159.0392 H   0  0  0  0  0  0  0  0  0  0  0  0
  132.3557  138.6313  159.6558 H   0  0  0  0  0  0  0  0  0  0  0  0
  132.7248  134.1314  161.2030 H   0  0  0  0  0  0  0  0  0  0  0  0
  132.2853  134.3827  159.4857 H   0  0  0  0  0  0  0  0  0  0  0  0
  130.1954  133.4995  161.0897 H   0  0  0  0  0  0  0  0  0  0  0  0
  125.2843  135.8317  160.4653 H   0  0  0  0  0  0  0  0  0  0  0  0
  127.7840  132.6945  159.8543 H   0  0  0  0  0  0  0  0  0  0  0  0
  130.2201  133.9697  154.8391 H   0  0  0  0  0  0  0  0  0  0  0  0
  131.5475  132.9595  153.0294 H   0  0  0  0  0  0  0  0  0  0  0  0
  132.1776  130.5830  153.1415 H   0  0  0  0  0  0  0  0  0  0  0  0
  131.4916  129.2130  155.0675 H   0  0  0  0  0  0  0  0  0  0  0  0
  130.1723  130.2164  156.8869 H   0  0  0  0  0  0  0  0  0  0  0  0
  129.1482  134.7802  156.3382 H   0  0  0  0  0  0  0  0  0  0  0  0
  130.7298  137.0249  159.4075 H   0  0  0  0  0  0  0  0  0  0  0  0
  130.6856  137.6073  161.0997 H   0  0  0  0  0  0  0  0  0  0  0  0
  1  2  1  0
  1 30  1  0
  1 31  1  0
  1 32  1  0
  2  3  1  0
  2  4  1  0
  2  5  1  0
  5  6  1  1
  5 29  1  0
  5  7  1  0
  7  8  1  0
  7 33  1  0
  7 34  1  0
  8  9  2  0
  8 35  1  0
  9 10  1  0
  9 29  1  0
 10 15  2  0
 10 11  1  0
 11 12  1  0
 11 13  1  0
 13 14  2  0
 14 15  1  0
 14 36  1  0
 15 16  1  0
 16 17  2  0
 16 18  1  0
 18 28  2  0
 18 19  1  0
 19 20  2  0
 19 37  1  0
 20 21  1  0
 21 22  1  0
 21 28  1  0
 22 27  1  0
 22 23  2  0
 23 24  1  0
 23 38  1  0
 24 25  2  0
 24 39  1  0
 25 26  1  0
 25 40  1  0
 26 27  2  0
 26 41  1  0
 27 42  1  0
 28 43  1  0
 29 44  1  0
 29 45  1  0
M  CHG  1   2   1
M  END
>  <DOCK_score>  (1) 
-46.025265

>  <SMILES>  (1) 
C[NH2+][C@@H]1CC=C(c2[nH]ncc2C(=O)c2cnn(-c3ccccc3)c2)C1

$$$$
