O=C1CC[C@H](NC(NC2CC2)=[NH+][C@H]2COc3ccc(F)cc3C2)CN1
     RDKit          3D

 49 52  0  0  1  0  0  0  0  0999 V2000
  123.6818  133.6935  161.5178 O   0  0  0  0  0  0  0  0  0  0  0  0
  124.8470  133.8736  161.2333 C   0  0  0  0  0  0  0  0  0  0  0  0
  125.6222  132.7263  160.6519 C   0  0  0  0  0  0  0  0  0  0  0  0
  127.1237  132.9988  160.7710 C   0  0  0  0  0  0  0  0  0  0  0  0
  127.4026  134.4133  160.2486 C   0  0  2  0  0  0  0  0  0  0  0  0
  126.9725  134.5269  159.2534 H   0  0  0  0  0  0  0  0  0  0  0  0
  128.8488  134.6385  160.1878 N   0  0  0  0  0  0  0  0  0  0  0  0
  129.5453  134.3286  159.0436 C   0  0  0  0  0  0  0  0  0  0  0  0
  128.8843  133.8073  157.9565 N   0  0  0  0  0  0  0  0  0  0  0  0
  129.6264  133.4770  156.7373 C   0  0  0  0  0  0  0  0  0  0  0  0
  129.4337  132.0774  156.1502 C   0  0  0  0  0  0  0  0  0  0  0  0
  130.7456  132.4402  156.8505 C   0  0  0  0  0  0  0  0  0  0  0  0
  130.8321  134.5290  158.9894 N   0  0  0  0  0  0  0  0  0  0  0  0
  131.2551  134.7379  158.1419 H   0  0  0  0  0  0  0  0  0  0  0  0
  131.6394  134.4387  160.2086 C   0  0  1  0  0  0  0  0  0  0  0  0
  131.1862  133.7264  160.8981 H   0  0  0  0  0  0  0  0  0  0  0  0
  133.0610  133.9831  159.8548 C   0  0  0  0  0  0  0  0  0  0  0  0
  133.7920  133.8047  161.0688 O   0  0  0  0  0  0  0  0  0  0  0  0
  133.7518  134.8052  161.9877 C   0  0  0  0  0  0  0  0  0  0  0  0
  134.7121  134.8204  162.9942 C   0  0  0  0  0  0  0  0  0  0  0  0
  134.7037  135.8173  163.9480 C   0  0  0  0  0  0  0  0  0  0  0  0
  133.7331  136.8041  163.9076 C   0  0  0  0  0  0  0  0  0  0  0  0
  133.7206  137.7791  164.8427 F   0  0  0  0  0  0  0  0  0  0  0  0
  132.7766  136.7907  162.9088 C   0  0  0  0  0  0  0  0  0  0  0  0
  132.7844  135.7937  161.9473 C   0  0  0  0  0  0  0  0  0  0  0  0
  131.7274  135.8152  160.8722 C   0  0  0  0  0  0  0  0  0  0  0  0
  126.7652  135.4254  161.2015 C   0  0  0  0  0  0  0  0  0  0  0  0
  125.3713  135.0797  161.4541 N   0  0  0  0  0  0  0  0  0  0  0  0
  125.3581  132.6065  159.6012 H   0  0  0  0  0  0  0  0  0  0  0  0
  125.3757  131.8131  161.1935 H   0  0  0  0  0  0  0  0  0  0  0  0
  127.6768  132.2722  160.1759 H   0  0  0  0  0  0  0  0  0  0  0  0
  127.4287  132.9265  161.8149 H   0  0  0  0  0  0  0  0  0  0  0  0
  129.3151  135.0063  160.9547 H   0  0  0  0  0  0  0  0  0  0  0  0
  127.9267  133.6582  157.9968 H   0  0  0  0  0  0  0  0  0  0  0  0
  129.7720  134.3005  156.0380 H   0  0  0  0  0  0  0  0  0  0  0  0
  128.7548  131.4023  156.6712 H   0  0  0  0  0  0  0  0  0  0  0  0
  129.4529  131.9798  155.0648 H   0  0  0  0  0  0  0  0  0  0  0  0
  131.6274  132.5811  156.2254 H   0  0  0  0  0  0  0  0  0  0  0  0
  130.9300  132.0039  157.8321 H   0  0  0  0  0  0  0  0  0  0  0  0
  133.0194  133.0403  159.3095 H   0  0  0  0  0  0  0  0  0  0  0  0
  133.5473  134.7413  159.2409 H   0  0  0  0  0  0  0  0  0  0  0  0
  135.4697  134.0514  163.0265 H   0  0  0  0  0  0  0  0  0  0  0  0
  135.4520  135.8268  164.7265 H   0  0  0  0  0  0  0  0  0  0  0  0
  132.0205  137.5612  162.8780 H   0  0  0  0  0  0  0  0  0  0  0  0
  130.7640  136.0663  161.3158 H   0  0  0  0  0  0  0  0  0  0  0  0
  131.9875  136.5627  160.1227 H   0  0  0  0  0  0  0  0  0  0  0  0
  127.3109  135.4249  162.1451 H   0  0  0  0  0  0  0  0  0  0  0  0
  126.8182  136.4200  160.7587 H   0  0  0  0  0  0  0  0  0  0  0  0
  124.7882  135.7721  161.8026 H   0  0  0  0  0  0  0  0  0  0  0  0
  1  2  2  0
  2 28  1  0
  2  3  1  0
  3  4  1  0
  3 29  1  0
  3 30  1  0
  4  5  1  0
  4 31  1  0
  4 32  1  0
  5  6  1  6
  5  7  1  0
  5 27  1  0
  7 33  1  0
  8  7  1  0
  8  9  1  0
  8 13  2  0
  9 10  1  0
  9 34  1  0
 10 12  1  0
 10 11  1  0
 10 35  1  0
 11 12  1  0
 11 36  1  0
 11 37  1  0
 12 38  1  0
 12 39  1  0
 13 14  1  0
 13 15  1  0
 15 16  1  1
 15 26  1  0
 15 17  1  0
 17 18  1  0
 17 40  1  0
 17 41  1  0
 18 19  1  0
 19 25  2  0
 19 20  1  0
 20 21  2  0
 20 42  1  0
 21 22  1  0
 21 43  1  0
 22 23  1  0
 22 24  2  0
 24 25  1  0
 24 44  1  0
 25 26  1  0
 26 45  1  0
 26 46  1  0
 27 28  1  0
 27 47  1  0
 27 48  1  0
 28 49  1  0
M  CHG  1  13   1
M  END
>  <DOCK_score>  (1) 
-46.309811

>  <SMILES>  (1) 
O=C1CC[C@H](NC(NC2CC2)=[NH+][C@H]2COc3ccc(F)cc3C2)CN1

$$$$
