Cc1c(Nc2[nH]cc(-c3ccc(N)cc3)[nH+]2)cccc1NC1c2cc(O)ccc2-c2ccc(O)cc21
     RDKit          3D

 62 67  0  0  1  0  0  0  0  0999 V2000
  130.1268  136.9565  159.7782 C   0  0  0  0  0  0  0  0  0  0  0  0
  130.5240  135.6713  160.4578 C   0  0  0  0  0  0  0  0  0  0  0  0
  130.8267  134.5486  159.6999 C   0  0  0  0  0  0  0  0  0  0  0  0
  130.7638  134.6082  158.3050 N   0  0  0  0  0  0  0  0  0  0  0  0
  130.4458  133.4734  157.5767 C   0  0  0  0  0  0  0  0  0  0  0  0
  129.6453  132.4578  158.0008 N   0  0  0  0  0  0  0  0  0  0  0  0
  129.1989  132.3984  158.8600 H   0  0  0  0  0  0  0  0  0  0  0  0
  129.5868  131.5316  156.9871 C   0  0  0  0  0  0  0  0  0  0  0  0
  130.3525  132.0082  155.9743 C   0  0  0  0  0  0  0  0  0  0  0  0
  130.5872  131.3423  154.6695 C   0  0  0  0  0  0  0  0  0  0  0  0
  130.2114  131.9748  153.4854 C   0  0  0  0  0  0  0  0  0  0  0  0
  130.4357  131.3564  152.2735 C   0  0  0  0  0  0  0  0  0  0  0  0
  131.0253  130.0990  152.2324 C   0  0  0  0  0  0  0  0  0  0  0  0
  131.2455  129.4711  151.0040 N   0  0  0  0  0  0  0  0  0  0  0  0
  131.3955  129.4636  153.4121 C   0  0  0  0  0  0  0  0  0  0  0  0
  131.1783  130.0806  154.6260 C   0  0  0  0  0  0  0  0  0  0  0  0
  130.8617  133.2034  156.3632 N   0  0  0  0  0  0  0  0  0  0  0  0
  131.4429  133.7675  155.8294 H   0  0  0  0  0  0  0  0  0  0  0  0
  131.1879  133.3639  160.3298 C   0  0  0  0  0  0  0  0  0  0  0  0
  131.2498  133.3038  161.7088 C   0  0  0  0  0  0  0  0  0  0  0  0
  130.9536  134.4207  162.4658 C   0  0  0  0  0  0  0  0  0  0  0  0
  130.5922  135.6091  161.8422 C   0  0  0  0  0  0  0  0  0  0  0  0
  130.2928  136.7379  162.6084 N   0  0  0  0  0  0  0  0  0  0  0  0
  131.3051  137.3064  163.5019 C   0  0  0  0  0  0  0  0  0  0  0  0
  130.6397  138.0312  164.6463 C   0  0  0  0  0  0  0  0  0  0  0  0
  129.7865  137.6061  165.6398 C   0  0  0  0  0  0  0  0  0  0  0  0
  129.3156  138.5079  166.5847 C   0  0  0  0  0  0  0  0  0  0  0  0
  128.4746  138.0874  167.5656 O   0  0  0  0  0  0  0  0  0  0  0  0
  129.7047  139.8394  166.5270 C   0  0  0  0  0  0  0  0  0  0  0  0
  130.5582  140.2700  165.5344 C   0  0  0  0  0  0  0  0  0  0  0  0
  131.0346  139.3666  164.5815 C   0  0  0  0  0  0  0  0  0  0  0  0
  131.9469  139.5569  163.4268 C   0  0  0  0  0  0  0  0  0  0  0  0
  132.6004  140.6961  162.9508 C   0  0  0  0  0  0  0  0  0  0  0  0
  133.4101  140.6125  161.8386 C   0  0  0  0  0  0  0  0  0  0  0  0
  133.5801  139.3978  161.1880 C   0  0  0  0  0  0  0  0  0  0  0  0
  134.3793  139.3199  160.0918 O   0  0  0  0  0  0  0  0  0  0  0  0
  132.9330  138.2628  161.6577 C   0  0  0  0  0  0  0  0  0  0  0  0
  132.1222  138.3421  162.7691 C   0  0  0  0  0  0  0  0  0  0  0  0
  131.0173  137.5524  159.5787 H   0  0  0  0  0  0  0  0  0  0  0  0
  129.6230  136.7300  158.8386 H   0  0  0  0  0  0  0  0  0  0  0  0
  129.4526  137.5167  160.4261 H   0  0  0  0  0  0  0  0  0  0  0  0
  130.9428  135.4443  157.8468 H   0  0  0  0  0  0  0  0  0  0  0  0
  129.0363  130.6025  156.9953 H   0  0  0  0  0  0  0  0  0  0  0  0
  129.7488  132.9501  153.5171 H   0  0  0  0  0  0  0  0  0  0  0  0
  130.1489  131.8481  151.3556 H   0  0  0  0  0  0  0  0  0  0  0  0
  131.6570  128.5932  150.9746 H   0  0  0  0  0  0  0  0  0  0  0  0
  130.9871  129.9136  150.1803 H   0  0  0  0  0  0  0  0  0  0  0  0
  131.8536  128.4861  153.3780 H   0  0  0  0  0  0  0  0  0  0  0  0
  131.4664  129.5870  155.5424 H   0  0  0  0  0  0  0  0  0  0  0  0
  131.4202  132.4888  159.7409 H   0  0  0  0  0  0  0  0  0  0  0  0
  131.5302  132.3817  162.1960 H   0  0  0  0  0  0  0  0  0  0  0  0
  131.0028  134.3704  163.5436 H   0  0  0  0  0  0  0  0  0  0  0  0
  129.4133  137.1430  162.5518 H   0  0  0  0  0  0  0  0  0  0  0  0
  131.9536  136.5178  163.8836 H   0  0  0  0  0  0  0  0  0  0  0  0
  129.4841  136.5702  165.6843 H   0  0  0  0  0  0  0  0  0  0  0  0
  128.2612  137.1451  167.5237 H   0  0  0  0  0  0  0  0  0  0  0  0
  129.3377  140.5399  167.2625 H   0  0  0  0  0  0  0  0  0  0  0  0
  130.8592  141.3064  165.4933 H   0  0  0  0  0  0  0  0  0  0  0  0
  132.4710  141.6425  163.4543 H   0  0  0  0  0  0  0  0  0  0  0  0
  133.9141  141.4947  161.4722 H   0  0  0  0  0  0  0  0  0  0  0  0
  134.4355  138.4341  159.7081 H   0  0  0  0  0  0  0  0  0  0  0  0
  133.0651  137.3176  161.1521 H   0  0  0  0  0  0  0  0  0  0  0  0
  1  2  1  0
  1 39  1  0
  1 40  1  0
  1 41  1  0
  2 22  2  0
  2  3  1  0
  3  4  1  0
  3 19  2  0
  4 42  1  0
  5  4  1  0
  5 17  2  0
  5  6  1  0
  6  7  1  0
  6  8  1  0
  8  9  2  0
  8 43  1  0
  9 10  1  0
  9 17  1  0
 10 16  1  0
 10 11  2  0
 11 12  1  0
 11 44  1  0
 12 13  2  0
 12 45  1  0
 13 14  1  0
 13 15  1  0
 14 46  1  0
 14 47  1  0
 15 16  2  0
 15 48  1  0
 16 49  1  0
 17 18  1  0
 19 20  1  0
 19 50  1  0
 20 21  2  0
 20 51  1  0
 21 22  1  0
 21 52  1  0
 22 23  1  0
 23 24  1  0
 23 53  1  0
 24 38  1  0
 24 25  1  0
 24 54  1  0
 25 31  1  0
 25 26  2  0
 26 27  1  0
 26 55  1  0
 27 28  1  0
 27 29  2  0
 28 56  1  0
 29 30  1  0
 29 57  1  0
 30 31  2  0
 30 58  1  0
 31 32  1  0
 32 38  2  0
 32 33  1  0
 33 34  2  0
 33 59  1  0
 34 35  1  0
 34 60  1  0
 35 36  1  0
 35 37  2  0
 36 61  1  0
 37 38  1  0
 37 62  1  0
M  CHG  1  17   1
M  END
>  <DOCK_score>  (1) 
-56.600948

>  <SMILES>  (1) 
Cc1c(Nc2[nH]cc(-c3ccc(N)cc3)[nH+]2)cccc1NC1c2cc(O)ccc2-c2ccc(O)cc21

$$$$
