O[C@@]1(c2cc(Cl)ccc2Nc2[nH]cc(-c3ccccc3)[nH+]2)C=C(c2ccccc2)C1
     RDKit          3D

 51 55  0  0  1  0  0  0  0  0999 V2000
  132.1315  133.6476  160.4521 O   0  0  0  0  0  0  0  0  0  0  0  0
  132.0639  134.9145  161.1098 C   0  0  1  0  0  0  0  0  0  0  0  0
  130.6477  135.3373  161.4033 C   0  0  0  0  0  0  0  0  0  0  0  0
  130.2489  135.5609  162.7067 C   0  0  0  0  0  0  0  0  0  0  0  0
  128.9489  135.9499  162.9768 C   0  0  0  0  0  0  0  0  0  0  0  0
  128.4514  136.2301  164.6162 Cl  0  0  0  0  0  0  0  0  0  0  0  0
  128.0441  136.1150  161.9425 C   0  0  0  0  0  0  0  0  0  0  0  0
  128.4389  135.8989  160.6372 C   0  0  0  0  0  0  0  0  0  0  0  0
  129.7421  135.5031  160.3634 C   0  0  0  0  0  0  0  0  0  0  0  0
  130.1429  135.2773  159.0429 N   0  0  0  0  0  0  0  0  0  0  0  0
  130.0177  134.0146  158.4873 C   0  0  0  0  0  0  0  0  0  0  0  0
  129.5276  132.9143  159.1214 N   0  0  0  0  0  0  0  0  0  0  0  0
  129.2057  132.8738  160.0356 H   0  0  0  0  0  0  0  0  0  0  0  0
  129.5700  131.8730  158.2272 C   0  0  0  0  0  0  0  0  0  0  0  0
  130.0921  132.3641  157.0757 C   0  0  0  0  0  0  0  0  0  0  0  0
  130.3318  131.5968  155.8290 C   0  0  0  0  0  0  0  0  0  0  0  0
  129.6965  131.9688  154.6456 C   0  0  0  0  0  0  0  0  0  0  0  0
  129.9266  131.2540  153.4877 C   0  0  0  0  0  0  0  0  0  0  0  0
  130.7783  130.1641  153.5025 C   0  0  0  0  0  0  0  0  0  0  0  0
  131.4075  129.7871  154.6752 C   0  0  0  0  0  0  0  0  0  0  0  0
  131.1887  130.4976  155.8381 C   0  0  0  0  0  0  0  0  0  0  0  0
  130.3569  133.6806  157.2661 N   0  0  0  0  0  0  0  0  0  0  0  0
  130.7362  134.2795  156.6040 H   0  0  0  0  0  0  0  0  0  0  0  0
  132.9721  135.0090  162.3094 C   0  0  0  0  0  0  0  0  0  0  0  0
  133.6755  135.9504  161.6940 C   0  0  0  0  0  0  0  0  0  0  0  0
  134.8647  136.7122  162.1301 C   0  0  0  0  0  0  0  0  0  0  0  0
  134.8119  138.1038  162.2178 C   0  0  0  0  0  0  0  0  0  0  0  0
  135.9235  138.8086  162.6318 C   0  0  0  0  0  0  0  0  0  0  0  0
  137.0924  138.1396  162.9473 C   0  0  0  0  0  0  0  0  0  0  0  0
  137.1533  136.7602  162.8564 C   0  0  0  0  0  0  0  0  0  0  0  0
  136.0467  136.0433  162.4500 C   0  0  0  0  0  0  0  0  0  0  0  0
  132.8845  136.0015  160.4116 C   0  0  0  0  0  0  0  0  0  0  0  0
  133.0260  133.2863  160.3850 H   0  0  0  0  0  0  0  0  0  0  0  0
  130.9528  135.4327  163.5157 H   0  0  0  0  0  0  0  0  0  0  0  0
  127.0299  136.4185  162.1562 H   0  0  0  0  0  0  0  0  0  0  0  0
  127.7339  136.0327  159.8300 H   0  0  0  0  0  0  0  0  0  0  0  0
  130.5123  136.0040  158.5172 H   0  0  0  0  0  0  0  0  0  0  0  0
  129.2527  130.8566  158.4076 H   0  0  0  0  0  0  0  0  0  0  0  0
  129.0284  132.8174  154.6339 H   0  0  0  0  0  0  0  0  0  0  0  0
  129.4377  131.5436  152.5694 H   0  0  0  0  0  0  0  0  0  0  0  0
  130.9525  129.6053  152.5948 H   0  0  0  0  0  0  0  0  0  0  0  0
  132.0710  128.9350  154.6811 H   0  0  0  0  0  0  0  0  0  0  0  0
  131.6801  130.2022  156.7531 H   0  0  0  0  0  0  0  0  0  0  0  0
  133.0270  134.5164  163.2689 H   0  0  0  0  0  0  0  0  0  0  0  0
  133.9015  138.6278  161.9669 H   0  0  0  0  0  0  0  0  0  0  0  0
  135.8823  139.8853  162.7052 H   0  0  0  0  0  0  0  0  0  0  0  0
  137.9612  138.6964  163.2661 H   0  0  0  0  0  0  0  0  0  0  0  0
  138.0687  136.2437  163.1044 H   0  0  0  0  0  0  0  0  0  0  0  0
  136.0953  134.9667  162.3794 H   0  0  0  0  0  0  0  0  0  0  0  0
  133.4302  135.6584  159.5325 H   0  0  0  0  0  0  0  0  0  0  0  0
  132.3480  136.9366  160.2509 H   0  0  0  0  0  0  0  0  0  0  0  0
  1 33  1  0
  2  1  1  6
  2 32  1  0
  2  3  1  0
  2 24  1  0
  3  9  1  0
  3  4  2  0
  4  5  1  0
  4 34  1  0
  5  6  1  0
  5  7  2  0
  7  8  1  0
  7 35  1  0
  8  9  2  0
  8 36  1  0
  9 10  1  0
 10 37  1  0
 11 10  1  0
 11 22  2  0
 11 12  1  0
 12 13  1  0
 12 14  1  0
 14 15  2  0
 14 38  1  0
 15 16  1  0
 15 22  1  0
 16 21  1  0
 16 17  2  0
 17 18  1  0
 17 39  1  0
 18 19  2  0
 18 40  1  0
 19 20  1  0
 19 41  1  0
 20 21  2  0
 20 42  1  0
 21 43  1  0
 22 23  1  0
 24 25  2  0
 24 44  1  0
 25 26  1  0
 25 32  1  0
 26 31  1  0
 26 27  2  0
 27 28  1  0
 27 45  1  0
 28 29  2  0
 28 46  1  0
 29 30  1  0
 29 47  1  0
 30 31  2  0
 30 48  1  0
 31 49  1  0
 32 50  1  0
 32 51  1  0
M  CHG  1  22   1
M  END
>  <DOCK_score>  (1) 
-57.906471

>  <SMILES>  (1) 
O[C@@]1(c2cc(Cl)ccc2Nc2[nH]cc(-c3ccccc3)[nH+]2)C=C(c2ccccc2)C1

$$$$
