Cc1cccc(-c2cccc(C[C@@H](C)Nc3[nH]cc(-c4ccccc4)[nH+]3)c2)c1
     RDKit          3D

 54 57  0  0  1  0  0  0  0  0999 V2000
  136.4721  140.7541  160.5821 C   0  0  0  0  0  0  0  0  0  0  0  0
  136.4477  139.4363  161.3128 C   0  0  0  0  0  0  0  0  0  0  0  0
  137.5395  139.0446  162.0668 C   0  0  0  0  0  0  0  0  0  0  0  0
  137.5218  137.8387  162.7438 C   0  0  0  0  0  0  0  0  0  0  0  0
  136.4177  137.0142  162.6618 C   0  0  0  0  0  0  0  0  0  0  0  0
  135.3176  137.4013  161.8996 C   0  0  0  0  0  0  0  0  0  0  0  0
  134.1281  136.5190  161.8072 C   0  0  0  0  0  0  0  0  0  0  0  0
  134.2729  135.1369  161.9094 C   0  0  0  0  0  0  0  0  0  0  0  0
  133.1630  134.3211  161.8232 C   0  0  0  0  0  0  0  0  0  0  0  0
  131.9086  134.8733  161.6355 C   0  0  0  0  0  0  0  0  0  0  0  0
  131.7591  136.2443  161.5338 C   0  0  0  0  0  0  0  0  0  0  0  0
  130.3892  136.8385  161.3298 C   0  0  0  0  0  0  0  0  0  0  0  0
  129.5167  135.8528  160.5499 C   0  0  1  0  0  0  0  0  0  0  0  0
  129.4294  134.9223  161.1108 H   0  0  0  0  0  0  0  0  0  0  0  0
  128.1260  136.4560  160.3429 C   0  0  0  0  0  0  0  0  0  0  0  0
  130.1304  135.5823  159.2475 N   0  0  0  0  0  0  0  0  0  0  0  0
  129.9429  134.3547  158.6356 C   0  0  0  0  0  0  0  0  0  0  0  0
  129.2090  133.3235  159.1358 N   0  0  0  0  0  0  0  0  0  0  0  0
  128.7275  133.3164  159.9778 H   0  0  0  0  0  0  0  0  0  0  0  0
  129.2760  132.2945  158.2282 C   0  0  0  0  0  0  0  0  0  0  0  0
  130.0482  132.7260  157.2005 C   0  0  0  0  0  0  0  0  0  0  0  0
  130.3998  131.9491  155.9866 C   0  0  0  0  0  0  0  0  0  0  0  0
  130.0324  132.4168  154.7261 C   0  0  0  0  0  0  0  0  0  0  0  0
  130.3681  131.6931  153.5998 C   0  0  0  0  0  0  0  0  0  0  0  0
  131.0560  130.4987  153.7216 C   0  0  0  0  0  0  0  0  0  0  0  0
  131.4182  130.0274  154.9702 C   0  0  0  0  0  0  0  0  0  0  0  0
  131.0938  130.7460  156.1029 C   0  0  0  0  0  0  0  0  0  0  0  0
  130.4382  133.9959  157.4763 N   0  0  0  0  0  0  0  0  0  0  0  0
  130.9964  134.5490  156.9077 H   0  0  0  0  0  0  0  0  0  0  0  0
  132.8617  137.0700  161.6235 C   0  0  0  0  0  0  0  0  0  0  0  0
  135.3387  138.6199  161.2237 C   0  0  0  0  0  0  0  0  0  0  0  0
  136.0710  141.5351  161.2280 H   0  0  0  0  0  0  0  0  0  0  0  0
  137.4986  140.9997  160.3097 H   0  0  0  0  0  0  0  0  0  0  0  0
  135.8645  140.6808  159.6802 H   0  0  0  0  0  0  0  0  0  0  0  0
  138.4070  139.6845  162.1301 H   0  0  0  0  0  0  0  0  0  0  0  0
  138.3752  137.5396  163.3344 H   0  0  0  0  0  0  0  0  0  0  0  0
  136.4067  136.0707  163.1872 H   0  0  0  0  0  0  0  0  0  0  0  0
  135.2517  134.7049  162.0564 H   0  0  0  0  0  0  0  0  0  0  0  0
  133.2742  133.2498  161.9021 H   0  0  0  0  0  0  0  0  0  0  0  0
  131.0428  134.2311  161.5685 H   0  0  0  0  0  0  0  0  0  0  0  0
  129.9326  137.0399  162.2988 H   0  0  0  0  0  0  0  0  0  0  0  0
  130.4766  137.7691  160.7689 H   0  0  0  0  0  0  0  0  0  0  0  0
  127.5045  135.7540  159.7873 H   0  0  0  0  0  0  0  0  0  0  0  0
  127.6694  136.6575  161.3119 H   0  0  0  0  0  0  0  0  0  0  0  0
  128.2133  137.3866  159.7819 H   0  0  0  0  0  0  0  0  0  0  0  0
  130.6682  136.2632  158.8139 H   0  0  0  0  0  0  0  0  0  0  0  0
  128.8039  131.3271  158.3163 H   0  0  0  0  0  0  0  0  0  0  0  0
  129.4904  133.3460  154.6306 H   0  0  0  0  0  0  0  0  0  0  0  0
  130.0884  132.0570  152.6222 H   0  0  0  0  0  0  0  0  0  0  0  0
  131.3128  129.9340  152.8375 H   0  0  0  0  0  0  0  0  0  0  0  0
  131.9559  129.0951  155.0590 H   0  0  0  0  0  0  0  0  0  0  0  0
  131.3773  130.3769  157.0774 H   0  0  0  0  0  0  0  0  0  0  0  0
  132.7433  138.1408  161.5480 H   0  0  0  0  0  0  0  0  0  0  0  0
  134.4887  138.9246  160.6311 H   0  0  0  0  0  0  0  0  0  0  0  0
  1  2  1  0
  1 32  1  0
  1 33  1  0
  1 34  1  0
  2 31  2  0
  2  3  1  0
  3  4  2  0
  3 35  1  0
  4  5  1  0
  4 36  1  0
  5  6  2  0
  5 37  1  0
  6  7  1  0
  6 31  1  0
  7 30  1  0
  7  8  2  0
  8  9  1  0
  8 38  1  0
  9 10  2  0
  9 39  1  0
 10 11  1  0
 10 40  1  0
 11 12  1  0
 11 30  2  0
 12 13  1  0
 12 41  1  0
 12 42  1  0
 13 14  1  1
 13 15  1  0
 13 16  1  0
 15 43  1  0
 15 44  1  0
 15 45  1  0
 16 46  1  0
 17 16  1  0
 17 28  2  0
 17 18  1  0
 18 19  1  0
 18 20  1  0
 20 21  2  0
 20 47  1  0
 21 22  1  0
 21 28  1  0
 22 27  1  0
 22 23  2  0
 23 24  1  0
 23 48  1  0
 24 25  2  0
 24 49  1  0
 25 26  1  0
 25 50  1  0
 26 27  2  0
 26 51  1  0
 27 52  1  0
 28 29  1  0
 30 53  1  0
 31 54  1  0
M  CHG  1  28   1
M  END
>  <DOCK_score>  (1) 
-57.917568

>  <SMILES>  (1) 
Cc1cccc(-c2cccc(C[C@@H](C)Nc3[nH]cc(-c4ccccc4)[nH+]3)c2)c1

$$$$
