CCc1ccc(-c2c[nH]c(N[C@H](CC(=O)Cc3ccccn3)Cc3cccc4ccccc34)[nH+]2)cc1
     RDKit          3D

 67 71  0  0  1  0  0  0  0  0999 V2000
  130.4868  129.2335  151.9155 C   0  0  0  0  0  0  0  0  0  0  0  0
  131.7452  129.7725  152.5988 C   0  0  0  0  0  0  0  0  0  0  0  0
  131.3560  130.5329  153.8404 C   0  0  0  0  0  0  0  0  0  0  0  0
  131.2608  129.8716  155.0517 C   0  0  0  0  0  0  0  0  0  0  0  0
  130.9104  130.5639  156.1930 C   0  0  0  0  0  0  0  0  0  0  0  0
  130.6412  131.9295  156.1214 C   0  0  0  0  0  0  0  0  0  0  0  0
  130.2588  132.6781  157.3436 C   0  0  0  0  0  0  0  0  0  0  0  0
  129.6001  132.1724  158.4158 C   0  0  0  0  0  0  0  0  0  0  0  0
  129.4521  133.2011  159.3141 N   0  0  0  0  0  0  0  0  0  0  0  0
  129.0189  133.1493  160.1804 H   0  0  0  0  0  0  0  0  0  0  0  0
  130.0253  134.3062  158.7642 C   0  0  0  0  0  0  0  0  0  0  0  0
  130.0895  135.5581  159.3515 N   0  0  0  0  0  0  0  0  0  0  0  0
  129.5084  135.7753  160.6787 C   0  0  2  0  0  0  0  0  0  0  0  0
  129.7188  134.9140  161.3128 H   0  0  0  0  0  0  0  0  0  0  0  0
  127.9946  135.9557  160.5494 C   0  0  0  0  0  0  0  0  0  0  0  0
  127.3968  136.1792  161.9146 C   0  0  0  0  0  0  0  0  0  0  0  0
  126.7965  137.2000  162.1512 O   0  0  0  0  0  0  0  0  0  0  0  0
  127.5482  135.1289  162.9846 C   0  0  0  0  0  0  0  0  0  0  0  0
  126.9186  133.8417  162.5176 C   0  0  0  0  0  0  0  0  0  0  0  0
  125.5865  133.5941  162.7913 C   0  0  0  0  0  0  0  0  0  0  0  0
  125.0158  132.4094  162.3529 C   0  0  0  0  0  0  0  0  0  0  0  0
  125.8125  131.5091  161.6617 C   0  0  0  0  0  0  0  0  0  0  0  0
  127.1380  131.8230  161.4296 C   0  0  0  0  0  0  0  0  0  0  0  0
  127.6462  132.9624  161.8574 N   0  0  0  0  0  0  0  0  0  0  0  0
  130.1200  137.0306  161.3040 C   0  0  0  0  0  0  0  0  0  0  0  0
  131.6111  136.8529  161.4314 C   0  0  0  0  0  0  0  0  0  0  0  0
  132.4351  137.2400  160.4195 C   0  0  0  0  0  0  0  0  0  0  0  0
  133.8161  137.0842  160.5195 C   0  0  0  0  0  0  0  0  0  0  0  0
  134.3814  136.5400  161.6320 C   0  0  0  0  0  0  0  0  0  0  0  0
  133.5627  136.1286  162.6972 C   0  0  0  0  0  0  0  0  0  0  0  0
  134.1097  135.5632  163.8619 C   0  0  0  0  0  0  0  0  0  0  0  0
  133.2869  135.1917  164.8804 C   0  0  0  0  0  0  0  0  0  0  0  0
  131.9055  135.3473  164.7802 C   0  0  0  0  0  0  0  0  0  0  0  0
  131.3400  135.8860  163.6658 C   0  0  0  0  0  0  0  0  0  0  0  0
  132.1583  136.2921  162.5977 C   0  0  0  0  0  0  0  0  0  0  0  0
  130.5113  133.9883  157.5892 N   0  0  0  0  0  0  0  0  0  0  0  0
  130.9752  134.5936  156.9899 H   0  0  0  0  0  0  0  0  0  0  0  0
  130.7333  132.5894  154.8971 C   0  0  0  0  0  0  0  0  0  0  0  0
  131.0900  131.8881  153.7634 C   0  0  0  0  0  0  0  0  0  0  0  0
  130.7683  128.6834  151.0176 H   0  0  0  0  0  0  0  0  0  0  0  0
  129.9592  128.5679  152.5988 H   0  0  0  0  0  0  0  0  0  0  0  0
  129.8365  130.0648  151.6436 H   0  0  0  0  0  0  0  0  0  0  0  0
  132.3955  128.9411  152.8707 H   0  0  0  0  0  0  0  0  0  0  0  0
  132.2728  130.4380  151.9156 H   0  0  0  0  0  0  0  0  0  0  0  0
  131.4650  128.8125  155.1051 H   0  0  0  0  0  0  0  0  0  0  0  0
  130.8409  130.0477  157.1391 H   0  0  0  0  0  0  0  0  0  0  0  0
  129.2572  131.1558  158.5394 H   0  0  0  0  0  0  0  0  0  0  0  0
  130.5195  136.2915  158.8844 H   0  0  0  0  0  0  0  0  0  0  0  0
  127.7842  136.8170  159.9152 H   0  0  0  0  0  0  0  0  0  0  0  0
  127.5588  135.0615  160.1039 H   0  0  0  0  0  0  0  0  0  0  0  0
  128.6071  134.9638  163.1844 H   0  0  0  0  0  0  0  0  0  0  0  0
  127.0545  135.4650  163.8962 H   0  0  0  0  0  0  0  0  0  0  0  0
  124.9969  134.3162  163.3367 H   0  0  0  0  0  0  0  0  0  0  0  0
  123.9763  132.1910  162.5484 H   0  0  0  0  0  0  0  0  0  0  0  0
  125.4022  130.5743  161.3094 H   0  0  0  0  0  0  0  0  0  0  0  0
  127.7651  131.1273  160.8921 H   0  0  0  0  0  0  0  0  0  0  0  0
  129.9095  137.8917  160.6700 H   0  0  0  0  0  0  0  0  0  0  0  0
  129.6876  137.1921  162.2915 H   0  0  0  0  0  0  0  0  0  0  0  0
  132.0122  137.6749  159.5259 H   0  0  0  0  0  0  0  0  0  0  0  0
  134.4475  137.3992  159.7019 H   0  0  0  0  0  0  0  0  0  0  0  0
  135.4533  136.4249  161.6953 H   0  0  0  0  0  0  0  0  0  0  0  0
  135.1782  135.4357  163.9533 H   0  0  0  0  0  0  0  0  0  0  0  0
  133.7101  134.7615  165.7761 H   0  0  0  0  0  0  0  0  0  0  0  0
  131.2744  135.0361  165.5994 H   0  0  0  0  0  0  0  0  0  0  0  0
  130.2680  136.0006  163.6023 H   0  0  0  0  0  0  0  0  0  0  0  0
  130.5255  133.6476  154.8359 H   0  0  0  0  0  0  0  0  0  0  0  0
  131.1614  132.3983  152.8142 H   0  0  0  0  0  0  0  0  0  0  0  0
  1  2  1  0
  1 40  1  0
  1 41  1  0
  1 42  1  0
  2  3  1  0
  2 43  1  0
  2 44  1  0
  3 39  2  0
  3  4  1  0
  4  5  2  0
  4 45  1  0
  5  6  1  0
  5 46  1  0
  6  7  1  0
  6 38  2  0
  7 36  1  0
  7  8  2  0
  8  9  1  0
  8 47  1  0
  9 10  1  0
  9 11  1  0
 11 12  1  0
 11 36  2  0
 12 13  1  0
 12 48  1  0
 13 14  1  1
 13 15  1  0
 13 25  1  0
 15 16  1  0
 15 49  1  0
 15 50  1  0
 16 17  2  0
 16 18  1  0
 18 19  1  0
 18 51  1  0
 18 52  1  0
 19 24  1  0
 19 20  2  0
 20 21  1  0
 20 53  1  0
 21 22  2  0
 21 54  1  0
 22 23  1  0
 22 55  1  0
 23 24  2  0
 23 56  1  0
 25 26  1  0
 25 57  1  0
 25 58  1  0
 26 35  1  0
 26 27  2  0
 27 28  1  0
 27 59  1  0
 28 29  2  0
 28 60  1  0
 29 30  1  0
 29 61  1  0
 30 35  2  0
 30 31  1  0
 31 32  2  0
 31 62  1  0
 32 33  1  0
 32 63  1  0
 33 34  2  0
 33 64  1  0
 34 35  1  0
 34 65  1  0
 36 37  1  0
 38 39  1  0
 38 66  1  0
 39 67  1  0
M  CHG  1  36   1
M  END
>  <DOCK_score>  (1) 
-63.617023

>  <SMILES>  (1) 
CCc1ccc(-c2c[nH]c(N[C@H](CC(=O)Cc3ccccn3)Cc3cccc4ccccc34)[nH+]2)cc1

$$$$
