Cc1cccc(CCNC(=O)c2nn(C3CCOCC3)cc2C[NH2+][C@H](CO)C2CCCCC2)c1C
     RDKit          3D

 78 81  0  0  1  0  0  0  0  0999 V2000
  136.3587  141.3908  163.7426 C   0  0  0  0  0  0  0  0  0  0  0  0
  136.0898  140.9933  162.3141 C   0  0  0  0  0  0  0  0  0  0  0  0
  136.5259  141.7989  161.2785 C   0  0  0  0  0  0  0  0  0  0  0  0
  136.2790  141.4346  159.9683 C   0  0  0  0  0  0  0  0  0  0  0  0
  135.5957  140.2647  159.6933 C   0  0  0  0  0  0  0  0  0  0  0  0
  135.1603  139.4589  160.7284 C   0  0  0  0  0  0  0  0  0  0  0  0
  134.4156  138.1835  160.4285 C   0  0  0  0  0  0  0  0  0  0  0  0
  132.9146  138.4729  160.3630 C   0  0  0  0  0  0  0  0  0  0  0  0
  132.1905  137.2331  160.0715 N   0  0  0  0  0  0  0  0  0  0  0  0
  131.2730  136.7680  160.9422 C   0  0  0  0  0  0  0  0  0  0  0  0
  131.0461  137.3771  161.9695 O   0  0  0  0  0  0  0  0  0  0  0  0
  130.5431  135.5177  160.6484 C   0  0  0  0  0  0  0  0  0  0  0  0
  130.6900  134.7557  159.5829 N   0  0  0  0  0  0  0  0  0  0  0  0
  129.8950  133.7487  159.6483 N   0  0  0  0  0  0  0  0  0  0  0  0
  129.7882  132.6982  158.6327 C   0  0  0  0  0  0  0  0  0  0  0  0
  130.7790  131.5745  158.9517 C   0  0  0  0  0  0  0  0  0  0  0  0
  130.7163  130.5197  157.8439 C   0  0  0  0  0  0  0  0  0  0  0  0
  131.0047  131.1341  156.5862 O   0  0  0  0  0  0  0  0  0  0  0  0
  130.0830  132.1605  156.2133 C   0  0  0  0  0  0  0  0  0  0  0  0
  130.1202  133.2811  157.2557 C   0  0  0  0  0  0  0  0  0  0  0  0
  129.1762  133.7945  160.7905 C   0  0  0  0  0  0  0  0  0  0  0  0
  129.5575  134.9076  161.4598 C   0  0  0  0  0  0  0  0  0  0  0  0
  129.0416  135.3940  162.7895 C   0  0  0  0  0  0  0  0  0  0  0  0
  128.7800  136.8376  162.7150 N   0  0  0  0  0  0  0  0  0  0  0  0
  129.6350  137.3231  162.4881 H   0  0  0  0  0  0  0  0  0  0  0  0
  128.0909  137.0180  162.0004 H   0  0  0  0  0  0  0  0  0  0  0  0
  128.2770  137.3117  164.0112 C   0  0  2  0  0  0  0  0  0  0  0  0
  129.0214  137.1168  164.7832 H   0  0  0  0  0  0  0  0  0  0  0  0
  126.9806  136.5756  164.3552 C   0  0  0  0  0  0  0  0  0  0  0  0
  126.1860  136.4336  163.1760 O   0  0  0  0  0  0  0  0  0  0  0  0
  128.0045  138.8152  163.9336 C   0  0  0  0  0  0  0  0  0  0  0  0
  129.1143  139.4937  163.1281 C   0  0  0  0  0  0  0  0  0  0  0  0
  128.8419  140.9972  163.0504 C   0  0  0  0  0  0  0  0  0  0  0  0
  128.8065  141.5828  164.4634 C   0  0  0  0  0  0  0  0  0  0  0  0
  127.6967  140.9044  165.2688 C   0  0  0  0  0  0  0  0  0  0  0  0
  127.9690  139.4008  165.3466 C   0  0  0  0  0  0  0  0  0  0  0  0
  135.4033  139.8257  162.0392 C   0  0  0  0  0  0  0  0  0  0  0  0
  134.9233  138.9502  163.1679 C   0  0  0  0  0  0  0  0  0  0  0  0
  135.5338  142.0001  164.1117 H   0  0  0  0  0  0  0  0  0  0  0  0
  136.4526  140.4956  164.3573 H   0  0  0  0  0  0  0  0  0  0  0  0
  137.2845  141.9642  163.7920 H   0  0  0  0  0  0  0  0  0  0  0  0
  137.0596  142.7130  161.4934 H   0  0  0  0  0  0  0  0  0  0  0  0
  136.6194  142.0641  159.1595 H   0  0  0  0  0  0  0  0  0  0  0  0
  135.4023  139.9802  158.6695 H   0  0  0  0  0  0  0  0  0  0  0  0
  134.6112  137.4550  161.2153 H   0  0  0  0  0  0  0  0  0  0  0  0
  134.7506  137.7836  159.4716 H   0  0  0  0  0  0  0  0  0  0  0  0
  132.7191  139.2014  159.5763 H   0  0  0  0  0  0  0  0  0  0  0  0
  132.5796  138.8728  161.3201 H   0  0  0  0  0  0  0  0  0  0  0  0
  132.3716  136.7470  159.2518 H   0  0  0  0  0  0  0  0  0  0  0  0
  128.7735  132.3002  158.6252 H   0  0  0  0  0  0  0  0  0  0  0  0
  131.7878  131.9835  159.0085 H   0  0  0  0  0  0  0  0  0  0  0  0
  130.5163  131.1170  159.9054 H   0  0  0  0  0  0  0  0  0  0  0  0
  129.7184  130.0823  157.8145 H   0  0  0  0  0  0  0  0  0  0  0  0
  131.4500  129.7388  158.0436 H   0  0  0  0  0  0  0  0  0  0  0  0
  129.0767  131.7445  156.1626 H   0  0  0  0  0  0  0  0  0  0  0  0
  130.3603  132.5615  155.2384 H   0  0  0  0  0  0  0  0  0  0  0  0
  129.3862  134.0442  156.9965 H   0  0  0  0  0  0  0  0  0  0  0  0
  131.1151  133.7257  157.2785 H   0  0  0  0  0  0  0  0  0  0  0  0
  128.4352  133.0769  161.1104 H   0  0  0  0  0  0  0  0  0  0  0  0
  128.1180  134.8697  163.0348 H   0  0  0  0  0  0  0  0  0  0  0  0
  129.7861  135.1991  163.5615 H   0  0  0  0  0  0  0  0  0  0  0  0
  127.2176  135.5896  164.7546 H   0  0  0  0  0  0  0  0  0  0  0  0
  126.4259  137.1457  165.1005 H   0  0  0  0  0  0  0  0  0  0  0  0
  126.6178  135.9355  162.4685 H   0  0  0  0  0  0  0  0  0  0  0  0
  127.0450  138.9859  163.4452 H   0  0  0  0  0  0  0  0  0  0  0  0
  130.0739  139.3231  163.6161 H   0  0  0  0  0  0  0  0  0  0  0  0
  129.1397  139.0765  162.1213 H   0  0  0  0  0  0  0  0  0  0  0  0
  127.8825  141.1678  162.5622 H   0  0  0  0  0  0  0  0  0  0  0  0
  129.6327  141.4806  162.4764 H   0  0  0  0  0  0  0  0  0  0  0  0
  128.6124  142.6540  164.4079 H   0  0  0  0  0  0  0  0  0  0  0  0
  129.7660  141.4122  164.9515 H   0  0  0  0  0  0  0  0  0  0  0  0
  126.7371  141.0750  164.7806 H   0  0  0  0  0  0  0  0  0  0  0  0
  127.6714  141.3215  166.2755 H   0  0  0  0  0  0  0  0  0  0  0  0
  127.1783  138.9175  165.9204 H   0  0  0  0  0  0  0  0  0  0  0  0
  128.9285  139.2302  165.8348 H   0  0  0  0  0  0  0  0  0  0  0  0
  135.6969  138.2246  163.4192 H   0  0  0  0  0  0  0  0  0  0  0  0
  134.7072  139.5675  164.0399 H   0  0  0  0  0  0  0  0  0  0  0  0
  134.0186  138.4252  162.8612 H   0  0  0  0  0  0  0  0  0  0  0  0
  1  2  1  0
  1 39  1  0
  1 40  1  0
  1 41  1  0
  2 37  2  0
  2  3  1  0
  3  4  2  0
  3 42  1  0
  4  5  1  0
  4 43  1  0
  5  6  2  0
  5 44  1  0
  6  7  1  0
  6 37  1  0
  7  8  1  0
  7 45  1  0
  7 46  1  0
  8  9  1  0
  8 47  1  0
  8 48  1  0
  9 10  1  0
  9 49  1  0
 10 11  2  0
 10 12  1  0
 12 22  1  0
 12 13  2  0
 13 14  1  0
 14 15  1  0
 14 21  1  0
 15 20  1  0
 15 16  1  0
 15 50  1  0
 16 17  1  0
 16 51  1  0
 16 52  1  0
 17 18  1  0
 17 53  1  0
 17 54  1  0
 18 19  1  0
 19 20  1  0
 19 55  1  0
 19 56  1  0
 20 57  1  0
 20 58  1  0
 21 22  2  0
 21 59  1  0
 22 23  1  0
 23 24  1  0
 23 60  1  0
 23 61  1  0
 24 25  1  0
 24 26  1  0
 24 27  1  0
 27 28  1  1
 27 29  1  0
 27 31  1  0
 29 30  1  0
 29 62  1  0
 29 63  1  0
 30 64  1  0
 31 36  1  0
 31 32  1  0
 31 65  1  0
 32 33  1  0
 32 66  1  0
 32 67  1  0
 33 34  1  0
 33 68  1  0
 33 69  1  0
 34 35  1  0
 34 70  1  0
 34 71  1  0
 35 36  1  0
 35 72  1  0
 35 73  1  0
 36 74  1  0
 36 75  1  0
 37 38  1  0
 38 76  1  0
 38 77  1  0
 38 78  1  0
M  CHG  1  24   1
M  END
>  <DOCK_score>  (1) 
-44.977318

>  <SMILES>  (1) 
Cc1cccc(CCNC(=O)c2nn(C3CCOCC3)cc2C[NH2+][C@H](CO)C2CCCCC2)c1C

$$$$
