C[C@@]1(c2ccc(F)cc2)CC1[NH+]=C(NCc1ccccc1)NC1CCCOC1
     RDKit          3D

 57 60  0  0  1  0  0  0  0  0999 V2000
  128.0957  133.5018  159.3525 C   0  0  0  0  0  0  0  0  0  0  0  0
  129.3084  133.9828  158.5532 C   0  0  1  0  0  0  0  0  0  0  0  0
  129.9013  132.9751  157.6024 C   0  0  0  0  0  0  0  0  0  0  0  0
  129.4462  132.9042  156.2990 C   0  0  0  0  0  0  0  0  0  0  0  0
  129.9893  131.9805  155.4262 C   0  0  0  0  0  0  0  0  0  0  0  0
  130.9895  131.1258  155.8577 C   0  0  0  0  0  0  0  0  0  0  0  0
  131.5214  130.2227  155.0053 F   0  0  0  0  0  0  0  0  0  0  0  0
  131.4445  131.1977  157.1635 C   0  0  0  0  0  0  0  0  0  0  0  0
  130.9001  132.1223  158.0344 C   0  0  0  0  0  0  0  0  0  0  0  0
  129.3405  135.4539  158.1338 C   0  0  0  0  0  0  0  0  0  0  0  0
  130.2688  134.9540  159.2424 C   0  0  1  0  0  0  0  0  0  0  0  0
  129.9566  135.3528  160.6172 N   0  0  0  0  0  0  0  0  0  0  0  0
  129.1656  135.0026  161.0558 H   0  0  0  0  0  0  0  0  0  0  0  0
  130.7417  136.1782  161.2505 C   0  0  0  0  0  0  0  0  0  0  0  0
  131.8628  136.6746  160.6286 N   0  0  0  0  0  0  0  0  0  0  0  0
  132.7454  137.6024  161.3404 C   0  0  0  0  0  0  0  0  0  0  0  0
  133.3996  138.5321  160.3512 C   0  0  0  0  0  0  0  0  0  0  0  0
  134.6548  139.0484  160.6138 C   0  0  0  0  0  0  0  0  0  0  0  0
  135.2567  139.8981  159.7046 C   0  0  0  0  0  0  0  0  0  0  0  0
  134.5996  140.2386  158.5370 C   0  0  0  0  0  0  0  0  0  0  0  0
  133.3424  139.7262  158.2768 C   0  0  0  0  0  0  0  0  0  0  0  0
  132.7422  138.8733  159.1841 C   0  0  0  0  0  0  0  0  0  0  0  0
  130.4487  136.5525  162.5407 N   0  0  0  0  0  0  0  0  0  0  0  0
  129.0548  136.6112  162.9878 C   0  0  1  0  0  0  0  0  0  0  0  0
  129.0053  137.0598  164.4516 C   0  0  0  0  0  0  0  0  0  0  0  0
  127.5420  137.1926  164.8841 C   0  0  0  0  0  0  0  0  0  0  0  0
  126.8290  138.1747  163.9510 C   0  0  0  0  0  0  0  0  0  0  0  0
  126.9394  137.7141  162.6026 O   0  0  0  0  0  0  0  0  0  0  0  0
  128.2836  137.6159  162.1278 C   0  0  0  0  0  0  0  0  0  0  0  0
  128.4342  132.9827  160.2491 H   0  0  0  0  0  0  0  0  0  0  0  0
  127.4852  134.3588  159.6374 H   0  0  0  0  0  0  0  0  0  0  0  0
  127.5036  132.8216  158.7403 H   0  0  0  0  0  0  0  0  0  0  0  0
  128.6691  133.5739  155.9613 H   0  0  0  0  0  0  0  0  0  0  0  0
  129.6333  131.9249  154.4080 H   0  0  0  0  0  0  0  0  0  0  0  0
  132.2244  130.5314  157.5012 H   0  0  0  0  0  0  0  0  0  0  0  0
  131.2550  132.1788  159.0528 H   0  0  0  0  0  0  0  0  0  0  0  0
  129.7904  135.6927  157.1702 H   0  0  0  0  0  0  0  0  0  0  0  0
  128.4974  136.0794  158.4271 H   0  0  0  0  0  0  0  0  0  0  0  0
  131.3297  134.8640  159.0086 H   0  0  0  0  0  0  0  0  0  0  0  0
  132.0694  136.4106  159.7183 H   0  0  0  0  0  0  0  0  0  0  0  0
  132.1616  138.1835  162.0543 H   0  0  0  0  0  0  0  0  0  0  0  0
  133.5124  137.0388  161.8716 H   0  0  0  0  0  0  0  0  0  0  0  0
  135.1666  138.7853  161.5278 H   0  0  0  0  0  0  0  0  0  0  0  0
  136.2387  140.2988  159.9082 H   0  0  0  0  0  0  0  0  0  0  0  0
  135.0685  140.9052  157.8283 H   0  0  0  0  0  0  0  0  0  0  0  0
  132.8289  139.9925  157.3647 H   0  0  0  0  0  0  0  0  0  0  0  0
  131.7599  138.4733  158.9809 H   0  0  0  0  0  0  0  0  0  0  0  0
  131.1649  136.7779  163.1548 H   0  0  0  0  0  0  0  0  0  0  0  0
  128.6003  135.6250  162.8935 H   0  0  0  0  0  0  0  0  0  0  0  0
  129.5047  136.3199  165.0768 H   0  0  0  0  0  0  0  0  0  0  0  0
  129.5048  138.0231  164.5547 H   0  0  0  0  0  0  0  0  0  0  0  0
  127.0558  136.2186  164.8280 H   0  0  0  0  0  0  0  0  0  0  0  0
  127.4970  137.5635  165.9081 H   0  0  0  0  0  0  0  0  0  0  0  0
  125.7768  138.2406  164.2277 H   0  0  0  0  0  0  0  0  0  0  0  0
  127.2900  139.1586  164.0381 H   0  0  0  0  0  0  0  0  0  0  0  0
  128.7637  138.5923  162.1909 H   0  0  0  0  0  0  0  0  0  0  0  0
  128.2793  137.2790  161.0911 H   0  0  0  0  0  0  0  0  0  0  0  0
  1 30  1  0
  1 31  1  0
  1 32  1  0
  2  1  1  1
  2 11  1  0
  2  3  1  0
  2 10  1  0
  3  9  1  0
  3  4  2  0
  4  5  1  0
  4 33  1  0
  5  6  2  0
  5 34  1  0
  6  7  1  0
  6  8  1  0
  8  9  2  0
  8 35  1  0
  9 36  1  0
 10 11  1  0
 10 37  1  0
 10 38  1  0
 11 12  1  0
 11 39  1  6
 12 13  1  0
 14 12  2  0
 14 15  1  0
 14 23  1  0
 15 16  1  0
 15 40  1  0
 16 17  1  0
 16 41  1  0
 16 42  1  0
 17 22  1  0
 17 18  2  0
 18 19  1  0
 18 43  1  0
 19 20  2  0
 19 44  1  0
 20 21  1  0
 20 45  1  0
 21 22  2  0
 21 46  1  0
 22 47  1  0
 23 24  1  0
 23 48  1  0
 24 29  1  0
 24 25  1  0
 24 49  1  1
 25 26  1  0
 25 50  1  0
 25 51  1  0
 26 27  1  0
 26 52  1  0
 26 53  1  0
 27 28  1  0
 27 54  1  0
 27 55  1  0
 28 29  1  0
 29 56  1  0
 29 57  1  0
M  CHG  1  12   1
M  END
>  <DOCK_score>  (1) 
-44.441864

>  <SMILES>  (1) 
C[C@@]1(c2ccc(F)cc2)CC1[NH+]=C(NCc1ccccc1)NC1CCCOC1

$$$$
