Cc1nn(-c2ccc(F)cc2)cc1CNc1[nH]cc(-c2ccc(N)cc2)[nH+]1
     RDKit          3D

 47 50  0  0  1  0  0  0  0  0999 V2000
  129.1884  137.1602  162.6952 C   0  0  0  0  0  0  0  0  0  0  0  0
  130.4438  137.3177  161.8764 C   0  0  0  0  0  0  0  0  0  0  0  0
  131.3031  138.3004  161.9713 N   0  0  0  0  0  0  0  0  0  0  0  0
  132.3271  138.0780  161.0415 N   0  0  0  0  0  0  0  0  0  0  0  0
  133.4409  138.9029  160.8275 C   0  0  0  0  0  0  0  0  0  0  0  0
  134.3876  138.5582  159.8723 C   0  0  0  0  0  0  0  0  0  0  0  0
  135.4814  139.3742  159.6593 C   0  0  0  0  0  0  0  0  0  0  0  0
  135.6393  140.5303  160.4052 C   0  0  0  0  0  0  0  0  0  0  0  0
  136.7125  141.3246  160.1992 F   0  0  0  0  0  0  0  0  0  0  0  0
  134.6989  140.8730  161.3622 C   0  0  0  0  0  0  0  0  0  0  0  0
  133.6013  140.0620  161.5744 C   0  0  0  0  0  0  0  0  0  0  0  0
  132.0509  136.9278  160.3866 C   0  0  0  0  0  0  0  0  0  0  0  0
  130.8916  136.4385  160.8845 C   0  0  0  0  0  0  0  0  0  0  0  0
  130.2044  135.1705  160.4479 C   0  0  0  0  0  0  0  0  0  0  0  0
  130.1917  135.1009  158.9845 N   0  0  0  0  0  0  0  0  0  0  0  0
  130.2124  133.8708  158.3497 C   0  0  0  0  0  0  0  0  0  0  0  0
  129.8708  132.6813  158.9153 N   0  0  0  0  0  0  0  0  0  0  0  0
  129.5717  132.5437  159.8277 H   0  0  0  0  0  0  0  0  0  0  0  0
  130.0246  131.7110  157.9536 C   0  0  0  0  0  0  0  0  0  0  0  0
  130.4640  132.3347  156.8327 C   0  0  0  0  0  0  0  0  0  0  0  0
  130.7740  131.6838  155.5360 C   0  0  0  0  0  0  0  0  0  0  0  0
  130.6036  132.3863  154.3440 C   0  0  0  0  0  0  0  0  0  0  0  0
  130.8979  131.7813  153.1404 C   0  0  0  0  0  0  0  0  0  0  0  0
  131.3528  130.4686  153.1142 C   0  0  0  0  0  0  0  0  0  0  0  0
  131.6444  129.8560  151.8930 N   0  0  0  0  0  0  0  0  0  0  0  0
  131.5182  129.7642  154.3012 C   0  0  0  0  0  0  0  0  0  0  0  0
  131.2306  130.3670  155.5075 C   0  0  0  0  0  0  0  0  0  0  0  0
  130.5695  133.6592  157.1063 N   0  0  0  0  0  0  0  0  0  0  0  0
  130.8629  134.3409  156.4818 H   0  0  0  0  0  0  0  0  0  0  0  0
  128.3587  137.6507  162.1861 H   0  0  0  0  0  0  0  0  0  0  0  0
  128.9644  136.1003  162.8166 H   0  0  0  0  0  0  0  0  0  0  0  0
  129.3339  137.6154  163.6747 H   0  0  0  0  0  0  0  0  0  0  0  0
  134.2668  137.6545  159.2933 H   0  0  0  0  0  0  0  0  0  0  0  0
  136.2159  139.1083  158.9137 H   0  0  0  0  0  0  0  0  0  0  0  0
  134.8239  141.7749  161.9430 H   0  0  0  0  0  0  0  0  0  0  0  0
  132.8680  140.3295  162.3208 H   0  0  0  0  0  0  0  0  0  0  0  0
  132.6487  136.4797  159.6066 H   0  0  0  0  0  0  0  0  0  0  0  0
  130.7410  134.3101  160.8478 H   0  0  0  0  0  0  0  0  0  0  0  0
  129.1802  135.1653  160.8207 H   0  0  0  0  0  0  0  0  0  0  0  0
  130.1689  135.9169  158.4604 H   0  0  0  0  0  0  0  0  0  0  0  0
  129.8364  130.6540  158.0700 H   0  0  0  0  0  0  0  0  0  0  0  0
  130.2455  133.4050  154.3635 H   0  0  0  0  0  0  0  0  0  0  0  0
  130.7705  132.3265  152.2169 H   0  0  0  0  0  0  0  0  0  0  0  0
  131.9619  128.9389  151.8744 H   0  0  0  0  0  0  0  0  0  0  0  0
  131.5290  130.3458  151.0646 H   0  0  0  0  0  0  0  0  0  0  0  0
  131.8720  128.7440  154.2787 H   0  0  0  0  0  0  0  0  0  0  0  0
  131.3595  129.8196  156.4296 H   0  0  0  0  0  0  0  0  0  0  0  0
  1  2  1  0
  1 30  1  0
  1 31  1  0
  1 32  1  0
  2 13  1  0
  2  3  2  0
  3  4  1  0
  4  5  1  0
  4 12  1  0
  5 11  1  0
  5  6  2  0
  6  7  1  0
  6 33  1  0
  7  8  2  0
  7 34  1  0
  8  9  1  0
  8 10  1  0
 10 11  2  0
 10 35  1  0
 11 36  1  0
 12 13  2  0
 12 37  1  0
 13 14  1  0
 14 15  1  0
 14 38  1  0
 14 39  1  0
 15 40  1  0
 16 15  1  0
 16 28  2  0
 16 17  1  0
 17 18  1  0
 17 19  1  0
 19 20  2  0
 19 41  1  0
 20 21  1  0
 20 28  1  0
 21 27  1  0
 21 22  2  0
 22 23  1  0
 22 42  1  0
 23 24  2  0
 23 43  1  0
 24 25  1  0
 24 26  1  0
 25 44  1  0
 25 45  1  0
 26 27  2  0
 26 46  1  0
 27 47  1  0
 28 29  1  0
M  CHG  1  28   1
M  END
>  <DOCK_score>  (1) 
-56.764366

>  <SMILES>  (1) 
Cc1nn(-c2ccc(F)cc2)cc1CNc1[nH]cc(-c2ccc(N)cc2)[nH+]1

$$$$
