C[C@@H](CC#CCC[C@@H]([NH3+])C(=O)Nc1cccc(O)c1)c1ccccc1
     RDKit          3D

 50 51  0  0  1  0  0  0  0  0999 V2000
  131.5811  139.9208  159.4513 C   0  0  0  0  0  0  0  0  0  0  0  0
  131.0942  138.5300  159.8632 C   0  0  1  0  0  0  0  0  0  0  0  0
  130.7983  137.9711  158.9754 H   0  0  0  0  0  0  0  0  0  0  0  0
  132.2222  137.7865  160.5812 C   0  0  0  0  0  0  0  0  0  0  0  0
  131.9528  136.3397  160.5520 C   0  0  0  0  0  0  0  0  0  0  0  0
  131.7380  135.1857  160.5289 C   0  0  0  0  0  0  0  0  0  0  0  0
  131.4685  133.7390  160.4997 C   0  0  0  0  0  0  0  0  0  0  0  0
  131.3885  133.2641  159.0474 C   0  0  0  0  0  0  0  0  0  0  0  0
  130.2603  134.0076  158.3294 C   0  0  1  0  0  0  0  0  0  0  0  0
  130.2561  135.0516  158.6426 H   0  0  0  0  0  0  0  0  0  0  0  0
  130.4712  133.9329  156.8775 N   0  0  0  0  0  0  0  0  0  0  0  0
  129.7273  134.4232  156.4039 H   0  0  0  0  0  0  0  0  0  0  0  0
  131.3561  134.3578  156.6439 H   0  0  0  0  0  0  0  0  0  0  0  0
  130.4752  132.9665  156.5874 H   0  0  0  0  0  0  0  0  0  0  0  0
  128.9387  133.3729  158.6783 C   0  0  0  0  0  0  0  0  0  0  0  0
  128.5018  132.4687  157.9981 O   0  0  0  0  0  0  0  0  0  0  0  0
  128.2423  133.8102  159.7462 N   0  0  0  0  0  0  0  0  0  0  0  0
  127.0152  133.2210  160.0700 C   0  0  0  0  0  0  0  0  0  0  0  0
  126.7832  131.8853  159.7664 C   0  0  0  0  0  0  0  0  0  0  0  0
  125.5719  131.3038  160.0860 C   0  0  0  0  0  0  0  0  0  0  0  0
  124.5902  132.0466  160.7144 C   0  0  0  0  0  0  0  0  0  0  0  0
  124.8142  133.3827  161.0149 C   0  0  0  0  0  0  0  0  0  0  0  0
  123.8458  134.1134  161.6274 O   0  0  0  0  0  0  0  0  0  0  0  0
  126.0286  133.9700  160.6953 C   0  0  0  0  0  0  0  0  0  0  0  0
  129.9127  138.6650  160.7888 C   0  0  0  0  0  0  0  0  0  0  0  0
  128.9356  137.6875  160.8095 C   0  0  0  0  0  0  0  0  0  0  0  0
  127.8538  137.8093  161.6614 C   0  0  0  0  0  0  0  0  0  0  0  0
  127.7450  138.9130  162.4866 C   0  0  0  0  0  0  0  0  0  0  0  0
  128.7194  139.8931  162.4621 C   0  0  0  0  0  0  0  0  0  0  0  0
  129.8031  139.7692  161.6131 C   0  0  0  0  0  0  0  0  0  0  0  0
  132.4356  139.8231  158.7818 H   0  0  0  0  0  0  0  0  0  0  0  0
  130.7774  140.4503  158.9397 H   0  0  0  0  0  0  0  0  0  0  0  0
  131.8771  140.4796  160.3391 H   0  0  0  0  0  0  0  0  0  0  0  0
  132.2795  138.1247  161.6158 H   0  0  0  0  0  0  0  0  0  0  0  0
  133.1684  137.9901  160.0797 H   0  0  0  0  0  0  0  0  0  0  0  0
  130.5224  133.5353  161.0013 H   0  0  0  0  0  0  0  0  0  0  0  0
  132.2722  133.2093  161.0113 H   0  0  0  0  0  0  0  0  0  0  0  0
  131.1889  132.1927  159.0259 H   0  0  0  0  0  0  0  0  0  0  0  0
  132.3346  133.4678  158.5459 H   0  0  0  0  0  0  0  0  0  0  0  0
  128.5917  134.5332  160.2901 H   0  0  0  0  0  0  0  0  0  0  0  0
  127.5505  131.3015  159.2796 H   0  0  0  0  0  0  0  0  0  0  0  0
  125.3932  130.2655  159.8488 H   0  0  0  0  0  0  0  0  0  0  0  0
  123.6459  131.5878  160.9678 H   0  0  0  0  0  0  0  0  0  0  0  0
  124.0939  135.0328  161.7956 H   0  0  0  0  0  0  0  0  0  0  0  0
  126.2062  135.0086  160.9322 H   0  0  0  0  0  0  0  0  0  0  0  0
  129.0189  136.8269  160.1623 H   0  0  0  0  0  0  0  0  0  0  0  0
  127.0922  137.0438  161.6803 H   0  0  0  0  0  0  0  0  0  0  0  0
  126.8984  139.0097  163.1505 H   0  0  0  0  0  0  0  0  0  0  0  0
  128.6343  140.7556  163.1068 H   0  0  0  0  0  0  0  0  0  0  0  0
  130.5645  140.5350  161.5941 H   0  0  0  0  0  0  0  0  0  0  0  0
  1  2  1  0
  1 31  1  0
  1 32  1  0
  1 33  1  0
  2  3  1  6
  2  4  1  0
  2 25  1  0
  4  5  1  0
  4 34  1  0
  4 35  1  0
  5  6  3  0
  6  7  1  0
  7  8  1  0
  7 36  1  0
  7 37  1  0
  8  9  1  0
  8 38  1  0
  8 39  1  0
  9 10  1  1
  9 11  1  0
  9 15  1  0
 11 12  1  0
 11 13  1  0
 11 14  1  0
 15 16  2  0
 15 17  1  0
 17 18  1  0
 17 40  1  0
 18 24  1  0
 18 19  2  0
 19 20  1  0
 19 41  1  0
 20 21  2  0
 20 42  1  0
 21 22  1  0
 21 43  1  0
 22 23  1  0
 22 24  2  0
 23 44  1  0
 24 45  1  0
 25 30  1  0
 25 26  2  0
 26 27  1  0
 26 46  1  0
 27 28  2  0
 27 47  1  0
 28 29  1  0
 28 48  1  0
 29 30  2  0
 29 49  1  0
 30 50  1  0
M  CHG  1  11   1
M  END
>  <DOCK_score>  (1) 
-45.706619

>  <SMILES>  (1) 
C[C@@H](CC#CCC[C@@H]([NH3+])C(=O)Nc1cccc(O)c1)c1ccccc1

$$$$
