C[C@@H](c1ccnn1C)C(Nc1[nH]cc(-c2cccnc2)[nH+]1)c1ccnn1C
     RDKit          3D

 50 53  0  0  1  0  0  0  0  0999 V2000
  130.1755  138.0498  162.2752 C   0  0  0  0  0  0  0  0  0  0  0  0
  130.7196  137.5604  160.9315 C   0  0  1  0  0  0  0  0  0  0  0  0
  130.3236  138.1843  160.1302 H   0  0  0  0  0  0  0  0  0  0  0  0
  132.2242  137.6459  160.9375 C   0  0  0  0  0  0  0  0  0  0  0  0
  133.0562  137.0058  161.7913 C   0  0  0  0  0  0  0  0  0  0  0  0
  134.3687  137.3535  161.4553 C   0  0  0  0  0  0  0  0  0  0  0  0
  134.3258  138.1791  160.4411 N   0  0  0  0  0  0  0  0  0  0  0  0
  132.9829  138.3791  160.0961 N   0  0  0  0  0  0  0  0  0  0  0  0
  132.4892  139.2338  159.0136 C   0  0  0  0  0  0  0  0  0  0  0  0
  130.2921  136.1087  160.7064 C   0  0  2  0  0  0  0  0  0  0  0  0
  130.8131  135.6402  159.4198 N   0  0  0  0  0  0  0  0  0  0  0  0
  130.5532  134.3478  158.9971 C   0  0  0  0  0  0  0  0  0  0  0  0
  129.8254  133.4219  159.6791 N   0  0  0  0  0  0  0  0  0  0  0  0
  129.3989  133.5477  160.5412 H   0  0  0  0  0  0  0  0  0  0  0  0
  129.8060  132.2764  158.9211 C   0  0  0  0  0  0  0  0  0  0  0  0
  130.5217  132.5350  157.7987 C   0  0  0  0  0  0  0  0  0  0  0  0
  130.7733  131.5868  156.6861 C   0  0  0  0  0  0  0  0  0  0  0  0
  130.9396  132.0535  155.3788 C   0  0  0  0  0  0  0  0  0  0  0  0
  131.1768  131.1287  154.3769 C   0  0  0  0  0  0  0  0  0  0  0  0
  131.2310  129.7840  154.6963 C   0  0  0  0  0  0  0  0  0  0  0  0
  131.0653  129.3728  155.9384 N   0  0  0  0  0  0  0  0  0  0  0  0
  130.8422  130.2159  156.9260 C   0  0  0  0  0  0  0  0  0  0  0  0
  130.9628  133.8159  157.8714 N   0  0  0  0  0  0  0  0  0  0  0  0
  131.4980  134.2654  157.1987 H   0  0  0  0  0  0  0  0  0  0  0  0
  128.7875  136.0233  160.7004 C   0  0  0  0  0  0  0  0  0  0  0  0
  127.9858  136.1471  159.6173 C   0  0  0  0  0  0  0  0  0  0  0  0
  126.6615  136.0033  160.0436 C   0  0  0  0  0  0  0  0  0  0  0  0
  126.6678  135.8006  161.3363 N   0  0  0  0  0  0  0  0  0  0  0  0
  127.9989  135.8038  161.7730 N   0  0  0  0  0  0  0  0  0  0  0  0
  128.4539  135.6069  163.1517 C   0  0  0  0  0  0  0  0  0  0  0  0
  130.4801  139.0841  162.4355 H   0  0  0  0  0  0  0  0  0  0  0  0
  129.0873  137.9881  162.2707 H   0  0  0  0  0  0  0  0  0  0  0  0
  130.5717  137.4260  163.0764 H   0  0  0  0  0  0  0  0  0  0  0  0
  132.7593  136.3419  162.5898 H   0  0  0  0  0  0  0  0  0  0  0  0
  135.2627  137.0039  161.9498 H   0  0  0  0  0  0  0  0  0  0  0  0
  132.3188  140.2408  159.3946 H   0  0  0  0  0  0  0  0  0  0  0  0
  133.2277  139.2685  158.2125 H   0  0  0  0  0  0  0  0  0  0  0  0
  131.5539  138.8282  158.6280 H   0  0  0  0  0  0  0  0  0  0  0  0
  130.6882  135.4850  161.5076 H   0  0  0  0  0  0  0  0  0  0  0  0
  131.3400  136.2355  158.8641 H   0  0  0  0  0  0  0  0  0  0  0  0
  129.3141  131.3479  159.1709 H   0  0  0  0  0  0  0  0  0  0  0  0
  130.8881  133.1093  155.1572 H   0  0  0  0  0  0  0  0  0  0  0  0
  131.3137  131.4532  153.3559 H   0  0  0  0  0  0  0  0  0  0  0  0
  131.4120  129.0593  153.9162 H   0  0  0  0  0  0  0  0  0  0  0  0
  130.7120  129.8411  157.9305 H   0  0  0  0  0  0  0  0  0  0  0  0
  128.3111  136.3252  158.6030 H   0  0  0  0  0  0  0  0  0  0  0  0
  125.7850  136.0509  159.4145 H   0  0  0  0  0  0  0  0  0  0  0  0
  128.5806  136.5760  163.6344 H   0  0  0  0  0  0  0  0  0  0  0  0
  127.7140  135.0225  163.6986 H   0  0  0  0  0  0  0  0  0  0  0  0
  129.4058  135.0757  163.1477 H   0  0  0  0  0  0  0  0  0  0  0  0
  1  2  1  0
  1 31  1  0
  1 32  1  0
  1 33  1  0
  2  3  1  6
  2  4  1  0
  2 10  1  0
  4  8  1  0
  4  5  2  0
  5  6  1  0
  5 34  1  0
  6  7  2  0
  6 35  1  0
  7  8  1  0
  8  9  1  0
  9 36  1  0
  9 37  1  0
  9 38  1  0
 10 11  1  0
 10 25  1  0
 10 39  1  1
 11 40  1  0
 12 11  1  0
 12 23  2  0
 12 13  1  0
 13 14  1  0
 13 15  1  0
 15 16  2  0
 15 41  1  0
 16 17  1  0
 16 23  1  0
 17 22  1  0
 17 18  2  0
 18 19  1  0
 18 42  1  0
 19 20  2  0
 19 43  1  0
 20 21  1  0
 20 44  1  0
 21 22  2  0
 22 45  1  0
 23 24  1  0
 25 29  1  0
 25 26  2  0
 26 27  1  0
 26 46  1  0
 27 28  2  0
 27 47  1  0
 28 29  1  0
 29 30  1  0
 30 48  1  0
 30 49  1  0
 30 50  1  0
M  CHG  1  23   1
M  END
>  <DOCK_score>  (1) 
-56.648308

>  <SMILES>  (1) 
C[C@@H](c1ccnn1C)C(Nc1[nH]cc(-c2cccnc2)[nH+]1)c1ccnn1C

$$$$
