c1ccc(-c2nn(-c3ccccc3)cc2CN2CC[NH+](Cc3cccc4ccccc34)CC2)cc1
     RDKit          3D

 66 71  0  0  1  0  0  0  0  0999 V2000
  135.8374  141.2294  159.9009 C   0  0  0  0  0  0  0  0  0  0  0  0
  134.8037  140.5690  159.2617 C   0  0  0  0  0  0  0  0  0  0  0  0
  133.6735  140.2059  159.9657 C   0  0  0  0  0  0  0  0  0  0  0  0
  133.5748  140.5060  161.3228 C   0  0  0  0  0  0  0  0  0  0  0  0
  132.3622  140.1180  162.0851 C   0  0  0  0  0  0  0  0  0  0  0  0
  131.5495  140.9398  162.7154 N   0  0  0  0  0  0  0  0  0  0  0  0
  130.5322  140.1794  163.3063 N   0  0  0  0  0  0  0  0  0  0  0  0
  129.4677  140.6787  164.0684 C   0  0  0  0  0  0  0  0  0  0  0  0
  128.5206  139.8098  164.5939 C   0  0  0  0  0  0  0  0  0  0  0  0
  127.4757  140.3047  165.3495 C   0  0  0  0  0  0  0  0  0  0  0  0
  127.3658  141.6648  165.5735 C   0  0  0  0  0  0  0  0  0  0  0  0
  128.3044  142.5331  165.0467 C   0  0  0  0  0  0  0  0  0  0  0  0
  129.3547  142.0440  164.2950 C   0  0  0  0  0  0  0  0  0  0  0  0
  130.7588  138.8727  163.0112 C   0  0  0  0  0  0  0  0  0  0  0  0
  131.8795  138.8060  162.2601 C   0  0  0  0  0  0  0  0  0  0  0  0
  132.5032  137.5504  161.7072 C   0  0  0  0  0  0  0  0  0  0  0  0
  131.4567  136.6984  161.1270 N   0  0  0  0  0  0  0  0  0  0  0  0
  132.0164  135.4238  160.6555 C   0  0  0  0  0  0  0  0  0  0  0  0
  130.8877  134.5436  160.1142 C   0  0  0  0  0  0  0  0  0  0  0  0
  130.2105  135.2385  159.0115 N   0  0  0  0  0  0  0  0  0  0  0  0
  130.8766  135.4362  158.2798 H   0  0  0  0  0  0  0  0  0  0  0  0
  129.1388  134.3858  158.4803 C   0  0  0  0  0  0  0  0  0  0  0  0
  129.7300  133.3542  157.5543 C   0  0  0  0  0  0  0  0  0  0  0  0
  129.8570  133.6203  156.2254 C   0  0  0  0  0  0  0  0  0  0  0  0
  130.4055  132.6808  155.3548 C   0  0  0  0  0  0  0  0  0  0  0  0
  130.8214  131.4659  155.8062 C   0  0  0  0  0  0  0  0  0  0  0  0
  130.7014  131.1530  157.1707 C   0  0  0  0  0  0  0  0  0  0  0  0
  131.1201  129.9093  157.6738 C   0  0  0  0  0  0  0  0  0  0  0  0
  130.9890  129.6413  159.0016 C   0  0  0  0  0  0  0  0  0  0  0  0
  130.4441  130.5827  159.8732 C   0  0  0  0  0  0  0  0  0  0  0  0
  130.0282  131.7974  159.4221 C   0  0  0  0  0  0  0  0  0  0  0  0
  130.1477  132.1105  158.0573 C   0  0  0  0  0  0  0  0  0  0  0  0
  129.6358  136.4976  159.5033 C   0  0  0  0  0  0  0  0  0  0  0  0
  130.7541  137.3940  160.0395 C   0  0  0  0  0  0  0  0  0  0  0  0
  134.6165  141.1769  161.9603 C   0  0  0  0  0  0  0  0  0  0  0  0
  135.7450  141.5294  161.2480 C   0  0  0  0  0  0  0  0  0  0  0  0
  136.7202  141.5115  159.3463 H   0  0  0  0  0  0  0  0  0  0  0  0
  134.8812  140.3369  158.2098 H   0  0  0  0  0  0  0  0  0  0  0  0
  132.8673  139.6897  159.4658 H   0  0  0  0  0  0  0  0  0  0  0  0
  128.6032  138.7480  164.4156 H   0  0  0  0  0  0  0  0  0  0  0  0
  126.7411  139.6290  165.7622 H   0  0  0  0  0  0  0  0  0  0  0  0
  126.5456  142.0497  166.1611 H   0  0  0  0  0  0  0  0  0  0  0  0
  128.2161  143.5950  165.2236 H   0  0  0  0  0  0  0  0  0  0  0  0
  130.0876  142.7227  163.8842 H   0  0  0  0  0  0  0  0  0  0  0  0
  130.1507  138.0359  163.3216 H   0  0  0  0  0  0  0  0  0  0  0  0
  133.2268  137.8135  160.9357 H   0  0  0  0  0  0  0  0  0  0  0  0
  133.0073  137.0116  162.5094 H   0  0  0  0  0  0  0  0  0  0  0  0
  132.7400  135.6152  159.8633 H   0  0  0  0  0  0  0  0  0  0  0  0
  132.5094  134.9146  161.4837 H   0  0  0  0  0  0  0  0  0  0  0  0
  130.1712  134.3412  160.9104 H   0  0  0  0  0  0  0  0  0  0  0  0
  131.3026  133.6034  159.7510 H   0  0  0  0  0  0  0  0  0  0  0  0
  128.6305  133.8853  159.3046 H   0  0  0  0  0  0  0  0  0  0  0  0
  128.4243  134.9995  157.9319 H   0  0  0  0  0  0  0  0  0  0  0  0
  129.5310  134.5754  155.8407 H   0  0  0  0  0  0  0  0  0  0  0  0
  130.4985  132.9187  154.3054 H   0  0  0  0  0  0  0  0  0  0  0  0
  131.2417  130.7463  155.1192 H   0  0  0  0  0  0  0  0  0  0  0  0
  131.5436  129.1700  157.0101 H   0  0  0  0  0  0  0  0  0  0  0  0
  131.3116  128.6849  159.3856 H   0  0  0  0  0  0  0  0  0  0  0  0
  130.3508  130.3445  160.9225 H   0  0  0  0  0  0  0  0  0  0  0  0
  129.6085  132.5171  160.1095 H   0  0  0  0  0  0  0  0  0  0  0  0
  128.9258  136.2850  160.3026 H   0  0  0  0  0  0  0  0  0  0  0  0
  129.1225  137.0060  158.6871 H   0  0  0  0  0  0  0  0  0  0  0  0
  130.3262  138.3223  160.4182 H   0  0  0  0  0  0  0  0  0  0  0  0
  131.4571  137.6183  159.2373 H   0  0  0  0  0  0  0  0  0  0  0  0
  134.5433  141.4158  163.0110 H   0  0  0  0  0  0  0  0  0  0  0  0
  136.5553  142.0446  161.7424 H   0  0  0  0  0  0  0  0  0  0  0  0
  1 36  2  0
  1  2  1  0
  1 37  1  0
  2  3  2  0
  2 38  1  0
  3  4  1  0
  3 39  1  0
  4  5  1  0
  4 35  2  0
  5 15  1  0
  5  6  2  0
  6  7  1  0
  7  8  1  0
  7 14  1  0
  8 13  1  0
  8  9  2  0
  9 10  1  0
  9 40  1  0
 10 11  2  0
 10 41  1  0
 11 12  1  0
 11 42  1  0
 12 13  2  0
 12 43  1  0
 13 44  1  0
 14 15  2  0
 14 45  1  0
 15 16  1  0
 16 17  1  0
 16 46  1  0
 16 47  1  0
 17 34  1  0
 17 18  1  0
 18 19  1  0
 18 48  1  0
 18 49  1  0
 19 20  1  0
 19 50  1  0
 19 51  1  0
 20 21  1  0
 20 22  1  0
 20 33  1  0
 22 23  1  0
 22 52  1  0
 22 53  1  0
 23 32  1  0
 23 24  2  0
 24 25  1  0
 24 54  1  0
 25 26  2  0
 25 55  1  0
 26 27  1  0
 26 56  1  0
 27 32  2  0
 27 28  1  0
 28 29  2  0
 28 57  1  0
 29 30  1  0
 29 58  1  0
 30 31  2  0
 30 59  1  0
 31 32  1  0
 31 60  1  0
 33 34  1  0
 33 61  1  0
 33 62  1  0
 34 63  1  0
 34 64  1  0
 35 36  1  0
 35 65  1  0
 36 66  1  0
M  CHG  1  20   1
M  END
>  <DOCK_score>  (1) 
-56.406815

>  <SMILES>  (1) 
c1ccc(-c2nn(-c3ccccc3)cc2CN2CC[NH+](Cc3cccc4ccccc34)CC2)cc1

$$$$
