CCc1ccc(-c2c[nH]c(N[C@@H](C=C3CC(=O)CCC3=O)c3ccccc3)[nH+]2)cc1
     RDKit          3D

 56 59  0  0  1  0  0  0  0  0999 V2000
  130.0950  128.9836  150.9425 C   0  0  0  0  0  0  0  0  0  0  0  0
  131.3294  129.0653  151.8427 C   0  0  0  0  0  0  0  0  0  0  0  0
  131.0013  129.8710  153.0733 C   0  0  0  0  0  0  0  0  0  0  0  0
  130.0547  130.8775  153.0055 C   0  0  0  0  0  0  0  0  0  0  0  0
  129.7460  131.6148  154.1306 C   0  0  0  0  0  0  0  0  0  0  0  0
  130.3982  131.3512  155.3338 C   0  0  0  0  0  0  0  0  0  0  0  0
  130.0748  132.1439  156.5452 C   0  0  0  0  0  0  0  0  0  0  0  0
  129.5964  131.6536  157.7155 C   0  0  0  0  0  0  0  0  0  0  0  0
  129.4389  132.7244  158.5616 N   0  0  0  0  0  0  0  0  0  0  0  0
  129.1118  132.6922  159.4742 H   0  0  0  0  0  0  0  0  0  0  0  0
  129.8261  133.8386  157.8829 C   0  0  0  0  0  0  0  0  0  0  0  0
  129.8201  135.1297  158.3823 N   0  0  0  0  0  0  0  0  0  0  0  0
  129.3689  135.3829  159.7530 C   0  0  1  0  0  0  0  0  0  0  0  0
  129.7390  134.5948  160.4086 H   0  0  0  0  0  0  0  0  0  0  0  0
  129.8995  136.7143  160.2186 C   0  0  0  0  0  0  0  0  0  0  0  0
  131.0823  136.7834  160.8329 C   0  0  0  0  0  0  0  0  0  0  0  0
  131.6546  138.1051  161.3114 C   0  0  0  0  0  0  0  0  0  0  0  0
  133.1287  138.1097  160.9815 C   0  0  0  0  0  0  0  0  0  0  0  0
  133.6281  139.0504  160.4124 O   0  0  0  0  0  0  0  0  0  0  0  0
  133.9645  136.9130  161.3735 C   0  0  0  0  0  0  0  0  0  0  0  0
  133.3718  135.6542  160.7295 C   0  0  0  0  0  0  0  0  0  0  0  0
  131.8994  135.5799  161.0744 C   0  0  0  0  0  0  0  0  0  0  0  0
  131.4105  134.5685  161.5327 O   0  0  0  0  0  0  0  0  0  0  0  0
  127.8624  135.4016  159.7904 C   0  0  0  0  0  0  0  0  0  0  0  0
  127.1946  135.0014  160.9328 C   0  0  0  0  0  0  0  0  0  0  0  0
  125.8128  135.0224  160.9685 C   0  0  0  0  0  0  0  0  0  0  0  0
  125.0988  135.4356  159.8593 C   0  0  0  0  0  0  0  0  0  0  0  0
  125.7666  135.8307  158.7152 C   0  0  0  0  0  0  0  0  0  0  0  0
  127.1485  135.8136  158.6808 C   0  0  0  0  0  0  0  0  0  0  0  0
  130.2109  133.4870  156.6803 N   0  0  0  0  0  0  0  0  0  0  0  0
  130.5383  134.0909  155.9955 H   0  0  0  0  0  0  0  0  0  0  0  0
  131.3551  130.3396  155.3948 C   0  0  0  0  0  0  0  0  0  0  0  0
  131.6517  129.6050  154.2648 C   0  0  0  0  0  0  0  0  0  0  0  0
  130.3325  128.4009  150.0524 H   0  0  0  0  0  0  0  0  0  0  0  0
  129.2809  128.5031  151.4849 H   0  0  0  0  0  0  0  0  0  0  0  0
  129.7925  129.9887  150.6486 H   0  0  0  0  0  0  0  0  0  0  0  0
  131.6320  128.0601  152.1367 H   0  0  0  0  0  0  0  0  0  0  0  0
  132.1437  129.5459  151.3004 H   0  0  0  0  0  0  0  0  0  0  0  0
  129.5534  131.0840  152.0715 H   0  0  0  0  0  0  0  0  0  0  0  0
  129.0035  132.3973  154.0778 H   0  0  0  0  0  0  0  0  0  0  0  0
  129.3802  130.6195  157.9394 H   0  0  0  0  0  0  0  0  0  0  0  0
  130.1149  135.8668  157.8248 H   0  0  0  0  0  0  0  0  0  0  0  0
  129.3226  137.6127  160.0552 H   0  0  0  0  0  0  0  0  0  0  0  0
  131.1583  138.9304  160.8005 H   0  0  0  0  0  0  0  0  0  0  0  0
  131.5188  138.1996  162.3887 H   0  0  0  0  0  0  0  0  0  0  0  0
  133.9595  136.8044  162.4581 H   0  0  0  0  0  0  0  0  0  0  0  0
  134.9879  137.0533  161.0251 H   0  0  0  0  0  0  0  0  0  0  0  0
  133.8825  134.7715  161.1143 H   0  0  0  0  0  0  0  0  0  0  0  0
  133.4917  135.7061  159.6473 H   0  0  0  0  0  0  0  0  0  0  0  0
  127.7523  134.6755  161.7982 H   0  0  0  0  0  0  0  0  0  0  0  0
  125.2911  134.7134  161.8622 H   0  0  0  0  0  0  0  0  0  0  0  0
  124.0193  135.4494  159.8864 H   0  0  0  0  0  0  0  0  0  0  0  0
  125.2089  136.1532  157.8485 H   0  0  0  0  0  0  0  0  0  0  0  0
  127.6702  136.1221  157.7870 H   0  0  0  0  0  0  0  0  0  0  0  0
  131.8638  130.1313  156.3245 H   0  0  0  0  0  0  0  0  0  0  0  0
  132.3932  128.8211  154.3108 H   0  0  0  0  0  0  0  0  0  0  0  0
  1  2  1  0
  1 34  1  0
  1 35  1  0
  1 36  1  0
  2  3  1  0
  2 37  1  0
  2 38  1  0
  3 33  2  0
  3  4  1  0
  4  5  2  0
  4 39  1  0
  5  6  1  0
  5 40  1  0
  6  7  1  0
  6 32  2  0
  7 30  1  0
  7  8  2  0
  8  9  1  0
  8 41  1  0
  9 10  1  0
  9 11  1  0
 11 12  1  0
 11 30  2  0
 12 13  1  0
 12 42  1  0
 13 14  1  1
 13 15  1  0
 13 24  1  0
 15 16  2  0
 15 43  1  0
 16 22  1  0
 16 17  1  0
 17 18  1  0
 17 44  1  0
 17 45  1  0
 18 19  2  0
 18 20  1  0
 20 21  1  0
 20 46  1  0
 20 47  1  0
 21 22  1  0
 21 48  1  0
 21 49  1  0
 22 23  2  0
 24 29  1  0
 24 25  2  0
 25 26  1  0
 25 50  1  0
 26 27  2  0
 26 51  1  0
 27 28  1  0
 27 52  1  0
 28 29  2  0
 28 53  1  0
 29 54  1  0
 30 31  1  0
 32 33  1  0
 32 55  1  0
 33 56  1  0
M  CHG  1  30   1
M  END
>  <DOCK_score>  (1) 
-57.907345

>  <SMILES>  (1) 
CCc1ccc(-c2c[nH]c(N[C@@H](C=C3CC(=O)CCC3=O)c3ccccc3)[nH+]2)cc1

$$$$
