Nc1ccc(-c2c[nH]c(N[C@@H](Cc3ccc(C4=CCC=CC4)cc3)C3CCC3)[nH+]2)cc1
     RDKit          3D

 62 66  0  0  1  0  0  0  0  0999 V2000
  131.3367  129.5069  151.9953 N   0  0  0  0  0  0  0  0  0  0  0  0
  131.0627  130.1509  153.2042 C   0  0  0  0  0  0  0  0  0  0  0  0
  130.1148  131.1663  153.2508 C   0  0  0  0  0  0  0  0  0  0  0  0
  129.8428  131.8027  154.4434 C   0  0  0  0  0  0  0  0  0  0  0  0
  130.5193  131.4270  155.6029 C   0  0  0  0  0  0  0  0  0  0  0  0
  130.2287  132.1107  156.8871 C   0  0  0  0  0  0  0  0  0  0  0  0
  129.7663  131.5221  158.0176 C   0  0  0  0  0  0  0  0  0  0  0  0
  129.6386  132.5146  158.9603 N   0  0  0  0  0  0  0  0  0  0  0  0
  129.3285  132.4041  159.8727 H   0  0  0  0  0  0  0  0  0  0  0  0
  130.0275  133.6807  158.3767 C   0  0  0  0  0  0  0  0  0  0  0  0
  130.0487  134.9216  158.9902 N   0  0  0  0  0  0  0  0  0  0  0  0
  129.0893  135.2294  160.0538 C   0  0  1  0  0  0  0  0  0  0  0  0
  128.9651  134.3566  160.6948 H   0  0  0  0  0  0  0  0  0  0  0  0
  129.6093  136.4035  160.8856 C   0  0  0  0  0  0  0  0  0  0  0  0
  130.9368  136.0365  161.4975 C   0  0  0  0  0  0  0  0  0  0  0  0
  132.1084  136.3028  160.8116 C   0  0  0  0  0  0  0  0  0  0  0  0
  133.3271  135.9737  161.3684 C   0  0  0  0  0  0  0  0  0  0  0  0
  133.3759  135.3616  162.6214 C   0  0  0  0  0  0  0  0  0  0  0  0
  134.6779  135.0008  163.2212 C   0  0  0  0  0  0  0  0  0  0  0  0
  135.4555  134.1564  162.5803 C   0  0  0  0  0  0  0  0  0  0  0  0
  136.7953  133.7341  163.1043 C   0  0  0  0  0  0  0  0  0  0  0  0
  136.9022  133.9829  164.5784 C   0  0  0  0  0  0  0  0  0  0  0  0
  136.1323  134.8123  165.2133 C   0  0  0  0  0  0  0  0  0  0  0  0
  135.0561  135.6079  164.5389 C   0  0  0  0  0  0  0  0  0  0  0  0
  132.1903  135.0910  163.3056 C   0  0  0  0  0  0  0  0  0  0  0  0
  130.9782  135.4298  162.7402 C   0  0  0  0  0  0  0  0  0  0  0  0
  127.7415  135.6019  159.4328 C   0  0  0  0  0  0  0  0  0  0  0  0
  126.6424  135.8852  160.4703 C   0  0  0  0  0  0  0  0  0  0  0  0
  125.6775  135.1352  159.5370 C   0  0  0  0  0  0  0  0  0  0  0  0
  126.9069  134.3858  158.9970 C   0  0  0  0  0  0  0  0  0  0  0  0
  130.3793  133.4354  157.1381 N   0  0  0  0  0  0  0  0  0  0  0  0
  130.6965  134.0957  156.5022 H   0  0  0  0  0  0  0  0  0  0  0  0
  131.4735  130.4121  155.5528 C   0  0  0  0  0  0  0  0  0  0  0  0
  131.7385  129.7748  154.3589 C   0  0  0  0  0  0  0  0  0  0  0  0
  130.8649  129.7690  151.1887 H   0  0  0  0  0  0  0  0  0  0  0  0
  131.9978  128.7985  151.9616 H   0  0  0  0  0  0  0  0  0  0  0  0
  129.5910  131.4572  152.3523 H   0  0  0  0  0  0  0  0  0  0  0  0
  129.1058  132.5913  154.4792 H   0  0  0  0  0  0  0  0  0  0  0  0
  129.5450  130.4737  158.1530 H   0  0  0  0  0  0  0  0  0  0  0  0
  130.6987  135.5873  158.7160 H   0  0  0  0  0  0  0  0  0  0  0  0
  129.7336  137.2762  160.2446 H   0  0  0  0  0  0  0  0  0  0  0  0
  128.8956  136.6324  161.6769 H   0  0  0  0  0  0  0  0  0  0  0  0
  132.0691  136.7728  159.8402 H   0  0  0  0  0  0  0  0  0  0  0  0
  134.2413  136.1858  160.8339 H   0  0  0  0  0  0  0  0  0  0  0  0
  135.1173  133.7538  161.6369 H   0  0  0  0  0  0  0  0  0  0  0  0
  137.5766  134.2936  162.5900 H   0  0  0  0  0  0  0  0  0  0  0  0
  136.9318  132.6702  162.9107 H   0  0  0  0  0  0  0  0  0  0  0  0
  137.6544  133.4468  165.1380 H   0  0  0  0  0  0  0  0  0  0  0  0
  136.2740  134.9351  166.2769 H   0  0  0  0  0  0  0  0  0  0  0  0
  135.4132  136.6245  164.3745 H   0  0  0  0  0  0  0  0  0  0  0  0
  134.1776  135.6387  165.1833 H   0  0  0  0  0  0  0  0  0  0  0  0
  132.2213  134.6171  164.2757 H   0  0  0  0  0  0  0  0  0  0  0  0
  130.0599  135.2206  163.2685 H   0  0  0  0  0  0  0  0  0  0  0  0
  127.8273  136.3705  158.6647 H   0  0  0  0  0  0  0  0  0  0  0  0
  126.8037  135.3847  161.4252 H   0  0  0  0  0  0  0  0  0  0  0  0
  126.4086  136.9441  160.5806 H   0  0  0  0  0  0  0  0  0  0  0  0
  125.1978  135.7769  158.7979 H   0  0  0  0  0  0  0  0  0  0  0  0
  124.9706  134.4930  160.0623 H   0  0  0  0  0  0  0  0  0  0  0  0
  126.8868  134.2344  157.9177 H   0  0  0  0  0  0  0  0  0  0  0  0
  127.1416  133.4752  159.5479 H   0  0  0  0  0  0  0  0  0  0  0  0
  132.0020  130.1225  156.4489 H   0  0  0  0  0  0  0  0  0  0  0  0
  132.4750  128.9858  154.3204 H   0  0  0  0  0  0  0  0  0  0  0  0
  1  2  1  0
  1 35  1  0
  1 36  1  0
  2 34  2  0
  2  3  1  0
  3  4  2  0
  3 37  1  0
  4  5  1  0
  4 38  1  0
  5  6  1  0
  5 33  2  0
  6 31  1  0
  6  7  2  0
  7  8  1  0
  7 39  1  0
  8  9  1  0
  8 10  1  0
 10 11  1  0
 10 31  2  0
 11 12  1  0
 11 40  1  0
 12 13  1  1
 12 14  1  0
 12 27  1  0
 14 15  1  0
 14 41  1  0
 14 42  1  0
 15 26  1  0
 15 16  2  0
 16 17  1  0
 16 43  1  0
 17 18  2  0
 17 44  1  0
 18 19  1  0
 18 25  1  0
 19 24  1  0
 19 20  2  0
 20 21  1  0
 20 45  1  0
 21 22  1  0
 21 46  1  0
 21 47  1  0
 22 23  2  0
 22 48  1  0
 23 24  1  0
 23 49  1  0
 24 50  1  0
 24 51  1  0
 25 26  2  0
 25 52  1  0
 26 53  1  0
 27 30  1  0
 27 28  1  0
 27 54  1  0
 28 29  1  0
 28 55  1  0
 28 56  1  0
 29 30  1  0
 29 57  1  0
 29 58  1  0
 30 59  1  0
 30 60  1  0
 31 32  1  0
 33 34  1  0
 33 61  1  0
 34 62  1  0
M  CHG  1  31   1
M  END
>  <DOCK_score>  (1) 
-59.278965

>  <SMILES>  (1) 
Nc1ccc(-c2c[nH]c(N[C@@H](Cc3ccc(C4=CCC=CC4)cc3)C3CCC3)[nH+]2)cc1

$$$$
