O=C1CC[C@H]([NH+]=C(NCc2ccc(F)cc2F)NC2CC=CC2)CN1
     RDKit          3D

 48 50  0  0  1  0  0  0  0  0999 V2000
  123.6763  133.6779  161.4503 O   0  0  0  0  0  0  0  0  0  0  0  0
  124.8574  133.8913  161.2761 C   0  0  0  0  0  0  0  0  0  0  0  0
  125.7214  132.7592  160.7996 C   0  0  0  0  0  0  0  0  0  0  0  0
  127.1948  133.0845  161.0573 C   0  0  0  0  0  0  0  0  0  0  0  0
  127.4786  134.4967  160.5312 C   0  0  2  0  0  0  0  0  0  0  0  0
  127.1445  134.5756  159.4967 H   0  0  0  0  0  0  0  0  0  0  0  0
  128.9162  134.7692  160.6057 N   0  0  0  0  0  0  0  0  0  0  0  0
  129.2934  135.1680  161.4054 H   0  0  0  0  0  0  0  0  0  0  0  0
  129.6880  134.4757  159.5974 C   0  0  0  0  0  0  0  0  0  0  0  0
  129.1534  133.9105  158.4640 N   0  0  0  0  0  0  0  0  0  0  0  0
  129.7696  134.1626  157.1589 C   0  0  0  0  0  0  0  0  0  0  0  0
  130.2113  132.8562  156.5512 C   0  0  0  0  0  0  0  0  0  0  0  0
  129.9530  132.5915  155.2191 C   0  0  0  0  0  0  0  0  0  0  0  0
  130.3569  131.3939  154.6607 C   0  0  0  0  0  0  0  0  0  0  0  0
  131.0214  130.4570  155.4357 C   0  0  0  0  0  0  0  0  0  0  0  0
  131.4161  129.2864  154.8887 F   0  0  0  0  0  0  0  0  0  0  0  0
  131.2808  130.7213  156.7685 C   0  0  0  0  0  0  0  0  0  0  0  0
  130.8806  131.9238  157.3257 C   0  0  0  0  0  0  0  0  0  0  0  0
  131.1378  132.1851  158.6259 F   0  0  0  0  0  0  0  0  0  0  0  0
  131.0372  134.7317  159.6672 N   0  0  0  0  0  0  0  0  0  0  0  0
  131.6068  135.3342  160.8749 C   0  0  0  0  0  0  0  0  0  0  0  0
  131.1291  136.7950  161.0448 C   0  0  0  0  0  0  0  0  0  0  0  0
  132.2016  137.6315  160.3863 C   0  0  0  0  0  0  0  0  0  0  0  0
  133.2965  136.9419  160.2151 C   0  0  0  0  0  0  0  0  0  0  0  0
  133.1369  135.5306  160.7307 C   0  0  0  0  0  0  0  0  0  0  0  0
  126.7200  135.5032  161.3971 C   0  0  0  0  0  0  0  0  0  0  0  0
  125.3194  135.1186  161.5182 N   0  0  0  0  0  0  0  0  0  0  0  0
  125.5652  132.6092  159.7314 H   0  0  0  0  0  0  0  0  0  0  0  0
  125.4527  131.8485  161.3349 H   0  0  0  0  0  0  0  0  0  0  0  0
  127.8261  132.3649  160.5359 H   0  0  0  0  0  0  0  0  0  0  0  0
  127.3979  133.0437  162.1274 H   0  0  0  0  0  0  0  0  0  0  0  0
  128.3681  133.3447  158.5283 H   0  0  0  0  0  0  0  0  0  0  0  0
  129.0448  134.6425  156.5015 H   0  0  0  0  0  0  0  0  0  0  0  0
  130.6336  134.8152  157.2851 H   0  0  0  0  0  0  0  0  0  0  0  0
  129.4347  133.3212  154.6148 H   0  0  0  0  0  0  0  0  0  0  0  0
  130.1543  131.1880  153.6200 H   0  0  0  0  0  0  0  0  0  0  0  0
  131.7987  129.9915  157.3731 H   0  0  0  0  0  0  0  0  0  0  0  0
  131.6117  134.5132  158.9168 H   0  0  0  0  0  0  0  0  0  0  0  0
  131.3685  134.7395  161.7567 H   0  0  0  0  0  0  0  0  0  0  0  0
  131.0467  137.0470  162.1021 H   0  0  0  0  0  0  0  0  0  0  0  0
  130.1720  136.9421  160.5443 H   0  0  0  0  0  0  0  0  0  0  0  0
  132.0783  138.6644  160.0960 H   0  0  0  0  0  0  0  0  0  0  0  0
  134.1983  137.3294  159.7644 H   0  0  0  0  0  0  0  0  0  0  0  0
  133.5455  134.8167  160.0156 H   0  0  0  0  0  0  0  0  0  0  0  0
  133.6283  135.4218  161.6976 H   0  0  0  0  0  0  0  0  0  0  0  0
  127.1712  135.5377  162.3888 H   0  0  0  0  0  0  0  0  0  0  0  0
  126.7842  136.4912  160.9411 H   0  0  0  0  0  0  0  0  0  0  0  0
  124.6834  135.7979  161.7921 H   0  0  0  0  0  0  0  0  0  0  0  0
  1  2  2  0
  2 27  1  0
  2  3  1  0
  3  4  1  0
  3 28  1  0
  3 29  1  0
  4  5  1  0
  4 30  1  0
  4 31  1  0
  5  6  1  6
  5  7  1  0
  5 26  1  0
  7  8  1  0
  9  7  2  0
  9 10  1  0
  9 20  1  0
 10 11  1  0
 10 32  1  0
 11 12  1  0
 11 33  1  0
 11 34  1  0
 12 18  1  0
 12 13  2  0
 13 14  1  0
 13 35  1  0
 14 15  2  0
 14 36  1  0
 15 16  1  0
 15 17  1  0
 17 18  2  0
 17 37  1  0
 18 19  1  0
 20 21  1  0
 20 38  1  0
 21 25  1  0
 21 22  1  0
 21 39  1  0
 22 23  1  0
 22 40  1  0
 22 41  1  0
 23 24  2  0
 23 42  1  0
 24 25  1  0
 24 43  1  0
 25 44  1  0
 25 45  1  0
 26 27  1  0
 26 46  1  0
 26 47  1  0
 27 48  1  0
M  CHG  1   7   1
M  END
>  <DOCK_score>  (1) 
-48.947704

>  <SMILES>  (1) 
O=C1CC[C@H]([NH+]=C(NCc2ccc(F)cc2F)NC2CC=CC2)CN1

$$$$
