CCc1ccc(-c2c[nH]c(Nc3ccc(N[C@H]4CCC(=O)NC4)c(O)c3)[nH+]2)cc1
     RDKit          3D

 55 58  0  0  1  0  0  0  0  0999 V2000
  130.3238  129.9918  150.7734 C   0  0  0  0  0  0  0  0  0  0  0  0
  131.3735  129.6359  151.8288 C   0  0  0  0  0  0  0  0  0  0  0  0
  131.0652  130.3672  153.1099 C   0  0  0  0  0  0  0  0  0  0  0  0
  130.4316  131.5965  153.0665 C   0  0  0  0  0  0  0  0  0  0  0  0
  130.1468  132.2704  154.2367 C   0  0  0  0  0  0  0  0  0  0  0  0
  130.4989  131.7105  155.4636 C   0  0  0  0  0  0  0  0  0  0  0  0
  130.1960  132.4303  156.7248 C   0  0  0  0  0  0  0  0  0  0  0  0
  129.4093  131.9780  157.7327 C   0  0  0  0  0  0  0  0  0  0  0  0
  129.4003  132.9530  158.6998 N   0  0  0  0  0  0  0  0  0  0  0  0
  128.9248  132.9200  159.5445 H   0  0  0  0  0  0  0  0  0  0  0  0
  130.1827  133.9740  158.2542 C   0  0  0  0  0  0  0  0  0  0  0  0
  130.4362  135.1528  158.9357 N   0  0  0  0  0  0  0  0  0  0  0  0
  129.8658  135.3695  160.1962 C   0  0  0  0  0  0  0  0  0  0  0  0
  130.6817  135.5756  161.3009 C   0  0  0  0  0  0  0  0  0  0  0  0
  130.1210  135.7944  162.5449 C   0  0  0  0  0  0  0  0  0  0  0  0
  128.7422  135.7991  162.6942 C   0  0  0  0  0  0  0  0  0  0  0  0
  128.1741  136.0169  163.9578 N   0  0  0  0  0  0  0  0  0  0  0  0
  129.0373  136.2335  165.1216 C   0  0  1  0  0  0  0  0  0  0  0  0
  129.8967  135.5648  165.0719 H   0  0  0  0  0  0  0  0  0  0  0  0
  129.5187  137.6893  165.1409 C   0  0  0  0  0  0  0  0  0  0  0  0
  130.5580  137.8402  166.2549 C   0  0  0  0  0  0  0  0  0  0  0  0
  130.0340  137.2388  167.5272 C   0  0  0  0  0  0  0  0  0  0  0  0
  130.5685  137.5480  168.5709 O   0  0  0  0  0  0  0  0  0  0  0  0
  129.0118  136.3833  167.5710 N   0  0  0  0  0  0  0  0  0  0  0  0
  128.2487  135.9614  166.4031 C   0  0  0  0  0  0  0  0  0  0  0  0
  127.9217  135.5930  161.5875 C   0  0  0  0  0  0  0  0  0  0  0  0
  126.5693  135.6020  161.7314 O   0  0  0  0  0  0  0  0  0  0  0  0
  128.4848  135.3787  160.3407 C   0  0  0  0  0  0  0  0  0  0  0  0
  130.6521  133.6598  157.0713 N   0  0  0  0  0  0  0  0  0  0  0  0
  131.2341  134.2168  156.5310 H   0  0  0  0  0  0  0  0  0  0  0  0
  131.1418  130.4745  155.5007 C   0  0  0  0  0  0  0  0  0  0  0  0
  131.4164  129.8069  154.3244 C   0  0  0  0  0  0  0  0  0  0  0  0
  130.3406  131.0665  150.5916 H   0  0  0  0  0  0  0  0  0  0  0  0
  130.5468  129.4631  149.8465 H   0  0  0  0  0  0  0  0  0  0  0  0
  129.3364  129.6991  151.1301 H   0  0  0  0  0  0  0  0  0  0  0  0
  132.3608  129.9294  151.4715 H   0  0  0  0  0  0  0  0  0  0  0  0
  131.3565  128.5620  152.0100 H   0  0  0  0  0  0  0  0  0  0  0  0
  130.1595  132.0297  152.1153 H   0  0  0  0  0  0  0  0  0  0  0  0
  129.6519  133.2297  154.2020 H   0  0  0  0  0  0  0  0  0  0  0  0
  128.8892  131.0321  157.7679 H   0  0  0  0  0  0  0  0  0  0  0  0
  131.0087  135.8284  158.5399 H   0  0  0  0  0  0  0  0  0  0  0  0
  131.7556  135.5685  161.1870 H   0  0  0  0  0  0  0  0  0  0  0  0
  130.7571  135.9581  163.4021 H   0  0  0  0  0  0  0  0  0  0  0  0
  127.2097  136.0240  164.0613 H   0  0  0  0  0  0  0  0  0  0  0  0
  129.9707  137.9393  164.1811 H   0  0  0  0  0  0  0  0  0  0  0  0
  128.6752  138.3523  165.3335 H   0  0  0  0  0  0  0  0  0  0  0  0
  130.7676  138.8979  166.4137 H   0  0  0  0  0  0  0  0  0  0  0  0
  131.4756  137.3289  165.9637 H   0  0  0  0  0  0  0  0  0  0  0  0
  128.7607  136.0188  168.4341 H   0  0  0  0  0  0  0  0  0  0  0  0
  127.3074  136.5101  166.3703 H   0  0  0  0  0  0  0  0  0  0  0  0
  128.0410  134.8940  166.4785 H   0  0  0  0  0  0  0  0  0  0  0  0
  126.0852  135.4503  160.9081 H   0  0  0  0  0  0  0  0  0  0  0  0
  127.8505  135.2185  159.4816 H   0  0  0  0  0  0  0  0  0  0  0  0
  131.4205  130.0378  156.4484 H   0  0  0  0  0  0  0  0  0  0  0  0
  131.9103  128.8468  154.3522 H   0  0  0  0  0  0  0  0  0  0  0  0
  1  2  1  0
  1 33  1  0
  1 34  1  0
  1 35  1  0
  2  3  1  0
  2 36  1  0
  2 37  1  0
  3 32  2  0
  3  4  1  0
  4  5  2  0
  4 38  1  0
  5  6  1  0
  5 39  1  0
  6  7  1  0
  6 31  2  0
  7 29  1  0
  7  8  2  0
  8  9  1  0
  8 40  1  0
  9 10  1  0
  9 11  1  0
 11 12  1  0
 11 29  2  0
 12 13  1  0
 12 41  1  0
 13 28  1  0
 13 14  2  0
 14 15  1  0
 14 42  1  0
 15 16  2  0
 15 43  1  0
 16 17  1  0
 16 26  1  0
 17 18  1  0
 17 44  1  0
 18 19  1  6
 18 25  1  0
 18 20  1  0
 20 21  1  0
 20 45  1  0
 20 46  1  0
 21 22  1  0
 21 47  1  0
 21 48  1  0
 22 23  2  0
 22 24  1  0
 24 25  1  0
 24 49  1  0
 25 50  1  0
 25 51  1  0
 26 27  1  0
 26 28  2  0
 27 52  1  0
 28 53  1  0
 29 30  1  0
 31 32  1  0
 31 54  1  0
 32 55  1  0
M  CHG  1  29   1
M  END
>  <DOCK_score>  (1) 
-52.527138

>  <SMILES>  (1) 
CCc1ccc(-c2c[nH]c(Nc3ccc(N[C@H]4CCC(=O)NC4)c(O)c3)[nH+]2)cc1

$$$$
