C=C(c1ccccc1)C(C)(O)[C@H](Nc1[nH]cc(C(C)(C)C)[nH+]1)c1ccccc1
     RDKit          3D

 58 60  0  0  1  0  0  0  0  0999 V2000
  131.8682  135.7839  162.2154 C   0  0  0  0  0  0  0  0  0  0  0  0
  131.4033  136.7124  161.3911 C   0  0  0  0  0  0  0  0  0  0  0  0
  132.3277  137.6964  160.7896 C   0  0  0  0  0  0  0  0  0  0  0  0
  132.1448  139.0607  161.0186 C   0  0  0  0  0  0  0  0  0  0  0  0
  133.0143  139.9738  160.4585 C   0  0  0  0  0  0  0  0  0  0  0  0
  134.0595  139.5401  159.6627 C   0  0  0  0  0  0  0  0  0  0  0  0
  134.2431  138.1893  159.4272 C   0  0  0  0  0  0  0  0  0  0  0  0
  133.3837  137.2655  159.9856 C   0  0  0  0  0  0  0  0  0  0  0  0
  129.9324  136.7643  161.0673 C   0  0  1  0  0  0  0  0  0  0  0  0
  129.1341  136.9798  162.3546 C   0  0  0  0  0  0  0  0  0  0  0  0
  129.6812  137.8434  160.1648 O   0  0  0  0  0  0  0  0  0  0  0  0
  129.5065  135.4462  160.4175 C   0  0  2  0  0  0  0  0  0  0  0  0
  129.6981  134.6232  161.1058 H   0  0  0  0  0  0  0  0  0  0  0  0
  130.2707  135.2400  159.1849 N   0  0  0  0  0  0  0  0  0  0  0  0
  130.5567  133.9552  158.7541 C   0  0  0  0  0  0  0  0  0  0  0  0
  131.2592  133.6291  157.6358 N   0  0  0  0  0  0  0  0  0  0  0  0
  131.6487  134.2477  156.9982 H   0  0  0  0  0  0  0  0  0  0  0  0
  131.3122  132.2546  157.5801 C   0  0  0  0  0  0  0  0  0  0  0  0
  130.6483  131.7931  158.6534 C   0  0  0  0  0  0  0  0  0  0  0  0
  130.4454  130.3428  159.0092 C   0  0  0  0  0  0  0  0  0  0  0  0
  131.1157  129.4603  157.9544 C   0  0  0  0  0  0  0  0  0  0  0  0
  131.0669  130.0620  160.3788 C   0  0  0  0  0  0  0  0  0  0  0  0
  128.9476  130.0338  159.0557 C   0  0  0  0  0  0  0  0  0  0  0  0
  130.2009  132.8463  159.3583 N   0  0  0  0  0  0  0  0  0  0  0  0
  129.6927  132.7947  160.1828 H   0  0  0  0  0  0  0  0  0  0  0  0
  128.0356  135.4981  160.0938 C   0  0  0  0  0  0  0  0  0  0  0  0
  127.1074  135.0718  161.0254 C   0  0  0  0  0  0  0  0  0  0  0  0
  125.7581  135.1203  160.7287 C   0  0  0  0  0  0  0  0  0  0  0  0
  125.3369  135.5953  159.5008 C   0  0  0  0  0  0  0  0  0  0  0  0
  126.2651  136.0220  158.5694 C   0  0  0  0  0  0  0  0  0  0  0  0
  127.6145  135.9723  158.8655 C   0  0  0  0  0  0  0  0  0  0  0  0
  132.9222  135.7467  162.4473 H   0  0  0  0  0  0  0  0  0  0  0  0
  131.1928  135.0648  162.6548 H   0  0  0  0  0  0  0  0  0  0  0  0
  131.3266  139.4007  161.6362 H   0  0  0  0  0  0  0  0  0  0  0  0
  132.8762  141.0297  160.6383 H   0  0  0  0  0  0  0  0  0  0  0  0
  134.7350  140.2591  159.2232 H   0  0  0  0  0  0  0  0  0  0  0  0
  135.0606  137.8571  158.8044 H   0  0  0  0  0  0  0  0  0  0  0  0
  133.5278  136.2114  159.8006 H   0  0  0  0  0  0  0  0  0  0  0  0
  129.3257  136.1567  163.0430 H   0  0  0  0  0  0  0  0  0  0  0  0
  129.4376  137.9188  162.8175 H   0  0  0  0  0  0  0  0  0  0  0  0
  128.0703  137.0172  162.1204 H   0  0  0  0  0  0  0  0  0  0  0  0
  130.1557  137.7725  159.3252 H   0  0  0  0  0  0  0  0  0  0  0  0
  130.5766  136.0034  158.6705 H   0  0  0  0  0  0  0  0  0  0  0  0
  131.7954  131.6602  156.8187 H   0  0  0  0  0  0  0  0  0  0  0  0
  132.1827  129.6805  157.9213 H   0  0  0  0  0  0  0  0  0  0  0  0
  130.9689  128.4113  158.2117 H   0  0  0  0  0  0  0  0  0  0  0  0
  130.6729  129.6604  156.9786 H   0  0  0  0  0  0  0  0  0  0  0  0
  130.5893  130.6908  161.1303 H   0  0  0  0  0  0  0  0  0  0  0  0
  130.9201  129.0130  160.6361 H   0  0  0  0  0  0  0  0  0  0  0  0
  132.1339  130.2822  160.3457 H   0  0  0  0  0  0  0  0  0  0  0  0
  128.5049  130.2339  158.0799 H   0  0  0  0  0  0  0  0  0  0  0  0
  128.8009  128.9849  159.3130 H   0  0  0  0  0  0  0  0  0  0  0  0
  128.4701  130.6625  159.8072 H   0  0  0  0  0  0  0  0  0  0  0  0
  127.4363  134.7014  161.9850 H   0  0  0  0  0  0  0  0  0  0  0  0
  125.0329  134.7873  161.4564 H   0  0  0  0  0  0  0  0  0  0  0  0
  124.2830  135.6290  159.2673 H   0  0  0  0  0  0  0  0  0  0  0  0
  125.9361  136.3928  157.6100 H   0  0  0  0  0  0  0  0  0  0  0  0
  128.3396  136.3056  158.1379 H   0  0  0  0  0  0  0  0  0  0  0  0
  1  2  2  0
  1 32  1  0
  1 33  1  0
  2  3  1  0
  3  8  1  0
  3  4  2  0
  4  5  1  0
  4 34  1  0
  5  6  2  0
  5 35  1  0
  6  7  1  0
  6 36  1  0
  7  8  2  0
  7 37  1  0
  8 38  1  0
  9  2  1  0
  9 10  1  0
  9 11  1  6
  9 12  1  0
 10 39  1  0
 10 40  1  0
 10 41  1  0
 11 42  1  0
 12 13  1  1
 12 14  1  0
 12 26  1  0
 14 43  1  0
 15 14  1  0
 15 24  2  0
 15 16  1  0
 16 17  1  0
 16 18  1  0
 18 19  2  0
 18 44  1  0
 19 20  1  0
 19 24  1  0
 20 21  1  0
 20 22  1  0
 20 23  1  0
 21 45  1  0
 21 46  1  0
 21 47  1  0
 22 48  1  0
 22 49  1  0
 22 50  1  0
 23 51  1  0
 23 52  1  0
 23 53  1  0
 24 25  1  0
 26 31  1  0
 26 27  2  0
 27 28  1  0
 27 54  1  0
 28 29  2  0
 28 55  1  0
 29 30  1  0
 29 56  1  0
 30 31  2  0
 30 57  1  0
 31 58  1  0
M  CHG  1  24   1
M  END
>  <DOCK_score>  (1) 
-56.135273

>  <SMILES>  (1) 
C=C(c1ccccc1)C(C)(O)[C@H](Nc1[nH]cc(C(C)(C)C)[nH+]1)c1ccccc1

$$$$
