Cc1ccc([C@H](Nc2[nH]cc(-c3ccc(Br)cc3)[nH+]2)c2ccccc2)cc1
     RDKit          3D

 48 51  0  0  1  0  0  0  0  0999 V2000
  131.7909  140.6630  161.9832 C   0  0  0  0  0  0  0  0  0  0  0  0
  131.3384  139.3010  161.5234 C   0  0  0  0  0  0  0  0  0  0  0  0
  131.7245  138.1722  162.2217 C   0  0  0  0  0  0  0  0  0  0  0  0
  131.3095  136.9230  161.8000 C   0  0  0  0  0  0  0  0  0  0  0  0
  130.5085  136.8024  160.6800 C   0  0  0  0  0  0  0  0  0  0  0  0
  130.0564  135.4404  160.2200 C   0  0  2  0  0  0  0  0  0  0  0  0
  130.4571  134.6793  160.8894 H   0  0  0  0  0  0  0  0  0  0  0  0
  130.5421  135.1985  158.8591 N   0  0  0  0  0  0  0  0  0  0  0  0
  130.2496  134.0049  158.2217 C   0  0  0  0  0  0  0  0  0  0  0  0
  129.5186  132.9841  158.7470 N   0  0  0  0  0  0  0  0  0  0  0  0
  129.1127  132.9620  159.6277 H   0  0  0  0  0  0  0  0  0  0  0  0
  129.4618  131.9908  157.7996 C   0  0  0  0  0  0  0  0  0  0  0  0
  130.1590  132.4328  156.7237 C   0  0  0  0  0  0  0  0  0  0  0  0
  130.3686  131.6929  155.4553 C   0  0  0  0  0  0  0  0  0  0  0  0
  129.9126  132.2263  154.2510 C   0  0  0  0  0  0  0  0  0  0  0  0
  130.1157  131.5367  153.0730 C   0  0  0  0  0  0  0  0  0  0  0  0
  130.7601  130.3117  153.0877 C   0  0  0  0  0  0  0  0  0  0  0  0
  131.0274  129.3684  151.4708 Br  0  0  0  0  0  0  0  0  0  0  0  0
  131.2097  129.7749  154.2816 C   0  0  0  0  0  0  0  0  0  0  0  0
  131.0173  130.4592  155.4644 C   0  0  0  0  0  0  0  0  0  0  0  0
  130.6261  133.6738  157.0107 N   0  0  0  0  0  0  0  0  0  0  0  0
  131.1559  134.2270  156.4156 H   0  0  0  0  0  0  0  0  0  0  0  0
  128.5506  135.3795  160.2342 C   0  0  0  0  0  0  0  0  0  0  0  0
  127.8866  134.9603  161.3718 C   0  0  0  0  0  0  0  0  0  0  0  0
  126.5055  134.9050  161.3849 C   0  0  0  0  0  0  0  0  0  0  0  0
  125.7882  135.2692  160.2607 C   0  0  0  0  0  0  0  0  0  0  0  0
  126.4524  135.6889  159.1233 C   0  0  0  0  0  0  0  0  0  0  0  0
  127.8336  135.7425  159.1094 C   0  0  0  0  0  0  0  0  0  0  0  0
  130.1267  137.9308  159.9785 C   0  0  0  0  0  0  0  0  0  0  0  0
  130.5370  139.1806  160.4036 C   0  0  0  0  0  0  0  0  0  0  0  0
  132.7374  140.9126  161.5036 H   0  0  0  0  0  0  0  0  0  0  0  0
  131.0399  141.4057  161.7133 H   0  0  0  0  0  0  0  0  0  0  0  0
  131.9226  140.6561  163.0652 H   0  0  0  0  0  0  0  0  0  0  0  0
  132.3508  138.2665  163.0966 H   0  0  0  0  0  0  0  0  0  0  0  0
  131.6114  136.0411  162.3455 H   0  0  0  0  0  0  0  0  0  0  0  0
  131.0685  135.8746  158.4048 H   0  0  0  0  0  0  0  0  0  0  0  0
  128.9579  131.0402  157.8934 H   0  0  0  0  0  0  0  0  0  0  0  0
  129.4051  133.1795  154.2392 H   0  0  0  0  0  0  0  0  0  0  0  0
  129.7670  131.9513  152.1388 H   0  0  0  0  0  0  0  0  0  0  0  0
  131.7119  128.8189  154.2876 H   0  0  0  0  0  0  0  0  0  0  0  0
  131.3689  130.0398  156.3954 H   0  0  0  0  0  0  0  0  0  0  0  0
  128.4469  134.6764  162.2504 H   0  0  0  0  0  0  0  0  0  0  0  0
  125.9865  134.5774  162.2737 H   0  0  0  0  0  0  0  0  0  0  0  0
  124.7093  135.2216  160.2695 H   0  0  0  0  0  0  0  0  0  0  0  0
  125.8921  135.9731  158.2448 H   0  0  0  0  0  0  0  0  0  0  0  0
  128.3524  136.0697  158.2206 H   0  0  0  0  0  0  0  0  0  0  0  0
  129.5043  137.8362  159.1010 H   0  0  0  0  0  0  0  0  0  0  0  0
  130.2350  140.0624  159.8581 H   0  0  0  0  0  0  0  0  0  0  0  0
  1  2  1  0
  1 31  1  0
  1 32  1  0
  1 33  1  0
  2 30  2  0
  2  3  1  0
  3  4  2  0
  3 34  1  0
  4  5  1  0
  4 35  1  0
  5  6  1  0
  5 29  2  0
  6  7  1  1
  6  8  1  0
  6 23  1  0
  8 36  1  0
  9  8  1  0
  9 21  2  0
  9 10  1  0
 10 11  1  0
 10 12  1  0
 12 13  2  0
 12 37  1  0
 13 14  1  0
 13 21  1  0
 14 20  1  0
 14 15  2  0
 15 16  1  0
 15 38  1  0
 16 17  2  0
 16 39  1  0
 17 18  1  0
 17 19  1  0
 19 20  2  0
 19 40  1  0
 20 41  1  0
 21 22  1  0
 23 28  1  0
 23 24  2  0
 24 25  1  0
 24 42  1  0
 25 26  2  0
 25 43  1  0
 26 27  1  0
 26 44  1  0
 27 28  2  0
 27 45  1  0
 28 46  1  0
 29 30  1  0
 29 47  1  0
 30 48  1  0
M  CHG  1  21   1
M  END
>  <DOCK_score>  (1) 
-59.055408

>  <SMILES>  (1) 
Cc1ccc([C@H](Nc2[nH]cc(-c3ccc(Br)cc3)[nH+]2)c2ccccc2)cc1

$$$$
