CCc1ccc(-c2c[nH]c(Nc3ccccc3-c3ccc(C)[nH]3)[nH+]2)cc1
     RDKit          3D

 49 52  0  0  1  0  0  0  0  0999 V2000
  136.2984  141.6537  162.0311 C   0  0  0  0  0  0  0  0  0  0  0  0
  137.0405  140.5164  161.3261 C   0  0  0  0  0  0  0  0  0  0  0  0
  136.1152  139.3382  161.1626 C   0  0  0  0  0  0  0  0  0  0  0  0
  135.3365  139.2264  160.0248 C   0  0  0  0  0  0  0  0  0  0  0  0
  134.4916  138.1466  159.8672 C   0  0  0  0  0  0  0  0  0  0  0  0
  134.4158  137.1735  160.8620 C   0  0  0  0  0  0  0  0  0  0  0  0
  133.5057  136.0132  160.7007 C   0  0  0  0  0  0  0  0  0  0  0  0
  133.3331  135.0043  161.5906 C   0  0  0  0  0  0  0  0  0  0  0  0
  132.4069  134.1480  161.0479 N   0  0  0  0  0  0  0  0  0  0  0  0
  132.0758  133.3300  161.4502 H   0  0  0  0  0  0  0  0  0  0  0  0
  132.0400  134.6589  159.8406 C   0  0  0  0  0  0  0  0  0  0  0  0
  131.1215  134.0942  158.9711 N   0  0  0  0  0  0  0  0  0  0  0  0
  130.0641  133.3316  159.4710 C   0  0  0  0  0  0  0  0  0  0  0  0
  129.5430  133.6027  160.7275 C   0  0  0  0  0  0  0  0  0  0  0  0
  128.4926  132.8518  161.2181 C   0  0  0  0  0  0  0  0  0  0  0  0
  127.9615  131.8163  160.4669 C   0  0  0  0  0  0  0  0  0  0  0  0
  128.4721  131.5301  159.2175 C   0  0  0  0  0  0  0  0  0  0  0  0
  129.5284  132.2851  158.7077 C   0  0  0  0  0  0  0  0  0  0  0  0
  130.0795  131.9836  157.3698 C   0  0  0  0  0  0  0  0  0  0  0  0
  130.6442  130.8058  156.9817 C   0  0  0  0  0  0  0  0  0  0  0  0
  131.0295  130.9488  155.6385 C   0  0  0  0  0  0  0  0  0  0  0  0
  130.7011  132.1989  155.2481 C   0  0  0  0  0  0  0  0  0  0  0  0
  130.9377  132.7851  153.8801 C   0  0  0  0  0  0  0  0  0  0  0  0
  130.1184  132.8417  156.3009 N   0  0  0  0  0  0  0  0  0  0  0  0
  129.7870  133.7533  156.2943 H   0  0  0  0  0  0  0  0  0  0  0  0
  132.6945  135.7766  159.6397 N   0  0  0  0  0  0  0  0  0  0  0  0
  132.6135  136.3429  158.8563 H   0  0  0  0  0  0  0  0  0  0  0  0
  135.1985  137.2943  162.0088 C   0  0  0  0  0  0  0  0  0  0  0  0
  136.0437  138.3756  162.1534 C   0  0  0  0  0  0  0  0  0  0  0  0
  135.4355  141.9494  161.4344 H   0  0  0  0  0  0  0  0  0  0  0  0
  135.9636  141.3158  163.0118 H   0  0  0  0  0  0  0  0  0  0  0  0
  136.9676  142.5058  162.1493 H   0  0  0  0  0  0  0  0  0  0  0  0
  137.3754  140.8543  160.3454 H   0  0  0  0  0  0  0  0  0  0  0  0
  137.9035  140.2208  161.9228 H   0  0  0  0  0  0  0  0  0  0  0  0
  135.3928  139.9834  159.2567 H   0  0  0  0  0  0  0  0  0  0  0  0
  133.8875  138.0578  158.9763 H   0  0  0  0  0  0  0  0  0  0  0  0
  133.8295  134.8952  162.5436 H   0  0  0  0  0  0  0  0  0  0  0  0
  131.2128  134.2285  158.0148 H   0  0  0  0  0  0  0  0  0  0  0  0
  129.9554  134.4051  161.3211 H   0  0  0  0  0  0  0  0  0  0  0  0
  128.0865  133.0684  162.1950 H   0  0  0  0  0  0  0  0  0  0  0  0
  127.1437  131.2310  160.8605 H   0  0  0  0  0  0  0  0  0  0  0  0
  128.0548  130.7221  158.6350 H   0  0  0  0  0  0  0  0  0  0  0  0
  130.7704  129.9246  157.5933 H   0  0  0  0  0  0  0  0  0  0  0  0
  131.5069  130.1956  155.0290 H   0  0  0  0  0  0  0  0  0  0  0  0
  131.9165  133.2639  153.8542 H   0  0  0  0  0  0  0  0  0  0  0  0
  130.9017  131.9916  153.1335 H   0  0  0  0  0  0  0  0  0  0  0  0
  130.1661  133.5237  153.6628 H   0  0  0  0  0  0  0  0  0  0  0  0
  135.1435  136.5432  162.7831 H   0  0  0  0  0  0  0  0  0  0  0  0
  136.6507  138.4702  163.0417 H   0  0  0  0  0  0  0  0  0  0  0  0
  1  2  1  0
  1 30  1  0
  1 31  1  0
  1 32  1  0
  2  3  1  0
  2 33  1  0
  2 34  1  0
  3 29  2  0
  3  4  1  0
  4  5  2  0
  4 35  1  0
  5  6  1  0
  5 36  1  0
  6  7  1  0
  6 28  2  0
  7 26  1  0
  7  8  2  0
  8  9  1  0
  8 37  1  0
  9 10  1  0
  9 11  1  0
 11 12  1  0
 11 26  2  0
 12 13  1  0
 12 38  1  0
 13 18  1  0
 13 14  2  0
 14 15  1  0
 14 39  1  0
 15 16  2  0
 15 40  1  0
 16 17  1  0
 16 41  1  0
 17 18  2  0
 17 42  1  0
 18 19  1  0
 19 24  1  0
 19 20  2  0
 20 21  1  0
 20 43  1  0
 21 22  2  0
 21 44  1  0
 22 23  1  0
 22 24  1  0
 23 45  1  0
 23 46  1  0
 23 47  1  0
 24 25  1  0
 26 27  1  0
 28 29  1  0
 28 48  1  0
 29 49  1  0
M  CHG  1  26   1
M  END
>  <DOCK_score>  (1) 
-60.20652

>  <SMILES>  (1) 
CCc1ccc(-c2c[nH]c(Nc3ccccc3-c3ccc(C)[nH]3)[nH+]2)cc1

$$$$
