CCc1ccc(-c2c[nH]c(N[C@H](c3ccccc3)c3cccc4c3CC=C4)[nH+]2)cc1
     RDKit          3D

 56 60  0  0  1  0  0  0  0  0999 V2000
  130.6497  128.2570  151.9349 C   0  0  0  0  0  0  0  0  0  0  0  0
  131.6830  129.3447  152.2371 C   0  0  0  0  0  0  0  0  0  0  0  0
  131.2523  130.1222  153.4541 C   0  0  0  0  0  0  0  0  0  0  0  0
  131.6571  129.7115  154.7118 C   0  0  0  0  0  0  0  0  0  0  0  0
  131.2659  130.4188  155.8305 C   0  0  0  0  0  0  0  0  0  0  0  0
  130.4617  131.5486  155.6914 C   0  0  0  0  0  0  0  0  0  0  0  0
  130.0380  132.3130  156.8899 C   0  0  0  0  0  0  0  0  0  0  0  0
  129.3053  131.8326  157.9249 C   0  0  0  0  0  0  0  0  0  0  0  0
  129.1425  132.8682  158.8127 N   0  0  0  0  0  0  0  0  0  0  0  0
  128.6616  132.8332  159.6543 H   0  0  0  0  0  0  0  0  0  0  0  0
  129.7811  133.9521  158.2936 C   0  0  0  0  0  0  0  0  0  0  0  0
  129.8540  135.2032  158.8819 N   0  0  0  0  0  0  0  0  0  0  0  0
  128.7667  135.6714  159.7449 C   0  0  2  0  0  0  0  0  0  0  0  0
  128.6532  134.9902  160.5883 H   0  0  0  0  0  0  0  0  0  0  0  0
  127.4827  135.7138  158.9570 C   0  0  0  0  0  0  0  0  0  0  0  0
  126.2739  135.5037  159.5938 C   0  0  0  0  0  0  0  0  0  0  0  0
  125.0958  135.5465  158.8717 C   0  0  0  0  0  0  0  0  0  0  0  0
  125.1274  135.7908  157.5114 C   0  0  0  0  0  0  0  0  0  0  0  0
  126.3367  135.9961  156.8739 C   0  0  0  0  0  0  0  0  0  0  0  0
  127.5143  135.9571  157.5967 C   0  0  0  0  0  0  0  0  0  0  0  0
  129.0891  137.0524  160.2547 C   0  0  0  0  0  0  0  0  0  0  0  0
  129.8589  137.9118  159.4884 C   0  0  0  0  0  0  0  0  0  0  0  0
  130.1554  139.1801  159.9544 C   0  0  0  0  0  0  0  0  0  0  0  0
  129.6883  139.5985  161.1831 C   0  0  0  0  0  0  0  0  0  0  0  0
  128.9113  138.7381  161.9624 C   0  0  0  0  0  0  0  0  0  0  0  0
  128.6145  137.4622  161.4784 C   0  0  0  0  0  0  0  0  0  0  0  0
  127.7665  136.7955  162.5342 C   0  0  0  0  0  0  0  0  0  0  0  0
  127.6187  137.8176  163.6369 C   0  0  0  0  0  0  0  0  0  0  0  0
  128.2852  138.9039  163.2871 C   0  0  0  0  0  0  0  0  0  0  0  0
  130.3109  133.6178  157.1423 N   0  0  0  0  0  0  0  0  0  0  0  0
  130.8184  134.2085  156.5641 H   0  0  0  0  0  0  0  0  0  0  0  0
  130.0524  131.9541  154.4223 C   0  0  0  0  0  0  0  0  0  0  0  0
  130.4543  131.2426  153.3103 C   0  0  0  0  0  0  0  0  0  0  0  0
  130.5728  127.5824  152.7878 H   0  0  0  0  0  0  0  0  0  0  0  0
  129.6801  128.7183  151.7478 H   0  0  0  0  0  0  0  0  0  0  0  0
  130.9608  127.6951  151.0541 H   0  0  0  0  0  0  0  0  0  0  0  0
  131.7593  130.0195  151.3840 H   0  0  0  0  0  0  0  0  0  0  0  0
  132.6520  128.8837  152.4239 H   0  0  0  0  0  0  0  0  0  0  0  0
  132.2803  128.8360  154.8185 H   0  0  0  0  0  0  0  0  0  0  0  0
  131.5827  130.0977  156.8118 H   0  0  0  0  0  0  0  0  0  0  0  0
  128.9225  130.8283  158.0307 H   0  0  0  0  0  0  0  0  0  0  0  0
  130.6250  135.7699  158.7228 H   0  0  0  0  0  0  0  0  0  0  0  0
  126.2496  135.3092  160.6559 H   0  0  0  0  0  0  0  0  0  0  0  0
  124.1512  135.3856  159.3697 H   0  0  0  0  0  0  0  0  0  0  0  0
  124.2073  135.8207  156.9467 H   0  0  0  0  0  0  0  0  0  0  0  0
  126.3614  136.1865  155.8111 H   0  0  0  0  0  0  0  0  0  0  0  0
  128.4592  136.1173  157.0986 H   0  0  0  0  0  0  0  0  0  0  0  0
  130.2278  137.5914  158.5252 H   0  0  0  0  0  0  0  0  0  0  0  0
  130.7563  139.8462  159.3530 H   0  0  0  0  0  0  0  0  0  0  0  0
  129.9232  140.5896  161.5420 H   0  0  0  0  0  0  0  0  0  0  0  0
  126.7896  136.5373  162.1256 H   0  0  0  0  0  0  0  0  0  0  0  0
  128.2662  135.9032  162.9113 H   0  0  0  0  0  0  0  0  0  0  0  0
  127.0703  137.6808  164.5571 H   0  0  0  0  0  0  0  0  0  0  0  0
  128.3523  139.7996  163.8871 H   0  0  0  0  0  0  0  0  0  0  0  0
  129.4251  132.8261  154.3091 H   0  0  0  0  0  0  0  0  0  0  0  0
  130.1414  131.5585  152.3261 H   0  0  0  0  0  0  0  0  0  0  0  0
  1  2  1  0
  1 34  1  0
  1 35  1  0
  1 36  1  0
  2  3  1  0
  2 37  1  0
  2 38  1  0
  3 33  2  0
  3  4  1  0
  4  5  2  0
  4 39  1  0
  5  6  1  0
  5 40  1  0
  6  7  1  0
  6 32  2  0
  7 30  1  0
  7  8  2  0
  8  9  1  0
  8 41  1  0
  9 10  1  0
  9 11  1  0
 11 12  1  0
 11 30  2  0
 12 13  1  0
 12 42  1  0
 13 14  1  1
 13 15  1  0
 13 21  1  0
 15 20  1  0
 15 16  2  0
 16 17  1  0
 16 43  1  0
 17 18  2  0
 17 44  1  0
 18 19  1  0
 18 45  1  0
 19 20  2  0
 19 46  1  0
 20 47  1  0
 21 26  1  0
 21 22  2  0
 22 23  1  0
 22 48  1  0
 23 24  2  0
 23 49  1  0
 24 25  1  0
 24 50  1  0
 25 29  1  0
 25 26  2  0
 26 27  1  0
 27 28  1  0
 27 51  1  0
 27 52  1  0
 28 29  2  0
 28 53  1  0
 29 54  1  0
 30 31  1  0
 32 33  1  0
 32 55  1  0
 33 56  1  0
M  CHG  1  30   1
M  END
>  <DOCK_score>  (1) 
-62.928978

>  <SMILES>  (1) 
CCc1ccc(-c2c[nH]c(N[C@H](c3ccccc3)c3cccc4c3CC=C4)[nH+]2)cc1

$$$$
