CC1(C)C(O)CC1[NH2+]Cc1c[nH]nc1-c1ccc(N[C@H]2CC(O)C2(C)C)o1
     RDKit          3D

 58 61  0  0  1  0  0  0  0  0999 V2000
  133.6162  137.9857  162.2690 C   0  0  0  0  0  0  0  0  0  0  0  0
  133.1074  138.3379  160.8696 C   0  0  0  0  0  0  0  0  0  0  0  0
  133.9899  137.7722  159.7551 C   0  0  0  0  0  0  0  0  0  0  0  0
  132.7720  139.8283  160.6932 C   0  0  2  0  0  0  0  0  0  0  0  0
  132.4358  140.4880  161.9155 O   0  0  0  0  0  0  0  0  0  0  0  0
  131.5448  139.3760  159.8811 C   0  0  0  0  0  0  0  0  0  0  0  0
  131.6084  138.0579  160.6707 C   0  0  1  0  0  0  0  0  0  0  0  0
  131.3356  136.8684  159.8530 N   0  0  0  0  0  0  0  0  0  0  0  0
  131.9914  136.8289  159.0873 H   0  0  0  0  0  0  0  0  0  0  0  0
  130.3960  136.9188  159.4888 H   0  0  0  0  0  0  0  0  0  0  0  0
  131.4759  135.6627  160.6804 C   0  0  0  0  0  0  0  0  0  0  0  0
  131.1960  134.4424  159.8416 C   0  0  0  0  0  0  0  0  0  0  0  0
  132.1054  133.7370  159.1356 C   0  0  0  0  0  0  0  0  0  0  0  0
  131.4608  132.7237  158.5177 N   0  0  0  0  0  0  0  0  0  0  0  0
  131.8674  132.0593  157.9397 H   0  0  0  0  0  0  0  0  0  0  0  0
  130.1035  132.7982  158.8554 N   0  0  0  0  0  0  0  0  0  0  0  0
  129.9376  133.8318  159.6570 C   0  0  0  0  0  0  0  0  0  0  0  0
  128.6597  134.2756  160.2512 C   0  0  0  0  0  0  0  0  0  0  0  0
  127.4489  133.6866  160.0667 C   0  0  0  0  0  0  0  0  0  0  0  0
  126.5146  134.4314  160.8135 C   0  0  0  0  0  0  0  0  0  0  0  0
  127.1996  135.4356  161.4154 C   0  0  0  0  0  0  0  0  0  0  0  0
  126.6537  136.4058  162.2479 N   0  0  0  0  0  0  0  0  0  0  0  0
  127.5138  137.4370  162.8333 C   0  0  1  0  0  0  0  0  0  0  0  0
  128.2663  137.8074  162.1371 H   0  0  0  0  0  0  0  0  0  0  0  0
  126.7369  138.5542  163.5534 C   0  0  0  0  0  0  0  0  0  0  0  0
  127.8314  138.5125  164.6330 C   0  0  1  0  0  0  0  0  0  0  0  0
  127.3296  138.6434  165.9646 O   0  0  0  0  0  0  0  0  0  0  0  0
  128.0831  137.0557  164.2101 C   0  0  0  0  0  0  0  0  0  0  0  0
  129.5646  136.6746  164.1765 C   0  0  0  0  0  0  0  0  0  0  0  0
  127.2254  136.0404  164.9681 C   0  0  0  0  0  0  0  0  0  0  0  0
  128.4938  135.3382  161.0668 O   0  0  0  0  0  0  0  0  0  0  0  0
  133.5576  136.9072  162.4160 H   0  0  0  0  0  0  0  0  0  0  0  0
  134.6514  138.3108  162.3716 H   0  0  0  0  0  0  0  0  0  0  0  0
  133.0017  138.4881  163.0161 H   0  0  0  0  0  0  0  0  0  0  0  0
  133.7000  138.2148  158.8022 H   0  0  0  0  0  0  0  0  0  0  0  0
  135.0335  138.0082  159.9630 H   0  0  0  0  0  0  0  0  0  0  0  0
  133.8647  136.6905  159.7065 H   0  0  0  0  0  0  0  0  0  0  0  0
  133.5097  140.3753  160.1060 H   0  0  0  0  0  0  0  0  0  0  0  0
  133.1394  140.4697  162.5788 H   0  0  0  0  0  0  0  0  0  0  0  0
  131.7456  139.2572  158.8162 H   0  0  0  0  0  0  0  0  0  0  0  0
  130.6477  139.9619  160.0809 H   0  0  0  0  0  0  0  0  0  0  0  0
  131.0342  138.0756  161.5969 H   0  0  0  0  0  0  0  0  0  0  0  0
  130.7674  135.7054  161.5077 H   0  0  0  0  0  0  0  0  0  0  0  0
  132.4910  135.6081  161.0739 H   0  0  0  0  0  0  0  0  0  0  0  0
  133.1626  133.9486  159.0725 H   0  0  0  0  0  0  0  0  0  0  0  0
  127.2424  132.8148  159.4637 H   0  0  0  0  0  0  0  0  0  0  0  0
  125.4548  134.2391  160.8921 H   0  0  0  0  0  0  0  0  0  0  0  0
  125.7032  136.4000  162.4411 H   0  0  0  0  0  0  0  0  0  0  0  0
  125.7568  138.2406  163.9129 H   0  0  0  0  0  0  0  0  0  0  0  0
  126.7046  139.4930  163.0004 H   0  0  0  0  0  0  0  0  0  0  0  0
  128.6708  139.1775  164.4297 H   0  0  0  0  0  0  0  0  0  0  0  0
  127.9187  138.2873  166.6437 H   0  0  0  0  0  0  0  0  0  0  0  0
  129.7005  135.8006  163.5395 H   0  0  0  0  0  0  0  0  0  0  0  0
  129.9034  136.4440  165.1865 H   0  0  0  0  0  0  0  0  0  0  0  0
  130.1450  137.5072  163.7797 H   0  0  0  0  0  0  0  0  0  0  0  0
  127.6744  135.8398  165.9409 H   0  0  0  0  0  0  0  0  0  0  0  0
  126.2226  136.4440  165.1070 H   0  0  0  0  0  0  0  0  0  0  0  0
  127.1684  135.1141  164.3963 H   0  0  0  0  0  0  0  0  0  0  0  0
  1  2  1  0
  1 32  1  0
  1 33  1  0
  1 34  1  0
  2  7  1  0
  2  3  1  0
  2  4  1  0
  3 35  1  0
  3 36  1  0
  3 37  1  0
  4  5  1  0
  4  6  1  0
  4 38  1  6
  5 39  1  0
  6  7  1  0
  6 40  1  0
  6 41  1  0
  7  8  1  0
  7 42  1  1
  8  9  1  0
  8 10  1  0
  8 11  1  0
 11 12  1  0
 11 43  1  0
 11 44  1  0
 12 17  1  0
 12 13  2  0
 13 14  1  0
 13 45  1  0
 14 15  1  0
 14 16  1  0
 16 17  2  0
 17 18  1  0
 18 31  1  0
 18 19  2  0
 19 20  1  0
 19 46  1  0
 20 21  2  0
 20 47  1  0
 21 22  1  0
 21 31  1  0
 22 23  1  0
 22 48  1  0
 23 24  1  6
 23 28  1  0
 23 25  1  0
 25 26  1  0
 25 49  1  0
 25 50  1  0
 26 27  1  0
 26 28  1  0
 26 51  1  6
 27 52  1  0
 28 29  1  0
 28 30  1  0
 29 53  1  0
 29 54  1  0
 29 55  1  0
 30 56  1  0
 30 57  1  0
 30 58  1  0
M  CHG  1   8   1
M  END
>  <DOCK_score>  (1) 
-41.303581

>  <SMILES>  (1) 
CC1(C)C(O)CC1[NH2+]Cc1c[nH]nc1-c1ccc(N[C@H]2CC(O)C2(C)C)o1

$$$$
