CCc1ccc([C@H](CCc2cccc3ccccc23)Nc2[nH]cc(-c3ccc(N)cc3)[nH+]2)cc1
     RDKit          3D

 65 69  0  0  1  0  0  0  0  0999 V2000
  127.2449  136.0044  165.6818 C   0  0  0  0  0  0  0  0  0  0  0  0
  126.8920  135.2045  164.4262 C   0  0  0  0  0  0  0  0  0  0  0  0
  128.0532  135.2383  163.4662 C   0  0  0  0  0  0  0  0  0  0  0  0
  129.0320  134.2643  163.5309 C   0  0  0  0  0  0  0  0  0  0  0  0
  130.0949  134.2929  162.6473 C   0  0  0  0  0  0  0  0  0  0  0  0
  130.1835  135.3005  161.7052 C   0  0  0  0  0  0  0  0  0  0  0  0
  131.3441  135.3337  160.7444 C   0  0  2  0  0  0  0  0  0  0  0  0
  132.0046  134.4898  160.9434 H   0  0  0  0  0  0  0  0  0  0  0  0
  132.1183  136.6410  160.9246 C   0  0  0  0  0  0  0  0  0  0  0  0
  133.5274  136.4825  160.3501 C   0  0  0  0  0  0  0  0  0  0  0  0
  134.2900  137.7702  160.5277 C   0  0  0  0  0  0  0  0  0  0  0  0
  134.2466  138.7296  159.5630 C   0  0  0  0  0  0  0  0  0  0  0  0
  134.9443  139.9267  159.7099 C   0  0  0  0  0  0  0  0  0  0  0  0
  135.6901  140.1713  160.8222 C   0  0  0  0  0  0  0  0  0  0  0  0
  135.7594  139.2044  161.8391 C   0  0  0  0  0  0  0  0  0  0  0  0
  136.5191  139.4208  163.0016 C   0  0  0  0  0  0  0  0  0  0  0  0
  136.5632  138.4611  163.9656 C   0  0  0  0  0  0  0  0  0  0  0  0
  135.8655  137.2635  163.8184 C   0  0  0  0  0  0  0  0  0  0  0  0
  135.1200  137.0189  162.7065 C   0  0  0  0  0  0  0  0  0  0  0  0
  135.0449  137.9890  161.6923 C   0  0  0  0  0  0  0  0  0  0  0  0
  130.8431  135.2483  159.3703 N   0  0  0  0  0  0  0  0  0  0  0  0
  130.6799  134.0121  158.7686 C   0  0  0  0  0  0  0  0  0  0  0  0
  130.3753  132.8520  159.4111 N   0  0  0  0  0  0  0  0  0  0  0  0
  130.2348  132.7429  160.3647 H   0  0  0  0  0  0  0  0  0  0  0  0
  130.3038  131.8628  158.4590 C   0  0  0  0  0  0  0  0  0  0  0  0
  130.5666  132.4474  157.2642 C   0  0  0  0  0  0  0  0  0  0  0  0
  130.6010  131.7651  155.9473 C   0  0  0  0  0  0  0  0  0  0  0  0
  130.2565  132.4627  154.7906 C   0  0  0  0  0  0  0  0  0  0  0  0
  130.2942  131.8279  153.5670 C   0  0  0  0  0  0  0  0  0  0  0  0
  130.6642  130.4905  153.4878 C   0  0  0  0  0  0  0  0  0  0  0  0
  130.6961  129.8481  152.2477 N   0  0  0  0  0  0  0  0  0  0  0  0
  131.0031  129.7917  154.6403 C   0  0  0  0  0  0  0  0  0  0  0  0
  130.9722  130.4241  155.8654 C   0  0  0  0  0  0  0  0  0  0  0  0
  130.7879  133.7674  157.4854 N   0  0  0  0  0  0  0  0  0  0  0  0
  130.9952  134.4249  156.8030 H   0  0  0  0  0  0  0  0  0  0  0  0
  129.2073  136.2774  161.6440 C   0  0  0  0  0  0  0  0  0  0  0  0
  128.1424  136.2464  162.5246 C   0  0  0  0  0  0  0  0  0  0  0  0
  128.1223  135.5660  166.1573 H   0  0  0  0  0  0  0  0  0  0  0  0
  126.4050  135.9800  166.3761 H   0  0  0  0  0  0  0  0  0  0  0  0
  127.4588  137.0372  165.4065 H   0  0  0  0  0  0  0  0  0  0  0  0
  126.6780  134.1718  164.7014 H   0  0  0  0  0  0  0  0  0  0  0  0
  126.0147  135.6429  163.9508 H   0  0  0  0  0  0  0  0  0  0  0  0
  128.9647  133.4792  164.2693 H   0  0  0  0  0  0  0  0  0  0  0  0
  130.8572  133.5295  162.6950 H   0  0  0  0  0  0  0  0  0  0  0  0
  131.6008  137.4448  160.4010 H   0  0  0  0  0  0  0  0  0  0  0  0
  132.1834  136.8813  161.9858 H   0  0  0  0  0  0  0  0  0  0  0  0
  134.0449  135.6786  160.8737 H   0  0  0  0  0  0  0  0  0  0  0  0
  133.4624  136.2421  159.2889 H   0  0  0  0  0  0  0  0  0  0  0  0
  133.6622  138.5605  158.6706 H   0  0  0  0  0  0  0  0  0  0  0  0
  134.8929  140.6716  158.9295 H   0  0  0  0  0  0  0  0  0  0  0  0
  136.2257  141.1037  160.9222 H   0  0  0  0  0  0  0  0  0  0  0  0
  137.0655  140.3437  163.1291 H   0  0  0  0  0  0  0  0  0  0  0  0
  137.1478  138.6300  164.8579 H   0  0  0  0  0  0  0  0  0  0  0  0
  135.9176  136.5184  164.5984 H   0  0  0  0  0  0  0  0  0  0  0  0
  134.5847  136.0862  162.6063 H   0  0  0  0  0  0  0  0  0  0  0  0
  130.6257  136.0578  158.8821 H   0  0  0  0  0  0  0  0  0  0  0  0
  130.0809  130.8199  158.6299 H   0  0  0  0  0  0  0  0  0  0  0  0
  129.9642  133.5005  154.8522 H   0  0  0  0  0  0  0  0  0  0  0  0
  130.0316  132.3692  152.6700 H   0  0  0  0  0  0  0  0  0  0  0  0
  130.9545  128.9147  152.1916 H   0  0  0  0  0  0  0  0  0  0  0  0
  130.4598  130.3350  151.4429 H   0  0  0  0  0  0  0  0  0  0  0  0
  131.2902  128.7526  154.5765 H   0  0  0  0  0  0  0  0  0  0  0  0
  131.2360  129.8807  156.7607 H   0  0  0  0  0  0  0  0  0  0  0  0
  129.2766  137.0647  160.9078 H   0  0  0  0  0  0  0  0  0  0  0  0
  127.3797  137.0098  162.4767 H   0  0  0  0  0  0  0  0  0  0  0  0
  1  2  1  0
  1 38  1  0
  1 39  1  0
  1 40  1  0
  2  3  1  0
  2 41  1  0
  2 42  1  0
  3 37  2  0
  3  4  1  0
  4  5  2  0
  4 43  1  0
  5  6  1  0
  5 44  1  0
  6  7  1  0
  6 36  2  0
  7  8  1  1
  7  9  1  0
  7 21  1  0
  9 10  1  0
  9 45  1  0
  9 46  1  0
 10 11  1  0
 10 47  1  0
 10 48  1  0
 11 20  1  0
 11 12  2  0
 12 13  1  0
 12 49  1  0
 13 14  2  0
 13 50  1  0
 14 15  1  0
 14 51  1  0
 15 20  2  0
 15 16  1  0
 16 17  2  0
 16 52  1  0
 17 18  1  0
 17 53  1  0
 18 19  2  0
 18 54  1  0
 19 20  1  0
 19 55  1  0
 21 56  1  0
 22 21  1  0
 22 34  2  0
 22 23  1  0
 23 24  1  0
 23 25  1  0
 25 26  2  0
 25 57  1  0
 26 27  1  0
 26 34  1  0
 27 33  1  0
 27 28  2  0
 28 29  1  0
 28 58  1  0
 29 30  2  0
 29 59  1  0
 30 31  1  0
 30 32  1  0
 31 60  1  0
 31 61  1  0
 32 33  2  0
 32 62  1  0
 33 63  1  0
 34 35  1  0
 36 37  1  0
 36 64  1  0
 37 65  1  0
M  CHG  1  34   1
M  END
>  <DOCK_score>  (1) 
-57.433941

>  <SMILES>  (1) 
CCc1ccc([C@H](CCc2cccc3ccccc23)Nc2[nH]cc(-c3ccc(N)cc3)[nH+]2)cc1

$$$$
