COc1cc2c3c([nH]c2cc1Nc1[nH]cc(-c2ccncc2)[nH+]1)C=CC1(CCOCC1)C3
     RDKit          3D

 58 63  0  0  1  0  0  0  0  0999 V2000
  131.9202  133.2344  161.9692 C   0  0  0  0  0  0  0  0  0  0  0  0
  131.2889  133.9081  160.8784 O   0  0  0  0  0  0  0  0  0  0  0  0
  130.2759  134.7635  161.1837 C   0  0  0  0  0  0  0  0  0  0  0  0
  129.9192  134.9385  162.5096 C   0  0  0  0  0  0  0  0  0  0  0  0
  128.8692  135.8299  162.7731 C   0  0  0  0  0  0  0  0  0  0  0  0
  128.2321  136.2516  163.9919 C   0  0  0  0  0  0  0  0  0  0  0  0
  127.2589  137.1558  163.6448 C   0  0  0  0  0  0  0  0  0  0  0  0
  127.2414  137.3131  162.2832 N   0  0  0  0  0  0  0  0  0  0  0  0
  126.6383  137.8943  161.7941 H   0  0  0  0  0  0  0  0  0  0  0  0
  128.2086  136.5214  161.7203 C   0  0  0  0  0  0  0  0  0  0  0  0
  128.5842  136.3290  160.3941 C   0  0  0  0  0  0  0  0  0  0  0  0
  129.6286  135.4445  160.1518 C   0  0  0  0  0  0  0  0  0  0  0  0
  130.0400  135.2259  158.8319 N   0  0  0  0  0  0  0  0  0  0  0  0
  129.9755  133.9539  158.2883 C   0  0  0  0  0  0  0  0  0  0  0  0
  129.5275  132.8392  158.9293 N   0  0  0  0  0  0  0  0  0  0  0  0
  129.1999  132.7936  159.8412 H   0  0  0  0  0  0  0  0  0  0  0  0
  129.6253  131.7924  158.0482 C   0  0  0  0  0  0  0  0  0  0  0  0
  130.1302  132.2952  156.8932 C   0  0  0  0  0  0  0  0  0  0  0  0
  130.4088  131.5280  155.6560 C   0  0  0  0  0  0  0  0  0  0  0  0
  129.7695  131.8470  154.4535 C   0  0  0  0  0  0  0  0  0  0  0  0
  130.0614  131.1103  153.3250 C   0  0  0  0  0  0  0  0  0  0  0  0
  130.9223  130.1110  153.3722 N   0  0  0  0  0  0  0  0  0  0  0  0
  131.5429  129.7742  154.4870 C   0  0  0  0  0  0  0  0  0  0  0  0
  131.3136  130.4615  155.6603 C   0  0  0  0  0  0  0  0  0  0  0  0
  130.3302  133.6255  157.0700 N   0  0  0  0  0  0  0  0  0  0  0  0
  130.6812  134.2354  156.4024 H   0  0  0  0  0  0  0  0  0  0  0  0
  126.4285  137.7929  164.6825 C   0  0  0  0  0  0  0  0  0  0  0  0
  126.8419  137.7026  165.9444 C   0  0  0  0  0  0  0  0  0  0  0  0
  128.1320  137.0385  166.3342 C   0  0  0  0  0  0  0  0  0  0  0  0
  129.2700  138.0645  166.2597 C   0  0  0  0  0  0  0  0  0  0  0  0
  128.9846  139.2010  167.2446 C   0  0  0  0  0  0  0  0  0  0  0  0
  128.8510  138.6665  168.5629 O   0  0  0  0  0  0  0  0  0  0  0  0
  127.7812  137.7301  168.7072 C   0  0  0  0  0  0  0  0  0  0  0  0
  128.0211  136.5363  167.7800 C   0  0  0  0  0  0  0  0  0  0  0  0
  128.4689  135.8539  165.4241 C   0  0  0  0  0  0  0  0  0  0  0  0
  132.3519  133.9691  162.6489 H   0  0  0  0  0  0  0  0  0  0  0  0
  131.1819  132.6356  162.5026 H   0  0  0  0  0  0  0  0  0  0  0  0
  132.7081  132.5848  161.5880 H   0  0  0  0  0  0  0  0  0  0  0  0
  130.4266  134.4129  163.3051 H   0  0  0  0  0  0  0  0  0  0  0  0
  128.0882  136.8486  159.5876 H   0  0  0  0  0  0  0  0  0  0  0  0
  130.3704  135.9652  158.2980 H   0  0  0  0  0  0  0  0  0  0  0  0
  129.3528  130.7647  158.2375 H   0  0  0  0  0  0  0  0  0  0  0  0
  129.0605  132.6605  154.4087 H   0  0  0  0  0  0  0  0  0  0  0  0
  129.5758  131.3514  152.3909 H   0  0  0  0  0  0  0  0  0  0  0  0
  132.2402  128.9495  154.4803 H   0  0  0  0  0  0  0  0  0  0  0  0
  131.8253  130.1807  156.5689 H   0  0  0  0  0  0  0  0  0  0  0  0
  125.5174  138.3142  164.4280 H   0  0  0  0  0  0  0  0  0  0  0  0
  126.2231  138.1254  166.7221 H   0  0  0  0  0  0  0  0  0  0  0  0
  130.2122  137.5833  166.5217 H   0  0  0  0  0  0  0  0  0  0  0  0
  129.3334  138.4660  165.2483 H   0  0  0  0  0  0  0  0  0  0  0  0
  128.0602  139.7039  166.9608 H   0  0  0  0  0  0  0  0  0  0  0  0
  129.8079  139.9151  167.2238 H   0  0  0  0  0  0  0  0  0  0  0  0
  126.8391  138.2112  168.4440 H   0  0  0  0  0  0  0  0  0  0  0  0
  127.7371  137.3852  169.7401 H   0  0  0  0  0  0  0  0  0  0  0  0
  127.1874  135.8387  167.8608 H   0  0  0  0  0  0  0  0  0  0  0  0
  128.9463  136.0346  168.0637 H   0  0  0  0  0  0  0  0  0  0  0  0
  127.8314  135.0068  165.6774 H   0  0  0  0  0  0  0  0  0  0  0  0
  129.5147  135.5775  165.5576 H   0  0  0  0  0  0  0  0  0  0  0  0
  1  2  1  0
  1 36  1  0
  1 37  1  0
  1 38  1  0
  2  3  1  0
  3 12  2  0
  3  4  1  0
  4  5  2  0
  4 39  1  0
  5 10  1  0
  5  6  1  0
  6 35  1  0
  6  7  2  0
  7  8  1  0
  7 27  1  0
  8  9  1  0
  8 10  1  0
 10 11  2  0
 11 12  1  0
 11 40  1  0
 12 13  1  0
 13 41  1  0
 14 13  1  0
 14 25  2  0
 14 15  1  0
 15 16  1  0
 15 17  1  0
 17 18  2  0
 17 42  1  0
 18 19  1  0
 18 25  1  0
 19 24  1  0
 19 20  2  0
 20 21  1  0
 20 43  1  0
 21 22  2  0
 21 44  1  0
 22 23  1  0
 23 24  2  0
 23 45  1  0
 24 46  1  0
 25 26  1  0
 27 28  2  0
 27 47  1  0
 28 29  1  0
 28 48  1  0
 29 34  1  0
 29 30  1  0
 29 35  1  0
 30 31  1  0
 30 49  1  0
 30 50  1  0
 31 32  1  0
 31 51  1  0
 31 52  1  0
 32 33  1  0
 33 34  1  0
 33 53  1  0
 33 54  1  0
 34 55  1  0
 34 56  1  0
 35 57  1  0
 35 58  1  0
M  CHG  1  25   1
M  END
>  <DOCK_score>  (1) 
-41.519718

>  <SMILES>  (1) 
COc1cc2c3c([nH]c2cc1Nc1[nH]cc(-c2ccncc2)[nH+]1)C=CC1(CCOCC1)C3

$$$$
