CC(C)n1ccc(CC[NH+]=C(NC[C@@H]2CC(O)C2(C)C)NC2CCCCCC2)n1
     RDKit          3D

 71 73  0  0  1  0  0  0  0  0999 V2000
  129.7677  140.9760  161.2537 C   0  0  0  0  0  0  0  0  0  0  0  0
  130.7216  140.5134  162.3569 C   0  0  0  0  0  0  0  0  0  0  0  0
  131.3752  141.7327  163.0104 C   0  0  0  0  0  0  0  0  0  0  0  0
  131.7582  139.6551  161.7780 N   0  0  0  0  0  0  0  0  0  0  0  0
  132.6387  140.0104  160.8192 C   0  0  0  0  0  0  0  0  0  0  0  0
  133.4240  138.9385  160.5629 C   0  0  0  0  0  0  0  0  0  0  0  0
  133.0092  137.8926  161.3936 C   0  0  0  0  0  0  0  0  0  0  0  0
  133.6087  136.5108  161.4409 C   0  0  0  0  0  0  0  0  0  0  0  0
  132.8786  135.6039  160.4482 C   0  0  0  0  0  0  0  0  0  0  0  0
  131.4593  135.5329  160.8042 N   0  0  0  0  0  0  0  0  0  0  0  0
  131.1269  136.0232  161.5723 H   0  0  0  0  0  0  0  0  0  0  0  0
  130.6432  134.8112  160.0887 C   0  0  0  0  0  0  0  0  0  0  0  0
  129.3113  134.7446  160.4226 N   0  0  0  0  0  0  0  0  0  0  0  0
  128.8091  135.4849  161.5829 C   0  0  0  0  0  0  0  0  0  0  0  0
  127.3061  135.2411  161.7318 C   0  0  2  0  0  0  0  0  0  0  0  0
  126.7366  135.5632  160.8600 H   0  0  0  0  0  0  0  0  0  0  0  0
  126.7299  135.7429  163.0664 C   0  0  0  0  0  0  0  0  0  0  0  0
  125.8742  134.4654  163.0871 C   0  0  1  0  0  0  0  0  0  0  0  0
  124.6124  134.6086  162.4318 O   0  0  0  0  0  0  0  0  0  0  0  0
  126.9565  133.8204  162.2054 C   0  0  0  0  0  0  0  0  0  0  0  0
  126.3932  132.9267  161.0987 C   0  0  0  0  0  0  0  0  0  0  0  0
  128.0757  133.1473  163.0026 C   0  0  0  0  0  0  0  0  0  0  0  0
  131.1145  134.1163  158.9999 N   0  0  0  0  0  0  0  0  0  0  0  0
  130.4718  132.8631  158.5966 C   0  0  0  0  0  0  0  0  0  0  0  0
  131.1124  131.6987  159.3793 C   0  0  0  0  0  0  0  0  0  0  0  0
  130.1577  130.5347  159.3696 C   0  0  0  0  0  0  0  0  0  0  0  0
  130.4489  129.5455  158.2249 C   0  0  0  0  0  0  0  0  0  0  0  0
  130.7886  130.2508  156.8979 C   0  0  0  0  0  0  0  0  0  0  0  0
  129.9026  131.4379  156.6335 C   0  0  0  0  0  0  0  0  0  0  0  0
  130.6111  132.7042  157.1566 C   0  0  0  0  0  0  0  0  0  0  0  0
  132.0142  138.3227  162.1264 N   0  0  0  0  0  0  0  0  0  0  0  0
  129.3020  140.1074  160.7882 H   0  0  0  0  0  0  0  0  0  0  0  0
  130.3251  141.5357  160.5026 H   0  0  0  0  0  0  0  0  0  0  0  0
  128.9966  141.6146  161.6845 H   0  0  0  0  0  0  0  0  0  0  0  0
  130.1642  139.9537  163.1082 H   0  0  0  0  0  0  0  0  0  0  0  0
  130.6039  142.3713  163.4411 H   0  0  0  0  0  0  0  0  0  0  0  0
  132.0547  141.4031  163.7964 H   0  0  0  0  0  0  0  0  0  0  0  0
  131.9326  142.2923  162.2593 H   0  0  0  0  0  0  0  0  0  0  0  0
  132.7051  140.9769  160.3421 H   0  0  0  0  0  0  0  0  0  0  0  0
  134.2290  138.8980  159.8440 H   0  0  0  0  0  0  0  0  0  0  0  0
  134.6647  136.5635  161.1761 H   0  0  0  0  0  0  0  0  0  0  0  0
  133.5063  136.1045  162.4473 H   0  0  0  0  0  0  0  0  0  0  0  0
  132.9810  136.0100  159.4419 H   0  0  0  0  0  0  0  0  0  0  0  0
  133.3122  134.6044  160.4824 H   0  0  0  0  0  0  0  0  0  0  0  0
  128.7039  134.2075  159.8902 H   0  0  0  0  0  0  0  0  0  0  0  0
  129.3234  135.1443  162.4816 H   0  0  0  0  0  0  0  0  0  0  0  0
  128.9923  136.5500  161.4411 H   0  0  0  0  0  0  0  0  0  0  0  0
  127.4653  135.7891  163.8697 H   0  0  0  0  0  0  0  0  0  0  0  0
  126.1455  136.6583  162.9729 H   0  0  0  0  0  0  0  0  0  0  0  0
  125.7890  134.0129  164.0751 H   0  0  0  0  0  0  0  0  0  0  0  0
  124.6424  135.1573  161.6361 H   0  0  0  0  0  0  0  0  0  0  0  0
  127.1280  132.8314  160.2993 H   0  0  0  0  0  0  0  0  0  0  0  0
  126.1699  131.9407  161.5062 H   0  0  0  0  0  0  0  0  0  0  0  0
  125.4803  133.3711  160.7021 H   0  0  0  0  0  0  0  0  0  0  0  0
  128.2619  133.7128  163.9156 H   0  0  0  0  0  0  0  0  0  0  0  0
  127.7781  132.1306  163.2591 H   0  0  0  0  0  0  0  0  0  0  0  0
  128.9840  133.1192  162.4008 H   0  0  0  0  0  0  0  0  0  0  0  0
  131.8724  134.4559  158.4987 H   0  0  0  0  0  0  0  0  0  0  0  0
  129.4117  132.9146  158.8451 H   0  0  0  0  0  0  0  0  0  0  0  0
  132.0497  131.4097  158.9038 H   0  0  0  0  0  0  0  0  0  0  0  0
  131.3004  132.0083  160.4073 H   0  0  0  0  0  0  0  0  0  0  0  0
  129.1411  130.9121  159.2594 H   0  0  0  0  0  0  0  0  0  0  0  0
  130.2364  130.0070  160.3201 H   0  0  0  0  0  0  0  0  0  0  0  0
  129.5728  128.9150  158.0737 H   0  0  0  0  0  0  0  0  0  0  0  0
  131.2891  128.9131  158.5119 H   0  0  0  0  0  0  0  0  0  0  0  0
  130.6762  129.5379  156.0809 H   0  0  0  0  0  0  0  0  0  0  0  0
  131.8255  130.5851  156.9315 H   0  0  0  0  0  0  0  0  0  0  0  0
  128.9529  131.3089  157.1528 H   0  0  0  0  0  0  0  0  0  0  0  0
  129.7242  131.5340  155.5625 H   0  0  0  0  0  0  0  0  0  0  0  0
  130.1846  133.5769  156.6622 H   0  0  0  0  0  0  0  0  0  0  0  0
  131.6709  132.6434  156.9091 H   0  0  0  0  0  0  0  0  0  0  0  0
  1  2  1  0
  1 32  1  0
  1 33  1  0
  1 34  1  0
  2  3  1  0
  2  4  1  0
  2 35  1  0
  3 36  1  0
  3 37  1  0
  3 38  1  0
  4 31  1  0
  4  5  1  0
  5  6  2  0
  5 39  1  0
  6  7  1  0
  6 40  1  0
  7  8  1  0
  7 31  2  0
  8  9  1  0
  8 41  1  0
  8 42  1  0
  9 10  1  0
  9 43  1  0
  9 44  1  0
 10 11  1  0
 12 10  2  0
 12 13  1  0
 12 23  1  0
 13 14  1  0
 13 45  1  0
 14 15  1  0
 14 46  1  0
 14 47  1  0
 15 16  1  6
 15 20  1  0
 15 17  1  0
 17 18  1  0
 17 48  1  0
 17 49  1  0
 18 19  1  0
 18 20  1  0
 18 50  1  1
 19 51  1  0
 20 21  1  0
 20 22  1  0
 21 52  1  0
 21 53  1  0
 21 54  1  0
 22 55  1  0
 22 56  1  0
 22 57  1  0
 23 24  1  0
 23 58  1  0
 24 30  1  0
 24 25  1  0
 24 59  1  0
 25 26  1  0
 25 60  1  0
 25 61  1  0
 26 27  1  0
 26 62  1  0
 26 63  1  0
 27 28  1  0
 27 64  1  0
 27 65  1  0
 28 29  1  0
 28 66  1  0
 28 67  1  0
 29 30  1  0
 29 68  1  0
 29 69  1  0
 30 70  1  0
 30 71  1  0
M  CHG  1  10   1
M  END
>  <DOCK_score>  (1) 
-48.877804

>  <SMILES>  (1) 
CC(C)n1ccc(CC[NH+]=C(NC[C@@H]2CC(O)C2(C)C)NC2CCCCCC2)n1

$$$$
