[NH3+][C@H](C(=O)Nc1cc(O)cc(O)c1)c1cnn(Cc2ccccc2)c1
     RDKit          3D

 44 46  0  0  1  0  0  0  0  0999 V2000
  130.0258  135.0232  157.7412 N   0  0  0  0  0  0  0  0  0  0  0  0
  130.9543  135.2096  157.3931 H   0  0  0  0  0  0  0  0  0  0  0  0
  129.5371  134.4246  157.0924 H   0  0  0  0  0  0  0  0  0  0  0  0
  129.5232  135.8923  157.8411 H   0  0  0  0  0  0  0  0  0  0  0  0
  130.1173  134.3576  159.0476 C   0  0  2  0  0  0  0  0  0  0  0  0
  130.6603  133.4186  158.9397 H   0  0  0  0  0  0  0  0  0  0  0  0
  128.7306  134.0790  159.5677 C   0  0  0  0  0  0  0  0  0  0  0  0
  127.8121  134.8124  159.2686 O   0  0  0  0  0  0  0  0  0  0  0  0
  128.5110  133.0150  160.3651 N   0  0  0  0  0  0  0  0  0  0  0  0
  127.2235  132.7563  160.8480 C   0  0  0  0  0  0  0  0  0  0  0  0
  126.3424  133.8052  161.0726 C   0  0  0  0  0  0  0  0  0  0  0  0
  125.0650  133.5478  161.5461 C   0  0  0  0  0  0  0  0  0  0  0  0
  124.2005  134.5741  161.7607 O   0  0  0  0  0  0  0  0  0  0  0  0
  124.6713  132.2437  161.8063 C   0  0  0  0  0  0  0  0  0  0  0  0
  125.5528  131.1957  161.5871 C   0  0  0  0  0  0  0  0  0  0  0  0
  125.1662  129.9182  161.8423 O   0  0  0  0  0  0  0  0  0  0  0  0
  126.8286  131.4512  161.1082 C   0  0  0  0  0  0  0  0  0  0  0  0
  130.8471  135.2515  160.0169 C   0  0  0  0  0  0  0  0  0  0  0  0
  130.2632  136.2081  160.8537 C   0  0  0  0  0  0  0  0  0  0  0  0
  131.2141  136.7782  161.5486 N   0  0  0  0  0  0  0  0  0  0  0  0
  132.4359  136.2084  161.1680 N   0  0  0  0  0  0  0  0  0  0  0  0
  133.7547  136.5635  161.6981 C   0  0  0  0  0  0  0  0  0  0  0  0
  134.3498  137.6696  160.8653 C   0  0  0  0  0  0  0  0  0  0  0  0
  134.9491  138.7525  161.4810 C   0  0  0  0  0  0  0  0  0  0  0  0
  135.4993  139.7646  160.7169 C   0  0  0  0  0  0  0  0  0  0  0  0
  135.4408  139.6989  159.3373 C   0  0  0  0  0  0  0  0  0  0  0  0
  134.8370  138.6186  158.7217 C   0  0  0  0  0  0  0  0  0  0  0  0
  134.2914  137.6039  159.4857 C   0  0  0  0  0  0  0  0  0  0  0  0
  132.1836  135.2745  160.2270 C   0  0  0  0  0  0  0  0  0  0  0  0
  129.2457  132.4283  160.6043 H   0  0  0  0  0  0  0  0  0  0  0  0
  126.6505  134.8213  160.8746 H   0  0  0  0  0  0  0  0  0  0  0  0
  124.5657  135.4456  161.5549 H   0  0  0  0  0  0  0  0  0  0  0  0
  123.6777  132.0442  162.1793 H   0  0  0  0  0  0  0  0  0  0  0  0
  124.2610  129.8399  162.1731 H   0  0  0  0  0  0  0  0  0  0  0  0
  127.5150  130.6350  160.9373 H   0  0  0  0  0  0  0  0  0  0  0  0
  129.2092  136.4348  160.9177 H   0  0  0  0  0  0  0  0  0  0  0  0
  133.6530  136.9001  162.7300 H   0  0  0  0  0  0  0  0  0  0  0  0
  134.4072  135.6911  161.6632 H   0  0  0  0  0  0  0  0  0  0  0  0
  134.9907  138.8059  162.5589 H   0  0  0  0  0  0  0  0  0  0  0  0
  135.9708  140.6089  161.1979 H   0  0  0  0  0  0  0  0  0  0  0  0
  135.8667  140.4920  158.7405 H   0  0  0  0  0  0  0  0  0  0  0  0
  134.7911  138.5674  157.6440 H   0  0  0  0  0  0  0  0  0  0  0  0
  133.8194  136.7600  159.0048 H   0  0  0  0  0  0  0  0  0  0  0  0
  132.9170  134.6562  159.7311 H   0  0  0  0  0  0  0  0  0  0  0  0
  1  2  1  0
  1  3  1  0
  1  4  1  0
  1  5  1  0
  5  6  1  6
  5  7  1  0
  5 18  1  0
  7  8  2  0
  7  9  1  0
  9 10  1  0
  9 30  1  0
 10 17  1  0
 10 11  2  0
 11 12  1  0
 11 31  1  0
 12 13  1  0
 12 14  2  0
 13 32  1  0
 14 15  1  0
 14 33  1  0
 15 16  1  0
 15 17  2  0
 16 34  1  0
 17 35  1  0
 18 29  2  0
 18 19  1  0
 19 20  2  0
 19 36  1  0
 20 21  1  0
 21 22  1  0
 21 29  1  0
 22 23  1  0
 22 37  1  0
 22 38  1  0
 23 28  1  0
 23 24  2  0
 24 25  1  0
 24 39  1  0
 25 26  2  0
 25 40  1  0
 26 27  1  0
 26 41  1  0
 27 28  2  0
 27 42  1  0
 28 43  1  0
 29 44  1  0
M  CHG  1   1   1
M  END
>  <DOCK_score>  (1) 
-44.490662

>  <SMILES>  (1) 
[NH3+][C@H](C(=O)Nc1cc(O)cc(O)c1)c1cnn(Cc2ccccc2)c1

$$$$
