C[C@@H](c1ccccc1)C(O)C[NH2+]C1c2cc(O)ccc2-c2ccc(O)cc21
     RDKit          3D

 51 54  0  0  1  0  0  0  0  0999 V2000
  129.7373  138.1810  161.7332 C   0  0  0  0  0  0  0  0  0  0  0  0
  130.6627  137.6824  160.6215 C   0  0  1  0  0  0  0  0  0  0  0  0
  130.4836  138.2587  159.7139 H   0  0  0  0  0  0  0  0  0  0  0  0
  132.0978  137.8515  161.0490 C   0  0  0  0  0  0  0  0  0  0  0  0
  133.0799  138.0722  160.1015 C   0  0  0  0  0  0  0  0  0  0  0  0
  134.3958  138.2312  160.4942 C   0  0  0  0  0  0  0  0  0  0  0  0
  134.7308  138.1613  161.8334 C   0  0  0  0  0  0  0  0  0  0  0  0
  133.7495  137.9355  162.7805 C   0  0  0  0  0  0  0  0  0  0  0  0
  132.4330  137.7802  162.3883 C   0  0  0  0  0  0  0  0  0  0  0  0
  130.3825  136.2030  160.3499 C   0  0  2  0  0  0  0  0  0  0  0  0
  131.5046  135.6201  159.6840 O   0  0  0  0  0  0  0  0  0  0  0  0
  129.1408  136.0732  159.4655 C   0  0  0  0  0  0  0  0  0  0  0  0
  129.1372  134.7551  158.8168 N   0  0  0  0  0  0  0  0  0  0  0  0
  129.9658  134.6571  158.2495 H   0  0  0  0  0  0  0  0  0  0  0  0
  128.3182  134.6696  158.2335 H   0  0  0  0  0  0  0  0  0  0  0  0
  129.1192  133.7043  159.8431 C   0  0  0  0  0  0  0  0  0  0  0  0
  127.7058  133.4567  160.3105 C   0  0  0  0  0  0  0  0  0  0  0  0
  126.7768  134.2734  160.9179 C   0  0  0  0  0  0  0  0  0  0  0  0
  125.5235  133.7744  161.2468 C   0  0  0  0  0  0  0  0  0  0  0  0
  124.6070  134.5796  161.8453 O   0  0  0  0  0  0  0  0  0  0  0  0
  125.2068  132.4525  160.9636 C   0  0  0  0  0  0  0  0  0  0  0  0
  126.1333  131.6324  160.3566 C   0  0  0  0  0  0  0  0  0  0  0  0
  127.3953  132.1299  160.0234 C   0  0  0  0  0  0  0  0  0  0  0  0
  128.5609  131.4787  159.3759 C   0  0  0  0  0  0  0  0  0  0  0  0
  128.7417  130.1753  158.9075 C   0  0  0  0  0  0  0  0  0  0  0  0
  129.9399  129.8085  158.3340 C   0  0  0  0  0  0  0  0  0  0  0  0
  130.9713  130.7310  158.2202 C   0  0  0  0  0  0  0  0  0  0  0  0
  132.1515  130.3649  157.6549 O   0  0  0  0  0  0  0  0  0  0  0  0
  130.7965  132.0278  158.6847 C   0  0  0  0  0  0  0  0  0  0  0  0
  129.5997  132.3987  159.2583 C   0  0  0  0  0  0  0  0  0  0  0  0
  129.9370  139.2349  161.9269 H   0  0  0  0  0  0  0  0  0  0  0  0
  128.6993  138.0586  161.4241 H   0  0  0  0  0  0  0  0  0  0  0  0
  129.9165  137.6046  162.6410 H   0  0  0  0  0  0  0  0  0  0  0  0
  132.8187  138.1235  159.0549 H   0  0  0  0  0  0  0  0  0  0  0  0
  135.1625  138.4073  159.7541 H   0  0  0  0  0  0  0  0  0  0  0  0
  135.7592  138.2829  162.1400 H   0  0  0  0  0  0  0  0  0  0  0  0
  134.0112  137.8804  163.8269 H   0  0  0  0  0  0  0  0  0  0  0  0
  131.6664  137.6037  163.1282 H   0  0  0  0  0  0  0  0  0  0  0  0
  130.2116  135.6862  161.2942 H   0  0  0  0  0  0  0  0  0  0  0  0
  131.7150  136.0313  158.8345 H   0  0  0  0  0  0  0  0  0  0  0  0
  129.1539  136.8529  158.7039 H   0  0  0  0  0  0  0  0  0  0  0  0
  128.2455  136.1789  160.0783 H   0  0  0  0  0  0  0  0  0  0  0  0
  129.7481  133.9922  160.6855 H   0  0  0  0  0  0  0  0  0  0  0  0
  127.0236  135.3014  161.1384 H   0  0  0  0  0  0  0  0  0  0  0  0
  124.9185  135.4817  162.0017 H   0  0  0  0  0  0  0  0  0  0  0  0
  124.2315  132.0658  161.2197 H   0  0  0  0  0  0  0  0  0  0  0  0
  125.8831  130.6049  160.1376 H   0  0  0  0  0  0  0  0  0  0  0  0
  127.9421  129.4547  158.9946 H   0  0  0  0  0  0  0  0  0  0  0  0
  130.0773  128.8002  157.9723 H   0  0  0  0  0  0  0  0  0  0  0  0
  132.8077  131.0743  157.6199 H   0  0  0  0  0  0  0  0  0  0  0  0
  131.5983  132.7458  158.5961 H   0  0  0  0  0  0  0  0  0  0  0  0
  1  2  1  0
  1 31  1  0
  1 32  1  0
  1 33  1  0
  2  3  1  6
  2  4  1  0
  2 10  1  0
  4  9  1  0
  4  5  2  0
  5  6  1  0
  5 34  1  0
  6  7  2  0
  6 35  1  0
  7  8  1  0
  7 36  1  0
  8  9  2  0
  8 37  1  0
  9 38  1  0
 10 11  1  0
 10 12  1  0
 10 39  1  1
 11 40  1  0
 12 13  1  0
 12 41  1  0
 12 42  1  0
 13 14  1  0
 13 15  1  0
 13 16  1  0
 16 30  1  0
 16 17  1  0
 16 43  1  0
 17 23  1  0
 17 18  2  0
 18 19  1  0
 18 44  1  0
 19 20  1  0
 19 21  2  0
 20 45  1  0
 21 22  1  0
 21 46  1  0
 22 23  2  0
 22 47  1  0
 23 24  1  0
 24 30  2  0
 24 25  1  0
 25 26  2  0
 25 48  1  0
 26 27  1  0
 26 49  1  0
 27 28  1  0
 27 29  2  0
 28 50  1  0
 29 30  1  0
 29 51  1  0
M  CHG  1  13   1
M  END
>  <DOCK_score>  (1) 
-45.436176

>  <SMILES>  (1) 
C[C@@H](c1ccccc1)C(O)C[NH2+]C1c2cc(O)ccc2-c2ccc(O)cc21

$$$$
