Nc1ccc(-c2cc(Cl)ccc2Nc2[nH]cc(-c3ccccc3)[nH+]2)cc1
     RDKit          3D

 44 47  0  0  1  0  0  0  0  0999 V2000
  134.6251  138.6490  160.5406 N   0  0  0  0  0  0  0  0  0  0  0  0
  133.3737  138.0308  160.5078 C   0  0  0  0  0  0  0  0  0  0  0  0
  132.3132  138.6447  159.8517 C   0  0  0  0  0  0  0  0  0  0  0  0
  131.0765  138.0364  159.8184 C   0  0  0  0  0  0  0  0  0  0  0  0
  130.8900  136.8040  160.4435 C   0  0  0  0  0  0  0  0  0  0  0  0
  129.5593  136.1505  160.4144 C   0  0  0  0  0  0  0  0  0  0  0  0
  128.6302  136.4100  161.4192 C   0  0  0  0  0  0  0  0  0  0  0  0
  127.3920  135.7988  161.3877 C   0  0  0  0  0  0  0  0  0  0  0  0
  126.2355  136.1228  162.6412 Cl  0  0  0  0  0  0  0  0  0  0  0  0
  127.0697  134.9279  160.3600 C   0  0  0  0  0  0  0  0  0  0  0  0
  127.9831  134.6636  159.3578 C   0  0  0  0  0  0  0  0  0  0  0  0
  129.2287  135.2746  159.3739 C   0  0  0  0  0  0  0  0  0  0  0  0
  130.1513  135.0123  158.3585 N   0  0  0  0  0  0  0  0  0  0  0  0
  130.1456  133.7843  157.7177 C   0  0  0  0  0  0  0  0  0  0  0  0
  129.7710  132.6004  158.2758 N   0  0  0  0  0  0  0  0  0  0  0  0
  129.4629  132.4662  159.1856 H   0  0  0  0  0  0  0  0  0  0  0  0
  129.9067  131.6320  157.3117 C   0  0  0  0  0  0  0  0  0  0  0  0
  130.3688  132.2492  156.1958 C   0  0  0  0  0  0  0  0  0  0  0  0
  130.6711  131.5961  154.8987 C   0  0  0  0  0  0  0  0  0  0  0  0
  130.5264  132.3057  153.7077 C   0  0  0  0  0  0  0  0  0  0  0  0
  130.8151  131.6949  152.5044 C   0  0  0  0  0  0  0  0  0  0  0  0
  131.2357  130.3769  152.4781 C   0  0  0  0  0  0  0  0  0  0  0  0
  131.3753  129.6665  153.6563 C   0  0  0  0  0  0  0  0  0  0  0  0
  131.0954  130.2688  154.8660 C   0  0  0  0  0  0  0  0  0  0  0  0
  130.5054  133.5692  156.4757 N   0  0  0  0  0  0  0  0  0  0  0  0
  130.8195  134.2462  155.8559 H   0  0  0  0  0  0  0  0  0  0  0  0
  131.9553  136.1898  161.1007 C   0  0  0  0  0  0  0  0  0  0  0  0
  133.1902  136.8019  161.1313 C   0  0  0  0  0  0  0  0  0  0  0  0
  134.7540  139.5063  160.1055 H   0  0  0  0  0  0  0  0  0  0  0  0
  135.3656  138.2212  160.9984 H   0  0  0  0  0  0  0  0  0  0  0  0
  132.4581  139.5993  159.3676 H   0  0  0  0  0  0  0  0  0  0  0  0
  130.2528  138.5138  159.3084 H   0  0  0  0  0  0  0  0  0  0  0  0
  128.8778  137.0888  162.2220 H   0  0  0  0  0  0  0  0  0  0  0  0
  126.0996  134.4536  160.3418 H   0  0  0  0  0  0  0  0  0  0  0  0
  127.7258  133.9838  158.5589 H   0  0  0  0  0  0  0  0  0  0  0  0
  130.7960  135.6901  158.1020 H   0  0  0  0  0  0  0  0  0  0  0  0
  129.6912  130.5795  157.4223 H   0  0  0  0  0  0  0  0  0  0  0  0
  130.1934  133.3329  153.7271 H   0  0  0  0  0  0  0  0  0  0  0  0
  130.7085  132.2453  151.5813 H   0  0  0  0  0  0  0  0  0  0  0  0
  131.4567  129.9020  151.5336 H   0  0  0  0  0  0  0  0  0  0  0  0
  131.7041  128.6380  153.6297 H   0  0  0  0  0  0  0  0  0  0  0  0
  131.2052  129.7132  155.7853 H   0  0  0  0  0  0  0  0  0  0  0  0
  131.8129  135.2354  161.5858 H   0  0  0  0  0  0  0  0  0  0  0  0
  134.0156  136.3264  161.6400 H   0  0  0  0  0  0  0  0  0  0  0  0
  1  2  1  0
  1 29  1  0
  1 30  1  0
  2 28  2  0
  2  3  1  0
  3  4  2  0
  3 31  1  0
  4  5  1  0
  4 32  1  0
  5  6  1  0
  5 27  2  0
  6 12  1  0
  6  7  2  0
  7  8  1  0
  7 33  1  0
  8  9  1  0
  8 10  2  0
 10 11  1  0
 10 34  1  0
 11 12  2  0
 11 35  1  0
 12 13  1  0
 13 36  1  0
 14 13  1  0
 14 25  2  0
 14 15  1  0
 15 16  1  0
 15 17  1  0
 17 18  2  0
 17 37  1  0
 18 19  1  0
 18 25  1  0
 19 24  1  0
 19 20  2  0
 20 21  1  0
 20 38  1  0
 21 22  2  0
 21 39  1  0
 22 23  1  0
 22 40  1  0
 23 24  2  0
 23 41  1  0
 24 42  1  0
 25 26  1  0
 27 28  1  0
 27 43  1  0
 28 44  1  0
M  CHG  1  25   1
M  END
>  <DOCK_score>  (1) 
-57.473732

>  <SMILES>  (1) 
Nc1ccc(-c2cc(Cl)ccc2Nc2[nH]cc(-c3ccccc3)[nH+]2)cc1

$$$$
