Nc1ccc(-c2c[nH]c(N[C@@H](c3ccc(F)cn3)C3CCc4ccccc4C3)[nH+]2)cc1
     RDKit          3D

 56 60  0  0  1  0  0  0  0  0999 V2000
  130.9840  129.3198  150.8094 N   0  0  0  0  0  0  0  0  0  0  0  0
  130.9047  129.9268  152.0650 C   0  0  0  0  0  0  0  0  0  0  0  0
  130.2730  131.1572  152.2022 C   0  0  0  0  0  0  0  0  0  0  0  0
  130.1939  131.7584  153.4407 C   0  0  0  0  0  0  0  0  0  0  0  0
  130.7475  131.1310  154.5556 C   0  0  0  0  0  0  0  0  0  0  0  0
  130.6640  131.7762  155.8888 C   0  0  0  0  0  0  0  0  0  0  0  0
  130.6035  131.1361  157.0826 C   0  0  0  0  0  0  0  0  0  0  0  0
  130.5368  132.1076  158.0530 N   0  0  0  0  0  0  0  0  0  0  0  0
  130.4840  131.9609  159.0103 H   0  0  0  0  0  0  0  0  0  0  0  0
  130.5586  133.3131  157.4223 C   0  0  0  0  0  0  0  0  0  0  0  0
  130.5088  134.5493  158.0435 N   0  0  0  0  0  0  0  0  0  0  0  0
  129.7990  134.7013  159.3161 C   0  0  1  0  0  0  0  0  0  0  0  0
  129.4024  135.7138  159.3921 H   0  0  0  0  0  0  0  0  0  0  0  0
  128.6647  133.7114  159.3802 C   0  0  0  0  0  0  0  0  0  0  0  0
  127.4177  134.0703  158.9039 C   0  0  0  0  0  0  0  0  0  0  0  0
  126.3816  133.1515  158.9626 C   0  0  0  0  0  0  0  0  0  0  0  0
  126.6375  131.9015  159.5112 C   0  0  0  0  0  0  0  0  0  0  0  0
  125.6565  130.9762  159.5932 F   0  0  0  0  0  0  0  0  0  0  0  0
  127.9110  131.6164  159.9726 C   0  0  0  0  0  0  0  0  0  0  0  0
  128.8727  132.5154  159.8950 N   0  0  0  0  0  0  0  0  0  0  0  0
  130.7664  134.4443  160.4734 C   0  0  2  0  0  0  0  0  0  0  0  0
  130.0350  134.6285  161.8082 C   0  0  0  0  0  0  0  0  0  0  0  0
  130.9476  134.1358  162.9296 C   0  0  0  0  0  0  0  0  0  0  0  0
  132.3119  134.7645  162.8167 C   0  0  0  0  0  0  0  0  0  0  0  0
  133.1359  134.7264  163.9344 C   0  0  0  0  0  0  0  0  0  0  0  0
  134.3990  135.2793  163.8934 C   0  0  0  0  0  0  0  0  0  0  0  0
  134.8502  135.8745  162.7298 C   0  0  0  0  0  0  0  0  0  0  0  0
  134.0313  135.9185  161.6208 C   0  0  0  0  0  0  0  0  0  0  0  0
  132.7599  135.3600  161.6593 C   0  0  0  0  0  0  0  0  0  0  0  0
  131.9183  135.4454  160.4131 C   0  0  0  0  0  0  0  0  0  0  0  0
  130.6290  133.1109  156.1291 N   0  0  0  0  0  0  0  0  0  0  0  0
  130.6540  133.8049  155.4519 H   0  0  0  0  0  0  0  0  0  0  0  0
  131.3847  129.8992  154.4147 C   0  0  0  0  0  0  0  0  0  0  0  0
  131.4569  129.2992  153.1753 C   0  0  0  0  0  0  0  0  0  0  0  0
  130.5985  129.7571  150.0340 H   0  0  0  0  0  0  0  0  0  0  0  0
  131.4246  128.4611  150.7128 H   0  0  0  0  0  0  0  0  0  0  0  0
  129.8442  131.6431  151.3382 H   0  0  0  0  0  0  0  0  0  0  0  0
  129.7030  132.7146  153.5468 H   0  0  0  0  0  0  0  0  0  0  0  0
  130.6064  130.0677  157.2408 H   0  0  0  0  0  0  0  0  0  0  0  0
  130.9438  135.3146  157.6363 H   0  0  0  0  0  0  0  0  0  0  0  0
  127.2536  135.0532  158.4878 H   0  0  0  0  0  0  0  0  0  0  0  0
  125.3979  133.4032  158.5947 H   0  0  0  0  0  0  0  0  0  0  0  0
  128.1193  130.6472  160.4010 H   0  0  0  0  0  0  0  0  0  0  0  0
  131.1582  133.4292  160.4064 H   0  0  0  0  0  0  0  0  0  0  0  0
  129.1123  134.0484  161.8045 H   0  0  0  0  0  0  0  0  0  0  0  0
  129.8055  135.6834  161.9585 H   0  0  0  0  0  0  0  0  0  0  0  0
  131.0447  133.0522  162.8640 H   0  0  0  0  0  0  0  0  0  0  0  0
  130.5087  134.3999  163.8917 H   0  0  0  0  0  0  0  0  0  0  0  0
  132.7849  134.2600  164.8431 H   0  0  0  0  0  0  0  0  0  0  0  0
  135.0331  135.2474  164.7670 H   0  0  0  0  0  0  0  0  0  0  0  0
  135.8389  136.3076  162.6910 H   0  0  0  0  0  0  0  0  0  0  0  0
  134.3830  136.3873  160.7136 H   0  0  0  0  0  0  0  0  0  0  0  0
  132.5394  135.2268  159.5443 H   0  0  0  0  0  0  0  0  0  0  0  0
  131.5140  136.4534  160.3207 H   0  0  0  0  0  0  0  0  0  0  0  0
  131.8179  129.4133  155.2764 H   0  0  0  0  0  0  0  0  0  0  0  0
  131.9469  128.3429  153.0665 H   0  0  0  0  0  0  0  0  0  0  0  0
  1  2  1  0
  1 35  1  0
  1 36  1  0
  2 34  2  0
  2  3  1  0
  3  4  2  0
  3 37  1  0
  4  5  1  0
  4 38  1  0
  5  6  1  0
  5 33  2  0
  6 31  1  0
  6  7  2  0
  7  8  1  0
  7 39  1  0
  8  9  1  0
  8 10  1  0
 10 11  1  0
 10 31  2  0
 11 12  1  0
 11 40  1  0
 12 13  1  1
 12 14  1  0
 12 21  1  0
 14 20  1  0
 14 15  2  0
 15 16  1  0
 15 41  1  0
 16 17  2  0
 16 42  1  0
 17 18  1  0
 17 19  1  0
 19 20  2  0
 19 43  1  0
 21 30  1  0
 21 22  1  0
 21 44  1  6
 22 23  1  0
 22 45  1  0
 22 46  1  0
 23 24  1  0
 23 47  1  0
 23 48  1  0
 24 29  2  0
 24 25  1  0
 25 26  2  0
 25 49  1  0
 26 27  1  0
 26 50  1  0
 27 28  2  0
 27 51  1  0
 28 29  1  0
 28 52  1  0
 29 30  1  0
 30 53  1  0
 30 54  1  0
 31 32  1  0
 33 34  1  0
 33 55  1  0
 34 56  1  0
M  CHG  1  31   1
M  END
>  <DOCK_score>  (1) 
-59.315067

>  <SMILES>  (1) 
Nc1ccc(-c2c[nH]c(N[C@@H](c3ccc(F)cn3)C3CCc4ccccc4C3)[nH+]2)cc1

$$$$
