COc1ccc2c(c1)OC[C@@H](Nc1ccc(-c3n[nH]cc3C[NH2+]CC3=CCOCC3)o1)C2
     RDKit          3D

 61 65  0  0  1  0  0  0  0  0999 V2000
  130.6929  141.7824  166.5086 C   0  0  0  0  0  0  0  0  0  0  0  0
  129.2997  142.0500  166.3380 O   0  0  0  0  0  0  0  0  0  0  0  0
  128.5782  141.1394  165.6328 C   0  0  0  0  0  0  0  0  0  0  0  0
  127.2185  141.3329  165.4332 C   0  0  0  0  0  0  0  0  0  0  0  0
  126.4901  140.4085  164.7127 C   0  0  0  0  0  0  0  0  0  0  0  0
  127.1070  139.2834  164.1898 C   0  0  0  0  0  0  0  0  0  0  0  0
  128.4622  139.0839  164.3888 C   0  0  0  0  0  0  0  0  0  0  0  0
  129.1970  140.0135  165.1165 C   0  0  0  0  0  0  0  0  0  0  0  0
  129.1071  137.9979  163.8884 O   0  0  0  0  0  0  0  0  0  0  0  0
  128.3155  136.8822  163.4778 C   0  0  0  0  0  0  0  0  0  0  0  0
  127.1864  137.3967  162.5755 C   0  0  1  0  0  0  0  0  0  0  0  0
  127.6083  137.9691  161.7495 H   0  0  0  0  0  0  0  0  0  0  0  0
  126.4184  136.2649  162.0505 N   0  0  0  0  0  0  0  0  0  0  0  0
  127.0477  135.2975  161.2758 C   0  0  0  0  0  0  0  0  0  0  0  0
  126.4523  134.2064  160.7330 C   0  0  0  0  0  0  0  0  0  0  0  0
  127.4493  133.5002  160.0314 C   0  0  0  0  0  0  0  0  0  0  0  0
  128.6059  134.1981  160.1821 C   0  0  0  0  0  0  0  0  0  0  0  0
  129.9194  133.8293  159.6148 C   0  0  0  0  0  0  0  0  0  0  0  0
  130.1765  132.7652  158.8799 N   0  0  0  0  0  0  0  0  0  0  0  0
  131.5359  132.7879  158.5430 N   0  0  0  0  0  0  0  0  0  0  0  0
  131.9998  132.1271  158.0056 H   0  0  0  0  0  0  0  0  0  0  0  0
  132.0903  133.8861  159.1007 C   0  0  0  0  0  0  0  0  0  0  0  0
  131.1224  134.5500  159.7683 C   0  0  0  0  0  0  0  0  0  0  0  0
  131.2964  135.8324  160.5403 C   0  0  0  0  0  0  0  0  0  0  0  0
  131.0631  136.9763  159.6488 N   0  0  0  0  0  0  0  0  0  0  0  0
  131.7248  136.9497  158.8875 H   0  0  0  0  0  0  0  0  0  0  0  0
  130.1248  136.9300  159.2808 H   0  0  0  0  0  0  0  0  0  0  0  0
  131.2328  138.2264  160.4014 C   0  0  0  0  0  0  0  0  0  0  0  0
  132.6344  138.2956  160.9510 C   0  0  0  0  0  0  0  0  0  0  0  0
  132.7979  138.3746  162.2381 C   0  0  0  0  0  0  0  0  0  0  0  0
  134.1516  138.4514  162.8849 C   0  0  0  0  0  0  0  0  0  0  0  0
  135.1663  138.0766  161.9509 O   0  0  0  0  0  0  0  0  0  0  0  0
  135.0567  138.7642  160.6983 C   0  0  0  0  0  0  0  0  0  0  0  0
  133.7901  138.2766  159.9891 C   0  0  0  0  0  0  0  0  0  0  0  0
  128.3474  135.2887  160.9339 O   0  0  0  0  0  0  0  0  0  0  0  0
  126.2736  138.2956  163.4130 C   0  0  0  0  0  0  0  0  0  0  0  0
  131.1489  142.5852  167.0880 H   0  0  0  0  0  0  0  0  0  0  0  0
  130.8194  140.8368  167.0359 H   0  0  0  0  0  0  0  0  0  0  0  0
  131.1733  141.7209  165.5321 H   0  0  0  0  0  0  0  0  0  0  0  0
  126.7320  142.2082  165.8377 H   0  0  0  0  0  0  0  0  0  0  0  0
  125.4329  140.5631  164.5551 H   0  0  0  0  0  0  0  0  0  0  0  0
  130.2541  139.8593  165.2754 H   0  0  0  0  0  0  0  0  0  0  0  0
  127.8909  136.3912  164.3534 H   0  0  0  0  0  0  0  0  0  0  0  0
  128.9344  136.1757  162.9248 H   0  0  0  0  0  0  0  0  0  0  0  0
  125.4707  136.1909  162.2435 H   0  0  0  0  0  0  0  0  0  0  0  0
  125.4117  133.9313  160.8217 H   0  0  0  0  0  0  0  0  0  0  0  0
  127.3196  132.5807  159.4799 H   0  0  0  0  0  0  0  0  0  0  0  0
  133.1266  134.1810  159.0266 H   0  0  0  0  0  0  0  0  0  0  0  0
  130.5817  135.8611  161.3629 H   0  0  0  0  0  0  0  0  0  0  0  0
  132.3101  135.8824  160.9380 H   0  0  0  0  0  0  0  0  0  0  0  0
  131.0597  139.0751  159.7400 H   0  0  0  0  0  0  0  0  0  0  0  0
  130.5181  138.2551  161.2240 H   0  0  0  0  0  0  0  0  0  0  0  0
  131.9223  138.3815  162.8704 H   0  0  0  0  0  0  0  0  0  0  0  0
  134.1839  137.7795  163.7424 H   0  0  0  0  0  0  0  0  0  0  0  0
  134.3286  139.4735  163.2197 H   0  0  0  0  0  0  0  0  0  0  0  0
  135.9293  138.5464  160.0825 H   0  0  0  0  0  0  0  0  0  0  0  0
  134.9891  139.8378  160.8737 H   0  0  0  0  0  0  0  0  0  0  0  0
  133.9450  137.2601  159.6277 H   0  0  0  0  0  0  0  0  0  0  0  0
  133.5714  138.9318  159.1458 H   0  0  0  0  0  0  0  0  0  0  0  0
  125.6978  137.6824  164.1064 H   0  0  0  0  0  0  0  0  0  0  0  0
  125.5927  138.8345  162.7541 H   0  0  0  0  0  0  0  0  0  0  0  0
  1  2  1  0
  1 37  1  0
  1 38  1  0
  1 39  1  0
  2  3  1  0
  3  8  2  0
  3  4  1  0
  4  5  2  0
  4 40  1  0
  5  6  1  0
  5 41  1  0
  6 36  1  0
  6  7  2  0
  7  8  1  0
  7  9  1  0
  8 42  1  0
  9 10  1  0
 10 11  1  0
 10 43  1  0
 10 44  1  0
 11 12  1  6
 11 13  1  0
 11 36  1  0
 13 14  1  0
 13 45  1  0
 14 35  1  0
 14 15  2  0
 15 16  1  0
 15 46  1  0
 16 17  2  0
 16 47  1  0
 17 18  1  0
 17 35  1  0
 18 23  1  0
 18 19  2  0
 19 20  1  0
 20 21  1  0
 20 22  1  0
 22 23  2  0
 22 48  1  0
 23 24  1  0
 24 25  1  0
 24 49  1  0
 24 50  1  0
 25 26  1  0
 25 27  1  0
 25 28  1  0
 28 29  1  0
 28 51  1  0
 28 52  1  0
 29 34  1  0
 29 30  2  0
 30 31  1  0
 30 53  1  0
 31 32  1  0
 31 54  1  0
 31 55  1  0
 32 33  1  0
 33 34  1  0
 33 56  1  0
 33 57  1  0
 34 58  1  0
 34 59  1  0
 36 60  1  0
 36 61  1  0
M  CHG  1  25   1
M  END
>  <DOCK_score>  (1) 
-42.792404

>  <SMILES>  (1) 
COc1ccc2c(c1)OC[C@@H](Nc1ccc(-c3n[nH]cc3C[NH2+]CC3=CCOCC3)o1)C2

$$$$
