CCc1ccc(Nc2ccc(-c3n[nH]cc3C[NH2+][C@@H]3CC=C(C)CC3)o2)cc1
     RDKit          3D

 57 60  0  0  1  0  0  0  0  0999 V2000
  129.5208  142.0638  163.8038 C   0  0  0  0  0  0  0  0  0  0  0  0
  130.2619  140.7253  163.7877 C   0  0  0  0  0  0  0  0  0  0  0  0
  129.3509  139.6524  163.2493 C   0  0  0  0  0  0  0  0  0  0  0  0
  129.3216  139.3901  161.8914 C   0  0  0  0  0  0  0  0  0  0  0  0
  128.4877  138.4081  161.3942 C   0  0  0  0  0  0  0  0  0  0  0  0
  127.6769  137.6839  162.2594 C   0  0  0  0  0  0  0  0  0  0  0  0
  126.8317  136.6902  161.7600 N   0  0  0  0  0  0  0  0  0  0  0  0
  127.3644  135.6048  161.0738 C   0  0  0  0  0  0  0  0  0  0  0  0
  126.6553  134.5777  160.5424 C   0  0  0  0  0  0  0  0  0  0  0  0
  127.5831  133.7071  159.9378 C   0  0  0  0  0  0  0  0  0  0  0  0
  128.8157  134.2440  160.1385 C   0  0  0  0  0  0  0  0  0  0  0  0
  130.0960  133.6682  159.6778 C   0  0  0  0  0  0  0  0  0  0  0  0
  130.2435  132.5479  158.9981 N   0  0  0  0  0  0  0  0  0  0  0  0
  131.6115  132.3580  158.7651 N   0  0  0  0  0  0  0  0  0  0  0  0
  132.0095  131.6119  158.2897 H   0  0  0  0  0  0  0  0  0  0  0  0
  132.2809  133.3939  159.3159 C   0  0  0  0  0  0  0  0  0  0  0  0
  131.3776  134.2214  159.8834 C   0  0  0  0  0  0  0  0  0  0  0  0
  131.6840  135.5042  160.6125 C   0  0  0  0  0  0  0  0  0  0  0  0
  132.6596  136.2851  159.8404 N   0  0  0  0  0  0  0  0  0  0  0  0
  132.2765  136.4980  158.9316 H   0  0  0  0  0  0  0  0  0  0  0  0
  133.5079  135.7496  159.7306 H   0  0  0  0  0  0  0  0  0  0  0  0
  132.9585  137.5355  160.5511 C   0  0  2  0  0  0  0  0  0  0  0  0
  132.0424  137.9403  160.9813 H   0  0  0  0  0  0  0  0  0  0  0  0
  133.5609  138.5497  159.5763 C   0  0  0  0  0  0  0  0  0  0  0  0
  134.1124  139.7251  160.3290 C   0  0  0  0  0  0  0  0  0  0  0  0
  134.3672  139.7191  161.5980 C   0  0  0  0  0  0  0  0  0  0  0  0
  134.9297  140.9751  162.2119 C   0  0  0  0  0  0  0  0  0  0  0  0
  134.1373  138.5390  162.4962 C   0  0  0  0  0  0  0  0  0  0  0  0
  133.9799  137.2652  161.6629 C   0  0  0  0  0  0  0  0  0  0  0  0
  128.6690  135.3961  160.8258 O   0  0  0  0  0  0  0  0  0  0  0  0
  127.7044  137.9545  163.6220 C   0  0  0  0  0  0  0  0  0  0  0  0
  128.5449  138.9340  164.1130 C   0  0  0  0  0  0  0  0  0  0  0  0
  129.2155  142.3221  162.7898 H   0  0  0  0  0  0  0  0  0  0  0  0
  128.6391  141.9832  164.4394 H   0  0  0  0  0  0  0  0  0  0  0  0
  130.1801  142.8394  164.1935 H   0  0  0  0  0  0  0  0  0  0  0  0
  130.5674  140.4669  164.8016 H   0  0  0  0  0  0  0  0  0  0  0  0
  131.1438  140.8059  163.1520 H   0  0  0  0  0  0  0  0  0  0  0  0
  129.9522  139.9533  161.2195 H   0  0  0  0  0  0  0  0  0  0  0  0
  128.4655  138.2034  160.3340 H   0  0  0  0  0  0  0  0  0  0  0  0
  125.8731  136.7576  161.8920 H   0  0  0  0  0  0  0  0  0  0  0  0
  125.5831  134.4531  160.5734 H   0  0  0  0  0  0  0  0  0  0  0  0
  127.3586  132.7882  159.4167 H   0  0  0  0  0  0  0  0  0  0  0  0
  133.3516  133.5351  159.3048 H   0  0  0  0  0  0  0  0  0  0  0  0
  132.0978  135.2741  161.5942 H   0  0  0  0  0  0  0  0  0  0  0  0
  130.7677  136.0825  160.7309 H   0  0  0  0  0  0  0  0  0  0  0  0
  134.3622  138.0748  159.0104 H   0  0  0  0  0  0  0  0  0  0  0  0
  132.7880  138.8936  158.8892 H   0  0  0  0  0  0  0  0  0  0  0  0
  134.3096  140.6324  159.7772 H   0  0  0  0  0  0  0  0  0  0  0  0
  135.0402  141.7381  161.4414 H   0  0  0  0  0  0  0  0  0  0  0  0
  134.2525  141.3360  162.9861 H   0  0  0  0  0  0  0  0  0  0  0  0
  135.9033  140.7598  162.6522 H   0  0  0  0  0  0  0  0  0  0  0  0
  134.9864  138.4272  163.1703 H   0  0  0  0  0  0  0  0  0  0  0  0
  133.2325  138.7013  163.0817 H   0  0  0  0  0  0  0  0  0  0  0  0
  133.6243  136.4536  162.2978 H   0  0  0  0  0  0  0  0  0  0  0  0
  134.9394  136.9957  161.2214 H   0  0  0  0  0  0  0  0  0  0  0  0
  127.0722  137.3967  164.2968 H   0  0  0  0  0  0  0  0  0  0  0  0
  128.5699  139.1418  165.1725 H   0  0  0  0  0  0  0  0  0  0  0  0
  1  2  1  0
  1 33  1  0
  1 34  1  0
  1 35  1  0
  2  3  1  0
  2 36  1  0
  2 37  1  0
  3 32  2  0
  3  4  1  0
  4  5  2  0
  4 38  1  0
  5  6  1  0
  5 39  1  0
  6  7  1  0
  6 31  2  0
  7  8  1  0
  7 40  1  0
  8 30  1  0
  8  9  2  0
  9 10  1  0
  9 41  1  0
 10 11  2  0
 10 42  1  0
 11 12  1  0
 11 30  1  0
 12 17  1  0
 12 13  2  0
 13 14  1  0
 14 15  1  0
 14 16  1  0
 16 17  2  0
 16 43  1  0
 17 18  1  0
 18 19  1  0
 18 44  1  0
 18 45  1  0
 19 20  1  0
 19 21  1  0
 19 22  1  0
 22 23  1  1
 22 29  1  0
 22 24  1  0
 24 25  1  0
 24 46  1  0
 24 47  1  0
 25 26  2  0
 25 48  1  0
 26 27  1  0
 26 28  1  0
 27 49  1  0
 27 50  1  0
 27 51  1  0
 28 29  1  0
 28 52  1  0
 28 53  1  0
 29 54  1  0
 29 55  1  0
 31 32  1  0
 31 56  1  0
 32 57  1  0
M  CHG  1  19   1
M  END
>  <DOCK_score>  (1) 
-45.594982

>  <SMILES>  (1) 
CCc1ccc(Nc2ccc(-c3n[nH]cc3C[NH2+][C@@H]3CC=C(C)CC3)o2)cc1

$$$$
