CC(C)[C@@H](Cc1ccc(F)cc1)Nc1[nH]cc(-c2ccc(-c3ccccc3)cc2)[nH+]1
     RDKit          3D

 57 60  0  0  1  0  0  0  0  0999 V2000
  132.6188  134.0032  162.2043 C   0  0  0  0  0  0  0  0  0  0  0  0
  132.5593  135.5247  162.0552 C   0  0  0  0  0  0  0  0  0  0  0  0
  133.7521  136.0029  161.2251 C   0  0  0  0  0  0  0  0  0  0  0  0
  131.2584  135.9177  161.3523 C   0  0  1  0  0  0  0  0  0  0  0  0
  130.4427  135.2977  161.7244 H   0  0  0  0  0  0  0  0  0  0  0  0
  130.9502  137.3894  161.6354 C   0  0  0  0  0  0  0  0  0  0  0  0
  130.3276  137.5184  163.0018 C   0  0  0  0  0  0  0  0  0  0  0  0
  128.9543  137.4486  163.1444 C   0  0  0  0  0  0  0  0  0  0  0  0
  128.3826  137.5611  164.3975 C   0  0  0  0  0  0  0  0  0  0  0  0
  129.1850  137.7559  165.5090 C   0  0  0  0  0  0  0  0  0  0  0  0
  128.6268  137.8725  166.7337 F   0  0  0  0  0  0  0  0  0  0  0  0
  130.5600  137.8315  165.3641 C   0  0  0  0  0  0  0  0  0  0  0  0
  131.1298  137.7125  164.1107 C   0  0  0  0  0  0  0  0  0  0  0  0
  131.4040  135.7182  159.9083 N   0  0  0  0  0  0  0  0  0  0  0  0
  131.0712  134.5002  159.3408 C   0  0  0  0  0  0  0  0  0  0  0  0
  130.5945  133.4167  160.0124 N   0  0  0  0  0  0  0  0  0  0  0  0
  130.4289  133.3593  160.9665 H   0  0  0  0  0  0  0  0  0  0  0  0
  130.3917  132.4192  159.0903 C   0  0  0  0  0  0  0  0  0  0  0  0
  130.7501  132.9215  157.8820 C   0  0  0  0  0  0  0  0  0  0  0  0
  130.7004  132.2003  156.5878 C   0  0  0  0  0  0  0  0  0  0  0  0
  129.9058  132.6855  155.5489 C   0  0  0  0  0  0  0  0  0  0  0  0
  129.8631  132.0177  154.3451 C   0  0  0  0  0  0  0  0  0  0  0  0
  130.6061  130.8516  154.1677 C   0  0  0  0  0  0  0  0  0  0  0  0
  130.5556  130.1288  152.8738 C   0  0  0  0  0  0  0  0  0  0  0  0
  130.7354  128.7470  152.8362 C   0  0  0  0  0  0  0  0  0  0  0  0
  130.6827  128.0797  151.6294 C   0  0  0  0  0  0  0  0  0  0  0  0
  130.4620  128.7805  150.4574 C   0  0  0  0  0  0  0  0  0  0  0  0
  130.2876  130.1525  150.4881 C   0  0  0  0  0  0  0  0  0  0  0  0
  130.3334  130.8298  151.6897 C   0  0  0  0  0  0  0  0  0  0  0  0
  131.3971  130.3631  155.2081 C   0  0  0  0  0  0  0  0  0  0  0  0
  131.4437  131.0334  156.4104 C   0  0  0  0  0  0  0  0  0  0  0  0
  131.1579  134.2024  158.0674 N   0  0  0  0  0  0  0  0  0  0  0  0
  131.4662  134.8012  157.3694 H   0  0  0  0  0  0  0  0  0  0  0  0
  132.5843  133.5398  161.2183 H   0  0  0  0  0  0  0  0  0  0  0  0
  133.5456  133.7232  162.7050 H   0  0  0  0  0  0  0  0  0  0  0  0
  131.7691  133.6625  162.7957 H   0  0  0  0  0  0  0  0  0  0  0  0
  132.5938  135.9881  163.0412 H   0  0  0  0  0  0  0  0  0  0  0  0
  133.7097  137.0869  161.1187 H   0  0  0  0  0  0  0  0  0  0  0  0
  134.6789  135.7228  161.7258 H   0  0  0  0  0  0  0  0  0  0  0  0
  133.7177  135.5396  160.2389 H   0  0  0  0  0  0  0  0  0  0  0  0
  131.8738  137.9671  161.6010 H   0  0  0  0  0  0  0  0  0  0  0  0
  130.2574  137.7667  160.8833 H   0  0  0  0  0  0  0  0  0  0  0  0
  128.3282  137.3019  162.2765 H   0  0  0  0  0  0  0  0  0  0  0  0
  127.3100  137.5025  164.5092 H   0  0  0  0  0  0  0  0  0  0  0  0
  131.1869  137.9836  166.2303 H   0  0  0  0  0  0  0  0  0  0  0  0
  132.2022  137.7713  163.9976 H   0  0  0  0  0  0  0  0  0  0  0  0
  131.7373  136.4383  159.3504 H   0  0  0  0  0  0  0  0  0  0  0  0
  130.0182  131.4255  159.2889 H   0  0  0  0  0  0  0  0  0  0  0  0
  129.3270  133.5867  155.6874 H   0  0  0  0  0  0  0  0  0  0  0  0
  129.2508  132.3952  153.5396 H   0  0  0  0  0  0  0  0  0  0  0  0
  130.9122  128.1993  153.7500 H   0  0  0  0  0  0  0  0  0  0  0  0
  130.8179  127.0086  151.5995 H   0  0  0  0  0  0  0  0  0  0  0  0
  130.4261  128.2548  149.5147 H   0  0  0  0  0  0  0  0  0  0  0  0
  130.1156  130.6947  149.5700 H   0  0  0  0  0  0  0  0  0  0  0  0
  130.1978  131.9011  151.7124 H   0  0  0  0  0  0  0  0  0  0  0  0
  131.9727  129.4597  155.0707 H   0  0  0  0  0  0  0  0  0  0  0  0
  132.0562  130.6556  157.2159 H   0  0  0  0  0  0  0  0  0  0  0  0
  1  2  1  0
  1 34  1  0
  1 35  1  0
  1 36  1  0
  2  3  1  0
  2  4  1  0
  2 37  1  0
  3 38  1  0
  3 39  1  0
  3 40  1  0
  4  5  1  1
  4  6  1  0
  4 14  1  0
  6  7  1  0
  6 41  1  0
  6 42  1  0
  7 13  1  0
  7  8  2  0
  8  9  1  0
  8 43  1  0
  9 10  2  0
  9 44  1  0
 10 11  1  0
 10 12  1  0
 12 13  2  0
 12 45  1  0
 13 46  1  0
 14 47  1  0
 15 14  1  0
 15 32  2  0
 15 16  1  0
 16 17  1  0
 16 18  1  0
 18 19  2  0
 18 48  1  0
 19 20  1  0
 19 32  1  0
 20 31  1  0
 20 21  2  0
 21 22  1  0
 21 49  1  0
 22 23  2  0
 22 50  1  0
 23 24  1  0
 23 30  1  0
 24 29  1  0
 24 25  2  0
 25 26  1  0
 25 51  1  0
 26 27  2  0
 26 52  1  0
 27 28  1  0
 27 53  1  0
 28 29  2  0
 28 54  1  0
 29 55  1  0
 30 31  2  0
 30 56  1  0
 31 57  1  0
 32 33  1  0
M  CHG  1  32   1
M  END
>  <DOCK_score>  (1) 
-56.131496

>  <SMILES>  (1) 
CC(C)[C@@H](Cc1ccc(F)cc1)Nc1[nH]cc(-c2ccc(-c3ccccc3)cc2)[nH+]1

$$$$
