Cc1c(N2CC[NH+]([C@@H](c3ccccc3)c3ccc(NC4CC4)cc3)CC2)ccc2c1CCC2
     RDKit          3D

 69 74  0  0  1  0  0  0  0  0999 V2000
  133.9311  134.9431  163.4816 C   0  0  0  0  0  0  0  0  0  0  0  0
  134.3949  135.9849  162.4964 C   0  0  0  0  0  0  0  0  0  0  0  0
  133.7838  136.0837  161.2540 C   0  0  0  0  0  0  0  0  0  0  0  0
  132.7405  135.2189  160.9155 N   0  0  0  0  0  0  0  0  0  0  0  0
  133.1136  134.3621  159.7811 C   0  0  0  0  0  0  0  0  0  0  0  0
  131.9693  133.3915  159.4809 C   0  0  0  0  0  0  0  0  0  0  0  0
  130.7530  134.1514  159.1636 N   0  0  0  0  0  0  0  0  0  0  0  0
  130.9246  134.7418  158.3636 H   0  0  0  0  0  0  0  0  0  0  0  0
  129.6594  133.2192  158.8579 C   0  0  1  0  0  0  0  0  0  0  0  0
  129.4741  132.5807  159.7216 H   0  0  0  0  0  0  0  0  0  0  0  0
  128.4114  133.9985  158.5322 C   0  0  0  0  0  0  0  0  0  0  0  0
  127.1685  133.4590  158.8060 C   0  0  0  0  0  0  0  0  0  0  0  0
  126.0237  134.1758  158.5114 C   0  0  0  0  0  0  0  0  0  0  0  0
  126.1217  135.4281  157.9343 C   0  0  0  0  0  0  0  0  0  0  0  0
  127.3645  135.9654  157.6557 C   0  0  0  0  0  0  0  0  0  0  0  0
  128.5093  135.2505  157.9545 C   0  0  0  0  0  0  0  0  0  0  0  0
  130.0420  132.3665  157.6757 C   0  0  0  0  0  0  0  0  0  0  0  0
  130.3257  132.9606  156.4595 C   0  0  0  0  0  0  0  0  0  0  0  0
  130.6821  132.1825  155.3756 C   0  0  0  0  0  0  0  0  0  0  0  0
  130.7444  130.8009  155.5050 C   0  0  0  0  0  0  0  0  0  0  0  0
  131.0994  130.0105  154.4094 N   0  0  0  0  0  0  0  0  0  0  0  0
  131.4065  130.6385  153.1221 C   0  0  0  0  0  0  0  0  0  0  0  0
  130.2282  131.0334  152.2296 C   0  0  0  0  0  0  0  0  0  0  0  0
  131.1042  129.8364  151.8547 C   0  0  0  0  0  0  0  0  0  0  0  0
  130.4533  130.2069  156.7267 C   0  0  0  0  0  0  0  0  0  0  0  0
  130.1030  130.9913  157.8079 C   0  0  0  0  0  0  0  0  0  0  0  0
  130.3791  134.9834  160.3148 C   0  0  0  0  0  0  0  0  0  0  0  0
  131.5102  135.9674  160.6218 C   0  0  0  0  0  0  0  0  0  0  0  0
  134.2095  137.0490  160.3508 C   0  0  0  0  0  0  0  0  0  0  0  0
  135.2408  137.9007  160.6906 C   0  0  0  0  0  0  0  0  0  0  0  0
  135.8540  137.7973  161.9285 C   0  0  0  0  0  0  0  0  0  0  0  0
  135.4323  136.8369  162.8303 C   0  0  0  0  0  0  0  0  0  0  0  0
  136.2546  136.9296  164.0978 C   0  0  0  0  0  0  0  0  0  0  0  0
  137.5032  137.7501  163.7104 C   0  0  0  0  0  0  0  0  0  0  0  0
  136.9881  138.6000  162.5297 C   0  0  0  0  0  0  0  0  0  0  0  0
  134.4978  134.0240  163.3324 H   0  0  0  0  0  0  0  0  0  0  0  0
  134.0897  135.3069  164.4968 H   0  0  0  0  0  0  0  0  0  0  0  0
  132.8703  134.7447  163.3284 H   0  0  0  0  0  0  0  0  0  0  0  0
  134.0123  133.7986  160.0312 H   0  0  0  0  0  0  0  0  0  0  0  0
  133.3043  134.9816  158.9048 H   0  0  0  0  0  0  0  0  0  0  0  0
  132.2383  132.7645  158.6307 H   0  0  0  0  0  0  0  0  0  0  0  0
  131.7878  132.7629  160.3528 H   0  0  0  0  0  0  0  0  0  0  0  0
  127.0918  132.4790  159.2534 H   0  0  0  0  0  0  0  0  0  0  0  0
  125.0527  133.7561  158.7292 H   0  0  0  0  0  0  0  0  0  0  0  0
  125.2273  135.9869  157.7017 H   0  0  0  0  0  0  0  0  0  0  0  0
  127.4411  136.9439  157.2049 H   0  0  0  0  0  0  0  0  0  0  0  0
  129.4803  135.6702  157.7368 H   0  0  0  0  0  0  0  0  0  0  0  0
  130.2724  134.0345  156.3583 H   0  0  0  0  0  0  0  0  0  0  0  0
  130.9078  132.6473  154.4273 H   0  0  0  0  0  0  0  0  0  0  0  0
  131.1426  129.0458  154.5011 H   0  0  0  0  0  0  0  0  0  0  0  0
  132.2847  131.2842  153.1116 H   0  0  0  0  0  0  0  0  0  0  0  0
  129.2243  130.8259  152.6004 H   0  0  0  0  0  0  0  0  0  0  0  0
  130.3308  131.9391  151.6320 H   0  0  0  0  0  0  0  0  0  0  0  0
  131.7834  129.9547  151.0104 H   0  0  0  0  0  0  0  0  0  0  0  0
  130.6773  128.8412  151.9788 H   0  0  0  0  0  0  0  0  0  0  0  0
  130.5004  129.1330  156.8305 H   0  0  0  0  0  0  0  0  0  0  0  0
  129.8762  130.5303  158.7579 H   0  0  0  0  0  0  0  0  0  0  0  0
  130.2058  134.3468  161.1823 H   0  0  0  0  0  0  0  0  0  0  0  0
  129.4692  135.5368  160.0827 H   0  0  0  0  0  0  0  0  0  0  0  0
  131.2392  136.5750  161.4854 H   0  0  0  0  0  0  0  0  0  0  0  0
  131.6745  136.6133  159.7594 H   0  0  0  0  0  0  0  0  0  0  0  0
  133.7347  137.1326  159.3844 H   0  0  0  0  0  0  0  0  0  0  0  0
  135.5716  138.6513  159.9880 H   0  0  0  0  0  0  0  0  0  0  0  0
  136.5453  135.9343  164.4338 H   0  0  0  0  0  0  0  0  0  0  0  0
  135.6925  137.4424  164.8784 H   0  0  0  0  0  0  0  0  0  0  0  0
  138.3138  137.0948  163.3915 H   0  0  0  0  0  0  0  0  0  0  0  0
  137.8203  138.3865  164.5366 H   0  0  0  0  0  0  0  0  0  0  0  0
  137.7797  138.7454  161.7946 H   0  0  0  0  0  0  0  0  0  0  0  0
  136.6220  139.5622  162.8876 H   0  0  0  0  0  0  0  0  0  0  0  0
  1  2  1  0
  1 36  1  0
  1 37  1  0
  1 38  1  0
  2 32  2  0
  2  3  1  0
  3  4  1  0
  3 29  2  0
  4 28  1  0
  4  5  1  0
  5  6  1  0
  5 39  1  0
  5 40  1  0
  6  7  1  0
  6 41  1  0
  6 42  1  0
  7  8  1  0
  7  9  1  0
  7 27  1  0
  9 10  1  1
  9 11  1  0
  9 17  1  0
 11 16  1  0
 11 12  2  0
 12 13  1  0
 12 43  1  0
 13 14  2  0
 13 44  1  0
 14 15  1  0
 14 45  1  0
 15 16  2  0
 15 46  1  0
 16 47  1  0
 17 26  1  0
 17 18  2  0
 18 19  1  0
 18 48  1  0
 19 20  2  0
 19 49  1  0
 20 21  1  0
 20 25  1  0
 21 22  1  0
 21 50  1  0
 22 24  1  0
 22 23  1  0
 22 51  1  0
 23 24  1  0
 23 52  1  0
 23 53  1  0
 24 54  1  0
 24 55  1  0
 25 26  2  0
 25 56  1  0
 26 57  1  0
 27 28  1  0
 27 58  1  0
 27 59  1  0
 28 60  1  0
 28 61  1  0
 29 30  1  0
 29 62  1  0
 30 31  2  0
 30 63  1  0
 31 35  1  0
 31 32  1  0
 32 33  1  0
 33 34  1  0
 33 64  1  0
 33 65  1  0
 34 35  1  0
 34 66  1  0
 34 67  1  0
 35 68  1  0
 35 69  1  0
M  CHG  1   7   1
M  END
>  <DOCK_score>  (1) 
-60.485653

>  <SMILES>  (1) 
Cc1c(N2CC[NH+]([C@@H](c3ccccc3)c3ccc(NC4CC4)cc3)CC2)ccc2c1CCC2

$$$$
