CCc1ccc(-c2c[nH]c(NC(C3=CCCCC3)[C@@H](Br)NC3=CCC(=O)N3)[nH+]2)cc1
     RDKit          3D

 59 62  0  0  1  0  0  0  0  0999 V2000
  131.5957  130.1092  152.2289 C   0  0  0  0  0  0  0  0  0  0  0  0
  130.4614  129.7246  153.1809 C   0  0  0  0  0  0  0  0  0  0  0  0
  130.5539  130.5561  154.4343 C   0  0  0  0  0  0  0  0  0  0  0  0
  129.8930  131.7684  154.5070 C   0  0  0  0  0  0  0  0  0  0  0  0
  129.9701  132.5319  155.6541 C   0  0  0  0  0  0  0  0  0  0  0  0
  130.7243  132.0837  156.7370 C   0  0  0  0  0  0  0  0  0  0  0  0
  130.8148  132.9019  157.9709 C   0  0  0  0  0  0  0  0  0  0  0  0
  130.4176  132.5230  159.2109 C   0  0  0  0  0  0  0  0  0  0  0  0
  130.6829  133.5751  160.0533 N   0  0  0  0  0  0  0  0  0  0  0  0
  130.5111  133.6044  161.0076 H   0  0  0  0  0  0  0  0  0  0  0  0
  131.2273  134.5703  159.3014 C   0  0  0  0  0  0  0  0  0  0  0  0
  131.6320  135.8075  159.7724 N   0  0  0  0  0  0  0  0  0  0  0  0
  131.4875  136.1334  161.1934 C   0  0  1  0  0  0  0  0  0  0  0  0
  132.5724  137.0968  161.6006 C   0  0  0  0  0  0  0  0  0  0  0  0
  133.7045  137.0355  160.9757 C   0  0  0  0  0  0  0  0  0  0  0  0
  134.8791  137.9202  161.2751 C   0  0  0  0  0  0  0  0  0  0  0  0
  134.4284  139.1390  162.0833 C   0  0  0  0  0  0  0  0  0  0  0  0
  133.5739  138.6519  163.2603 C   0  0  0  0  0  0  0  0  0  0  0  0
  132.2711  138.0717  162.7010 C   0  0  0  0  0  0  0  0  0  0  0  0
  130.1194  136.7750  161.4330 C   0  0  1  0  0  0  0  0  0  0  0  0
  130.0120  137.0174  162.4902 H   0  0  0  0  0  0  0  0  0  0  0  0
  129.9703  138.4190  160.3652 Br  0  0  0  0  0  0  0  0  0  0  0  0
  129.0648  135.8383  161.0373 N   0  0  0  0  0  0  0  0  0  0  0  0
  128.6929  134.8080  161.8933 C   0  0  0  0  0  0  0  0  0  0  0  0
  127.7491  133.9176  161.6134 C   0  0  0  0  0  0  0  0  0  0  0  0
  127.6710  132.9855  162.8051 C   0  0  0  0  0  0  0  0  0  0  0  0
  128.7155  133.5316  163.7578 C   0  0  0  0  0  0  0  0  0  0  0  0
  129.0028  133.0986  164.8537 O   0  0  0  0  0  0  0  0  0  0  0  0
  129.2599  134.5963  163.1375 N   0  0  0  0  0  0  0  0  0  0  0  0
  131.3046  134.1643  158.0576 N   0  0  0  0  0  0  0  0  0  0  0  0
  131.6554  134.6836  157.3172 H   0  0  0  0  0  0  0  0  0  0  0  0
  131.3928  130.8633  156.6565 C   0  0  0  0  0  0  0  0  0  0  0  0
  131.3048  130.1059  155.5062 C   0  0  0  0  0  0  0  0  0  0  0  0
  132.5549  129.9295  152.7144 H   0  0  0  0  0  0  0  0  0  0  0  0
  131.5289  129.5076  151.3224 H   0  0  0  0  0  0  0  0  0  0  0  0
  131.5110  131.1649  151.9715 H   0  0  0  0  0  0  0  0  0  0  0  0
  129.5027  129.9036  152.6958 H   0  0  0  0  0  0  0  0  0  0  0  0
  130.5468  128.6681  153.4388 H   0  0  0  0  0  0  0  0  0  0  0  0
  129.3119  132.1165  153.6660 H   0  0  0  0  0  0  0  0  0  0  0  0
  129.4497  133.4766  155.7112 H   0  0  0  0  0  0  0  0  0  0  0  0
  129.9788  131.5748  159.4840 H   0  0  0  0  0  0  0  0  0  0  0  0
  132.0111  136.4587  159.1615 H   0  0  0  0  0  0  0  0  0  0  0  0
  131.5701  135.2219  161.7854 H   0  0  0  0  0  0  0  0  0  0  0  0
  133.8100  136.3023  160.1898 H   0  0  0  0  0  0  0  0  0  0  0  0
  135.6170  137.3592  161.8487 H   0  0  0  0  0  0  0  0  0  0  0  0
  135.3285  138.2531  160.3395 H   0  0  0  0  0  0  0  0  0  0  0  0
  135.3015  139.6719  162.4602 H   0  0  0  0  0  0  0  0  0  0  0  0
  133.8401  139.8022  161.4489 H   0  0  0  0  0  0  0  0  0  0  0  0
  134.1145  137.8829  163.8121 H   0  0  0  0  0  0  0  0  0  0  0  0
  133.3504  139.4888  163.9218 H   0  0  0  0  0  0  0  0  0  0  0  0
  131.6513  138.8782  162.3095 H   0  0  0  0  0  0  0  0  0  0  0  0
  131.7334  137.5603  163.4994 H   0  0  0  0  0  0  0  0  0  0  0  0
  128.6259  135.9370  160.1778 H   0  0  0  0  0  0  0  0  0  0  0  0
  127.1553  133.8664  160.7128 H   0  0  0  0  0  0  0  0  0  0  0  0
  127.9153  131.9643  162.5132 H   0  0  0  0  0  0  0  0  0  0  0  0
  126.6805  133.0267  163.2582 H   0  0  0  0  0  0  0  0  0  0  0  0
  129.9625  135.1473  163.5167 H   0  0  0  0  0  0  0  0  0  0  0  0
  131.9790  130.5113  157.4925 H   0  0  0  0  0  0  0  0  0  0  0  0
  131.8223  129.1601  155.4428 H   0  0  0  0  0  0  0  0  0  0  0  0
  1  2  1  0
  1 34  1  0
  1 35  1  0
  1 36  1  0
  2  3  1  0
  2 37  1  0
  2 38  1  0
  3 33  2  0
  3  4  1  0
  4  5  2  0
  4 39  1  0
  5  6  1  0
  5 40  1  0
  6  7  1  0
  6 32  2  0
  7 30  1  0
  7  8  2  0
  8  9  1  0
  8 41  1  0
  9 10  1  0
  9 11  1  0
 11 12  1  0
 11 30  2  0
 12 13  1  0
 12 42  1  0
 13 14  1  0
 13 20  1  0
 13 43  1  1
 14 19  1  0
 14 15  2  0
 15 16  1  0
 15 44  1  0
 16 17  1  0
 16 45  1  0
 16 46  1  0
 17 18  1  0
 17 47  1  0
 17 48  1  0
 18 19  1  0
 18 49  1  0
 18 50  1  0
 19 51  1  0
 19 52  1  0
 20 21  1  1
 20 22  1  0
 20 23  1  0
 23 24  1  0
 23 53  1  0
 24 29  1  0
 24 25  2  0
 25 26  1  0
 25 54  1  0
 26 27  1  0
 26 55  1  0
 26 56  1  0
 27 28  2  0
 27 29  1  0
 29 57  1  0
 30 31  1  0
 32 33  1  0
 32 58  1  0
 33 59  1  0
M  CHG  1  30   1
M  END
>  <DOCK_score>  (1) 
-56.082489

>  <SMILES>  (1) 
CCc1ccc(-c2c[nH]c(NC(C3=CCCCC3)[C@@H](Br)NC3=CCC(=O)N3)[nH+]2)cc1

$$$$
