Cc1cc([C@H](C=C2C=CCCC=C2)Nc2[nH]c(-c3ccccc3)c(C)[nH+]2)no1
     RDKit          3D

 53 56  0  0  1  0  0  0  0  0999 V2000
  125.0667  133.6145  159.9447 C   0  0  0  0  0  0  0  0  0  0  0  0
  126.3299  134.3735  159.6296 C   0  0  0  0  0  0  0  0  0  0  0  0
  127.4618  134.4085  160.3729 C   0  0  0  0  0  0  0  0  0  0  0  0
  128.3262  135.2531  159.6393 C   0  0  0  0  0  0  0  0  0  0  0  0
  129.7336  135.6449  160.0091 C   0  0  2  0  0  0  0  0  0  0  0  0
  130.0062  135.1726  160.9529 H   0  0  0  0  0  0  0  0  0  0  0  0
  129.8162  137.1426  160.1547 C   0  0  0  0  0  0  0  0  0  0  0  0
  130.6964  137.6866  161.0111 C   0  0  0  0  0  0  0  0  0  0  0  0
  131.5852  136.8163  161.8203 C   0  0  0  0  0  0  0  0  0  0  0  0
  132.8775  136.9517  161.6567 C   0  0  0  0  0  0  0  0  0  0  0  0
  133.4625  137.9409  160.6964 C   0  0  0  0  0  0  0  0  0  0  0  0
  133.3089  139.3701  161.1808 C   0  0  0  0  0  0  0  0  0  0  0  0
  131.8876  139.8181  161.2347 C   0  0  0  0  0  0  0  0  0  0  0  0
  130.7803  139.1473  161.1562 C   0  0  0  0  0  0  0  0  0  0  0  0
  130.6551  135.2049  158.9586 N   0  0  0  0  0  0  0  0  0  0  0  0
  130.4773  133.9740  158.3541 C   0  0  0  0  0  0  0  0  0  0  0  0
  130.8130  133.6641  157.0727 N   0  0  0  0  0  0  0  0  0  0  0  0
  131.2195  134.2580  156.4222 H   0  0  0  0  0  0  0  0  0  0  0  0
  130.4629  132.3398  156.8741 C   0  0  0  0  0  0  0  0  0  0  0  0
  130.6357  131.5571  155.6324 C   0  0  0  0  0  0  0  0  0  0  0  0
  131.4286  130.4081  155.6326 C   0  0  0  0  0  0  0  0  0  0  0  0
  131.5802  129.6784  154.4716 C   0  0  0  0  0  0  0  0  0  0  0  0
  130.9594  130.0909  153.3056 C   0  0  0  0  0  0  0  0  0  0  0  0
  130.1769  131.2317  153.2973 C   0  0  0  0  0  0  0  0  0  0  0  0
  130.0114  131.9668  154.4529 C   0  0  0  0  0  0  0  0  0  0  0  0
  129.9289  131.8998  158.0435 C   0  0  0  0  0  0  0  0  0  0  0  0
  129.4032  130.5125  158.3083 C   0  0  0  0  0  0  0  0  0  0  0  0
  129.9513  132.9119  158.9203 N   0  0  0  0  0  0  0  0  0  0  0  0
  129.6285  132.8675  159.8340 H   0  0  0  0  0  0  0  0  0  0  0  0
  127.6636  135.6297  158.5840 N   0  0  0  0  0  0  0  0  0  0  0  0
  126.5553  135.1470  158.5584 O   0  0  0  0  0  0  0  0  0  0  0  0
  124.4006  134.2457  160.5329 H   0  0  0  0  0  0  0  0  0  0  0  0
  124.5721  133.3307  159.0158 H   0  0  0  0  0  0  0  0  0  0  0  0
  125.3138  132.7180  160.5134 H   0  0  0  0  0  0  0  0  0  0  0  0
  127.6586  133.9068  161.3088 H   0  0  0  0  0  0  0  0  0  0  0  0
  129.1676  137.7787  159.5704 H   0  0  0  0  0  0  0  0  0  0  0  0
  131.1786  136.0985  162.5172 H   0  0  0  0  0  0  0  0  0  0  0  0
  133.5436  136.3294  162.2361 H   0  0  0  0  0  0  0  0  0  0  0  0
  132.9617  137.8380  159.7337 H   0  0  0  0  0  0  0  0  0  0  0  0
  134.5227  137.7235  160.5666 H   0  0  0  0  0  0  0  0  0  0  0  0
  133.8591  140.0292  160.5092 H   0  0  0  0  0  0  0  0  0  0  0  0
  133.7402  139.4506  162.1786 H   0  0  0  0  0  0  0  0  0  0  0  0
  131.7581  140.8829  161.3603 H   0  0  0  0  0  0  0  0  0  0  0  0
  129.8541  139.7012  161.2001 H   0  0  0  0  0  0  0  0  0  0  0  0
  131.3898  135.7771  158.6871 H   0  0  0  0  0  0  0  0  0  0  0  0
  131.9178  130.0882  156.5406 H   0  0  0  0  0  0  0  0  0  0  0  0
  132.1891  128.7864  154.4715 H   0  0  0  0  0  0  0  0  0  0  0  0
  131.0850  129.5183  152.3985 H   0  0  0  0  0  0  0  0  0  0  0  0
  129.6945  131.5476  152.3842 H   0  0  0  0  0  0  0  0  0  0  0  0
  129.4002  132.8572  154.4451 H   0  0  0  0  0  0  0  0  0  0  0  0
  128.3434  130.4714  158.0568 H   0  0  0  0  0  0  0  0  0  0  0  0
  129.9497  129.7940  157.6974 H   0  0  0  0  0  0  0  0  0  0  0  0
  129.5362  130.2687  159.3624 H   0  0  0  0  0  0  0  0  0  0  0  0
  1  2  1  0
  1 32  1  0
  1 33  1  0
  1 34  1  0
  2 31  1  0
  2  3  2  0
  3  4  1  0
  3 35  1  0
  4  5  1  0
  4 30  2  0
  5  6  1  1
  5  7  1  0
  5 15  1  0
  7  8  2  0
  7 36  1  0
  8 14  1  0
  8  9  1  0
  9 10  2  0
  9 37  1  0
 10 11  1  0
 10 38  1  0
 11 12  1  0
 11 39  1  0
 11 40  1  0
 12 13  1  0
 12 41  1  0
 12 42  1  0
 13 14  2  0
 13 43  1  0
 14 44  1  0
 15 45  1  0
 16 15  1  0
 16 28  2  0
 16 17  1  0
 17 18  1  0
 17 19  1  0
 19 20  1  0
 19 26  2  0
 20 25  1  0
 20 21  2  0
 21 22  1  0
 21 46  1  0
 22 23  2  0
 22 47  1  0
 23 24  1  0
 23 48  1  0
 24 25  2  0
 24 49  1  0
 25 50  1  0
 26 27  1  0
 26 28  1  0
 27 51  1  0
 27 52  1  0
 27 53  1  0
 28 29  1  0
 30 31  1  0
M  CHG  1  28   1
M  END
>  <DOCK_score>  (1) 
-56.752377

>  <SMILES>  (1) 
Cc1cc([C@H](C=C2C=CCCC=C2)Nc2[nH]c(-c3ccccc3)c(C)[nH+]2)no1

$$$$
