Nc1ccc(Nc2[nH]cc(COc3n[nH]cc3CNc3nc(-c4ccc(N)cc4)c[nH]3)[nH+]2)cc1
     RDKit          3D

 59 63  0  0  1  0  0  0  0  0999 V2000
  125.0462  132.7027  160.2607 N   0  0  0  0  0  0  0  0  0  0  0  0
  126.2076  133.4150  159.9403 C   0  0  0  0  0  0  0  0  0  0  0  0
  126.3666  134.7206  160.3860 C   0  0  0  0  0  0  0  0  0  0  0  0
  127.5100  135.4251  160.0655 C   0  0  0  0  0  0  0  0  0  0  0  0
  128.5058  134.8243  159.3064 C   0  0  0  0  0  0  0  0  0  0  0  0
  129.6678  135.5373  158.9854 N   0  0  0  0  0  0  0  0  0  0  0  0
  130.4860  136.0189  159.9944 C   0  0  0  0  0  0  0  0  0  0  0  0
  130.2781  135.8632  161.3300 N   0  0  0  0  0  0  0  0  0  0  0  0
  129.5366  135.3983  161.7482 H   0  0  0  0  0  0  0  0  0  0  0  0
  131.3199  136.4897  161.9752 C   0  0  0  0  0  0  0  0  0  0  0  0
  132.1197  137.0010  161.0236 C   0  0  0  0  0  0  0  0  0  0  0  0
  133.3898  137.7763  161.2613 C   0  0  0  0  0  0  0  0  0  0  0  0
  133.1733  138.7401  162.2942 O   0  0  0  0  0  0  0  0  0  0  0  0
  134.2279  139.5287  162.6335 C   0  0  0  0  0  0  0  0  0  0  0  0
  135.4246  139.4856  162.0997 N   0  0  0  0  0  0  0  0  0  0  0  0
  136.2175  140.4565  162.7250 N   0  0  0  0  0  0  0  0  0  0  0  0
  137.1481  140.6457  162.5280 H   0  0  0  0  0  0  0  0  0  0  0  0
  135.4594  141.0825  163.6494 C   0  0  0  0  0  0  0  0  0  0  0  0
  134.2232  140.5344  163.6116 C   0  0  0  0  0  0  0  0  0  0  0  0
  133.0502  140.9311  164.4705 C   0  0  0  0  0  0  0  0  0  0  0  0
  133.0547  140.1356  165.7007 N   0  0  0  0  0  0  0  0  0  0  0  0
  131.9771  139.3204  166.0020 C   0  0  0  0  0  0  0  0  0  0  0  0
  130.9001  139.1766  165.2687 N   0  0  0  0  0  0  0  0  0  0  0  0
  130.0618  138.3001  165.8766 C   0  0  0  0  0  0  0  0  0  0  0  0
  128.7367  137.8655  165.3709 C   0  0  0  0  0  0  0  0  0  0  0  0
  127.9781  136.9496  166.0981 C   0  0  0  0  0  0  0  0  0  0  0  0
  126.7443  136.5510  165.6288 C   0  0  0  0  0  0  0  0  0  0  0  0
  126.2618  137.0533  164.4260 C   0  0  0  0  0  0  0  0  0  0  0  0
  125.0139  136.6440  163.9497 N   0  0  0  0  0  0  0  0  0  0  0  0
  127.0187  137.9625  163.6966 C   0  0  0  0  0  0  0  0  0  0  0  0
  128.2508  138.3680  164.1648 C   0  0  0  0  0  0  0  0  0  0  0  0
  130.6498  137.8914  167.0281 C   0  0  0  0  0  0  0  0  0  0  0  0
  131.8638  138.5318  167.1051 N   0  0  0  0  0  0  0  0  0  0  0  0
  132.5177  138.4405  167.8157 H   0  0  0  0  0  0  0  0  0  0  0  0
  131.5961  136.6977  159.8240 N   0  0  0  0  0  0  0  0  0  0  0  0
  131.9773  136.9438  158.9668 H   0  0  0  0  0  0  0  0  0  0  0  0
  128.3465  133.5189  158.8603 C   0  0  0  0  0  0  0  0  0  0  0  0
  127.2007  132.8163  159.1763 C   0  0  0  0  0  0  0  0  0  0  0  0
  124.3523  133.1210  160.7941 H   0  0  0  0  0  0  0  0  0  0  0  0
  124.9350  131.7908  159.9494 H   0  0  0  0  0  0  0  0  0  0  0  0
  125.5940  135.1865  160.9796 H   0  0  0  0  0  0  0  0  0  0  0  0
  127.6320  136.4418  160.4088 H   0  0  0  0  0  0  0  0  0  0  0  0
  129.8997  135.6940  158.0566 H   0  0  0  0  0  0  0  0  0  0  0  0
  131.4668  136.5579  163.0431 H   0  0  0  0  0  0  0  0  0  0  0  0
  134.1823  137.0917  161.5635 H   0  0  0  0  0  0  0  0  0  0  0  0
  133.6810  138.2869  160.3435 H   0  0  0  0  0  0  0  0  0  0  0  0
  135.7810  141.8824  164.3000 H   0  0  0  0  0  0  0  0  0  0  0  0
  133.1252  141.9891  164.7218 H   0  0  0  0  0  0  0  0  0  0  0  0
  132.1235  140.7519  163.9254 H   0  0  0  0  0  0  0  0  0  0  0  0
  133.8129  140.1801  166.3042 H   0  0  0  0  0  0  0  0  0  0  0  0
  128.3546  136.5556  167.0306 H   0  0  0  0  0  0  0  0  0  0  0  0
  126.1544  135.8446  166.1939 H   0  0  0  0  0  0  0  0  0  0  0  0
  124.6763  136.9944  163.1106 H   0  0  0  0  0  0  0  0  0  0  0  0
  124.4850  136.0095  164.4583 H   0  0  0  0  0  0  0  0  0  0  0  0
  126.6418  138.3516  162.7622 H   0  0  0  0  0  0  0  0  0  0  0  0
  128.8387  139.0744  163.5976 H   0  0  0  0  0  0  0  0  0  0  0  0
  130.2442  137.1926  167.7448 H   0  0  0  0  0  0  0  0  0  0  0  0
  129.1191  133.0531  158.2664 H   0  0  0  0  0  0  0  0  0  0  0  0
  127.0768  131.8011  158.8291 H   0  0  0  0  0  0  0  0  0  0  0  0
  1  2  1  0
  1 39  1  0
  1 40  1  0
  2 38  2  0
  2  3  1  0
  3  4  2  0
  3 41  1  0
  4  5  1  0
  4 42  1  0
  5  6  1  0
  5 37  2  0
  6 43  1  0
  7  6  1  0
  7 35  2  0
  7  8  1  0
  8  9  1  0
  8 10  1  0
 10 11  2  0
 10 44  1  0
 11 12  1  0
 11 35  1  0
 12 13  1  0
 12 45  1  0
 12 46  1  0
 13 14  1  0
 14 19  1  0
 14 15  2  0
 15 16  1  0
 16 17  1  0
 16 18  1  0
 18 19  2  0
 18 47  1  0
 19 20  1  0
 20 21  1  0
 20 48  1  0
 20 49  1  0
 21 22  1  0
 21 50  1  0
 22 33  1  0
 22 23  2  0
 23 24  1  0
 24 25  1  0
 24 32  2  0
 25 31  1  0
 25 26  2  0
 26 27  1  0
 26 51  1  0
 27 28  2  0
 27 52  1  0
 28 29  1  0
 28 30  1  0
 29 53  1  0
 29 54  1  0
 30 31  2  0
 30 55  1  0
 31 56  1  0
 32 33  1  0
 32 57  1  0
 33 34  1  0
 35 36  1  0
 37 38  1  0
 37 58  1  0
 38 59  1  0
M  CHG  1  35   1
M  END
>  <DOCK_score>  (1) 
-42.990948

>  <SMILES>  (1) 
Nc1ccc(Nc2[nH]cc(COc3n[nH]cc3CNc3nc(-c4ccc(N)cc4)c[nH]3)[nH+]2)cc1

$$$$
