Nc1ccc(-c2cccc(N3CC[NH+](C(c4ccccc4)c4ccccc4)CC3)c2)cc1
     RDKit          3D

 62 66  0  0  0  0  0  0  0  0999 V2000
  137.3371  141.7156  167.0694 N   0  0  0  0  0  0  0  0  0  0  0  0
  136.7962  141.2623  165.8652 C   0  0  0  0  0  0  0  0  0  0  0  0
  136.4341  139.9274  165.7259 C   0  0  0  0  0  0  0  0  0  0  0  0
  135.8944  139.4788  164.5394 C   0  0  0  0  0  0  0  0  0  0  0  0
  135.7226  140.3624  163.4748 C   0  0  0  0  0  0  0  0  0  0  0  0
  135.1477  139.8805  162.1950 C   0  0  0  0  0  0  0  0  0  0  0  0
  135.5203  140.4790  160.9921 C   0  0  0  0  0  0  0  0  0  0  0  0
  134.9848  140.0295  159.8019 C   0  0  0  0  0  0  0  0  0  0  0  0
  134.0784  138.9860  159.7974 C   0  0  0  0  0  0  0  0  0  0  0  0
  133.7008  138.3837  160.9915 C   0  0  0  0  0  0  0  0  0  0  0  0
  132.7845  137.3294  160.9832 N   0  0  0  0  0  0  0  0  0  0  0  0
  133.3244  136.1680  160.2621 C   0  0  0  0  0  0  0  0  0  0  0  0
  132.3172  135.0177  160.3270 C   0  0  0  0  0  0  0  0  0  0  0  0
  131.0476  135.4437  159.7234 N   0  0  0  0  0  0  0  0  0  0  0  0
  131.2051  135.7119  158.7635 H   0  0  0  0  0  0  0  0  0  0  0  0
  130.0870  134.3333  159.7696 C   0  0  0  0  0  0  0  0  0  0  0  0
  128.7842  134.7701  159.1505 C   0  0  0  0  0  0  0  0  0  0  0  0
  127.5936  134.2167  159.5829 C   0  0  0  0  0  0  0  0  0  0  0  0
  126.3984  134.6210  159.0183 C   0  0  0  0  0  0  0  0  0  0  0  0
  126.3941  135.5706  158.0147 C   0  0  0  0  0  0  0  0  0  0  0  0
  127.5856  136.1203  157.5780 C   0  0  0  0  0  0  0  0  0  0  0  0
  128.7804  135.7200  158.1462 C   0  0  0  0  0  0  0  0  0  0  0  0
  130.6389  133.1592  159.0029 C   0  0  0  0  0  0  0  0  0  0  0  0
  130.3679  133.0255  157.6539 C   0  0  0  0  0  0  0  0  0  0  0  0
  130.8782  131.9513  156.9496 C   0  0  0  0  0  0  0  0  0  0  0  0
  131.6508  131.0048  157.5964 C   0  0  0  0  0  0  0  0  0  0  0  0
  131.9175  131.1357  158.9465 C   0  0  0  0  0  0  0  0  0  0  0  0
  131.4116  132.2129  159.6498 C   0  0  0  0  0  0  0  0  0  0  0  0
  130.5087  136.5885  160.4693 C   0  0  0  0  0  0  0  0  0  0  0  0
  131.5008  137.7519  160.4055 C   0  0  0  0  0  0  0  0  0  0  0  0
  134.2387  138.8260  162.1913 C   0  0  0  0  0  0  0  0  0  0  0  0
  136.0915  141.6994  163.6148 C   0  0  0  0  0  0  0  0  0  0  0  0
  136.6253  142.1451  164.8050 C   0  0  0  0  0  0  0  0  0  0  0  0
  137.5935  142.6460  167.1658 H   0  0  0  0  0  0  0  0  0  0  0  0
  137.4529  141.1010  167.8108 H   0  0  0  0  0  0  0  0  0  0  0  0
  136.5721  139.2421  166.5492 H   0  0  0  0  0  0  0  0  0  0  0  0
  135.6089  138.4427  164.4330 H   0  0  0  0  0  0  0  0  0  0  0  0
  136.2285  141.2944  160.9915 H   0  0  0  0  0  0  0  0  0  0  0  0
  135.2752  140.4944  158.8713 H   0  0  0  0  0  0  0  0  0  0  0  0
  133.6623  138.6380  158.8635 H   0  0  0  0  0  0  0  0  0  0  0  0
  133.5026  136.4371  159.2210 H   0  0  0  0  0  0  0  0  0  0  0  0
  134.2617  135.8572  160.7234 H   0  0  0  0  0  0  0  0  0  0  0  0
  132.1496  134.7399  161.3676 H   0  0  0  0  0  0  0  0  0  0  0  0
  132.7096  134.1600  159.7807 H   0  0  0  0  0  0  0  0  0  0  0  0
  129.9171  134.0427  160.8064 H   0  0  0  0  0  0  0  0  0  0  0  0
  127.5969  133.4715  160.3645 H   0  0  0  0  0  0  0  0  0  0  0  0
  125.4678  134.1914  159.3588 H   0  0  0  0  0  0  0  0  0  0  0  0
  125.4611  135.8833  157.5699 H   0  0  0  0  0  0  0  0  0  0  0  0
  127.5827  136.8621  156.7930 H   0  0  0  0  0  0  0  0  0  0  0  0
  129.7112  136.1490  157.8051 H   0  0  0  0  0  0  0  0  0  0  0  0
  129.7606  133.7625  157.1496 H   0  0  0  0  0  0  0  0  0  0  0  0
  130.6696  131.8487  155.8949 H   0  0  0  0  0  0  0  0  0  0  0  0
  132.0459  130.1631  157.0471 H   0  0  0  0  0  0  0  0  0  0  0  0
  132.5210  130.3962  159.4520 H   0  0  0  0  0  0  0  0  0  0  0  0
  131.6196  132.3150  160.7046 H   0  0  0  0  0  0  0  0  0  0  0  0
  130.3502  136.3026  161.5091 H   0  0  0  0  0  0  0  0  0  0  0  0
  129.5602  136.8953  160.0283 H   0  0  0  0  0  0  0  0  0  0  0  0
  131.1077  138.5965  160.9714 H   0  0  0  0  0  0  0  0  0  0  0  0
  131.6489  138.0470  159.3667 H   0  0  0  0  0  0  0  0  0  0  0  0
  133.9503  138.3563  163.1200 H   0  0  0  0  0  0  0  0  0  0  0  0
  135.9590  142.3855  162.7914 H   0  0  0  0  0  0  0  0  0  0  0  0
  136.9113  143.1810  164.9139 H   0  0  0  0  0  0  0  0  0  0  0  0
  1  2  1  0
  1 34  1  0
  1 35  1  0
  2 33  2  0
  2  3  1  0
  3  4  2  0
  3 36  1  0
  4  5  1  0
  4 37  1  0
  5  6  1  0
  5 32  2  0
  6 31  1  0
  6  7  2  0
  7  8  1  0
  7 38  1  0
  8  9  2  0
  8 39  1  0
  9 10  1  0
  9 40  1  0
 10 11  1  0
 10 31  2  0
 11 30  1  0
 11 12  1  0
 12 13  1  0
 12 41  1  0
 12 42  1  0
 13 14  1  0
 13 43  1  0
 13 44  1  0
 14 15  1  0
 14 16  1  0
 14 29  1  0
 16 17  1  0
 16 23  1  0
 16 45  1  0
 17 22  1  0
 17 18  2  0
 18 19  1  0
 18 46  1  0
 19 20  2  0
 19 47  1  0
 20 21  1  0
 20 48  1  0
 21 22  2  0
 21 49  1  0
 22 50  1  0
 23 28  1  0
 23 24  2  0
 24 25  1  0
 24 51  1  0
 25 26  2  0
 25 52  1  0
 26 27  1  0
 26 53  1  0
 27 28  2  0
 27 54  1  0
 28 55  1  0
 29 30  1  0
 29 56  1  0
 29 57  1  0
 30 58  1  0
 30 59  1  0
 31 60  1  0
 32 33  1  0
 32 61  1  0
 33 62  1  0
M  CHG  1  14   1
M  END
>  <DOCK_score>  (1) 
-60.877567

>  <SMILES>  (1) 
Nc1ccc(-c2cccc(N3CC[NH+](C(c4ccccc4)c4ccccc4)CC3)c2)cc1

$$$$
