Cc1coc2c(-c3ccc([C@H](C)CNc4[nH]cc(-c5ccc(Br)cc5)[nH+]4)cc3)cccc12
     RDKit          3D

 57 61  0  0  1  0  0  0  0  0999 V2000
  139.5319  136.9418  166.9602 C   0  0  0  0  0  0  0  0  0  0  0  0
  138.3011  136.8493  166.0956 C   0  0  0  0  0  0  0  0  0  0  0  0
  137.1994  137.6073  166.1803 C   0  0  0  0  0  0  0  0  0  0  0  0
  136.3095  137.2357  165.2437 O   0  0  0  0  0  0  0  0  0  0  0  0
  136.7884  136.2170  164.5031 C   0  0  0  0  0  0  0  0  0  0  0  0
  136.2722  135.4820  163.4294 C   0  0  0  0  0  0  0  0  0  0  0  0
  134.9218  135.7886  162.8983 C   0  0  0  0  0  0  0  0  0  0  0  0
  133.8025  135.1391  163.4157 C   0  0  0  0  0  0  0  0  0  0  0  0
  132.5479  135.4319  162.9208 C   0  0  0  0  0  0  0  0  0  0  0  0
  132.4014  136.3594  161.9050 C   0  0  0  0  0  0  0  0  0  0  0  0
  131.0294  136.6702  161.3646 C   0  0  2  0  0  0  0  0  0  0  0  0
  131.1104  137.4180  160.5758 H   0  0  0  0  0  0  0  0  0  0  0  0
  130.1477  137.2114  162.4917 C   0  0  0  0  0  0  0  0  0  0  0  0
  130.4043  135.3947  160.7959 C   0  0  0  0  0  0  0  0  0  0  0  0
  130.9436  135.1412  159.4577 N   0  0  0  0  0  0  0  0  0  0  0  0
  130.5228  134.0346  158.7399 C   0  0  0  0  0  0  0  0  0  0  0  0
  129.6218  133.1085  159.1671 N   0  0  0  0  0  0  0  0  0  0  0  0
  129.1627  133.1050  160.0215 H   0  0  0  0  0  0  0  0  0  0  0  0
  129.4801  132.1812  158.1634 C   0  0  0  0  0  0  0  0  0  0  0  0
  130.3042  132.5624  157.1562 C   0  0  0  0  0  0  0  0  0  0  0  0
  130.4880  131.8569  155.8644 C   0  0  0  0  0  0  0  0  0  0  0  0
  130.1955  132.5053  154.6658 C   0  0  0  0  0  0  0  0  0  0  0  0
  130.3734  131.8463  153.4664 C   0  0  0  0  0  0  0  0  0  0  0  0
  130.8309  130.5401  153.4529 C   0  0  0  0  0  0  0  0  0  0  0  0
  131.0653  129.6409  151.8060 Br  0  0  0  0  0  0  0  0  0  0  0  0
  131.1178  129.8898  154.6407 C   0  0  0  0  0  0  0  0  0  0  0  0
  130.9484  130.5415  155.8453 C   0  0  0  0  0  0  0  0  0  0  0  0
  130.9307  133.7032  157.5392 N   0  0  0  0  0  0  0  0  0  0  0  0
  131.5775  134.1948  157.0093 H   0  0  0  0  0  0  0  0  0  0  0  0
  133.5094  137.0024  161.3834 C   0  0  0  0  0  0  0  0  0  0  0  0
  134.7682  136.7218  161.8745 C   0  0  0  0  0  0  0  0  0  0  0  0
  137.0305  134.4637  162.8639 C   0  0  0  0  0  0  0  0  0  0  0  0
  138.2943  134.1735  163.3508 C   0  0  0  0  0  0  0  0  0  0  0  0
  138.8139  134.8848  164.4108 C   0  0  0  0  0  0  0  0  0  0  0  0
  138.0677  135.9108  164.9911 C   0  0  0  0  0  0  0  0  0  0  0  0
  140.2409  137.6367  166.5101 H   0  0  0  0  0  0  0  0  0  0  0  0
  139.2535  137.2984  167.9518 H   0  0  0  0  0  0  0  0  0  0  0  0
  139.9917  135.9570  167.0442 H   0  0  0  0  0  0  0  0  0  0  0  0
  137.0485  138.4016  166.8965 H   0  0  0  0  0  0  0  0  0  0  0  0
  133.9163  134.4115  164.2057 H   0  0  0  0  0  0  0  0  0  0  0  0
  131.6793  134.9328  163.3244 H   0  0  0  0  0  0  0  0  0  0  0  0
  130.0666  136.4636  163.2807 H   0  0  0  0  0  0  0  0  0  0  0  0
  130.5930  138.1200  162.8969 H   0  0  0  0  0  0  0  0  0  0  0  0
  129.1553  137.4362  162.1008 H   0  0  0  0  0  0  0  0  0  0  0  0
  130.6390  134.5532  161.4478 H   0  0  0  0  0  0  0  0  0  0  0  0
  129.3229  135.5161  160.7348 H   0  0  0  0  0  0  0  0  0  0  0  0
  131.5956  135.7485  159.0745 H   0  0  0  0  0  0  0  0  0  0  0  0
  128.8384  131.3125  158.1758 H   0  0  0  0  0  0  0  0  0  0  0  0
  129.8343  133.5229  154.6754 H   0  0  0  0  0  0  0  0  0  0  0  0
  130.1509  132.3492  152.5369 H   0  0  0  0  0  0  0  0  0  0  0  0
  131.4744  128.8705  154.6248 H   0  0  0  0  0  0  0  0  0  0  0  0
  131.1726  130.0333  156.7715 H   0  0  0  0  0  0  0  0  0  0  0  0
  133.3891  137.7257  160.5903 H   0  0  0  0  0  0  0  0  0  0  0  0
  135.6326  137.2245  161.4664 H   0  0  0  0  0  0  0  0  0  0  0  0
  136.6327  133.8966  162.0352 H   0  0  0  0  0  0  0  0  0  0  0  0
  138.8749  133.3827  162.8993 H   0  0  0  0  0  0  0  0  0  0  0  0
  139.7984  134.6514  164.7886 H   0  0  0  0  0  0  0  0  0  0  0  0
  1  2  1  0
  1 36  1  0
  1 37  1  0
  1 38  1  0
  2 35  1  0
  2  3  2  0
  3  4  1  0
  3 39  1  0
  4  5  1  0
  5 35  2  0
  5  6  1  0
  6  7  1  0
  6 32  2  0
  7 31  1  0
  7  8  2  0
  8  9  1  0
  8 40  1  0
  9 10  2  0
  9 41  1  0
 10 11  1  0
 10 30  1  0
 11 12  1  6
 11 13  1  0
 11 14  1  0
 13 42  1  0
 13 43  1  0
 13 44  1  0
 14 15  1  0
 14 45  1  0
 14 46  1  0
 15 47  1  0
 16 15  1  0
 16 28  2  0
 16 17  1  0
 17 18  1  0
 17 19  1  0
 19 20  2  0
 19 48  1  0
 20 21  1  0
 20 28  1  0
 21 27  1  0
 21 22  2  0
 22 23  1  0
 22 49  1  0
 23 24  2  0
 23 50  1  0
 24 25  1  0
 24 26  1  0
 26 27  2  0
 26 51  1  0
 27 52  1  0
 28 29  1  0
 30 31  2  0
 30 53  1  0
 31 54  1  0
 32 33  1  0
 32 55  1  0
 33 34  2  0
 33 56  1  0
 34 35  1  0
 34 57  1  0
M  CHG  1  28   1
M  END
>  <DOCK_score>  (1) 
-62.663689

>  <SMILES>  (1) 
Cc1coc2c(-c3ccc([C@H](C)CNc4[nH]cc(-c5ccc(Br)cc5)[nH+]4)cc3)cccc12

$$$$
