O=C(N[C@H]1CC[NH2+]C2(CC2)C1)[C@H](NCc1cc(C2=CCC=CC2)no1)C1=CCC=CC1
     RDKit          3D

 64 68  0  0  1  0  0  0  0  0999 V2000
  126.6998  135.9873  160.7056 O   0  0  0  0  0  0  0  0  0  0  0  0
  127.7409  136.2384  161.2748 C   0  0  0  0  0  0  0  0  0  0  0  0
  128.9085  135.7905  160.7725 N   0  0  0  0  0  0  0  0  0  0  0  0
  128.9202  135.0003  159.5390 C   0  0  1  0  0  0  0  0  0  0  0  0
  127.9909  134.4365  159.4568 H   0  0  0  0  0  0  0  0  0  0  0  0
  129.0612  135.9338  158.3339 C   0  0  0  0  0  0  0  0  0  0  0  0
  129.0813  135.1094  157.0460 C   0  0  0  0  0  0  0  0  0  0  0  0
  130.2561  134.2272  157.0405 N   0  0  0  0  0  0  0  0  0  0  0  0
  131.0960  134.7845  157.0882 H   0  0  0  0  0  0  0  0  0  0  0  0
  130.2623  133.6800  156.1927 H   0  0  0  0  0  0  0  0  0  0  0  0
  130.1962  133.3302  158.2028 C   0  0  0  0  0  0  0  0  0  0  0  0
  130.9779  132.0187  158.1307 C   0  0  0  0  0  0  0  0  0  0  0  0
  129.4504  132.0045  158.0399 C   0  0  0  0  0  0  0  0  0  0  0  0
  130.1076  134.0310  159.5622 C   0  0  0  0  0  0  0  0  0  0  0  0
  127.7289  137.0514  162.5436 C   0  0  2  0  0  0  0  0  0  0  0  0
  126.8865  137.7429  162.5242 H   0  0  0  0  0  0  0  0  0  0  0  0
  128.9823  137.8099  162.6511 N   0  0  0  0  0  0  0  0  0  0  0  0
  128.9393  139.0189  161.8178 C   0  0  0  0  0  0  0  0  0  0  0  0
  130.3438  139.4978  161.5548 C   0  0  0  0  0  0  0  0  0  0  0  0
  131.4869  138.9261  161.9949 C   0  0  0  0  0  0  0  0  0  0  0  0
  132.5130  139.7636  161.4712 C   0  0  0  0  0  0  0  0  0  0  0  0
  133.9718  139.5989  161.6478 C   0  0  0  0  0  0  0  0  0  0  0  0
  134.7313  140.6718  161.6559 C   0  0  0  0  0  0  0  0  0  0  0  0
  136.2193  140.6078  161.8286 C   0  0  0  0  0  0  0  0  0  0  0  0
  136.6383  139.3055  162.4411 C   0  0  0  0  0  0  0  0  0  0  0  0
  135.8884  138.2467  162.4340 C   0  0  0  0  0  0  0  0  0  0  0  0
  134.5247  138.2156  161.8168 C   0  0  0  0  0  0  0  0  0  0  0  0
  131.9019  140.7103  160.8000 N   0  0  0  0  0  0  0  0  0  0  0  0
  130.7015  140.5705  160.8343 O   0  0  0  0  0  0  0  0  0  0  0  0
  127.5956  136.1306  163.7291 C   0  0  0  0  0  0  0  0  0  0  0  0
  128.6760  135.6686  164.2813 C   0  0  0  0  0  0  0  0  0  0  0  0
  128.6546  134.7471  165.4635 C   0  0  0  0  0  0  0  0  0  0  0  0
  127.3409  134.8180  166.1821 C   0  0  0  0  0  0  0  0  0  0  0  0
  126.2604  135.2796  165.6299 C   0  0  0  0  0  0  0  0  0  0  0  0
  126.2214  135.7924  164.2237 C   0  0  0  0  0  0  0  0  0  0  0  0
  129.7412  135.9914  161.2277 H   0  0  0  0  0  0  0  0  0  0  0  0
  128.2186  136.6248  158.3094 H   0  0  0  0  0  0  0  0  0  0  0  0
  129.9904  136.4975  158.4182 H   0  0  0  0  0  0  0  0  0  0  0  0
  128.1750  134.5067  156.9871 H   0  0  0  0  0  0  0  0  0  0  0  0
  129.1278  135.7793  156.1873 H   0  0  0  0  0  0  0  0  0  0  0  0
  131.5383  131.8163  157.2179 H   0  0  0  0  0  0  0  0  0  0  0  0
  131.4308  131.6513  159.0516 H   0  0  0  0  0  0  0  0  0  0  0  0
  129.0060  131.7930  157.0674 H   0  0  0  0  0  0  0  0  0  0  0  0
  128.8985  131.6284  158.9012 H   0  0  0  0  0  0  0  0  0  0  0  0
  129.9589  133.2892  160.3468 H   0  0  0  0  0  0  0  0  0  0  0  0
  131.0278  134.5845  159.7488 H   0  0  0  0  0  0  0  0  0  0  0  0
  129.1842  138.0403  163.6125 H   0  0  0  0  0  0  0  0  0  0  0  0
  128.4501  138.7903  160.8710 H   0  0  0  0  0  0  0  0  0  0  0  0
  128.3807  139.7980  162.3365 H   0  0  0  0  0  0  0  0  0  0  0  0
  131.5966  138.0398  162.6024 H   0  0  0  0  0  0  0  0  0  0  0  0
  134.2650  141.6382  161.5328 H   0  0  0  0  0  0  0  0  0  0  0  0
  136.6970  140.7145  160.8546 H   0  0  0  0  0  0  0  0  0  0  0  0
  136.5395  141.4250  162.4749 H   0  0  0  0  0  0  0  0  0  0  0  0
  137.6093  139.2459  162.9104 H   0  0  0  0  0  0  0  0  0  0  0  0
  136.2638  137.3465  162.8976 H   0  0  0  0  0  0  0  0  0  0  0  0
  133.8551  137.6387  162.4548 H   0  0  0  0  0  0  0  0  0  0  0  0
  134.5887  137.7348  160.8407 H   0  0  0  0  0  0  0  0  0  0  0  0
  129.6314  135.9611  163.8713 H   0  0  0  0  0  0  0  0  0  0  0  0
  128.8211  133.7252  165.1230 H   0  0  0  0  0  0  0  0  0  0  0  0
  129.4524  135.0290  166.1507 H   0  0  0  0  0  0  0  0  0  0  0  0
  127.2910  134.4696  167.2031 H   0  0  0  0  0  0  0  0  0  0  0  0
  125.3505  135.2986  166.2113 H   0  0  0  0  0  0  0  0  0  0  0  0
  125.5977  136.6855  164.1841 H   0  0  0  0  0  0  0  0  0  0  0  0
  125.7885  135.0266  163.5802 H   0  0  0  0  0  0  0  0  0  0  0  0
  1  2  2  0
  2  3  1  0
  2 15  1  0
  3  4  1  0
  3 36  1  0
  4  5  1  6
  4 14  1  0
  4  6  1  0
  6  7  1  0
  6 37  1  0
  6 38  1  0
  7  8  1  0
  7 39  1  0
  7 40  1  0
  8  9  1  0
  8 10  1  0
  8 11  1  0
 11 13  1  0
 11 12  1  0
 11 14  1  0
 12 13  1  0
 12 41  1  0
 12 42  1  0
 13 43  1  0
 13 44  1  0
 14 45  1  0
 14 46  1  0
 15 16  1  6
 15 17  1  0
 15 30  1  0
 17 18  1  0
 17 47  1  0
 18 19  1  0
 18 48  1  0
 18 49  1  0
 19 29  1  0
 19 20  2  0
 20 21  1  0
 20 50  1  0
 21 22  1  0
 21 28  2  0
 22 27  1  0
 22 23  2  0
 23 24  1  0
 23 51  1  0
 24 25  1  0
 24 52  1  0
 24 53  1  0
 25 26  2  0
 25 54  1  0
 26 27  1  0
 26 55  1  0
 27 56  1  0
 27 57  1  0
 28 29  1  0
 30 35  1  0
 30 31  2  0
 31 32  1  0
 31 58  1  0
 32 33  1  0
 32 59  1  0
 32 60  1  0
 33 34  2  0
 33 61  1  0
 34 35  1  0
 34 62  1  0
 35 63  1  0
 35 64  1  0
M  CHG  1   8   1
M  END
>  <DOCK_score>  (1) 
-41.817871

>  <SMILES>  (1) 
O=C(N[C@H]1CC[NH2+]C2(CC2)C1)[C@H](NCc1cc(C2=CCC=CC2)no1)C1=CCC=CC1

$$$$
