C[C@@H](NC1=CC([NH2+]C/C=C/c2ccc(F)cc2)CC1)c1cccc(O)c1
     RDKit          3D

 52 54  0  0  1  0  0  0  0  0999 V2000
  127.2924  131.6958  161.1553 C   0  0  0  0  0  0  0  0  0  0  0  0
  128.5309  132.5942  161.1478 C   0  0  1  0  0  0  0  0  0  0  0  0
  129.4018  132.0149  161.4541 H   0  0  0  0  0  0  0  0  0  0  0  0
  128.7445  133.1199  159.7971 N   0  0  0  0  0  0  0  0  0  0  0  0
  129.3552  132.3287  158.8324 C   0  0  0  0  0  0  0  0  0  0  0  0
  129.5905  132.7094  157.5952 C   0  0  0  0  0  0  0  0  0  0  0  0
  130.2607  131.6066  156.8092 C   0  0  1  0  0  0  0  0  0  0  0  0
  131.3725  132.1471  156.0156 N   0  0  0  0  0  0  0  0  0  0  0  0
  131.8690  132.8373  156.5588 H   0  0  0  0  0  0  0  0  0  0  0  0
  132.0020  131.3992  155.7656 H   0  0  0  0  0  0  0  0  0  0  0  0
  130.8447  132.7715  154.7952 C   0  0  0  0  0  0  0  0  0  0  0  0
  130.1029  131.7406  153.9839 C   0  0  0  0  0  0  0  0  0  0  0  0
  130.7473  131.0246  153.0730 C   0  0  0  0  0  0  0  0  0  0  0  0
  130.0199  130.0135  152.2774 C   0  0  0  0  0  0  0  0  0  0  0  0
  128.6306  130.0797  152.1628 C   0  0  0  0  0  0  0  0  0  0  0  0
  127.9570  129.1359  151.4159 C   0  0  0  0  0  0  0  0  0  0  0  0
  128.6563  128.1179  150.7876 C   0  0  0  0  0  0  0  0  0  0  0  0
  127.9913  127.1931  150.0611 F   0  0  0  0  0  0  0  0  0  0  0  0
  130.0355  128.0449  150.9021 C   0  0  0  0  0  0  0  0  0  0  0  0
  130.7192  128.9861  151.6431 C   0  0  0  0  0  0  0  0  0  0  0  0
  130.7932  130.6270  157.8827 C   0  0  0  0  0  0  0  0  0  0  0  0
  129.8378  130.9155  159.0635 C   0  0  0  0  0  0  0  0  0  0  0  0
  128.3267  133.7392  162.1061 C   0  0  0  0  0  0  0  0  0  0  0  0
  129.1913  133.9105  163.1719 C   0  0  0  0  0  0  0  0  0  0  0  0
  129.0072  134.9603  164.0522 C   0  0  0  0  0  0  0  0  0  0  0  0
  127.9587  135.8412  163.8692 C   0  0  0  0  0  0  0  0  0  0  0  0
  127.0899  135.6713  162.8013 C   0  0  0  0  0  0  0  0  0  0  0  0
  126.0581  136.5367  162.6189 O   0  0  0  0  0  0  0  0  0  0  0  0
  127.2799  134.6199  161.9160 C   0  0  0  0  0  0  0  0  0  0  0  0
  126.4214  132.2751  160.8489 H   0  0  0  0  0  0  0  0  0  0  0  0
  127.4400  130.8676  160.4623 H   0  0  0  0  0  0  0  0  0  0  0  0
  127.1335  131.3047  162.1603 H   0  0  0  0  0  0  0  0  0  0  0  0
  128.4594  134.0204  159.5766 H   0  0  0  0  0  0  0  0  0  0  0  0
  129.3345  133.6788  157.1938 H   0  0  0  0  0  0  0  0  0  0  0  0
  129.5384  131.1086  156.1624 H   0  0  0  0  0  0  0  0  0  0  0  0
  130.1645  133.5792  155.0653 H   0  0  0  0  0  0  0  0  0  0  0  0
  131.6695  133.1725  154.2063 H   0  0  0  0  0  0  0  0  0  0  0  0
  129.0462  131.5849  154.1447 H   0  0  0  0  0  0  0  0  0  0  0  0
  131.8038  131.1803  152.9123 H   0  0  0  0  0  0  0  0  0  0  0  0
  128.0842  130.8705  152.6553 H   0  0  0  0  0  0  0  0  0  0  0  0
  126.8821  129.1879  151.3242 H   0  0  0  0  0  0  0  0  0  0  0  0
  130.5757  127.2492  150.4106 H   0  0  0  0  0  0  0  0  0  0  0  0
  131.7940  128.9282  151.7316 H   0  0  0  0  0  0  0  0  0  0  0  0
  131.8248  130.8569  158.1496 H   0  0  0  0  0  0  0  0  0  0  0  0
  130.6994  129.5941  157.5475 H   0  0  0  0  0  0  0  0  0  0  0  0
  130.3733  130.8474  160.0104 H   0  0  0  0  0  0  0  0  0  0  0  0
  128.9977  130.2211  159.0525 H   0  0  0  0  0  0  0  0  0  0  0  0
  130.0117  133.2232  163.3164 H   0  0  0  0  0  0  0  0  0  0  0  0
  129.6839  135.0923  164.8835 H   0  0  0  0  0  0  0  0  0  0  0  0
  127.8158  136.6617  164.5568 H   0  0  0  0  0  0  0  0  0  0  0  0
  125.5084  136.3364  161.8488 H   0  0  0  0  0  0  0  0  0  0  0  0
  126.6077  134.4881  161.0810 H   0  0  0  0  0  0  0  0  0  0  0  0
  1  2  1  0
  1 30  1  0
  1 31  1  0
  1 32  1  0
  2  3  1  1
  2  4  1  0
  2 23  1  0
  4  5  1  0
  4 33  1  0
  5 22  1  0
  5  6  2  0
  6  7  1  0
  6 34  1  0
  7  8  1  0
  7 21  1  0
  7 35  1  6
  8  9  1  0
  8 10  1  0
  8 11  1  0
 11 12  1  0
 11 36  1  0
 11 37  1  0
 12 13  2  0
 12 38  1  0
 13 14  1  0
 13 39  1  0
 14 20  1  0
 14 15  2  0
 15 16  1  0
 15 40  1  0
 16 17  2  0
 16 41  1  0
 17 18  1  0
 17 19  1  0
 19 20  2  0
 19 42  1  0
 20 43  1  0
 21 22  1  0
 21 44  1  0
 21 45  1  0
 22 46  1  0
 22 47  1  0
 23 29  1  0
 23 24  2  0
 24 25  1  0
 24 48  1  0
 25 26  2  0
 25 49  1  0
 26 27  1  0
 26 50  1  0
 27 28  1  0
 27 29  2  0
 28 51  1  0
 29 52  1  0
M  CHG  1   8   1
M  END
>  <DOCK_score>  (1) 
-43.391403

>  <SMILES>  (1) 
C[C@@H](NC1=CC([NH2+]C/C=C/c2ccc(F)cc2)CC1)c1cccc(O)c1

$$$$
