C1=C(c2noc(C3([NH+]=C(NC4CCCCCCCC4)NC4CCCC4)CCCCC3)n2)CCCO1
     RDKit          3D

 81 85  0  0  1  0  0  0  0  0999 V2000
  127.9701  139.2932  165.7518 C   0  0  0  0  0  0  0  0  0  0  0  0
  127.2970  139.3602  164.6114 C   0  0  0  0  0  0  0  0  0  0  0  0
  127.3864  138.2335  163.6647 C   0  0  0  0  0  0  0  0  0  0  0  0
  126.7875  138.1435  162.5018 N   0  0  0  0  0  0  0  0  0  0  0  0
  127.0726  137.0924  161.9679 O   0  0  0  0  0  0  0  0  0  0  0  0
  127.8915  136.3855  162.7533 C   0  0  0  0  0  0  0  0  0  0  0  0
  128.4686  135.0267  162.4503 C   0  0  0  0  0  0  0  0  0  0  0  0
  128.6288  134.8761  161.0018 N   0  0  0  0  0  0  0  0  0  0  0  0
  128.1643  134.1646  160.5340 H   0  0  0  0  0  0  0  0  0  0  0  0
  129.3953  135.6982  160.3419 C   0  0  0  0  0  0  0  0  0  0  0  0
  130.0536  136.7068  161.0051 N   0  0  0  0  0  0  0  0  0  0  0  0
  131.3417  137.1936  160.5048 C   0  0  0  0  0  0  0  0  0  0  0  0
  131.1392  138.6414  160.0029 C   0  0  0  0  0  0  0  0  0  0  0  0
  130.7402  139.4676  161.2800 C   0  0  0  0  0  0  0  0  0  0  0  0
  131.6607  140.7092  161.2608 C   0  0  0  0  0  0  0  0  0  0  0  0
  133.1861  140.4610  161.2637 C   0  0  0  0  0  0  0  0  0  0  0  0
  133.4635  139.6232  162.5654 C   0  0  0  0  0  0  0  0  0  0  0  0
  134.3325  138.4324  162.1013 C   0  0  0  0  0  0  0  0  0  0  0  0
  133.7453  137.5086  161.0103 C   0  0  0  0  0  0  0  0  0  0  0  0
  132.3964  136.9688  161.6119 C   0  0  0  0  0  0  0  0  0  0  0  0
  129.5454  135.5569  158.9827 N   0  0  0  0  0  0  0  0  0  0  0  0
  128.8439  134.4824  158.2760 C   0  0  0  0  0  0  0  0  0  0  0  0
  129.3303  133.1096  158.7847 C   0  0  0  0  0  0  0  0  0  0  0  0
  129.3491  132.2197  157.5172 C   0  0  0  0  0  0  0  0  0  0  0  0
  129.8487  133.1947  156.4223 C   0  0  0  0  0  0  0  0  0  0  0  0
  129.1735  134.5365  156.7739 C   0  0  0  0  0  0  0  0  0  0  0  0
  129.8319  134.8884  163.1311 C   0  0  0  0  0  0  0  0  0  0  0  0
  130.4179  133.5091  162.8236 C   0  0  0  0  0  0  0  0  0  0  0  0
  129.4737  132.4253  163.3478 C   0  0  0  0  0  0  0  0  0  0  0  0
  128.1105  132.5637  162.6670 C   0  0  0  0  0  0  0  0  0  0  0  0
  127.5245  133.9431  162.9745 C   0  0  0  0  0  0  0  0  0  0  0  0
  128.1031  137.0965  163.8320 N   0  0  0  0  0  0  0  0  0  0  0  0
  126.4400  140.5441  164.2530 C   0  0  0  0  0  0  0  0  0  0  0  0
  126.1472  141.3616  165.5157 C   0  0  0  0  0  0  0  0  0  0  0  0
  127.4652  141.5568  166.2773 C   0  0  0  0  0  0  0  0  0  0  0  0
  127.9475  140.2716  166.6788 O   0  0  0  0  0  0  0  0  0  0  0  0
  128.5680  138.4148  165.9454 H   0  0  0  0  0  0  0  0  0  0  0  0
  129.6652  137.0959  161.8042 H   0  0  0  0  0  0  0  0  0  0  0  0
  131.6186  136.5782  159.6488 H   0  0  0  0  0  0  0  0  0  0  0  0
  132.0655  139.0268  159.5767 H   0  0  0  0  0  0  0  0  0  0  0  0
  130.3382  138.6771  159.2645 H   0  0  0  0  0  0  0  0  0  0  0  0
  130.9168  138.8799  162.1808 H   0  0  0  0  0  0  0  0  0  0  0  0
  129.6949  139.7709  161.2234 H   0  0  0  0  0  0  0  0  0  0  0  0
  131.4190  141.3183  162.1319 H   0  0  0  0  0  0  0  0  0  0  0  0
  131.4180  141.2919  160.3723 H   0  0  0  0  0  0  0  0  0  0  0  0
  133.7234  141.4086  161.3021 H   0  0  0  0  0  0  0  0  0  0  0  0
  133.4788  139.8944  160.3797 H   0  0  0  0  0  0  0  0  0  0  0  0
  132.5264  139.2643  162.9911 H   0  0  0  0  0  0  0  0  0  0  0  0
  134.0045  140.2240  163.2964 H   0  0  0  0  0  0  0  0  0  0  0  0
  134.5542  137.8195  162.9749 H   0  0  0  0  0  0  0  0  0  0  0  0
  135.2761  138.8317  161.7293 H   0  0  0  0  0  0  0  0  0  0  0  0
  134.4265  136.6821  160.8076 H   0  0  0  0  0  0  0  0  0  0  0  0
  133.5532  138.0743  160.0987 H   0  0  0  0  0  0  0  0  0  0  0  0
  132.1302  137.5304  162.5074 H   0  0  0  0  0  0  0  0  0  0  0  0
  132.4830  135.9068  161.8417 H   0  0  0  0  0  0  0  0  0  0  0  0
  130.1158  136.1688  158.4915 H   0  0  0  0  0  0  0  0  0  0  0  0
  127.7684  134.5773  158.4259 H   0  0  0  0  0  0  0  0  0  0  0  0
  130.3315  133.1925  159.2076 H   0  0  0  0  0  0  0  0  0  0  0  0
  128.6355  132.7082  159.5225 H   0  0  0  0  0  0  0  0  0  0  0  0
  128.3476  131.8578  157.2844 H   0  0  0  0  0  0  0  0  0  0  0  0
  130.0412  131.3862  157.6373 H   0  0  0  0  0  0  0  0  0  0  0  0
  129.5323  132.8553  155.4360 H   0  0  0  0  0  0  0  0  0  0  0  0
  130.9337  133.2913  156.4637 H   0  0  0  0  0  0  0  0  0  0  0  0
  128.2579  134.6567  156.1948 H   0  0  0  0  0  0  0  0  0  0  0  0
  129.8547  135.3627  156.5706 H   0  0  0  0  0  0  0  0  0  0  0  0
  130.5046  135.6605  162.7578 H   0  0  0  0  0  0  0  0  0  0  0  0
  129.7128  135.0006  164.2088 H   0  0  0  0  0  0  0  0  0  0  0  0
  131.3890  133.4105  163.3086 H   0  0  0  0  0  0  0  0  0  0  0  0
  130.5370  133.3969  161.7460 H   0  0  0  0  0  0  0  0  0  0  0  0
  129.3546  132.5374  164.4255 H   0  0  0  0  0  0  0  0  0  0  0  0
  129.8911  131.4427  163.1287 H   0  0  0  0  0  0  0  0  0  0  0  0
  127.4378  131.7916  163.0404 H   0  0  0  0  0  0  0  0  0  0  0  0
  128.2296  132.4515  161.5892 H   0  0  0  0  0  0  0  0  0  0  0  0
  127.4054  134.0552  164.0522 H   0  0  0  0  0  0  0  0  0  0  0  0
  126.5534  134.0417  162.4894 H   0  0  0  0  0  0  0  0  0  0  0  0
  126.9656  141.1678  163.5300 H   0  0  0  0  0  0  0  0  0  0  0  0
  125.5024  140.1961  163.8194 H   0  0  0  0  0  0  0  0  0  0  0  0
  125.7355  142.3320  165.2382 H   0  0  0  0  0  0  0  0  0  0  0  0
  125.4348  140.8262  166.1434 H   0  0  0  0  0  0  0  0  0  0  0  0
  128.1970  142.0373  165.6278 H   0  0  0  0  0  0  0  0  0  0  0  0
  127.2925  142.1763  167.1574 H   0  0  0  0  0  0  0  0  0  0  0  0
  1 36  1  0
  1  2  2  0
  1 37  1  0
  2  3  1  0
  2 33  1  0
  3 32  1  0
  3  4  2  0
  4  5  1  0
  5  6  1  0
  6  7  1  0
  6 32  2  0
  7 31  1  0
  7  8  1  0
  7 27  1  0
  8  9  1  0
 10  8  2  0
 10 11  1  0
 10 21  1  0
 11 12  1  0
 11 38  1  0
 12 20  1  0
 12 13  1  0
 12 39  1  0
 13 14  1  0
 13 40  1  0
 13 41  1  0
 14 15  1  0
 14 42  1  0
 14 43  1  0
 15 16  1  0
 15 44  1  0
 15 45  1  0
 16 17  1  0
 16 46  1  0
 16 47  1  0
 17 18  1  0
 17 48  1  0
 17 49  1  0
 18 19  1  0
 18 50  1  0
 18 51  1  0
 19 20  1  0
 19 52  1  0
 19 53  1  0
 20 54  1  0
 20 55  1  0
 21 22  1  0
 21 56  1  0
 22 26  1  0
 22 23  1  0
 22 57  1  0
 23 24  1  0
 23 58  1  0
 23 59  1  0
 24 25  1  0
 24 60  1  0
 24 61  1  0
 25 26  1  0
 25 62  1  0
 25 63  1  0
 26 64  1  0
 26 65  1  0
 27 28  1  0
 27 66  1  0
 27 67  1  0
 28 29  1  0
 28 68  1  0
 28 69  1  0
 29 30  1  0
 29 70  1  0
 29 71  1  0
 30 31  1  0
 30 72  1  0
 30 73  1  0
 31 74  1  0
 31 75  1  0
 33 34  1  0
 33 76  1  0
 33 77  1  0
 34 35  1  0
 34 78  1  0
 34 79  1  0
 35 36  1  0
 35 80  1  0
 35 81  1  0
M  CHG  1   8   1
M  END
>  <DOCK_score>  (1) 
-43.349831

>  <SMILES>  (1) 
C1=C(c2noc(C3([NH+]=C(NC4CCCCCCCC4)NC4CCCC4)CCCCC3)n2)CCCO1

$$$$
