Cc1cccc([C@H](Nc2[nH]cc(-c3ccc(Br)cc3)[nH+]2)c2ccnn2C)c1
     RDKit          3D

 48 51  0  0  1  0  0  0  0  0999 V2000
  131.2922  139.9086  159.5330 C   0  0  0  0  0  0  0  0  0  0  0  0
  130.4312  138.9537  160.3192 C   0  0  0  0  0  0  0  0  0  0  0  0
  129.9899  139.3013  161.5819 C   0  0  0  0  0  0  0  0  0  0  0  0
  129.2005  138.4251  162.3039 C   0  0  0  0  0  0  0  0  0  0  0  0
  128.8525  137.2016  161.7620 C   0  0  0  0  0  0  0  0  0  0  0  0
  129.2930  136.8549  160.4987 C   0  0  0  0  0  0  0  0  0  0  0  0
  128.9135  135.5214  159.9080 C   0  0  2  0  0  0  0  0  0  0  0  0
  128.7867  134.7925  160.7084 H   0  0  0  0  0  0  0  0  0  0  0  0
  129.9711  135.0706  159.0001 N   0  0  0  0  0  0  0  0  0  0  0  0
  129.8446  133.8629  158.3354 C   0  0  0  0  0  0  0  0  0  0  0  0
  129.1786  132.7696  158.7977 N   0  0  0  0  0  0  0  0  0  0  0  0
  128.7115  132.6972  159.6447 H   0  0  0  0  0  0  0  0  0  0  0  0
  129.2904  131.7878  157.8433 C   0  0  0  0  0  0  0  0  0  0  0  0
  130.0206  132.3087  156.8263 C   0  0  0  0  0  0  0  0  0  0  0  0
  130.3971  131.6086  155.5740 C   0  0  0  0  0  0  0  0  0  0  0  0
  129.9892  132.1137  154.3407 C   0  0  0  0  0  0  0  0  0  0  0  0
  130.3425  131.4588  153.1785 C   0  0  0  0  0  0  0  0  0  0  0  0
  131.0957  130.2991  153.2366 C   0  0  0  0  0  0  0  0  0  0  0  0
  131.5697  129.4026  151.6404 Br  0  0  0  0  0  0  0  0  0  0  0  0
  131.5083  129.7964  154.4585 C   0  0  0  0  0  0  0  0  0  0  0  0
  131.1605  130.4436  155.6264 C   0  0  0  0  0  0  0  0  0  0  0  0
  130.3509  133.5818  157.1596 N   0  0  0  0  0  0  0  0  0  0  0  0
  130.8756  134.1879  156.6137 H   0  0  0  0  0  0  0  0  0  0  0  0
  127.6213  135.6595  159.1449 C   0  0  0  0  0  0  0  0  0  0  0  0
  127.4984  135.9743  157.8347 C   0  0  0  0  0  0  0  0  0  0  0  0
  126.1349  135.9985  157.5240 C   0  0  0  0  0  0  0  0  0  0  0  0
  125.4632  135.7086  158.6087 N   0  0  0  0  0  0  0  0  0  0  0  0
  126.3798  135.4854  159.6443 N   0  0  0  0  0  0  0  0  0  0  0  0
  126.0490  135.1291  161.0263 C   0  0  0  0  0  0  0  0  0  0  0  0
  130.0864  137.7291  159.7791 C   0  0  0  0  0  0  0  0  0  0  0  0
  132.3423  139.7169  159.7539 H   0  0  0  0  0  0  0  0  0  0  0  0
  131.1131  139.7660  158.4673 H   0  0  0  0  0  0  0  0  0  0  0  0
  131.0440  140.9333  159.8094 H   0  0  0  0  0  0  0  0  0  0  0  0
  130.2620  140.2565  162.0060 H   0  0  0  0  0  0  0  0  0  0  0  0
  128.8560  138.6961  163.2909 H   0  0  0  0  0  0  0  0  0  0  0  0
  128.2361  136.5172  162.3256 H   0  0  0  0  0  0  0  0  0  0  0  0
  130.7600  135.6184  158.8647 H   0  0  0  0  0  0  0  0  0  0  0  0
  128.8755  130.7919  157.8931 H   0  0  0  0  0  0  0  0  0  0  0  0
  129.3972  133.0160  154.2947 H   0  0  0  0  0  0  0  0  0  0  0  0
  130.0268  131.8494  152.2224 H   0  0  0  0  0  0  0  0  0  0  0  0
  132.0994  128.8934  154.4980 H   0  0  0  0  0  0  0  0  0  0  0  0
  131.4793  130.0483  156.5797 H   0  0  0  0  0  0  0  0  0  0  0  0
  128.3097  136.1725  157.1498 H   0  0  0  0  0  0  0  0  0  0  0  0
  125.7097  136.2191  156.5560 H   0  0  0  0  0  0  0  0  0  0  0  0
  125.9267  136.0374  161.6164 H   0  0  0  0  0  0  0  0  0  0  0  0
  125.1206  134.5580  161.0419 H   0  0  0  0  0  0  0  0  0  0  0  0
  126.8532  134.5269  161.4488 H   0  0  0  0  0  0  0  0  0  0  0  0
  130.4344  137.4563  158.7938 H   0  0  0  0  0  0  0  0  0  0  0  0
  1  2  1  0
  1 31  1  0
  1 32  1  0
  1 33  1  0
  2 30  2  0
  2  3  1  0
  3  4  2  0
  3 34  1  0
  4  5  1  0
  4 35  1  0
  5  6  2  0
  5 36  1  0
  6  7  1  0
  6 30  1  0
  7  8  1  1
  7  9  1  0
  7 24  1  0
  9 37  1  0
 10  9  1  0
 10 22  2  0
 10 11  1  0
 11 12  1  0
 11 13  1  0
 13 14  2  0
 13 38  1  0
 14 15  1  0
 14 22  1  0
 15 21  1  0
 15 16  2  0
 16 17  1  0
 16 39  1  0
 17 18  2  0
 17 40  1  0
 18 19  1  0
 18 20  1  0
 20 21  2  0
 20 41  1  0
 21 42  1  0
 22 23  1  0
 24 28  1  0
 24 25  2  0
 25 26  1  0
 25 43  1  0
 26 27  2  0
 26 44  1  0
 27 28  1  0
 28 29  1  0
 29 45  1  0
 29 46  1  0
 29 47  1  0
 30 48  1  0
M  CHG  1  22   1
M  END
>  <DOCK_score>  (1) 
-57.433388

>  <SMILES>  (1) 
Cc1cccc([C@H](Nc2[nH]cc(-c3ccc(Br)cc3)[nH+]2)c2ccnn2C)c1

$$$$
