c1ccc(CC(Cc2ccccc2)Nc2[nH]cc(CCc3nc4ccccc4[nH]3)[nH+]2)cc1
     RDKit          3D

 60 64  0  0  1  0  0  0  0  0999 V2000
  130.9525  131.1217  160.5269 C   0  0  0  0  0  0  0  0  0  0  0  0
  131.0587  131.6386  161.8046 C   0  0  0  0  0  0  0  0  0  0  0  0
  131.6711  132.8613  162.0070 C   0  0  0  0  0  0  0  0  0  0  0  0
  132.1774  133.5670  160.9317 C   0  0  0  0  0  0  0  0  0  0  0  0
  132.8446  134.9002  161.1522 C   0  0  0  0  0  0  0  0  0  0  0  0
  131.7984  136.0136  161.0705 C   0  0  0  0  0  0  0  0  0  0  0  0
  132.4758  137.3672  161.2945 C   0  0  0  0  0  0  0  0  0  0  0  0
  131.4454  138.4640  161.2141 C   0  0  0  0  0  0  0  0  0  0  0  0
  131.1721  139.0678  160.0010 C   0  0  0  0  0  0  0  0  0  0  0  0
  130.2234  140.0706  159.9262 C   0  0  0  0  0  0  0  0  0  0  0  0
  129.5557  140.4767  161.0664 C   0  0  0  0  0  0  0  0  0  0  0  0
  129.8328  139.8763  162.2804 C   0  0  0  0  0  0  0  0  0  0  0  0
  130.7776  138.8700  162.3542 C   0  0  0  0  0  0  0  0  0  0  0  0
  131.1686  135.9957  159.7480 N   0  0  0  0  0  0  0  0  0  0  0  0
  130.0341  135.2312  159.5316 C   0  0  0  0  0  0  0  0  0  0  0  0
  129.3531  135.1327  158.3583 N   0  0  0  0  0  0  0  0  0  0  0  0
  129.5703  135.5807  157.5258 H   0  0  0  0  0  0  0  0  0  0  0  0
  128.2987  134.2746  158.5754 C   0  0  0  0  0  0  0  0  0  0  0  0
  128.3659  133.8889  159.8609 C   0  0  0  0  0  0  0  0  0  0  0  0
  127.4101  132.9507  160.5518 C   0  0  0  0  0  0  0  0  0  0  0  0
  126.2606  133.7536  161.1640 C   0  0  0  0  0  0  0  0  0  0  0  0
  126.8114  134.7363  162.1649 C   0  0  0  0  0  0  0  0  0  0  0  0
  127.7162  134.4620  163.0586 N   0  0  0  0  0  0  0  0  0  0  0  0
  127.9830  135.5718  163.7938 C   0  0  0  0  0  0  0  0  0  0  0  0
  128.8486  135.8378  164.8582 C   0  0  0  0  0  0  0  0  0  0  0  0
  128.8928  137.0897  165.4032 C   0  0  0  0  0  0  0  0  0  0  0  0
  128.0853  138.1051  164.9105 C   0  0  0  0  0  0  0  0  0  0  0  0
  127.2242  137.8659  163.8609 C   0  0  0  0  0  0  0  0  0  0  0  0
  127.1650  136.5995  163.2950 C   0  0  0  0  0  0  0  0  0  0  0  0
  126.4392  136.0412  162.2618 N   0  0  0  0  0  0  0  0  0  0  0  0
  125.7841  136.4948  161.7087 H   0  0  0  0  0  0  0  0  0  0  0  0
  129.4308  134.4834  160.4251 N   0  0  0  0  0  0  0  0  0  0  0  0
  129.7095  134.3769  161.3482 H   0  0  0  0  0  0  0  0  0  0  0  0
  132.0666  133.0526  159.6534 C   0  0  0  0  0  0  0  0  0  0  0  0
  131.4590  131.8276  159.4516 C   0  0  0  0  0  0  0  0  0  0  0  0
  130.4739  130.1666  160.3688 H   0  0  0  0  0  0  0  0  0  0  0  0
  130.6629  131.0872  162.6447 H   0  0  0  0  0  0  0  0  0  0  0  0
  131.7536  133.2652  163.0051 H   0  0  0  0  0  0  0  0  0  0  0  0
  133.6036  135.0578  160.3859 H   0  0  0  0  0  0  0  0  0  0  0  0
  133.3134  134.9136  162.1362 H   0  0  0  0  0  0  0  0  0  0  0  0
  131.0394  135.8560  161.8367 H   0  0  0  0  0  0  0  0  0  0  0  0
  132.9444  137.3806  162.2785 H   0  0  0  0  0  0  0  0  0  0  0  0
  133.2348  137.5249  160.5284 H   0  0  0  0  0  0  0  0  0  0  0  0
  131.6970  138.7537  159.1109 H   0  0  0  0  0  0  0  0  0  0  0  0
  130.0072  140.5398  158.9778 H   0  0  0  0  0  0  0  0  0  0  0  0
  128.8177  141.2630  161.0090 H   0  0  0  0  0  0  0  0  0  0  0  0
  129.3113  140.1938  163.1714 H   0  0  0  0  0  0  0  0  0  0  0  0
  130.9943  138.4013  163.3027 H   0  0  0  0  0  0  0  0  0  0  0  0
  131.5482  136.5161  159.0229 H   0  0  0  0  0  0  0  0  0  0  0  0
  127.5567  133.9719  157.8514 H   0  0  0  0  0  0  0  0  0  0  0  0
  127.0117  132.2399  159.8279 H   0  0  0  0  0  0  0  0  0  0  0  0
  127.9362  132.4111  161.3393 H   0  0  0  0  0  0  0  0  0  0  0  0
  125.7343  134.2932  160.3766 H   0  0  0  0  0  0  0  0  0  0  0  0
  125.5693  133.0749  161.6638 H   0  0  0  0  0  0  0  0  0  0  0  0
  129.4813  135.0549  165.2494 H   0  0  0  0  0  0  0  0  0  0  0  0
  129.5631  137.2913  166.2256 H   0  0  0  0  0  0  0  0  0  0  0  0
  128.1323  139.0896  165.3519 H   0  0  0  0  0  0  0  0  0  0  0  0
  126.5982  138.6598  163.4810 H   0  0  0  0  0  0  0  0  0  0  0  0
  132.4583  133.6062  158.8128 H   0  0  0  0  0  0  0  0  0  0  0  0
  131.3757  131.4239  158.4533 H   0  0  0  0  0  0  0  0  0  0  0  0
  1 35  2  0
  1  2  1  0
  1 36  1  0
  2  3  2  0
  2 37  1  0
  3  4  1  0
  3 38  1  0
  4  5  1  0
  4 34  2  0
  5  6  1  0
  5 39  1  0
  5 40  1  0
  6  7  1  0
  6 14  1  0
  6 41  1  0
  7  8  1  0
  7 42  1  0
  7 43  1  0
  8 13  1  0
  8  9  2  0
  9 10  1  0
  9 44  1  0
 10 11  2  0
 10 45  1  0
 11 12  1  0
 11 46  1  0
 12 13  2  0
 12 47  1  0
 13 48  1  0
 14 49  1  0
 15 14  1  0
 15 32  2  0
 15 16  1  0
 16 17  1  0
 16 18  1  0
 18 19  2  0
 18 50  1  0
 19 20  1  0
 19 32  1  0
 20 21  1  0
 20 51  1  0
 20 52  1  0
 21 22  1  0
 21 53  1  0
 21 54  1  0
 22 30  1  0
 22 23  2  0
 23 24  1  0
 24 29  2  0
 24 25  1  0
 25 26  2  0
 25 55  1  0
 26 27  1  0
 26 56  1  0
 27 28  2  0
 27 57  1  0
 28 29  1  0
 28 58  1  0
 29 30  1  0
 30 31  1  0
 32 33  1  0
 34 35  1  0
 34 59  1  0
 35 60  1  0
M  CHG  1  32   1
M  END
>  <DOCK_score>  (1) 
-48.20871

>  <SMILES>  (1) 
c1ccc(CC(Cc2ccccc2)Nc2[nH]cc(CCc3nc4ccccc4[nH]3)[nH+]2)cc1

$$$$
