Cc1cc(-c2ccc(-c3ccccc3)cc2)c(O)cc1Nc1[nH]cc(-c2ccncc2)[nH+]1
     RDKit          3D

 55 59  0  0  1  0  0  0  0  0999 V2000
  131.9841  134.5278  160.7127 C   0  0  0  0  0  0  0  0  0  0  0  0
  130.5758  135.0170  160.9322 C   0  0  0  0  0  0  0  0  0  0  0  0
  130.0993  135.1881  162.2144 C   0  0  0  0  0  0  0  0  0  0  0  0
  128.7987  135.6456  162.4194 C   0  0  0  0  0  0  0  0  0  0  0  0
  128.2866  135.8355  163.7970 C   0  0  0  0  0  0  0  0  0  0  0  0
  127.1654  135.1262  164.2285 C   0  0  0  0  0  0  0  0  0  0  0  0
  126.6926  135.2993  165.5104 C   0  0  0  0  0  0  0  0  0  0  0  0
  127.3278  136.1911  166.3736 C   0  0  0  0  0  0  0  0  0  0  0  0
  126.8148  136.3823  167.7520 C   0  0  0  0  0  0  0  0  0  0  0  0
  126.9775  137.6080  168.3954 C   0  0  0  0  0  0  0  0  0  0  0  0
  126.4938  137.7813  169.6762 C   0  0  0  0  0  0  0  0  0  0  0  0
  125.8578  136.7382  170.3254 C   0  0  0  0  0  0  0  0  0  0  0  0
  125.6984  135.5180  169.6936 C   0  0  0  0  0  0  0  0  0  0  0  0
  126.1734  135.3348  168.4109 C   0  0  0  0  0  0  0  0  0  0  0  0
  128.4456  136.9046  165.9408 C   0  0  0  0  0  0  0  0  0  0  0  0
  128.9221  136.7280  164.6607 C   0  0  0  0  0  0  0  0  0  0  0  0
  127.9759  135.9206  161.3209 C   0  0  0  0  0  0  0  0  0  0  0  0
  126.7060  136.3620  161.5150 O   0  0  0  0  0  0  0  0  0  0  0  0
  128.4611  135.7468  160.0369 C   0  0  0  0  0  0  0  0  0  0  0  0
  129.7601  135.2952  159.8405 C   0  0  0  0  0  0  0  0  0  0  0  0
  130.2481  135.1205  158.5440 N   0  0  0  0  0  0  0  0  0  0  0  0
  130.0972  133.9004  157.9057 C   0  0  0  0  0  0  0  0  0  0  0  0
  129.4894  132.8007  158.4303 N   0  0  0  0  0  0  0  0  0  0  0  0
  129.0884  132.7314  159.3108 H   0  0  0  0  0  0  0  0  0  0  0  0
  129.5492  131.8091  157.4847 C   0  0  0  0  0  0  0  0  0  0  0  0
  130.1916  132.3289  156.4082 C   0  0  0  0  0  0  0  0  0  0  0  0
  130.4870  131.6184  155.1414 C   0  0  0  0  0  0  0  0  0  0  0  0
  129.9799  132.0813  153.9229 C   0  0  0  0  0  0  0  0  0  0  0  0
  130.2843  131.3933  152.7671 C   0  0  0  0  0  0  0  0  0  0  0  0
  131.0327  130.3067  152.8027 N   0  0  0  0  0  0  0  0  0  0  0  0
  131.5258  129.8335  153.9315 C   0  0  0  0  0  0  0  0  0  0  0  0
  131.2756  130.4633  155.1324 C   0  0  0  0  0  0  0  0  0  0  0  0
  130.5109  133.6160  156.6952 N   0  0  0  0  0  0  0  0  0  0  0  0
  130.9733  134.2271  156.1004 H   0  0  0  0  0  0  0  0  0  0  0  0
  132.6603  135.3808  160.6557 H   0  0  0  0  0  0  0  0  0  0  0  0
  132.2789  133.8852  161.5423 H   0  0  0  0  0  0  0  0  0  0  0  0
  132.0317  133.9635  159.7814 H   0  0  0  0  0  0  0  0  0  0  0  0
  130.7352  134.9716  163.0601 H   0  0  0  0  0  0  0  0  0  0  0  0
  126.6708  134.4383  163.5587 H   0  0  0  0  0  0  0  0  0  0  0  0
  125.8269  134.7474  165.8458 H   0  0  0  0  0  0  0  0  0  0  0  0
  127.4774  138.4217  167.8912 H   0  0  0  0  0  0  0  0  0  0  0  0
  126.6155  138.7319  170.1744 H   0  0  0  0  0  0  0  0  0  0  0  0
  125.4849  136.8771  171.3293 H   0  0  0  0  0  0  0  0  0  0  0  0
  125.2014  134.7072  170.2052 H   0  0  0  0  0  0  0  0  0  0  0  0
  126.0487  134.3817  167.9187 H   0  0  0  0  0  0  0  0  0  0  0  0
  128.9378  137.5953  166.6096 H   0  0  0  0  0  0  0  0  0  0  0  0
  129.7878  137.2800  164.3257 H   0  0  0  0  0  0  0  0  0  0  0  0
  126.2165  136.5241  160.6970 H   0  0  0  0  0  0  0  0  0  0  0  0
  127.8299  135.9621  159.1875 H   0  0  0  0  0  0  0  0  0  0  0  0
  130.6928  135.8535  158.0903 H   0  0  0  0  0  0  0  0  0  0  0  0
  129.1599  130.8060  157.5790 H   0  0  0  0  0  0  0  0  0  0  0  0
  129.3627  132.9669  153.8871 H   0  0  0  0  0  0  0  0  0  0  0  0
  129.9014  131.7458  151.8208 H   0  0  0  0  0  0  0  0  0  0  0  0
  132.1336  128.9409  153.9145 H   0  0  0  0  0  0  0  0  0  0  0  0
  131.6829  130.0707  156.0525 H   0  0  0  0  0  0  0  0  0  0  0  0
  1  2  1  0
  1 35  1  0
  1 36  1  0
  1 37  1  0
  2 20  2  0
  2  3  1  0
  3  4  2  0
  3 38  1  0
  4  5  1  0
  4 17  1  0
  5 16  1  0
  5  6  2  0
  6  7  1  0
  6 39  1  0
  7  8  2  0
  7 40  1  0
  8  9  1  0
  8 15  1  0
  9 14  1  0
  9 10  2  0
 10 11  1  0
 10 41  1  0
 11 12  2  0
 11 42  1  0
 12 13  1  0
 12 43  1  0
 13 14  2  0
 13 44  1  0
 14 45  1  0
 15 16  2  0
 15 46  1  0
 16 47  1  0
 17 18  1  0
 17 19  2  0
 18 48  1  0
 19 20  1  0
 19 49  1  0
 20 21  1  0
 21 50  1  0
 22 21  1  0
 22 33  2  0
 22 23  1  0
 23 24  1  0
 23 25  1  0
 25 26  2  0
 25 51  1  0
 26 27  1  0
 26 33  1  0
 27 32  1  0
 27 28  2  0
 28 29  1  0
 28 52  1  0
 29 30  2  0
 29 53  1  0
 30 31  1  0
 31 32  2  0
 31 54  1  0
 32 55  1  0
 33 34  1  0
M  CHG  1  33   1
M  END
>  <DOCK_score>  (1) 
-52.359726

>  <SMILES>  (1) 
Cc1cc(-c2ccc(-c3ccccc3)cc2)c(O)cc1Nc1[nH]cc(-c2ccncc2)[nH+]1

$$$$
