O=c1[nH]ccc2cccc(N3CC=C(c4cnccc4Nc4[nH]cc(-c5ccc(CF)cc5)[nH+]4)C3)c12
     RDKit          3D

 60 65  0  0  1  0  0  0  0  0999 V2000
  134.2543  136.7947  160.9649 O   0  0  0  0  0  0  0  0  0  0  0  0
  134.8048  137.5485  161.7477 C   0  0  0  0  0  0  0  0  0  0  0  0
  136.0496  137.2813  162.1897 N   0  0  0  0  0  0  0  0  0  0  0  0
  136.4968  136.4805  161.8737 H   0  0  0  0  0  0  0  0  0  0  0  0
  136.7033  138.0991  163.0667 C   0  0  0  0  0  0  0  0  0  0  0  0
  136.1515  139.2243  163.5484 C   0  0  0  0  0  0  0  0  0  0  0  0
  134.8004  139.6000  163.1263 C   0  0  0  0  0  0  0  0  0  0  0  0
  134.1766  140.7561  163.5934 C   0  0  0  0  0  0  0  0  0  0  0  0
  132.9027  141.0660  163.1662 C   0  0  0  0  0  0  0  0  0  0  0  0
  132.2312  140.2429  162.2762 C   0  0  0  0  0  0  0  0  0  0  0  0
  132.8270  139.0866  161.7955 C   0  0  0  0  0  0  0  0  0  0  0  0
  132.1475  138.2658  160.9032 N   0  0  0  0  0  0  0  0  0  0  0  0
  131.6781  139.0347  159.7265 C   0  0  0  0  0  0  0  0  0  0  0  0
  130.3575  138.4102  159.3388 C   0  0  0  0  0  0  0  0  0  0  0  0
  129.9050  137.6831  160.3521 C   0  0  0  0  0  0  0  0  0  0  0  0
  128.6426  136.9163  160.3586 C   0  0  0  0  0  0  0  0  0  0  0  0
  127.6501  137.1920  161.2967 C   0  0  0  0  0  0  0  0  0  0  0  0
  126.5214  136.5118  161.2998 N   0  0  0  0  0  0  0  0  0  0  0  0
  126.2844  135.5428  160.4346 C   0  0  0  0  0  0  0  0  0  0  0  0
  127.2139  135.1997  159.4747 C   0  0  0  0  0  0  0  0  0  0  0  0
  128.4227  135.8901  159.4214 C   0  0  0  0  0  0  0  0  0  0  0  0
  129.3851  135.5741  158.4683 N   0  0  0  0  0  0  0  0  0  0  0  0
  129.4881  134.2772  157.9911 C   0  0  0  0  0  0  0  0  0  0  0  0
  129.1767  133.1495  158.6865 N   0  0  0  0  0  0  0  0  0  0  0  0
  128.8462  133.1092  159.5976 H   0  0  0  0  0  0  0  0  0  0  0  0
  129.4172  132.0794  157.8607 C   0  0  0  0  0  0  0  0  0  0  0  0
  129.8683  132.5830  156.6849 C   0  0  0  0  0  0  0  0  0  0  0  0
  130.2576  131.7952  155.4898 C   0  0  0  0  0  0  0  0  0  0  0  0
  130.0996  132.3347  154.2145 C   0  0  0  0  0  0  0  0  0  0  0  0
  130.4688  131.5995  153.1064 C   0  0  0  0  0  0  0  0  0  0  0  0
  130.9837  130.3247  153.2593 C   0  0  0  0  0  0  0  0  0  0  0  0
  131.3788  129.5242  152.0452 C   0  0  0  0  0  0  0  0  0  0  0  0
  131.1334  130.2758  150.8909 F   0  0  0  0  0  0  0  0  0  0  0  0
  131.1379  129.7822  154.5223 C   0  0  0  0  0  0  0  0  0  0  0  0
  130.7773  130.5105  155.6378 C   0  0  0  0  0  0  0  0  0  0  0  0
  129.8960  133.9345  156.7935 N   0  0  0  0  0  0  0  0  0  0  0  0
  130.1754  134.5492  156.0972 H   0  0  0  0  0  0  0  0  0  0  0  0
  130.8869  137.7634  161.4982 C   0  0  0  0  0  0  0  0  0  0  0  0
  134.1216  138.7542  162.2180 C   0  0  0  0  0  0  0  0  0  0  0  0
  137.6984  137.8287  163.3878 H   0  0  0  0  0  0  0  0  0  0  0  0
  136.6988  139.8467  164.2407 H   0  0  0  0  0  0  0  0  0  0  0  0
  134.6888  141.4061  164.2873 H   0  0  0  0  0  0  0  0  0  0  0  0
  132.4221  141.9622  163.5297 H   0  0  0  0  0  0  0  0  0  0  0  0
  131.2342  140.5044  161.9541 H   0  0  0  0  0  0  0  0  0  0  0  0
  131.5365  140.0823  159.9923 H   0  0  0  0  0  0  0  0  0  0  0  0
  132.3924  138.9455  158.9081 H   0  0  0  0  0  0  0  0  0  0  0  0
  129.8609  138.5362  158.3880 H   0  0  0  0  0  0  0  0  0  0  0  0
  127.8053  137.9738  162.0255 H   0  0  0  0  0  0  0  0  0  0  0  0
  125.3462  135.0097  160.4788 H   0  0  0  0  0  0  0  0  0  0  0  0
  127.0068  134.4056  158.7726 H   0  0  0  0  0  0  0  0  0  0  0  0
  129.9841  136.2616  158.1375 H   0  0  0  0  0  0  0  0  0  0  0  0
  129.2744  131.0362  158.1013 H   0  0  0  0  0  0  0  0  0  0  0  0
  129.6928  133.3279  154.0937 H   0  0  0  0  0  0  0  0  0  0  0  0
  130.3507  132.0181  152.1180 H   0  0  0  0  0  0  0  0  0  0  0  0
  132.4395  129.2795  152.1006 H   0  0  0  0  0  0  0  0  0  0  0  0
  130.7950  128.6043  152.0106 H   0  0  0  0  0  0  0  0  0  0  0  0
  131.5407  128.7866  154.6358 H   0  0  0  0  0  0  0  0  0  0  0  0
  130.8981  130.0859  156.6235 H   0  0  0  0  0  0  0  0  0  0  0  0
  131.0419  136.7756  161.9321 H   0  0  0  0  0  0  0  0  0  0  0  0
  130.5250  138.4570  162.2570 H   0  0  0  0  0  0  0  0  0  0  0  0
  1  2  2  0
  2 39  1  0
  2  3  1  0
  3  4  1  0
  3  5  1  0
  5  6  2  0
  5 40  1  0
  6  7  1  0
  6 41  1  0
  7 39  2  0
  7  8  1  0
  8  9  2  0
  8 42  1  0
  9 10  1  0
  9 43  1  0
 10 11  2  0
 10 44  1  0
 11 12  1  0
 11 39  1  0
 12 38  1  0
 12 13  1  0
 13 14  1  0
 13 45  1  0
 13 46  1  0
 14 15  2  0
 14 47  1  0
 15 16  1  0
 15 38  1  0
 16 21  1  0
 16 17  2  0
 17 18  1  0
 17 48  1  0
 18 19  2  0
 19 20  1  0
 19 49  1  0
 20 21  2  0
 20 50  1  0
 21 22  1  0
 22 51  1  0
 23 22  1  0
 23 36  2  0
 23 24  1  0
 24 25  1  0
 24 26  1  0
 26 27  2  0
 26 52  1  0
 27 28  1  0
 27 36  1  0
 28 35  1  0
 28 29  2  0
 29 30  1  0
 29 53  1  0
 30 31  2  0
 30 54  1  0
 31 32  1  0
 31 34  1  0
 32 33  1  0
 32 55  1  0
 32 56  1  0
 34 35  2  0
 34 57  1  0
 35 58  1  0
 36 37  1  0
 38 59  1  0
 38 60  1  0
M  CHG  1  36   1
M  END
>  <DOCK_score>  (1) 
-53.756699

>  <SMILES>  (1) 
O=c1[nH]ccc2cccc(N3CC=C(c4cnccc4Nc4[nH]cc(-c5ccc(CF)cc5)[nH+]4)C3)c12

$$$$
