Clc1ccc2c(c1)C[C@H](Nc1ccc(-c3n[nH]cc3CNc3[nH]cc(-c4ccncc4)[nH+]3)o1)C2
     RDKit          3D

 57 62  0  0  1  0  0  0  0  0999 V2000
  137.8612  137.0808  163.7241 Cl  0  0  0  0  0  0  0  0  0  0  0  0
  136.4153  136.3365  164.3315 C   0  0  0  0  0  0  0  0  0  0  0  0
  136.4994  135.2140  165.1364 C   0  0  0  0  0  0  0  0  0  0  0  0
  135.3476  134.6244  165.6186 C   0  0  0  0  0  0  0  0  0  0  0  0
  134.1074  135.1493  165.2949 C   0  0  0  0  0  0  0  0  0  0  0  0
  134.0230  136.2739  164.4957 C   0  0  0  0  0  0  0  0  0  0  0  0
  135.1785  136.8644  164.0121 C   0  0  0  0  0  0  0  0  0  0  0  0
  132.5709  136.6519  164.2958 C   0  0  0  0  0  0  0  0  0  0  0  0
  131.7692  135.3874  164.6846 C   0  0  2  0  0  0  0  0  0  0  0  0
  131.5886  134.7518  163.8177 H   0  0  0  0  0  0  0  0  0  0  0  0
  130.5066  135.7529  165.3315 N   0  0  0  0  0  0  0  0  0  0  0  0
  129.3622  135.9420  164.5653 C   0  0  0  0  0  0  0  0  0  0  0  0
  128.1377  136.2805  165.0402 C   0  0  0  0  0  0  0  0  0  0  0  0
  127.2755  136.3673  163.9292 C   0  0  0  0  0  0  0  0  0  0  0  0
  128.0197  136.0768  162.8298 C   0  0  0  0  0  0  0  0  0  0  0  0
  127.5293  136.0455  161.4364 C   0  0  0  0  0  0  0  0  0  0  0  0
  126.2974  136.2996  161.0408 N   0  0  0  0  0  0  0  0  0  0  0  0
  126.2513  136.1625  159.6477 N   0  0  0  0  0  0  0  0  0  0  0  0
  125.4687  136.2914  159.0891 H   0  0  0  0  0  0  0  0  0  0  0  0
  127.4845  135.8201  159.2165 C   0  0  0  0  0  0  0  0  0  0  0  0
  128.2976  135.7446  160.2919 C   0  0  0  0  0  0  0  0  0  0  0  0
  129.7638  135.3971  160.2733 C   0  0  0  0  0  0  0  0  0  0  0  0
  130.1902  135.1519  158.8934 N   0  0  0  0  0  0  0  0  0  0  0  0
  130.1180  133.8753  158.3631 C   0  0  0  0  0  0  0  0  0  0  0  0
  129.6662  132.7698  159.0165 N   0  0  0  0  0  0  0  0  0  0  0  0
  129.3399  132.7354  159.9293 H   0  0  0  0  0  0  0  0  0  0  0  0
  129.7574  131.7129  158.1461 C   0  0  0  0  0  0  0  0  0  0  0  0
  130.2624  132.2011  156.9851 C   0  0  0  0  0  0  0  0  0  0  0  0
  130.5351  131.4197  155.7555 C   0  0  0  0  0  0  0  0  0  0  0  0
  129.8952  131.7292  154.5510 C   0  0  0  0  0  0  0  0  0  0  0  0
  130.1820  130.9798  153.4295 C   0  0  0  0  0  0  0  0  0  0  0  0
  131.0384  129.9775  153.4853 N   0  0  0  0  0  0  0  0  0  0  0  0
  131.6593  129.6489  154.6027 C   0  0  0  0  0  0  0  0  0  0  0  0
  131.4350  130.3491  155.7694 C   0  0  0  0  0  0  0  0  0  0  0  0
  130.4682  133.5328  157.1478 N   0  0  0  0  0  0  0  0  0  0  0  0
  130.8205  134.1342  156.4731 H   0  0  0  0  0  0  0  0  0  0  0  0
  129.2845  135.8258  163.2287 O   0  0  0  0  0  0  0  0  0  0  0  0
  132.7176  134.6936  165.6854 C   0  0  0  0  0  0  0  0  0  0  0  0
  137.4646  134.7998  165.3875 H   0  0  0  0  0  0  0  0  0  0  0  0
  135.4138  133.7481  166.2463 H   0  0  0  0  0  0  0  0  0  0  0  0
  135.1130  137.7404  163.3839 H   0  0  0  0  0  0  0  0  0  0  0  0
  132.3069  137.4917  164.9384 H   0  0  0  0  0  0  0  0  0  0  0  0
  132.3853  136.9011  163.2510 H   0  0  0  0  0  0  0  0  0  0  0  0
  130.4691  135.8630  166.2946 H   0  0  0  0  0  0  0  0  0  0  0  0
  127.8738  136.4514  166.0734 H   0  0  0  0  0  0  0  0  0  0  0  0
  126.2249  136.6167  163.9478 H   0  0  0  0  0  0  0  0  0  0  0  0
  127.7713  135.6421  158.1905 H   0  0  0  0  0  0  0  0  0  0  0  0
  130.3386  136.2242  160.6897 H   0  0  0  0  0  0  0  0  0  0  0  0
  129.9324  134.5008  160.8703 H   0  0  0  0  0  0  0  0  0  0  0  0
  130.5231  135.8842  158.3512 H   0  0  0  0  0  0  0  0  0  0  0  0
  129.4807  130.6885  158.3469 H   0  0  0  0  0  0  0  0  0  0  0  0
  129.1901  132.5456  154.4990 H   0  0  0  0  0  0  0  0  0  0  0  0
  129.6958  131.2135  152.4939 H   0  0  0  0  0  0  0  0  0  0  0  0
  132.3524  128.8206  154.6035 H   0  0  0  0  0  0  0  0  0  0  0  0
  131.9468  130.0751  156.6800 H   0  0  0  0  0  0  0  0  0  0  0  0
  132.6355  133.6104  165.5956 H   0  0  0  0  0  0  0  0  0  0  0  0
  132.4892  135.0064  166.7043 H   0  0  0  0  0  0  0  0  0  0  0  0
  1  2  1  0
  2  7  2  0
  2  3  1  0
  3  4  2  0
  3 39  1  0
  4  5  1  0
  4 40  1  0
  5 38  1  0
  5  6  2  0
  6  7  1  0
  6  8  1  0
  7 41  1  0
  8  9  1  0
  8 42  1  0
  8 43  1  0
  9 10  1  6
  9 11  1  0
  9 38  1  0
 11 12  1  0
 11 44  1  0
 12 37  1  0
 12 13  2  0
 13 14  1  0
 13 45  1  0
 14 15  2  0
 14 46  1  0
 15 16  1  0
 15 37  1  0
 16 21  1  0
 16 17  2  0
 17 18  1  0
 18 19  1  0
 18 20  1  0
 20 21  2  0
 20 47  1  0
 21 22  1  0
 22 23  1  0
 22 48  1  0
 22 49  1  0
 23 50  1  0
 24 23  1  0
 24 35  2  0
 24 25  1  0
 25 26  1  0
 25 27  1  0
 27 28  2  0
 27 51  1  0
 28 29  1  0
 28 35  1  0
 29 34  1  0
 29 30  2  0
 30 31  1  0
 30 52  1  0
 31 32  2  0
 31 53  1  0
 32 33  1  0
 33 34  2  0
 33 54  1  0
 34 55  1  0
 35 36  1  0
 38 56  1  0
 38 57  1  0
M  CHG  1  35   1
M  END
>  <DOCK_score>  (1) 
-48.931805

>  <SMILES>  (1) 
Clc1ccc2c(c1)C[C@H](Nc1ccc(-c3n[nH]cc3CNc3[nH]cc(-c4ccncc4)[nH+]3)o1)C2

$$$$
