NC(=O)c1ccccc1-c1ccccc1N1CC[NH+]([C@@H](c2ccccc2)c2ccc(O)cc2)CC1
     RDKit          3D

 65 69  0  0  1  0  0  0  0  0999 V2000
  136.9882  138.3725  163.3448 N   0  0  0  0  0  0  0  0  0  0  0  0
  135.7635  137.8299  163.1955 C   0  0  0  0  0  0  0  0  0  0  0  0
  135.6312  136.7866  162.5853 O   0  0  0  0  0  0  0  0  0  0  0  0
  134.5835  138.5020  163.7724 C   0  0  0  0  0  0  0  0  0  0  0  0
  134.1737  138.2075  165.0735 C   0  0  0  0  0  0  0  0  0  0  0  0
  133.0665  138.8340  165.6055 C   0  0  0  0  0  0  0  0  0  0  0  0
  132.3581  139.7612  164.8582 C   0  0  0  0  0  0  0  0  0  0  0  0
  132.7515  140.0700  163.5722 C   0  0  0  0  0  0  0  0  0  0  0  0
  133.8670  139.4478  163.0164 C   0  0  0  0  0  0  0  0  0  0  0  0
  134.2923  139.7751  161.6368 C   0  0  0  0  0  0  0  0  0  0  0  0
  135.2057  140.8039  161.4105 C   0  0  0  0  0  0  0  0  0  0  0  0
  135.5937  141.1092  160.1224 C   0  0  0  0  0  0  0  0  0  0  0  0
  135.0845  140.3941  159.0515 C   0  0  0  0  0  0  0  0  0  0  0  0
  134.1839  139.3686  159.2619 C   0  0  0  0  0  0  0  0  0  0  0  0
  133.7830  139.0493  160.5520 C   0  0  0  0  0  0  0  0  0  0  0  0
  132.8741  138.0154  160.7665 N   0  0  0  0  0  0  0  0  0  0  0  0
  131.5745  138.3206  160.1519 C   0  0  0  0  0  0  0  0  0  0  0  0
  130.5898  137.1907  160.4604 C   0  0  0  0  0  0  0  0  0  0  0  0
  131.1154  135.9249  159.9322 N   0  0  0  0  0  0  0  0  0  0  0  0
  131.2479  136.0060  158.9352 H   0  0  0  0  0  0  0  0  0  0  0  0
  130.1614  134.8437  160.2127 C   0  0  1  0  0  0  0  0  0  0  0  0
  130.0177  134.7563  161.2896 H   0  0  0  0  0  0  0  0  0  0  0  0
  128.8422  135.1541  159.5535 C   0  0  0  0  0  0  0  0  0  0  0  0
  127.6649  134.6933  160.1124 C   0  0  0  0  0  0  0  0  0  0  0  0
  126.4545  134.9815  159.5101 C   0  0  0  0  0  0  0  0  0  0  0  0
  126.4221  135.7230  158.3439 C   0  0  0  0  0  0  0  0  0  0  0  0
  127.5998  136.1794  157.7821 C   0  0  0  0  0  0  0  0  0  0  0  0
  128.8099  135.8948  158.3867 C   0  0  0  0  0  0  0  0  0  0  0  0
  130.7005  133.5449  159.6708 C   0  0  0  0  0  0  0  0  0  0  0  0
  130.9635  133.4169  158.3195 C   0  0  0  0  0  0  0  0  0  0  0  0
  131.4572  132.2273  157.8203 C   0  0  0  0  0  0  0  0  0  0  0  0
  131.6844  131.1586  158.6753 C   0  0  0  0  0  0  0  0  0  0  0  0
  132.1653  129.9856  158.1859 O   0  0  0  0  0  0  0  0  0  0  0  0
  131.4251  131.2915  160.0318 C   0  0  0  0  0  0  0  0  0  0  0  0
  130.9309  132.4831  160.5259 C   0  0  0  0  0  0  0  0  0  0  0  0
  132.4015  135.6213  160.5733 C   0  0  0  0  0  0  0  0  0  0  0  0
  133.4013  136.7382  160.2657 C   0  0  0  0  0  0  0  0  0  0  0  0
  137.0938  139.2048  163.8315 H   0  0  0  0  0  0  0  0  0  0  0  0
  137.7640  137.9307  162.9655 H   0  0  0  0  0  0  0  0  0  0  0  0
  134.7209  137.4859  165.6620 H   0  0  0  0  0  0  0  0  0  0  0  0
  132.7495  138.6009  166.6113 H   0  0  0  0  0  0  0  0  0  0  0  0
  131.4924  140.2456  165.2852 H   0  0  0  0  0  0  0  0  0  0  0  0
  132.1942  140.7940  162.9964 H   0  0  0  0  0  0  0  0  0  0  0  0
  135.6059  141.3643  162.2426 H   0  0  0  0  0  0  0  0  0  0  0  0
  136.2973  141.9097  159.9485 H   0  0  0  0  0  0  0  0  0  0  0  0
  135.3939  140.6395  158.0463 H   0  0  0  0  0  0  0  0  0  0  0  0
  133.7909  138.8150  158.4221 H   0  0  0  0  0  0  0  0  0  0  0  0
  131.6954  138.4130  159.0725 H   0  0  0  0  0  0  0  0  0  0  0  0
  131.1917  139.2573  160.5568 H   0  0  0  0  0  0  0  0  0  0  0  0
  129.6292  137.4082  159.9935 H   0  0  0  0  0  0  0  0  0  0  0  0
  130.4586  137.1075  161.5393 H   0  0  0  0  0  0  0  0  0  0  0  0
  127.6905  134.1107  161.0216 H   0  0  0  0  0  0  0  0  0  0  0  0
  125.5344  134.6252  159.9493 H   0  0  0  0  0  0  0  0  0  0  0  0
  125.4768  135.9461  157.8720 H   0  0  0  0  0  0  0  0  0  0  0  0
  127.5745  136.7587  156.8711 H   0  0  0  0  0  0  0  0  0  0  0  0
  129.7299  136.2513  157.9478 H   0  0  0  0  0  0  0  0  0  0  0  0
  130.7830  134.2479  157.6536 H   0  0  0  0  0  0  0  0  0  0  0  0
  131.6621  132.1277  156.7645 H   0  0  0  0  0  0  0  0  0  0  0  0
  132.3182  129.9910  157.2311 H   0  0  0  0  0  0  0  0  0  0  0  0
  131.6049  130.4624  160.7000 H   0  0  0  0  0  0  0  0  0  0  0  0
  130.7248  132.5854  161.5811 H   0  0  0  0  0  0  0  0  0  0  0  0
  132.2611  135.5461  161.6517 H   0  0  0  0  0  0  0  0  0  0  0  0
  132.7843  134.6753  160.1901 H   0  0  0  0  0  0  0  0  0  0  0  0
  133.5524  136.8045  159.1883 H   0  0  0  0  0  0  0  0  0  0  0  0
  134.3515  136.5207  160.7535 H   0  0  0  0  0  0  0  0  0  0  0  0
  1  2  1  0
  1 38  1  0
  1 39  1  0
  2  3  2  0
  2  4  1  0
  4  9  2  0
  4  5  1  0
  5  6  2  0
  5 40  1  0
  6  7  1  0
  6 41  1  0
  7  8  2  0
  7 42  1  0
  8  9  1  0
  8 43  1  0
  9 10  1  0
 10 15  1  0
 10 11  2  0
 11 12  1  0
 11 44  1  0
 12 13  2  0
 12 45  1  0
 13 14  1  0
 13 46  1  0
 14 15  2  0
 14 47  1  0
 15 16  1  0
 16 37  1  0
 16 17  1  0
 17 18  1  0
 17 48  1  0
 17 49  1  0
 18 19  1  0
 18 50  1  0
 18 51  1  0
 19 20  1  0
 19 21  1  0
 19 36  1  0
 21 22  1  1
 21 23  1  0
 21 29  1  0
 23 28  1  0
 23 24  2  0
 24 25  1  0
 24 52  1  0
 25 26  2  0
 25 53  1  0
 26 27  1  0
 26 54  1  0
 27 28  2  0
 27 55  1  0
 28 56  1  0
 29 35  1  0
 29 30  2  0
 30 31  1  0
 30 57  1  0
 31 32  2  0
 31 58  1  0
 32 33  1  0
 32 34  1  0
 33 59  1  0
 34 35  2  0
 34 60  1  0
 35 61  1  0
 36 37  1  0
 36 62  1  0
 36 63  1  0
 37 64  1  0
 37 65  1  0
M  CHG  1  19   1
M  END
>  <DOCK_score>  (1) 
-57.912262

>  <SMILES>  (1) 
NC(=O)c1ccccc1-c1ccccc1N1CC[NH+]([C@@H](c2ccccc2)c2ccc(O)cc2)CC1

$$$$
