O=C1CC[C@H](NC(NC2CC(F)(F)C2)=[NH+]Cc2ccc(F)cc2F)CN1
     RDKit          3D

 47 49  0  0  1  0  0  0  0  0999 V2000
  123.6993  133.7716  161.2342 O   0  0  0  0  0  0  0  0  0  0  0  0
  124.9060  133.8265  161.1255 C   0  0  0  0  0  0  0  0  0  0  0  0
  125.6199  132.6493  160.5258 C   0  0  0  0  0  0  0  0  0  0  0  0
  127.1104  132.7146  160.8678 C   0  0  0  0  0  0  0  0  0  0  0  0
  127.6204  134.1246  160.5463 C   0  0  2  0  0  0  0  0  0  0  0  0
  127.3497  134.3870  159.5235 H   0  0  0  0  0  0  0  0  0  0  0  0
  129.0770  134.1700  160.6963 N   0  0  0  0  0  0  0  0  0  0  0  0
  129.8877  133.8846  159.6232 C   0  0  0  0  0  0  0  0  0  0  0  0
  131.2547  133.9271  159.7639 N   0  0  0  0  0  0  0  0  0  0  0  0
  131.8634  134.8455  160.7294 C   0  0  0  0  0  0  0  0  0  0  0  0
  133.3975  134.9060  160.6394 C   0  0  0  0  0  0  0  0  0  0  0  0
  133.4073  134.9527  162.1765 C   0  0  0  0  0  0  0  0  0  0  0  0
  133.3384  136.2489  162.6982 F   0  0  0  0  0  0  0  0  0  0  0  0
  134.4253  134.1873  162.7555 F   0  0  0  0  0  0  0  0  0  0  0  0
  132.0482  134.2349  162.1286 C   0  0  0  0  0  0  0  0  0  0  0  0
  129.3604  133.5735  158.4725 N   0  0  0  0  0  0  0  0  0  0  0  0
  128.5003  133.1263  158.4383 H   0  0  0  0  0  0  0  0  0  0  0  0
  130.0667  133.8994  157.2311 C   0  0  0  0  0  0  0  0  0  0  0  0
  130.3456  132.6324  156.4644 C   0  0  0  0  0  0  0  0  0  0  0  0
  130.1148  132.5842  155.1023 C   0  0  0  0  0  0  0  0  0  0  0  0
  130.3696  131.4230  154.3979 C   0  0  0  0  0  0  0  0  0  0  0  0
  130.8569  130.3055  155.0569 C   0  0  0  0  0  0  0  0  0  0  0  0
  131.1059  129.1708  154.3674 F   0  0  0  0  0  0  0  0  0  0  0  0
  131.0886  130.3532  156.4198 C   0  0  0  0  0  0  0  0  0  0  0  0
  130.8382  131.5189  157.1233 C   0  0  0  0  0  0  0  0  0  0  0  0
  131.0690  131.5681  158.4537 F   0  0  0  0  0  0  0  0  0  0  0  0
  126.9735  135.1125  161.5178 C   0  0  0  0  0  0  0  0  0  0  0  0
  125.5278  134.9293  161.5446 N   0  0  0  0  0  0  0  0  0  0  0  0
  125.1969  131.7275  160.9251 H   0  0  0  0  0  0  0  0  0  0  0  0
  125.4959  132.6638  159.4430 H   0  0  0  0  0  0  0  0  0  0  0  0
  127.6561  131.9824  160.2726 H   0  0  0  0  0  0  0  0  0  0  0  0
  127.2528  132.5058  161.9281 H   0  0  0  0  0  0  0  0  0  0  0  0
  129.4694  134.4016  161.5525 H   0  0  0  0  0  0  0  0  0  0  0  0
  131.8161  133.3490  159.2240 H   0  0  0  0  0  0  0  0  0  0  0  0
  131.3864  135.8255  160.7403 H   0  0  0  0  0  0  0  0  0  0  0  0
  133.8466  134.0024  160.2271 H   0  0  0  0  0  0  0  0  0  0  0  0
  133.7719  135.8169  160.1724 H   0  0  0  0  0  0  0  0  0  0  0  0
  131.3334  134.6041  162.8640 H   0  0  0  0  0  0  0  0  0  0  0  0
  132.1285  133.1478  162.1235 H   0  0  0  0  0  0  0  0  0  0  0  0
  129.4491  134.5624  156.6251 H   0  0  0  0  0  0  0  0  0  0  0  0
  131.0079  134.3953  157.4681 H   0  0  0  0  0  0  0  0  0  0  0  0
  129.7346  133.4546  154.5883 H   0  0  0  0  0  0  0  0  0  0  0  0
  130.1886  131.3862  153.3338 H   0  0  0  0  0  0  0  0  0  0  0  0
  131.4685  129.4827  156.9338 H   0  0  0  0  0  0  0  0  0  0  0  0
  127.3758  134.9505  162.5177 H   0  0  0  0  0  0  0  0  0  0  0  0
  127.2018  136.1305  161.2017 H   0  0  0  0  0  0  0  0  0  0  0  0
  124.9839  135.6547  161.8891 H   0  0  0  0  0  0  0  0  0  0  0  0
  1  2  2  0
  2 28  1  0
  2  3  1  0
  3  4  1  0
  3 29  1  0
  3 30  1  0
  4  5  1  0
  4 31  1  0
  4 32  1  0
  5  6  1  6
  5  7  1  0
  5 27  1  0
  7 33  1  0
  8  7  1  0
  8  9  1  0
  8 16  2  0
  9 10  1  0
  9 34  1  0
 10 15  1  0
 10 11  1  0
 10 35  1  0
 11 12  1  0
 11 36  1  0
 11 37  1  0
 12 13  1  0
 12 14  1  0
 12 15  1  0
 15 38  1  0
 15 39  1  0
 16 17  1  0
 16 18  1  0
 18 19  1  0
 18 40  1  0
 18 41  1  0
 19 25  1  0
 19 20  2  0
 20 21  1  0
 20 42  1  0
 21 22  2  0
 21 43  1  0
 22 23  1  0
 22 24  1  0
 24 25  2  0
 24 44  1  0
 25 26  1  0
 27 28  1  0
 27 45  1  0
 27 46  1  0
 28 47  1  0
M  CHG  1  16   1
M  END
>  <DOCK_score>  (1) 
-43.327103

>  <SMILES>  (1) 
O=C1CC[C@H](NC(NC2CC(F)(F)C2)=[NH+]Cc2ccc(F)cc2F)CN1

$$$$
