Nc1ccc(-c2c[nH]c(N[C@H](c3ccccc3)C3CCCC3)[nH+]2)cc1
     RDKit          3D

 50 53  0  0  1  0  0  0  0  0999 V2000
  131.6130  129.5593  151.4795 N   0  0  0  0  0  0  0  0  0  0  0  0
  131.2627  130.2064  152.6670 C   0  0  0  0  0  0  0  0  0  0  0  0
  130.5004  131.3678  152.6255 C   0  0  0  0  0  0  0  0  0  0  0  0
  130.1531  132.0078  153.7965 C   0  0  0  0  0  0  0  0  0  0  0  0
  130.5672  131.4893  155.0224 C   0  0  0  0  0  0  0  0  0  0  0  0
  130.1952  132.1764  156.2834 C   0  0  0  0  0  0  0  0  0  0  0  0
  129.4690  131.6447  157.2976 C   0  0  0  0  0  0  0  0  0  0  0  0
  129.3603  132.6177  158.2629 N   0  0  0  0  0  0  0  0  0  0  0  0
  128.8961  132.5367  159.1107 H   0  0  0  0  0  0  0  0  0  0  0  0
  130.0239  133.7155  157.8088 C   0  0  0  0  0  0  0  0  0  0  0  0
  130.1525  134.9168  158.4848 N   0  0  0  0  0  0  0  0  0  0  0  0
  129.1012  135.3551  159.4061 C   0  0  2  0  0  0  0  0  0  0  0  0
  128.9831  134.6176  160.1999 H   0  0  0  0  0  0  0  0  0  0  0  0
  127.8023  135.4974  158.6552 C   0  0  0  0  0  0  0  0  0  0  0  0
  126.6013  135.2805  159.3042 C   0  0  0  0  0  0  0  0  0  0  0  0
  125.4097  135.4154  158.6165 C   0  0  0  0  0  0  0  0  0  0  0  0
  125.4197  135.7582  157.2774 C   0  0  0  0  0  0  0  0  0  0  0  0
  126.6209  135.9699  156.6269 C   0  0  0  0  0  0  0  0  0  0  0  0
  127.8123  135.8394  157.3158 C   0  0  0  0  0  0  0  0  0  0  0  0
  129.4878  136.7039  160.0164 C   0  0  0  0  0  0  0  0  0  0  0  0
  130.9799  136.6983  160.4082 C   0  0  0  0  0  0  0  0  0  0  0  0
  131.0297  137.5122  161.7251 C   0  0  0  0  0  0  0  0  0  0  0  0
  129.7310  137.0744  162.4468 C   0  0  0  0  0  0  0  0  0  0  0  0
  128.6938  136.9429  161.3126 C   0  0  0  0  0  0  0  0  0  0  0  0
  130.5213  133.4479  156.6259 N   0  0  0  0  0  0  0  0  0  0  0  0
  131.0398  134.0613  156.0821 H   0  0  0  0  0  0  0  0  0  0  0  0
  131.3361  130.3273  155.0613 C   0  0  0  0  0  0  0  0  0  0  0  0
  131.6766  129.6875  153.8882 C   0  0  0  0  0  0  0  0  0  0  0  0
  131.3243  129.9207  150.6269 H   0  0  0  0  0  0  0  0  0  0  0  0
  132.1451  128.7488  151.5076 H   0  0  0  0  0  0  0  0  0  0  0  0
  130.1802  131.7694  151.6756 H   0  0  0  0  0  0  0  0  0  0  0  0
  129.5604  132.9101  153.7638 H   0  0  0  0  0  0  0  0  0  0  0  0
  129.0587  130.6466  157.3409 H   0  0  0  0  0  0  0  0  0  0  0  0
  130.9388  135.4682  158.3483 H   0  0  0  0  0  0  0  0  0  0  0  0
  126.5938  135.0091  160.3494 H   0  0  0  0  0  0  0  0  0  0  0  0
  124.4712  135.2502  159.1247 H   0  0  0  0  0  0  0  0  0  0  0  0
  124.4889  135.8609  156.7394 H   0  0  0  0  0  0  0  0  0  0  0  0
  126.6287  136.2378  155.5808 H   0  0  0  0  0  0  0  0  0  0  0  0
  128.7509  136.0048  156.8076 H   0  0  0  0  0  0  0  0  0  0  0  0
  129.2910  137.5056  159.3046 H   0  0  0  0  0  0  0  0  0  0  0  0
  131.3263  135.6787  160.5765 H   0  0  0  0  0  0  0  0  0  0  0  0
  131.5785  137.1833  159.6371 H   0  0  0  0  0  0  0  0  0  0  0  0
  131.0150  138.5823  161.5186 H   0  0  0  0  0  0  0  0  0  0  0  0
  131.9076  137.2430  162.3125 H   0  0  0  0  0  0  0  0  0  0  0  0
  129.4184  137.8337  163.1635 H   0  0  0  0  0  0  0  0  0  0  0  0
  129.8740  136.1159  162.9460 H   0  0  0  0  0  0  0  0  0  0  0  0
  128.1123  137.8611  161.2301 H   0  0  0  0  0  0  0  0  0  0  0  0
  128.0330  136.0982  161.5068 H   0  0  0  0  0  0  0  0  0  0  0  0
  131.6618  129.9261  156.0097 H   0  0  0  0  0  0  0  0  0  0  0  0
  132.2693  128.7851  153.9180 H   0  0  0  0  0  0  0  0  0  0  0  0
  1  2  1  0
  1 29  1  0
  1 30  1  0
  2 28  2  0
  2  3  1  0
  3  4  2  0
  3 31  1  0
  4  5  1  0
  4 32  1  0
  5  6  1  0
  5 27  2  0
  6 25  1  0
  6  7  2  0
  7  8  1  0
  7 33  1  0
  8  9  1  0
  8 10  1  0
 10 11  1  0
 10 25  2  0
 11 12  1  0
 11 34  1  0
 12 13  1  1
 12 14  1  0
 12 20  1  0
 14 19  1  0
 14 15  2  0
 15 16  1  0
 15 35  1  0
 16 17  2  0
 16 36  1  0
 17 18  1  0
 17 37  1  0
 18 19  2  0
 18 38  1  0
 19 39  1  0
 20 24  1  0
 20 21  1  0
 20 40  1  0
 21 22  1  0
 21 41  1  0
 21 42  1  0
 22 23  1  0
 22 43  1  0
 22 44  1  0
 23 24  1  0
 23 45  1  0
 23 46  1  0
 24 47  1  0
 24 48  1  0
 25 26  1  0
 27 28  1  0
 27 49  1  0
 28 50  1  0
M  CHG  1  25   1
M  END
>  <DOCK_score>  (1) 
-59.185532

>  <SMILES>  (1) 
Nc1ccc(-c2c[nH]c(N[C@H](c3ccccc3)C3CCCC3)[nH+]2)cc1

$$$$
