C[C@@H](O)CC(Nc1[nH]cc(-c2ccc(Br)cc2)[nH+]1)c1ccccc1
     RDKit          3D

 45 47  0  0  1  0  0  0  0  0999 V2000
  132.1005  137.0488  162.5815 C   0  0  0  0  0  0  0  0  0  0  0  0
  131.8694  137.4768  161.1308 C   0  0  1  0  0  0  0  0  0  0  0  0
  132.1804  138.5137  161.0040 H   0  0  0  0  0  0  0  0  0  0  0  0
  132.6338  136.6402  160.2601 O   0  0  0  0  0  0  0  0  0  0  0  0
  130.3835  137.3446  160.7906 C   0  0  0  0  0  0  0  0  0  0  0  0
  130.0596  135.8817  160.4805 C   0  0  2  0  0  0  0  0  0  0  0  0
  130.4668  135.5718  159.1078 N   0  0  0  0  0  0  0  0  0  0  0  0
  130.2721  134.2993  158.5986 C   0  0  0  0  0  0  0  0  0  0  0  0
  129.7213  133.2521  159.2711 N   0  0  0  0  0  0  0  0  0  0  0  0
  129.3969  133.2631  160.1853 H   0  0  0  0  0  0  0  0  0  0  0  0
  129.7063  132.1776  158.4152 C   0  0  0  0  0  0  0  0  0  0  0  0
  130.2557  132.5964  157.2483 C   0  0  0  0  0  0  0  0  0  0  0  0
  130.4529  131.7721  156.0309 C   0  0  0  0  0  0  0  0  0  0  0  0
  129.8400  132.1361  154.8331 C   0  0  0  0  0  0  0  0  0  0  0  0
  130.0310  131.3688  153.7022 C   0  0  0  0  0  0  0  0  0  0  0  0
  130.8208  130.2338  153.7582 C   0  0  0  0  0  0  0  0  0  0  0  0
  131.0722  129.1830  152.2062 Br  0  0  0  0  0  0  0  0  0  0  0  0
  131.4271  129.8645  154.9469 C   0  0  0  0  0  0  0  0  0  0  0  0
  131.2469  130.6278  156.0822 C   0  0  0  0  0  0  0  0  0  0  0  0
  130.5931  133.9026  157.3914 N   0  0  0  0  0  0  0  0  0  0  0  0
  131.0063  134.4548  156.7092 H   0  0  0  0  0  0  0  0  0  0  0  0
  128.5774  135.6533  160.6286 C   0  0  0  0  0  0  0  0  0  0  0  0
  128.0566  135.2637  161.8484 C   0  0  0  0  0  0  0  0  0  0  0  0
  126.6964  135.0589  161.9855 C   0  0  0  0  0  0  0  0  0  0  0  0
  125.8583  135.2337  160.9002 C   0  0  0  0  0  0  0  0  0  0  0  0
  126.3797  135.6184  159.6792 C   0  0  0  0  0  0  0  0  0  0  0  0
  127.7393  135.8281  159.5434 C   0  0  0  0  0  0  0  0  0  0  0  0
  133.1590  137.1430  162.8239 H   0  0  0  0  0  0  0  0  0  0  0  0
  131.5176  137.6868  163.2457 H   0  0  0  0  0  0  0  0  0  0  0  0
  131.7896  136.0119  162.7084 H   0  0  0  0  0  0  0  0  0  0  0  0
  132.5357  136.8546  159.3224 H   0  0  0  0  0  0  0  0  0  0  0  0
  129.7856  137.6772  161.6390 H   0  0  0  0  0  0  0  0  0  0  0  0
  130.1540  137.9599  159.9207 H   0  0  0  0  0  0  0  0  0  0  0  0
  130.5978  135.2356  161.1739 H   0  0  0  0  0  0  0  0  0  0  0  0
  130.8727  136.2583  158.5556 H   0  0  0  0  0  0  0  0  0  0  0  0
  129.3324  131.1877  158.6315 H   0  0  0  0  0  0  0  0  0  0  0  0
  129.2200  133.0195  154.7892 H   0  0  0  0  0  0  0  0  0  0  0  0
  129.5600  131.6522  152.7726 H   0  0  0  0  0  0  0  0  0  0  0  0
  132.0422  128.9777  154.9854 H   0  0  0  0  0  0  0  0  0  0  0  0
  131.7207  130.3391  157.0088 H   0  0  0  0  0  0  0  0  0  0  0  0
  128.7119  135.1228  162.6952 H   0  0  0  0  0  0  0  0  0  0  0  0
  126.2890  134.7581  162.9395 H   0  0  0  0  0  0  0  0  0  0  0  0
  124.7961  135.0695  161.0062 H   0  0  0  0  0  0  0  0  0  0  0  0
  125.7249  135.7546  158.8311 H   0  0  0  0  0  0  0  0  0  0  0  0
  128.1467  136.1282  158.5891 H   0  0  0  0  0  0  0  0  0  0  0  0
  1  2  1  0
  1 28  1  0
  1 29  1  0
  1 30  1  0
  2  3  1  1
  2  4  1  0
  2  5  1  0
  4 31  1  0
  5  6  1  0
  5 32  1  0
  5 33  1  0
  6  7  1  0
  6 22  1  0
  6 34  1  1
  7 35  1  0
  8  7  1  0
  8 20  2  0
  8  9  1  0
  9 10  1  0
  9 11  1  0
 11 12  2  0
 11 36  1  0
 12 13  1  0
 12 20  1  0
 13 19  1  0
 13 14  2  0
 14 15  1  0
 14 37  1  0
 15 16  2  0
 15 38  1  0
 16 17  1  0
 16 18  1  0
 18 19  2  0
 18 39  1  0
 19 40  1  0
 20 21  1  0
 22 27  1  0
 22 23  2  0
 23 24  1  0
 23 41  1  0
 24 25  2  0
 24 42  1  0
 25 26  1  0
 25 43  1  0
 26 27  2  0
 26 44  1  0
 27 45  1  0
M  CHG  1  20   1
M  END
>  <DOCK_score>  (1) 
-59.925529

>  <SMILES>  (1) 
C[C@@H](O)CC(Nc1[nH]cc(-c2ccc(Br)cc2)[nH+]1)c1ccccc1

$$$$
