Oc1ccc2c(c1)[C@@H](Nc1[nH]cc(-c3ccc(C4CC=CC4)cc3)[nH+]1)c1ccccc1-2
     RDKit          3D

 55 60  0  0  1  0  0  0  0  0999 V2000
  131.9969  135.7213  164.4432 O   0  0  0  0  0  0  0  0  0  0  0  0
  130.8957  135.5266  163.6716 C   0  0  0  0  0  0  0  0  0  0  0  0
  129.8216  134.7980  164.1653 C   0  0  0  0  0  0  0  0  0  0  0  0
  128.7029  134.5983  163.3860 C   0  0  0  0  0  0  0  0  0  0  0  0
  128.6456  135.1296  162.0954 C   0  0  0  0  0  0  0  0  0  0  0  0
  129.7266  135.8591  161.6070 C   0  0  0  0  0  0  0  0  0  0  0  0
  130.8438  136.0563  162.3891 C   0  0  0  0  0  0  0  0  0  0  0  0
  129.3817  136.2995  160.2052 C   0  0  1  0  0  0  0  0  0  0  0  0
  129.3786  137.3877  160.1439 H   0  0  0  0  0  0  0  0  0  0  0  0
  130.3442  135.7437  159.2509 N   0  0  0  0  0  0  0  0  0  0  0  0
  130.1062  134.5118  158.6658 C   0  0  0  0  0  0  0  0  0  0  0  0
  129.4110  133.4871  159.2305 N   0  0  0  0  0  0  0  0  0  0  0  0
  128.9966  133.4885  160.1074 H   0  0  0  0  0  0  0  0  0  0  0  0
  129.4043  132.4505  158.3291 C   0  0  0  0  0  0  0  0  0  0  0  0
  130.0949  132.8711  157.2405 C   0  0  0  0  0  0  0  0  0  0  0  0
  130.3486  132.0832  156.0097 C   0  0  0  0  0  0  0  0  0  0  0  0
  129.8849  132.5414  154.7778 C   0  0  0  0  0  0  0  0  0  0  0  0
  130.1287  131.8071  153.6350 C   0  0  0  0  0  0  0  0  0  0  0  0
  130.8216  130.6125  153.7121 C   0  0  0  0  0  0  0  0  0  0  0  0
  131.0789  129.8120  152.4615 C   0  0  0  0  0  0  0  0  0  0  0  0
  129.8638  129.8669  151.5072 C   0  0  0  0  0  0  0  0  0  0  0  0
  129.7860  128.4840  150.9037 C   0  0  0  0  0  0  0  0  0  0  0  0
  130.4885  127.6290  151.5958 C   0  0  0  0  0  0  0  0  0  0  0  0
  131.1521  128.2992  152.7764 C   0  0  0  0  0  0  0  0  0  0  0  0
  131.2797  130.1500  154.9330 C   0  0  0  0  0  0  0  0  0  0  0  0
  131.0465  130.8789  156.0814 C   0  0  0  0  0  0  0  0  0  0  0  0
  130.5085  134.1419  157.4745 N   0  0  0  0  0  0  0  0  0  0  0  0
  131.0221  134.6886  156.8594 H   0  0  0  0  0  0  0  0  0  0  0  0
  128.0009  135.7593  159.9248 C   0  0  0  0  0  0  0  0  0  0  0  0
  127.1802  135.8412  158.8216 C   0  0  0  0  0  0  0  0  0  0  0  0
  125.9354  135.2368  158.8368 C   0  0  0  0  0  0  0  0  0  0  0  0
  125.5119  134.5489  159.9594 C   0  0  0  0  0  0  0  0  0  0  0  0
  126.3268  134.4606  161.0690 C   0  0  0  0  0  0  0  0  0  0  0  0
  127.5839  135.0674  161.0608 C   0  0  0  0  0  0  0  0  0  0  0  0
  132.6912  136.2399  164.0141 H   0  0  0  0  0  0  0  0  0  0  0  0
  129.8633  134.3866  165.1630 H   0  0  0  0  0  0  0  0  0  0  0  0
  127.8696  134.0308  163.7735 H   0  0  0  0  0  0  0  0  0  0  0  0
  131.6788  136.6232  162.0049 H   0  0  0  0  0  0  0  0  0  0  0  0
  131.1463  136.2406  159.0258 H   0  0  0  0  0  0  0  0  0  0  0  0
  128.9379  131.4855  158.4618 H   0  0  0  0  0  0  0  0  0  0  0  0
  129.3394  133.4715  154.7171 H   0  0  0  0  0  0  0  0  0  0  0  0
  129.7738  132.1634  152.6793 H   0  0  0  0  0  0  0  0  0  0  0  0
  131.9860  130.1514  151.9619 H   0  0  0  0  0  0  0  0  0  0  0  0
  128.9536  130.0902  152.0638 H   0  0  0  0  0  0  0  0  0  0  0  0
  130.0262  130.6125  150.7287 H   0  0  0  0  0  0  0  0  0  0  0  0
  129.2227  128.2354  150.0164 H   0  0  0  0  0  0  0  0  0  0  0  0
  130.5829  126.5801  151.3564 H   0  0  0  0  0  0  0  0  0  0  0  0
  132.1905  127.9787  152.8607 H   0  0  0  0  0  0  0  0  0  0  0  0
  130.6106  128.0759  153.6957 H   0  0  0  0  0  0  0  0  0  0  0  0
  131.8205  129.2167  154.9874 H   0  0  0  0  0  0  0  0  0  0  0  0
  131.4046  130.5170  157.0340 H   0  0  0  0  0  0  0  0  0  0  0  0
  127.5089  136.3779  157.9439 H   0  0  0  0  0  0  0  0  0  0  0  0
  125.2935  135.3026  157.9706 H   0  0  0  0  0  0  0  0  0  0  0  0
  124.5396  134.0788  159.9672 H   0  0  0  0  0  0  0  0  0  0  0  0
  125.9922  133.9225  161.9436 H   0  0  0  0  0  0  0  0  0  0  0  0
  1  2  1  0
  1 35  1  0
  2  7  2  0
  2  3  1  0
  3  4  2  0
  3 36  1  0
  4  5  1  0
  4 37  1  0
  5 34  1  0
  5  6  2  0
  6  7  1  0
  6  8  1  0
  7 38  1  0
  8  9  1  1
  8 10  1  0
  8 29  1  0
 10 39  1  0
 11 10  1  0
 11 27  2  0
 11 12  1  0
 12 13  1  0
 12 14  1  0
 14 15  2  0
 14 40  1  0
 15 16  1  0
 15 27  1  0
 16 26  1  0
 16 17  2  0
 17 18  1  0
 17 41  1  0
 18 19  2  0
 18 42  1  0
 19 20  1  0
 19 25  1  0
 20 24  1  0
 20 21  1  0
 20 43  1  0
 21 22  1  0
 21 44  1  0
 21 45  1  0
 22 23  2  0
 22 46  1  0
 23 24  1  0
 23 47  1  0
 24 48  1  0
 24 49  1  0
 25 26  2  0
 25 50  1  0
 26 51  1  0
 27 28  1  0
 29 34  2  0
 29 30  1  0
 30 31  2  0
 30 52  1  0
 31 32  1  0
 31 53  1  0
 32 33  2  0
 32 54  1  0
 33 34  1  0
 33 55  1  0
M  CHG  1  27   1
M  END
>  <DOCK_score>  (1) 
-58.634205

>  <SMILES>  (1) 
Oc1ccc2c(c1)[C@@H](Nc1[nH]cc(-c3ccc(C4CC=CC4)cc3)[nH+]1)c1ccccc1-2

$$$$
