O=C1CC[C@H](NC(NC2CC2)=[NH+][C@H]2COc3cc(NCc4ncno4)ccc3C2)CN1
     RDKit          3D

 59 63  0  0  1  0  0  0  0  0999 V2000
  123.8632  133.6957  161.8882 O   0  0  0  0  0  0  0  0  0  0  0  0
  125.0066  133.9671  161.5887 C   0  0  0  0  0  0  0  0  0  0  0  0
  125.9149  132.8488  161.1648 C   0  0  0  0  0  0  0  0  0  0  0  0
  127.3745  133.3010  161.2541 C   0  0  0  0  0  0  0  0  0  0  0  0
  127.5050  134.6588  160.5534 C   0  0  2  0  0  0  0  0  0  0  0  0
  127.0840  134.5944  159.5500 H   0  0  0  0  0  0  0  0  0  0  0  0
  128.9184  135.0351  160.4702 N   0  0  0  0  0  0  0  0  0  0  0  0
  129.6663  134.6607  159.3791 C   0  0  0  0  0  0  0  0  0  0  0  0
  129.0880  133.9330  158.3661 N   0  0  0  0  0  0  0  0  0  0  0  0
  129.8850  133.5340  157.2035 C   0  0  0  0  0  0  0  0  0  0  0  0
  129.3838  132.3483  156.3766 C   0  0  0  0  0  0  0  0  0  0  0  0
  130.6131  132.1902  157.2736 C   0  0  0  0  0  0  0  0  0  0  0  0
  130.9240  134.9955  159.3051 N   0  0  0  0  0  0  0  0  0  0  0  0
  131.3372  135.1398  158.4396 H   0  0  0  0  0  0  0  0  0  0  0  0
  131.7129  135.1540  160.5292 C   0  0  1  0  0  0  0  0  0  0  0  0
  131.0867  134.9535  161.3986 H   0  0  0  0  0  0  0  0  0  0  0  0
  132.8989  134.1811  160.5096 C   0  0  0  0  0  0  0  0  0  0  0  0
  133.5874  134.2849  161.7567 O   0  0  0  0  0  0  0  0  0  0  0  0
  133.9085  135.5270  162.2035 C   0  0  0  0  0  0  0  0  0  0  0  0
  134.8714  135.6437  163.1996 C   0  0  0  0  0  0  0  0  0  0  0  0
  135.2234  136.8936  163.6850 C   0  0  0  0  0  0  0  0  0  0  0  0
  136.1912  137.0093  164.6853 N   0  0  0  0  0  0  0  0  0  0  0  0
  136.5186  135.8543  165.5250 C   0  0  0  0  0  0  0  0  0  0  0  0
  137.5845  136.2410  166.5177 C   0  0  0  0  0  0  0  0  0  0  0  0
  138.1465  137.4193  166.6409 N   0  0  0  0  0  0  0  0  0  0  0  0
  139.0305  137.2954  167.6469 C   0  0  0  0  0  0  0  0  0  0  0  0
  138.9623  136.0709  168.0761 N   0  0  0  0  0  0  0  0  0  0  0  0
  138.1334  135.4500  167.4446 O   0  0  0  0  0  0  0  0  0  0  0  0
  134.6102  138.0310  163.1734 C   0  0  0  0  0  0  0  0  0  0  0  0
  133.6560  137.9121  162.1843 C   0  0  0  0  0  0  0  0  0  0  0  0
  133.3039  136.6640  161.6955 C   0  0  0  0  0  0  0  0  0  0  0  0
  132.2631  136.5803  160.6075 C   0  0  0  0  0  0  0  0  0  0  0  0
  126.7417  135.7072  161.3638 C   0  0  0  0  0  0  0  0  0  0  0  0
  125.3901  135.2427  161.6530 N   0  0  0  0  0  0  0  0  0  0  0  0
  125.6857  132.5659  160.1374 H   0  0  0  0  0  0  0  0  0  0  0  0
  125.7612  131.9901  161.8184 H   0  0  0  0  0  0  0  0  0  0  0  0
  128.0158  132.5705  160.7610 H   0  0  0  0  0  0  0  0  0  0  0  0
  127.6652  133.3985  162.3001 H   0  0  0  0  0  0  0  0  0  0  0  0
  129.3264  135.5485  161.1850 H   0  0  0  0  0  0  0  0  0  0  0  0
  128.1521  133.6839  158.4212 H   0  0  0  0  0  0  0  0  0  0  0  0
  130.3787  134.3467  156.6707 H   0  0  0  0  0  0  0  0  0  0  0  0
  128.4610  131.8651  156.6977 H   0  0  0  0  0  0  0  0  0  0  0  0
  129.5475  132.3809  155.2994 H   0  0  0  0  0  0  0  0  0  0  0  0
  131.5856  132.1187  156.7867 H   0  0  0  0  0  0  0  0  0  0  0  0
  130.4991  131.6030  158.1849 H   0  0  0  0  0  0  0  0  0  0  0  0
  133.5741  134.4417  159.6947 H   0  0  0  0  0  0  0  0  0  0  0  0
  132.5356  133.1623  160.3746 H   0  0  0  0  0  0  0  0  0  0  0  0
  135.3463  134.7585  163.5960 H   0  0  0  0  0  0  0  0  0  0  0  0
  136.6467  137.8544  164.8240 H   0  0  0  0  0  0  0  0  0  0  0  0
  135.6258  135.5286  166.0590 H   0  0  0  0  0  0  0  0  0  0  0  0
  136.8839  135.0411  164.8980 H   0  0  0  0  0  0  0  0  0  0  0  0
  139.6783  138.0711  168.0275 H   0  0  0  0  0  0  0  0  0  0  0  0
  134.8806  139.0067  163.5496 H   0  0  0  0  0  0  0  0  0  0  0  0
  133.1807  138.7972  161.7879 H   0  0  0  0  0  0  0  0  0  0  0  0
  131.4497  137.2711  160.8296 H   0  0  0  0  0  0  0  0  0  0  0  0
  132.7148  136.8471  159.6520 H   0  0  0  0  0  0  0  0  0  0  0  0
  127.2662  135.8895  162.3018 H   0  0  0  0  0  0  0  0  0  0  0  0
  126.6927  136.6361  160.7956 H   0  0  0  0  0  0  0  0  0  0  0  0
  124.7274  135.9045  161.9059 H   0  0  0  0  0  0  0  0  0  0  0  0
  1  2  2  0
  2 34  1  0
  2  3  1  0
  3  4  1  0
  3 35  1  0
  3 36  1  0
  4  5  1  0
  4 37  1  0
  4 38  1  0
  5  6  1  6
  5  7  1  0
  5 33  1  0
  7 39  1  0
  8  7  1  0
  8  9  1  0
  8 13  2  0
  9 10  1  0
  9 40  1  0
 10 12  1  0
 10 11  1  0
 10 41  1  0
 11 12  1  0
 11 42  1  0
 11 43  1  0
 12 44  1  0
 12 45  1  0
 13 14  1  0
 13 15  1  0
 15 16  1  1
 15 32  1  0
 15 17  1  0
 17 18  1  0
 17 46  1  0
 17 47  1  0
 18 19  1  0
 19 31  2  0
 19 20  1  0
 20 21  2  0
 20 48  1  0
 21 22  1  0
 21 29  1  0
 22 23  1  0
 22 49  1  0
 23 24  1  0
 23 50  1  0
 23 51  1  0
 24 28  1  0
 24 25  2  0
 25 26  1  0
 26 27  2  0
 26 52  1  0
 27 28  1  0
 29 30  2  0
 29 53  1  0
 30 31  1  0
 30 54  1  0
 31 32  1  0
 32 55  1  0
 32 56  1  0
 33 34  1  0
 33 57  1  0
 33 58  1  0
 34 59  1  0
M  CHG  1  13   1
M  END
>  <DOCK_score>  (1) 
-50.67807

>  <SMILES>  (1) 
O=C1CC[C@H](NC(NC2CC2)=[NH+][C@H]2COc3cc(NCc4ncno4)ccc3C2)CN1

$$$$
