CCc1ccc(-c2c[nH]c(N[C@@H](Cc3ccnn3C)c3cccc4cc[nH]c34)[nH+]2)cc1
     RDKit          3D

 58 62  0  0  1  0  0  0  0  0999 V2000
  132.3201  129.5975  152.6329 C   0  0  0  0  0  0  0  0  0  0  0  0
  130.9041  129.6392  153.2115 C   0  0  0  0  0  0  0  0  0  0  0  0
  130.8996  130.4711  154.4681 C   0  0  0  0  0  0  0  0  0  0  0  0
  130.6617  131.8315  154.3936 C   0  0  0  0  0  0  0  0  0  0  0  0
  130.6567  132.5976  155.5415 C   0  0  0  0  0  0  0  0  0  0  0  0
  130.8918  131.9980  156.7775 C   0  0  0  0  0  0  0  0  0  0  0  0
  130.8877  132.8161  158.0148 C   0  0  0  0  0  0  0  0  0  0  0  0
  130.5299  132.3907  159.2517 C   0  0  0  0  0  0  0  0  0  0  0  0
  130.6726  133.4626  160.0987 N   0  0  0  0  0  0  0  0  0  0  0  0
  130.4925  133.4696  161.0519 H   0  0  0  0  0  0  0  0  0  0  0  0
  131.1137  134.5128  159.3540 C   0  0  0  0  0  0  0  0  0  0  0  0
  131.3827  135.7839  159.8322 N   0  0  0  0  0  0  0  0  0  0  0  0
  131.1959  136.0866  161.2534 C   0  0  1  0  0  0  0  0  0  0  0  0
  131.8383  135.4392  161.8502 H   0  0  0  0  0  0  0  0  0  0  0  0
  131.5608  137.5491  161.5155 C   0  0  0  0  0  0  0  0  0  0  0  0
  133.0006  137.7832  161.1371 C   0  0  0  0  0  0  0  0  0  0  0  0
  133.4532  138.1720  159.9226 C   0  0  0  0  0  0  0  0  0  0  0  0
  134.8463  138.2734  159.9947 C   0  0  0  0  0  0  0  0  0  0  0  0
  135.2169  137.9567  161.2088 N   0  0  0  0  0  0  0  0  0  0  0  0
  134.0691  137.6483  161.9503 N   0  0  0  0  0  0  0  0  0  0  0  0
  134.0348  137.2471  163.3589 C   0  0  0  0  0  0  0  0  0  0  0  0
  129.7561  135.8524  161.6318 C   0  0  0  0  0  0  0  0  0  0  0  0
  129.4328  135.4623  162.9132 C   0  0  0  0  0  0  0  0  0  0  0  0
  128.1107  135.2442  163.2746 C   0  0  0  0  0  0  0  0  0  0  0  0
  127.1055  135.4125  162.3642 C   0  0  0  0  0  0  0  0  0  0  0  0
  127.4103  135.8069  161.0602 C   0  0  0  0  0  0  0  0  0  0  0  0
  126.6092  136.0678  159.8618 C   0  0  0  0  0  0  0  0  0  0  0  0
  127.4631  136.4235  158.8888 C   0  0  0  0  0  0  0  0  0  0  0  0
  128.7462  136.4030  159.3636 N   0  0  0  0  0  0  0  0  0  0  0  0
  129.5362  136.6192  158.8439 H   0  0  0  0  0  0  0  0  0  0  0  0
  128.7491  136.0297  160.6889 C   0  0  0  0  0  0  0  0  0  0  0  0
  131.2364  134.1240  158.1084 N   0  0  0  0  0  0  0  0  0  0  0  0
  131.5311  134.6817  157.3715 H   0  0  0  0  0  0  0  0  0  0  0  0
  131.1365  130.6274  156.8461 C   0  0  0  0  0  0  0  0  0  0  0  0
  131.1333  129.8702  155.6923 C   0  0  0  0  0  0  0  0  0  0  0  0
  132.6477  130.6106  152.3996 H   0  0  0  0  0  0  0  0  0  0  0  0
  132.9981  129.1556  153.3631 H   0  0  0  0  0  0  0  0  0  0  0  0
  132.3236  128.9962  151.7236 H   0  0  0  0  0  0  0  0  0  0  0  0
  130.5769  128.6264  153.4445 H   0  0  0  0  0  0  0  0  0  0  0  0
  130.2265  130.0815  152.4809 H   0  0  0  0  0  0  0  0  0  0  0  0
  130.4795  132.2949  153.4354 H   0  0  0  0  0  0  0  0  0  0  0  0
  130.4707  133.6598  155.4822 H   0  0  0  0  0  0  0  0  0  0  0  0
  130.1961  131.3990  159.5194 H   0  0  0  0  0  0  0  0  0  0  0  0
  131.6950  136.4740  159.2263 H   0  0  0  0  0  0  0  0  0  0  0  0
  130.9184  138.1966  160.9187 H   0  0  0  0  0  0  0  0  0  0  0  0
  131.4219  137.7742  162.5730 H   0  0  0  0  0  0  0  0  0  0  0  0
  132.8458  138.3697  159.0516 H   0  0  0  0  0  0  0  0  0  0  0  0
  135.5028  138.5634  159.1876 H   0  0  0  0  0  0  0  0  0  0  0  0
  134.1140  136.1622  163.4297 H   0  0  0  0  0  0  0  0  0  0  0  0
  134.8690  137.7075  163.8882 H   0  0  0  0  0  0  0  0  0  0  0  0
  133.0961  137.5729  163.8069 H   0  0  0  0  0  0  0  0  0  0  0  0
  130.2163  135.3253  163.6439 H   0  0  0  0  0  0  0  0  0  0  0  0
  127.8743  134.9392  164.2832 H   0  0  0  0  0  0  0  0  0  0  0  0
  126.0790  135.2406  162.6523 H   0  0  0  0  0  0  0  0  0  0  0  0
  125.5350  135.9949  159.7787 H   0  0  0  0  0  0  0  0  0  0  0  0
  127.1796  136.6829  157.8796 H   0  0  0  0  0  0  0  0  0  0  0  0
  131.3241  130.1585  157.8006 H   0  0  0  0  0  0  0  0  0  0  0  0
  131.3183  128.8074  155.7447 H   0  0  0  0  0  0  0  0  0  0  0  0
  1  2  1  0
  1 36  1  0
  1 37  1  0
  1 38  1  0
  2  3  1  0
  2 39  1  0
  2 40  1  0
  3 35  2  0
  3  4  1  0
  4  5  2  0
  4 41  1  0
  5  6  1  0
  5 42  1  0
  6  7  1  0
  6 34  2  0
  7 32  1  0
  7  8  2  0
  8  9  1  0
  8 43  1  0
  9 10  1  0
  9 11  1  0
 11 12  1  0
 11 32  2  0
 12 13  1  0
 12 44  1  0
 13 14  1  1
 13 15  1  0
 13 22  1  0
 15 16  1  0
 15 45  1  0
 15 46  1  0
 16 20  1  0
 16 17  2  0
 17 18  1  0
 17 47  1  0
 18 19  2  0
 18 48  1  0
 19 20  1  0
 20 21  1  0
 21 49  1  0
 21 50  1  0
 21 51  1  0
 22 31  1  0
 22 23  2  0
 23 24  1  0
 23 52  1  0
 24 25  2  0
 24 53  1  0
 25 26  1  0
 25 54  1  0
 26 31  2  0
 26 27  1  0
 27 28  2  0
 27 55  1  0
 28 29  1  0
 28 56  1  0
 29 30  1  0
 29 31  1  0
 32 33  1  0
 34 35  1  0
 34 57  1  0
 35 58  1  0
M  CHG  1  32   1
M  END
>  <DOCK_score>  (1) 
-61.270325

>  <SMILES>  (1) 
CCc1ccc(-c2c[nH]c(N[C@@H](Cc3ccnn3C)c3cccc4cc[nH]c34)[nH+]2)cc1

$$$$
