Cc1ccc([C@H](Nc2[nH]cc(-c3cccnc3)[nH+]2)c2cccnc2)cc1
     RDKit          3D

 46 49  0  0  1  0  0  0  0  0999 V2000
  129.8300  140.9191  161.6695 C   0  0  0  0  0  0  0  0  0  0  0  0
  129.6328  139.4977  161.2093 C   0  0  0  0  0  0  0  0  0  0  0  0
  129.0036  138.5849  162.0350 C   0  0  0  0  0  0  0  0  0  0  0  0
  128.8228  137.2811  161.6129 C   0  0  0  0  0  0  0  0  0  0  0  0
  129.2710  136.8901  160.3651 C   0  0  0  0  0  0  0  0  0  0  0  0
  129.0741  135.4685  159.9051 C   0  0  2  0  0  0  0  0  0  0  0  0
  129.0804  134.8032  160.7684 H   0  0  0  0  0  0  0  0  0  0  0  0
  130.1585  135.0957  158.9934 N   0  0  0  0  0  0  0  0  0  0  0  0
  130.1911  133.8279  158.4384 C   0  0  0  0  0  0  0  0  0  0  0  0
  129.7027  132.6967  159.0163 N   0  0  0  0  0  0  0  0  0  0  0  0
  129.2727  132.6343  159.8835 H   0  0  0  0  0  0  0  0  0  0  0  0
  129.9306  131.6597  158.1446 C   0  0  0  0  0  0  0  0  0  0  0  0
  130.5512  132.1865  157.0601 C   0  0  0  0  0  0  0  0  0  0  0  0
  130.9922  131.4383  155.8575 C   0  0  0  0  0  0  0  0  0  0  0  0
  131.0275  132.0613  154.6066 C   0  0  0  0  0  0  0  0  0  0  0  0
  131.4524  131.3216  153.5166 C   0  0  0  0  0  0  0  0  0  0  0  0
  131.8136  129.9985  153.6962 C   0  0  0  0  0  0  0  0  0  0  0  0
  131.7647  129.4360  154.8881 N   0  0  0  0  0  0  0  0  0  0  0  0
  131.3724  130.1013  155.9554 C   0  0  0  0  0  0  0  0  0  0  0  0
  130.6973  133.5190  157.2695 N   0  0  0  0  0  0  0  0  0  0  0  0
  131.1072  134.1439  156.6512 H   0  0  0  0  0  0  0  0  0  0  0  0
  127.7532  135.3506  159.1894 C   0  0  0  0  0  0  0  0  0  0  0  0
  126.7744  134.4882  159.6597 C   0  0  0  0  0  0  0  0  0  0  0  0
  125.5729  134.4157  158.9719 C   0  0  0  0  0  0  0  0  0  0  0  0
  125.3958  135.1925  157.8424 C   0  0  0  0  0  0  0  0  0  0  0  0
  126.3508  135.9981  157.4210 N   0  0  0  0  0  0  0  0  0  0  0  0
  127.5043  136.0959  158.0528 C   0  0  0  0  0  0  0  0  0  0  0  0
  129.9048  137.8015  159.5416 C   0  0  0  0  0  0  0  0  0  0  0  0
  130.0807  139.1069  159.9613 C   0  0  0  0  0  0  0  0  0  0  0  0
  130.7854  141.0042  162.1873 H   0  0  0  0  0  0  0  0  0  0  0  0
  129.8241  141.5847  160.8063 H   0  0  0  0  0  0  0  0  0  0  0  0
  129.0232  141.1967  162.3477 H   0  0  0  0  0  0  0  0  0  0  0  0
  128.6538  138.8903  163.0101 H   0  0  0  0  0  0  0  0  0  0  0  0
  128.3315  136.5678  162.2582 H   0  0  0  0  0  0  0  0  0  0  0  0
  130.8538  135.7372  158.7787 H   0  0  0  0  0  0  0  0  0  0  0  0
  129.6663  130.6233  158.2944 H   0  0  0  0  0  0  0  0  0  0  0  0
  130.7354  133.0951  154.4943 H   0  0  0  0  0  0  0  0  0  0  0  0
  131.4969  131.7713  152.5358 H   0  0  0  0  0  0  0  0  0  0  0  0
  132.1411  129.4171  152.8471 H   0  0  0  0  0  0  0  0  0  0  0  0
  131.3457  129.6061  156.9148 H   0  0  0  0  0  0  0  0  0  0  0  0
  126.9425  133.8902  160.5433 H   0  0  0  0  0  0  0  0  0  0  0  0
  124.7870  133.7577  159.3119 H   0  0  0  0  0  0  0  0  0  0  0  0
  124.4640  135.1393  157.2989 H   0  0  0  0  0  0  0  0  0  0  0  0
  128.2630  136.7668  157.6776 H   0  0  0  0  0  0  0  0  0  0  0  0
  130.2589  137.4951  158.5684 H   0  0  0  0  0  0  0  0  0  0  0  0
  130.5718  139.8201  159.3160 H   0  0  0  0  0  0  0  0  0  0  0  0
  1  2  1  0
  1 30  1  0
  1 31  1  0
  1 32  1  0
  2 29  2  0
  2  3  1  0
  3  4  2  0
  3 33  1  0
  4  5  1  0
  4 34  1  0
  5  6  1  0
  5 28  2  0
  6  7  1  1
  6  8  1  0
  6 22  1  0
  8 35  1  0
  9  8  1  0
  9 20  2  0
  9 10  1  0
 10 11  1  0
 10 12  1  0
 12 13  2  0
 12 36  1  0
 13 14  1  0
 13 20  1  0
 14 19  1  0
 14 15  2  0
 15 16  1  0
 15 37  1  0
 16 17  2  0
 16 38  1  0
 17 18  1  0
 17 39  1  0
 18 19  2  0
 19 40  1  0
 20 21  1  0
 22 27  1  0
 22 23  2  0
 23 24  1  0
 23 41  1  0
 24 25  2  0
 24 42  1  0
 25 26  1  0
 25 43  1  0
 26 27  2  0
 27 44  1  0
 28 29  1  0
 28 45  1  0
 29 46  1  0
M  CHG  1  20   1
M  END
>  <DOCK_score>  (1) 
-59.273163

>  <SMILES>  (1) 
Cc1ccc([C@H](Nc2[nH]cc(-c3cccnc3)[nH+]2)c2cccnc2)cc1

$$$$
