O=C(OCCc1ccc(-c2ccc(F)cc2)cc1)c1c[nH]nc1[C@H]1CCC[NH2+]C1
     RDKit          3D

 54 57  0  0  1  0  0  0  0  0999 V2000
  128.9894  134.0275  163.5290 O   0  0  0  0  0  0  0  0  0  0  0  0
  129.3694  134.4409  162.4512 C   0  0  0  0  0  0  0  0  0  0  0  0
  130.6700  134.3423  162.1122 O   0  0  0  0  0  0  0  0  0  0  0  0
  131.5598  133.7313  163.0833 C   0  0  0  0  0  0  0  0  0  0  0  0
  132.1229  134.8113  164.0093 C   0  0  0  0  0  0  0  0  0  0  0  0
  132.8870  135.8232  163.1947 C   0  0  0  0  0  0  0  0  0  0  0  0
  132.2340  136.9292  162.6814 C   0  0  0  0  0  0  0  0  0  0  0  0
  132.9298  137.8615  161.9387 C   0  0  0  0  0  0  0  0  0  0  0  0
  134.2905  137.6817  161.6979 C   0  0  0  0  0  0  0  0  0  0  0  0
  135.0429  138.6782  160.8964 C   0  0  0  0  0  0  0  0  0  0  0  0
  136.3968  138.8956  161.1441 C   0  0  0  0  0  0  0  0  0  0  0  0
  137.0939  139.8194  160.3928 C   0  0  0  0  0  0  0  0  0  0  0  0
  136.4471  140.5382  159.4006 C   0  0  0  0  0  0  0  0  0  0  0  0
  137.1319  141.4461  158.6713 F   0  0  0  0  0  0  0  0  0  0  0  0
  135.0997  140.3291  159.1545 C   0  0  0  0  0  0  0  0  0  0  0  0
  134.3963  139.4035  159.8976 C   0  0  0  0  0  0  0  0  0  0  0  0
  134.9421  136.5630  162.2132 C   0  0  0  0  0  0  0  0  0  0  0  0
  134.2374  135.6395  162.9585 C   0  0  0  0  0  0  0  0  0  0  0  0
  128.4086  135.0496  161.5154 C   0  0  0  0  0  0  0  0  0  0  0  0
  127.2597  135.7383  161.8523 C   0  0  0  0  0  0  0  0  0  0  0  0
  126.6731  136.1246  160.7085 N   0  0  0  0  0  0  0  0  0  0  0  0
  125.8473  136.6285  160.6372 H   0  0  0  0  0  0  0  0  0  0  0  0
  127.4563  135.6830  159.6363 N   0  0  0  0  0  0  0  0  0  0  0  0
  128.4889  135.0379  160.1044 C   0  0  0  0  0  0  0  0  0  0  0  0
  129.5796  134.3981  159.2845 C   0  0  1  0  0  0  0  0  0  0  0  0
  130.5382  134.8511  159.5374 H   0  0  0  0  0  0  0  0  0  0  0  0
  129.6290  132.8967  159.5819 C   0  0  0  0  0  0  0  0  0  0  0  0
  130.6863  132.2422  158.6881 C   0  0  0  0  0  0  0  0  0  0  0  0
  130.3586  132.5342  157.2221 C   0  0  0  0  0  0  0  0  0  0  0  0
  130.3523  133.9846  156.9963 N   0  0  0  0  0  0  0  0  0  0  0  0
  130.1881  134.1709  156.0182 H   0  0  0  0  0  0  0  0  0  0  0  0
  131.2456  134.3687  157.2654 H   0  0  0  0  0  0  0  0  0  0  0  0
  129.2918  134.6086  157.7965 C   0  0  0  0  0  0  0  0  0  0  0  0
  131.0071  132.9996  163.6725 H   0  0  0  0  0  0  0  0  0  0  0  0
  132.3793  133.2350  162.5635 H   0  0  0  0  0  0  0  0  0  0  0  0
  131.3035  135.3076  164.5291 H   0  0  0  0  0  0  0  0  0  0  0  0
  132.7910  134.3528  164.7383 H   0  0  0  0  0  0  0  0  0  0  0  0
  131.1785  137.0657  162.8654 H   0  0  0  0  0  0  0  0  0  0  0  0
  132.4199  138.7270  161.5419 H   0  0  0  0  0  0  0  0  0  0  0  0
  136.9008  138.3391  161.9204 H   0  0  0  0  0  0  0  0  0  0  0  0
  138.1442  139.9857  160.5814 H   0  0  0  0  0  0  0  0  0  0  0  0
  134.5992  140.8916  158.3802 H   0  0  0  0  0  0  0  0  0  0  0  0
  133.3459  139.2416  159.7056 H   0  0  0  0  0  0  0  0  0  0  0  0
  135.9966  136.4189  162.0299 H   0  0  0  0  0  0  0  0  0  0  0  0
  134.7415  134.7721  163.3583 H   0  0  0  0  0  0  0  0  0  0  0  0
  126.8997  135.9309  162.8521 H   0  0  0  0  0  0  0  0  0  0  0  0
  129.8896  132.7409  160.6288 H   0  0  0  0  0  0  0  0  0  0  0  0
  128.6545  132.4526  159.3789 H   0  0  0  0  0  0  0  0  0  0  0  0
  131.6685  132.6492  158.9283 H   0  0  0  0  0  0  0  0  0  0  0  0
  130.6873  131.1650  158.8546 H   0  0  0  0  0  0  0  0  0  0  0  0
  129.3768  132.1254  156.9826 H   0  0  0  0  0  0  0  0  0  0  0  0
  131.1104  132.0707  156.5834 H   0  0  0  0  0  0  0  0  0  0  0  0
  128.3328  134.1557  157.5447 H   0  0  0  0  0  0  0  0  0  0  0  0
  129.2563  135.6766  157.5813 H   0  0  0  0  0  0  0  0  0  0  0  0
  1  2  2  0
  2  3  1  0
  2 19  1  0
  3  4  1  0
  4  5  1  0
  4 34  1  0
  4 35  1  0
  5  6  1  0
  5 36  1  0
  5 37  1  0
  6 18  1  0
  6  7  2  0
  7  8  1  0
  7 38  1  0
  8  9  2  0
  8 39  1  0
  9 10  1  0
  9 17  1  0
 10 16  1  0
 10 11  2  0
 11 12  1  0
 11 40  1  0
 12 13  2  0
 12 41  1  0
 13 14  1  0
 13 15  1  0
 15 16  2  0
 15 42  1  0
 16 43  1  0
 17 18  2  0
 17 44  1  0
 18 45  1  0
 19 24  1  0
 19 20  2  0
 20 21  1  0
 20 46  1  0
 21 22  1  0
 21 23  1  0
 23 24  2  0
 24 25  1  0
 25 26  1  1
 25 33  1  0
 25 27  1  0
 27 28  1  0
 27 47  1  0
 27 48  1  0
 28 29  1  0
 28 49  1  0
 28 50  1  0
 29 30  1  0
 29 51  1  0
 29 52  1  0
 30 31  1  0
 30 32  1  0
 30 33  1  0
 33 53  1  0
 33 54  1  0
M  CHG  1  30   1
M  END
>  <DOCK_score>  (1) 
-41.780956

>  <SMILES>  (1) 
O=C(OCCc1ccc(-c2ccc(F)cc2)cc1)c1c[nH]nc1[C@H]1CCC[NH2+]C1

$$$$
