Cc1ccc(OCCc2ccccc2C2=CC[N@H+](Cc3cc(Br)c[nH]3)CC2)cc1
     RDKit          3D

 57 60  0  0  1  0  0  0  0  0999 V2000
  133.9051  142.1555  169.6225 C   0  0  0  0  0  0  0  0  0  0  0  0
  133.5304  141.7937  168.2083 C   0  0  0  0  0  0  0  0  0  0  0  0
  134.4284  141.1100  167.4098 C   0  0  0  0  0  0  0  0  0  0  0  0
  134.0873  140.7773  166.1132 C   0  0  0  0  0  0  0  0  0  0  0  0
  132.8424  141.1297  165.6125 C   0  0  0  0  0  0  0  0  0  0  0  0
  132.5044  140.8036  164.3372 O   0  0  0  0  0  0  0  0  0  0  0  0
  133.5665  140.7243  163.3846 C   0  0  0  0  0  0  0  0  0  0  0  0
  132.9965  140.3483  162.0154 C   0  0  0  0  0  0  0  0  0  0  0  0
  134.1166  140.2648  161.0107 C   0  0  0  0  0  0  0  0  0  0  0  0
  135.0806  141.2511  160.9663 C   0  0  0  0  0  0  0  0  0  0  0  0
  136.1127  141.1728  160.0485 C   0  0  0  0  0  0  0  0  0  0  0  0
  136.1825  140.1098  159.1659 C   0  0  0  0  0  0  0  0  0  0  0  0
  135.2218  139.1202  159.1961 C   0  0  0  0  0  0  0  0  0  0  0  0
  134.1781  139.1931  160.1195 C   0  0  0  0  0  0  0  0  0  0  0  0
  133.1454  138.1361  160.1573 C   0  0  0  0  0  0  0  0  0  0  0  0
  131.8887  138.4698  159.9572 C   0  0  0  0  0  0  0  0  0  0  0  0
  130.7660  137.4730  159.9753 C   0  0  0  0  0  0  0  0  0  0  0  0
  131.2873  136.1101  159.8185 N   0  0  2  0  0  0  0  0  0  0  0  0
  131.6691  135.9993  158.8910 H   0  0  0  0  0  0  0  0  0  0  0  0
  130.2029  135.1404  160.0228 C   0  0  0  0  0  0  0  0  0  0  0  0
  130.5841  133.8220  159.4002 C   0  0  0  0  0  0  0  0  0  0  0  0
  130.4279  132.6071  159.9642 C   0  0  0  0  0  0  0  0  0  0  0  0
  130.9114  131.6512  159.0483 C   0  0  0  0  0  0  0  0  0  0  0  0
  130.9466  129.7773  159.3003 Br  0  0  0  0  0  0  0  0  0  0  0  0
  131.3448  132.3188  157.9593 C   0  0  0  0  0  0  0  0  0  0  0  0
  131.1409  133.6516  158.1674 N   0  0  0  0  0  0  0  0  0  0  0  0
  131.3581  134.3611  157.5425 H   0  0  0  0  0  0  0  0  0  0  0  0
  132.3447  135.8840  160.8165 C   0  0  0  0  0  0  0  0  0  0  0  0
  133.5682  136.7188  160.4294 C   0  0  0  0  0  0  0  0  0  0  0  0
  131.9453  141.8208  166.4139 C   0  0  0  0  0  0  0  0  0  0  0  0
  132.2889  142.1458  167.7119 C   0  0  0  0  0  0  0  0  0  0  0  0
  134.3814  143.1358  169.6327 H   0  0  0  0  0  0  0  0  0  0  0  0
  133.0080  142.1810  170.2409 H   0  0  0  0  0  0  0  0  0  0  0  0
  134.5972  141.4113  170.0168 H   0  0  0  0  0  0  0  0  0  0  0  0
  135.3975  140.8361  167.7999 H   0  0  0  0  0  0  0  0  0  0  0  0
  134.7889  140.2428  165.4898 H   0  0  0  0  0  0  0  0  0  0  0  0
  134.2825  139.9657  163.7008 H   0  0  0  0  0  0  0  0  0  0  0  0
  134.0668  141.6904  163.3170 H   0  0  0  0  0  0  0  0  0  0  0  0
  132.2805  141.1067  161.6990 H   0  0  0  0  0  0  0  0  0  0  0  0
  132.4963  139.3822  162.0830 H   0  0  0  0  0  0  0  0  0  0  0  0
  135.0319  142.0835  161.6527 H   0  0  0  0  0  0  0  0  0  0  0  0
  136.8676  141.9448  160.0210 H   0  0  0  0  0  0  0  0  0  0  0  0
  136.9905  140.0547  158.4515 H   0  0  0  0  0  0  0  0  0  0  0  0
  135.2776  138.2906  158.5069 H   0  0  0  0  0  0  0  0  0  0  0  0
  131.6545  139.5070  159.7676 H   0  0  0  0  0  0  0  0  0  0  0  0
  130.0745  137.6904  159.1611 H   0  0  0  0  0  0  0  0  0  0  0  0
  130.2362  137.5492  160.9247 H   0  0  0  0  0  0  0  0  0  0  0  0
  130.0352  135.0029  161.0910 H   0  0  0  0  0  0  0  0  0  0  0  0
  129.2906  135.5120  159.5565 H   0  0  0  0  0  0  0  0  0  0  0  0
  130.0088  132.4038  160.9386 H   0  0  0  0  0  0  0  0  0  0  0  0
  131.7744  131.8747  157.0736 H   0  0  0  0  0  0  0  0  0  0  0  0
  132.6126  134.8276  160.8327 H   0  0  0  0  0  0  0  0  0  0  0  0
  131.9900  136.1894  161.8008 H   0  0  0  0  0  0  0  0  0  0  0  0
  134.0259  136.2981  159.5339 H   0  0  0  0  0  0  0  0  0  0  0  0
  134.2898  136.7055  161.2461 H   0  0  0  0  0  0  0  0  0  0  0  0
  130.9772  142.1002  166.0249 H   0  0  0  0  0  0  0  0  0  0  0  0
  131.5892  142.6799  168.3376 H   0  0  0  0  0  0  0  0  0  0  0  0
  1  2  1  0
  1 32  1  0
  1 33  1  0
  1 34  1  0
  2 31  2  0
  2  3  1  0
  3  4  2  0
  3 35  1  0
  4  5  1  0
  4 36  1  0
  5  6  1  0
  5 30  2  0
  6  7  1  0
  7  8  1  0
  7 37  1  0
  7 38  1  0
  8  9  1  0
  8 39  1  0
  8 40  1  0
  9 14  1  0
  9 10  2  0
 10 11  1  0
 10 41  1  0
 11 12  2  0
 11 42  1  0
 12 13  1  0
 12 43  1  0
 13 14  2  0
 13 44  1  0
 14 15  1  0
 15 29  1  0
 15 16  2  0
 16 17  1  0
 16 45  1  0
 17 18  1  0
 17 46  1  0
 17 47  1  0
 18 19  1  6
 18 20  1  0
 18 28  1  0
 20 21  1  0
 20 48  1  0
 20 49  1  0
 21 26  1  0
 21 22  2  0
 22 23  1  0
 22 50  1  0
 23 24  1  0
 23 25  2  0
 25 26  1  0
 25 51  1  0
 26 27  1  0
 28 29  1  0
 28 52  1  0
 28 53  1  0
 29 54  1  0
 29 55  1  0
 30 31  1  0
 30 56  1  0
 31 57  1  0
M  CHG  1  18   1
M  END
>  <DOCK_score>  (1) 
-58.92572

>  <SMILES>  (1) 
Cc1ccc(OCCc2ccccc2C2=CC[N@H+](Cc3cc(Br)c[nH]3)CC2)cc1

$$$$
