O=C1CC[C@H](NC(NC2CCCCCC2)=[NH+][C@H]2CCc3ccccc3C2)CN1
     RDKit          3D

 63 66  0  0  1  0  0  0  0  0999 V2000
  123.7644  134.1506  161.6676 O   0  0  0  0  0  0  0  0  0  0  0  0
  124.9514  134.3396  161.5061 C   0  0  0  0  0  0  0  0  0  0  0  0
  125.7829  133.2131  160.9628 C   0  0  0  0  0  0  0  0  0  0  0  0
  127.2648  133.4795  161.2389 C   0  0  0  0  0  0  0  0  0  0  0  0
  127.5902  134.9116  160.7978 C   0  0  2  0  0  0  0  0  0  0  0  0
  127.2574  135.0625  159.7709 H   0  0  0  0  0  0  0  0  0  0  0  0
  129.0349  135.1374  160.8879 N   0  0  0  0  0  0  0  0  0  0  0  0
  129.8413  134.8683  159.8074 C   0  0  0  0  0  0  0  0  0  0  0  0
  129.2921  134.3873  158.6424 N   0  0  0  0  0  0  0  0  0  0  0  0
  130.0771  133.5105  157.7699 C   0  0  0  0  0  0  0  0  0  0  0  0
  129.2470  133.1849  156.5114 C   0  0  0  0  0  0  0  0  0  0  0  0
  130.1848  132.7409  155.4217 C   0  0  0  0  0  0  0  0  0  0  0  0
  130.3407  131.2092  155.3658 C   0  0  0  0  0  0  0  0  0  0  0  0
  130.4559  130.5691  156.7625 C   0  0  0  0  0  0  0  0  0  0  0  0
  131.3375  131.3625  157.6885 C   0  0  0  0  0  0  0  0  0  0  0  0
  130.4490  132.3159  158.5135 C   0  0  0  0  0  0  0  0  0  0  0  0
  131.1267  135.0692  159.8875 N   0  0  0  0  0  0  0  0  0  0  0  0
  131.7365  134.5215  159.3688 H   0  0  0  0  0  0  0  0  0  0  0  0
  131.6504  136.1224  160.7610 C   0  0  1  0  0  0  0  0  0  0  0  0
  131.3522  135.9270  161.7910 H   0  0  0  0  0  0  0  0  0  0  0  0
  133.1802  136.1602  160.6645 C   0  0  0  0  0  0  0  0  0  0  0  0
  133.7090  137.0922  161.7527 C   0  0  0  0  0  0  0  0  0  0  0  0
  132.9980  138.4192  161.7054 C   0  0  0  0  0  0  0  0  0  0  0  0
  133.5915  139.4947  162.3540 C   0  0  0  0  0  0  0  0  0  0  0  0
  132.9875  140.7348  162.3517 C   0  0  0  0  0  0  0  0  0  0  0  0
  131.7814  140.9099  161.6991 C   0  0  0  0  0  0  0  0  0  0  0  0
  131.1913  139.8438  161.0527 C   0  0  0  0  0  0  0  0  0  0  0  0
  131.7993  138.5947  161.0515 C   0  0  0  0  0  0  0  0  0  0  0  0
  131.1063  137.4781  160.3153 C   0  0  0  0  0  0  0  0  0  0  0  0
  126.8599  135.8866  161.7222 C   0  0  0  0  0  0  0  0  0  0  0  0
  125.4485  135.5363  161.8207 N   0  0  0  0  0  0  0  0  0  0  0  0
  125.4871  132.2804  161.4430 H   0  0  0  0  0  0  0  0  0  0  0  0
  125.6239  133.1317  159.8875 H   0  0  0  0  0  0  0  0  0  0  0  0
  127.4650  133.3693  162.3046 H   0  0  0  0  0  0  0  0  0  0  0  0
  127.8755  132.7741  160.6754 H   0  0  0  0  0  0  0  0  0  0  0  0
  129.4224  135.4766  161.7098 H   0  0  0  0  0  0  0  0  0  0  0  0
  128.3850  134.6285  158.3981 H   0  0  0  0  0  0  0  0  0  0  0  0
  130.9839  134.0344  157.4673 H   0  0  0  0  0  0  0  0  0  0  0  0
  128.5410  132.3852  156.7353 H   0  0  0  0  0  0  0  0  0  0  0  0
  128.7063  134.0748  156.1891 H   0  0  0  0  0  0  0  0  0  0  0  0
  131.1634  133.1889  155.5944 H   0  0  0  0  0  0  0  0  0  0  0  0
  129.8011  133.0917  154.4636 H   0  0  0  0  0  0  0  0  0  0  0  0
  131.2363  130.9677  154.7934 H   0  0  0  0  0  0  0  0  0  0  0  0
  129.4742  130.7876  154.8563 H   0  0  0  0  0  0  0  0  0  0  0  0
  130.8678  129.5654  156.6574 H   0  0  0  0  0  0  0  0  0  0  0  0
  129.4598  130.4972  157.1991 H   0  0  0  0  0  0  0  0  0  0  0  0
  132.0534  131.9419  157.1056 H   0  0  0  0  0  0  0  0  0  0  0  0
  131.8711  130.6880  158.3581 H   0  0  0  0  0  0  0  0  0  0  0  0
  130.9897  132.6133  159.4119 H   0  0  0  0  0  0  0  0  0  0  0  0
  129.5425  131.7862  158.8066 H   0  0  0  0  0  0  0  0  0  0  0  0
  133.5821  135.1578  160.8126 H   0  0  0  0  0  0  0  0  0  0  0  0
  133.4770  136.5342  159.6847 H   0  0  0  0  0  0  0  0  0  0  0  0
  133.5486  136.6331  162.7282 H   0  0  0  0  0  0  0  0  0  0  0  0
  134.7768  137.2510  161.6023 H   0  0  0  0  0  0  0  0  0  0  0  0
  134.5334  139.3586  162.8645 H   0  0  0  0  0  0  0  0  0  0  0  0
  133.4554  141.5662  162.8582 H   0  0  0  0  0  0  0  0  0  0  0  0
  131.3028  141.8781  161.6953 H   0  0  0  0  0  0  0  0  0  0  0  0
  130.2488  139.9812  160.5436 H   0  0  0  0  0  0  0  0  0  0  0  0
  131.2710  137.5973  159.2445 H   0  0  0  0  0  0  0  0  0  0  0  0
  130.0367  137.5215  160.5209 H   0  0  0  0  0  0  0  0  0  0  0  0
  126.9534  136.8976  161.3258 H   0  0  0  0  0  0  0  0  0  0  0  0
  127.3105  135.8488  162.7141 H   0  0  0  0  0  0  0  0  0  0  0  0
  124.8323  136.2162  162.1351 H   0  0  0  0  0  0  0  0  0  0  0  0
  1  2  2  0
  2 31  1  0
  2  3  1  0
  3  4  1  0
  3 32  1  0
  3 33  1  0
  4  5  1  0
  4 34  1  0
  4 35  1  0
  5  6  1  6
  5  7  1  0
  5 30  1  0
  7 36  1  0
  8  7  1  0
  8  9  1  0
  8 17  2  0
  9 10  1  0
  9 37  1  0
 10 16  1  0
 10 11  1  0
 10 38  1  0
 11 12  1  0
 11 39  1  0
 11 40  1  0
 12 13  1  0
 12 41  1  0
 12 42  1  0
 13 14  1  0
 13 43  1  0
 13 44  1  0
 14 15  1  0
 14 45  1  0
 14 46  1  0
 15 16  1  0
 15 47  1  0
 15 48  1  0
 16 49  1  0
 16 50  1  0
 17 18  1  0
 17 19  1  0
 19 20  1  1
 19 29  1  0
 19 21  1  0
 21 22  1  0
 21 51  1  0
 21 52  1  0
 22 23  1  0
 22 53  1  0
 22 54  1  0
 23 28  2  0
 23 24  1  0
 24 25  2  0
 24 55  1  0
 25 26  1  0
 25 56  1  0
 26 27  2  0
 26 57  1  0
 27 28  1  0
 27 58  1  0
 28 29  1  0
 29 59  1  0
 29 60  1  0
 30 31  1  0
 30 61  1  0
 30 62  1  0
 31 63  1  0
M  CHG  1  17   1
M  END
>  <DOCK_score>  (1) 
-46.745346

>  <SMILES>  (1) 
O=C1CC[C@H](NC(NC2CCCCCC2)=[NH+][C@H]2CCc3ccccc3C2)CN1

$$$$
