CC1(C)C(Nc2cc(F)c(Nc3[nH]cc(-c4ccc(F)cc4)[nH+]3)cc2O)C[C@@H]1O
     RDKit          3D

 52 55  0  0  1  0  0  0  0  0999 V2000
  127.9881  138.3644  166.8120 C   0  0  0  0  0  0  0  0  0  0  0  0
  128.0329  136.8931  166.3941 C   0  0  0  0  0  0  0  0  0  0  0  0
  126.6566  136.2253  166.4176 C   0  0  0  0  0  0  0  0  0  0  0  0
  128.8156  136.6455  165.0939 C   0  0  2  0  0  0  0  0  0  0  0  0
  127.9603  136.3618  163.9389 N   0  0  0  0  0  0  0  0  0  0  0  0
  128.5356  136.1154  162.6840 C   0  0  0  0  0  0  0  0  0  0  0  0
  129.9149  136.1397  162.5361 C   0  0  0  0  0  0  0  0  0  0  0  0
  130.4830  135.8907  161.2999 C   0  0  0  0  0  0  0  0  0  0  0  0
  131.8265  135.9093  161.1583 F   0  0  0  0  0  0  0  0  0  0  0  0
  129.6724  135.6268  160.2017 C   0  0  0  0  0  0  0  0  0  0  0  0
  130.2491  135.3802  158.9480 N   0  0  0  0  0  0  0  0  0  0  0  0
  130.0248  134.1727  158.3080 C   0  0  0  0  0  0  0  0  0  0  0  0
  129.2670  133.1493  158.7888 N   0  0  0  0  0  0  0  0  0  0  0  0
  128.7912  133.1343  159.6339 H   0  0  0  0  0  0  0  0  0  0  0  0
  129.3005  132.1413  157.8557 C   0  0  0  0  0  0  0  0  0  0  0  0
  130.0726  132.5796  156.8306 C   0  0  0  0  0  0  0  0  0  0  0  0
  130.3886  131.8266  155.5920 C   0  0  0  0  0  0  0  0  0  0  0  0
  130.0193  132.3387  154.3495 C   0  0  0  0  0  0  0  0  0  0  0  0
  130.3200  131.6375  153.1997 C   0  0  0  0  0  0  0  0  0  0  0  0
  130.9782  130.4215  153.2796 C   0  0  0  0  0  0  0  0  0  0  0  0
  131.2660  129.7358  152.1516 F   0  0  0  0  0  0  0  0  0  0  0  0
  131.3421  129.9056  154.5131 C   0  0  0  0  0  0  0  0  0  0  0  0
  131.0503  130.6023  155.6679 C   0  0  0  0  0  0  0  0  0  0  0  0
  130.5070  133.8269  157.1391 N   0  0  0  0  0  0  0  0  0  0  0  0
  131.0797  134.3768  156.5818 H   0  0  0  0  0  0  0  0  0  0  0  0
  128.2922  135.6019  160.3475 C   0  0  0  0  0  0  0  0  0  0  0  0
  127.7227  135.8456  161.5860 C   0  0  0  0  0  0  0  0  0  0  0  0
  126.3701  135.8219  161.7301 O   0  0  0  0  0  0  0  0  0  0  0  0
  129.3806  135.3836  165.7670 C   0  0  0  0  0  0  0  0  0  0  0  0
  129.1238  136.0816  167.1129 C   0  0  2  0  0  0  0  0  0  0  0  0
  129.9621  136.6868  167.4578 H   0  0  0  0  0  0  0  0  0  0  0  0
  128.6156  135.2095  168.1244 O   0  0  0  0  0  0  0  0  0  0  0  0
  127.5094  138.9504  166.0274 H   0  0  0  0  0  0  0  0  0  0  0  0
  127.4197  138.4624  167.7367 H   0  0  0  0  0  0  0  0  0  0  0  0
  129.0034  138.7284  166.9691 H   0  0  0  0  0  0  0  0  0  0  0  0
  126.7740  135.1471  166.3090 H   0  0  0  0  0  0  0  0  0  0  0  0
  126.1629  136.4434  167.3647 H   0  0  0  0  0  0  0  0  0  0  0  0
  126.0523  136.6096  165.5959 H   0  0  0  0  0  0  0  0  0  0  0  0
  129.5689  137.4056  164.8862 H   0  0  0  0  0  0  0  0  0  0  0  0
  126.9960  136.3445  164.0422 H   0  0  0  0  0  0  0  0  0  0  0  0
  130.5454  136.3486  163.3876 H   0  0  0  0  0  0  0  0  0  0  0  0
  130.8052  136.0553  158.5287 H   0  0  0  0  0  0  0  0  0  0  0  0
  128.8032  131.1850  157.9236 H   0  0  0  0  0  0  0  0  0  0  0  0
  129.5022  133.2847  154.2863 H   0  0  0  0  0  0  0  0  0  0  0  0
  130.0380  132.0355  152.2361 H   0  0  0  0  0  0  0  0  0  0  0  0
  131.8548  128.9568  154.5711 H   0  0  0  0  0  0  0  0  0  0  0  0
  131.3345  130.1999  156.6290 H   0  0  0  0  0  0  0  0  0  0  0  0
  127.6626  135.3922  159.4953 H   0  0  0  0  0  0  0  0  0  0  0  0
  125.8909  135.6263  160.9133 H   0  0  0  0  0  0  0  0  0  0  0  0
  128.7686  134.4949  165.6122 H   0  0  0  0  0  0  0  0  0  0  0  0
  130.4367  135.2128  165.5581 H   0  0  0  0  0  0  0  0  0  0  0  0
  128.1389  135.6640  168.8324 H   0  0  0  0  0  0  0  0  0  0  0  0
  1  2  1  0
  1 33  1  0
  1 34  1  0
  1 35  1  0
  2 30  1  0
  2  3  1  0
  2  4  1  0
  3 36  1  0
  3 37  1  0
  3 38  1  0
  4  5  1  0
  4 29  1  0
  4 39  1  6
  5  6  1  0
  5 40  1  0
  6 27  1  0
  6  7  2  0
  7  8  1  0
  7 41  1  0
  8  9  1  0
  8 10  2  0
 10 11  1  0
 10 26  1  0
 11 42  1  0
 12 11  1  0
 12 24  2  0
 12 13  1  0
 13 14  1  0
 13 15  1  0
 15 16  2  0
 15 43  1  0
 16 17  1  0
 16 24  1  0
 17 23  1  0
 17 18  2  0
 18 19  1  0
 18 44  1  0
 19 20  2  0
 19 45  1  0
 20 21  1  0
 20 22  1  0
 22 23  2  0
 22 46  1  0
 23 47  1  0
 24 25  1  0
 26 27  2  0
 26 48  1  0
 27 28  1  0
 28 49  1  0
 29 30  1  0
 29 50  1  0
 29 51  1  0
 30 31  1  1
 30 32  1  0
 32 52  1  0
M  CHG  1  24   1
M  END
>  <DOCK_score>  (1) 
-49.413391

>  <SMILES>  (1) 
CC1(C)C(Nc2cc(F)c(Nc3[nH]cc(-c4ccc(F)cc4)[nH+]3)cc2O)C[C@@H]1O

$$$$
