CCc1ccc(-c2c[nH]c(N[C@H](c3ccccc3)c3ccc(C4=CCCC4)cc3)[nH+]2)cc1
     RDKit          3D

 62 66  0  0  1  0  0  0  0  0999 V2000
  130.3941  128.5547  150.6055 C   0  0  0  0  0  0  0  0  0  0  0  0
  131.4068  129.6661  150.8884 C   0  0  0  0  0  0  0  0  0  0  0  0
  131.0923  130.3064  152.2159 C   0  0  0  0  0  0  0  0  0  0  0  0
  131.6632  129.8089  153.3729 C   0  0  0  0  0  0  0  0  0  0  0  0
  131.3834  130.3946  154.5909 C   0  0  0  0  0  0  0  0  0  0  0  0
  130.5147  131.4826  154.6546 C   0  0  0  0  0  0  0  0  0  0  0  0
  130.2057  132.1130  155.9613 C   0  0  0  0  0  0  0  0  0  0  0  0
  129.6402  131.4987  157.0299 C   0  0  0  0  0  0  0  0  0  0  0  0
  129.5344  132.4426  158.0223 N   0  0  0  0  0  0  0  0  0  0  0  0
  129.1675  132.3046  158.9096 H   0  0  0  0  0  0  0  0  0  0  0  0
  130.0389  133.6071  157.5308 C   0  0  0  0  0  0  0  0  0  0  0  0
  130.1165  134.8060  158.2184 N   0  0  0  0  0  0  0  0  0  0  0  0
  129.6299  134.8924  159.5976 C   0  0  2  0  0  0  0  0  0  0  0  0
  129.9068  133.9872  160.1378 H   0  0  0  0  0  0  0  0  0  0  0  0
  128.1297  135.0355  159.5927 C   0  0  0  0  0  0  0  0  0  0  0  0
  127.3839  134.5306  160.6416 C   0  0  0  0  0  0  0  0  0  0  0  0
  126.0081  134.6658  160.6393 C   0  0  0  0  0  0  0  0  0  0  0  0
  125.3774  135.2977  159.5840 C   0  0  0  0  0  0  0  0  0  0  0  0
  126.1228  135.7980  158.5327 C   0  0  0  0  0  0  0  0  0  0  0  0
  127.4989  135.6667  158.5371 C   0  0  0  0  0  0  0  0  0  0  0  0
  130.2464  136.0897  160.2738 C   0  0  0  0  0  0  0  0  0  0  0  0
  130.0312  137.3567  159.7616 C   0  0  0  0  0  0  0  0  0  0  0  0
  130.5883  138.4575  160.3793 C   0  0  0  0  0  0  0  0  0  0  0  0
  131.3791  138.2898  161.5166 C   0  0  0  0  0  0  0  0  0  0  0  0
  131.9832  139.4642  162.1804 C   0  0  0  0  0  0  0  0  0  0  0  0
  131.4514  140.6742  162.1940 C   0  0  0  0  0  0  0  0  0  0  0  0
  132.3276  141.6377  162.9605 C   0  0  0  0  0  0  0  0  0  0  0  0
  133.6980  140.9298  163.0630 C   0  0  0  0  0  0  0  0  0  0  0  0
  133.2887  139.4425  162.9409 C   0  0  0  0  0  0  0  0  0  0  0  0
  131.5969  137.0087  162.0248 C   0  0  0  0  0  0  0  0  0  0  0  0
  131.0299  135.9166  161.4009 C   0  0  0  0  0  0  0  0  0  0  0  0
  130.4444  133.4046  156.3009 N   0  0  0  0  0  0  0  0  0  0  0  0
  130.8483  134.0723  155.7248 H   0  0  0  0  0  0  0  0  0  0  0  0
  129.9377  131.9765  153.4859 C   0  0  0  0  0  0  0  0  0  0  0  0
  130.2292  131.3864  152.2729 C   0  0  0  0  0  0  0  0  0  0  0  0
  130.6215  128.0917  149.6453 H   0  0  0  0  0  0  0  0  0  0  0  0
  130.4503  127.8036  151.3934 H   0  0  0  0  0  0  0  0  0  0  0  0
  129.3896  128.9766  150.5767 H   0  0  0  0  0  0  0  0  0  0  0  0
  132.4110  129.2448  150.9167 H   0  0  0  0  0  0  0  0  0  0  0  0
  131.3503  130.4178  150.1001 H   0  0  0  0  0  0  0  0  0  0  0  0
  132.3325  128.9627  153.3229 H   0  0  0  0  0  0  0  0  0  0  0  0
  131.8335  130.0081  155.4933 H   0  0  0  0  0  0  0  0  0  0  0  0
  129.3316  130.4654  157.0891 H   0  0  0  0  0  0  0  0  0  0  0  0
  130.4933  135.5890  157.7871 H   0  0  0  0  0  0  0  0  0  0  0  0
  127.8763  134.0336  161.4642 H   0  0  0  0  0  0  0  0  0  0  0  0
  125.4258  134.2752  161.4607 H   0  0  0  0  0  0  0  0  0  0  0  0
  124.3024  135.4010  159.5810 H   0  0  0  0  0  0  0  0  0  0  0  0
  125.6301  136.2918  157.7082 H   0  0  0  0  0  0  0  0  0  0  0  0
  128.0812  136.0574  157.7157 H   0  0  0  0  0  0  0  0  0  0  0  0
  129.4226  137.4848  158.8786 H   0  0  0  0  0  0  0  0  0  0  0  0
  130.4163  139.4465  159.9809 H   0  0  0  0  0  0  0  0  0  0  0  0
  130.5172  140.9386  161.7209 H   0  0  0  0  0  0  0  0  0  0  0  0
  132.4253  142.5768  162.4160 H   0  0  0  0  0  0  0  0  0  0  0  0
  131.9171  141.8152  163.9545 H   0  0  0  0  0  0  0  0  0  0  0  0
  134.3531  141.2268  162.2439 H   0  0  0  0  0  0  0  0  0  0  0  0
  134.1678  141.1259  164.0268 H   0  0  0  0  0  0  0  0  0  0  0  0
  133.1453  139.0036  163.9283 H   0  0  0  0  0  0  0  0  0  0  0  0
  134.0430  138.8868  162.3839 H   0  0  0  0  0  0  0  0  0  0  0  0
  132.2077  136.8722  162.9050 H   0  0  0  0  0  0  0  0  0  0  0  0
  131.1978  134.9245  161.7932 H   0  0  0  0  0  0  0  0  0  0  0  0
  129.2637  132.8192  153.5295 H   0  0  0  0  0  0  0  0  0  0  0  0
  129.7830  131.7686  151.3667 H   0  0  0  0  0  0  0  0  0  0  0  0
  1  2  1  0
  1 36  1  0
  1 37  1  0
  1 38  1  0
  2  3  1  0
  2 39  1  0
  2 40  1  0
  3 35  2  0
  3  4  1  0
  4  5  2  0
  4 41  1  0
  5  6  1  0
  5 42  1  0
  6  7  1  0
  6 34  2  0
  7 32  1  0
  7  8  2  0
  8  9  1  0
  8 43  1  0
  9 10  1  0
  9 11  1  0
 11 12  1  0
 11 32  2  0
 12 13  1  0
 12 44  1  0
 13 14  1  1
 13 15  1  0
 13 21  1  0
 15 20  1  0
 15 16  2  0
 16 17  1  0
 16 45  1  0
 17 18  2  0
 17 46  1  0
 18 19  1  0
 18 47  1  0
 19 20  2  0
 19 48  1  0
 20 49  1  0
 21 31  1  0
 21 22  2  0
 22 23  1  0
 22 50  1  0
 23 24  2  0
 23 51  1  0
 24 25  1  0
 24 30  1  0
 25 29  1  0
 25 26  2  0
 26 27  1  0
 26 52  1  0
 27 28  1  0
 27 53  1  0
 27 54  1  0
 28 29  1  0
 28 55  1  0
 28 56  1  0
 29 57  1  0
 29 58  1  0
 30 31  2  0
 30 59  1  0
 31 60  1  0
 32 33  1  0
 34 35  1  0
 34 61  1  0
 35 62  1  0
M  CHG  1  32   1
M  END
>  <DOCK_score>  (1) 
-59.759285

>  <SMILES>  (1) 
CCc1ccc(-c2c[nH]c(N[C@H](c3ccccc3)c3ccc(C4=CCCC4)cc3)[nH+]2)cc1

$$$$
