OCc1cc(Sc2cccc(C[N@@H+]3CC(O)C4(CCCC4)C3)n2)ccc1O
     RDKit          3D

 54 57  0  0  1  0  0  0  0  0999 V2000
  123.7379  134.7822  161.6957 O   0  0  0  0  0  0  0  0  0  0  0  0
  124.9839  134.6196  161.0153 C   0  0  0  0  0  0  0  0  0  0  0  0
  126.1159  134.9428  161.9563 C   0  0  0  0  0  0  0  0  0  0  0  0
  126.5945  136.2355  162.0419 C   0  0  0  0  0  0  0  0  0  0  0  0
  127.6345  136.5341  162.9128 C   0  0  0  0  0  0  0  0  0  0  0  0
  128.2417  138.1841  163.0281 S   0  0  0  0  0  0  0  0  0  0  0  0
  129.5146  138.2240  161.8105 C   0  0  0  0  0  0  0  0  0  0  0  0
  129.8062  139.4174  161.1562 C   0  0  0  0  0  0  0  0  0  0  0  0
  130.8115  139.4354  160.2068 C   0  0  0  0  0  0  0  0  0  0  0  0
  131.4872  138.2528  159.9340 C   0  0  0  0  0  0  0  0  0  0  0  0
  131.1422  137.1038  160.6169 C   0  0  0  0  0  0  0  0  0  0  0  0
  131.8714  135.8177  160.3247 C   0  0  0  0  0  0  0  0  0  0  0  0
  131.1792  135.0958  159.2488 N   0  0  2  0  0  0  0  0  0  0  0  0
  131.4246  135.4829  158.3499 H   0  0  0  0  0  0  0  0  0  0  0  0
  129.7079  135.1444  159.4537 C   0  0  0  0  0  0  0  0  0  0  0  0
  129.1629  133.9357  158.6589 C   0  0  1  0  0  0  0  0  0  0  0  0
  128.7513  134.3437  157.3528 O   0  0  0  0  0  0  0  0  0  0  0  0
  130.3461  132.9630  158.5668 C   0  0  0  0  0  0  0  0  0  0  0  0
  130.0018  131.6214  159.2274 C   0  0  0  0  0  0  0  0  0  0  0  0
  129.6001  130.7103  158.0385 C   0  0  0  0  0  0  0  0  0  0  0  0
  130.5806  131.1485  156.9214 C   0  0  0  0  0  0  0  0  0  0  0  0
  130.7093  132.6767  157.1076 C   0  0  0  0  0  0  0  0  0  0  0  0
  131.5106  133.6465  159.2985 C   0  0  0  0  0  0  0  0  0  0  0  0
  130.1821  137.1168  161.5220 N   0  0  0  0  0  0  0  0  0  0  0  0
  128.1989  135.5299  163.6894 C   0  0  0  0  0  0  0  0  0  0  0  0
  127.7187  134.2384  163.6026 C   0  0  0  0  0  0  0  0  0  0  0  0
  126.6762  133.9421  162.7363 C   0  0  0  0  0  0  0  0  0  0  0  0
  126.2039  132.6697  162.6514 O   0  0  0  0  0  0  0  0  0  0  0  0
  123.5855  135.6771  162.0287 H   0  0  0  0  0  0  0  0  0  0  0  0
  125.0205  135.2923  160.1585 H   0  0  0  0  0  0  0  0  0  0  0  0
  125.0791  133.5892  160.6728 H   0  0  0  0  0  0  0  0  0  0  0  0
  126.1581  137.0145  161.4347 H   0  0  0  0  0  0  0  0  0  0  0  0
  129.2575  140.3179  161.3896 H   0  0  0  0  0  0  0  0  0  0  0  0
  131.0628  140.3477  159.6861 H   0  0  0  0  0  0  0  0  0  0  0  0
  132.2746  138.2325  159.1953 H   0  0  0  0  0  0  0  0  0  0  0  0
  132.8921  136.0412  160.0141 H   0  0  0  0  0  0  0  0  0  0  0  0
  131.8919  135.1996  161.2224 H   0  0  0  0  0  0  0  0  0  0  0  0
  129.4681  135.0426  160.5122 H   0  0  0  0  0  0  0  0  0  0  0  0
  129.2996  136.0745  159.0584 H   0  0  0  0  0  0  0  0  0  0  0  0
  128.3316  133.4730  159.1908 H   0  0  0  0  0  0  0  0  0  0  0  0
  128.0058  134.9597  157.3498 H   0  0  0  0  0  0  0  0  0  0  0  0
  130.8716  131.2150  159.7433 H   0  0  0  0  0  0  0  0  0  0  0  0
  129.1669  131.7386  159.9181 H   0  0  0  0  0  0  0  0  0  0  0  0
  128.5681  130.8965  157.7410 H   0  0  0  0  0  0  0  0  0  0  0  0
  129.7446  129.6592  158.2882 H   0  0  0  0  0  0  0  0  0  0  0  0
  130.1681  130.9173  155.9393 H   0  0  0  0  0  0  0  0  0  0  0  0
  131.5494  130.6657  157.0504 H   0  0  0  0  0  0  0  0  0  0  0  0
  130.0192  133.1945  156.4414 H   0  0  0  0  0  0  0  0  0  0  0  0
  131.7328  132.9936  156.9073 H   0  0  0  0  0  0  0  0  0  0  0  0
  132.4509  133.4529  158.7820 H   0  0  0  0  0  0  0  0  0  0  0  0
  131.5671  133.3040  160.3317 H   0  0  0  0  0  0  0  0  0  0  0  0
  129.0101  135.7603  164.3641 H   0  0  0  0  0  0  0  0  0  0  0  0
  128.1549  133.4583  164.2089 H   0  0  0  0  0  0  0  0  0  0  0  0
  126.6563  132.0428  163.2322 H   0  0  0  0  0  0  0  0  0  0  0  0
  1  2  1  0
  1 29  1  0
  2  3  1  0
  2 30  1  0
  2 31  1  0
  3 27  2  0
  3  4  1  0
  4  5  2  0
  4 32  1  0
  5  6  1  0
  5 25  1  0
  6  7  1  0
  7 24  1  0
  7  8  2  0
  8  9  1  0
  8 33  1  0
  9 10  2  0
  9 34  1  0
 10 11  1  0
 10 35  1  0
 11 12  1  0
 11 24  2  0
 12 13  1  0
 12 36  1  0
 12 37  1  0
 13 14  1  6
 13 23  1  0
 13 15  1  0
 15 16  1  0
 15 38  1  0
 15 39  1  0
 16 17  1  0
 16 18  1  0
 16 40  1  1
 17 41  1  0
 18 22  1  0
 18 19  1  0
 18 23  1  0
 19 20  1  0
 19 42  1  0
 19 43  1  0
 20 21  1  0
 20 44  1  0
 20 45  1  0
 21 22  1  0
 21 46  1  0
 21 47  1  0
 22 48  1  0
 22 49  1  0
 23 50  1  0
 23 51  1  0
 25 26  2  0
 25 52  1  0
 26 27  1  0
 26 53  1  0
 27 28  1  0
 28 54  1  0
M  CHG  1  13   1
M  END
>  <DOCK_score>  (1) 
-41.913971

>  <SMILES>  (1) 
OCc1cc(Sc2cccc(C[N@@H+]3CC(O)C4(CCCC4)C3)n2)ccc1O

$$$$
