C1=C([C@@H](Nc2[nH]cc(-c3cccnc3)[nH+]2)C(Cc2ccccc2)Cc2ccccc2)CCC1
     RDKit          3D

 64 68  0  0  1  0  0  0  0  0999 V2000
  128.1223  134.8503  160.2483 C   0  0  0  0  0  0  0  0  0  0  0  0
  129.1752  134.8114  161.0189 C   0  0  0  0  0  0  0  0  0  0  0  0
  130.5352  135.3318  160.6310 C   0  0  1  0  0  0  0  0  0  0  0  0
  131.3049  134.7529  161.1415 H   0  0  0  0  0  0  0  0  0  0  0  0
  130.7108  135.2071  159.1820 N   0  0  0  0  0  0  0  0  0  0  0  0
  130.6457  133.9614  158.5815 C   0  0  0  0  0  0  0  0  0  0  0  0
  130.4313  132.7815  159.2249 N   0  0  0  0  0  0  0  0  0  0  0  0
  130.2976  132.6631  160.1784 H   0  0  0  0  0  0  0  0  0  0  0  0
  130.4361  131.7896  158.2746 C   0  0  0  0  0  0  0  0  0  0  0  0
  130.6616  132.3903  157.0799 C   0  0  0  0  0  0  0  0  0  0  0  0
  130.7561  131.7103  155.7649 C   0  0  0  0  0  0  0  0  0  0  0  0
  131.2338  130.3995  155.6758 C   0  0  0  0  0  0  0  0  0  0  0  0
  131.2968  129.8075  154.4264 C   0  0  0  0  0  0  0  0  0  0  0  0
  130.9001  130.5291  153.3149 C   0  0  0  0  0  0  0  0  0  0  0  0
  130.4588  131.7667  153.4296 N   0  0  0  0  0  0  0  0  0  0  0  0
  130.3757  132.3698  154.5979 C   0  0  0  0  0  0  0  0  0  0  0  0
  130.7861  133.7231  157.3004 N   0  0  0  0  0  0  0  0  0  0  0  0
  130.9529  134.3928  156.6187 H   0  0  0  0  0  0  0  0  0  0  0  0
  130.6524  136.8031  161.0342 C   0  0  0  0  0  0  0  0  0  0  0  0
  132.0331  137.3315  160.6404 C   0  0  0  0  0  0  0  0  0  0  0  0
  133.0476  136.9014  161.6684 C   0  0  0  0  0  0  0  0  0  0  0  0
  133.3111  137.7084  162.7593 C   0  0  0  0  0  0  0  0  0  0  0  0
  134.2382  137.3114  163.7048 C   0  0  0  0  0  0  0  0  0  0  0  0
  134.9093  136.1125  163.5539 C   0  0  0  0  0  0  0  0  0  0  0  0
  134.6497  135.3078  162.4602 C   0  0  0  0  0  0  0  0  0  0  0  0
  133.7188  135.7022  161.5175 C   0  0  0  0  0  0  0  0  0  0  0  0
  129.5719  137.6157  160.3179 C   0  0  0  0  0  0  0  0  0  0  0  0
  129.3545  138.9161  161.0479 C   0  0  0  0  0  0  0  0  0  0  0  0
  128.4112  138.9939  162.0554 C   0  0  0  0  0  0  0  0  0  0  0  0
  128.2153  140.1855  162.7282 C   0  0  0  0  0  0  0  0  0  0  0  0
  128.9553  141.3019  162.3864 C   0  0  0  0  0  0  0  0  0  0  0  0
  129.8951  141.2254  161.3754 C   0  0  0  0  0  0  0  0  0  0  0  0
  130.0946  140.0326  160.7062 C   0  0  0  0  0  0  0  0  0  0  0  0
  128.8497  134.1817  162.3535 C   0  0  0  0  0  0  0  0  0  0  0  0
  127.5085  133.4470  162.1246 C   0  0  0  0  0  0  0  0  0  0  0  0
  126.9215  134.2446  160.9370 C   0  0  0  0  0  0  0  0  0  0  0  0
  128.1115  135.2598  159.2491 H   0  0  0  0  0  0  0  0  0  0  0  0
  130.8726  135.9973  158.6432 H   0  0  0  0  0  0  0  0  0  0  0  0
  130.2921  130.7332  158.4465 H   0  0  0  0  0  0  0  0  0  0  0  0
  131.5415  129.8609  156.5598 H   0  0  0  0  0  0  0  0  0  0  0  0
  131.6562  128.7946  154.3197 H   0  0  0  0  0  0  0  0  0  0  0  0
  130.9523  130.0719  152.3379 H   0  0  0  0  0  0  0  0  0  0  0  0
  130.0091  133.3842  154.6517 H   0  0  0  0  0  0  0  0  0  0  0  0
  130.5217  136.8958  162.1124 H   0  0  0  0  0  0  0  0  0  0  0  0
  132.0050  138.4200  160.5911 H   0  0  0  0  0  0  0  0  0  0  0  0
  132.3111  136.9307  159.6657 H   0  0  0  0  0  0  0  0  0  0  0  0
  132.7899  138.6472  162.8749 H   0  0  0  0  0  0  0  0  0  0  0  0
  134.4414  137.9402  164.5590 H   0  0  0  0  0  0  0  0  0  0  0  0
  135.6369  135.8044  164.2903 H   0  0  0  0  0  0  0  0  0  0  0  0
  135.1743  134.3712  162.3422 H   0  0  0  0  0  0  0  0  0  0  0  0
  133.5162  135.0738  160.6629 H   0  0  0  0  0  0  0  0  0  0  0  0
  129.8898  137.8215  159.2958 H   0  0  0  0  0  0  0  0  0  0  0  0
  128.6413  137.0483  160.3017 H   0  0  0  0  0  0  0  0  0  0  0  0
  127.8300  138.1228  162.3193 H   0  0  0  0  0  0  0  0  0  0  0  0
  127.4810  140.2453  163.5177 H   0  0  0  0  0  0  0  0  0  0  0  0
  128.7992  142.2341  162.9091 H   0  0  0  0  0  0  0  0  0  0  0  0
  130.4729  142.0979  161.1082 H   0  0  0  0  0  0  0  0  0  0  0  0
  130.8285  139.9730  159.9161 H   0  0  0  0  0  0  0  0  0  0  0  0
  129.6271  133.4728  162.6384 H   0  0  0  0  0  0  0  0  0  0  0  0
  128.7383  134.9498  163.1186 H   0  0  0  0  0  0  0  0  0  0  0  0
  127.6746  132.4048  161.8521 H   0  0  0  0  0  0  0  0  0  0  0  0
  126.8662  133.5226  163.0022 H   0  0  0  0  0  0  0  0  0  0  0  0
  126.3878  133.5786  160.2591 H   0  0  0  0  0  0  0  0  0  0  0  0
  126.2586  135.0309  161.2982 H   0  0  0  0  0  0  0  0  0  0  0  0
  1 36  1  0
  1  2  2  0
  1 37  1  0
  2  3  1  0
  2 34  1  0
  3  4  1  1
  3  5  1  0
  3 19  1  0
  5 38  1  0
  6  5  1  0
  6 17  2  0
  6  7  1  0
  7  8  1  0
  7  9  1  0
  9 10  2  0
  9 39  1  0
 10 11  1  0
 10 17  1  0
 11 16  1  0
 11 12  2  0
 12 13  1  0
 12 40  1  0
 13 14  2  0
 13 41  1  0
 14 15  1  0
 14 42  1  0
 15 16  2  0
 16 43  1  0
 17 18  1  0
 19 20  1  0
 19 27  1  0
 19 44  1  0
 20 21  1  0
 20 45  1  0
 20 46  1  0
 21 26  1  0
 21 22  2  0
 22 23  1  0
 22 47  1  0
 23 24  2  0
 23 48  1  0
 24 25  1  0
 24 49  1  0
 25 26  2  0
 25 50  1  0
 26 51  1  0
 27 28  1  0
 27 52  1  0
 27 53  1  0
 28 33  1  0
 28 29  2  0
 29 30  1  0
 29 54  1  0
 30 31  2  0
 30 55  1  0
 31 32  1  0
 31 56  1  0
 32 33  2  0
 32 57  1  0
 33 58  1  0
 34 35  1  0
 34 59  1  0
 34 60  1  0
 35 36  1  0
 35 61  1  0
 35 62  1  0
 36 63  1  0
 36 64  1  0
M  CHG  1  17   1
M  END
>  <DOCK_score>  (1) 
-60.907413

>  <SMILES>  (1) 
C1=C([C@@H](Nc2[nH]cc(-c3cccnc3)[nH+]2)C(Cc2ccccc2)Cc2ccccc2)CCC1

$$$$
