Brc1ccc(-c2c[nH]c(Nc3ccc(-c4n[nH]cc4C[NH2+]C4CC4)o3)n2)cc1
     RDKit          3D

 48 52  0  0  0  0  0  0  0  0999 V2000
  126.6688  143.4863  168.2804 Br  0  0  0  0  0  0  0  0  0  0  0  0
  126.8982  142.0470  167.0756 C   0  0  0  0  0  0  0  0  0  0  0  0
  126.1496  141.9952  165.9124 C   0  0  0  0  0  0  0  0  0  0  0  0
  126.3129  140.9469  165.0302 C   0  0  0  0  0  0  0  0  0  0  0  0
  127.2338  139.9392  165.3117 C   0  0  0  0  0  0  0  0  0  0  0  0
  127.4130  138.8096  164.3670 C   0  0  0  0  0  0  0  0  0  0  0  0
  128.5560  138.1058  164.1723 C   0  0  0  0  0  0  0  0  0  0  0  0
  128.2833  137.1598  163.2148 N   0  0  0  0  0  0  0  0  0  0  0  0
  128.9053  136.5050  162.8607 H   0  0  0  0  0  0  0  0  0  0  0  0
  126.9777  137.3070  162.8588 C   0  0  0  0  0  0  0  0  0  0  0  0
  126.3058  136.5407  161.9207 N   0  0  0  0  0  0  0  0  0  0  0  0
  126.9708  135.5174  161.2533 C   0  0  0  0  0  0  0  0  0  0  0  0
  126.4035  134.3794  160.7813 C   0  0  0  0  0  0  0  0  0  0  0  0
  127.4307  133.6274  160.1784 C   0  0  0  0  0  0  0  0  0  0  0  0
  128.5763  134.3465  160.3131 C   0  0  0  0  0  0  0  0  0  0  0  0
  129.9127  133.9446  159.8275 C   0  0  0  0  0  0  0  0  0  0  0  0
  130.2021  132.8310  159.1837 N   0  0  0  0  0  0  0  0  0  0  0  0
  131.5745  132.8350  158.9036 N   0  0  0  0  0  0  0  0  0  0  0  0
  132.0621  132.1381  158.4372 H   0  0  0  0  0  0  0  0  0  0  0  0
  132.1017  133.9777  159.3945 C   0  0  0  0  0  0  0  0  0  0  0  0
  131.1044  134.6871  159.9647 C   0  0  0  0  0  0  0  0  0  0  0  0
  131.2408  136.0310  160.6329 C   0  0  0  0  0  0  0  0  0  0  0  0
  131.0340  137.0943  159.6406 N   0  0  0  0  0  0  0  0  0  0  0  0
  131.7241  137.0107  158.9093 H   0  0  0  0  0  0  0  0  0  0  0  0
  130.1106  137.0084  159.2432 H   0  0  0  0  0  0  0  0  0  0  0  0
  131.1669  138.4043  160.2918 C   0  0  0  0  0  0  0  0  0  0  0  0
  131.7127  139.5596  159.4503 C   0  0  0  0  0  0  0  0  0  0  0  0
  132.5823  138.9296  160.5401 C   0  0  0  0  0  0  0  0  0  0  0  0
  128.2829  135.4926  160.9622 O   0  0  0  0  0  0  0  0  0  0  0  0
  126.4614  138.2941  163.5498 N   0  0  0  0  0  0  0  0  0  0  0  0
  127.9815  139.9936  166.4866 C   0  0  0  0  0  0  0  0  0  0  0  0
  127.8137  141.0487  167.3602 C   0  0  0  0  0  0  0  0  0  0  0  0
  125.4363  142.7765  165.6953 H   0  0  0  0  0  0  0  0  0  0  0  0
  125.7283  140.9075  164.1229 H   0  0  0  0  0  0  0  0  0  0  0  0
  129.5005  138.2615  164.6723 H   0  0  0  0  0  0  0  0  0  0  0  0
  125.3714  136.7175  161.7294 H   0  0  0  0  0  0  0  0  0  0  0  0
  125.3623  134.1023  160.8542 H   0  0  0  0  0  0  0  0  0  0  0  0
  127.3277  132.6645  159.7004 H   0  0  0  0  0  0  0  0  0  0  0  0
  133.1386  134.2741  159.3368 H   0  0  0  0  0  0  0  0  0  0  0  0
  130.4954  136.1214  161.4229 H   0  0  0  0  0  0  0  0  0  0  0  0
  132.2384  136.1237  161.0623 H   0  0  0  0  0  0  0  0  0  0  0  0
  130.4053  138.6390  161.0356 H   0  0  0  0  0  0  0  0  0  0  0  0
  131.9732  139.3476  158.4133 H   0  0  0  0  0  0  0  0  0  0  0  0
  131.3102  140.5546  159.6401 H   0  0  0  0  0  0  0  0  0  0  0  0
  132.7518  139.5101  161.4470 H   0  0  0  0  0  0  0  0  0  0  0  0
  133.4150  138.3032  160.2203 H   0  0  0  0  0  0  0  0  0  0  0  0
  128.6934  139.2131  166.7113 H   0  0  0  0  0  0  0  0  0  0  0  0
  128.3948  141.0933  168.2694 H   0  0  0  0  0  0  0  0  0  0  0  0
  1  2  1  0
  2 32  2  0
  2  3  1  0
  3  4  2  0
  3 33  1  0
  4  5  1  0
  4 34  1  0
  5  6  1  0
  5 31  2  0
  6 30  1  0
  6  7  2  0
  7  8  1  0
  7 35  1  0
  8  9  1  0
  8 10  1  0
 10 11  1  0
 10 30  2  0
 11 12  1  0
 11 36  1  0
 12 29  1  0
 12 13  2  0
 13 14  1  0
 13 37  1  0
 14 15  2  0
 14 38  1  0
 15 16  1  0
 15 29  1  0
 16 21  1  0
 16 17  2  0
 17 18  1  0
 18 19  1  0
 18 20  1  0
 20 21  2  0
 20 39  1  0
 21 22  1  0
 22 23  1  0
 22 40  1  0
 22 41  1  0
 23 24  1  0
 23 25  1  0
 23 26  1  0
 26 28  1  0
 26 27  1  0
 26 42  1  0
 27 28  1  0
 27 43  1  0
 27 44  1  0
 28 45  1  0
 28 46  1  0
 31 32  1  0
 31 47  1  0
 32 48  1  0
M  CHG  1  23   1
M  END
>  <DOCK_score>  (1) 
-48.07848

>  <SMILES>  (1) 
Brc1ccc(-c2c[nH]c(Nc3ccc(-c4n[nH]cc4C[NH2+]C4CC4)o3)n2)cc1

$$$$
