CCn1nccc1C[C@@H](Nc1[nH]cc(-c2cccnc2)[nH+]1)C1=CCCCCC1
     RDKit          3D

 57 60  0  0  1  0  0  0  0  0999 V2000
  125.9003  133.7435  160.9590 C   0  0  0  0  0  0  0  0  0  0  0  0
  126.4417  135.1738  161.0028 C   0  0  0  0  0  0  0  0  0  0  0  0
  126.8365  135.5881  159.6542 N   0  0  0  0  0  0  0  0  0  0  0  0
  126.0949  135.3931  158.4818 N   0  0  0  0  0  0  0  0  0  0  0  0
  126.7738  135.8924  157.4810 C   0  0  0  0  0  0  0  0  0  0  0  0
  127.9654  136.4250  157.9837 C   0  0  0  0  0  0  0  0  0  0  0  0
  127.9776  136.2277  159.3223 C   0  0  0  0  0  0  0  0  0  0  0  0
  129.0723  136.6419  160.2715 C   0  0  0  0  0  0  0  0  0  0  0  0
  130.0967  135.5121  160.3931 C   0  0  1  0  0  0  0  0  0  0  0  0
  129.6059  134.6160  160.7734 H   0  0  0  0  0  0  0  0  0  0  0  0
  130.6728  135.2314  159.0757 N   0  0  0  0  0  0  0  0  0  0  0  0
  130.5394  133.9724  158.5157 C   0  0  0  0  0  0  0  0  0  0  0  0
  129.9042  132.9135  159.0881 N   0  0  0  0  0  0  0  0  0  0  0  0
  129.4673  132.9053  159.9542 H   0  0  0  0  0  0  0  0  0  0  0  0
  129.9935  131.8594  158.2117 C   0  0  0  0  0  0  0  0  0  0  0  0
  130.6873  132.3015  157.1338 C   0  0  0  0  0  0  0  0  0  0  0  0
  131.0340  131.5044  155.9318 C   0  0  0  0  0  0  0  0  0  0  0  0
  131.1620  132.1206  154.6834 C   0  0  0  0  0  0  0  0  0  0  0  0
  131.4930  131.3338  153.5939 C   0  0  0  0  0  0  0  0  0  0  0  0
  131.6731  129.9739  153.7713 C   0  0  0  0  0  0  0  0  0  0  0  0
  131.5404  129.4197  154.9606 N   0  0  0  0  0  0  0  0  0  0  0  0
  131.2317  130.1285  156.0274 C   0  0  0  0  0  0  0  0  0  0  0  0
  131.0088  133.6019  157.3495 N   0  0  0  0  0  0  0  0  0  0  0  0
  131.5061  134.1672  156.7380 H   0  0  0  0  0  0  0  0  0  0  0  0
  131.1915  135.9263  161.3422 C   0  0  0  0  0  0  0  0  0  0  0  0
  132.2398  136.5372  160.8891 C   0  0  0  0  0  0  0  0  0  0  0  0
  133.3469  136.9584  161.8315 C   0  0  0  0  0  0  0  0  0  0  0  0
  134.0991  135.7078  162.2922 C   0  0  0  0  0  0  0  0  0  0  0  0
  133.4140  135.0797  163.4930 C   0  0  0  0  0  0  0  0  0  0  0  0
  132.0414  134.5096  163.1815 C   0  0  0  0  0  0  0  0  0  0  0  0
  131.0597  135.6264  162.8201 C   0  0  0  0  0  0  0  0  0  0  0  0
  126.6967  133.0627  160.6582 H   0  0  0  0  0  0  0  0  0  0  0  0
  125.5359  133.4625  161.9471 H   0  0  0  0  0  0  0  0  0  0  0  0
  125.0827  133.6863  160.2405 H   0  0  0  0  0  0  0  0  0  0  0  0
  127.3077  135.2145  161.6636 H   0  0  0  0  0  0  0  0  0  0  0  0
  125.6676  135.8440  161.3767 H   0  0  0  0  0  0  0  0  0  0  0  0
  126.4673  135.8925  156.4454 H   0  0  0  0  0  0  0  0  0  0  0  0
  128.7392  136.9081  157.4055 H   0  0  0  0  0  0  0  0  0  0  0  0
  128.6436  136.8506  161.2517 H   0  0  0  0  0  0  0  0  0  0  0  0
  129.5630  137.5379  159.8914 H   0  0  0  0  0  0  0  0  0  0  0  0
  131.1478  135.9277  158.5957 H   0  0  0  0  0  0  0  0  0  0  0  0
  129.5916  130.8673  158.3555 H   0  0  0  0  0  0  0  0  0  0  0  0
  131.0109  133.1843  154.5728 H   0  0  0  0  0  0  0  0  0  0  0  0
  131.6048  131.7761  152.6151 H   0  0  0  0  0  0  0  0  0  0  0  0
  131.9269  129.3562  152.9225 H   0  0  0  0  0  0  0  0  0  0  0  0
  131.1317  129.6387  156.9849 H   0  0  0  0  0  0  0  0  0  0  0  0
  132.3247  136.7468  159.8331 H   0  0  0  0  0  0  0  0  0  0  0  0
  132.9182  137.4665  162.6954 H   0  0  0  0  0  0  0  0  0  0  0  0
  134.0334  137.6282  161.3134 H   0  0  0  0  0  0  0  0  0  0  0  0
  135.1186  135.9819  162.5634 H   0  0  0  0  0  0  0  0  0  0  0  0
  134.1273  134.9854  161.4765 H   0  0  0  0  0  0  0  0  0  0  0  0
  134.0460  134.2779  163.8748 H   0  0  0  0  0  0  0  0  0  0  0  0
  133.3088  135.8369  164.2698 H   0  0  0  0  0  0  0  0  0  0  0  0
  132.1221  133.8176  162.3433 H   0  0  0  0  0  0  0  0  0  0  0  0
  131.6689  133.9737  164.0545 H   0  0  0  0  0  0  0  0  0  0  0  0
  130.0417  135.3036  163.0387 H   0  0  0  0  0  0  0  0  0  0  0  0
  131.2924  136.5199  163.3995 H   0  0  0  0  0  0  0  0  0  0  0  0
  1  2  1  0
  1 32  1  0
  1 33  1  0
  1 34  1  0
  2  3  1  0
  2 35  1  0
  2 36  1  0
  3  7  1  0
  3  4  1  0
  4  5  2  0
  5  6  1  0
  5 37  1  0
  6  7  2  0
  6 38  1  0
  7  8  1  0
  8  9  1  0
  8 39  1  0
  8 40  1  0
  9 10  1  1
  9 11  1  0
  9 25  1  0
 11 41  1  0
 12 11  1  0
 12 23  2  0
 12 13  1  0
 13 14  1  0
 13 15  1  0
 15 16  2  0
 15 42  1  0
 16 17  1  0
 16 23  1  0
 17 22  1  0
 17 18  2  0
 18 19  1  0
 18 43  1  0
 19 20  2  0
 19 44  1  0
 20 21  1  0
 20 45  1  0
 21 22  2  0
 22 46  1  0
 23 24  1  0
 25 31  1  0
 25 26  2  0
 26 27  1  0
 26 47  1  0
 27 28  1  0
 27 48  1  0
 27 49  1  0
 28 29  1  0
 28 50  1  0
 28 51  1  0
 29 30  1  0
 29 52  1  0
 29 53  1  0
 30 31  1  0
 30 54  1  0
 30 55  1  0
 31 56  1  0
 31 57  1  0
M  CHG  1  23   1
M  END
>  <DOCK_score>  (1) 
-58.29298

>  <SMILES>  (1) 
CCn1nccc1C[C@@H](Nc1[nH]cc(-c2cccnc2)[nH+]1)C1=CCCCCC1

$$$$
