C[C@@H](CNc1[nH]cc(-c2ccc(Br)cc2)[nH+]1)c1ccc(-c2cccc3ccccc23)cc1
     RDKit          3D

 57 61  0  0  1  0  0  0  0  0999 V2000
  129.5231  135.2275  163.2220 C   0  0  0  0  0  0  0  0  0  0  0  0
  130.2575  134.9758  161.9036 C   0  0  1  0  0  0  0  0  0  0  0  0
  130.3725  133.9026  161.7509 H   0  0  0  0  0  0  0  0  0  0  0  0
  129.4505  135.5716  160.7484 C   0  0  0  0  0  0  0  0  0  0  0  0
  130.1538  135.3305  159.4859 N   0  0  0  0  0  0  0  0  0  0  0  0
  129.9013  134.1777  158.7621 C   0  0  0  0  0  0  0  0  0  0  0  0
  129.0314  133.1933  159.1174 N   0  0  0  0  0  0  0  0  0  0  0  0
  128.4814  133.1733  159.9161 H   0  0  0  0  0  0  0  0  0  0  0  0
  129.0737  132.2345  158.1343 C   0  0  0  0  0  0  0  0  0  0  0  0
  129.9737  132.6563  157.2118 C   0  0  0  0  0  0  0  0  0  0  0  0
  130.3539  131.9378  155.9710 C   0  0  0  0  0  0  0  0  0  0  0  0
  130.1487  132.5329  154.7276 C   0  0  0  0  0  0  0  0  0  0  0  0
  130.5091  131.8623  153.5765 C   0  0  0  0  0  0  0  0  0  0  0  0
  131.0633  130.5966  153.6548 C   0  0  0  0  0  0  0  0  0  0  0  0
  131.5481  129.6806  152.0731 Br  0  0  0  0  0  0  0  0  0  0  0  0
  131.2643  129.9987  154.8871 C   0  0  0  0  0  0  0  0  0  0  0  0
  130.9124  130.6629  156.0444 C   0  0  0  0  0  0  0  0  0  0  0  0
  130.4648  133.8518  157.6245 N   0  0  0  0  0  0  0  0  0  0  0  0
  131.1274  134.3806  157.1532 H   0  0  0  0  0  0  0  0  0  0  0  0
  131.6168  135.6244  161.9539 C   0  0  0  0  0  0  0  0  0  0  0  0
  131.7213  136.9911  162.1408 C   0  0  0  0  0  0  0  0  0  0  0  0
  132.9634  137.5901  162.1935 C   0  0  0  0  0  0  0  0  0  0  0  0
  134.1142  136.8163  162.0463 C   0  0  0  0  0  0  0  0  0  0  0  0
  135.4505  137.4541  162.0954 C   0  0  0  0  0  0  0  0  0  0  0  0
  135.7894  138.4379  161.1834 C   0  0  0  0  0  0  0  0  0  0  0  0
  137.0415  139.0410  161.2232 C   0  0  0  0  0  0  0  0  0  0  0  0
  137.9668  138.6829  162.1565 C   0  0  0  0  0  0  0  0  0  0  0  0
  137.6641  137.6888  163.1025 C   0  0  0  0  0  0  0  0  0  0  0  0
  138.6010  137.3012  164.0764 C   0  0  0  0  0  0  0  0  0  0  0  0
  138.2695  136.3458  164.9873 C   0  0  0  0  0  0  0  0  0  0  0  0
  137.0191  135.7319  164.9593 C   0  0  0  0  0  0  0  0  0  0  0  0
  136.0891  136.0788  164.0267 C   0  0  0  0  0  0  0  0  0  0  0  0
  136.3914  137.0676  163.0792 C   0  0  0  0  0  0  0  0  0  0  0  0
  134.0022  135.4398  161.8524 C   0  0  0  0  0  0  0  0  0  0  0  0
  132.7549  134.8515  161.8073 C   0  0  0  0  0  0  0  0  0  0  0  0
  128.5399  134.7585  163.1856 H   0  0  0  0  0  0  0  0  0  0  0  0
  130.0980  134.8031  164.0450 H   0  0  0  0  0  0  0  0  0  0  0  0
  129.4082  136.3006  163.3745 H   0  0  0  0  0  0  0  0  0  0  0  0
  129.3355  136.6448  160.9009 H   0  0  0  0  0  0  0  0  0  0  0  0
  128.4673  135.1024  160.7119 H   0  0  0  0  0  0  0  0  0  0  0  0
  130.7993  135.9767  159.1593 H   0  0  0  0  0  0  0  0  0  0  0  0
  128.5027  131.3182  158.1041 H   0  0  0  0  0  0  0  0  0  0  0  0
  129.7123  133.5188  154.6650 H   0  0  0  0  0  0  0  0  0  0  0  0
  130.3542  132.3243  152.6126 H   0  0  0  0  0  0  0  0  0  0  0  0
  131.6971  129.0108  154.9428 H   0  0  0  0  0  0  0  0  0  0  0  0
  131.0697  130.1957  157.0053 H   0  0  0  0  0  0  0  0  0  0  0  0
  130.8293  137.5900  162.2500 H   0  0  0  0  0  0  0  0  0  0  0  0
  133.0439  138.6565  162.3439 H   0  0  0  0  0  0  0  0  0  0  0  0
  135.0742  138.7401  160.4328 H   0  0  0  0  0  0  0  0  0  0  0  0
  137.2848  139.8066  160.5012 H   0  0  0  0  0  0  0  0  0  0  0  0
  138.9338  139.1638  162.1698 H   0  0  0  0  0  0  0  0  0  0  0  0
  139.5744  137.7678  164.1090 H   0  0  0  0  0  0  0  0  0  0  0  0
  138.9893  136.0529  165.7373 H   0  0  0  0  0  0  0  0  0  0  0  0
  136.7837  134.9701  165.6879 H   0  0  0  0  0  0  0  0  0  0  0  0
  135.1238  135.5947  164.0166 H   0  0  0  0  0  0  0  0  0  0  0  0
  134.8899  134.8354  161.7382 H   0  0  0  0  0  0  0  0  0  0  0  0
  132.6667  133.7856  161.6575 H   0  0  0  0  0  0  0  0  0  0  0  0
  1  2  1  0
  1 36  1  0
  1 37  1  0
  1 38  1  0
  2  3  1  6
  2  4  1  0
  2 20  1  0
  4  5  1  0
  4 39  1  0
  4 40  1  0
  5 41  1  0
  6  5  1  0
  6 18  2  0
  6  7  1  0
  7  8  1  0
  7  9  1  0
  9 10  2  0
  9 42  1  0
 10 11  1  0
 10 18  1  0
 11 17  1  0
 11 12  2  0
 12 13  1  0
 12 43  1  0
 13 14  2  0
 13 44  1  0
 14 15  1  0
 14 16  1  0
 16 17  2  0
 16 45  1  0
 17 46  1  0
 18 19  1  0
 20 35  1  0
 20 21  2  0
 21 22  1  0
 21 47  1  0
 22 23  2  0
 22 48  1  0
 23 24  1  0
 23 34  1  0
 24 33  1  0
 24 25  2  0
 25 26  1  0
 25 49  1  0
 26 27  2  0
 26 50  1  0
 27 28  1  0
 27 51  1  0
 28 33  2  0
 28 29  1  0
 29 30  2  0
 29 52  1  0
 30 31  1  0
 30 53  1  0
 31 32  2  0
 31 54  1  0
 32 33  1  0
 32 55  1  0
 34 35  2  0
 34 56  1  0
 35 57  1  0
M  CHG  1  18   1
M  END
>  <DOCK_score>  (1) 
-59.484047

>  <SMILES>  (1) 
C[C@@H](CNc1[nH]cc(-c2ccc(Br)cc2)[nH+]1)c1ccc(-c2cccc3ccccc23)cc1

$$$$
