CCc1ccc(-c2c[nH]c(N[C@@H](C3=Cc4ccccc4OC3)c3ccccc3)[nH+]2)cc1
     RDKit          3D

 57 61  0  0  1  0  0  0  0  0999 V2000
  130.3015  128.3327  151.7844 C   0  0  0  0  0  0  0  0  0  0  0  0
  131.2841  129.4947  151.9421 C   0  0  0  0  0  0  0  0  0  0  0  0
  131.0102  130.2119  153.2389 C   0  0  0  0  0  0  0  0  0  0  0  0
  131.6545  129.8134  154.3957 C   0  0  0  0  0  0  0  0  0  0  0  0
  131.4120  130.4701  155.5852 C   0  0  0  0  0  0  0  0  0  0  0  0
  130.5070  131.5294  155.6212 C   0  0  0  0  0  0  0  0  0  0  0  0
  130.2379  132.2355  156.8977 C   0  0  0  0  0  0  0  0  0  0  0  0
  129.7481  131.6757  158.0316 C   0  0  0  0  0  0  0  0  0  0  0  0
  129.6549  132.6802  158.9640 N   0  0  0  0  0  0  0  0  0  0  0  0
  129.3367  132.5899  159.8758 H   0  0  0  0  0  0  0  0  0  0  0  0
  130.0910  133.8255  158.3721 C   0  0  0  0  0  0  0  0  0  0  0  0
  130.1566  135.0701  158.9747 N   0  0  0  0  0  0  0  0  0  0  0  0
  129.7341  135.2325  160.3680 C   0  0  1  0  0  0  0  0  0  0  0  0
  130.0706  134.3759  160.9519 H   0  0  0  0  0  0  0  0  0  0  0  0
  130.3372  136.4932  160.9321 C   0  0  0  0  0  0  0  0  0  0  0  0
  130.6168  136.5712  162.2296 C   0  0  0  0  0  0  0  0  0  0  0  0
  131.1774  137.8357  162.7503 C   0  0  0  0  0  0  0  0  0  0  0  0
  131.7753  137.9033  164.0041 C   0  0  0  0  0  0  0  0  0  0  0  0
  132.3002  139.1027  164.4448 C   0  0  0  0  0  0  0  0  0  0  0  0
  132.2324  140.2307  163.6454 C   0  0  0  0  0  0  0  0  0  0  0  0
  131.6338  140.1740  162.3996 C   0  0  0  0  0  0  0  0  0  0  0  0
  131.0994  138.9816  161.9474 C   0  0  0  0  0  0  0  0  0  0  0  0
  130.4936  138.8950  160.7354 O   0  0  0  0  0  0  0  0  0  0  0  0
  130.6156  137.6630  160.0257 C   0  0  0  0  0  0  0  0  0  0  0  0
  128.2311  135.3234  160.4298 C   0  0  0  0  0  0  0  0  0  0  0  0
  127.5563  134.8651  161.5459 C   0  0  0  0  0  0  0  0  0  0  0  0
  126.1779  134.9526  161.6045 C   0  0  0  0  0  0  0  0  0  0  0  0
  125.4737  135.4899  160.5432 C   0  0  0  0  0  0  0  0  0  0  0  0
  126.1482  135.9434  159.4249 C   0  0  0  0  0  0  0  0  0  0  0  0
  127.5269  135.8600  159.3683 C   0  0  0  0  0  0  0  0  0  0  0  0
  130.4440  133.5546  157.1392 N   0  0  0  0  0  0  0  0  0  0  0  0
  130.7943  134.1953  156.5008 H   0  0  0  0  0  0  0  0  0  0  0  0
  129.8562  131.9232  154.4534 C   0  0  0  0  0  0  0  0  0  0  0  0
  130.1108  131.2630  153.2685 C   0  0  0  0  0  0  0  0  0  0  0  0
  129.2815  128.7170  151.7789 H   0  0  0  0  0  0  0  0  0  0  0  0
  130.4995  127.8140  150.8464 H   0  0  0  0  0  0  0  0  0  0  0  0
  130.4237  127.6387  152.6161 H   0  0  0  0  0  0  0  0  0  0  0  0
  132.3036  129.1109  151.9472 H   0  0  0  0  0  0  0  0  0  0  0  0
  131.1614  130.1891  151.1100 H   0  0  0  0  0  0  0  0  0  0  0  0
  132.3519  128.9893  154.3676 H   0  0  0  0  0  0  0  0  0  0  0  0
  131.9192  130.1609  156.4871 H   0  0  0  0  0  0  0  0  0  0  0  0
  129.4818  130.6388  158.1741 H   0  0  0  0  0  0  0  0  0  0  0  0
  130.4824  135.8346  158.4743 H   0  0  0  0  0  0  0  0  0  0  0  0
  130.4424  135.7310  162.8855 H   0  0  0  0  0  0  0  0  0  0  0  0
  131.8291  137.0240  164.6289 H   0  0  0  0  0  0  0  0  0  0  0  0
  132.7655  139.1607  165.4177 H   0  0  0  0  0  0  0  0  0  0  0  0
  132.6495  141.1626  163.9974 H   0  0  0  0  0  0  0  0  0  0  0  0
  131.5844  141.0584  161.7818 H   0  0  0  0  0  0  0  0  0  0  0  0
  131.6271  137.5763  159.6289 H   0  0  0  0  0  0  0  0  0  0  0  0
  129.9050  137.6533  159.1992 H   0  0  0  0  0  0  0  0  0  0  0  0
  128.1061  134.4419  162.3735 H   0  0  0  0  0  0  0  0  0  0  0  0
  125.6510  134.5986  162.4782 H   0  0  0  0  0  0  0  0  0  0  0  0
  124.3967  135.5558  160.5879 H   0  0  0  0  0  0  0  0  0  0  0  0
  125.5981  136.3633  158.5958 H   0  0  0  0  0  0  0  0  0  0  0  0
  128.0538  136.2142  158.4946 H   0  0  0  0  0  0  0  0  0  0  0  0
  129.1538  132.7434  154.4756 H   0  0  0  0  0  0  0  0  0  0  0  0
  129.6074  131.5677  152.3629 H   0  0  0  0  0  0  0  0  0  0  0  0
  1  2  1  0
  1 35  1  0
  1 36  1  0
  1 37  1  0
  2  3  1  0
  2 38  1  0
  2 39  1  0
  3 34  2  0
  3  4  1  0
  4  5  2  0
  4 40  1  0
  5  6  1  0
  5 41  1  0
  6  7  1  0
  6 33  2  0
  7 31  1  0
  7  8  2  0
  8  9  1  0
  8 42  1  0
  9 10  1  0
  9 11  1  0
 11 12  1  0
 11 31  2  0
 12 13  1  0
 12 43  1  0
 13 14  1  1
 13 15  1  0
 13 25  1  0
 15 24  1  0
 15 16  2  0
 16 17  1  0
 16 44  1  0
 17 22  2  0
 17 18  1  0
 18 19  2  0
 18 45  1  0
 19 20  1  0
 19 46  1  0
 20 21  2  0
 20 47  1  0
 21 22  1  0
 21 48  1  0
 22 23  1  0
 23 24  1  0
 24 49  1  0
 24 50  1  0
 25 30  1  0
 25 26  2  0
 26 27  1  0
 26 51  1  0
 27 28  2  0
 27 52  1  0
 28 29  1  0
 28 53  1  0
 29 30  2  0
 29 54  1  0
 30 55  1  0
 31 32  1  0
 33 34  1  0
 33 56  1  0
 34 57  1  0
M  CHG  1  31   1
M  END
>  <DOCK_score>  (1) 
-59.305641

>  <SMILES>  (1) 
CCc1ccc(-c2c[nH]c(N[C@@H](C3=Cc4ccccc4OC3)c3ccccc3)[nH+]2)cc1

$$$$
