Cc1ccc(C2=CC[N@H+](Cc3c[nH]c4cc(-c5ccccc5)ccc34)CC2)cc1
     RDKit          3D

 56 60  0  0  1  0  0  0  0  0999 V2000
  137.1411  140.9437  161.1333 C   0  0  0  0  0  0  0  0  0  0  0  0
  136.0298  139.9446  160.9382 C   0  0  0  0  0  0  0  0  0  0  0  0
  135.8316  138.9442  161.8726 C   0  0  0  0  0  0  0  0  0  0  0  0
  134.8162  138.0262  161.6999 C   0  0  0  0  0  0  0  0  0  0  0  0
  133.9882  138.1086  160.5799 C   0  0  0  0  0  0  0  0  0  0  0  0
  132.8983  137.1285  160.3887 C   0  0  0  0  0  0  0  0  0  0  0  0
  131.6587  137.5638  160.3199 C   0  0  0  0  0  0  0  0  0  0  0  0
  130.4816  136.6507  160.1329 C   0  0  0  0  0  0  0  0  0  0  0  0
  130.9210  135.3478  159.6199 N   0  0  2  0  0  0  0  0  0  0  0  0
  131.2740  135.4548  158.6807 H   0  0  0  0  0  0  0  0  0  0  0  0
  129.7873  134.4136  159.6155 C   0  0  0  0  0  0  0  0  0  0  0  0
  130.2404  133.0764  159.0883 C   0  0  0  0  0  0  0  0  0  0  0  0
  130.7325  132.0579  159.8121 C   0  0  0  0  0  0  0  0  0  0  0  0
  131.0363  131.0063  158.9915 N   0  0  0  0  0  0  0  0  0  0  0  0
  131.4050  130.1586  159.2852 H   0  0  0  0  0  0  0  0  0  0  0  0
  130.7393  131.3306  157.6860 C   0  0  0  0  0  0  0  0  0  0  0  0
  130.8501  130.6442  156.4837 C   0  0  0  0  0  0  0  0  0  0  0  0
  130.4556  131.2585  155.3020 C   0  0  0  0  0  0  0  0  0  0  0  0
  130.5728  130.5280  154.0165 C   0  0  0  0  0  0  0  0  0  0  0  0
  129.6821  130.7927  152.9777 C   0  0  0  0  0  0  0  0  0  0  0  0
  129.7962  130.1102  151.7836 C   0  0  0  0  0  0  0  0  0  0  0  0
  130.7924  129.1652  151.6164 C   0  0  0  0  0  0  0  0  0  0  0  0
  131.6759  128.8945  152.6459 C   0  0  0  0  0  0  0  0  0  0  0  0
  131.5743  129.5743  153.8426 C   0  0  0  0  0  0  0  0  0  0  0  0
  129.9536  132.5646  155.3163 C   0  0  0  0  0  0  0  0  0  0  0  0
  129.8350  133.2454  156.4919 C   0  0  0  0  0  0  0  0  0  0  0  0
  130.2277  132.6419  157.6900 C   0  0  0  0  0  0  0  0  0  0  0  0
  131.9864  134.8251  160.4899 C   0  0  0  0  0  0  0  0  0  0  0  0
  133.2461  135.6693  160.2804 C   0  0  0  0  0  0  0  0  0  0  0  0
  134.1969  139.1167  159.6380 C   0  0  0  0  0  0  0  0  0  0  0  0
  135.2126  140.0317  159.8251 C   0  0  0  0  0  0  0  0  0  0  0  0
  138.0504  140.5729  160.6606 H   0  0  0  0  0  0  0  0  0  0  0  0
  136.8582  141.8945  160.6802 H   0  0  0  0  0  0  0  0  0  0  0  0
  137.3176  141.0875  162.1988 H   0  0  0  0  0  0  0  0  0  0  0  0
  136.4734  138.8812  162.7388 H   0  0  0  0  0  0  0  0  0  0  0  0
  134.6628  137.2453  162.4301 H   0  0  0  0  0  0  0  0  0  0  0  0
  131.4798  138.6258  160.4014 H   0  0  0  0  0  0  0  0  0  0  0  0
  129.7851  137.1004  159.4254 H   0  0  0  0  0  0  0  0  0  0  0  0
  129.9788  136.5104  161.0898 H   0  0  0  0  0  0  0  0  0  0  0  0
  128.9953  134.8062  158.9777 H   0  0  0  0  0  0  0  0  0  0  0  0
  129.4105  134.2949  160.6313 H   0  0  0  0  0  0  0  0  0  0  0  0
  130.8685  132.0676  160.8835 H   0  0  0  0  0  0  0  0  0  0  0  0
  131.2415  129.6378  156.4676 H   0  0  0  0  0  0  0  0  0  0  0  0
  128.9040  131.5304  153.1070 H   0  0  0  0  0  0  0  0  0  0  0  0
  129.1065  130.3146  150.9780 H   0  0  0  0  0  0  0  0  0  0  0  0
  130.8779  128.6335  150.6803 H   0  0  0  0  0  0  0  0  0  0  0  0
  132.4492  128.1528  152.5114 H   0  0  0  0  0  0  0  0  0  0  0  0
  132.2672  129.3651  154.6442 H   0  0  0  0  0  0  0  0  0  0  0  0
  129.6539  133.0345  154.3913 H   0  0  0  0  0  0  0  0  0  0  0  0
  129.4429  134.2516  156.4965 H   0  0  0  0  0  0  0  0  0  0  0  0
  131.6723  134.8888  161.5316 H   0  0  0  0  0  0  0  0  0  0  0  0
  132.1942  133.7870  160.2305 H   0  0  0  0  0  0  0  0  0  0  0  0
  133.9844  135.4146  161.0408 H   0  0  0  0  0  0  0  0  0  0  0  0
  133.6584  135.4671  159.2919 H   0  0  0  0  0  0  0  0  0  0  0  0
  133.5623  139.1833  158.7668 H   0  0  0  0  0  0  0  0  0  0  0  0
  135.3727  140.8150  159.0990 H   0  0  0  0  0  0  0  0  0  0  0  0
  1  2  1  0
  1 32  1  0
  1 33  1  0
  1 34  1  0
  2 31  2  0
  2  3  1  0
  3  4  2  0
  3 35  1  0
  4  5  1  0
  4 36  1  0
  5  6  1  0
  5 30  2  0
  6 29  1  0
  6  7  2  0
  7  8  1  0
  7 37  1  0
  8  9  1  0
  8 38  1  0
  8 39  1  0
  9 10  1  6
  9 11  1  0
  9 28  1  0
 11 12  1  0
 11 40  1  0
 11 41  1  0
 12 27  1  0
 12 13  2  0
 13 14  1  0
 13 42  1  0
 14 15  1  0
 14 16  1  0
 16 27  2  0
 16 17  1  0
 17 18  2  0
 17 43  1  0
 18 19  1  0
 18 25  1  0
 19 24  1  0
 19 20  2  0
 20 21  1  0
 20 44  1  0
 21 22  2  0
 21 45  1  0
 22 23  1  0
 22 46  1  0
 23 24  2  0
 23 47  1  0
 24 48  1  0
 25 26  2  0
 25 49  1  0
 26 27  1  0
 26 50  1  0
 28 29  1  0
 28 51  1  0
 28 52  1  0
 29 53  1  0
 29 54  1  0
 30 31  1  0
 30 55  1  0
 31 56  1  0
M  CHG  1   9   1
M  END
>  <DOCK_score>  (1) 
-57.318069

>  <SMILES>  (1) 
Cc1ccc(C2=CC[N@H+](Cc3c[nH]c4cc(-c5ccccc5)ccc34)CC2)cc1

$$$$
