Nc1ccc(-c2c[nH]c(Nc3ccc(Cl)c(Nc4ccc(Cl)c(-c5ccccc5)c4)c3)[nH+]2)cc1
     RDKit          3D

 56 60  0  0  1  0  0  0  0  0999 V2000
  131.6667  129.6393  151.8979 N   0  0  0  0  0  0  0  0  0  0  0  0
  131.2747  130.3681  153.0234 C   0  0  0  0  0  0  0  0  0  0  0  0
  130.7180  131.6325  152.8719 C   0  0  0  0  0  0  0  0  0  0  0  0
  130.3308  132.3538  153.9816 C   0  0  0  0  0  0  0  0  0  0  0  0
  130.4974  131.8136  155.2558 C   0  0  0  0  0  0  0  0  0  0  0  0
  130.0819  132.5880  156.4510 C   0  0  0  0  0  0  0  0  0  0  0  0
  129.6376  132.0697  157.6229 C   0  0  0  0  0  0  0  0  0  0  0  0
  129.3647  133.1323  158.4507 N   0  0  0  0  0  0  0  0  0  0  0  0
  129.0304  133.0813  159.3598 H   0  0  0  0  0  0  0  0  0  0  0  0
  129.6507  134.2691  157.7592 C   0  0  0  0  0  0  0  0  0  0  0  0
  129.5121  135.5615  158.2385 N   0  0  0  0  0  0  0  0  0  0  0  0
  129.0425  135.7788  159.5375 C   0  0  0  0  0  0  0  0  0  0  0  0
  127.7815  135.3257  159.9061 C   0  0  0  0  0  0  0  0  0  0  0  0
  127.3161  135.5402  161.1890 C   0  0  0  0  0  0  0  0  0  0  0  0
  128.1026  136.2062  162.1104 C   0  0  0  0  0  0  0  0  0  0  0  0
  127.5131  136.4744  163.7210 Cl  0  0  0  0  0  0  0  0  0  0  0  0
  129.3654  136.6615  161.7480 C   0  0  0  0  0  0  0  0  0  0  0  0
  130.1606  137.3349  162.6797 N   0  0  0  0  0  0  0  0  0  0  0  0
  131.5536  137.2492  162.6013 C   0  0  0  0  0  0  0  0  0  0  0  0
  132.2274  136.2420  163.2827 C   0  0  0  0  0  0  0  0  0  0  0  0
  133.6037  136.1507  163.2035 C   0  0  0  0  0  0  0  0  0  0  0  0
  134.3190  137.0663  162.4552 C   0  0  0  0  0  0  0  0  0  0  0  0
  136.0488  136.9509  162.3645 Cl  0  0  0  0  0  0  0  0  0  0  0  0
  133.6514  138.0831  161.7732 C   0  0  0  0  0  0  0  0  0  0  0  0
  134.4176  139.0677  160.9698 C   0  0  0  0  0  0  0  0  0  0  0  0
  134.8717  140.2470  161.5567 C   0  0  0  0  0  0  0  0  0  0  0  0
  135.5884  141.1569  160.8061 C   0  0  0  0  0  0  0  0  0  0  0  0
  135.8463  140.9050  159.4708 C   0  0  0  0  0  0  0  0  0  0  0  0
  135.3934  139.7383  158.8816 C   0  0  0  0  0  0  0  0  0  0  0  0
  134.6808  138.8189  159.6244 C   0  0  0  0  0  0  0  0  0  0  0  0
  132.2639  138.1721  161.8485 C   0  0  0  0  0  0  0  0  0  0  0  0
  129.8330  136.4520  160.4582 C   0  0  0  0  0  0  0  0  0  0  0  0
  130.0736  133.9396  156.5630 N   0  0  0  0  0  0  0  0  0  0  0  0
  130.3400  134.5630  155.8692 H   0  0  0  0  0  0  0  0  0  0  0  0
  131.0603  130.5472  155.4055 C   0  0  0  0  0  0  0  0  0  0  0  0
  131.4413  129.8273  154.2928 C   0  0  0  0  0  0  0  0  0  0  0  0
  131.5504  130.0158  151.0116 H   0  0  0  0  0  0  0  0  0  0  0  0
  132.0552  128.7567  152.0027 H   0  0  0  0  0  0  0  0  0  0  0  0
  130.5892  132.0506  151.8845 H   0  0  0  0  0  0  0  0  0  0  0  0
  129.8984  133.3364  153.8634 H   0  0  0  0  0  0  0  0  0  0  0  0
  129.5206  131.0226  157.8600 H   0  0  0  0  0  0  0  0  0  0  0  0
  129.7410  136.3156  157.6730 H   0  0  0  0  0  0  0  0  0  0  0  0
  127.1645  134.8054  159.1884 H   0  0  0  0  0  0  0  0  0  0  0  0
  126.3355  135.1872  161.4726 H   0  0  0  0  0  0  0  0  0  0  0  0
  129.7457  137.8616  163.3807 H   0  0  0  0  0  0  0  0  0  0  0  0
  131.6732  135.5267  163.8721 H   0  0  0  0  0  0  0  0  0  0  0  0
  134.1223  135.3641  163.7314 H   0  0  0  0  0  0  0  0  0  0  0  0
  134.6670  140.4468  162.5983 H   0  0  0  0  0  0  0  0  0  0  0  0
  135.9444  142.0694  161.2611 H   0  0  0  0  0  0  0  0  0  0  0  0
  136.4038  141.6218  158.8860 H   0  0  0  0  0  0  0  0  0  0  0  0
  135.5977  139.5466  157.8386 H   0  0  0  0  0  0  0  0  0  0  0  0
  134.3279  137.9080  159.1635 H   0  0  0  0  0  0  0  0  0  0  0  0
  131.7424  138.9581  161.3224 H   0  0  0  0  0  0  0  0  0  0  0  0
  130.8115  136.8090  160.1726 H   0  0  0  0  0  0  0  0  0  0  0  0
  131.1941  130.1285  156.3920 H   0  0  0  0  0  0  0  0  0  0  0  0
  131.8736  128.8443  154.4080 H   0  0  0  0  0  0  0  0  0  0  0  0
  1  2  1  0
  1 37  1  0
  1 38  1  0
  2 36  2  0
  2  3  1  0
  3  4  2  0
  3 39  1  0
  4  5  1  0
  4 40  1  0
  5  6  1  0
  5 35  2  0
  6 33  1  0
  6  7  2  0
  7  8  1  0
  7 41  1  0
  8  9  1  0
  8 10  1  0
 10 11  1  0
 10 33  2  0
 11 12  1  0
 11 42  1  0
 12 32  1  0
 12 13  2  0
 13 14  1  0
 13 43  1  0
 14 15  2  0
 14 44  1  0
 15 16  1  0
 15 17  1  0
 17 18  1  0
 17 32  2  0
 18 19  1  0
 18 45  1  0
 19 31  1  0
 19 20  2  0
 20 21  1  0
 20 46  1  0
 21 22  2  0
 21 47  1  0
 22 23  1  0
 22 24  1  0
 24 25  1  0
 24 31  2  0
 25 30  1  0
 25 26  2  0
 26 27  1  0
 26 48  1  0
 27 28  2  0
 27 49  1  0
 28 29  1  0
 28 50  1  0
 29 30  2  0
 29 51  1  0
 30 52  1  0
 31 53  1  0
 32 54  1  0
 33 34  1  0
 35 36  1  0
 35 55  1  0
 36 56  1  0
M  CHG  1  33   1
M  END
>  <DOCK_score>  (1) 
-59.934025

>  <SMILES>  (1) 
Nc1ccc(-c2c[nH]c(Nc3ccc(Cl)c(Nc4ccc(Cl)c(-c5ccccc5)c4)c3)[nH+]2)cc1

$$$$
