CCc1ccc(-c2c[nH]c(N[C@@H](CSC)c3ccccc3)[nH+]2)cc1
     RDKit          3D

 48 50  0  0  1  0  0  0  0  0999 V2000
  130.5806  128.4528  151.6725 C   0  0  0  0  0  0  0  0  0  0  0  0
  131.6615  129.4751  152.0287 C   0  0  0  0  0  0  0  0  0  0  0  0
  131.2698  130.2018  153.2895 C   0  0  0  0  0  0  0  0  0  0  0  0
  131.6596  129.7056  154.5200 C   0  0  0  0  0  0  0  0  0  0  0  0
  131.3079  130.3695  155.6776 C   0  0  0  0  0  0  0  0  0  0  0  0
  130.5494  131.5366  155.6056 C   0  0  0  0  0  0  0  0  0  0  0  0
  130.1640  132.2518  156.8466 C   0  0  0  0  0  0  0  0  0  0  0  0
  129.4274  131.7427  157.8651 C   0  0  0  0  0  0  0  0  0  0  0  0
  129.3088  132.7359  158.8066 N   0  0  0  0  0  0  0  0  0  0  0  0
  128.8359  132.6734  159.6512 H   0  0  0  0  0  0  0  0  0  0  0  0
  129.9771  133.8240  158.3355 C   0  0  0  0  0  0  0  0  0  0  0  0
  130.0979  135.0400  158.9860 N   0  0  0  0  0  0  0  0  0  0  0  0
  129.0365  135.4979  159.8859 C   0  0  1  0  0  0  0  0  0  0  0  0
  128.9101  134.7781  160.6946 H   0  0  0  0  0  0  0  0  0  0  0  0
  129.4157  136.8602  160.4703 C   0  0  0  0  0  0  0  0  0  0  0  0
  130.9693  136.7101  161.3947 S   0  0  0  0  0  0  0  0  0  0  0  0
  131.2484  138.3972  162.0002 C   0  0  0  0  0  0  0  0  0  0  0  0
  127.7458  135.6226  159.1179 C   0  0  0  0  0  0  0  0  0  0  0  0
  126.5378  135.4192  159.7585 C   0  0  0  0  0  0  0  0  0  0  0  0
  125.3539  135.5378  159.0549 C   0  0  0  0  0  0  0  0  0  0  0  0
  125.3782  135.8509  157.7089 C   0  0  0  0  0  0  0  0  0  0  0  0
  126.5863  136.0491  157.0670 C   0  0  0  0  0  0  0  0  0  0  0  0
  127.7701  135.9347  157.7715 C   0  0  0  0  0  0  0  0  0  0  0  0
  130.4909  133.5291  157.1664 N   0  0  0  0  0  0  0  0  0  0  0  0
  131.0190  134.1290  156.6167 H   0  0  0  0  0  0  0  0  0  0  0  0
  130.1549  132.0294  154.3630 C   0  0  0  0  0  0  0  0  0  0  0  0
  130.5168  131.3601  153.2117 C   0  0  0  0  0  0  0  0  0  0  0  0
  130.8640  127.9272  150.7606 H   0  0  0  0  0  0  0  0  0  0  0  0
  130.4762  127.7362  152.4873 H   0  0  0  0  0  0  0  0  0  0  0  0
  129.6319  128.9661  151.5163 H   0  0  0  0  0  0  0  0  0  0  0  0
  132.6102  128.9623  152.1847 H   0  0  0  0  0  0  0  0  0  0  0  0
  131.7658  130.1922  151.2136 H   0  0  0  0  0  0  0  0  0  0  0  0
  132.2437  128.7988  154.5750 H   0  0  0  0  0  0  0  0  0  0  0  0
  131.6167  129.9834  156.6379 H   0  0  0  0  0  0  0  0  0  0  0  0
  129.0130  130.7471  157.9245 H   0  0  0  0  0  0  0  0  0  0  0  0
  130.8853  135.5888  158.8460 H   0  0  0  0  0  0  0  0  0  0  0  0
  129.5422  137.5799  159.6616 H   0  0  0  0  0  0  0  0  0  0  0  0
  128.6260  137.2009  161.1400 H   0  0  0  0  0  0  0  0  0  0  0  0
  130.4127  138.6995  162.6314 H   0  0  0  0  0  0  0  0  0  0  0  0
  132.1711  138.4272  162.5797 H   0  0  0  0  0  0  0  0  0  0  0  0
  131.3289  139.0785  161.1533 H   0  0  0  0  0  0  0  0  0  0  0  0
  126.5191  135.1710  160.8094 H   0  0  0  0  0  0  0  0  0  0  0  0
  124.4100  135.3833  159.5565 H   0  0  0  0  0  0  0  0  0  0  0  0
  124.4532  135.9409  157.1586 H   0  0  0  0  0  0  0  0  0  0  0  0
  126.6052  136.2938  156.0152 H   0  0  0  0  0  0  0  0  0  0  0  0
  128.7142  136.0896  157.2701 H   0  0  0  0  0  0  0  0  0  0  0  0
  129.5668  132.9331  154.3012 H   0  0  0  0  0  0  0  0  0  0  0  0
  130.2113  131.7408  152.2483 H   0  0  0  0  0  0  0  0  0  0  0  0
  1  2  1  0
  1 28  1  0
  1 29  1  0
  1 30  1  0
  2  3  1  0
  2 31  1  0
  2 32  1  0
  3 27  2  0
  3  4  1  0
  4  5  2  0
  4 33  1  0
  5  6  1  0
  5 34  1  0
  6  7  1  0
  6 26  2  0
  7 24  1  0
  7  8  2  0
  8  9  1  0
  8 35  1  0
  9 10  1  0
  9 11  1  0
 11 12  1  0
 11 24  2  0
 12 13  1  0
 12 36  1  0
 13 14  1  1
 13 15  1  0
 13 18  1  0
 15 16  1  0
 15 37  1  0
 15 38  1  0
 16 17  1  0
 17 39  1  0
 17 40  1  0
 17 41  1  0
 18 23  1  0
 18 19  2  0
 19 20  1  0
 19 42  1  0
 20 21  2  0
 20 43  1  0
 21 22  1  0
 21 44  1  0
 22 23  2  0
 22 45  1  0
 23 46  1  0
 24 25  1  0
 26 27  1  0
 26 47  1  0
 27 48  1  0
M  CHG  1  24   1
M  END
>  <DOCK_score>  (1) 
-58.582645

>  <SMILES>  (1) 
CCc1ccc(-c2c[nH]c(N[C@@H](CSC)c3ccccc3)[nH+]2)cc1

$$$$
