CCc1ccc(-c2c[nH]c(N[C@H](c3ccccc3O)c3cccc(CCl)c3C)[nH+]2)cc1
     RDKit          3D

 58 61  0  0  1  0  0  0  0  0999 V2000
  130.1251  129.0684  151.2951 C   0  0  0  0  0  0  0  0  0  0  0  0
  131.4281  129.6570  151.8399 C   0  0  0  0  0  0  0  0  0  0  0  0
  131.1571  130.3490  153.1510 C   0  0  0  0  0  0  0  0  0  0  0  0
  131.2510  129.6414  154.3360 C   0  0  0  0  0  0  0  0  0  0  0  0
  131.0095  130.2713  155.5398 C   0  0  0  0  0  0  0  0  0  0  0  0
  130.6595  131.6203  155.5595 C   0  0  0  0  0  0  0  0  0  0  0  0
  130.3934  132.3016  156.8500 C   0  0  0  0  0  0  0  0  0  0  0  0
  129.9031  131.7206  157.9730 C   0  0  0  0  0  0  0  0  0  0  0  0
  129.8133  132.7067  158.9252 N   0  0  0  0  0  0  0  0  0  0  0  0
  129.4957  132.5990  159.8354 H   0  0  0  0  0  0  0  0  0  0  0  0
  130.2516  133.8624  158.3558 C   0  0  0  0  0  0  0  0  0  0  0  0
  130.3209  135.0946  158.9829 N   0  0  0  0  0  0  0  0  0  0  0  0
  129.9004  135.2303  160.3796 C   0  0  2  0  0  0  0  0  0  0  0  0
  130.2353  134.3614  160.9461 H   0  0  0  0  0  0  0  0  0  0  0  0
  128.3977  135.3237  160.4450 C   0  0  0  0  0  0  0  0  0  0  0  0
  127.6934  135.8826  159.3959 C   0  0  0  0  0  0  0  0  0  0  0  0
  126.3144  135.9637  159.4530 C   0  0  0  0  0  0  0  0  0  0  0  0
  125.6374  135.4963  160.5646 C   0  0  0  0  0  0  0  0  0  0  0  0
  126.3373  134.9413  161.6182 C   0  0  0  0  0  0  0  0  0  0  0  0
  127.7208  134.8536  161.5608 C   0  0  0  0  0  0  0  0  0  0  0  0
  128.4116  134.3076  162.5960 O   0  0  0  0  0  0  0  0  0  0  0  0
  130.5072  136.4780  160.9681 C   0  0  0  0  0  0  0  0  0  0  0  0
  129.6896  137.4793  161.4583 C   0  0  0  0  0  0  0  0  0  0  0  0
  130.2462  138.6220  162.0015 C   0  0  0  0  0  0  0  0  0  0  0  0
  131.6203  138.7671  162.0471 C   0  0  0  0  0  0  0  0  0  0  0  0
  132.4376  137.7684  161.5521 C   0  0  0  0  0  0  0  0  0  0  0  0
  133.9354  137.9267  161.6013 C   0  0  0  0  0  0  0  0  0  0  0  0
  134.5603  137.2533  163.1527 Cl  0  0  0  0  0  0  0  0  0  0  0  0
  131.8809  136.6237  161.0124 C   0  0  0  0  0  0  0  0  0  0  0  0
  132.7719  135.5347  160.4727 C   0  0  0  0  0  0  0  0  0  0  0  0
  130.6030  133.6152  157.1175 N   0  0  0  0  0  0  0  0  0  0  0  0
  130.9542  134.2675  156.4915 H   0  0  0  0  0  0  0  0  0  0  0  0
  130.5609  132.3269  154.3621 C   0  0  0  0  0  0  0  0  0  0  0  0
  130.8101  131.6880  153.1645 C   0  0  0  0  0  0  0  0  0  0  0  0
  129.7245  128.3493  152.0096 H   0  0  0  0  0  0  0  0  0  0  0  0
  129.4015  129.8687  151.1407 H   0  0  0  0  0  0  0  0  0  0  0  0
  130.3211  128.5679  150.3468 H   0  0  0  0  0  0  0  0  0  0  0  0
  132.1517  128.8566  151.9943 H   0  0  0  0  0  0  0  0  0  0  0  0
  131.8286  130.3761  151.1254 H   0  0  0  0  0  0  0  0  0  0  0  0
  131.5175  128.5950  154.3192 H   0  0  0  0  0  0  0  0  0  0  0  0
  131.0878  129.7192  156.4647 H   0  0  0  0  0  0  0  0  0  0  0  0
  129.6344  130.6817  158.0951 H   0  0  0  0  0  0  0  0  0  0  0  0
  130.6480  135.8682  158.4975 H   0  0  0  0  0  0  0  0  0  0  0  0
  128.2202  136.2525  158.5288 H   0  0  0  0  0  0  0  0  0  0  0  0
  125.7654  136.3974  158.6302 H   0  0  0  0  0  0  0  0  0  0  0  0
  124.5605  135.5649  160.6087 H   0  0  0  0  0  0  0  0  0  0  0  0
  125.8080  134.5758  162.4857 H   0  0  0  0  0  0  0  0  0  0  0  0
  127.8536  134.0091  163.3272 H   0  0  0  0  0  0  0  0  0  0  0  0
  128.6162  137.3674  161.4196 H   0  0  0  0  0  0  0  0  0  0  0  0
  129.6077  139.4026  162.3878 H   0  0  0  0  0  0  0  0  0  0  0  0
  132.0552  139.6610  162.4692 H   0  0  0  0  0  0  0  0  0  0  0  0
  134.3851  137.3908  160.7654 H   0  0  0  0  0  0  0  0  0  0  0  0
  134.1914  138.9842  161.5349 H   0  0  0  0  0  0  0  0  0  0  0  0
  133.0490  135.7681  159.4446 H   0  0  0  0  0  0  0  0  0  0  0  0
  133.6714  135.4647  161.0844 H   0  0  0  0  0  0  0  0  0  0  0  0
  132.2399  134.5838  160.4987 H   0  0  0  0  0  0  0  0  0  0  0  0
  130.2897  133.3722  154.3715 H   0  0  0  0  0  0  0  0  0  0  0  0
  130.7343  132.2345  152.2360 H   0  0  0  0  0  0  0  0  0  0  0  0
  1  2  1  0
  1 35  1  0
  1 36  1  0
  1 37  1  0
  2  3  1  0
  2 38  1  0
  2 39  1  0
  3 34  2  0
  3  4  1  0
  4  5  2  0
  4 40  1  0
  5  6  1  0
  5 41  1  0
  6  7  1  0
  6 33  2  0
  7 31  1  0
  7  8  2  0
  8  9  1  0
  8 42  1  0
  9 10  1  0
  9 11  1  0
 11 12  1  0
 11 31  2  0
 12 13  1  0
 12 43  1  0
 13 14  1  1
 13 15  1  0
 13 22  1  0
 15 20  1  0
 15 16  2  0
 16 17  1  0
 16 44  1  0
 17 18  2  0
 17 45  1  0
 18 19  1  0
 18 46  1  0
 19 20  2  0
 19 47  1  0
 20 21  1  0
 21 48  1  0
 22 29  1  0
 22 23  2  0
 23 24  1  0
 23 49  1  0
 24 25  2  0
 24 50  1  0
 25 26  1  0
 25 51  1  0
 26 27  1  0
 26 29  2  0
 27 28  1  0
 27 52  1  0
 27 53  1  0
 29 30  1  0
 30 54  1  0
 30 55  1  0
 30 56  1  0
 31 32  1  0
 33 34  1  0
 33 57  1  0
 34 58  1  0
M  CHG  1  31   1
M  END
>  <DOCK_score>  (1) 
-59.088799

>  <SMILES>  (1) 
CCc1ccc(-c2c[nH]c(N[C@H](c3ccccc3O)c3cccc(CCl)c3C)[nH+]2)cc1

$$$$
