Brc1ccc(-c2c[nH]c(Nc3ccc(Nc4ccccc4)cc3)[nH+]2)cc1
     RDKit          3D

 44 47  0  0  1  0  0  0  0  0999 V2000
  131.1446  129.2912  151.6577 Br  0  0  0  0  0  0  0  0  0  0  0  0
  130.8244  130.2226  153.2719 C   0  0  0  0  0  0  0  0  0  0  0  0
  129.9478  131.2939  153.2878 C   0  0  0  0  0  0  0  0  0  0  0  0
  129.7107  131.9770  154.4632 C   0  0  0  0  0  0  0  0  0  0  0  0
  130.3551  131.5862  155.6356 C   0  0  0  0  0  0  0  0  0  0  0  0
  130.1039  132.3168  156.9019 C   0  0  0  0  0  0  0  0  0  0  0  0
  129.5979  131.7859  158.0428 C   0  0  0  0  0  0  0  0  0  0  0  0
  129.5358  132.8038  158.9628 N   0  0  0  0  0  0  0  0  0  0  0  0
  129.2188  132.7335  159.8769 H   0  0  0  0  0  0  0  0  0  0  0  0
  129.9980  133.9302  158.3541 C   0  0  0  0  0  0  0  0  0  0  0  0
  130.0970  135.1813  158.9399 N   0  0  0  0  0  0  0  0  0  0  0  0
  129.1995  135.5554  159.9476 C   0  0  0  0  0  0  0  0  0  0  0  0
  129.6001  136.4392  160.9412 C   0  0  0  0  0  0  0  0  0  0  0  0
  128.7134  136.8126  161.9315 C   0  0  0  0  0  0  0  0  0  0  0  0
  127.4224  136.3003  161.9369 C   0  0  0  0  0  0  0  0  0  0  0  0
  126.5237  136.6785  162.9411 N   0  0  0  0  0  0  0  0  0  0  0  0
  126.8214  136.4156  164.2802 C   0  0  0  0  0  0  0  0  0  0  0  0
  126.3481  137.2593  165.2775 C   0  0  0  0  0  0  0  0  0  0  0  0
  126.6414  136.9940  166.6007 C   0  0  0  0  0  0  0  0  0  0  0  0
  127.4128  135.8953  166.9329 C   0  0  0  0  0  0  0  0  0  0  0  0
  127.8895  135.0562  165.9424 C   0  0  0  0  0  0  0  0  0  0  0  0
  127.5966  135.3130  164.6176 C   0  0  0  0  0  0  0  0  0  0  0  0
  127.0234  135.4125  160.9460 C   0  0  0  0  0  0  0  0  0  0  0  0
  127.9102  135.0392  159.9559 C   0  0  0  0  0  0  0  0  0  0  0  0
  130.3394  133.6340  157.1236 N   0  0  0  0  0  0  0  0  0  0  0  0
  130.7030  134.2573  156.4752 H   0  0  0  0  0  0  0  0  0  0  0  0
  131.2407  130.5102  155.6129 C   0  0  0  0  0  0  0  0  0  0  0  0
  131.4668  129.8305  154.4335 C   0  0  0  0  0  0  0  0  0  0  0  0
  129.4491  131.5959  152.3787 H   0  0  0  0  0  0  0  0  0  0  0  0
  129.0266  132.8126  154.4745 H   0  0  0  0  0  0  0  0  0  0  0  0
  129.3041  130.7585  158.1991 H   0  0  0  0  0  0  0  0  0  0  0  0
  130.7879  135.7983  158.6523 H   0  0  0  0  0  0  0  0  0  0  0  0
  130.6038  136.8378  160.9368 H   0  0  0  0  0  0  0  0  0  0  0  0
  129.0237  137.5033  162.7017 H   0  0  0  0  0  0  0  0  0  0  0  0
  125.6939  137.1233  162.7069 H   0  0  0  0  0  0  0  0  0  0  0  0
  125.7488  138.1195  165.0184 H   0  0  0  0  0  0  0  0  0  0  0  0
  126.2712  137.6477  167.3766 H   0  0  0  0  0  0  0  0  0  0  0  0
  127.6437  135.6925  167.9682 H   0  0  0  0  0  0  0  0  0  0  0  0
  128.4920  134.1993  166.2054 H   0  0  0  0  0  0  0  0  0  0  0  0
  127.9698  134.6577  163.8445 H   0  0  0  0  0  0  0  0  0  0  0  0
  126.0195  135.0145  160.9500 H   0  0  0  0  0  0  0  0  0  0  0  0
  127.5999  134.3488  159.1855 H   0  0  0  0  0  0  0  0  0  0  0  0
  131.7461  130.2066  156.5177 H   0  0  0  0  0  0  0  0  0  0  0  0
  132.1500  128.9943  154.4156 H   0  0  0  0  0  0  0  0  0  0  0  0
  1  2  1  0
  2 28  2  0
  2  3  1  0
  3  4  2  0
  3 29  1  0
  4  5  1  0
  4 30  1  0
  5  6  1  0
  5 27  2  0
  6 25  1  0
  6  7  2  0
  7  8  1  0
  7 31  1  0
  8  9  1  0
  8 10  1  0
 10 11  1  0
 10 25  2  0
 11 12  1  0
 11 32  1  0
 12 24  1  0
 12 13  2  0
 13 14  1  0
 13 33  1  0
 14 15  2  0
 14 34  1  0
 15 16  1  0
 15 23  1  0
 16 17  1  0
 16 35  1  0
 17 22  1  0
 17 18  2  0
 18 19  1  0
 18 36  1  0
 19 20  2  0
 19 37  1  0
 20 21  1  0
 20 38  1  0
 21 22  2  0
 21 39  1  0
 22 40  1  0
 23 24  2  0
 23 41  1  0
 24 42  1  0
 25 26  1  0
 27 28  1  0
 27 43  1  0
 28 44  1  0
M  CHG  1  25   1
M  END
>  <DOCK_score>  (1) 
-53.584251

>  <SMILES>  (1) 
Brc1ccc(-c2c[nH]c(Nc3ccc(Nc4ccccc4)cc3)[nH+]2)cc1

$$$$
