CCc1ccc([C@H](Nc2[nH]cc(C3=CCC=CC3)[nH+]2)c2cccc(F)c2)cc1
     RDKit          3D

 53 56  0  0  1  0  0  0  0  0999 V2000
  131.6771  140.9213  162.2152 C   0  0  0  0  0  0  0  0  0  0  0  0
  130.3140  140.9501  161.5210 C   0  0  0  0  0  0  0  0  0  0  0  0
  129.9417  139.5557  161.0872 C   0  0  0  0  0  0  0  0  0  0  0  0
  129.2309  138.7329  161.9408 C   0  0  0  0  0  0  0  0  0  0  0  0
  128.8897  137.4538  161.5429 C   0  0  0  0  0  0  0  0  0  0  0  0
  129.2585  136.9977  160.2912 C   0  0  0  0  0  0  0  0  0  0  0  0
  128.8867  135.6032  159.8575 C   0  0  2  0  0  0  0  0  0  0  0  0
  128.8369  134.9524  160.7305 H   0  0  0  0  0  0  0  0  0  0  0  0
  129.8975  135.0954  158.9267 N   0  0  0  0  0  0  0  0  0  0  0  0
  129.7688  133.8258  158.3904 C   0  0  0  0  0  0  0  0  0  0  0  0
  129.1718  132.7650  158.9997 N   0  0  0  0  0  0  0  0  0  0  0  0
  128.7639  132.7633  159.8797 H   0  0  0  0  0  0  0  0  0  0  0  0
  129.2501  131.6990  158.1379 C   0  0  0  0  0  0  0  0  0  0  0  0
  129.9016  132.1361  157.0289 C   0  0  0  0  0  0  0  0  0  0  0  0
  130.2216  131.3296  155.8333 C   0  0  0  0  0  0  0  0  0  0  0  0
  129.7409  131.7085  154.6688 C   0  0  0  0  0  0  0  0  0  0  0  0
  130.0099  130.9561  153.4000 C   0  0  0  0  0  0  0  0  0  0  0  0
  131.2105  130.0699  153.5394 C   0  0  0  0  0  0  0  0  0  0  0  0
  131.6848  129.6966  154.6880 C   0  0  0  0  0  0  0  0  0  0  0  0
  131.0863  130.1154  155.9945 C   0  0  0  0  0  0  0  0  0  0  0  0
  130.2068  133.4463  157.2151 N   0  0  0  0  0  0  0  0  0  0  0  0
  130.6747  134.0107  156.5799 H   0  0  0  0  0  0  0  0  0  0  0  0
  127.5436  135.6310  159.1745 C   0  0  0  0  0  0  0  0  0  0  0  0
  127.4673  135.8275  157.8080 C   0  0  0  0  0  0  0  0  0  0  0  0
  126.2362  135.8536  157.1800 C   0  0  0  0  0  0  0  0  0  0  0  0
  125.0798  135.6834  157.9179 C   0  0  0  0  0  0  0  0  0  0  0  0
  125.1551  135.4866  159.2862 C   0  0  0  0  0  0  0  0  0  0  0  0
  124.0255  135.3197  160.0082 F   0  0  0  0  0  0  0  0  0  0  0  0
  126.3891  135.4607  159.9140 C   0  0  0  0  0  0  0  0  0  0  0  0
  129.9734  137.8190  159.4394 C   0  0  0  0  0  0  0  0  0  0  0  0
  130.3112  139.0994  159.8357 C   0  0  0  0  0  0  0  0  0  0  0  0
  131.9464  141.9298  162.5291 H   0  0  0  0  0  0  0  0  0  0  0  0
  131.6266  140.2705  163.0881 H   0  0  0  0  0  0  0  0  0  0  0  0
  132.4294  140.5431  161.5231 H   0  0  0  0  0  0  0  0  0  0  0  0
  130.3644  141.6009  160.6481 H   0  0  0  0  0  0  0  0  0  0  0  0
  129.5616  141.3283  162.2132 H   0  0  0  0  0  0  0  0  0  0  0  0
  128.9425  139.0893  162.9187 H   0  0  0  0  0  0  0  0  0  0  0  0
  128.3348  136.8107  162.2100 H   0  0  0  0  0  0  0  0  0  0  0  0
  130.6570  135.6488  158.6863 H   0  0  0  0  0  0  0  0  0  0  0  0
  128.8705  130.7027  158.3106 H   0  0  0  0  0  0  0  0  0  0  0  0
  129.1283  132.5968  154.6248 H   0  0  0  0  0  0  0  0  0  0  0  0
  129.1410  130.3448  153.1560 H   0  0  0  0  0  0  0  0  0  0  0  0
  130.1840  131.6677  152.5928 H   0  0  0  0  0  0  0  0  0  0  0  0
  131.7038  129.7261  152.6422 H   0  0  0  0  0  0  0  0  0  0  0  0
  132.5547  129.0567  154.7025 H   0  0  0  0  0  0  0  0  0  0  0  0
  131.8861  130.3376  156.7009 H   0  0  0  0  0  0  0  0  0  0  0  0
  130.4827  129.2963  156.3859 H   0  0  0  0  0  0  0  0  0  0  0  0
  128.3701  135.9650  157.2313 H   0  0  0  0  0  0  0  0  0  0  0  0
  126.1778  136.0075  156.1128 H   0  0  0  0  0  0  0  0  0  0  0  0
  124.1179  135.7042  157.4271 H   0  0  0  0  0  0  0  0  0  0  0  0
  126.4489  135.3076  160.9814 H   0  0  0  0  0  0  0  0  0  0  0  0
  130.2654  137.4612  158.4632 H   0  0  0  0  0  0  0  0  0  0  0  0
  130.8668  139.7422  159.1690 H   0  0  0  0  0  0  0  0  0  0  0  0
  1  2  1  0
  1 32  1  0
  1 33  1  0
  1 34  1  0
  2  3  1  0
  2 35  1  0
  2 36  1  0
  3 31  2  0
  3  4  1  0
  4  5  2  0
  4 37  1  0
  5  6  1  0
  5 38  1  0
  6  7  1  0
  6 30  2  0
  7  8  1  1
  7  9  1  0
  7 23  1  0
  9 39  1  0
 10  9  1  0
 10 21  2  0
 10 11  1  0
 11 12  1  0
 11 13  1  0
 13 14  2  0
 13 40  1  0
 14 15  1  0
 14 21  1  0
 15 20  1  0
 15 16  2  0
 16 17  1  0
 16 41  1  0
 17 18  1  0
 17 42  1  0
 17 43  1  0
 18 19  2  0
 18 44  1  0
 19 20  1  0
 19 45  1  0
 20 46  1  0
 20 47  1  0
 21 22  1  0
 23 29  1  0
 23 24  2  0
 24 25  1  0
 24 48  1  0
 25 26  2  0
 25 49  1  0
 26 27  1  0
 26 50  1  0
 27 28  1  0
 27 29  2  0
 29 51  1  0
 30 31  1  0
 30 52  1  0
 31 53  1  0
M  CHG  1  21   1
M  END
>  <DOCK_score>  (1) 
-59.254581

>  <SMILES>  (1) 
CCc1ccc([C@H](Nc2[nH]cc(C3=CCC=CC3)[nH+]2)c2cccc(F)c2)cc1

$$$$
