Cc1cc([C@](C)(O)C(Nc2[nH]c(C)c(-c3ccccc3)[nH+]2)c2ccccc2)no1
     RDKit          3D

 54 57  0  0  1  0  0  0  0  0999 V2000
  131.3288  136.9213  166.3026 C   0  0  0  0  0  0  0  0  0  0  0  0
  131.0132  137.0740  164.8369 C   0  0  0  0  0  0  0  0  0  0  0  0
  131.7564  136.6270  163.7965 C   0  0  0  0  0  0  0  0  0  0  0  0
  131.0243  137.0291  162.6559 C   0  0  0  0  0  0  0  0  0  0  0  0
  131.3959  136.7921  161.2148 C   0  0  2  0  0  0  0  0  0  0  0  0
  132.9195  136.7464  161.0820 C   0  0  0  0  0  0  0  0  0  0  0  0
  130.8792  137.8530  160.4089 O   0  0  0  0  0  0  0  0  0  0  0  0
  130.8031  135.4613  160.7475 C   0  0  2  0  0  0  0  0  0  0  0  0
  131.1644  135.2309  159.3466 N   0  0  0  0  0  0  0  0  0  0  0  0
  130.7378  134.0826  158.7016 C   0  0  0  0  0  0  0  0  0  0  0  0
  129.9866  133.0934  159.2579 N   0  0  0  0  0  0  0  0  0  0  0  0
  129.6570  133.0662  160.1698 H   0  0  0  0  0  0  0  0  0  0  0  0
  129.7789  132.1422  158.2889 C   0  0  0  0  0  0  0  0  0  0  0  0
  128.9977  130.8624  158.4400 C   0  0  0  0  0  0  0  0  0  0  0  0
  130.4163  132.5724  157.1720 C   0  0  0  0  0  0  0  0  0  0  0  0
  130.4710  131.8635  155.8703 C   0  0  0  0  0  0  0  0  0  0  0  0
  129.9579  132.4666  154.7232 C   0  0  0  0  0  0  0  0  0  0  0  0
  130.0175  131.8050  153.5135 C   0  0  0  0  0  0  0  0  0  0  0  0
  130.5735  130.5404  153.4403 C   0  0  0  0  0  0  0  0  0  0  0  0
  131.0787  129.9345  154.5766 C   0  0  0  0  0  0  0  0  0  0  0  0
  131.0304  130.5894  155.7905 C   0  0  0  0  0  0  0  0  0  0  0  0
  130.9955  133.7660  157.4561 N   0  0  0  0  0  0  0  0  0  0  0  0
  131.5166  134.3001  156.8363 H   0  0  0  0  0  0  0  0  0  0  0  0
  129.3026  135.5063  160.8784 C   0  0  0  0  0  0  0  0  0  0  0  0
  128.6983  135.0927  162.0508 C   0  0  0  0  0  0  0  0  0  0  0  0
  127.3222  135.1384  162.1727 C   0  0  0  0  0  0  0  0  0  0  0  0
  126.5495  135.5885  161.1184 C   0  0  0  0  0  0  0  0  0  0  0  0
  127.1533  135.9968  159.9439 C   0  0  0  0  0  0  0  0  0  0  0  0
  128.5299  135.9558  159.8240 C   0  0  0  0  0  0  0  0  0  0  0  0
  129.9626  137.6397  163.0972 N   0  0  0  0  0  0  0  0  0  0  0  0
  129.9391  137.6745  164.3056 O   0  0  0  0  0  0  0  0  0  0  0  0
  130.5373  137.3810  166.8945 H   0  0  0  0  0  0  0  0  0  0  0  0
  131.3995  135.8622  166.5506 H   0  0  0  0  0  0  0  0  0  0  0  0
  132.2778  137.4102  166.5228 H   0  0  0  0  0  0  0  0  0  0  0  0
  132.6928  136.0899  163.8304 H   0  0  0  0  0  0  0  0  0  0  0  0
  133.1884  136.5748  160.0396 H   0  0  0  0  0  0  0  0  0  0  0  0
  133.3418  137.6944  161.4149 H   0  0  0  0  0  0  0  0  0  0  0  0
  133.3138  135.9371  161.6967 H   0  0  0  0  0  0  0  0  0  0  0  0
  131.0810  137.7658  159.4673 H   0  0  0  0  0  0  0  0  0  0  0  0
  131.1974  134.6521  161.3622 H   0  0  0  0  0  0  0  0  0  0  0  0
  131.7025  135.8828  158.8709 H   0  0  0  0  0  0  0  0  0  0  0  0
  129.6635  130.0677  158.7767 H   0  0  0  0  0  0  0  0  0  0  0  0
  128.2035  131.0058  159.1727 H   0  0  0  0  0  0  0  0  0  0  0  0
  128.5608  130.5878  157.4799 H   0  0  0  0  0  0  0  0  0  0  0  0
  129.5190  133.4518  154.7802 H   0  0  0  0  0  0  0  0  0  0  0  0
  129.6250  132.2736  152.6230 H   0  0  0  0  0  0  0  0  0  0  0  0
  130.6137  130.0244  152.4925 H   0  0  0  0  0  0  0  0  0  0  0  0
  131.5119  128.9473  154.5137 H   0  0  0  0  0  0  0  0  0  0  0  0
  131.4258  130.1157  156.6769 H   0  0  0  0  0  0  0  0  0  0  0  0
  129.3017  134.7372  162.8730 H   0  0  0  0  0  0  0  0  0  0  0  0
  126.8503  134.8190  163.0902 H   0  0  0  0  0  0  0  0  0  0  0  0
  125.4740  135.6208  161.2123 H   0  0  0  0  0  0  0  0  0  0  0  0
  126.5497  136.3480  159.1201 H   0  0  0  0  0  0  0  0  0  0  0  0
  129.0016  136.2749  158.9062 H   0  0  0  0  0  0  0  0  0  0  0  0
  1  2  1  0
  1 32  1  0
  1 33  1  0
  1 34  1  0
  2 31  1  0
  2  3  2  0
  3  4  1  0
  3 35  1  0
  4  5  1  0
  4 30  2  0
  5  6  1  0
  5  7  1  6
  5  8  1  0
  6 36  1  0
  6 37  1  0
  6 38  1  0
  7 39  1  0
  8  9  1  0
  8 24  1  0
  8 40  1  1
  9 41  1  0
 10  9  1  0
 10 22  2  0
 10 11  1  0
 11 12  1  0
 11 13  1  0
 13 14  1  0
 13 15  2  0
 14 42  1  0
 14 43  1  0
 14 44  1  0
 15 16  1  0
 15 22  1  0
 16 21  1  0
 16 17  2  0
 17 18  1  0
 17 45  1  0
 18 19  2  0
 18 46  1  0
 19 20  1  0
 19 47  1  0
 20 21  2  0
 20 48  1  0
 21 49  1  0
 22 23  1  0
 24 29  1  0
 24 25  2  0
 25 26  1  0
 25 50  1  0
 26 27  2  0
 26 51  1  0
 27 28  1  0
 27 52  1  0
 28 29  2  0
 28 53  1  0
 29 54  1  0
 30 31  1  0
M  CHG  1  22   1
M  END
>  <DOCK_score>  (1) 
-58.376362

>  <SMILES>  (1) 
Cc1cc([C@](C)(O)C(Nc2[nH]c(C)c(-c3ccccc3)[nH+]2)c2ccccc2)no1

$$$$
