Cc1cccc([C@@H](Nc2[nH]cc(-c3ccc(N)cc3)[nH+]2)C2CCCC2O)c1CCl
     RDKit          3D

 57 60  0  0  1  0  0  0  0  0999 V2000
  125.9585  134.5519  163.1574 C   0  0  0  0  0  0  0  0  0  0  0  0
  126.7110  135.0323  161.9432 C   0  0  0  0  0  0  0  0  0  0  0  0
  126.0189  135.4670  160.8281 C   0  0  0  0  0  0  0  0  0  0  0  0
  126.7090  135.9115  159.7162 C   0  0  0  0  0  0  0  0  0  0  0  0
  128.0917  135.9125  159.7154 C   0  0  0  0  0  0  0  0  0  0  0  0
  128.7836  135.4782  160.8304 C   0  0  0  0  0  0  0  0  0  0  0  0
  130.2905  135.4847  160.8316 C   0  0  1  0  0  0  0  0  0  0  0  0
  130.6567  134.6828  161.4728 H   0  0  0  0  0  0  0  0  0  0  0  0
  130.7809  135.2808  159.4663 N   0  0  0  0  0  0  0  0  0  0  0  0
  130.4521  134.1255  158.7780 C   0  0  0  0  0  0  0  0  0  0  0  0
  129.6895  133.1063  159.2589 N   0  0  0  0  0  0  0  0  0  0  0  0
  129.2820  133.0588  160.1378 H   0  0  0  0  0  0  0  0  0  0  0  0
  129.6004  132.1580  158.2674 C   0  0  0  0  0  0  0  0  0  0  0  0
  130.3182  132.6214  157.2145 C   0  0  0  0  0  0  0  0  0  0  0  0
  130.5108  131.9288  155.9168 C   0  0  0  0  0  0  0  0  0  0  0  0
  130.0794  132.5285  154.7346 C   0  0  0  0  0  0  0  0  0  0  0  0
  130.2648  131.8854  153.5290 C   0  0  0  0  0  0  0  0  0  0  0  0
  130.8703  130.6355  153.4928 C   0  0  0  0  0  0  0  0  0  0  0  0
  131.0513  129.9826  152.2711 N   0  0  0  0  0  0  0  0  0  0  0  0
  131.2964  130.0327  154.6710 C   0  0  0  0  0  0  0  0  0  0  0  0
  131.1183  130.6747  155.8783 C   0  0  0  0  0  0  0  0  0  0  0  0
  130.8287  133.8304  157.5575 N   0  0  0  0  0  0  0  0  0  0  0  0
  131.3842  134.3877  156.9903 H   0  0  0  0  0  0  0  0  0  0  0  0
  130.7943  136.8296  161.3589 C   0  0  2  0  0  0  0  0  0  0  0  0
  130.3425  137.9678  160.4209 C   0  0  0  0  0  0  0  0  0  0  0  0
  131.5396  138.9507  160.4121 C   0  0  0  0  0  0  0  0  0  0  0  0
  132.7623  138.0003  160.4314 C   0  0  0  0  0  0  0  0  0  0  0  0
  132.3329  136.8502  161.3656 C   0  0  2  0  0  0  0  0  0  0  0  0
  132.8413  135.6067  160.8784 O   0  0  0  0  0  0  0  0  0  0  0  0
  128.0932  135.0377  161.9442 C   0  0  0  0  0  0  0  0  0  0  0  0
  128.8477  134.5637  163.1596 C   0  0  0  0  0  0  0  0  0  0  0  0
  129.1552  132.7925  163.0235 Cl  0  0  0  0  0  0  0  0  0  0  0  0
  125.7731  135.3927  163.8258 H   0  0  0  0  0  0  0  0  0  0  0  0
  125.0080  134.1177  162.8473 H   0  0  0  0  0  0  0  0  0  0  0  0
  126.5502  133.7982  163.6768 H   0  0  0  0  0  0  0  0  0  0  0  0
  124.9389  135.4624  160.8273 H   0  0  0  0  0  0  0  0  0  0  0  0
  126.1683  136.2551  158.8467 H   0  0  0  0  0  0  0  0  0  0  0  0
  128.6310  136.2567  158.8454 H   0  0  0  0  0  0  0  0  0  0  0  0
  131.3361  135.9553  159.0445 H   0  0  0  0  0  0  0  0  0  0  0  0
  129.0646  131.2217  158.3188 H   0  0  0  0  0  0  0  0  0  0  0  0
  129.6042  133.4979  154.7627 H   0  0  0  0  0  0  0  0  0  0  0  0
  129.9346  132.3517  152.6125 H   0  0  0  0  0  0  0  0  0  0  0  0
  131.4741  129.1100  152.2452 H   0  0  0  0  0  0  0  0  0  0  0  0
  130.7542  130.4022  151.4486 H   0  0  0  0  0  0  0  0  0  0  0  0
  131.7669  129.0611  154.6406 H   0  0  0  0  0  0  0  0  0  0  0  0
  131.4496  130.2063  156.7935 H   0  0  0  0  0  0  0  0  0  0  0  0
  130.4143  137.0016  162.3659 H   0  0  0  0  0  0  0  0  0  0  0  0
  130.1565  137.5844  159.4177 H   0  0  0  0  0  0  0  0  0  0  0  0
  129.4511  138.4558  160.8150 H   0  0  0  0  0  0  0  0  0  0  0  0
  131.5272  139.5823  161.3003 H   0  0  0  0  0  0  0  0  0  0  0  0
  131.5371  139.5588  159.5075 H   0  0  0  0  0  0  0  0  0  0  0  0
  133.6369  138.5119  160.8332 H   0  0  0  0  0  0  0  0  0  0  0  0
  132.9695  137.6216  159.4304 H   0  0  0  0  0  0  0  0  0  0  0  0
  132.6995  137.0331  162.3757 H   0  0  0  0  0  0  0  0  0  0  0  0
  132.6309  134.8485  161.4406 H   0  0  0  0  0  0  0  0  0  0  0  0
  129.7979  135.0935  163.2267 H   0  0  0  0  0  0  0  0  0  0  0  0
  128.2571  134.7623  164.0541 H   0  0  0  0  0  0  0  0  0  0  0  0
  1  2  1  0
  1 33  1  0
  1 34  1  0
  1 35  1  0
  2 30  2  0
  2  3  1  0
  3  4  2  0
  3 36  1  0
  4  5  1  0
  4 37  1  0
  5  6  2  0
  5 38  1  0
  6  7  1  0
  6 30  1  0
  7  8  1  1
  7  9  1  0
  7 24  1  0
  9 39  1  0
 10  9  1  0
 10 22  2  0
 10 11  1  0
 11 12  1  0
 11 13  1  0
 13 14  2  0
 13 40  1  0
 14 15  1  0
 14 22  1  0
 15 21  1  0
 15 16  2  0
 16 17  1  0
 16 41  1  0
 17 18  2  0
 17 42  1  0
 18 19  1  0
 18 20  1  0
 19 43  1  0
 19 44  1  0
 20 21  2  0
 20 45  1  0
 21 46  1  0
 22 23  1  0
 24 28  1  0
 24 25  1  0
 24 47  1  1
 25 26  1  0
 25 48  1  0
 25 49  1  0
 26 27  1  0
 26 50  1  0
 26 51  1  0
 27 28  1  0
 27 52  1  0
 27 53  1  0
 28 29  1  0
 28 54  1  1
 29 55  1  0
 30 31  1  0
 31 32  1  0
 31 56  1  0
 31 57  1  0
M  CHG  1  22   1
M  END
>  <DOCK_score>  (1) 
-60.956844

>  <SMILES>  (1) 
Cc1cccc([C@@H](Nc2[nH]cc(-c3ccc(N)cc3)[nH+]2)C2CCCC2O)c1CCl

$$$$
