Nc1ccc(-c2c[nH]c(NCC3=CCC=C[C@H]3CC3=CCC=CC3)[nH+]2)cc1
     RDKit          3D

 54 57  0  0  1  0  0  0  0  0999 V2000
  130.9387  129.5796  152.3728 N   0  0  0  0  0  0  0  0  0  0  0  0
  130.7448  130.3403  153.5283 C   0  0  0  0  0  0  0  0  0  0  0  0
  130.0145  131.5217  153.4671 C   0  0  0  0  0  0  0  0  0  0  0  0
  129.8217  132.2740  154.6065 C   0  0  0  0  0  0  0  0  0  0  0  0
  130.3601  131.8492  155.8202 C   0  0  0  0  0  0  0  0  0  0  0  0
  130.1547  132.6571  157.0474 C   0  0  0  0  0  0  0  0  0  0  0  0
  129.5361  132.2432  158.1808 C   0  0  0  0  0  0  0  0  0  0  0  0
  129.5709  133.2980  159.0618 N   0  0  0  0  0  0  0  0  0  0  0  0
  129.2101  133.3069  159.9622 H   0  0  0  0  0  0  0  0  0  0  0  0
  130.2022  134.3284  158.4361 C   0  0  0  0  0  0  0  0  0  0  0  0
  130.4403  135.5785  158.9814 N   0  0  0  0  0  0  0  0  0  0  0  0
  129.9986  135.8788  160.3456 C   0  0  0  0  0  0  0  0  0  0  0  0
  131.0942  135.5242  161.3179 C   0  0  0  0  0  0  0  0  0  0  0  0
  131.1207  134.3244  161.8129 C   0  0  0  0  0  0  0  0  0  0  0  0
  132.1672  133.8675  162.7812 C   0  0  0  0  0  0  0  0  0  0  0  0
  133.3741  134.7557  162.7376 C   0  0  0  0  0  0  0  0  0  0  0  0
  133.3477  135.9554  162.2422 C   0  0  0  0  0  0  0  0  0  0  0  0
  132.1064  136.5719  161.6711 C   0  0  1  0  0  0  0  0  0  0  0  0
  131.6751  137.2523  162.4053 H   0  0  0  0  0  0  0  0  0  0  0  0
  132.4716  137.3597  160.4114 C   0  0  0  0  0  0  0  0  0  0  0  0
  133.4893  138.4161  160.7569 C   0  0  0  0  0  0  0  0  0  0  0  0
  134.6450  138.3819  160.1663 C   0  0  0  0  0  0  0  0  0  0  0  0
  135.7264  139.3840  160.4375 C   0  0  0  0  0  0  0  0  0  0  0  0
  135.1685  140.6280  161.0608 C   0  0  0  0  0  0  0  0  0  0  0  0
  134.0131  140.6620  161.6518 C   0  0  0  0  0  0  0  0  0  0  0  0
  133.1213  139.4645  161.7633 C   0  0  0  0  0  0  0  0  0  0  0  0
  130.5525  133.9405  157.2341 N   0  0  0  0  0  0  0  0  0  0  0  0
  131.0216  134.4842  156.5821 H   0  0  0  0  0  0  0  0  0  0  0  0
  131.0968  130.6671  155.8779 C   0  0  0  0  0  0  0  0  0  0  0  0
  131.2820  129.9150  154.7369 C   0  0  0  0  0  0  0  0  0  0  0  0
  130.5636  129.8765  151.5282 H   0  0  0  0  0  0  0  0  0  0  0  0
  131.4482  128.7559  152.4140 H   0  0  0  0  0  0  0  0  0  0  0  0
  129.5972  131.8503  152.5266 H   0  0  0  0  0  0  0  0  0  0  0  0
  129.2540  133.1915  154.5588 H   0  0  0  0  0  0  0  0  0  0  0  0
  129.1031  131.2700  158.3589 H   0  0  0  0  0  0  0  0  0  0  0  0
  130.8996  136.2554  158.4603 H   0  0  0  0  0  0  0  0  0  0  0  0
  129.1064  135.2962  160.5753 H   0  0  0  0  0  0  0  0  0  0  0  0
  129.7698  136.9413  160.4277 H   0  0  0  0  0  0  0  0  0  0  0  0
  130.3567  133.6234  161.5103 H   0  0  0  0  0  0  0  0  0  0  0  0
  132.4644  132.8483  162.5344 H   0  0  0  0  0  0  0  0  0  0  0  0
  131.7487  133.8828  163.7877 H   0  0  0  0  0  0  0  0  0  0  0  0
  134.3069  134.3795  163.1311 H   0  0  0  0  0  0  0  0  0  0  0  0
  134.2595  136.5342  162.2418 H   0  0  0  0  0  0  0  0  0  0  0  0
  132.8898  136.6818  159.6674 H   0  0  0  0  0  0  0  0  0  0  0  0
  131.5773  137.8349  160.0080 H   0  0  0  0  0  0  0  0  0  0  0  0
  134.8353  137.5978  159.4483 H   0  0  0  0  0  0  0  0  0  0  0  0
  136.4600  138.9439  161.1131 H   0  0  0  0  0  0  0  0  0  0  0  0
  136.2159  139.6442  159.4990 H   0  0  0  0  0  0  0  0  0  0  0  0
  135.7532  141.5350  161.0167 H   0  0  0  0  0  0  0  0  0  0  0  0
  133.6781  141.5961  162.0781 H   0  0  0  0  0  0  0  0  0  0  0  0
  132.0878  139.7697  161.5997 H   0  0  0  0  0  0  0  0  0  0  0  0
  133.2151  139.0463  162.7655 H   0  0  0  0  0  0  0  0  0  0  0  0
  131.5185  130.3383  156.8163 H   0  0  0  0  0  0  0  0  0  0  0  0
  131.8488  128.9968  154.7821 H   0  0  0  0  0  0  0  0  0  0  0  0
  1  2  1  0
  1 31  1  0
  1 32  1  0
  2 30  2  0
  2  3  1  0
  3  4  2  0
  3 33  1  0
  4  5  1  0
  4 34  1  0
  5  6  1  0
  5 29  2  0
  6 27  1  0
  6  7  2  0
  7  8  1  0
  7 35  1  0
  8  9  1  0
  8 10  1  0
 10 11  1  0
 10 27  2  0
 11 12  1  0
 11 36  1  0
 12 13  1  0
 12 37  1  0
 12 38  1  0
 13 18  1  0
 13 14  2  0
 14 15  1  0
 14 39  1  0
 15 16  1  0
 15 40  1  0
 15 41  1  0
 16 17  2  0
 16 42  1  0
 17 18  1  0
 17 43  1  0
 18 19  1  1
 18 20  1  0
 20 21  1  0
 20 44  1  0
 20 45  1  0
 21 26  1  0
 21 22  2  0
 22 23  1  0
 22 46  1  0
 23 24  1  0
 23 47  1  0
 23 48  1  0
 24 25  2  0
 24 49  1  0
 25 26  1  0
 25 50  1  0
 26 51  1  0
 26 52  1  0
 27 28  1  0
 29 30  1  0
 29 53  1  0
 30 54  1  0
M  CHG  1  27   1
M  END
>  <DOCK_score>  (1) 
-57.327679

>  <SMILES>  (1) 
Nc1ccc(-c2c[nH]c(NCC3=CCC=C[C@H]3CC3=CCC=CC3)[nH+]2)cc1

$$$$
