Cc1ccc(C)c(C[NH+]=C(NCCN2CCNC2=O)NC2CCCC2)n1
     RDKit          3D

 57 59  0  0  1  0  0  0  0  0999 V2000
  135.3557  140.5980  163.1769 C   0  0  0  0  0  0  0  0  0  0  0  0
  135.2775  140.0814  161.7633 C   0  0  0  0  0  0  0  0  0  0  0  0
  136.2174  140.4874  160.8346 C   0  0  0  0  0  0  0  0  0  0  0  0
  136.1367  140.0059  159.5371 C   0  0  0  0  0  0  0  0  0  0  0  0
  135.1122  139.1261  159.2221 C   0  0  0  0  0  0  0  0  0  0  0  0
  134.9852  138.5707  157.8270 C   0  0  0  0  0  0  0  0  0  0  0  0
  134.2059  138.7690  160.2024 C   0  0  0  0  0  0  0  0  0  0  0  0
  133.0855  137.8177  159.8700 C   0  0  0  0  0  0  0  0  0  0  0  0
  132.2643  137.5945  161.0625 N   0  0  0  0  0  0  0  0  0  0  0  0
  132.4884  138.0380  161.8956 H   0  0  0  0  0  0  0  0  0  0  0  0
  131.2324  136.8004  161.0041 C   0  0  0  0  0  0  0  0  0  0  0  0
  130.4618  136.5910  162.1232 N   0  0  0  0  0  0  0  0  0  0  0  0
  130.8004  137.2606  163.3814 C   0  0  0  0  0  0  0  0  0  0  0  0
  129.7921  136.8593  164.4601 C   0  0  0  0  0  0  0  0  0  0  0  0
  128.4456  137.2572  164.0421 N   0  0  0  0  0  0  0  0  0  0  0  0
  127.8108  138.5514  164.3330 C   0  0  0  0  0  0  0  0  0  0  0  0
  126.4246  138.4402  163.6690 C   0  0  0  0  0  0  0  0  0  0  0  0
  126.4220  137.0919  163.0824 N   0  0  0  0  0  0  0  0  0  0  0  0
  127.5949  136.4980  163.3392 C   0  0  0  0  0  0  0  0  0  0  0  0
  127.8632  135.3719  162.9676 O   0  0  0  0  0  0  0  0  0  0  0  0
  130.9181  136.1676  159.8246 N   0  0  0  0  0  0  0  0  0  0  0  0
  129.7583  135.2750  159.7589 C   0  0  0  0  0  0  0  0  0  0  0  0
  129.9731  134.2093  158.6642 C   0  0  0  0  0  0  0  0  0  0  0  0
  128.5681  134.0207  158.0382 C   0  0  0  0  0  0  0  0  0  0  0  0
  127.9981  135.4609  158.0353 C   0  0  0  0  0  0  0  0  0  0  0  0
  128.5031  136.0702  159.3596 C   0  0  0  0  0  0  0  0  0  0  0  0
  134.3135  139.2471  161.4269 N   0  0  0  0  0  0  0  0  0  0  0  0
  135.9728  139.9276  163.7750 H   0  0  0  0  0  0  0  0  0  0  0  0
  135.7977  141.5944  163.1756 H   0  0  0  0  0  0  0  0  0  0  0  0
  134.3533  140.6457  163.6023 H   0  0  0  0  0  0  0  0  0  0  0  0
  137.0048  141.1706  161.1164 H   0  0  0  0  0  0  0  0  0  0  0  0
  136.8573  140.3054  158.7905 H   0  0  0  0  0  0  0  0  0  0  0  0
  134.3372  139.2179  157.2359 H   0  0  0  0  0  0  0  0  0  0  0  0
  135.9708  138.5227  157.3640 H   0  0  0  0  0  0  0  0  0  0  0  0
  134.5558  137.5699  157.8720 H   0  0  0  0  0  0  0  0  0  0  0  0
  133.5026  136.8686  159.5334 H   0  0  0  0  0  0  0  0  0  0  0  0
  132.4691  138.2445  159.0789 H   0  0  0  0  0  0  0  0  0  0  0  0
  129.6939  135.9999  162.0796 H   0  0  0  0  0  0  0  0  0  0  0  0
  131.8022  136.9644  163.6925 H   0  0  0  0  0  0  0  0  0  0  0  0
  130.7688  138.3407  163.2383 H   0  0  0  0  0  0  0  0  0  0  0  0
  129.8237  135.7792  164.6032 H   0  0  0  0  0  0  0  0  0  0  0  0
  130.0440  137.3574  165.3963 H   0  0  0  0  0  0  0  0  0  0  0  0
  127.7115  138.6957  165.4087 H   0  0  0  0  0  0  0  0  0  0  0  0
  128.3818  139.3664  163.8877 H   0  0  0  0  0  0  0  0  0  0  0  0
  126.3066  139.1957  162.8920 H   0  0  0  0  0  0  0  0  0  0  0  0
  125.6358  138.5343  164.4154 H   0  0  0  0  0  0  0  0  0  0  0  0
  125.6877  136.6954  162.5881 H   0  0  0  0  0  0  0  0  0  0  0  0
  131.4642  136.3120  159.0361 H   0  0  0  0  0  0  0  0  0  0  0  0
  129.6035  134.7928  160.7241 H   0  0  0  0  0  0  0  0  0  0  0  0
  130.6790  134.5685  157.9155 H   0  0  0  0  0  0  0  0  0  0  0  0
  130.3239  133.2757  159.1042 H   0  0  0  0  0  0  0  0  0  0  0  0
  127.9555  133.3641  158.6559 H   0  0  0  0  0  0  0  0  0  0  0  0
  128.6436  133.6332  157.0222 H   0  0  0  0  0  0  0  0  0  0  0  0
  126.9085  135.4400  158.0160 H   0  0  0  0  0  0  0  0  0  0  0  0
  128.3831  136.0239  157.1849 H   0  0  0  0  0  0  0  0  0  0  0  0
  127.7386  135.9734  160.1305 H   0  0  0  0  0  0  0  0  0  0  0  0
  128.7568  137.1204  159.2145 H   0  0  0  0  0  0  0  0  0  0  0  0
  1  2  1  0
  1 28  1  0
  1 29  1  0
  1 30  1  0
  2 27  2  0
  2  3  1  0
  3  4  2  0
  3 31  1  0
  4  5  1  0
  4 32  1  0
  5  6  1  0
  5  7  2  0
  6 33  1  0
  6 34  1  0
  6 35  1  0
  7  8  1  0
  7 27  1  0
  8  9  1  0
  8 36  1  0
  8 37  1  0
  9 10  1  0
 11  9  2  0
 11 12  1  0
 11 21  1  0
 12 13  1  0
 12 38  1  0
 13 14  1  0
 13 39  1  0
 13 40  1  0
 14 15  1  0
 14 41  1  0
 14 42  1  0
 15 19  1  0
 15 16  1  0
 16 17  1  0
 16 43  1  0
 16 44  1  0
 17 18  1  0
 17 45  1  0
 17 46  1  0
 18 19  1  0
 18 47  1  0
 19 20  2  0
 21 22  1  0
 21 48  1  0
 22 26  1  0
 22 23  1  0
 22 49  1  0
 23 24  1  0
 23 50  1  0
 23 51  1  0
 24 25  1  0
 24 52  1  0
 24 53  1  0
 25 26  1  0
 25 54  1  0
 25 55  1  0
 26 56  1  0
 26 57  1  0
M  CHG  1   9   1
M  END
>  <DOCK_score>  (1) 
-41.661625

>  <SMILES>  (1) 
Cc1ccc(C)c(C[NH+]=C(NCCN2CCNC2=O)NC2CCCC2)n1

$$$$
