CCc1ccc(-c2c[nH]c(N[C@H](CO)CCc3ccc4c(c3C)CCC4)[nH+]2)cc1
     RDKit          3D

 61 64  0  0  1  0  0  0  0  0999 V2000
  129.6083  129.0241  151.1940 C   0  0  0  0  0  0  0  0  0  0  0  0
  130.8694  129.8355  151.4970 C   0  0  0  0  0  0  0  0  0  0  0  0
  130.7292  130.4983  152.8431 C   0  0  0  0  0  0  0  0  0  0  0  0
  131.1576  129.8416  153.9821 C   0  0  0  0  0  0  0  0  0  0  0  0
  131.0370  130.4459  155.2171 C   0  0  0  0  0  0  0  0  0  0  0  0
  130.4716  131.7159  155.3161 C   0  0  0  0  0  0  0  0  0  0  0  0
  130.3341  132.3683  156.6412 C   0  0  0  0  0  0  0  0  0  0  0  0
  129.6334  131.8881  157.6983 C   0  0  0  0  0  0  0  0  0  0  0  0
  129.7712  132.8009  158.7156 N   0  0  0  0  0  0  0  0  0  0  0  0
  129.3829  132.7361  159.6021 H   0  0  0  0  0  0  0  0  0  0  0  0
  130.5529  133.8130  158.2500 C   0  0  0  0  0  0  0  0  0  0  0  0
  130.9322  134.9344  158.9677 N   0  0  0  0  0  0  0  0  0  0  0  0
  130.4854  135.1035  160.3526 C   0  0  2  0  0  0  0  0  0  0  0  0
  130.5255  134.1435  160.8670 H   0  0  0  0  0  0  0  0  0  0  0  0
  129.0485  135.6290  160.3643 C   0  0  0  0  0  0  0  0  0  0  0  0
  128.9960  136.8876  159.6897 O   0  0  0  0  0  0  0  0  0  0  0  0
  131.3995  136.1026  161.0649 C   0  0  0  0  0  0  0  0  0  0  0  0
  132.6872  135.3977  161.4964 C   0  0  0  0  0  0  0  0  0  0  0  0
  133.5875  136.3817  162.1980 C   0  0  0  0  0  0  0  0  0  0  0  0
  134.5031  137.1210  161.4725 C   0  0  0  0  0  0  0  0  0  0  0  0
  135.3271  138.0221  162.1176 C   0  0  0  0  0  0  0  0  0  0  0  0
  135.2397  138.1878  163.4898 C   0  0  0  0  0  0  0  0  0  0  0  0
  134.3244  137.4487  164.2152 C   0  0  0  0  0  0  0  0  0  0  0  0
  133.4949  136.5498  163.5656 C   0  0  0  0  0  0  0  0  0  0  0  0
  132.4922  135.7479  164.3547 C   0  0  0  0  0  0  0  0  0  0  0  0
  134.4229  137.8094  165.6819 C   0  0  0  0  0  0  0  0  0  0  0  0
  135.7847  138.5199  165.8327 C   0  0  0  0  0  0  0  0  0  0  0  0
  136.0159  139.0959  164.4196 C   0  0  0  0  0  0  0  0  0  0  0  0
  130.8921  133.5480  157.0120 N   0  0  0  0  0  0  0  0  0  0  0  0
  131.4507  134.1073  156.4499 H   0  0  0  0  0  0  0  0  0  0  0  0
  130.0363  132.3709  154.1655 C   0  0  0  0  0  0  0  0  0  0  0  0
  130.1672  131.7594  152.9352 C   0  0  0  0  0  0  0  0  0  0  0  0
  128.7429  129.6868  151.1846 H   0  0  0  0  0  0  0  0  0  0  0  0
  129.7097  128.5449  150.2204 H   0  0  0  0  0  0  0  0  0  0  0  0
  129.4740  128.2621  151.9618 H   0  0  0  0  0  0  0  0  0  0  0  0
  131.7346  129.1735  151.5060 H   0  0  0  0  0  0  0  0  0  0  0  0
  131.0035  130.5982  150.7288 H   0  0  0  0  0  0  0  0  0  0  0  0
  131.5912  128.8555  153.9047 H   0  0  0  0  0  0  0  0  0  0  0  0
  131.3761  129.9339  156.1055 H   0  0  0  0  0  0  0  0  0  0  0  0
  129.0737  130.9651  157.7335 H   0  0  0  0  0  0  0  0  0  0  0  0
  131.4940  135.6081  158.5535 H   0  0  0  0  0  0  0  0  0  0  0  0
  128.3973  134.9174  159.8568 H   0  0  0  0  0  0  0  0  0  0  0  0
  128.7160  135.7549  161.3947 H   0  0  0  0  0  0  0  0  0  0  0  0
  129.2788  136.8508  158.7657 H   0  0  0  0  0  0  0  0  0  0  0  0
  131.6426  136.9203  160.3866 H   0  0  0  0  0  0  0  0  0  0  0  0
  130.8901  136.4985  161.9435 H   0  0  0  0  0  0  0  0  0  0  0  0
  132.4440  134.5799  162.1747 H   0  0  0  0  0  0  0  0  0  0  0  0
  133.1964  135.0018  160.6178 H   0  0  0  0  0  0  0  0  0  0  0  0
  134.5741  136.9938  160.4024 H   0  0  0  0  0  0  0  0  0  0  0  0
  136.0424  138.5990  161.5502 H   0  0  0  0  0  0  0  0  0  0  0  0
  132.9507  134.8151  164.6833 H   0  0  0  0  0  0  0  0  0  0  0  0
  132.1719  136.3213  165.2245 H   0  0  0  0  0  0  0  0  0  0  0  0
  131.6288  135.5269  163.7271 H   0  0  0  0  0  0  0  0  0  0  0  0
  134.3961  136.9088  166.2954 H   0  0  0  0  0  0  0  0  0  0  0  0
  133.6123  138.4817  165.9629 H   0  0  0  0  0  0  0  0  0  0  0  0
  136.5670  137.8069  166.0934 H   0  0  0  0  0  0  0  0  0  0  0  0
  135.7286  139.3187  166.5723 H   0  0  0  0  0  0  0  0  0  0  0  0
  137.0771  139.0737  164.1711 H   0  0  0  0  0  0  0  0  0  0  0  0
  135.6350  140.1152  164.3580 H   0  0  0  0  0  0  0  0  0  0  0  0
  129.5972  133.3552  154.2365 H   0  0  0  0  0  0  0  0  0  0  0  0
  129.8299  132.2660  152.0429 H   0  0  0  0  0  0  0  0  0  0  0  0
  1  2  1  0
  1 33  1  0
  1 34  1  0
  1 35  1  0
  2  3  1  0
  2 36  1  0
  2 37  1  0
  3 32  2  0
  3  4  1  0
  4  5  2  0
  4 38  1  0
  5  6  1  0
  5 39  1  0
  6  7  1  0
  6 31  2  0
  7 29  1  0
  7  8  2  0
  8  9  1  0
  8 40  1  0
  9 10  1  0
  9 11  1  0
 11 12  1  0
 11 29  2  0
 12 13  1  0
 12 41  1  0
 13 14  1  1
 13 15  1  0
 13 17  1  0
 15 16  1  0
 15 42  1  0
 15 43  1  0
 16 44  1  0
 17 18  1  0
 17 45  1  0
 17 46  1  0
 18 19  1  0
 18 47  1  0
 18 48  1  0
 19 24  1  0
 19 20  2  0
 20 21  1  0
 20 49  1  0
 21 22  2  0
 21 50  1  0
 22 28  1  0
 22 23  1  0
 23 24  2  0
 23 26  1  0
 24 25  1  0
 25 51  1  0
 25 52  1  0
 25 53  1  0
 26 27  1  0
 26 54  1  0
 26 55  1  0
 27 28  1  0
 27 56  1  0
 27 57  1  0
 28 58  1  0
 28 59  1  0
 29 30  1  0
 31 32  1  0
 31 60  1  0
 32 61  1  0
M  CHG  1  29   1
M  END
>  <DOCK_score>  (1) 
-57.800961

>  <SMILES>  (1) 
CCc1ccc(-c2c[nH]c(N[C@H](CO)CCc3ccc4c(c3C)CCC4)[nH+]2)cc1

$$$$
