O=C1CC[C@H](NC(NC2CCC2)=[NH+]C2COc3cc(F)ccc3C2)CN1
     RDKit          3D

 52 55  0  0  1  0  0  0  0  0999 V2000
  123.8481  133.6119  161.5365 O   0  0  0  0  0  0  0  0  0  0  0  0
  125.0059  133.8649  161.2788 C   0  0  0  0  0  0  0  0  0  0  0  0
  125.8927  132.7440  160.8181 C   0  0  0  0  0  0  0  0  0  0  0  0
  127.3618  133.1476  160.9665 C   0  0  0  0  0  0  0  0  0  0  0  0
  127.5485  134.5357  160.3423 C   0  0  2  0  0  0  0  0  0  0  0  0
  127.1517  134.5364  159.3270 H   0  0  0  0  0  0  0  0  0  0  0  0
  128.9735  134.8739  160.3133 N   0  0  0  0  0  0  0  0  0  0  0  0
  129.7385  134.5352  159.2222 C   0  0  0  0  0  0  0  0  0  0  0  0
  129.1660  133.8790  158.1583 N   0  0  0  0  0  0  0  0  0  0  0  0
  129.9688  132.9623  157.3453 C   0  0  0  0  0  0  0  0  0  0  0  0
  129.1317  131.9233  156.5805 C   0  0  0  0  0  0  0  0  0  0  0  0
  130.2280  130.9007  156.9306 C   0  0  0  0  0  0  0  0  0  0  0  0
  130.5589  131.7873  158.1427 C   0  0  0  0  0  0  0  0  0  0  0  0
  131.0064  134.8364  159.1965 N   0  0  0  0  0  0  0  0  0  0  0  0
  131.4458  135.0135  158.3501 H   0  0  0  0  0  0  0  0  0  0  0  0
  131.7679  134.9074  160.4461 C   0  0  1  0  0  0  0  0  0  0  0  0
  132.9339  133.9118  160.3982 C   0  0  0  0  0  0  0  0  0  0  0  0
  133.5933  133.9294  161.6651 O   0  0  0  0  0  0  0  0  0  0  0  0
  133.9309  135.1368  162.1880 C   0  0  0  0  0  0  0  0  0  0  0  0
  134.8778  135.1774  163.2062 C   0  0  0  0  0  0  0  0  0  0  0  0
  135.2372  136.3851  163.7734 C   0  0  0  0  0  0  0  0  0  0  0  0
  136.1535  136.4205  164.7655 F   0  0  0  0  0  0  0  0  0  0  0  0
  134.6608  137.5600  163.3194 C   0  0  0  0  0  0  0  0  0  0  0  0
  133.7259  137.5219  162.3041 C   0  0  0  0  0  0  0  0  0  0  0  0
  133.3601  136.3132  161.7344 C   0  0  0  0  0  0  0  0  0  0  0  0
  132.3441  136.3148  160.6205 C   0  0  0  0  0  0  0  0  0  0  0  0
  126.7952  135.5600  161.1919 C   0  0  0  0  0  0  0  0  0  0  0  0
  125.4233  135.1235  161.4200 N   0  0  0  0  0  0  0  0  0  0  0  0
  125.6821  132.5221  159.7720 H   0  0  0  0  0  0  0  0  0  0  0  0
  125.6982  131.8571  161.4212 H   0  0  0  0  0  0  0  0  0  0  0  0
  127.9947  132.4252  160.4510 H   0  0  0  0  0  0  0  0  0  0  0  0
  127.6281  133.1814  162.0229 H   0  0  0  0  0  0  0  0  0  0  0  0
  129.3775  135.3369  161.0638 H   0  0  0  0  0  0  0  0  0  0  0  0
  128.2305  134.0231  157.9461 H   0  0  0  0  0  0  0  0  0  0  0  0
  130.6997  133.4780  156.7225 H   0  0  0  0  0  0  0  0  0  0  0  0
  128.1699  131.7090  157.0463 H   0  0  0  0  0  0  0  0  0  0  0  0
  129.0498  132.1287  155.5131 H   0  0  0  0  0  0  0  0  0  0  0  0
  131.0294  130.8521  156.1934 H   0  0  0  0  0  0  0  0  0  0  0  0
  129.8414  129.9180  157.2009 H   0  0  0  0  0  0  0  0  0  0  0  0
  131.6276  131.8830  158.3350 H   0  0  0  0  0  0  0  0  0  0  0  0
  129.9880  131.5357  159.0365 H   0  0  0  0  0  0  0  0  0  0  0  0
  131.1165  134.6701  161.2871 H   0  0  0  0  0  0  0  0  0  0  0  0
  133.6343  134.2039  159.6158 H   0  0  0  0  0  0  0  0  0  0  0  0
  132.5537  132.9105  160.1960 H   0  0  0  0  0  0  0  0  0  0  0  0
  135.3304  134.2617  163.5574 H   0  0  0  0  0  0  0  0  0  0  0  0
  134.9428  138.5053  163.7590 H   0  0  0  0  0  0  0  0  0  0  0  0
  133.2778  138.4391  161.9519 H   0  0  0  0  0  0  0  0  0  0  0  0
  131.5396  137.0086  160.8645 H   0  0  0  0  0  0  0  0  0  0  0  0
  132.8233  136.6280  159.6930 H   0  0  0  0  0  0  0  0  0  0  0  0
  127.3010  135.6746  162.1506 H   0  0  0  0  0  0  0  0  0  0  0  0
  126.7867  136.5199  160.6756 H   0  0  0  0  0  0  0  0  0  0  0  0
  124.7734  135.7903  161.6916 H   0  0  0  0  0  0  0  0  0  0  0  0
  1  2  2  0
  2 28  1  0
  2  3  1  0
  3  4  1  0
  3 29  1  0
  3 30  1  0
  4  5  1  0
  4 31  1  0
  4 32  1  0
  5  6  1  6
  5  7  1  0
  5 27  1  0
  7 33  1  0
  8  7  1  0
  8  9  1  0
  8 14  2  0
  9 10  1  0
  9 34  1  0
 10 13  1  0
 10 11  1  0
 10 35  1  0
 11 12  1  0
 11 36  1  0
 11 37  1  0
 12 13  1  0
 12 38  1  0
 12 39  1  0
 13 40  1  0
 13 41  1  0
 14 15  1  0
 14 16  1  0
 16 26  1  0
 16 17  1  0
 16 42  1  1
 17 18  1  0
 17 43  1  0
 17 44  1  0
 18 19  1  0
 19 25  2  0
 19 20  1  0
 20 21  2  0
 20 45  1  0
 21 22  1  0
 21 23  1  0
 23 24  2  0
 23 46  1  0
 24 25  1  0
 24 47  1  0
 25 26  1  0
 26 48  1  0
 26 49  1  0
 27 28  1  0
 27 50  1  0
 27 51  1  0
 28 52  1  0
M  CHG  1  14   1
M  END
>  <DOCK_score>  (1) 
-46.937798

>  <SMILES>  (1) 
O=C1CC[C@H](NC(NC2CCC2)=[NH+]C2COc3cc(F)ccc3C2)CN1

$$$$
