Brc1ccc(-c2c[nH]c(N[C@@H](c3ccccc3)c3cccc(Br)c3)[nH+]2)cc1
     RDKit          3D

 45 48  0  0  1  0  0  0  0  0999 V2000
  130.7623  129.3746  150.3590 Br  0  0  0  0  0  0  0  0  0  0  0  0
  130.6902  130.1364  152.0882 C   0  0  0  0  0  0  0  0  0  0  0  0
  130.0376  131.3420  152.2838 C   0  0  0  0  0  0  0  0  0  0  0  0
  129.9824  131.9028  153.5434 C   0  0  0  0  0  0  0  0  0  0  0  0
  130.5848  131.2536  154.6195 C   0  0  0  0  0  0  0  0  0  0  0  0
  130.5291  131.8522  155.9756 C   0  0  0  0  0  0  0  0  0  0  0  0
  129.9711  131.2874  157.0749 C   0  0  0  0  0  0  0  0  0  0  0  0
  130.1396  132.1761  158.1089 N   0  0  0  0  0  0  0  0  0  0  0  0
  129.8452  132.0541  159.0251 H   0  0  0  0  0  0  0  0  0  0  0  0
  130.7963  133.2590  157.6106 C   0  0  0  0  0  0  0  0  0  0  0  0
  131.1595  134.3837  158.3314 N   0  0  0  0  0  0  0  0  0  0  0  0
  130.8372  134.4756  159.7575 C   0  0  1  0  0  0  0  0  0  0  0  0
  130.9970  133.5061  160.2293 H   0  0  0  0  0  0  0  0  0  0  0  0
  131.7261  135.5038  160.4083 C   0  0  0  0  0  0  0  0  0  0  0  0
  132.9404  135.1245  160.9494 C   0  0  0  0  0  0  0  0  0  0  0  0
  133.7577  136.0683  161.5424 C   0  0  0  0  0  0  0  0  0  0  0  0
  133.3567  137.3899  161.6030 C   0  0  0  0  0  0  0  0  0  0  0  0
  132.1403  137.7683  161.0662 C   0  0  0  0  0  0  0  0  0  0  0  0
  131.3248  136.8252  160.4692 C   0  0  0  0  0  0  0  0  0  0  0  0
  129.3953  134.8823  159.9213 C   0  0  0  0  0  0  0  0  0  0  0  0
  128.7878  135.6751  158.9653 C   0  0  0  0  0  0  0  0  0  0  0  0
  127.4669  136.0524  159.1174 C   0  0  0  0  0  0  0  0  0  0  0  0
  126.7494  135.6285  160.2204 C   0  0  0  0  0  0  0  0  0  0  0  0
  127.3550  134.8311  161.1744 C   0  0  0  0  0  0  0  0  0  0  0  0
  126.3744  134.2515  162.6837 Br  0  0  0  0  0  0  0  0  0  0  0  0
  128.6788  134.4581  161.0243 C   0  0  0  0  0  0  0  0  0  0  0  0
  131.0228  133.0639  156.3344 N   0  0  0  0  0  0  0  0  0  0  0  0
  131.4734  133.6857  155.7417 H   0  0  0  0  0  0  0  0  0  0  0  0
  131.2448  130.0431  154.4161 C   0  0  0  0  0  0  0  0  0  0  0  0
  131.2897  129.4880  153.1535 C   0  0  0  0  0  0  0  0  0  0  0  0
  129.5710  131.8442  151.4491 H   0  0  0  0  0  0  0  0  0  0  0  0
  129.4730  132.8430  153.6950 H   0  0  0  0  0  0  0  0  0  0  0  0
  129.4875  130.3231  157.1276 H   0  0  0  0  0  0  0  0  0  0  0  0
  131.6277  135.1110  157.8921 H   0  0  0  0  0  0  0  0  0  0  0  0
  133.2518  134.0912  160.9057 H   0  0  0  0  0  0  0  0  0  0  0  0
  134.7082  135.7727  161.9616 H   0  0  0  0  0  0  0  0  0  0  0  0
  133.9938  138.1268  162.0695 H   0  0  0  0  0  0  0  0  0  0  0  0
  131.8270  138.8008  161.1135 H   0  0  0  0  0  0  0  0  0  0  0  0
  130.3745  137.1208  160.0501 H   0  0  0  0  0  0  0  0  0  0  0  0
  129.3468  136.0030  158.1014 H   0  0  0  0  0  0  0  0  0  0  0  0
  126.9938  136.6748  158.3722 H   0  0  0  0  0  0  0  0  0  0  0  0
  125.7159  135.9196  160.3369 H   0  0  0  0  0  0  0  0  0  0  0  0
  129.1521  133.8352  161.7688 H   0  0  0  0  0  0  0  0  0  0  0  0
  131.7167  129.5381  155.2460 H   0  0  0  0  0  0  0  0  0  0  0  0
  131.7975  128.5481  152.9954 H   0  0  0  0  0  0  0  0  0  0  0  0
  1  2  1  0
  2 30  2  0
  2  3  1  0
  3  4  2  0
  3 31  1  0
  4  5  1  0
  4 32  1  0
  5  6  1  0
  5 29  2  0
  6 27  1  0
  6  7  2  0
  7  8  1  0
  7 33  1  0
  8  9  1  0
  8 10  1  0
 10 11  1  0
 10 27  2  0
 11 12  1  0
 11 34  1  0
 12 13  1  1
 12 14  1  0
 12 20  1  0
 14 19  1  0
 14 15  2  0
 15 16  1  0
 15 35  1  0
 16 17  2  0
 16 36  1  0
 17 18  1  0
 17 37  1  0
 18 19  2  0
 18 38  1  0
 19 39  1  0
 20 26  1  0
 20 21  2  0
 21 22  1  0
 21 40  1  0
 22 23  2  0
 22 41  1  0
 23 24  1  0
 23 42  1  0
 24 25  1  0
 24 26  2  0
 26 43  1  0
 27 28  1  0
 29 30  1  0
 29 44  1  0
 30 45  1  0
M  CHG  1  27   1
M  END
>  <DOCK_score>  (1) 
-60.501751

>  <SMILES>  (1) 
Brc1ccc(-c2c[nH]c(N[C@@H](c3ccccc3)c3cccc(Br)c3)[nH+]2)cc1

$$$$
