Cc1ccccc1CC=C[C@@H](Cc1ccccc1)Nc1[nH]cc(-c2ccc(N)cc2)[nH+]1
     RDKit          3D

 60 63  0  0  1  0  0  0  0  0999 V2000
  134.6315  137.8176  159.8383 C   0  0  0  0  0  0  0  0  0  0  0  0
  133.8326  138.6264  160.8278 C   0  0  0  0  0  0  0  0  0  0  0  0
  133.9057  140.0069  160.8112 C   0  0  0  0  0  0  0  0  0  0  0  0
  133.1727  140.7486  161.7184 C   0  0  0  0  0  0  0  0  0  0  0  0
  132.3667  140.1099  162.6426 C   0  0  0  0  0  0  0  0  0  0  0  0
  132.2937  138.7299  162.6591 C   0  0  0  0  0  0  0  0  0  0  0  0
  133.0225  137.9881  161.7479 C   0  0  0  0  0  0  0  0  0  0  0  0
  132.9382  136.4835  161.7619 C   0  0  0  0  0  0  0  0  0  0  0  0
  131.8265  136.0342  160.8490 C   0  0  0  0  0  0  0  0  0  0  0  0
  130.6123  135.8880  161.3182 C   0  0  0  0  0  0  0  0  0  0  0  0
  129.5007  135.4387  160.4052 C   0  0  1  0  0  0  0  0  0  0  0  0
  129.0807  134.5039  160.7768 H   0  0  0  0  0  0  0  0  0  0  0  0
  128.4080  136.5090  160.3671 C   0  0  0  0  0  0  0  0  0  0  0  0
  127.2964  136.0596  159.4541 C   0  0  0  0  0  0  0  0  0  0  0  0
  127.3312  136.3843  158.1109 C   0  0  0  0  0  0  0  0  0  0  0  0
  126.3140  135.9680  157.2724 C   0  0  0  0  0  0  0  0  0  0  0  0
  125.2566  135.2360  157.7794 C   0  0  0  0  0  0  0  0  0  0  0  0
  125.2191  134.9157  159.1236 C   0  0  0  0  0  0  0  0  0  0  0  0
  126.2390  135.3276  159.9609 C   0  0  0  0  0  0  0  0  0  0  0  0
  130.0306  135.2333  159.0549 N   0  0  0  0  0  0  0  0  0  0  0  0
  129.9444  133.9863  158.4598 C   0  0  0  0  0  0  0  0  0  0  0  0
  129.3879  132.8778  159.0193 N   0  0  0  0  0  0  0  0  0  0  0  0
  128.9841  132.8194  159.8993 H   0  0  0  0  0  0  0  0  0  0  0  0
  129.5042  131.8559  158.1070 C   0  0  0  0  0  0  0  0  0  0  0  0
  130.1278  132.3699  157.0182 C   0  0  0  0  0  0  0  0  0  0  0  0
  130.4688  131.6312  155.7777 C   0  0  0  0  0  0  0  0  0  0  0  0
  129.9405  132.0401  154.5542 C   0  0  0  0  0  0  0  0  0  0  0  0
  130.2631  131.3552  153.4017 C   0  0  0  0  0  0  0  0  0  0  0  0
  131.1049  130.2514  153.4606 C   0  0  0  0  0  0  0  0  0  0  0  0
  131.4256  129.5557  152.2924 N   0  0  0  0  0  0  0  0  0  0  0  0
  131.6288  129.8383  154.6803 C   0  0  0  0  0  0  0  0  0  0  0  0
  131.3136  130.5237  155.8346 C   0  0  0  0  0  0  0  0  0  0  0  0
  130.3802  133.6803  157.2620 N   0  0  0  0  0  0  0  0  0  0  0  0
  130.8159  134.2926  156.6487 H   0  0  0  0  0  0  0  0  0  0  0  0
  135.6096  137.5891  160.2615 H   0  0  0  0  0  0  0  0  0  0  0  0
  134.1046  136.8890  159.6186 H   0  0  0  0  0  0  0  0  0  0  0  0
  134.7580  138.3900  158.9193 H   0  0  0  0  0  0  0  0  0  0  0  0
  134.5352  140.5057  160.0894 H   0  0  0  0  0  0  0  0  0  0  0  0
  133.2298  141.8270  161.7055 H   0  0  0  0  0  0  0  0  0  0  0  0
  131.7945  140.6894  163.3519 H   0  0  0  0  0  0  0  0  0  0  0  0
  131.6644  138.2310  163.3813 H   0  0  0  0  0  0  0  0  0  0  0  0
  133.8831  136.0634  161.4178 H   0  0  0  0  0  0  0  0  0  0  0  0
  132.7361  136.1404  162.7765 H   0  0  0  0  0  0  0  0  0  0  0  0
  132.0310  135.8328  159.8076 H   0  0  0  0  0  0  0  0  0  0  0  0
  130.4078  136.0895  162.3593 H   0  0  0  0  0  0  0  0  0  0  0  0
  128.0138  136.6618  161.3716 H   0  0  0  0  0  0  0  0  0  0  0  0
  128.8279  137.4438  159.9954 H   0  0  0  0  0  0  0  0  0  0  0  0
  128.1551  136.9601  157.7157 H   0  0  0  0  0  0  0  0  0  0  0  0
  126.3431  136.2185  156.2223 H   0  0  0  0  0  0  0  0  0  0  0  0
  124.4596  134.9145  157.1253 H   0  0  0  0  0  0  0  0  0  0  0  0
  124.3929  134.3441  159.5198 H   0  0  0  0  0  0  0  0  0  0  0  0
  126.2095  135.0777  161.0112 H   0  0  0  0  0  0  0  0  0  0  0  0
  130.4419  135.9709  158.5780 H   0  0  0  0  0  0  0  0  0  0  0  0
  129.1643  130.8386  158.2334 H   0  0  0  0  0  0  0  0  0  0  0  0
  129.2823  132.8951  154.5084 H   0  0  0  0  0  0  0  0  0  0  0  0
  129.8575  131.6741  152.4530 H   0  0  0  0  0  0  0  0  0  0  0  0
  132.0137  128.7845  152.3332 H   0  0  0  0  0  0  0  0  0  0  0  0
  131.0607  129.8424  151.4413 H   0  0  0  0  0  0  0  0  0  0  0  0
  132.2829  128.9801  154.7240 H   0  0  0  0  0  0  0  0  0  0  0  0
  131.7211  130.2030  156.7820 H   0  0  0  0  0  0  0  0  0  0  0  0
  1  2  1  0
  1 35  1  0
  1 36  1  0
  1 37  1  0
  2  7  2  0
  2  3  1  0
  3  4  2  0
  3 38  1  0
  4  5  1  0
  4 39  1  0
  5  6  2  0
  5 40  1  0
  6  7  1  0
  6 41  1  0
  7  8  1  0
  8  9  1  0
  8 42  1  0
  8 43  1  0
  9 10  2  0
  9 44  1  0
 10 11  1  0
 10 45  1  0
 11 12  1  1
 11 13  1  0
 11 20  1  0
 13 14  1  0
 13 46  1  0
 13 47  1  0
 14 19  1  0
 14 15  2  0
 15 16  1  0
 15 48  1  0
 16 17  2  0
 16 49  1  0
 17 18  1  0
 17 50  1  0
 18 19  2  0
 18 51  1  0
 19 52  1  0
 20 53  1  0
 21 20  1  0
 21 33  2  0
 21 22  1  0
 22 23  1  0
 22 24  1  0
 24 25  2  0
 24 54  1  0
 25 26  1  0
 25 33  1  0
 26 32  1  0
 26 27  2  0
 27 28  1  0
 27 55  1  0
 28 29  2  0
 28 56  1  0
 29 30  1  0
 29 31  1  0
 30 57  1  0
 30 58  1  0
 31 32  2  0
 31 59  1  0
 32 60  1  0
 33 34  1  0
M  CHG  1  33   1
M  END
>  <DOCK_score>  (1) 
-61.583889

>  <SMILES>  (1) 
Cc1ccccc1CC=C[C@@H](Cc1ccccc1)Nc1[nH]cc(-c2ccc(N)cc2)[nH+]1

$$$$
