CCc1ccc(-c2c[nH]c(N[C@H](CC3=CCC3)Cc3ccccc3)[nH+]2)cc1
     RDKit          3D

 55 58  0  0  1  0  0  0  0  0999 V2000
  130.4877  128.7348  152.2383 C   0  0  0  0  0  0  0  0  0  0  0  0
  131.5889  129.7435  152.5708 C   0  0  0  0  0  0  0  0  0  0  0  0
  131.2030  130.5206  153.8030 C   0  0  0  0  0  0  0  0  0  0  0  0
  131.5704  130.0569  155.0529 C   0  0  0  0  0  0  0  0  0  0  0  0
  131.2248  130.7672  156.1846 C   0  0  0  0  0  0  0  0  0  0  0  0
  130.4941  131.9482  156.0667 C   0  0  0  0  0  0  0  0  0  0  0  0
  130.1148  132.7132  157.2796 C   0  0  0  0  0  0  0  0  0  0  0  0
  129.3581  132.2555  158.3076 C   0  0  0  0  0  0  0  0  0  0  0  0
  129.2540  133.2825  159.2140 N   0  0  0  0  0  0  0  0  0  0  0  0
  128.7724  133.2593  160.0557 H   0  0  0  0  0  0  0  0  0  0  0  0
  129.9508  134.3387  158.7129 C   0  0  0  0  0  0  0  0  0  0  0  0
  130.0940  135.5728  159.3234 N   0  0  0  0  0  0  0  0  0  0  0  0
  129.4646  135.8251  160.6221 C   0  0  2  0  0  0  0  0  0  0  0  0
  129.5641  134.9411  161.2519 H   0  0  0  0  0  0  0  0  0  0  0  0
  127.9817  136.1412  160.4173 C   0  0  0  0  0  0  0  0  0  0  0  0
  127.2377  135.9189  161.7088 C   0  0  0  0  0  0  0  0  0  0  0  0
  126.0188  135.5595  161.9751 C   0  0  0  0  0  0  0  0  0  0  0  0
  126.2087  135.6106  163.4604 C   0  0  0  0  0  0  0  0  0  0  0  0
  127.6400  136.0265  163.1481 C   0  0  0  0  0  0  0  0  0  0  0  0
  130.1506  137.0135  161.2989 C   0  0  0  0  0  0  0  0  0  0  0  0
  131.6112  136.7023  161.5006 C   0  0  0  0  0  0  0  0  0  0  0  0
  132.0340  136.0963  162.6689 C   0  0  0  0  0  0  0  0  0  0  0  0
  133.3732  135.8064  162.8517 C   0  0  0  0  0  0  0  0  0  0  0  0
  134.2910  136.1321  161.8707 C   0  0  0  0  0  0  0  0  0  0  0  0
  133.8690  136.7428  160.7046 C   0  0  0  0  0  0  0  0  0  0  0  0
  132.5292  137.0279  160.5195 C   0  0  0  0  0  0  0  0  0  0  0  0
  130.4686  133.9927  157.5596 N   0  0  0  0  0  0  0  0  0  0  0  0
  131.0154  134.5615  156.9953 H   0  0  0  0  0  0  0  0  0  0  0  0
  130.1216  132.4081  154.8048 C   0  0  0  0  0  0  0  0  0  0  0  0
  130.4777  131.6925  153.6796 C   0  0  0  0  0  0  0  0  0  0  0  0
  129.5525  129.2641  152.0561 H   0  0  0  0  0  0  0  0  0  0  0  0
  130.7668  128.1729  151.3470 H   0  0  0  0  0  0  0  0  0  0  0  0
  130.3597  128.0484  153.0753 H   0  0  0  0  0  0  0  0  0  0  0  0
  132.5239  129.2148  152.7525 H   0  0  0  0  0  0  0  0  0  0  0  0
  131.7168  130.4305  151.7334 H   0  0  0  0  0  0  0  0  0  0  0  0
  132.1325  129.1391  155.1434 H   0  0  0  0  0  0  0  0  0  0  0  0
  131.5162  130.4065  157.1599 H   0  0  0  0  0  0  0  0  0  0  0  0
  128.9207  131.2721  158.3965 H   0  0  0  0  0  0  0  0  0  0  0  0
  130.6113  136.2706  158.8914 H   0  0  0  0  0  0  0  0  0  0  0  0
  127.8710  137.1805  160.1084 H   0  0  0  0  0  0  0  0  0  0  0  0
  127.5741  135.4876  159.6460 H   0  0  0  0  0  0  0  0  0  0  0  0
  125.1729  135.3123  161.3508 H   0  0  0  0  0  0  0  0  0  0  0  0
  125.6194  136.3836  163.9535 H   0  0  0  0  0  0  0  0  0  0  0  0
  126.1306  134.6389  163.9482 H   0  0  0  0  0  0  0  0  0  0  0  0
  128.3878  135.2943  163.4524 H   0  0  0  0  0  0  0  0  0  0  0  0
  127.8823  137.0415  163.4630 H   0  0  0  0  0  0  0  0  0  0  0  0
  130.0509  137.8975  160.6692 H   0  0  0  0  0  0  0  0  0  0  0  0
  129.6824  137.2011  162.2653 H   0  0  0  0  0  0  0  0  0  0  0  0
  131.3176  135.8460  163.4372 H   0  0  0  0  0  0  0  0  0  0  0  0
  133.7030  135.3296  163.7628 H   0  0  0  0  0  0  0  0  0  0  0  0
  135.3379  135.9097  162.0154 H   0  0  0  0  0  0  0  0  0  0  0  0
  134.5861  136.9976  159.9382 H   0  0  0  0  0  0  0  0  0  0  0  0
  132.1994  137.5054  159.6087 H   0  0  0  0  0  0  0  0  0  0  0  0
  129.5552  133.3226  154.7076 H   0  0  0  0  0  0  0  0  0  0  0  0
  130.1893  132.0478  152.7013 H   0  0  0  0  0  0  0  0  0  0  0  0
  1  2  1  0
  1 31  1  0
  1 32  1  0
  1 33  1  0
  2  3  1  0
  2 34  1  0
  2 35  1  0
  3 30  2  0
  3  4  1  0
  4  5  2  0
  4 36  1  0
  5  6  1  0
  5 37  1  0
  6  7  1  0
  6 29  2  0
  7 27  1  0
  7  8  2  0
  8  9  1  0
  8 38  1  0
  9 10  1  0
  9 11  1  0
 11 12  1  0
 11 27  2  0
 12 13  1  0
 12 39  1  0
 13 14  1  1
 13 15  1  0
 13 20  1  0
 15 16  1  0
 15 40  1  0
 15 41  1  0
 16 19  1  0
 16 17  2  0
 17 18  1  0
 17 42  1  0
 18 19  1  0
 18 43  1  0
 18 44  1  0
 19 45  1  0
 19 46  1  0
 20 21  1  0
 20 47  1  0
 20 48  1  0
 21 26  1  0
 21 22  2  0
 22 23  1  0
 22 49  1  0
 23 24  2  0
 23 50  1  0
 24 25  1  0
 24 51  1  0
 25 26  2  0
 25 52  1  0
 26 53  1  0
 27 28  1  0
 29 30  1  0
 29 54  1  0
 30 55  1  0
M  CHG  1  27   1
M  END
>  <DOCK_score>  (1) 
-56.012932

>  <SMILES>  (1) 
CCc1ccc(-c2c[nH]c(N[C@H](CC3=CCC3)Cc3ccccc3)[nH+]2)cc1

$$$$
