O=C1CC[C@H](NC(NC2CCCCCC2)=[NH+]C2CC2)CN1
     RDKit          3D

 50 52  0  0  1  0  0  0  0  0999 V2000
  123.7566  134.1546  161.3060 O   0  0  0  0  0  0  0  0  0  0  0  0
  124.9535  134.3256  161.2107 C   0  0  0  0  0  0  0  0  0  0  0  0
  125.7986  133.1820  160.7278 C   0  0  0  0  0  0  0  0  0  0  0  0
  127.2658  133.4312  161.0857 C   0  0  0  0  0  0  0  0  0  0  0  0
  127.6364  134.8538  160.6490 C   0  0  2  0  0  0  0  0  0  0  0  0
  127.3650  134.9977  159.6032 H   0  0  0  0  0  0  0  0  0  0  0  0
  129.0766  135.0634  160.8165 N   0  0  0  0  0  0  0  0  0  0  0  0
  129.9380  134.7729  159.7852 C   0  0  0  0  0  0  0  0  0  0  0  0
  129.4480  134.2853  158.5968 N   0  0  0  0  0  0  0  0  0  0  0  0
  130.2690  133.3897  157.7782 C   0  0  0  0  0  0  0  0  0  0  0  0
  129.5055  133.0600  156.4792 C   0  0  0  0  0  0  0  0  0  0  0  0
  130.4966  132.5928  155.4477 C   0  0  0  0  0  0  0  0  0  0  0  0
  130.6362  131.0588  155.4165 C   0  0  0  0  0  0  0  0  0  0  0  0
  130.6663  130.4330  156.8240 C   0  0  0  0  0  0  0  0  0  0  0  0
  131.5051  131.2264  157.7891 C   0  0  0  0  0  0  0  0  0  0  0  0
  130.5844  132.1991  158.5537 C   0  0  0  0  0  0  0  0  0  0  0  0
  131.2194  134.9593  159.9343 N   0  0  0  0  0  0  0  0  0  0  0  0
  131.8273  134.7543  159.2068 H   0  0  0  0  0  0  0  0  0  0  0  0
  131.7415  135.4788  161.2007 C   0  0  0  0  0  0  0  0  0  0  0  0
  133.2156  135.2181  161.5172 C   0  0  0  0  0  0  0  0  0  0  0  0
  132.1237  134.4614  162.2777 C   0  0  0  0  0  0  0  0  0  0  0  0
  126.8683  135.8489  161.5198 C   0  0  0  0  0  0  0  0  0  0  0  0
  125.4488  135.5189  161.5409 N   0  0  0  0  0  0  0  0  0  0  0  0
  125.7002  133.0906  159.6461 H   0  0  0  0  0  0  0  0  0  0  0  0
  125.4625  132.2588  161.2000 H   0  0  0  0  0  0  0  0  0  0  0  0
  127.8978  132.7114  160.5655 H   0  0  0  0  0  0  0  0  0  0  0  0
  127.4033  133.3303  162.1622 H   0  0  0  0  0  0  0  0  0  0  0  0
  129.4223  135.4074  161.6550 H   0  0  0  0  0  0  0  0  0  0  0  0
  128.5587  134.5344  158.3002 H   0  0  0  0  0  0  0  0  0  0  0  0
  131.1974  133.8994  157.5207 H   0  0  0  0  0  0  0  0  0  0  0  0
  128.7785  132.2713  156.6721 H   0  0  0  0  0  0  0  0  0  0  0  0
  128.9946  133.9526  156.1182 H   0  0  0  0  0  0  0  0  0  0  0  0
  131.4695  133.0313  155.6696 H   0  0  0  0  0  0  0  0  0  0  0  0
  130.1723  132.9375  154.4657 H   0  0  0  0  0  0  0  0  0  0  0  0
  131.5590  130.8005  154.8971 H   0  0  0  0  0  0  0  0  0  0  0  0
  129.7951  130.6405  154.8637 H   0  0  0  0  0  0  0  0  0  0  0  0
  131.0708  129.4234  156.7524 H   0  0  0  0  0  0  0  0  0  0  0  0
  129.6473  130.3763  157.2066 H   0  0  0  0  0  0  0  0  0  0  0  0
  132.2593  131.7907  157.2406 H   0  0  0  0  0  0  0  0  0  0  0  0
  131.9899  130.5508  158.4939 H   0  0  0  0  0  0  0  0  0  0  0  0
  131.0783  132.5001  159.4775 H   0  0  0  0  0  0  0  0  0  0  0  0
  129.6565  131.6844  158.8032 H   0  0  0  0  0  0  0  0  0  0  0  0
  131.3156  136.4261  161.5317 H   0  0  0  0  0  0  0  0  0  0  0  0
  133.7968  134.6600  160.7830 H   0  0  0  0  0  0  0  0  0  0  0  0
  133.7594  135.9935  162.0566 H   0  0  0  0  0  0  0  0  0  0  0  0
  131.9495  134.7394  163.3171 H   0  0  0  0  0  0  0  0  0  0  0  0
  131.9862  133.4056  162.0440 H   0  0  0  0  0  0  0  0  0  0  0  0
  127.2609  135.8160  162.5362 H   0  0  0  0  0  0  0  0  0  0  0  0
  126.9987  136.8541  161.1189 H   0  0  0  0  0  0  0  0  0  0  0  0
  124.8253  136.2108  161.8119 H   0  0  0  0  0  0  0  0  0  0  0  0
  1  2  2  0
  2 23  1  0
  2  3  1  0
  3  4  1  0
  3 24  1  0
  3 25  1  0
  4  5  1  0
  4 26  1  0
  4 27  1  0
  5  6  1  6
  5  7  1  0
  5 22  1  0
  7 28  1  0
  8  7  1  0
  8  9  1  0
  8 17  2  0
  9 10  1  0
  9 29  1  0
 10 16  1  0
 10 11  1  0
 10 30  1  0
 11 12  1  0
 11 31  1  0
 11 32  1  0
 12 13  1  0
 12 33  1  0
 12 34  1  0
 13 14  1  0
 13 35  1  0
 13 36  1  0
 14 15  1  0
 14 37  1  0
 14 38  1  0
 15 16  1  0
 15 39  1  0
 15 40  1  0
 16 41  1  0
 16 42  1  0
 17 18  1  0
 17 19  1  0
 19 21  1  0
 19 20  1  0
 19 43  1  0
 20 21  1  0
 20 44  1  0
 20 45  1  0
 21 46  1  0
 21 47  1  0
 22 23  1  0
 22 48  1  0
 22 49  1  0
 23 50  1  0
M  CHG  1  17   1
M  END
>  <DOCK_score>  (1) 
-41.605865

>  <SMILES>  (1) 
O=C1CC[C@H](NC(NC2CCCCCC2)=[NH+]C2CC2)CN1

$$$$
