CCc1ccc(-c2c[nH]c(N[C@@H](C)CC3=C(c4ccc(CC(C)C)cc4)CCCC3)[nH+]2)cc1
     RDKit          3D

 73 76  0  0  1  0  0  0  0  0999 V2000
  130.4564  129.2843  151.8614 C   0  0  0  0  0  0  0  0  0  0  0  0
  131.7213  129.8006  152.5504 C   0  0  0  0  0  0  0  0  0  0  0  0
  131.3415  130.5433  153.8054 C   0  0  0  0  0  0  0  0  0  0  0  0
  131.2431  129.8643  155.0058 C   0  0  0  0  0  0  0  0  0  0  0  0
  130.9016  130.5412  156.1589 C   0  0  0  0  0  0  0  0  0  0  0  0
  130.6449  131.9103  156.1100 C   0  0  0  0  0  0  0  0  0  0  0  0
  130.2720  132.6423  157.3451 C   0  0  0  0  0  0  0  0  0  0  0  0
  129.6108  132.1255  158.4102 C   0  0  0  0  0  0  0  0  0  0  0  0
  129.4742  133.1407  159.3255 N   0  0  0  0  0  0  0  0  0  0  0  0
  129.0422  133.0789  160.1918 H   0  0  0  0  0  0  0  0  0  0  0  0
  130.0564  134.2492  158.7924 C   0  0  0  0  0  0  0  0  0  0  0  0
  130.1335  135.4908  159.3999 N   0  0  0  0  0  0  0  0  0  0  0  0
  129.5572  135.6917  160.7317 C   0  0  1  0  0  0  0  0  0  0  0  0
  128.6088  135.1589  160.8014 H   0  0  0  0  0  0  0  0  0  0  0  0
  130.5223  135.1559  161.7912 C   0  0  0  0  0  0  0  0  0  0  0  0
  129.3214  137.1853  160.9653 C   0  0  0  0  0  0  0  0  0  0  0  0
  128.7285  137.3921  162.3353 C   0  0  0  0  0  0  0  0  0  0  0  0
  129.3925  138.1326  163.1894 C   0  0  0  0  0  0  0  0  0  0  0  0
  130.6736  138.7236  162.7489 C   0  0  0  0  0  0  0  0  0  0  0  0
  131.8681  138.0275  162.9380 C   0  0  0  0  0  0  0  0  0  0  0  0
  133.0601  138.5826  162.5202 C   0  0  0  0  0  0  0  0  0  0  0  0
  133.0738  139.8310  161.9241 C   0  0  0  0  0  0  0  0  0  0  0  0
  134.3801  140.4337  161.4754 C   0  0  0  0  0  0  0  0  0  0  0  0
  134.6617  140.0220  160.0289 C   0  0  0  0  0  0  0  0  0  0  0  0
  135.9879  140.6340  159.5734 C   0  0  0  0  0  0  0  0  0  0  0  0
  134.7465  138.4970  159.9401 C   0  0  0  0  0  0  0  0  0  0  0  0
  131.8937  140.5287  161.7385 C   0  0  0  0  0  0  0  0  0  0  0  0
  130.6944  139.9825  162.1476 C   0  0  0  0  0  0  0  0  0  0  0  0
  128.9256  138.4197  164.5867 C   0  0  0  0  0  0  0  0  0  0  0  0
  127.4361  138.0967  164.7227 C   0  0  0  0  0  0  0  0  0  0  0  0
  127.1889  136.6931  164.1563 C   0  0  0  0  0  0  0  0  0  0  0  0
  127.4158  136.7330  162.6437 C   0  0  0  0  0  0  0  0  0  0  0  0
  130.5372  133.9460  157.6114 N   0  0  0  0  0  0  0  0  0  0  0  0
  131.0054  134.5567  157.0209 H   0  0  0  0  0  0  0  0  0  0  0  0
  130.7403  132.5890  154.8965 C   0  0  0  0  0  0  0  0  0  0  0  0
  131.0882  131.9029  153.7506 C   0  0  0  0  0  0  0  0  0  0  0  0
  130.7308  128.7466  150.9539 H   0  0  0  0  0  0  0  0  0  0  0  0
  129.9242  128.6126  152.5349 H   0  0  0  0  0  0  0  0  0  0  0  0
  129.8133  130.1261  151.6046 H   0  0  0  0  0  0  0  0  0  0  0  0
  132.3643  128.9588  152.8073 H   0  0  0  0  0  0  0  0  0  0  0  0
  132.2535  130.4723  151.8769 H   0  0  0  0  0  0  0  0  0  0  0  0
  131.4376  128.8026  155.0415 H   0  0  0  0  0  0  0  0  0  0  0  0
  130.8295  130.0104  157.0967 H   0  0  0  0  0  0  0  0  0  0  0  0
  129.2588  131.1102  158.5181 H   0  0  0  0  0  0  0  0  0  0  0  0
  130.5691  136.2277  158.9438 H   0  0  0  0  0  0  0  0  0  0  0  0
  130.0934  135.3053  162.7820 H   0  0  0  0  0  0  0  0  0  0  0  0
  130.6901  134.0918  161.6247 H   0  0  0  0  0  0  0  0  0  0  0  0
  131.4706  135.6887  161.7215 H   0  0  0  0  0  0  0  0  0  0  0  0
  130.2697  137.7180  160.8957 H   0  0  0  0  0  0  0  0  0  0  0  0
  128.6339  137.5671  160.2105 H   0  0  0  0  0  0  0  0  0  0  0  0
  131.8591  137.0547  163.4072 H   0  0  0  0  0  0  0  0  0  0  0  0
  133.9849  138.0433  162.6624 H   0  0  0  0  0  0  0  0  0  0  0  0
  134.3196  141.5202  161.5386 H   0  0  0  0  0  0  0  0  0  0  0  0
  135.1848  140.0767  162.1180 H   0  0  0  0  0  0  0  0  0  0  0  0
  133.8570  140.3792  159.3863 H   0  0  0  0  0  0  0  0  0  0  0  0
  135.9275  141.7204  159.6367 H   0  0  0  0  0  0  0  0  0  0  0  0
  136.7926  140.2768  160.2161 H   0  0  0  0  0  0  0  0  0  0  0  0
  136.1886  140.3407  158.5430 H   0  0  0  0  0  0  0  0  0  0  0  0
  133.8016  138.0610  160.2645 H   0  0  0  0  0  0  0  0  0  0  0  0
  134.9472  138.2036  158.9096 H   0  0  0  0  0  0  0  0  0  0  0  0
  135.5512  138.1398  160.5827 H   0  0  0  0  0  0  0  0  0  0  0  0
  131.9111  141.5029  161.2729 H   0  0  0  0  0  0  0  0  0  0  0  0
  129.7739  140.5284  162.0028 H   0  0  0  0  0  0  0  0  0  0  0  0
  129.0894  139.4726  164.8158 H   0  0  0  0  0  0  0  0  0  0  0  0
  129.4937  137.8053  165.2852 H   0  0  0  0  0  0  0  0  0  0  0  0
  126.8507  138.8259  164.1626 H   0  0  0  0  0  0  0  0  0  0  0  0
  127.1501  138.1230  165.7742 H   0  0  0  0  0  0  0  0  0  0  0  0
  126.1632  136.3893  164.3649 H   0  0  0  0  0  0  0  0  0  0  0  0
  127.8829  135.9868  164.6121 H   0  0  0  0  0  0  0  0  0  0  0  0
  126.6097  137.2953  162.1721 H   0  0  0  0  0  0  0  0  0  0  0  0
  127.4222  135.7151  162.2541 H   0  0  0  0  0  0  0  0  0  0  0  0
  130.5422  133.6498  154.8527 H   0  0  0  0  0  0  0  0  0  0  0  0
  131.1622  132.4278  152.8096 H   0  0  0  0  0  0  0  0  0  0  0  0
  1  2  1  0
  1 37  1  0
  1 38  1  0
  1 39  1  0
  2  3  1  0
  2 40  1  0
  2 41  1  0
  3 36  2  0
  3  4  1  0
  4  5  2  0
  4 42  1  0
  5  6  1  0
  5 43  1  0
  6  7  1  0
  6 35  2  0
  7 33  1  0
  7  8  2  0
  8  9  1  0
  8 44  1  0
  9 10  1  0
  9 11  1  0
 11 12  1  0
 11 33  2  0
 12 13  1  0
 12 45  1  0
 13 14  1  6
 13 15  1  0
 13 16  1  0
 15 46  1  0
 15 47  1  0
 15 48  1  0
 16 17  1  0
 16 49  1  0
 16 50  1  0
 17 32  1  0
 17 18  2  0
 18 19  1  0
 18 29  1  0
 19 28  1  0
 19 20  2  0
 20 21  1  0
 20 51  1  0
 21 22  2  0
 21 52  1  0
 22 23  1  0
 22 27  1  0
 23 24  1  0
 23 53  1  0
 23 54  1  0
 24 25  1  0
 24 26  1  0
 24 55  1  0
 25 56  1  0
 25 57  1  0
 25 58  1  0
 26 59  1  0
 26 60  1  0
 26 61  1  0
 27 28  2  0
 27 62  1  0
 28 63  1  0
 29 30  1  0
 29 64  1  0
 29 65  1  0
 30 31  1  0
 30 66  1  0
 30 67  1  0
 31 32  1  0
 31 68  1  0
 31 69  1  0
 32 70  1  0
 32 71  1  0
 33 34  1  0
 35 36  1  0
 35 72  1  0
 36 73  1  0
M  CHG  1  33   1
M  END
>  <DOCK_score>  (1) 
-57.890816

>  <SMILES>  (1) 
CCc1ccc(-c2c[nH]c(N[C@@H](C)CC3=C(c4ccc(CC(C)C)cc4)CCCC3)[nH+]2)cc1

$$$$
