CCc1ccc(-c2c[nH]c(N[C@@H](Cc3c[nH]c4ccc(O)cc34)C3=CCC3)[nH+]2)cc1
     RDKit          3D

 57 61  0  0  1  0  0  0  0  0999 V2000
  130.5512  128.4086  151.5672 C   0  0  0  0  0  0  0  0  0  0  0  0
  131.6029  129.4704  151.8944 C   0  0  0  0  0  0  0  0  0  0  0  0
  131.2340  130.1635  153.1808 C   0  0  0  0  0  0  0  0  0  0  0  0
  131.6945  129.6677  154.3867 C   0  0  0  0  0  0  0  0  0  0  0  0
  131.3646  130.3015  155.5676 C   0  0  0  0  0  0  0  0  0  0  0  0
  130.5563  131.4366  155.5439 C   0  0  0  0  0  0  0  0  0  0  0  0
  130.1937  132.1189  156.8101 C   0  0  0  0  0  0  0  0  0  0  0  0
  129.5218  131.5663  157.8504 C   0  0  0  0  0  0  0  0  0  0  0  0
  129.4010  132.5417  158.8101 N   0  0  0  0  0  0  0  0  0  0  0  0
  128.9665  132.4486  159.6723 H   0  0  0  0  0  0  0  0  0  0  0  0
  130.0033  133.6628  158.3279 C   0  0  0  0  0  0  0  0  0  0  0  0
  130.1006  134.8743  158.9905 N   0  0  0  0  0  0  0  0  0  0  0  0
  129.0596  135.2757  159.9398 C   0  0  1  0  0  0  0  0  0  0  0  0
  128.9971  134.5410  160.7425 H   0  0  0  0  0  0  0  0  0  0  0  0
  129.4062  136.6451  160.5278 C   0  0  0  0  0  0  0  0  0  0  0  0
  130.4302  136.4780  161.6207 C   0  0  0  0  0  0  0  0  0  0  0  0
  131.7645  136.4946  161.4739 C   0  0  0  0  0  0  0  0  0  0  0  0
  132.3696  136.3150  162.6876 N   0  0  0  0  0  0  0  0  0  0  0  0
  133.3281  136.2922  162.8346 H   0  0  0  0  0  0  0  0  0  0  0  0
  131.4134  136.1647  163.6699 C   0  0  0  0  0  0  0  0  0  0  0  0
  131.4800  135.9542  165.0432 C   0  0  0  0  0  0  0  0  0  0  0  0
  130.3219  135.8413  165.7792 C   0  0  0  0  0  0  0  0  0  0  0  0
  129.0772  135.9356  165.1619 C   0  0  0  0  0  0  0  0  0  0  0  0
  127.9430  135.8222  165.9038 O   0  0  0  0  0  0  0  0  0  0  0  0
  128.9897  136.1443  163.8002 C   0  0  0  0  0  0  0  0  0  0  0  0
  130.1581  136.2605  163.0436 C   0  0  0  0  0  0  0  0  0  0  0  0
  127.7340  135.3558  159.2276 C   0  0  0  0  0  0  0  0  0  0  0  0
  127.4050  135.6359  158.0033 C   0  0  0  0  0  0  0  0  0  0  0  0
  125.9351  135.4685  158.2411 C   0  0  0  0  0  0  0  0  0  0  0  0
  126.3214  135.1345  159.6756 C   0  0  0  0  0  0  0  0  0  0  0  0
  130.4808  133.4045  157.1349 N   0  0  0  0  0  0  0  0  0  0  0  0
  130.9606  134.0329  156.5730 H   0  0  0  0  0  0  0  0  0  0  0  0
  130.0903  131.9286  154.3260 C   0  0  0  0  0  0  0  0  0  0  0  0
  130.4313  131.2901  153.1509 C   0  0  0  0  0  0  0  0  0  0  0  0
  130.5102  127.6776  152.3748 H   0  0  0  0  0  0  0  0  0  0  0  0
  129.5764  128.8838  151.4576 H   0  0  0  0  0  0  0  0  0  0  0  0
  130.8179  127.9074  150.6368 H   0  0  0  0  0  0  0  0  0  0  0  0
  132.5774  128.9958  152.0036 H   0  0  0  0  0  0  0  0  0  0  0  0
  131.6436  130.2019  151.0864 H   0  0  0  0  0  0  0  0  0  0  0  0
  132.3168  128.7853  154.4043 H   0  0  0  0  0  0  0  0  0  0  0  0
  131.7286  129.9161  156.5085 H   0  0  0  0  0  0  0  0  0  0  0  0
  129.1521  130.5534  157.9123 H   0  0  0  0  0  0  0  0  0  0  0  0
  130.8582  135.4574  158.8262 H   0  0  0  0  0  0  0  0  0  0  0  0
  129.8120  137.2848  159.7442 H   0  0  0  0  0  0  0  0  0  0  0  0
  128.5062  137.1018  160.9399 H   0  0  0  0  0  0  0  0  0  0  0  0
  132.2833  136.6319  160.5367 H   0  0  0  0  0  0  0  0  0  0  0  0
  132.4401  135.8799  165.5322 H   0  0  0  0  0  0  0  0  0  0  0  0
  130.3794  135.6775  166.8452 H   0  0  0  0  0  0  0  0  0  0  0  0
  128.1025  135.6782  166.8466 H   0  0  0  0  0  0  0  0  0  0  0  0
  128.0238  136.2177  163.3227 H   0  0  0  0  0  0  0  0  0  0  0  0
  127.9826  135.8957  157.1286 H   0  0  0  0  0  0  0  0  0  0  0  0
  125.3643  136.3915  158.1386 H   0  0  0  0  0  0  0  0  0  0  0  0
  125.4937  134.6322  157.6992 H   0  0  0  0  0  0  0  0  0  0  0  0
  126.1061  134.1047  159.9612 H   0  0  0  0  0  0  0  0  0  0  0  0
  125.9719  135.8631  160.4071 H   0  0  0  0  0  0  0  0  0  0  0  0
  129.4635  132.8079  154.3017 H   0  0  0  0  0  0  0  0  0  0  0  0
  130.0705  131.6704  152.2066 H   0  0  0  0  0  0  0  0  0  0  0  0
  1  2  1  0
  1 35  1  0
  1 36  1  0
  1 37  1  0
  2  3  1  0
  2 38  1  0
  2 39  1  0
  3 34  2  0
  3  4  1  0
  4  5  2  0
  4 40  1  0
  5  6  1  0
  5 41  1  0
  6  7  1  0
  6 33  2  0
  7 31  1  0
  7  8  2  0
  8  9  1  0
  8 42  1  0
  9 10  1  0
  9 11  1  0
 11 12  1  0
 11 31  2  0
 12 13  1  0
 12 43  1  0
 13 14  1  1
 13 15  1  0
 13 27  1  0
 15 16  1  0
 15 44  1  0
 15 45  1  0
 16 26  1  0
 16 17  2  0
 17 18  1  0
 17 46  1  0
 18 19  1  0
 18 20  1  0
 20 26  2  0
 20 21  1  0
 21 22  2  0
 21 47  1  0
 22 23  1  0
 22 48  1  0
 23 24  1  0
 23 25  2  0
 24 49  1  0
 25 26  1  0
 25 50  1  0
 27 30  1  0
 27 28  2  0
 28 29  1  0
 28 51  1  0
 29 30  1  0
 29 52  1  0
 29 53  1  0
 30 54  1  0
 30 55  1  0
 31 32  1  0
 33 34  1  0
 33 56  1  0
 34 57  1  0
M  CHG  1  31   1
M  END
>  <DOCK_score>  (1) 
-55.987377

>  <SMILES>  (1) 
CCc1ccc(-c2c[nH]c(N[C@@H](Cc3c[nH]c4ccc(O)cc34)C3=CCC3)[nH+]2)cc1

$$$$
