O[C@@H](c1ccccc1)[C@H](CC1=CCCCC1)Nc1[nH]cc(-c2ccc(-c3ccccc3)cc2)[nH+]1
     RDKit          3D

 66 70  0  0  1  0  0  0  0  0999 V2000
  130.6215  137.5486  160.4461 O   0  0  0  0  0  0  0  0  0  0  0  0
  130.6141  136.3078  161.1548 C   0  0  1  0  0  0  0  0  0  0  0  0
  130.5052  136.4996  162.2223 H   0  0  0  0  0  0  0  0  0  0  0  0
  129.4618  135.4629  160.6760 C   0  0  0  0  0  0  0  0  0  0  0  0
  128.8598  134.5637  161.5362 C   0  0  0  0  0  0  0  0  0  0  0  0
  127.8002  133.7915  161.0983 C   0  0  0  0  0  0  0  0  0  0  0  0
  127.3479  133.9126  159.7975 C   0  0  0  0  0  0  0  0  0  0  0  0
  127.9534  134.8079  158.9359 C   0  0  0  0  0  0  0  0  0  0  0  0
  129.0104  135.5829  159.3750 C   0  0  0  0  0  0  0  0  0  0  0  0
  131.9291  135.5678  160.9012 C   0  0  2  0  0  0  0  0  0  0  0  0
  131.9234  134.6212  161.4418 H   0  0  0  0  0  0  0  0  0  0  0  0
  133.0990  136.4256  161.3872 C   0  0  0  0  0  0  0  0  0  0  0  0
  133.2347  136.2895  162.8820 C   0  0  0  0  0  0  0  0  0  0  0  0
  132.5801  137.1197  163.6290 C   0  0  0  0  0  0  0  0  0  0  0  0
  132.6230  137.1147  165.1290 C   0  0  0  0  0  0  0  0  0  0  0  0
  133.1740  135.7803  165.6361 C   0  0  0  0  0  0  0  0  0  0  0  0
  134.4701  135.4705  164.8766 C   0  0  0  0  0  0  0  0  0  0  0  0
  134.1154  135.1961  163.4119 C   0  0  0  0  0  0  0  0  0  0  0  0
  132.0755  135.3100  159.4666 N   0  0  0  0  0  0  0  0  0  0  0  0
  131.5796  134.1390  158.9195 C   0  0  0  0  0  0  0  0  0  0  0  0
  130.9398  133.1527  159.6053 N   0  0  0  0  0  0  0  0  0  0  0  0
  130.7508  133.1439  160.5566 H   0  0  0  0  0  0  0  0  0  0  0  0
  130.6115  132.1718  158.7017 C   0  0  0  0  0  0  0  0  0  0  0  0
  131.0553  132.5887  157.4893 C   0  0  0  0  0  0  0  0  0  0  0  0
  130.9180  131.8531  156.2096 C   0  0  0  0  0  0  0  0  0  0  0  0
  130.2166  132.4251  155.1482 C   0  0  0  0  0  0  0  0  0  0  0  0
  130.0937  131.7438  153.9574 C   0  0  0  0  0  0  0  0  0  0  0  0
  130.6613  130.4777  153.8166 C   0  0  0  0  0  0  0  0  0  0  0  0
  130.5239  129.7419  152.5363 C   0  0  0  0  0  0  0  0  0  0  0  0
  130.5008  128.3483  152.5295 C   0  0  0  0  0  0  0  0  0  0  0  0
  130.3679  127.6689  151.3355 C   0  0  0  0  0  0  0  0  0  0  0  0
  130.2683  128.3677  150.1464 C   0  0  0  0  0  0  0  0  0  0  0  0
  130.2960  129.7512  150.1465 C   0  0  0  0  0  0  0  0  0  0  0  0
  130.4231  130.4413  151.3347 C   0  0  0  0  0  0  0  0  0  0  0  0
  131.3577  129.9034  154.8797 C   0  0  0  0  0  0  0  0  0  0  0  0
  131.4854  130.5866  156.0687 C   0  0  0  0  0  0  0  0  0  0  0  0
  131.6495  133.7972  157.6562 N   0  0  0  0  0  0  0  0  0  0  0  0
  132.0570  134.3257  156.9523 H   0  0  0  0  0  0  0  0  0  0  0  0
  130.7157  137.4541  159.4883 H   0  0  0  0  0  0  0  0  0  0  0  0
  129.2153  134.4667  162.5514 H   0  0  0  0  0  0  0  0  0  0  0  0
  127.3275  133.0917  161.7714 H   0  0  0  0  0  0  0  0  0  0  0  0
  126.5219  133.3073  159.4547 H   0  0  0  0  0  0  0  0  0  0  0  0
  127.6002  134.9023  157.9196 H   0  0  0  0  0  0  0  0  0  0  0  0
  129.4833  136.2825  158.7017 H   0  0  0  0  0  0  0  0  0  0  0  0
  134.0187  136.0916  160.9069 H   0  0  0  0  0  0  0  0  0  0  0  0
  132.9145  137.4694  161.1328 H   0  0  0  0  0  0  0  0  0  0  0  0
  131.9647  137.8619  163.1424 H   0  0  0  0  0  0  0  0  0  0  0  0
  133.2642  137.9253  165.4749 H   0  0  0  0  0  0  0  0  0  0  0  0
  131.6160  137.2616  165.5196 H   0  0  0  0  0  0  0  0  0  0  0  0
  133.3830  135.8520  166.7035 H   0  0  0  0  0  0  0  0  0  0  0  0
  132.4437  134.9908  165.4581 H   0  0  0  0  0  0  0  0  0  0  0  0
  135.1449  136.3241  164.9401 H   0  0  0  0  0  0  0  0  0  0  0  0
  134.9482  134.5924  165.3106 H   0  0  0  0  0  0  0  0  0  0  0  0
  133.5929  134.2425  163.3357 H   0  0  0  0  0  0  0  0  0  0  0  0
  135.0311  135.1522  162.8223 H   0  0  0  0  0  0  0  0  0  0  0  0
  132.5200  135.9598  158.8999 H   0  0  0  0  0  0  0  0  0  0  0  0
  130.0952  131.2473  158.9149 H   0  0  0  0  0  0  0  0  0  0  0  0
  129.7735  133.4039  155.2587 H   0  0  0  0  0  0  0  0  0  0  0  0
  129.5543  132.1885  153.1341 H   0  0  0  0  0  0  0  0  0  0  0  0
  130.5826  127.8012  153.4571 H   0  0  0  0  0  0  0  0  0  0  0  0
  130.3455  126.5892  151.3294 H   0  0  0  0  0  0  0  0  0  0  0  0
  130.1689  127.8315  149.2143 H   0  0  0  0  0  0  0  0  0  0  0  0
  130.2182  130.2921  149.2148 H   0  0  0  0  0  0  0  0  0  0  0  0
  130.4449  131.5210  151.3338 H   0  0  0  0  0  0  0  0  0  0  0  0
  131.7966  128.9226  154.7706 H   0  0  0  0  0  0  0  0  0  0  0  0
  132.0249  130.1419  156.8917 H   0  0  0  0  0  0  0  0  0  0  0  0
  1  2  1  0
  1 39  1  0
  2  3  1  1
  2  4  1  0
  2 10  1  0
  4  9  1  0
  4  5  2  0
  5  6  1  0
  5 40  1  0
  6  7  2  0
  6 41  1  0
  7  8  1  0
  7 42  1  0
  8  9  2  0
  8 43  1  0
  9 44  1  0
 10 11  1  1
 10 12  1  0
 10 19  1  0
 12 13  1  0
 12 45  1  0
 12 46  1  0
 13 18  1  0
 13 14  2  0
 14 15  1  0
 14 47  1  0
 15 16  1  0
 15 48  1  0
 15 49  1  0
 16 17  1  0
 16 50  1  0
 16 51  1  0
 17 18  1  0
 17 52  1  0
 17 53  1  0
 18 54  1  0
 18 55  1  0
 19 56  1  0
 20 19  1  0
 20 37  2  0
 20 21  1  0
 21 22  1  0
 21 23  1  0
 23 24  2  0
 23 57  1  0
 24 25  1  0
 24 37  1  0
 25 36  1  0
 25 26  2  0
 26 27  1  0
 26 58  1  0
 27 28  2  0
 27 59  1  0
 28 29  1  0
 28 35  1  0
 29 34  1  0
 29 30  2  0
 30 31  1  0
 30 60  1  0
 31 32  2  0
 31 61  1  0
 32 33  1  0
 32 62  1  0
 33 34  2  0
 33 63  1  0
 34 64  1  0
 35 36  2  0
 35 65  1  0
 36 66  1  0
 37 38  1  0
M  CHG  1  37   1
M  END
>  <DOCK_score>  (1) 
-63.948818

>  <SMILES>  (1) 
O[C@@H](c1ccccc1)[C@H](CC1=CCCCC1)Nc1[nH]cc(-c2ccc(-c3ccccc3)cc2)[nH+]1

$$$$
