CCc1ccc(-c2c[nH]c(Nc3cccc4c3CN(c3cccc5c3C[C@H](O)CC5)C4)[nH+]2)cc1
     RDKit          3D

 65 70  0  0  1  0  0  0  0  0999 V2000
  130.3377  128.5077  151.4338 C   0  0  0  0  0  0  0  0  0  0  0  0
  131.4170  129.5591  151.6998 C   0  0  0  0  0  0  0  0  0  0  0  0
  131.0861  130.3099  152.9639 C   0  0  0  0  0  0  0  0  0  0  0  0
  131.5580  129.8524  154.1806 C   0  0  0  0  0  0  0  0  0  0  0  0
  131.2622  130.5385  155.3408 C   0  0  0  0  0  0  0  0  0  0  0  0
  130.4773  131.6889  155.2862 C   0  0  0  0  0  0  0  0  0  0  0  0
  130.1516  132.4279  156.5304 C   0  0  0  0  0  0  0  0  0  0  0  0
  129.4768  131.9344  157.5985 C   0  0  0  0  0  0  0  0  0  0  0  0
  129.4006  132.9461  158.5239 N   0  0  0  0  0  0  0  0  0  0  0  0
  128.9777  132.8968  159.3955 H   0  0  0  0  0  0  0  0  0  0  0  0
  130.0235  134.0324  157.9902 C   0  0  0  0  0  0  0  0  0  0  0  0
  130.1619  135.2663  158.6049 N   0  0  0  0  0  0  0  0  0  0  0  0
  129.1927  135.7088  159.5098 C   0  0  0  0  0  0  0  0  0  0  0  0
  127.8747  135.8627  159.0981 C   0  0  0  0  0  0  0  0  0  0  0  0
  126.9199  136.3001  159.9945 C   0  0  0  0  0  0  0  0  0  0  0  0
  127.2741  136.5842  161.3012 C   0  0  0  0  0  0  0  0  0  0  0  0
  128.5838  136.4326  161.7148 C   0  0  0  0  0  0  0  0  0  0  0  0
  129.5443  135.9895  160.8230 C   0  0  0  0  0  0  0  0  0  0  0  0
  130.8698  135.9245  161.5468 C   0  0  0  0  0  0  0  0  0  0  0  0
  130.7006  136.7437  162.7685 N   0  0  0  0  0  0  0  0  0  0  0  0
  131.0928  138.0652  162.5434 C   0  0  0  0  0  0  0  0  0  0  0  0
  130.1653  138.9922  162.0928 C   0  0  0  0  0  0  0  0  0  0  0  0
  130.5557  140.2982  161.8717 C   0  0  0  0  0  0  0  0  0  0  0  0
  131.8651  140.6715  162.0973 C   0  0  0  0  0  0  0  0  0  0  0  0
  132.7995  139.7461  162.5454 C   0  0  0  0  0  0  0  0  0  0  0  0
  132.4142  138.4462  162.7788 C   0  0  0  0  0  0  0  0  0  0  0  0
  133.3676  137.3960  163.2858 C   0  0  0  0  0  0  0  0  0  0  0  0
  134.8144  137.8371  163.0736 C   0  0  2  0  0  0  0  0  0  0  0  0
  135.0423  137.8484  162.0078 H   0  0  0  0  0  0  0  0  0  0  0  0
  135.6961  136.9345  163.7446 O   0  0  0  0  0  0  0  0  0  0  0  0
  134.9795  139.2473  163.6522 C   0  0  0  0  0  0  0  0  0  0  0  0
  134.2133  140.2223  162.7543 C   0  0  0  0  0  0  0  0  0  0  0  0
  129.2498  136.6618  163.0526 C   0  0  0  0  0  0  0  0  0  0  0  0
  130.4709  133.7185  156.7990 N   0  0  0  0  0  0  0  0  0  0  0  0
  130.9535  134.3139  156.2044 H   0  0  0  0  0  0  0  0  0  0  0  0
  129.9998  132.1426  154.0579 C   0  0  0  0  0  0  0  0  0  0  0  0
  130.3063  131.4514  152.9034 C   0  0  0  0  0  0  0  0  0  0  0  0
  130.2964  127.8101  152.2705 H   0  0  0  0  0  0  0  0  0  0  0  0
  129.3711  128.9989  151.3222 H   0  0  0  0  0  0  0  0  0  0  0  0
  130.5771  127.9646  150.5195 H   0  0  0  0  0  0  0  0  0  0  0  0
  132.3833  129.0683  151.8112 H   0  0  0  0  0  0  0  0  0  0  0  0
  131.4580  130.2569  150.8630 H   0  0  0  0  0  0  0  0  0  0  0  0
  132.1628  128.9585  154.2223 H   0  0  0  0  0  0  0  0  0  0  0  0
  131.6349  130.1825  156.2900 H   0  0  0  0  0  0  0  0  0  0  0  0
  129.0782  130.9361  157.7023 H   0  0  0  0  0  0  0  0  0  0  0  0
  130.9312  135.8231  158.4073 H   0  0  0  0  0  0  0  0  0  0  0  0
  127.5975  135.6409  158.0782 H   0  0  0  0  0  0  0  0  0  0  0  0
  125.8951  136.4201  159.6752 H   0  0  0  0  0  0  0  0  0  0  0  0
  126.5247  136.9259  161.9999 H   0  0  0  0  0  0  0  0  0  0  0  0
  131.6630  136.3374  160.9236 H   0  0  0  0  0  0  0  0  0  0  0  0
  131.0998  134.8932  161.8139 H   0  0  0  0  0  0  0  0  0  0  0  0
  129.1426  138.6941  161.9152 H   0  0  0  0  0  0  0  0  0  0  0  0
  129.8378  141.0260  161.5231 H   0  0  0  0  0  0  0  0  0  0  0  0
  132.1665  141.6940  161.9237 H   0  0  0  0  0  0  0  0  0  0  0  0
  133.1931  137.2354  164.3496 H   0  0  0  0  0  0  0  0  0  0  0  0
  133.1937  136.4635  162.7488 H   0  0  0  0  0  0  0  0  0  0  0  0
  135.6308  136.0199  163.4377 H   0  0  0  0  0  0  0  0  0  0  0  0
  134.5795  139.2775  164.6656 H   0  0  0  0  0  0  0  0  0  0  0  0
  136.0356  139.5168  163.6664 H   0  0  0  0  0  0  0  0  0  0  0  0
  134.7107  140.3062  161.7881 H   0  0  0  0  0  0  0  0  0  0  0  0
  134.1957  141.2005  163.2349 H   0  0  0  0  0  0  0  0  0  0  0  0
  128.8990  137.5953  163.4927 H   0  0  0  0  0  0  0  0  0  0  0  0
  129.0428  135.8285  163.7241 H   0  0  0  0  0  0  0  0  0  0  0  0
  129.3908  133.0332  154.0096 H   0  0  0  0  0  0  0  0  0  0  0  0
  129.9371  131.8023  151.9510 H   0  0  0  0  0  0  0  0  0  0  0  0
  1  2  1  0
  1 38  1  0
  1 39  1  0
  1 40  1  0
  2  3  1  0
  2 41  1  0
  2 42  1  0
  3 37  2  0
  3  4  1  0
  4  5  2  0
  4 43  1  0
  5  6  1  0
  5 44  1  0
  6  7  1  0
  6 36  2  0
  7 34  1  0
  7  8  2  0
  8  9  1  0
  8 45  1  0
  9 10  1  0
  9 11  1  0
 11 12  1  0
 11 34  2  0
 12 13  1  0
 12 46  1  0
 13 18  1  0
 13 14  2  0
 14 15  1  0
 14 47  1  0
 15 16  2  0
 15 48  1  0
 16 17  1  0
 16 49  1  0
 17 33  1  0
 17 18  2  0
 18 19  1  0
 19 20  1  0
 19 50  1  0
 19 51  1  0
 20 21  1  0
 20 33  1  0
 21 26  1  0
 21 22  2  0
 22 23  1  0
 22 52  1  0
 23 24  2  0
 23 53  1  0
 24 25  1  0
 24 54  1  0
 25 32  1  0
 25 26  2  0
 26 27  1  0
 27 28  1  0
 27 55  1  0
 27 56  1  0
 28 29  1  6
 28 30  1  0
 28 31  1  0
 30 57  1  0
 31 32  1  0
 31 58  1  0
 31 59  1  0
 32 60  1  0
 32 61  1  0
 33 62  1  0
 33 63  1  0
 34 35  1  0
 36 37  1  0
 36 64  1  0
 37 65  1  0
M  CHG  1  34   1
M  END
>  <DOCK_score>  (1) 
-57.324947

>  <SMILES>  (1) 
CCc1ccc(-c2c[nH]c(Nc3cccc4c3CN(c3cccc5c3C[C@H](O)CC5)C4)[nH+]2)cc1

$$$$
