O=C1CC[C@H](NC(NC2CC(F)(F)C2)=[NH+][C@H]2COc3ccc(C4=C(CO)CC4)cc3C2)CN1
     RDKit          3D

 64 68  0  0  1  0  0  0  0  0999 V2000
  123.7696  133.6527  161.6785 O   0  0  0  0  0  0  0  0  0  0  0  0
  124.9277  133.8851  161.4028 C   0  0  0  0  0  0  0  0  0  0  0  0
  125.8029  132.7384  160.9853 C   0  0  0  0  0  0  0  0  0  0  0  0
  127.2758  133.1362  161.1071 C   0  0  0  0  0  0  0  0  0  0  0  0
  127.4692  134.4947  160.4226 C   0  0  2  0  0  0  0  0  0  0  0  0
  127.0659  134.4552  159.4108 H   0  0  0  0  0  0  0  0  0  0  0  0
  128.8967  134.8201  160.3702 N   0  0  0  0  0  0  0  0  0  0  0  0
  129.6517  134.4288  159.2900 C   0  0  0  0  0  0  0  0  0  0  0  0
  129.0672  133.7321  158.2589 N   0  0  0  0  0  0  0  0  0  0  0  0
  129.8719  133.3152  157.1078 C   0  0  0  0  0  0  0  0  0  0  0  0
  129.2719  132.1293  156.3342 C   0  0  0  0  0  0  0  0  0  0  0  0
  130.7088  131.5930  156.2012 C   0  0  0  0  0  0  0  0  0  0  0  0
  131.3761  132.0590  155.0633 F   0  0  0  0  0  0  0  0  0  0  0  0
  130.8097  130.2066  156.3604 F   0  0  0  0  0  0  0  0  0  0  0  0
  131.0396  132.3853  157.4770 C   0  0  0  0  0  0  0  0  0  0  0  0
  130.9218  134.7182  159.2434 N   0  0  0  0  0  0  0  0  0  0  0  0
  131.3568  134.8554  158.3875 H   0  0  0  0  0  0  0  0  0  0  0  0
  131.6920  134.8366  160.4840 C   0  0  1  0  0  0  0  0  0  0  0  0
  131.0421  134.6510  161.3392 H   0  0  0  0  0  0  0  0  0  0  0  0
  132.8414  133.8206  160.4778 C   0  0  0  0  0  0  0  0  0  0  0  0
  133.5074  133.8868  161.7394 O   0  0  0  0  0  0  0  0  0  0  0  0
  133.8685  135.1116  162.2033 C   0  0  0  0  0  0  0  0  0  0  0  0
  134.8240  135.1805  163.2149 C   0  0  0  0  0  0  0  0  0  0  0  0
  135.2124  136.3987  163.7248 C   0  0  0  0  0  0  0  0  0  0  0  0
  134.6541  137.5733  163.2172 C   0  0  0  0  0  0  0  0  0  0  0  0
  135.0690  138.8854  163.7557 C   0  0  0  0  0  0  0  0  0  0  0  0
  135.1441  140.0883  163.2291 C   0  0  0  0  0  0  0  0  0  0  0  0
  134.8382  140.6305  161.8568 C   0  0  0  0  0  0  0  0  0  0  0  0
  133.4725  141.0476  161.8028 O   0  0  0  0  0  0  0  0  0  0  0  0
  135.6442  140.7233  164.4913 C   0  0  0  0  0  0  0  0  0  0  0  0
  135.5508  139.3316  165.1031 C   0  0  0  0  0  0  0  0  0  0  0  0
  133.7039  137.5025  162.1997 C   0  0  0  0  0  0  0  0  0  0  0  0
  133.3154  136.2756  161.6949 C   0  0  0  0  0  0  0  0  0  0  0  0
  132.2923  136.2407  160.5876 C   0  0  0  0  0  0  0  0  0  0  0  0
  126.7288  135.5627  161.2287 C   0  0  0  0  0  0  0  0  0  0  0  0
  125.3558  135.1452  161.4873 N   0  0  0  0  0  0  0  0  0  0  0  0
  125.5836  132.4735  159.9509 H   0  0  0  0  0  0  0  0  0  0  0  0
  125.6051  131.8807  161.6283 H   0  0  0  0  0  0  0  0  0  0  0  0
  127.8998  132.3874  160.6190 H   0  0  0  0  0  0  0  0  0  0  0  0
  127.5500  133.2131  162.1592 H   0  0  0  0  0  0  0  0  0  0  0  0
  129.3090  135.3116  161.0977 H   0  0  0  0  0  0  0  0  0  0  0  0
  128.1221  133.5167  158.2937 H   0  0  0  0  0  0  0  0  0  0  0  0
  130.1631  134.1500  156.4702 H   0  0  0  0  0  0  0  0  0  0  0  0
  128.6237  131.4959  156.9398 H   0  0  0  0  0  0  0  0  0  0  0  0
  128.8206  132.4118  155.3831 H   0  0  0  0  0  0  0  0  0  0  0  0
  132.0134  132.8742  157.4472 H   0  0  0  0  0  0  0  0  0  0  0  0
  130.8763  131.8230  158.3964 H   0  0  0  0  0  0  0  0  0  0  0  0
  133.5423  134.0639  159.6793 H   0  0  0  0  0  0  0  0  0  0  0  0
  132.4437  132.8173  160.3249 H   0  0  0  0  0  0  0  0  0  0  0  0
  135.2591  134.2722  163.6048 H   0  0  0  0  0  0  0  0  0  0  0  0
  135.9501  136.4459  164.5122 H   0  0  0  0  0  0  0  0  0  0  0  0
  135.4866  141.4820  161.6497 H   0  0  0  0  0  0  0  0  0  0  0  0
  135.0105  139.8533  161.1122 H   0  0  0  0  0  0  0  0  0  0  0  0
  132.8378  140.3395  161.9777 H   0  0  0  0  0  0  0  0  0  0  0  0
  136.6615  141.1077  164.4169 H   0  0  0  0  0  0  0  0  0  0  0  0
  134.9484  141.4391  164.9289 H   0  0  0  0  0  0  0  0  0  0  0  0
  134.8001  139.2463  165.8887 H   0  0  0  0  0  0  0  0  0  0  0  0
  136.5152  138.9103  165.3867 H   0  0  0  0  0  0  0  0  0  0  0  0
  133.2698  138.4090  161.8046 H   0  0  0  0  0  0  0  0  0  0  0  0
  131.5007  136.9585  160.8024 H   0  0  0  0  0  0  0  0  0  0  0  0
  132.7707  136.5012  159.6434 H   0  0  0  0  0  0  0  0  0  0  0  0
  127.2411  135.7169  162.1784 H   0  0  0  0  0  0  0  0  0  0  0  0
  126.7246  136.4981  160.6690 H   0  0  0  0  0  0  0  0  0  0  0  0
  124.7128  135.8282  161.7340 H   0  0  0  0  0  0  0  0  0  0  0  0
  1  2  2  0
  2 36  1  0
  2  3  1  0
  3  4  1  0
  3 37  1  0
  3 38  1  0
  4  5  1  0
  4 39  1  0
  4 40  1  0
  5  6  1  6
  5  7  1  0
  5 35  1  0
  7 41  1  0
  8  7  1  0
  8  9  1  0
  8 16  2  0
  9 10  1  0
  9 42  1  0
 10 15  1  0
 10 11  1  0
 10 43  1  0
 11 12  1  0
 11 44  1  0
 11 45  1  0
 12 13  1  0
 12 14  1  0
 12 15  1  0
 15 46  1  0
 15 47  1  0
 16 17  1  0
 16 18  1  0
 18 19  1  1
 18 34  1  0
 18 20  1  0
 20 21  1  0
 20 48  1  0
 20 49  1  0
 21 22  1  0
 22 33  2  0
 22 23  1  0
 23 24  2  0
 23 50  1  0
 24 25  1  0
 24 51  1  0
 25 26  1  0
 25 32  2  0
 26 31  1  0
 26 27  2  0
 27 28  1  0
 27 30  1  0
 28 29  1  0
 28 52  1  0
 28 53  1  0
 29 54  1  0
 30 31  1  0
 30 55  1  0
 30 56  1  0
 31 57  1  0
 31 58  1  0
 32 33  1  0
 32 59  1  0
 33 34  1  0
 34 60  1  0
 34 61  1  0
 35 36  1  0
 35 62  1  0
 35 63  1  0
 36 64  1  0
M  CHG  1  16   1
M  END
>  <DOCK_score>  (1) 
-50.278084

>  <SMILES>  (1) 
O=C1CC[C@H](NC(NC2CC(F)(F)C2)=[NH+][C@H]2COc3ccc(C4=C(CO)CC4)cc3C2)CN1

$$$$
