CC=Cc1c(C)cccc1N1CC[NH+](C(c2ccccc2)c2ccccc2)CC1
     RDKit          3D

 60 63  0  0  1  0  0  0  0  0999 V2000
  132.6074  138.8824  165.1249 C   0  0  0  0  0  0  0  0  0  0  0  0
  132.9935  139.4095  163.7669 C   0  0  0  0  0  0  0  0  0  0  0  0
  134.0302  138.8889  163.1237 C   0  0  0  0  0  0  0  0  0  0  0  0
  134.4085  139.4055  161.7927 C   0  0  0  0  0  0  0  0  0  0  0  0
  135.3210  140.4546  161.6810 C   0  0  0  0  0  0  0  0  0  0  0  0
  135.9235  141.0653  162.9200 C   0  0  0  0  0  0  0  0  0  0  0  0
  135.6710  140.9328  160.4352 C   0  0  0  0  0  0  0  0  0  0  0  0
  135.1208  140.3758  159.2933 C   0  0  0  0  0  0  0  0  0  0  0  0
  134.2159  139.3364  159.3895 C   0  0  0  0  0  0  0  0  0  0  0  0
  133.8568  138.8405  160.6346 C   0  0  0  0  0  0  0  0  0  0  0  0
  132.9478  137.7880  160.7335 N   0  0  0  0  0  0  0  0  0  0  0  0
  133.4858  136.5675  160.1162 C   0  0  0  0  0  0  0  0  0  0  0  0
  132.4854  135.4238  160.2982 C   0  0  0  0  0  0  0  0  0  0  0  0
  131.2071  135.7871  159.6726 N   0  0  0  0  0  0  0  0  0  0  0  0
  131.3526  135.9664  158.6904 H   0  0  0  0  0  0  0  0  0  0  0  0
  130.2529  134.6816  159.8318 C   0  0  0  0  0  0  0  0  0  0  0  0
  128.9412  135.0540  159.1900 C   0  0  0  0  0  0  0  0  0  0  0  0
  127.7583  134.5378  159.6852 C   0  0  0  0  0  0  0  0  0  0  0  0
  126.5547  134.8831  159.0996 C   0  0  0  0  0  0  0  0  0  0  0  0
  126.5346  135.7365  158.0129 C   0  0  0  0  0  0  0  0  0  0  0  0
  127.7181  136.2486  157.5137 C   0  0  0  0  0  0  0  0  0  0  0  0
  128.9212  135.9073  158.1026 C   0  0  0  0  0  0  0  0  0  0  0  0
  130.8025  133.4443  159.1702 C   0  0  0  0  0  0  0  0  0  0  0  0
  130.5174  133.1859  157.8424 C   0  0  0  0  0  0  0  0  0  0  0  0
  131.0256  132.0533  157.2341 C   0  0  0  0  0  0  0  0  0  0  0  0
  131.8102  131.1738  157.9565 C   0  0  0  0  0  0  0  0  0  0  0  0
  132.0909  131.4295  159.2856 C   0  0  0  0  0  0  0  0  0  0  0  0
  131.5871  132.5648  159.8925 C   0  0  0  0  0  0  0  0  0  0  0  0
  130.6703  136.9934  160.3161 C   0  0  0  0  0  0  0  0  0  0  0  0
  131.6556  138.1501  160.1342 C   0  0  0  0  0  0  0  0  0  0  0  0
  133.4397  139.0147  165.8161 H   0  0  0  0  0  0  0  0  0  0  0  0
  131.7390  139.4286  165.4932 H   0  0  0  0  0  0  0  0  0  0  0  0
  132.3642  137.8227  165.0476 H   0  0  0  0  0  0  0  0  0  0  0  0
  132.4262  140.2111  163.3175 H   0  0  0  0  0  0  0  0  0  0  0  0
  134.5974  138.0873  163.5731 H   0  0  0  0  0  0  0  0  0  0  0  0
  136.8412  140.5362  163.1765 H   0  0  0  0  0  0  0  0  0  0  0  0
  136.1493  142.1154  162.7344 H   0  0  0  0  0  0  0  0  0  0  0  0
  135.2157  140.9862  163.7451 H   0  0  0  0  0  0  0  0  0  0  0  0
  136.3775  141.7451  160.3502 H   0  0  0  0  0  0  0  0  0  0  0  0
  135.4004  140.7563  158.3220 H   0  0  0  0  0  0  0  0  0  0  0  0
  133.7908  138.9068  158.4945 H   0  0  0  0  0  0  0  0  0  0  0  0
  133.6511  136.7403  159.0528 H   0  0  0  0  0  0  0  0  0  0  0  0
  134.4298  136.3043  160.5933 H   0  0  0  0  0  0  0  0  0  0  0  0
  132.3308  135.2423  161.3618 H   0  0  0  0  0  0  0  0  0  0  0  0
  132.8763  134.5212  159.8286 H   0  0  0  0  0  0  0  0  0  0  0  0
  130.0959  134.4871  160.8928 H   0  0  0  0  0  0  0  0  0  0  0  0
  127.7742  133.8675  160.5319 H   0  0  0  0  0  0  0  0  0  0  0  0
  125.6302  134.4827  159.4888 H   0  0  0  0  0  0  0  0  0  0  0  0
  125.5948  136.0028  157.5518 H   0  0  0  0  0  0  0  0  0  0  0  0
  127.7026  136.9148  156.6640 H   0  0  0  0  0  0  0  0  0  0  0  0
  129.8458  136.3071  157.7130 H   0  0  0  0  0  0  0  0  0  0  0  0
  129.9008  133.8707  157.2793 H   0  0  0  0  0  0  0  0  0  0  0  0
  130.8060  131.8533  156.1957 H   0  0  0  0  0  0  0  0  0  0  0  0
  132.2035  130.2866  157.4825 H   0  0  0  0  0  0  0  0  0  0  0  0
  132.7036  130.7421  159.8501 H   0  0  0  0  0  0  0  0  0  0  0  0
  131.8061  132.7643  160.9310 H   0  0  0  0  0  0  0  0  0  0  0  0
  130.5250  136.8038  161.3795 H   0  0  0  0  0  0  0  0  0  0  0  0
  129.7155  137.2543  159.8597 H   0  0  0  0  0  0  0  0  0  0  0  0
  131.2643  139.0415  160.6244 H   0  0  0  0  0  0  0  0  0  0  0  0
  131.7907  138.3490  159.0711 H   0  0  0  0  0  0  0  0  0  0  0  0
  1  2  1  0
  1 31  1  0
  1 32  1  0
  1 33  1  0
  2  3  2  0
  2 34  1  0
  3  4  1  0
  3 35  1  0
  4 10  2  0
  4  5  1  0
  5  6  1  0
  5  7  2  0
  6 36  1  0
  6 37  1  0
  6 38  1  0
  7  8  1  0
  7 39  1  0
  8  9  2  0
  8 40  1  0
  9 10  1  0
  9 41  1  0
 10 11  1  0
 11 30  1  0
 11 12  1  0
 12 13  1  0
 12 42  1  0
 12 43  1  0
 13 14  1  0
 13 44  1  0
 13 45  1  0
 14 15  1  0
 14 16  1  0
 14 29  1  0
 16 17  1  0
 16 23  1  0
 16 46  1  0
 17 22  1  0
 17 18  2  0
 18 19  1  0
 18 47  1  0
 19 20  2  0
 19 48  1  0
 20 21  1  0
 20 49  1  0
 21 22  2  0
 21 50  1  0
 22 51  1  0
 23 28  1  0
 23 24  2  0
 24 25  1  0
 24 52  1  0
 25 26  2  0
 25 53  1  0
 26 27  1  0
 26 54  1  0
 27 28  2  0
 27 55  1  0
 28 56  1  0
 29 30  1  0
 29 57  1  0
 29 58  1  0
 30 59  1  0
 30 60  1  0
M  CHG  1  14   1
M  END
>  <DOCK_score>  (1) 
-55.939339

>  <SMILES>  (1) 
CC=Cc1c(C)cccc1N1CC[NH+](C(c2ccccc2)c2ccccc2)CC1

$$$$
