O=C1CC[C@H]([NH+]=C(NC2CC2)N[C@H]2CCCc3ccccc3C2)CN1
     RDKit          3D

 54 57  0  0  1  0  0  0  0  0999 V2000
  125.2900  136.1845  165.1473 O   0  0  0  0  0  0  0  0  0  0  0  0
  126.3185  136.2894  164.5135 C   0  0  0  0  0  0  0  0  0  0  0  0
  127.6058  135.8906  165.1763 C   0  0  0  0  0  0  0  0  0  0  0  0
  128.7911  136.4883  164.4139 C   0  0  0  0  0  0  0  0  0  0  0  0
  128.6092  136.1862  162.9216 C   0  0  2  0  0  0  0  0  0  0  0  0
  128.4377  135.1190  162.7802 H   0  0  0  0  0  0  0  0  0  0  0  0
  129.8106  136.5923  162.1880 N   0  0  0  0  0  0  0  0  0  0  0  0
  130.3480  137.3329  162.5096 H   0  0  0  0  0  0  0  0  0  0  0  0
  130.1571  135.9584  161.1031 C   0  0  0  0  0  0  0  0  0  0  0  0
  131.2845  136.3394  160.4147 N   0  0  0  0  0  0  0  0  0  0  0  0
  132.4155  136.9329  161.1324 C   0  0  0  0  0  0  0  0  0  0  0  0
  133.5533  137.5207  160.2954 C   0  0  0  0  0  0  0  0  0  0  0  0
  133.7604  136.2077  161.0546 C   0  0  0  0  0  0  0  0  0  0  0  0
  129.3952  134.9086  160.6473 N   0  0  0  0  0  0  0  0  0  0  0  0
  130.0256  133.8142  159.9049 C   0  0  1  0  0  0  0  0  0  0  0  0
  130.8888  134.2000  159.3627 H   0  0  0  0  0  0  0  0  0  0  0  0
  130.4857  132.7508  160.8824 C   0  0  0  0  0  0  0  0  0  0  0  0
  131.3341  131.6567  160.2650 C   0  0  0  0  0  0  0  0  0  0  0  0
  130.5036  130.7914  159.3138 C   0  0  0  0  0  0  0  0  0  0  0  0
  130.4892  131.4539  157.9519 C   0  0  0  0  0  0  0  0  0  0  0  0
  131.1909  130.8794  156.9066 C   0  0  0  0  0  0  0  0  0  0  0  0
  131.1795  131.4829  155.6624 C   0  0  0  0  0  0  0  0  0  0  0  0
  130.4700  132.6534  155.4670 C   0  0  0  0  0  0  0  0  0  0  0  0
  129.7667  133.2201  156.5143 C   0  0  0  0  0  0  0  0  0  0  0  0
  129.7861  132.6143  157.7583 C   0  0  0  0  0  0  0  0  0  0  0  0
  129.0191  133.2395  158.9050 C   0  0  0  0  0  0  0  0  0  0  0  0
  127.4032  136.9724  162.4063 C   0  0  0  0  0  0  0  0  0  0  0  0
  126.2460  136.7524  163.2650 N   0  0  0  0  0  0  0  0  0  0  0  0
  127.6132  136.2573  166.2026 H   0  0  0  0  0  0  0  0  0  0  0  0
  127.6898  134.8038  165.1795 H   0  0  0  0  0  0  0  0  0  0  0  0
  129.7191  136.0398  164.7687 H   0  0  0  0  0  0  0  0  0  0  0  0
  128.8214  137.5667  164.5690 H   0  0  0  0  0  0  0  0  0  0  0  0
  131.3312  136.2153  159.4537 H   0  0  0  0  0  0  0  0  0  0  0  0
  132.1676  137.4347  162.0677 H   0  0  0  0  0  0  0  0  0  0  0  0
  133.4605  137.4659  159.2107 H   0  0  0  0  0  0  0  0  0  0  0  0
  134.0543  138.4090  160.6803 H   0  0  0  0  0  0  0  0  0  0  0  0
  134.3975  136.2329  161.9387 H   0  0  0  0  0  0  0  0  0  0  0  0
  133.8039  135.2892  160.4695 H   0  0  0  0  0  0  0  0  0  0  0  0
  128.4403  134.8926  160.8172 H   0  0  0  0  0  0  0  0  0  0  0  0
  131.0636  133.2328  161.6710 H   0  0  0  0  0  0  0  0  0  0  0  0
  129.6059  132.2906  161.3321 H   0  0  0  0  0  0  0  0  0  0  0  0
  132.1560  132.1102  159.7111 H   0  0  0  0  0  0  0  0  0  0  0  0
  131.7408  131.0286  161.0576 H   0  0  0  0  0  0  0  0  0  0  0  0
  130.9512  129.8008  159.2345 H   0  0  0  0  0  0  0  0  0  0  0  0
  129.4853  130.7041  159.6928 H   0  0  0  0  0  0  0  0  0  0  0  0
  131.7445  129.9651  157.0617 H   0  0  0  0  0  0  0  0  0  0  0  0
  131.7251  131.0394  154.8426 H   0  0  0  0  0  0  0  0  0  0  0  0
  130.4623  133.1237  154.4948 H   0  0  0  0  0  0  0  0  0  0  0  0
  129.2085  134.1322  156.3629 H   0  0  0  0  0  0  0  0  0  0  0  0
  128.3815  134.0385  158.5267 H   0  0  0  0  0  0  0  0  0  0  0  0
  128.4062  132.4813  159.3922 H   0  0  0  0  0  0  0  0  0  0  0  0
  127.6449  138.0352  162.3929 H   0  0  0  0  0  0  0  0  0  0  0  0
  127.1649  136.6445  161.3946 H   0  0  0  0  0  0  0  0  0  0  0  0
  125.3682  136.9551  162.9055 H   0  0  0  0  0  0  0  0  0  0  0  0
  1  2  2  0
  2 28  1  0
  2  3  1  0
  3  4  1  0
  3 29  1  0
  3 30  1  0
  4  5  1  0
  4 31  1  0
  4 32  1  0
  5  6  1  1
  5  7  1  0
  5 27  1  0
  7  8  1  0
  9  7  2  0
  9 10  1  0
  9 14  1  0
 10 11  1  0
 10 33  1  0
 11 13  1  0
 11 12  1  0
 11 34  1  0
 12 13  1  0
 12 35  1  0
 12 36  1  0
 13 37  1  0
 13 38  1  0
 14 15  1  0
 14 39  1  0
 15 16  1  6
 15 26  1  0
 15 17  1  0
 17 18  1  0
 17 40  1  0
 17 41  1  0
 18 19  1  0
 18 42  1  0
 18 43  1  0
 19 20  1  0
 19 44  1  0
 19 45  1  0
 20 25  2  0
 20 21  1  0
 21 22  2  0
 21 46  1  0
 22 23  1  0
 22 47  1  0
 23 24  2  0
 23 48  1  0
 24 25  1  0
 24 49  1  0
 25 26  1  0
 26 50  1  0
 26 51  1  0
 27 28  1  0
 27 52  1  0
 27 53  1  0
 28 54  1  0
M  CHG  1   7   1
M  END
>  <DOCK_score>  (1) 
-43.067722

>  <SMILES>  (1) 
O=C1CC[C@H]([NH+]=C(NC2CC2)N[C@H]2CCCc3ccccc3C2)CN1

$$$$
