Cc1[nH]c(C(=O)N2CC=C(COc3ccccc3)CC2)c(C)c1Nc1[nH]c2cccc(N)c2[nH+]1
     RDKit          3D

 63 67  0  0  1  0  0  0  0  0999 V2000
  128.8141  135.3273  158.8001 C   0  0  0  0  0  0  0  0  0  0  0  0
  129.3808  136.4777  159.5917 C   0  0  0  0  0  0  0  0  0  0  0  0
  130.4479  137.2378  159.2300 N   0  0  0  0  0  0  0  0  0  0  0  0
  130.9704  137.1297  158.4199 H   0  0  0  0  0  0  0  0  0  0  0  0
  130.6678  138.1823  160.2061 C   0  0  0  0  0  0  0  0  0  0  0  0
  131.7262  139.1973  160.2055 C   0  0  0  0  0  0  0  0  0  0  0  0
  131.4362  140.3790  160.2334 O   0  0  0  0  0  0  0  0  0  0  0  0
  133.0203  138.8215  160.1742 N   0  0  0  0  0  0  0  0  0  0  0  0
  133.4048  137.4030  160.1461 C   0  0  0  0  0  0  0  0  0  0  0  0
  134.5551  137.1806  161.0815 C   0  0  0  0  0  0  0  0  0  0  0  0
  135.2242  138.1402  161.6359 C   0  0  0  0  0  0  0  0  0  0  0  0
  136.3662  137.7638  162.5444 C   0  0  0  0  0  0  0  0  0  0  0  0
  136.1227  138.2801  163.8544 O   0  0  0  0  0  0  0  0  0  0  0  0
  137.0638  138.0277  164.8019 C   0  0  0  0  0  0  0  0  0  0  0  0
  136.8941  138.5041  166.0938 C   0  0  0  0  0  0  0  0  0  0  0  0
  137.8495  138.2417  167.0564 C   0  0  0  0  0  0  0  0  0  0  0  0
  138.9792  137.5139  166.7307 C   0  0  0  0  0  0  0  0  0  0  0  0
  139.1533  137.0430  165.4424 C   0  0  0  0  0  0  0  0  0  0  0  0
  138.1982  137.2982  164.4775 C   0  0  0  0  0  0  0  0  0  0  0  0
  134.9435  139.5999  161.4373 C   0  0  0  0  0  0  0  0  0  0  0  0
  134.1079  139.8156  160.1727 C   0  0  0  0  0  0  0  0  0  0  0  0
  129.7128  138.0027  161.1849 C   0  0  0  0  0  0  0  0  0  0  0  0
  129.5637  138.8099  162.4488 C   0  0  0  0  0  0  0  0  0  0  0  0
  128.9069  136.9282  160.7830 C   0  0  0  0  0  0  0  0  0  0  0  0
  127.8077  136.4059  161.4896 N   0  0  0  0  0  0  0  0  0  0  0  0
  127.7757  136.4780  162.8676 C   0  0  0  0  0  0  0  0  0  0  0  0
  126.6409  136.5717  163.6233 N   0  0  0  0  0  0  0  0  0  0  0  0
  125.7299  136.6018  163.2918 H   0  0  0  0  0  0  0  0  0  0  0  0
  127.0343  136.6215  164.9504 C   0  0  0  0  0  0  0  0  0  0  0  0
  126.3479  136.7170  166.1538 C   0  0  0  0  0  0  0  0  0  0  0  0
  127.0443  136.7457  167.3441 C   0  0  0  0  0  0  0  0  0  0  0  0
  128.4294  136.6796  167.3507 C   0  0  0  0  0  0  0  0  0  0  0  0
  129.1313  136.5840  166.1627 C   0  0  0  0  0  0  0  0  0  0  0  0
  130.5276  136.5173  166.1751 N   0  0  0  0  0  0  0  0  0  0  0  0
  128.4350  136.5540  164.9455 C   0  0  0  0  0  0  0  0  0  0  0  0
  128.8280  136.4679  163.6467 N   0  0  0  0  0  0  0  0  0  0  0  0
  129.7476  136.4078  163.3436 H   0  0  0  0  0  0  0  0  0  0  0  0
  128.1133  135.7079  158.0571 H   0  0  0  0  0  0  0  0  0  0  0  0
  129.6238  134.7977  158.2981 H   0  0  0  0  0  0  0  0  0  0  0  0
  128.2952  134.6442  159.4725 H   0  0  0  0  0  0  0  0  0  0  0  0
  132.5590  136.7901  160.4572 H   0  0  0  0  0  0  0  0  0  0  0  0
  133.7036  137.1265  159.1349 H   0  0  0  0  0  0  0  0  0  0  0  0
  134.8388  136.1637  161.3087 H   0  0  0  0  0  0  0  0  0  0  0  0
  136.4505  136.6781  162.5915 H   0  0  0  0  0  0  0  0  0  0  0  0
  137.2938  138.1837  162.1550 H   0  0  0  0  0  0  0  0  0  0  0  0
  136.0140  139.0761  166.3477 H   0  0  0  0  0  0  0  0  0  0  0  0
  137.7159  138.6085  168.0634 H   0  0  0  0  0  0  0  0  0  0  0  0
  139.7270  137.3134  167.4836 H   0  0  0  0  0  0  0  0  0  0  0  0
  140.0369  136.4754  165.1903 H   0  0  0  0  0  0  0  0  0  0  0  0
  138.3349  136.9304  163.4713 H   0  0  0  0  0  0  0  0  0  0  0  0
  135.8863  140.1388  161.3427 H   0  0  0  0  0  0  0  0  0  0  0  0
  134.3977  139.9826  162.2997 H   0  0  0  0  0  0  0  0  0  0  0  0
  134.7323  139.6777  159.2900 H   0  0  0  0  0  0  0  0  0  0  0  0
  133.6882  140.8215  160.1740 H   0  0  0  0  0  0  0  0  0  0  0  0
  130.2569  138.4362  163.2025 H   0  0  0  0  0  0  0  0  0  0  0  0
  129.7842  139.8567  162.2395 H   0  0  0  0  0  0  0  0  0  0  0  0
  128.5422  138.7206  162.8186 H   0  0  0  0  0  0  0  0  0  0  0  0
  127.0724  135.9953  161.0083 H   0  0  0  0  0  0  0  0  0  0  0  0
  125.2692  136.7693  166.1578 H   0  0  0  0  0  0  0  0  0  0  0  0
  126.5068  136.8204  168.2778 H   0  0  0  0  0  0  0  0  0  0  0  0
  128.9634  136.7029  168.2891 H   0  0  0  0  0  0  0  0  0  0  0  0
  131.0174  136.4501  165.3406 H   0  0  0  0  0  0  0  0  0  0  0  0
  131.0068  136.5383  167.0182 H   0  0  0  0  0  0  0  0  0  0  0  0
  1  2  1  0
  1 38  1  0
  1 39  1  0
  1 40  1  0
  2 24  2  0
  2  3  1  0
  3  4  1  0
  3  5  1  0
  5  6  1  0
  5 22  2  0
  6  7  2  0
  6  8  1  0
  8 21  1  0
  8  9  1  0
  9 10  1  0
  9 41  1  0
  9 42  1  0
 10 11  2  0
 10 43  1  0
 11 12  1  0
 11 20  1  0
 12 13  1  0
 12 44  1  0
 12 45  1  0
 13 14  1  0
 14 19  1  0
 14 15  2  0
 15 16  1  0
 15 46  1  0
 16 17  2  0
 16 47  1  0
 17 18  1  0
 17 48  1  0
 18 19  2  0
 18 49  1  0
 19 50  1  0
 20 21  1  0
 20 51  1  0
 20 52  1  0
 21 53  1  0
 21 54  1  0
 22 23  1  0
 22 24  1  0
 23 55  1  0
 23 56  1  0
 23 57  1  0
 24 25  1  0
 25 58  1  0
 26 25  1  0
 26 36  2  0
 26 27  1  0
 27 28  1  0
 27 29  1  0
 29 35  2  0
 29 30  1  0
 30 31  2  0
 30 59  1  0
 31 32  1  0
 31 60  1  0
 32 33  2  0
 32 61  1  0
 33 34  1  0
 33 35  1  0
 34 62  1  0
 34 63  1  0
 35 36  1  0
 36 37  1  0
M  CHG  1  36   1
M  END
>  <DOCK_score>  (1) 
-42.418808

>  <SMILES>  (1) 
Cc1[nH]c(C(=O)N2CC=C(COc3ccccc3)CC2)c(C)c1Nc1[nH]c2cccc(N)c2[nH+]1

$$$$
