CCc1ccc(-c2c[nH]c(N[C@@H](C=C/C=C/c3ccccc3)c3cccc(C)c3C)[nH+]2)cc1
     RDKit          3D

 65 68  0  0  1  0  0  0  0  0999 V2000
  129.7760  129.2894  151.0408 C   0  0  0  0  0  0  0  0  0  0  0  0
  131.1487  129.6926  151.5831 C   0  0  0  0  0  0  0  0  0  0  0  0
  130.9827  130.3609  152.9235 C   0  0  0  0  0  0  0  0  0  0  0  0
  131.0052  129.6015  154.0796 C   0  0  0  0  0  0  0  0  0  0  0  0
  130.8585  130.2088  155.3101 C   0  0  0  0  0  0  0  0  0  0  0  0
  130.6769  131.5886  155.3861 C   0  0  0  0  0  0  0  0  0  0  0  0
  130.5136  132.2463  156.7055 C   0  0  0  0  0  0  0  0  0  0  0  0
  129.9707  131.6861  157.8148 C   0  0  0  0  0  0  0  0  0  0  0  0
  130.0160  132.6375  158.8047 N   0  0  0  0  0  0  0  0  0  0  0  0
  129.6999  132.5339  159.7159 H   0  0  0  0  0  0  0  0  0  0  0  0
  130.5858  133.7522  158.2710 C   0  0  0  0  0  0  0  0  0  0  0  0
  130.8144  134.9412  158.9422 N   0  0  0  0  0  0  0  0  0  0  0  0
  130.4319  135.0727  160.3503 C   0  0  1  0  0  0  0  0  0  0  0  0
  130.6648  134.1477  160.8780 H   0  0  0  0  0  0  0  0  0  0  0  0
  131.1954  136.2126  160.9738 C   0  0  0  0  0  0  0  0  0  0  0  0
  132.0009  135.9866  162.0105 C   0  0  0  0  0  0  0  0  0  0  0  0
  132.7435  137.0953  162.6170 C   0  0  0  0  0  0  0  0  0  0  0  0
  133.5573  136.8671  163.6642 C   0  0  0  0  0  0  0  0  0  0  0  0
  134.3035  137.9812  164.2737 C   0  0  0  0  0  0  0  0  0  0  0  0
  133.8841  139.2997  164.0744 C   0  0  0  0  0  0  0  0  0  0  0  0
  134.5843  140.3372  164.6535 C   0  0  0  0  0  0  0  0  0  0  0  0
  135.7062  140.0766  165.4199 C   0  0  0  0  0  0  0  0  0  0  0  0
  136.1312  138.7740  165.6169 C   0  0  0  0  0  0  0  0  0  0  0  0
  135.4378  137.7257  165.0496 C   0  0  0  0  0  0  0  0  0  0  0  0
  128.9531  135.3467  160.4458 C   0  0  0  0  0  0  0  0  0  0  0  0
  128.1909  135.4356  159.2957 C   0  0  0  0  0  0  0  0  0  0  0  0
  126.8346  135.6867  159.3833 C   0  0  0  0  0  0  0  0  0  0  0  0
  126.2401  135.8494  160.6207 C   0  0  0  0  0  0  0  0  0  0  0  0
  127.0022  135.7605  161.7706 C   0  0  0  0  0  0  0  0  0  0  0  0
  126.3543  135.9384  163.1195 C   0  0  0  0  0  0  0  0  0  0  0  0
  128.3579  135.5039  161.6833 C   0  0  0  0  0  0  0  0  0  0  0  0
  129.1876  135.4008  162.9370 C   0  0  0  0  0  0  0  0  0  0  0  0
  130.8863  133.5129  157.0179 N   0  0  0  0  0  0  0  0  0  0  0  0
  131.3065  134.1416  156.4103 H   0  0  0  0  0  0  0  0  0  0  0  0
  130.6499  132.3481  154.2178 C   0  0  0  0  0  0  0  0  0  0  0  0
  130.8028  131.7307  152.9930 C   0  0  0  0  0  0  0  0  0  0  0  0
  129.3000  128.5973  151.7353 H   0  0  0  0  0  0  0  0  0  0  0  0
  129.1541  130.1776  150.9295 H   0  0  0  0  0  0  0  0  0  0  0  0
  129.8961  128.8060  150.0713 H   0  0  0  0  0  0  0  0  0  0  0  0
  131.7707  128.8044  151.6945 H   0  0  0  0  0  0  0  0  0  0  0  0
  131.6248  130.3848  150.8885 H   0  0  0  0  0  0  0  0  0  0  0  0
  131.1415  128.5318  154.0191 H   0  0  0  0  0  0  0  0  0  0  0  0
  130.8807  129.6155  156.2122 H   0  0  0  0  0  0  0  0  0  0  0  0
  129.5777  130.6841  157.9030 H   0  0  0  0  0  0  0  0  0  0  0  0
  131.2276  135.6872  158.4803 H   0  0  0  0  0  0  0  0  0  0  0  0
  131.0895  137.2127  160.5803 H   0  0  0  0  0  0  0  0  0  0  0  0
  132.1068  134.9864  162.4040 H   0  0  0  0  0  0  0  0  0  0  0  0
  132.6376  138.0956  162.2234 H   0  0  0  0  0  0  0  0  0  0  0  0
  133.6631  135.8669  164.0579 H   0  0  0  0  0  0  0  0  0  0  0  0
  133.0112  139.5051  163.4725 H   0  0  0  0  0  0  0  0  0  0  0  0
  134.2585  141.3561  164.5046 H   0  0  0  0  0  0  0  0  0  0  0  0
  136.2527  140.8938  165.8671 H   0  0  0  0  0  0  0  0  0  0  0  0
  137.0079  138.5782  166.2167 H   0  0  0  0  0  0  0  0  0  0  0  0
  135.7701  136.7099  165.2046 H   0  0  0  0  0  0  0  0  0  0  0  0
  128.6553  135.3085  158.3289 H   0  0  0  0  0  0  0  0  0  0  0  0
  126.2392  135.7559  158.4849 H   0  0  0  0  0  0  0  0  0  0  0  0
  125.1804  136.0461  160.6893 H   0  0  0  0  0  0  0  0  0  0  0  0
  126.0134  134.9713  163.4891 H   0  0  0  0  0  0  0  0  0  0  0  0
  127.0780  136.3596  163.8174 H   0  0  0  0  0  0  0  0  0  0  0  0
  125.5030  136.6129  163.0277 H   0  0  0  0  0  0  0  0  0  0  0  0
  129.5724  136.3862  163.2000 H   0  0  0  0  0  0  0  0  0  0  0  0
  128.5698  135.0228  163.7515 H   0  0  0  0  0  0  0  0  0  0  0  0
  130.0208  134.7191  162.7663 H   0  0  0  0  0  0  0  0  0  0  0  0
  130.5092  133.4175  154.2708 H   0  0  0  0  0  0  0  0  0  0  0  0
  130.7817  132.3182  152.0870 H   0  0  0  0  0  0  0  0  0  0  0  0
  1  2  1  0
  1 37  1  0
  1 38  1  0
  1 39  1  0
  2  3  1  0
  2 40  1  0
  2 41  1  0
  3 36  2  0
  3  4  1  0
  4  5  2  0
  4 42  1  0
  5  6  1  0
  5 43  1  0
  6  7  1  0
  6 35  2  0
  7 33  1  0
  7  8  2  0
  8  9  1  0
  8 44  1  0
  9 10  1  0
  9 11  1  0
 11 12  1  0
 11 33  2  0
 12 13  1  0
 12 45  1  0
 13 14  1  1
 13 15  1  0
 13 25  1  0
 15 16  2  0
 15 46  1  0
 16 17  1  0
 16 47  1  0
 17 18  2  0
 17 48  1  0
 18 19  1  0
 18 49  1  0
 19 24  1  0
 19 20  2  0
 20 21  1  0
 20 50  1  0
 21 22  2  0
 21 51  1  0
 22 23  1  0
 22 52  1  0
 23 24  2  0
 23 53  1  0
 24 54  1  0
 25 31  1  0
 25 26  2  0
 26 27  1  0
 26 55  1  0
 27 28  2  0
 27 56  1  0
 28 29  1  0
 28 57  1  0
 29 30  1  0
 29 31  2  0
 30 58  1  0
 30 59  1  0
 30 60  1  0
 31 32  1  0
 32 61  1  0
 32 62  1  0
 32 63  1  0
 33 34  1  0
 35 36  1  0
 35 64  1  0
 36 65  1  0
M  CHG  1  33   1
M  END
>  <DOCK_score>  (1) 
-58.461201

>  <SMILES>  (1) 
CCc1ccc(-c2c[nH]c(N[C@@H](C=C/C=C/c3ccccc3)c3cccc(C)c3C)[nH+]2)cc1

$$$$
