[NH3+][C@H](Cc1cn(C(Br)Br)nn1)C(=O)Nc1cccc(O)c1
     RDKit          3D

 35 36  0  0  1  0  0  0  0  0999 V2000
  130.6723  133.8273  157.0173 N   0  0  0  0  0  0  0  0  0  0  0  0
  130.8796  132.8671  157.2471 H   0  0  0  0  0  0  0  0  0  0  0  0
  130.0116  133.8557  156.2551 H   0  0  0  0  0  0  0  0  0  0  0  0
  131.5216  134.2984  156.7437 H   0  0  0  0  0  0  0  0  0  0  0  0
  130.0961  134.4985  158.1901 C   0  0  2  0  0  0  0  0  0  0  0  0
  129.8724  135.5358  157.9416 H   0  0  0  0  0  0  0  0  0  0  0  0
  131.0980  134.4555  159.3456 C   0  0  0  0  0  0  0  0  0  0  0  0
  130.7519  135.5237  160.3506 C   0  0  0  0  0  0  0  0  0  0  0  0
  131.1987  136.8013  160.3609 C   0  0  0  0  0  0  0  0  0  0  0  0
  130.6303  137.3907  161.4380 N   0  0  0  0  0  0  0  0  0  0  0  0
  130.8228  138.7813  161.8569 C   0  0  0  0  0  0  0  0  0  0  0  0
  132.7274  139.0962  162.2287 Br  0  0  0  0  0  0  0  0  0  0  0  0
  130.2273  139.9863  160.4221 Br  0  0  0  0  0  0  0  0  0  0  0  0
  129.8918  136.5196  162.0318 N   0  0  0  0  0  0  0  0  0  0  0  0
  129.9381  135.3973  161.4048 N   0  0  0  0  0  0  0  0  0  0  0  0
  128.8276  133.7947  158.5986 C   0  0  0  0  0  0  0  0  0  0  0  0
  128.4416  132.8292  157.9743 O   0  0  0  0  0  0  0  0  0  0  0  0
  128.1221  134.2384  159.6579 N   0  0  0  0  0  0  0  0  0  0  0  0
  126.9443  133.5851  160.0372 C   0  0  0  0  0  0  0  0  0  0  0  0
  126.7991  132.2230  159.8060 C   0  0  0  0  0  0  0  0  0  0  0  0
  125.6368  131.5780  160.1812 C   0  0  0  0  0  0  0  0  0  0  0  0
  124.6176  132.2843  160.7915 C   0  0  0  0  0  0  0  0  0  0  0  0
  124.7548  133.6462  161.0197 C   0  0  0  0  0  0  0  0  0  0  0  0
  123.7496  134.3404  161.6152 O   0  0  0  0  0  0  0  0  0  0  0  0
  125.9201  134.2969  160.6450 C   0  0  0  0  0  0  0  0  0  0  0  0
  131.0571  133.4778  159.8259 H   0  0  0  0  0  0  0  0  0  0  0  0
  132.1032  134.6298  158.9615 H   0  0  0  0  0  0  0  0  0  0  0  0
  131.8737  137.2581  159.6522 H   0  0  0  0  0  0  0  0  0  0  0  0
  130.2402  138.9734  162.7578 H   0  0  0  0  0  0  0  0  0  0  0  0
  128.4309  135.0105  160.1572 H   0  0  0  0  0  0  0  0  0  0  0  0
  127.5958  131.6679  159.3329 H   0  0  0  0  0  0  0  0  0  0  0  0
  125.5259  130.5189  160.0010 H   0  0  0  0  0  0  0  0  0  0  0  0
  123.7117  131.7764  161.0878 H   0  0  0  0  0  0  0  0  0  0  0  0
  123.9371  135.2819  161.7317 H   0  0  0  0  0  0  0  0  0  0  0  0
  126.0303  135.3560  160.8255 H   0  0  0  0  0  0  0  0  0  0  0  0
  1  2  1  0
  1  3  1  0
  1  4  1  0
  1  5  1  0
  5  6  1  6
  5  7  1  0
  5 16  1  0
  7  8  1  0
  7 26  1  0
  7 27  1  0
  8 15  1  0
  8  9  2  0
  9 10  1  0
  9 28  1  0
 10 11  1  0
 10 14  1  0
 11 12  1  0
 11 13  1  0
 11 29  1  0
 14 15  2  0
 16 17  2  0
 16 18  1  0
 18 19  1  0
 18 30  1  0
 19 25  1  0
 19 20  2  0
 20 21  1  0
 20 31  1  0
 21 22  2  0
 21 32  1  0
 22 23  1  0
 22 33  1  0
 23 24  1  0
 23 25  2  0
 24 34  1  0
 25 35  1  0
M  CHG  1   1   1
M  END
>  <DOCK_score>  (1) 
-45.30632

>  <SMILES>  (1) 
[NH3+][C@H](Cc1cn(C(Br)Br)nn1)C(=O)Nc1cccc(O)c1

$$$$
