c1ccc(-c2ccc(-c3c[nH]c(NCCCc4cccc5ccccc45)[nH+]3)cc2)cc1
     RDKit          3D

 57 61  0  0  1  0  0  0  0  0999 V2000
  130.4418  128.4428  150.2381 C   0  0  0  0  0  0  0  0  0  0  0  0
  130.2212  129.8080  150.2188 C   0  0  0  0  0  0  0  0  0  0  0  0
  130.2285  130.5276  151.3963 C   0  0  0  0  0  0  0  0  0  0  0  0
  130.4589  129.8753  152.6073 C   0  0  0  0  0  0  0  0  0  0  0  0
  130.4679  130.6435  153.8758 C   0  0  0  0  0  0  0  0  0  0  0  0
  129.6788  131.7868  154.0045 C   0  0  0  0  0  0  0  0  0  0  0  0
  129.6875  132.5003  155.1826 C   0  0  0  0  0  0  0  0  0  0  0  0
  130.4853  132.0796  156.2468 C   0  0  0  0  0  0  0  0  0  0  0  0
  130.4952  132.8477  157.5148 C   0  0  0  0  0  0  0  0  0  0  0  0
  130.1435  132.3758  158.7371 C   0  0  0  0  0  0  0  0  0  0  0  0
  130.3033  133.4112  159.6251 N   0  0  0  0  0  0  0  0  0  0  0  0
  130.1341  133.3807  160.5798 H   0  0  0  0  0  0  0  0  0  0  0  0
  130.7404  134.4890  158.9183 C   0  0  0  0  0  0  0  0  0  0  0  0
  131.0216  135.7383  159.4445 N   0  0  0  0  0  0  0  0  0  0  0  0
  131.2834  135.8871  160.8781 C   0  0  0  0  0  0  0  0  0  0  0  0
  132.7813  135.7210  161.1428 C   0  0  0  0  0  0  0  0  0  0  0  0
  133.0549  135.8765  162.6400 C   0  0  0  0  0  0  0  0  0  0  0  0
  134.5302  135.7129  162.9007 C   0  0  0  0  0  0  0  0  0  0  0  0
  135.0456  134.4814  163.1671 C   0  0  0  0  0  0  0  0  0  0  0  0
  136.4067  134.3110  163.4111 C   0  0  0  0  0  0  0  0  0  0  0  0
  137.2609  135.3706  163.3887 C   0  0  0  0  0  0  0  0  0  0  0  0
  136.7658  136.6571  163.1168 C   0  0  0  0  0  0  0  0  0  0  0  0
  137.6166  137.7755  163.0862 C   0  0  0  0  0  0  0  0  0  0  0  0
  137.1008  139.0067  162.8208 C   0  0  0  0  0  0  0  0  0  0  0  0
  135.7391  139.1771  162.5773 C   0  0  0  0  0  0  0  0  0  0  0  0
  134.8853  138.1176  162.5987 C   0  0  0  0  0  0  0  0  0  0  0  0
  135.3810  136.8307  162.8697 C   0  0  0  0  0  0  0  0  0  0  0  0
  130.8569  134.1477  157.6582 N   0  0  0  0  0  0  0  0  0  0  0  0
  131.1540  134.7312  156.9425 H   0  0  0  0  0  0  0  0  0  0  0  0
  131.2782  130.9394  156.1158 C   0  0  0  0  0  0  0  0  0  0  0  0
  131.2652  130.2232  154.9394 C   0  0  0  0  0  0  0  0  0  0  0  0
  130.6856  128.5008  152.6198 C   0  0  0  0  0  0  0  0  0  0  0  0
  130.6707  127.7905  151.4367 C   0  0  0  0  0  0  0  0  0  0  0  0
  130.4354  127.8842  149.3139 H   0  0  0  0  0  0  0  0  0  0  0  0
  130.0432  130.3118  149.2803 H   0  0  0  0  0  0  0  0  0  0  0  0
  130.0568  131.5938  151.3799 H   0  0  0  0  0  0  0  0  0  0  0  0
  129.0615  132.1126  153.1805 H   0  0  0  0  0  0  0  0  0  0  0  0
  129.0764  133.3851  155.2826 H   0  0  0  0  0  0  0  0  0  0  0  0
  129.8060  131.3762  158.9682 H   0  0  0  0  0  0  0  0  0  0  0  0
  131.0451  136.5150  158.8638 H   0  0  0  0  0  0  0  0  0  0  0  0
  130.7306  135.1263  161.4294 H   0  0  0  0  0  0  0  0  0  0  0  0
  130.9642  136.8765  161.2050 H   0  0  0  0  0  0  0  0  0  0  0  0
  133.3342  136.4818  160.5916 H   0  0  0  0  0  0  0  0  0  0  0  0
  133.1006  134.7315  160.8158 H   0  0  0  0  0  0  0  0  0  0  0  0
  132.5021  135.1158  163.1913 H   0  0  0  0  0  0  0  0  0  0  0  0
  132.7357  136.8661  162.9669 H   0  0  0  0  0  0  0  0  0  0  0  0
  134.3895  133.6239  163.1900 H   0  0  0  0  0  0  0  0  0  0  0  0
  136.7900  133.3232  163.6203 H   0  0  0  0  0  0  0  0  0  0  0  0
  138.3145  135.2225  163.5746 H   0  0  0  0  0  0  0  0  0  0  0  0
  138.6738  137.6585  163.2729 H   0  0  0  0  0  0  0  0  0  0  0  0
  137.7567  139.8642  162.7981 H   0  0  0  0  0  0  0  0  0  0  0  0
  135.3558  140.1651  162.3689 H   0  0  0  0  0  0  0  0  0  0  0  0
  133.8326  138.2650  162.4082 H   0  0  0  0  0  0  0  0  0  0  0  0
  131.8990  130.6160  156.9382 H   0  0  0  0  0  0  0  0  0  0  0  0
  131.8759  129.3382  154.8393 H   0  0  0  0  0  0  0  0  0  0  0  0
  130.8691  127.9915  153.5544 H   0  0  0  0  0  0  0  0  0  0  0  0
  130.8423  126.7243  151.4460 H   0  0  0  0  0  0  0  0  0  0  0  0
  1 33  2  0
  1  2  1  0
  1 34  1  0
  2  3  2  0
  2 35  1  0
  3  4  1  0
  3 36  1  0
  4  5  1  0
  4 32  2  0
  5 31  1  0
  5  6  2  0
  6  7  1  0
  6 37  1  0
  7  8  2  0
  7 38  1  0
  8  9  1  0
  8 30  1  0
  9 28  1  0
  9 10  2  0
 10 11  1  0
 10 39  1  0
 11 12  1  0
 11 13  1  0
 13 14  1  0
 13 28  2  0
 14 15  1  0
 14 40  1  0
 15 16  1  0
 15 41  1  0
 15 42  1  0
 16 17  1  0
 16 43  1  0
 16 44  1  0
 17 18  1  0
 17 45  1  0
 17 46  1  0
 18 27  1  0
 18 19  2  0
 19 20  1  0
 19 47  1  0
 20 21  2  0
 20 48  1  0
 21 22  1  0
 21 49  1  0
 22 27  2  0
 22 23  1  0
 23 24  2  0
 23 50  1  0
 24 25  1  0
 24 51  1  0
 25 26  2  0
 25 52  1  0
 26 27  1  0
 26 53  1  0
 28 29  1  0
 30 31  2  0
 30 54  1  0
 31 55  1  0
 32 33  1  0
 32 56  1  0
 33 57  1  0
M  CHG  1  28   1
M  END
>  <DOCK_score>  (1) 
-57.83979

>  <SMILES>  (1) 
c1ccc(-c2ccc(-c3c[nH]c(NCCCc4cccc5ccccc45)[nH+]3)cc2)cc1

$$$$
