CCc1ccc(-c2c[nH]c(Nc3ccccc3-c3ccc(CC)cc3)[nH+]2)cc1
     RDKit          3D

 54 57  0  0  1  0  0  0  0  0999 V2000
  130.4353  128.4232  151.6932 C   0  0  0  0  0  0  0  0  0  0  0  0
  131.5016  129.4897  151.9540 C   0  0  0  0  0  0  0  0  0  0  0  0
  131.1510  130.2546  153.2042 C   0  0  0  0  0  0  0  0  0  0  0  0
  131.6159  129.8194  154.4316 C   0  0  0  0  0  0  0  0  0  0  0  0
  131.3024  130.5193  155.5791 C   0  0  0  0  0  0  0  0  0  0  0  0
  130.5063  131.6605  155.5004 C   0  0  0  0  0  0  0  0  0  0  0  0
  130.1610  132.4138  156.7307 C   0  0  0  0  0  0  0  0  0  0  0  0
  129.4912  131.9253  157.8042 C   0  0  0  0  0  0  0  0  0  0  0  0
  129.3891  132.9513  158.7110 N   0  0  0  0  0  0  0  0  0  0  0  0
  128.9604  132.9093  159.5802 H   0  0  0  0  0  0  0  0  0  0  0  0
  130.0001  134.0383  158.1650 C   0  0  0  0  0  0  0  0  0  0  0  0
  130.1170  135.2830  158.7618 N   0  0  0  0  0  0  0  0  0  0  0  0
  129.1374  135.7246  159.6523 C   0  0  0  0  0  0  0  0  0  0  0  0
  127.8211  135.8544  159.2322 C   0  0  0  0  0  0  0  0  0  0  0  0
  126.8532  136.2916  160.1152 C   0  0  0  0  0  0  0  0  0  0  0  0
  127.1883  136.6013  161.4224 C   0  0  0  0  0  0  0  0  0  0  0  0
  128.4930  136.4781  161.8541 C   0  0  0  0  0  0  0  0  0  0  0  0
  129.4773  136.0331  160.9748 C   0  0  0  0  0  0  0  0  0  0  0  0
  130.8798  135.8922  161.4358 C   0  0  0  0  0  0  0  0  0  0  0  0
  131.5725  137.0013  161.9180 C   0  0  0  0  0  0  0  0  0  0  0  0
  132.8763  136.8634  162.3493 C   0  0  0  0  0  0  0  0  0  0  0  0
  133.4986  135.6291  162.2951 C   0  0  0  0  0  0  0  0  0  0  0  0
  134.9239  135.4860  162.7626 C   0  0  0  0  0  0  0  0  0  0  0  0
  134.9397  135.1431  164.2537 C   0  0  0  0  0  0  0  0  0  0  0  0
  132.8174  134.5258  161.8130 C   0  0  0  0  0  0  0  0  0  0  0  0
  131.5120  134.6511  161.3831 C   0  0  0  0  0  0  0  0  0  0  0  0
  130.4645  133.7113  156.9836 N   0  0  0  0  0  0  0  0  0  0  0  0
  130.9461  134.3033  156.3849 H   0  0  0  0  0  0  0  0  0  0  0  0
  130.0359  132.0916  154.2612 C   0  0  0  0  0  0  0  0  0  0  0  0
  130.3607  131.3872  153.1197 C   0  0  0  0  0  0  0  0  0  0  0  0
  129.4649  128.9031  151.5655 H   0  0  0  0  0  0  0  0  0  0  0  0
  130.6886  127.8696  150.7891 H   0  0  0  0  0  0  0  0  0  0  0  0
  130.3930  127.7373  152.5394 H   0  0  0  0  0  0  0  0  0  0  0  0
  132.4716  129.0097  152.0816 H   0  0  0  0  0  0  0  0  0  0  0  0
  131.5435  130.1753  151.1078 H   0  0  0  0  0  0  0  0  0  0  0  0
  132.2292  128.9325  154.4919 H   0  0  0  0  0  0  0  0  0  0  0  0
  131.6695  130.1806  156.5366 H   0  0  0  0  0  0  0  0  0  0  0  0
  129.1109  130.9214  157.9230 H   0  0  0  0  0  0  0  0  0  0  0  0
  130.8797  135.8475  158.5607 H   0  0  0  0  0  0  0  0  0  0  0  0
  127.5534  135.6135  158.2139 H   0  0  0  0  0  0  0  0  0  0  0  0
  125.8299  136.3919  159.7845 H   0  0  0  0  0  0  0  0  0  0  0  0
  126.4253  136.9433  162.1060 H   0  0  0  0  0  0  0  0  0  0  0  0
  128.7499  136.7218  162.8742 H   0  0  0  0  0  0  0  0  0  0  0  0
  131.0890  137.9663  161.9570 H   0  0  0  0  0  0  0  0  0  0  0  0
  133.4129  137.7213  162.7263 H   0  0  0  0  0  0  0  0  0  0  0  0
  135.4120  134.6892  162.2014 H   0  0  0  0  0  0  0  0  0  0  0  0
  135.4556  136.4235  162.5998 H   0  0  0  0  0  0  0  0  0  0  0  0
  134.4515  135.9399  164.8148 H   0  0  0  0  0  0  0  0  0  0  0  0
  134.4081  134.2056  164.4165 H   0  0  0  0  0  0  0  0  0  0  0  0
  135.9707  135.0396  164.5918 H   0  0  0  0  0  0  0  0  0  0  0  0
  133.3084  133.5647  161.7726 H   0  0  0  0  0  0  0  0  0  0  0  0
  130.9812  133.7890  161.0068 H   0  0  0  0  0  0  0  0  0  0  0  0
  129.4184  132.9751  154.1945 H   0  0  0  0  0  0  0  0  0  0  0  0
  129.9968  131.7204  152.1590 H   0  0  0  0  0  0  0  0  0  0  0  0
  1  2  1  0
  1 31  1  0
  1 32  1  0
  1 33  1  0
  2  3  1  0
  2 34  1  0
  2 35  1  0
  3 30  2  0
  3  4  1  0
  4  5  2  0
  4 36  1  0
  5  6  1  0
  5 37  1  0
  6  7  1  0
  6 29  2  0
  7 27  1  0
  7  8  2  0
  8  9  1  0
  8 38  1  0
  9 10  1  0
  9 11  1  0
 11 12  1  0
 11 27  2  0
 12 13  1  0
 12 39  1  0
 13 18  1  0
 13 14  2  0
 14 15  1  0
 14 40  1  0
 15 16  2  0
 15 41  1  0
 16 17  1  0
 16 42  1  0
 17 18  2  0
 17 43  1  0
 18 19  1  0
 19 26  1  0
 19 20  2  0
 20 21  1  0
 20 44  1  0
 21 22  2  0
 21 45  1  0
 22 23  1  0
 22 25  1  0
 23 24  1  0
 23 46  1  0
 23 47  1  0
 24 48  1  0
 24 49  1  0
 24 50  1  0
 25 26  2  0
 25 51  1  0
 26 52  1  0
 27 28  1  0
 29 30  1  0
 29 53  1  0
 30 54  1  0
M  CHG  1  27   1
M  END
>  <DOCK_score>  (1) 
-57.143459

>  <SMILES>  (1) 
CCc1ccc(-c2c[nH]c(Nc3ccccc3-c3ccc(CC)cc3)[nH+]2)cc1

$$$$
