CCc1cccc(C)c1C[NH2+]Cc1c[nH]nc1-c1ccc(N[C@H]2COc3cc(Cl)ccc3C2)o1
     RDKit          3D

 64 68  0  0  1  0  0  0  0  0999 V2000
  134.0701  137.2820  164.3557 C   0  0  0  0  0  0  0  0  0  0  0  0
  134.5423  136.5334  163.1077 C   0  0  0  0  0  0  0  0  0  0  0  0
  134.9651  137.5266  162.0562 C   0  0  0  0  0  0  0  0  0  0  0  0
  136.2753  137.9656  162.0069 C   0  0  0  0  0  0  0  0  0  0  0  0
  136.6629  138.8766  161.0425 C   0  0  0  0  0  0  0  0  0  0  0  0
  135.7409  139.3483  160.1265 C   0  0  0  0  0  0  0  0  0  0  0  0
  134.4322  138.9066  160.1735 C   0  0  0  0  0  0  0  0  0  0  0  0
  133.4281  139.4172  159.1722 C   0  0  0  0  0  0  0  0  0  0  0  0
  134.0431  137.9992  161.1414 C   0  0  0  0  0  0  0  0  0  0  0  0
  132.6149  137.5210  161.1953 C   0  0  0  0  0  0  0  0  0  0  0  0
  132.4674  136.3245  160.3559 N   0  0  0  0  0  0  0  0  0  0  0  0
  133.0786  135.5974  160.6963 H   0  0  0  0  0  0  0  0  0  0  0  0
  132.7108  136.5498  159.4031 H   0  0  0  0  0  0  0  0  0  0  0  0
  131.0753  135.8582  160.4084 C   0  0  0  0  0  0  0  0  0  0  0  0
  130.9238  134.6308  159.5474 C   0  0  0  0  0  0  0  0  0  0  0  0
  131.9017  134.0364  158.8308 C   0  0  0  0  0  0  0  0  0  0  0  0
  131.3672  132.9702  158.1972 N   0  0  0  0  0  0  0  0  0  0  0  0
  131.8419  132.3591  157.6121 H   0  0  0  0  0  0  0  0  0  0  0  0
  130.0100  132.8954  158.5359 N   0  0  0  0  0  0  0  0  0  0  0  0
  129.7348  133.8985  159.3462 C   0  0  0  0  0  0  0  0  0  0  0  0
  128.4168  134.1984  159.9427 C   0  0  0  0  0  0  0  0  0  0  0  0
  127.2737  133.4902  159.7453 C   0  0  0  0  0  0  0  0  0  0  0  0
  126.2671  134.1201  160.5035 C   0  0  0  0  0  0  0  0  0  0  0  0
  126.8417  135.1845  161.1174 C   0  0  0  0  0  0  0  0  0  0  0  0
  126.1965  136.0807  161.9615 N   0  0  0  0  0  0  0  0  0  0  0  0
  126.9414  136.7401  163.0369 C   0  0  1  0  0  0  0  0  0  0  0  0
  127.3489  135.9902  163.7151 H   0  0  0  0  0  0  0  0  0  0  0  0
  128.0836  137.5723  162.4398 C   0  0  0  0  0  0  0  0  0  0  0  0
  128.8529  138.1166  163.5131 O   0  0  0  0  0  0  0  0  0  0  0  0
  128.1874  138.7443  164.5172 C   0  0  0  0  0  0  0  0  0  0  0  0
  128.9053  139.5755  165.3712 C   0  0  0  0  0  0  0  0  0  0  0  0
  128.2645  140.2316  166.4034 C   0  0  0  0  0  0  0  0  0  0  0  0
  129.1636  141.2722  167.4626 Cl  0  0  0  0  0  0  0  0  0  0  0  0
  126.9050  140.0553  166.5950 C   0  0  0  0  0  0  0  0  0  0  0  0
  126.1908  139.2285  165.7508 C   0  0  0  0  0  0  0  0  0  0  0  0
  126.8278  138.5725  164.7102 C   0  0  0  0  0  0  0  0  0  0  0  0
  126.0125  137.6821  163.8070 C   0  0  0  0  0  0  0  0  0  0  0  0
  128.1412  135.2233  160.7766 O   0  0  0  0  0  0  0  0  0  0  0  0
  133.7644  136.5636  165.1164 H   0  0  0  0  0  0  0  0  0  0  0  0
  134.8846  137.8951  164.7416 H   0  0  0  0  0  0  0  0  0  0  0  0
  133.2252  137.9206  164.0984 H   0  0  0  0  0  0  0  0  0  0  0  0
  133.7279  135.9203  162.7219 H   0  0  0  0  0  0  0  0  0  0  0  0
  135.3875  135.8949  163.3651 H   0  0  0  0  0  0  0  0  0  0  0  0
  136.9956  137.5968  162.7221 H   0  0  0  0  0  0  0  0  0  0  0  0
  137.6863  139.2197  161.0041 H   0  0  0  0  0  0  0  0  0  0  0  0
  136.0440  140.0598  159.3727 H   0  0  0  0  0  0  0  0  0  0  0  0
  132.9859  140.3427  159.5408 H   0  0  0  0  0  0  0  0  0  0  0  0
  133.9270  139.6061  158.2216 H   0  0  0  0  0  0  0  0  0  0  0  0
  132.6456  138.6719  159.0301 H   0  0  0  0  0  0  0  0  0  0  0  0
  131.9547  138.3064  160.8275 H   0  0  0  0  0  0  0  0  0  0  0  0
  132.3518  137.2775  162.2245 H   0  0  0  0  0  0  0  0  0  0  0  0
  130.4150  136.6437  160.0408 H   0  0  0  0  0  0  0  0  0  0  0  0
  130.8123  135.6147  161.4378 H   0  0  0  0  0  0  0  0  0  0  0  0
  132.9314  134.3573  158.7745 H   0  0  0  0  0  0  0  0  0  0  0  0
  127.1599  132.6105  159.1291 H   0  0  0  0  0  0  0  0  0  0  0  0
  125.2340  133.8149  160.5797 H   0  0  0  0  0  0  0  0  0  0  0  0
  125.2530  136.2695  161.8387 H   0  0  0  0  0  0  0  0  0  0  0  0
  127.6717  138.3812  161.8364 H   0  0  0  0  0  0  0  0  0  0  0  0
  128.7160  136.9367  161.8202 H   0  0  0  0  0  0  0  0  0  0  0  0
  129.9668  139.7107  165.2243 H   0  0  0  0  0  0  0  0  0  0  0  0
  126.4032  140.5642  167.4048 H   0  0  0  0  0  0  0  0  0  0  0  0
  125.1302  139.0927  165.9023 H   0  0  0  0  0  0  0  0  0  0  0  0
  125.4526  138.2961  163.1016 H   0  0  0  0  0  0  0  0  0  0  0  0
  125.3180  137.0952  164.4080 H   0  0  0  0  0  0  0  0  0  0  0  0
  1  2  1  0
  1 39  1  0
  1 40  1  0
  1 41  1  0
  2  3  1  0
  2 42  1  0
  2 43  1  0
  3  9  2  0
  3  4  1  0
  4  5  2  0
  4 44  1  0
  5  6  1  0
  5 45  1  0
  6  7  2  0
  6 46  1  0
  7  8  1  0
  7  9  1  0
  8 47  1  0
  8 48  1  0
  8 49  1  0
  9 10  1  0
 10 11  1  0
 10 50  1  0
 10 51  1  0
 11 12  1  0
 11 13  1  0
 11 14  1  0
 14 15  1  0
 14 52  1  0
 14 53  1  0
 15 20  1  0
 15 16  2  0
 16 17  1  0
 16 54  1  0
 17 18  1  0
 17 19  1  0
 19 20  2  0
 20 21  1  0
 21 38  1  0
 21 22  2  0
 22 23  1  0
 22 55  1  0
 23 24  2  0
 23 56  1  0
 24 25  1  0
 24 38  1  0
 25 26  1  0
 25 57  1  0
 26 27  1  1
 26 37  1  0
 26 28  1  0
 28 29  1  0
 28 58  1  0
 28 59  1  0
 29 30  1  0
 30 36  2  0
 30 31  1  0
 31 32  2  0
 31 60  1  0
 32 33  1  0
 32 34  1  0
 34 35  2  0
 34 61  1  0
 35 36  1  0
 35 62  1  0
 36 37  1  0
 37 63  1  0
 37 64  1  0
M  CHG  1  11   1
M  END
>  <DOCK_score>  (1) 
-44.16835

>  <SMILES>  (1) 
CCc1cccc(C)c1C[NH2+]Cc1c[nH]nc1-c1ccc(N[C@H]2COc3cc(Cl)ccc3C2)o1

$$$$
