c1ccc(CC[C@@H](Cc2ccccc2)[NH2+]C2CN(C(c3ccccc3)c3ccccc3)C2)cc1
     RDKit          3D

 69 73  0  0  1  0  0  0  0  0999 V2000
  139.0159  135.0705  164.9776 C   0  0  0  0  0  0  0  0  0  0  0  0
  138.5096  136.3068  165.3329 C   0  0  0  0  0  0  0  0  0  0  0  0
  137.5520  136.9147  164.5428 C   0  0  0  0  0  0  0  0  0  0  0  0
  137.1008  136.2863  163.3971 C   0  0  0  0  0  0  0  0  0  0  0  0
  136.0565  136.9487  162.5359 C   0  0  0  0  0  0  0  0  0  0  0  0
  134.6635  136.5325  163.0126 C   0  0  0  0  0  0  0  0  0  0  0  0
  133.6032  137.2050  162.1382 C   0  0  1  0  0  0  0  0  0  0  0  0
  132.6485  137.2104  162.6642 H   0  0  0  0  0  0  0  0  0  0  0  0
  134.0280  138.6437  161.8372 C   0  0  0  0  0  0  0  0  0  0  0  0
  132.8228  139.4467  161.4207 C   0  0  0  0  0  0  0  0  0  0  0  0
  132.4700  139.5223  160.0862 C   0  0  0  0  0  0  0  0  0  0  0  0
  131.3616  140.2549  159.7047 C   0  0  0  0  0  0  0  0  0  0  0  0
  130.6120  140.9206  160.6566 C   0  0  0  0  0  0  0  0  0  0  0  0
  130.9677  140.8492  161.9904 C   0  0  0  0  0  0  0  0  0  0  0  0
  132.0730  140.1122  162.3725 C   0  0  0  0  0  0  0  0  0  0  0  0
  133.4640  136.4619  160.8786 N   0  0  0  0  0  0  0  0  0  0  0  0
  134.3753  136.1719  160.5567 H   0  0  0  0  0  0  0  0  0  0  0  0
  133.0348  137.0547  160.1840 H   0  0  0  0  0  0  0  0  0  0  0  0
  132.6227  135.2780  161.0990 C   0  0  0  0  0  0  0  0  0  0  0  0
  131.1852  135.4322  160.5704 C   0  0  0  0  0  0  0  0  0  0  0  0
  131.3232  134.0440  160.0774 N   0  0  0  0  0  0  0  0  0  0  0  0
  130.7608  133.9064  158.7273 C   0  0  0  0  0  0  0  0  0  0  0  0
  130.9192  132.4825  158.2598 C   0  0  0  0  0  0  0  0  0  0  0  0
  131.0595  132.2092  156.9120 C   0  0  0  0  0  0  0  0  0  0  0  0
  131.2086  130.9034  156.4835 C   0  0  0  0  0  0  0  0  0  0  0  0
  131.2094  129.8703  157.4020 C   0  0  0  0  0  0  0  0  0  0  0  0
  131.0638  130.1433  158.7493 C   0  0  0  0  0  0  0  0  0  0  0  0
  130.9185  131.4494  159.1782 C   0  0  0  0  0  0  0  0  0  0  0  0
  129.2977  134.2666  158.7535 C   0  0  0  0  0  0  0  0  0  0  0  0
  128.7013  134.8171  157.6345 C   0  0  0  0  0  0  0  0  0  0  0  0
  127.3582  135.1437  157.6571 C   0  0  0  0  0  0  0  0  0  0  0  0
  126.6136  134.9277  158.8017 C   0  0  0  0  0  0  0  0  0  0  0  0
  127.2112  134.3821  159.9224 C   0  0  0  0  0  0  0  0  0  0  0  0
  128.5533  134.0518  159.8984 C   0  0  0  0  0  0  0  0  0  0  0  0
  132.7950  134.1873  160.0265 C   0  0  0  0  0  0  0  0  0  0  0  0
  137.6033  135.0477  163.0447 C   0  0  0  0  0  0  0  0  0  0  0  0
  138.5646  134.4422  163.8320 C   0  0  0  0  0  0  0  0  0  0  0  0
  139.7638  134.5956  165.5952 H   0  0  0  0  0  0  0  0  0  0  0  0
  138.8619  136.7976  166.2282 H   0  0  0  0  0  0  0  0  0  0  0  0
  137.1561  137.8803  164.8206 H   0  0  0  0  0  0  0  0  0  0  0  0
  136.1926  136.6415  161.4990 H   0  0  0  0  0  0  0  0  0  0  0  0
  136.1575  138.0315  162.6102 H   0  0  0  0  0  0  0  0  0  0  0  0
  134.5275  136.8397  164.0495 H   0  0  0  0  0  0  0  0  0  0  0  0
  134.5624  135.4498  162.9381 H   0  0  0  0  0  0  0  0  0  0  0  0
  134.4688  139.0867  162.7303 H   0  0  0  0  0  0  0  0  0  0  0  0
  134.7616  138.6448  161.0310 H   0  0  0  0  0  0  0  0  0  0  0  0
  133.0583  139.0060  159.3422 H   0  0  0  0  0  0  0  0  0  0  0  0
  131.0839  140.3110  158.6626 H   0  0  0  0  0  0  0  0  0  0  0  0
  129.7485  141.4965  160.3579 H   0  0  0  0  0  0  0  0  0  0  0  0
  130.3822  141.3694  162.7340 H   0  0  0  0  0  0  0  0  0  0  0  0
  132.3512  140.0568  163.4146 H   0  0  0  0  0  0  0  0  0  0  0  0
  132.6764  134.9014  162.1205 H   0  0  0  0  0  0  0  0  0  0  0  0
  130.4384  135.5470  161.3559 H   0  0  0  0  0  0  0  0  0  0  0  0
  131.0865  136.1724  159.7764 H   0  0  0  0  0  0  0  0  0  0  0  0
  131.2871  134.5736  158.0447 H   0  0  0  0  0  0  0  0  0  0  0  0
  131.0555  133.0160  156.1941 H   0  0  0  0  0  0  0  0  0  0  0  0
  131.3219  130.6902  155.4308 H   0  0  0  0  0  0  0  0  0  0  0  0
  131.3232  128.8500  157.0670 H   0  0  0  0  0  0  0  0  0  0  0  0
  131.0640  129.3362  159.4669 H   0  0  0  0  0  0  0  0  0  0  0  0
  130.8048  131.6626  160.2309 H   0  0  0  0  0  0  0  0  0  0  0  0
  129.2838  134.9890  156.7415 H   0  0  0  0  0  0  0  0  0  0  0  0
  126.8914  135.5703  156.7816 H   0  0  0  0  0  0  0  0  0  0  0  0
  125.5649  135.1854  158.8202 H   0  0  0  0  0  0  0  0  0  0  0  0
  126.6295  134.2135  160.8165 H   0  0  0  0  0  0  0  0  0  0  0  0
  129.0202  133.6255  160.7740 H   0  0  0  0  0  0  0  0  0  0  0  0
  133.1669  134.5634  159.0734 H   0  0  0  0  0  0  0  0  0  0  0  0
  133.3358  133.3082  160.3771 H   0  0  0  0  0  0  0  0  0  0  0  0
  137.2476  134.5548  162.1519 H   0  0  0  0  0  0  0  0  0  0  0  0
  138.9600  133.4763  163.5546 H   0  0  0  0  0  0  0  0  0  0  0  0
  1 37  2  0
  1  2  1  0
  1 38  1  0
  2  3  2  0
  2 39  1  0
  3  4  1  0
  3 40  1  0
  4  5  1  0
  4 36  2  0
  5  6  1  0
  5 41  1  0
  5 42  1  0
  6  7  1  0
  6 43  1  0
  6 44  1  0
  7  8  1  1
  7  9  1  0
  7 16  1  0
  9 10  1  0
  9 45  1  0
  9 46  1  0
 10 15  1  0
 10 11  2  0
 11 12  1  0
 11 47  1  0
 12 13  2  0
 12 48  1  0
 13 14  1  0
 13 49  1  0
 14 15  2  0
 14 50  1  0
 15 51  1  0
 16 17  1  0
 16 18  1  0
 16 19  1  0
 19 35  1  0
 19 20  1  0
 19 52  1  0
 20 21  1  0
 20 53  1  0
 20 54  1  0
 21 22  1  0
 21 35  1  0
 22 23  1  0
 22 29  1  0
 22 55  1  0
 23 28  1  0
 23 24  2  0
 24 25  1  0
 24 56  1  0
 25 26  2  0
 25 57  1  0
 26 27  1  0
 26 58  1  0
 27 28  2  0
 27 59  1  0
 28 60  1  0
 29 34  1  0
 29 30  2  0
 30 31  1  0
 30 61  1  0
 31 32  2  0
 31 62  1  0
 32 33  1  0
 32 63  1  0
 33 34  2  0
 33 64  1  0
 34 65  1  0
 35 66  1  0
 35 67  1  0
 36 37  1  0
 36 68  1  0
 37 69  1  0
M  CHG  1  16   1
M  END
>  <DOCK_score>  (1) 
-57.631107

>  <SMILES>  (1) 
c1ccc(CC[C@@H](Cc2ccccc2)[NH2+]C2CN(C(c3ccccc3)c3ccccc3)C2)cc1

$$$$
