Oc1ccc2c(c1)C(Nc1[nH]cc(CCNc3ccccc3Cl)[nH+]1)c1cc(O)ccc1-2
     RDKit          3D

 53 57  0  0  1  0  0  0  0  0999 V2000
  124.2175  134.7126  161.7389 O   0  0  0  0  0  0  0  0  0  0  0  0
  125.1637  133.9608  161.1176 C   0  0  0  0  0  0  0  0  0  0  0  0
  124.9225  132.6192  160.8551 C   0  0  0  0  0  0  0  0  0  0  0  0
  125.8797  131.8527  160.2258 C   0  0  0  0  0  0  0  0  0  0  0  0
  127.0971  132.4247  159.8501 C   0  0  0  0  0  0  0  0  0  0  0  0
  127.3322  133.7714  160.1166 C   0  0  0  0  0  0  0  0  0  0  0  0
  126.3728  134.5340  160.7464 C   0  0  0  0  0  0  0  0  0  0  0  0
  128.7121  134.1026  159.6033 C   0  0  0  0  0  0  0  0  0  0  0  0
  128.6310  135.1387  158.5709 N   0  0  0  0  0  0  0  0  0  0  0  0
  129.2840  136.3470  158.7496 C   0  0  0  0  0  0  0  0  0  0  0  0
  129.2931  137.3842  157.8695 N   0  0  0  0  0  0  0  0  0  0  0  0
  128.8479  137.4138  157.0083 H   0  0  0  0  0  0  0  0  0  0  0  0
  130.0547  138.3833  158.4325 C   0  0  0  0  0  0  0  0  0  0  0  0
  130.4799  137.9281  159.6232 C   0  0  0  0  0  0  0  0  0  0  0  0
  131.3477  138.6822  160.5974 C   0  0  0  0  0  0  0  0  0  0  0  0
  132.8203  138.3994  160.2936 C   0  0  0  0  0  0  0  0  0  0  0  0
  133.0782  136.9629  160.4206 N   0  0  0  0  0  0  0  0  0  0  0  0
  132.8553  136.3182  161.6402 C   0  0  0  0  0  0  0  0  0  0  0  0
  132.7981  137.0544  162.8165 C   0  0  0  0  0  0  0  0  0  0  0  0
  132.5776  136.4141  164.0203 C   0  0  0  0  0  0  0  0  0  0  0  0
  132.4139  135.0415  164.0558 C   0  0  0  0  0  0  0  0  0  0  0  0
  132.4701  134.3047  162.8873 C   0  0  0  0  0  0  0  0  0  0  0  0
  132.6904  134.9386  161.6790 C   0  0  0  0  0  0  0  0  0  0  0  0
  132.7603  134.0133  160.2119 Cl  0  0  0  0  0  0  0  0  0  0  0  0
  130.0035  136.6830  159.7940 N   0  0  0  0  0  0  0  0  0  0  0  0
  130.1642  136.1221  160.5689 H   0  0  0  0  0  0  0  0  0  0  0  0
  129.2575  132.8244  159.0147 C   0  0  0  0  0  0  0  0  0  0  0  0
  130.4553  132.5230  158.4069 C   0  0  0  0  0  0  0  0  0  0  0  0
  130.6975  131.2349  157.9481 C   0  0  0  0  0  0  0  0  0  0  0  0
  131.8803  130.9381  157.3485 O   0  0  0  0  0  0  0  0  0  0  0  0
  129.7308  130.2507  158.1019 C   0  0  0  0  0  0  0  0  0  0  0  0
  128.5293  130.5476  158.7086 C   0  0  0  0  0  0  0  0  0  0  0  0
  128.2811  131.8416  159.1717 C   0  0  0  0  0  0  0  0  0  0  0  0
  124.4765  135.6336  161.8792 H   0  0  0  0  0  0  0  0  0  0  0  0
  123.9820  132.1744  161.1453 H   0  0  0  0  0  0  0  0  0  0  0  0
  125.6883  130.8094  160.0232 H   0  0  0  0  0  0  0  0  0  0  0  0
  126.5608  135.5778  160.9501 H   0  0  0  0  0  0  0  0  0  0  0  0
  129.3468  134.4389  160.4230 H   0  0  0  0  0  0  0  0  0  0  0  0
  128.1198  134.9787  157.7622 H   0  0  0  0  0  0  0  0  0  0  0  0
  130.2697  139.3490  157.9995 H   0  0  0  0  0  0  0  0  0  0  0  0
  131.1180  138.3601  161.6132 H   0  0  0  0  0  0  0  0  0  0  0  0
  131.1560  139.7510  160.5031 H   0  0  0  0  0  0  0  0  0  0  0  0
  133.4479  138.9449  160.9984 H   0  0  0  0  0  0  0  0  0  0  0  0
  133.0500  138.7214  159.2779 H   0  0  0  0  0  0  0  0  0  0  0  0
  133.4036  136.4593  159.6581 H   0  0  0  0  0  0  0  0  0  0  0  0
  132.9263  138.1264  162.7899 H   0  0  0  0  0  0  0  0  0  0  0  0
  132.5287  136.9870  164.9346 H   0  0  0  0  0  0  0  0  0  0  0  0
  132.2421  134.5437  164.9988 H   0  0  0  0  0  0  0  0  0  0  0  0
  132.3416  133.2328  162.9186 H   0  0  0  0  0  0  0  0  0  0  0  0
  131.2071  133.2892  158.2871 H   0  0  0  0  0  0  0  0  0  0  0  0
  132.4888  131.6870  157.2868 H   0  0  0  0  0  0  0  0  0  0  0  0
  129.9205  129.2492  157.7446 H   0  0  0  0  0  0  0  0  0  0  0  0
  127.7797  129.7791  158.8265 H   0  0  0  0  0  0  0  0  0  0  0  0
  1  2  1  0
  1 34  1  0
  2  7  2  0
  2  3  1  0
  3  4  2  0
  3 35  1  0
  4  5  1  0
  4 36  1  0
  5 33  1  0
  5  6  2  0
  6  7  1  0
  6  8  1  0
  7 37  1  0
  8  9  1  0
  8 27  1  0
  8 38  1  0
  9 39  1  0
 10  9  1  0
 10 25  2  0
 10 11  1  0
 11 12  1  0
 11 13  1  0
 13 14  2  0
 13 40  1  0
 14 15  1  0
 14 25  1  0
 15 16  1  0
 15 41  1  0
 15 42  1  0
 16 17  1  0
 16 43  1  0
 16 44  1  0
 17 18  1  0
 17 45  1  0
 18 23  1  0
 18 19  2  0
 19 20  1  0
 19 46  1  0
 20 21  2  0
 20 47  1  0
 21 22  1  0
 21 48  1  0
 22 23  2  0
 22 49  1  0
 23 24  1  0
 25 26  1  0
 27 33  2  0
 27 28  1  0
 28 29  2  0
 28 50  1  0
 29 30  1  0
 29 31  1  0
 30 51  1  0
 31 32  2  0
 31 52  1  0
 32 33  1  0
 32 53  1  0
M  CHG  1  25   1
M  END
>  <DOCK_score>  (1) 
-46.767761

>  <SMILES>  (1) 
Oc1ccc2c(c1)C(Nc1[nH]cc(CCNc3ccccc3Cl)[nH+]1)c1cc(O)ccc1-2

$$$$
