OCc1cccc(-c2cccc(C3=CC[N@H+](Cc4ccc(-c5ccccc5)[nH]4)CC3)c2)c1
     RDKit          3D

 61 65  0  0  1  0  0  0  0  0999 V2000
  134.4649  138.2566  166.5135 O   0  0  0  0  0  0  0  0  0  0  0  0
  135.7684  138.8422  166.5065 C   0  0  0  0  0  0  0  0  0  0  0  0
  135.9266  139.7014  165.2786 C   0  0  0  0  0  0  0  0  0  0  0  0
  136.4854  140.9630  165.3853 C   0  0  0  0  0  0  0  0  0  0  0  0
  136.6275  141.7587  164.2639 C   0  0  0  0  0  0  0  0  0  0  0  0
  136.2133  141.2980  163.0302 C   0  0  0  0  0  0  0  0  0  0  0  0
  135.6506  140.0287  162.9167 C   0  0  0  0  0  0  0  0  0  0  0  0
  135.2030  139.5282  161.5932 C   0  0  0  0  0  0  0  0  0  0  0  0
  135.8417  139.9595  160.4311 C   0  0  0  0  0  0  0  0  0  0  0  0
  135.4310  139.4907  159.1986 C   0  0  0  0  0  0  0  0  0  0  0  0
  134.3785  138.6017  159.1076 C   0  0  0  0  0  0  0  0  0  0  0  0
  133.7274  138.1669  160.2633 C   0  0  0  0  0  0  0  0  0  0  0  0
  132.6005  137.2153  160.1654 C   0  0  0  0  0  0  0  0  0  0  0  0
  131.3791  137.6889  160.0450 C   0  0  0  0  0  0  0  0  0  0  0  0
  130.1681  136.8076  159.9393 C   0  0  0  0  0  0  0  0  0  0  0  0
  130.5579  135.4421  159.5691 N   0  0  2  0  0  0  0  0  0  0  0  0
  130.9198  135.4379  158.6272 H   0  0  0  0  0  0  0  0  0  0  0  0
  129.3881  134.5574  159.6521 C   0  0  0  0  0  0  0  0  0  0  0  0
  129.6364  133.3180  158.8318 C   0  0  0  0  0  0  0  0  0  0  0  0
  129.3689  132.0509  159.2153 C   0  0  0  0  0  0  0  0  0  0  0  0
  129.7469  131.1983  158.1653 C   0  0  0  0  0  0  0  0  0  0  0  0
  130.2380  131.9808  157.1639 C   0  0  0  0  0  0  0  0  0  0  0  0
  130.7542  131.5061  155.8622 C   0  0  0  0  0  0  0  0  0  0  0  0
  130.6408  132.3110  154.7277 C   0  0  0  0  0  0  0  0  0  0  0  0
  131.1292  131.8643  153.5172 C   0  0  0  0  0  0  0  0  0  0  0  0
  131.7212  130.6172  153.4243 C   0  0  0  0  0  0  0  0  0  0  0  0
  131.8318  129.8121  154.5441 C   0  0  0  0  0  0  0  0  0  0  0  0
  131.3520  130.2490  155.7615 C   0  0  0  0  0  0  0  0  0  0  0  0
  130.1634  133.2869  157.5750 N   0  0  0  0  0  0  0  0  0  0  0  0
  130.4414  134.0596  157.0586 H   0  0  0  0  0  0  0  0  0  0  0  0
  131.5976  134.9723  160.4983 C   0  0  0  0  0  0  0  0  0  0  0  0
  132.8908  135.7404  160.2131 C   0  0  0  0  0  0  0  0  0  0  0  0
  134.1422  138.6326  161.5096 C   0  0  0  0  0  0  0  0  0  0  0  0
  135.5090  139.2308  164.0503 C   0  0  0  0  0  0  0  0  0  0  0  0
  134.2814  137.6960  165.7472 H   0  0  0  0  0  0  0  0  0  0  0  0
  136.5209  138.0536  166.4977 H   0  0  0  0  0  0  0  0  0  0  0  0
  135.8957  139.4560  167.3984 H   0  0  0  0  0  0  0  0  0  0  0  0
  136.8098  141.3271  166.3490 H   0  0  0  0  0  0  0  0  0  0  0  0
  137.0636  142.7427  164.3531 H   0  0  0  0  0  0  0  0  0  0  0  0
  136.3257  141.9203  162.1548 H   0  0  0  0  0  0  0  0  0  0  0  0
  136.6627  140.6583  160.4953 H   0  0  0  0  0  0  0  0  0  0  0  0
  135.9319  139.8247  158.3021 H   0  0  0  0  0  0  0  0  0  0  0  0
  134.0589  138.2416  158.1409 H   0  0  0  0  0  0  0  0  0  0  0  0
  131.2417  138.7598  160.0170 H   0  0  0  0  0  0  0  0  0  0  0  0
  129.4933  137.2076  159.1825 H   0  0  0  0  0  0  0  0  0  0  0  0
  129.6586  136.7885  160.9026 H   0  0  0  0  0  0  0  0  0  0  0  0
  129.2177  134.2771  160.6915 H   0  0  0  0  0  0  0  0  0  0  0  0
  128.5110  135.0779  159.2677 H   0  0  0  0  0  0  0  0  0  0  0  0
  128.9418  131.7478  160.1599 H   0  0  0  0  0  0  0  0  0  0  0  0
  129.6638  130.1217  158.1538 H   0  0  0  0  0  0  0  0  0  0  0  0
  130.1749  133.2827  154.7980 H   0  0  0  0  0  0  0  0  0  0  0  0
  131.0458  132.4879  152.6393 H   0  0  0  0  0  0  0  0  0  0  0  0
  132.0983  130.2707  152.4735 H   0  0  0  0  0  0  0  0  0  0  0  0
  132.2949  128.8397  154.4649 H   0  0  0  0  0  0  0  0  0  0  0  0
  131.4386  129.6195  156.6348 H   0  0  0  0  0  0  0  0  0  0  0  0
  131.7654  133.9055  160.3506 H   0  0  0  0  0  0  0  0  0  0  0  0
  131.2812  135.1569  161.5249 H   0  0  0  0  0  0  0  0  0  0  0  0
  133.2996  135.4196  159.2550 H   0  0  0  0  0  0  0  0  0  0  0  0
  133.6147  135.5382  161.0025 H   0  0  0  0  0  0  0  0  0  0  0  0
  133.6421  138.2992  162.4069 H   0  0  0  0  0  0  0  0  0  0  0  0
  135.0738  138.2458  163.9678 H   0  0  0  0  0  0  0  0  0  0  0  0
  1  2  1  0
  1 35  1  0
  2  3  1  0
  2 36  1  0
  2 37  1  0
  3 34  2  0
  3  4  1  0
  4  5  2  0
  4 38  1  0
  5  6  1  0
  5 39  1  0
  6  7  2  0
  6 40  1  0
  7  8  1  0
  7 34  1  0
  8 33  1  0
  8  9  2  0
  9 10  1  0
  9 41  1  0
 10 11  2  0
 10 42  1  0
 11 12  1  0
 11 43  1  0
 12 13  1  0
 12 33  2  0
 13 32  1  0
 13 14  2  0
 14 15  1  0
 14 44  1  0
 15 16  1  0
 15 45  1  0
 15 46  1  0
 16 17  1  6
 16 18  1  0
 16 31  1  0
 18 19  1  0
 18 47  1  0
 18 48  1  0
 19 29  1  0
 19 20  2  0
 20 21  1  0
 20 49  1  0
 21 22  2  0
 21 50  1  0
 22 23  1  0
 22 29  1  0
 23 28  1  0
 23 24  2  0
 24 25  1  0
 24 51  1  0
 25 26  2  0
 25 52  1  0
 26 27  1  0
 26 53  1  0
 27 28  2  0
 27 54  1  0
 28 55  1  0
 29 30  1  0
 31 32  1  0
 31 56  1  0
 31 57  1  0
 32 58  1  0
 32 59  1  0
 33 60  1  0
 34 61  1  0
M  CHG  1  16   1
M  END
>  <DOCK_score>  (1) 
-58.99194

>  <SMILES>  (1) 
OCc1cccc(-c2cccc(C3=CC[N@H+](Cc4ccc(-c5ccccc5)[nH]4)CC3)c2)c1

$$$$
