CCc1ccc(-c2c[nH]c(N[C@H](CNc3ccc(F)cc3)Cc3ccc(F)cc3)[nH+]2)cc1
     RDKit          3D

 59 62  0  0  1  0  0  0  0  0999 V2000
  130.2600  128.2683  151.7098 C   0  0  0  0  0  0  0  0  0  0  0  0
  131.2951  129.3827  151.8759 C   0  0  0  0  0  0  0  0  0  0  0  0
  131.0058  130.1529  153.1385 C   0  0  0  0  0  0  0  0  0  0  0  0
  131.5799  129.7580  154.3329 C   0  0  0  0  0  0  0  0  0  0  0  0
  131.3233  130.4628  155.4915 C   0  0  0  0  0  0  0  0  0  0  0  0
  130.4746  131.5679  155.4581 C   0  0  0  0  0  0  0  0  0  0  0  0
  130.1904  132.3261  156.7009 C   0  0  0  0  0  0  0  0  0  0  0  0
  129.6253  131.8277  157.8284 C   0  0  0  0  0  0  0  0  0  0  0  0
  129.5466  132.8641  158.7265 N   0  0  0  0  0  0  0  0  0  0  0  0
  129.1867  132.8186  159.6261 H   0  0  0  0  0  0  0  0  0  0  0  0
  130.0665  133.9665  158.1212 C   0  0  0  0  0  0  0  0  0  0  0  0
  130.1724  135.2242  158.6898 N   0  0  0  0  0  0  0  0  0  0  0  0
  129.7018  135.4513  160.0585 C   0  0  2  0  0  0  0  0  0  0  0  0
  128.7707  134.9073  160.2174 H   0  0  0  0  0  0  0  0  0  0  0  0
  129.4618  136.9470  160.2737 C   0  0  0  0  0  0  0  0  0  0  0  0
  130.7133  137.6782  160.0599 N   0  0  0  0  0  0  0  0  0  0  0  0
  130.9559  138.8668  160.7549 C   0  0  0  0  0  0  0  0  0  0  0  0
  132.2548  139.3380  160.8946 C   0  0  0  0  0  0  0  0  0  0  0  0
  132.4916  140.5150  161.5775 C   0  0  0  0  0  0  0  0  0  0  0  0
  131.4362  141.2198  162.1312 C   0  0  0  0  0  0  0  0  0  0  0  0
  131.6707  142.3682  162.8032 F   0  0  0  0  0  0  0  0  0  0  0  0
  130.1409  140.7492  161.9976 C   0  0  0  0  0  0  0  0  0  0  0  0
  129.8989  139.5752  161.3115 C   0  0  0  0  0  0  0  0  0  0  0  0
  130.7572  134.9564  161.0495 C   0  0  0  0  0  0  0  0  0  0  0  0
  130.1156  134.7268  162.3936 C   0  0  0  0  0  0  0  0  0  0  0  0
  130.0676  135.7517  163.3202 C   0  0  0  0  0  0  0  0  0  0  0  0
  129.4745  135.5438  164.5510 C   0  0  0  0  0  0  0  0  0  0  0  0
  128.9385  134.3052  164.8603 C   0  0  0  0  0  0  0  0  0  0  0  0
  128.3642  134.0990  166.0657 F   0  0  0  0  0  0  0  0  0  0  0  0
  128.9923  133.2779  163.9336 C   0  0  0  0  0  0  0  0  0  0  0  0
  129.5805  133.4897  162.7011 C   0  0  0  0  0  0  0  0  0  0  0  0
  130.4554  133.6397  156.9129 N   0  0  0  0  0  0  0  0  0  0  0  0
  130.8651  134.2415  156.2719 H   0  0  0  0  0  0  0  0  0  0  0  0
  129.8942  131.9582  154.2525 C   0  0  0  0  0  0  0  0  0  0  0  0
  130.1626  131.2493  153.0991 C   0  0  0  0  0  0  0  0  0  0  0  0
  130.3111  127.5952  152.5656 H   0  0  0  0  0  0  0  0  0  0  0  0
  129.2628  128.7041  151.6494 H   0  0  0  0  0  0  0  0  0  0  0  0
  130.4691  127.7114  150.7965 H   0  0  0  0  0  0  0  0  0  0  0  0
  132.2919  128.9474  151.9358 H   0  0  0  0  0  0  0  0  0  0  0  0
  131.2436  130.0564  151.0196 H   0  0  0  0  0  0  0  0  0  0  0  0
  132.2336  128.8987  154.3585 H   0  0  0  0  0  0  0  0  0  0  0  0
  131.7758  130.1562  156.4229 H   0  0  0  0  0  0  0  0  0  0  0  0
  129.2992  130.8107  157.9892 H   0  0  0  0  0  0  0  0  0  0  0  0
  130.5585  135.9551  158.1821 H   0  0  0  0  0  0  0  0  0  0  0  0
  128.7099  137.2997  159.5677 H   0  0  0  0  0  0  0  0  0  0  0  0
  129.1118  137.1160  161.2920 H   0  0  0  0  0  0  0  0  0  0  0  0
  131.3735  137.3375  159.4362 H   0  0  0  0  0  0  0  0  0  0  0  0
  133.0787  138.7865  160.4665 H   0  0  0  0  0  0  0  0  0  0  0  0
  133.5013  140.8837  161.6833 H   0  0  0  0  0  0  0  0  0  0  0  0
  129.3193  141.3002  162.4306 H   0  0  0  0  0  0  0  0  0  0  0  0
  128.8885  139.2081  161.2081 H   0  0  0  0  0  0  0  0  0  0  0  0
  131.1860  134.0222  160.6871 H   0  0  0  0  0  0  0  0  0  0  0  0
  131.5443  135.7043  161.1456 H   0  0  0  0  0  0  0  0  0  0  0  0
  130.4903  136.7162  163.0806 H   0  0  0  0  0  0  0  0  0  0  0  0
  129.4334  136.3458  165.2732 H   0  0  0  0  0  0  0  0  0  0  0  0
  128.5748  132.3112  164.1739 H   0  0  0  0  0  0  0  0  0  0  0  0
  129.6224  132.6886  161.9781 H   0  0  0  0  0  0  0  0  0  0  0  0
  129.2357  132.8136  154.2209 H   0  0  0  0  0  0  0  0  0  0  0  0
  129.7132  131.5506  152.1644 H   0  0  0  0  0  0  0  0  0  0  0  0
  1  2  1  0
  1 36  1  0
  1 37  1  0
  1 38  1  0
  2  3  1  0
  2 39  1  0
  2 40  1  0
  3 35  2  0
  3  4  1  0
  4  5  2  0
  4 41  1  0
  5  6  1  0
  5 42  1  0
  6  7  1  0
  6 34  2  0
  7 32  1  0
  7  8  2  0
  8  9  1  0
  8 43  1  0
  9 10  1  0
  9 11  1  0
 11 12  1  0
 11 32  2  0
 12 13  1  0
 12 44  1  0
 13 14  1  1
 13 15  1  0
 13 24  1  0
 15 16  1  0
 15 45  1  0
 15 46  1  0
 16 17  1  0
 16 47  1  0
 17 23  1  0
 17 18  2  0
 18 19  1  0
 18 48  1  0
 19 20  2  0
 19 49  1  0
 20 21  1  0
 20 22  1  0
 22 23  2  0
 22 50  1  0
 23 51  1  0
 24 25  1  0
 24 52  1  0
 24 53  1  0
 25 31  1  0
 25 26  2  0
 26 27  1  0
 26 54  1  0
 27 28  2  0
 27 55  1  0
 28 29  1  0
 28 30  1  0
 30 31  2  0
 30 56  1  0
 31 57  1  0
 32 33  1  0
 34 35  1  0
 34 58  1  0
 35 59  1  0
M  CHG  1  32   1
M  END
>  <DOCK_score>  (1) 
-64.133957

>  <SMILES>  (1) 
CCc1ccc(-c2c[nH]c(N[C@H](CNc3ccc(F)cc3)Cc3ccc(F)cc3)[nH+]2)cc1

$$$$
