C[C@H](Cc1cn(C(c2ccccc2)c2ccccc2)nn1)[NH2+]C(c1ccccc1)c1ccccc1
     RDKit          3D

 66 70  0  0  1  0  0  0  0  0999 V2000
  131.6825  133.6123  161.3750 C   0  0  0  0  0  0  0  0  0  0  0  0
  131.9475  133.8255  159.8832 C   0  0  2  0  0  0  0  0  0  0  0  0
  132.2028  132.8726  159.4197 H   0  0  0  0  0  0  0  0  0  0  0  0
  133.1085  134.8060  159.7066 C   0  0  0  0  0  0  0  0  0  0  0  0
  132.7555  136.1235  160.3473 C   0  0  0  0  0  0  0  0  0  0  0  0
  133.6148  137.0118  160.8991 C   0  0  0  0  0  0  0  0  0  0  0  0
  132.8577  138.0389  161.3494 N   0  0  0  0  0  0  0  0  0  0  0  0
  133.3547  139.2395  162.0261 C   0  0  0  0  0  0  0  0  0  0  0  0
  134.3082  139.9705  161.1163 C   0  0  0  0  0  0  0  0  0  0  0  0
  134.1479  139.8979  159.7453 C   0  0  0  0  0  0  0  0  0  0  0  0
  135.0226  140.5685  158.9108 C   0  0  0  0  0  0  0  0  0  0  0  0
  136.0569  141.3122  159.4474 C   0  0  0  0  0  0  0  0  0  0  0  0
  136.2200  141.3809  160.8183 C   0  0  0  0  0  0  0  0  0  0  0  0
  135.3427  140.7139  161.6529 C   0  0  0  0  0  0  0  0  0  0  0  0
  132.1955  140.1403  162.3670 C   0  0  0  0  0  0  0  0  0  0  0  0
  131.3854  140.6346  161.3619 C   0  0  0  0  0  0  0  0  0  0  0  0
  130.3193  141.4568  161.6751 C   0  0  0  0  0  0  0  0  0  0  0  0
  130.0696  141.7932  162.9924 C   0  0  0  0  0  0  0  0  0  0  0  0
  130.8828  141.3031  163.9970 C   0  0  0  0  0  0  0  0  0  0  0  0
  131.9460  140.4766  163.6843 C   0  0  0  0  0  0  0  0  0  0  0  0
  131.6264  137.7825  161.0762 N   0  0  0  0  0  0  0  0  0  0  0  0
  131.5316  136.6473  160.4785 N   0  0  0  0  0  0  0  0  0  0  0  0
  130.7428  134.3730  159.2452 N   0  0  0  0  0  0  0  0  0  0  0  0
  130.3183  135.0540  159.8568 H   0  0  0  0  0  0  0  0  0  0  0  0
  130.9949  134.8145  158.3736 H   0  0  0  0  0  0  0  0  0  0  0  0
  129.7892  133.2862  158.9856 C   0  0  0  0  0  0  0  0  0  0  0  0
  128.4087  133.8622  158.8027 C   0  0  0  0  0  0  0  0  0  0  0  0
  127.2974  133.1178  159.1514 C   0  0  0  0  0  0  0  0  0  0  0  0
  126.0312  133.6479  158.9881 C   0  0  0  0  0  0  0  0  0  0  0  0
  125.8760  134.9185  158.4661 C   0  0  0  0  0  0  0  0  0  0  0  0
  126.9872  135.6609  158.1123 C   0  0  0  0  0  0  0  0  0  0  0  0
  128.2534  135.1327  158.2807 C   0  0  0  0  0  0  0  0  0  0  0  0
  130.1957  132.5492  157.7356 C   0  0  0  0  0  0  0  0  0  0  0  0
  129.7081  132.9517  156.5064 C   0  0  0  0  0  0  0  0  0  0  0  0
  130.0848  132.2786  155.3592 C   0  0  0  0  0  0  0  0  0  0  0  0
  130.9409  131.1964  155.4425 C   0  0  0  0  0  0  0  0  0  0  0  0
  131.4243  130.7906  156.6723 C   0  0  0  0  0  0  0  0  0  0  0  0
  131.0517  131.4669  157.8190 C   0  0  0  0  0  0  0  0  0  0  0  0
  132.6174  133.3672  161.8787 H   0  0  0  0  0  0  0  0  0  0  0  0
  131.2665  134.5239  161.8040 H   0  0  0  0  0  0  0  0  0  0  0  0
  130.9743  132.7938  161.5048 H   0  0  0  0  0  0  0  0  0  0  0  0
  133.2974  134.9580  158.6439 H   0  0  0  0  0  0  0  0  0  0  0  0
  134.0024  134.3998  160.1799 H   0  0  0  0  0  0  0  0  0  0  0  0
  134.6887  136.9188  160.9677 H   0  0  0  0  0  0  0  0  0  0  0  0
  133.8733  138.9526  162.9409 H   0  0  0  0  0  0  0  0  0  0  0  0
  133.3397  139.3171  159.3259 H   0  0  0  0  0  0  0  0  0  0  0  0
  134.8976  140.5114  157.8395 H   0  0  0  0  0  0  0  0  0  0  0  0
  136.7401  141.8361  158.7953 H   0  0  0  0  0  0  0  0  0  0  0  0
  137.0305  141.9583  161.2374 H   0  0  0  0  0  0  0  0  0  0  0  0
  135.4677  140.7708  162.7241 H   0  0  0  0  0  0  0  0  0  0  0  0
  131.5833  140.3752  160.3324 H   0  0  0  0  0  0  0  0  0  0  0  0
  129.6842  141.8400  160.8902 H   0  0  0  0  0  0  0  0  0  0  0  0
  129.2393  142.4392  163.2367 H   0  0  0  0  0  0  0  0  0  0  0  0
  130.6880  141.5662  165.0262 H   0  0  0  0  0  0  0  0  0  0  0  0
  132.5814  140.0940  164.4692 H   0  0  0  0  0  0  0  0  0  0  0  0
  129.7861  132.5963  159.8295 H   0  0  0  0  0  0  0  0  0  0  0  0
  127.4184  132.1234  159.5551 H   0  0  0  0  0  0  0  0  0  0  0  0
  125.1631  133.0678  159.2640 H   0  0  0  0  0  0  0  0  0  0  0  0
  124.8866  135.3309  158.3343 H   0  0  0  0  0  0  0  0  0  0  0  0
  126.8659  136.6534  157.7043 H   0  0  0  0  0  0  0  0  0  0  0  0
  129.1216  135.7126  158.0040 H   0  0  0  0  0  0  0  0  0  0  0  0
  129.0359  133.7945  156.4418 H   0  0  0  0  0  0  0  0  0  0  0  0
  129.7070  132.5956  154.3984 H   0  0  0  0  0  0  0  0  0  0  0  0
  131.2317  130.6678  154.5467 H   0  0  0  0  0  0  0  0  0  0  0  0
  132.0928  129.9448  156.7374 H   0  0  0  0  0  0  0  0  0  0  0  0
  131.4290  131.1496  158.7797 H   0  0  0  0  0  0  0  0  0  0  0  0
  1  2  1  0
  1 39  1  0
  1 40  1  0
  1 41  1  0
  2  3  1  6
  2  4  1  0
  2 23  1  0
  4  5  1  0
  4 42  1  0
  4 43  1  0
  5 22  1  0
  5  6  2  0
  6  7  1  0
  6 44  1  0
  7  8  1  0
  7 21  1  0
  8  9  1  0
  8 15  1  0
  8 45  1  0
  9 14  1  0
  9 10  2  0
 10 11  1  0
 10 46  1  0
 11 12  2  0
 11 47  1  0
 12 13  1  0
 12 48  1  0
 13 14  2  0
 13 49  1  0
 14 50  1  0
 15 20  1  0
 15 16  2  0
 16 17  1  0
 16 51  1  0
 17 18  2  0
 17 52  1  0
 18 19  1  0
 18 53  1  0
 19 20  2  0
 19 54  1  0
 20 55  1  0
 21 22  2  0
 23 24  1  0
 23 25  1  0
 23 26  1  0
 26 27  1  0
 26 33  1  0
 26 56  1  0
 27 32  1  0
 27 28  2  0
 28 29  1  0
 28 57  1  0
 29 30  2  0
 29 58  1  0
 30 31  1  0
 30 59  1  0
 31 32  2  0
 31 60  1  0
 32 61  1  0
 33 38  1  0
 33 34  2  0
 34 35  1  0
 34 62  1  0
 35 36  2  0
 35 63  1  0
 36 37  1  0
 36 64  1  0
 37 38  2  0
 37 65  1  0
 38 66  1  0
M  CHG  1  23   1
M  END
>  <DOCK_score>  (1) 
-61.500565

>  <SMILES>  (1) 
C[C@H](Cc1cn(C(c2ccccc2)c2ccccc2)nn1)[NH2+]C(c1ccccc1)c1ccccc1

$$$$
