Nc1ccc(Nc2cccc([C@H](c3ccccc3)[NH+]3CCN(c4cccc5cc[nH]c45)CC3)c2)cc1
     RDKit          3D

 68 73  0  0  1  0  0  0  0  0999 V2000
  130.1145  128.6777  150.5323 N   0  0  0  0  0  0  0  0  0  0  0  0
  130.3555  129.5671  151.5860 C   0  0  0  0  0  0  0  0  0  0  0  0
  129.3023  130.0109  152.3746 C   0  0  0  0  0  0  0  0  0  0  0  0
  129.5399  130.8889  153.4135 C   0  0  0  0  0  0  0  0  0  0  0  0
  130.8323  131.3277  153.6699 C   0  0  0  0  0  0  0  0  0  0  0  0
  131.0724  132.2226  154.7196 N   0  0  0  0  0  0  0  0  0  0  0  0
  130.7459  131.8657  156.0301 C   0  0  0  0  0  0  0  0  0  0  0  0
  130.7910  130.5329  156.4207 C   0  0  0  0  0  0  0  0  0  0  0  0
  130.4676  130.1837  157.7168 C   0  0  0  0  0  0  0  0  0  0  0  0
  130.0994  131.1588  158.6261 C   0  0  0  0  0  0  0  0  0  0  0  0
  130.0534  132.4859  158.2408 C   0  0  0  0  0  0  0  0  0  0  0  0
  129.6517  133.5447  159.2351 C   0  0  2  0  0  0  0  0  0  0  0  0
  129.4364  133.0777  160.1962 H   0  0  0  0  0  0  0  0  0  0  0  0
  128.4222  134.2602  158.7377 C   0  0  0  0  0  0  0  0  0  0  0  0
  127.1661  133.7899  159.0719 C   0  0  0  0  0  0  0  0  0  0  0  0
  126.0383  134.4488  158.6194 C   0  0  0  0  0  0  0  0  0  0  0  0
  126.1666  135.5725  157.8246 C   0  0  0  0  0  0  0  0  0  0  0  0
  127.4227  136.0402  157.4863 C   0  0  0  0  0  0  0  0  0  0  0  0
  128.5505  135.3838  157.9425 C   0  0  0  0  0  0  0  0  0  0  0  0
  130.7487  134.5086  159.3940 N   0  0  0  0  0  0  0  0  0  0  0  0
  130.9479  134.9408  158.5044 H   0  0  0  0  0  0  0  0  0  0  0  0
  131.9471  133.8107  159.8780 C   0  0  0  0  0  0  0  0  0  0  0  0
  133.0955  134.8113  160.0257 C   0  0  0  0  0  0  0  0  0  0  0  0
  132.7049  135.8645  160.9732 N   0  0  0  0  0  0  0  0  0  0  0  0
  133.7513  136.7699  161.1755 C   0  0  0  0  0  0  0  0  0  0  0  0
  134.2658  137.4879  160.1098 C   0  0  0  0  0  0  0  0  0  0  0  0
  135.2991  138.3936  160.3023 C   0  0  0  0  0  0  0  0  0  0  0  0
  135.8357  138.5826  161.5445 C   0  0  0  0  0  0  0  0  0  0  0  0
  135.3375  137.8644  162.6354 C   0  0  0  0  0  0  0  0  0  0  0  0
  135.6680  137.8220  164.0618 C   0  0  0  0  0  0  0  0  0  0  0  0
  134.8407  136.9306  164.6306 C   0  0  0  0  0  0  0  0  0  0  0  0
  134.0078  136.3990  163.6853 N   0  0  0  0  0  0  0  0  0  0  0  0
  133.3231  135.7336  163.8563 H   0  0  0  0  0  0  0  0  0  0  0  0
  134.2866  136.9501  162.4529 C   0  0  0  0  0  0  0  0  0  0  0  0
  131.4918  136.5558  160.5144 C   0  0  0  0  0  0  0  0  0  0  0  0
  130.3566  135.5409  160.3626 C   0  0  0  0  0  0  0  0  0  0  0  0
  130.3808  132.8430  156.9474 C   0  0  0  0  0  0  0  0  0  0  0  0
  131.8857  130.8835  152.8814 C   0  0  0  0  0  0  0  0  0  0  0  0
  131.6479  130.0059  151.8422 C   0  0  0  0  0  0  0  0  0  0  0  0
  129.2117  128.3714  150.3530 H   0  0  0  0  0  0  0  0  0  0  0  0
  130.8503  128.3678  149.9813 H   0  0  0  0  0  0  0  0  0  0  0  0
  128.2971  129.6696  152.1752 H   0  0  0  0  0  0  0  0  0  0  0  0
  128.7206  131.2346  154.0263 H   0  0  0  0  0  0  0  0  0  0  0  0
  131.4654  133.0904  154.5370 H   0  0  0  0  0  0  0  0  0  0  0  0
  131.0791  129.7711  155.7113 H   0  0  0  0  0  0  0  0  0  0  0  0
  130.5025  129.1480  158.0211 H   0  0  0  0  0  0  0  0  0  0  0  0
  129.8469  130.8828  159.6392 H   0  0  0  0  0  0  0  0  0  0  0  0
  127.0658  132.9096  159.6896 H   0  0  0  0  0  0  0  0  0  0  0  0
  125.0569  134.0836  158.8839 H   0  0  0  0  0  0  0  0  0  0  0  0
  125.2855  136.0852  157.4682 H   0  0  0  0  0  0  0  0  0  0  0  0
  127.5229  136.9181  156.8655 H   0  0  0  0  0  0  0  0  0  0  0  0
  129.5319  135.7489  157.6781 H   0  0  0  0  0  0  0  0  0  0  0  0
  131.7362  133.3544  160.8450 H   0  0  0  0  0  0  0  0  0  0  0  0
  132.2294  133.0364  159.1646 H   0  0  0  0  0  0  0  0  0  0  0  0
  133.3159  135.2578  159.0560 H   0  0  0  0  0  0  0  0  0  0  0  0
  133.9807  134.2963  160.3990 H   0  0  0  0  0  0  0  0  0  0  0  0
  133.8558  137.3457  159.1209 H   0  0  0  0  0  0  0  0  0  0  0  0
  135.6864  138.9501  159.4617 H   0  0  0  0  0  0  0  0  0  0  0  0
  136.6434  139.2860  161.6835 H   0  0  0  0  0  0  0  0  0  0  0  0
  136.4328  138.3983  164.5611 H   0  0  0  0  0  0  0  0  0  0  0  0
  134.8344  136.6715  165.6790 H   0  0  0  0  0  0  0  0  0  0  0  0
  131.6856  137.0311  159.5529 H   0  0  0  0  0  0  0  0  0  0  0  0
  131.2069  137.3136  161.2442 H   0  0  0  0  0  0  0  0  0  0  0  0
  129.4597  136.0492  160.0087 H   0  0  0  0  0  0  0  0  0  0  0  0
  130.1538  135.0757  161.3273 H   0  0  0  0  0  0  0  0  0  0  0  0
  130.3489  133.8803  156.6483 H   0  0  0  0  0  0  0  0  0  0  0  0
  132.8908  131.2250  153.0806 H   0  0  0  0  0  0  0  0  0  0  0  0
  132.4670  129.6603  151.2291 H   0  0  0  0  0  0  0  0  0  0  0  0
  1  2  1  0
  1 40  1  0
  1 41  1  0
  2 39  2  0
  2  3  1  0
  3  4  2  0
  3 42  1  0
  4  5  1  0
  4 43  1  0
  5  6  1  0
  5 38  2  0
  6  7  1  0
  6 44  1  0
  7 37  1  0
  7  8  2  0
  8  9  1  0
  8 45  1  0
  9 10  2  0
  9 46  1  0
 10 11  1  0
 10 47  1  0
 11 12  1  0
 11 37  2  0
 12 13  1  1
 12 14  1  0
 12 20  1  0
 14 19  1  0
 14 15  2  0
 15 16  1  0
 15 48  1  0
 16 17  2  0
 16 49  1  0
 17 18  1  0
 17 50  1  0
 18 19  2  0
 18 51  1  0
 19 52  1  0
 20 21  1  0
 20 36  1  0
 20 22  1  0
 22 23  1  0
 22 53  1  0
 22 54  1  0
 23 24  1  0
 23 55  1  0
 23 56  1  0
 24 25  1  0
 24 35  1  0
 25 34  1  0
 25 26  2  0
 26 27  1  0
 26 57  1  0
 27 28  2  0
 27 58  1  0
 28 29  1  0
 28 59  1  0
 29 34  2  0
 29 30  1  0
 30 31  2  0
 30 60  1  0
 31 32  1  0
 31 61  1  0
 32 33  1  0
 32 34  1  0
 35 36  1  0
 35 62  1  0
 35 63  1  0
 36 64  1  0
 36 65  1  0
 37 66  1  0
 38 39  1  0
 38 67  1  0
 39 68  1  0
M  CHG  1  20   1
M  END
>  <DOCK_score>  (1) 
-65.680984

>  <SMILES>  (1) 
Nc1ccc(Nc2cccc([C@H](c3ccccc3)[NH+]3CCN(c4cccc5cc[nH]c45)CC3)c2)cc1

$$$$
