CC(=O)C=CNc1ccc(-c2n[nH]cc2C[NH2+]CC2CC3C[C@H]3C2)o1
     RDKit          3D

 50 53  0  0  1  0  0  0  0  0999 V2000
  126.5389  140.8122  164.5509 C   0  0  0  0  0  0  0  0  0  0  0  0
  127.2369  139.7274  163.7717 C   0  0  0  0  0  0  0  0  0  0  0  0
  128.4396  139.7776  163.6038 O   0  0  0  0  0  0  0  0  0  0  0  0
  126.4991  138.6609  163.2406 C   0  0  0  0  0  0  0  0  0  0  0  0
  127.1273  137.6845  162.5392 C   0  0  0  0  0  0  0  0  0  0  0  0
  126.4297  136.5921  162.1171 N   0  0  0  0  0  0  0  0  0  0  0  0
  127.0734  135.5916  161.3983 C   0  0  0  0  0  0  0  0  0  0  0  0
  126.4968  134.4569  160.9286 C   0  0  0  0  0  0  0  0  0  0  0  0
  127.5022  133.7306  160.2622 C   0  0  0  0  0  0  0  0  0  0  0  0
  128.6472  134.4567  160.3656 C   0  0  0  0  0  0  0  0  0  0  0  0
  129.9651  134.0776  159.8154 C   0  0  0  0  0  0  0  0  0  0  0  0
  130.2360  132.9815  159.1347 N   0  0  0  0  0  0  0  0  0  0  0  0
  131.5953  133.0042  158.7973 N   0  0  0  0  0  0  0  0  0  0  0  0
  132.0683  132.3222  158.2954 H   0  0  0  0  0  0  0  0  0  0  0  0
  132.1336  134.1401  159.2918 C   0  0  0  0  0  0  0  0  0  0  0  0
  131.1557  134.8272  159.9200 C   0  0  0  0  0  0  0  0  0  0  0  0
  131.3095  136.1570  160.6124 C   0  0  0  0  0  0  0  0  0  0  0  0
  131.0532  137.2405  159.6540 N   0  0  0  0  0  0  0  0  0  0  0  0
  131.7128  137.1792  158.8929 H   0  0  0  0  0  0  0  0  0  0  0  0
  130.1147  137.1557  159.2935 H   0  0  0  0  0  0  0  0  0  0  0  0
  131.2032  138.5367  160.3289 C   0  0  0  0  0  0  0  0  0  0  0  0
  132.6263  138.6653  160.8757 C   0  0  2  0  0  0  0  0  0  0  0  0
  132.8689  140.0846  161.4463 C   0  0  0  0  0  0  0  0  0  0  0  0
  134.3996  140.2635  161.3773 C   0  0  1  0  0  0  0  0  0  0  0  0
  135.2843  139.0723  161.7503 C   0  0  0  0  0  0  0  0  0  0  0  0
  134.9056  139.3039  160.2861 C   0  0  1  0  0  0  0  0  0  0  0  0
  135.6698  139.6102  159.5717 H   0  0  0  0  0  0  0  0  0  0  0  0
  133.6647  138.5753  159.7300 C   0  0  0  0  0  0  0  0  0  0  0  0
  128.3736  135.5825  161.0566 O   0  0  0  0  0  0  0  0  0  0  0  0
  125.4711  140.5977  164.5960 H   0  0  0  0  0  0  0  0  0  0  0  0
  126.9445  140.8516  165.5619 H   0  0  0  0  0  0  0  0  0  0  0  0
  126.6963  141.7719  164.0585 H   0  0  0  0  0  0  0  0  0  0  0  0
  125.4310  138.6139  163.3936 H   0  0  0  0  0  0  0  0  0  0  0  0
  128.1802  137.7725  162.3153 H   0  0  0  0  0  0  0  0  0  0  0  0
  125.4841  136.5131  162.3181 H   0  0  0  0  0  0  0  0  0  0  0  0
  125.4628  134.1669  161.0426 H   0  0  0  0  0  0  0  0  0  0  0  0
  127.3869  132.7778  159.7672 H   0  0  0  0  0  0  0  0  0  0  0  0
  133.1647  134.4472  159.1971 H   0  0  0  0  0  0  0  0  0  0  0  0
  130.5970  136.2231  161.4346 H   0  0  0  0  0  0  0  0  0  0  0  0
  132.3233  136.2487  161.0020 H   0  0  0  0  0  0  0  0  0  0  0  0
  131.0129  139.3406  159.6180 H   0  0  0  0  0  0  0  0  0  0  0  0
  130.4907  138.6027  161.1512 H   0  0  0  0  0  0  0  0  0  0  0  0
  132.8183  137.9039  161.6317 H   0  0  0  0  0  0  0  0  0  0  0  0
  132.3693  140.8334  160.8317 H   0  0  0  0  0  0  0  0  0  0  0  0
  132.5239  140.1451  162.4784 H   0  0  0  0  0  0  0  0  0  0  0  0
  134.7975  141.2738  161.4725 H   0  0  0  0  0  0  0  0  0  0  0  0
  134.8109  138.2365  162.2658 H   0  0  0  0  0  0  0  0  0  0  0  0
  136.3131  139.2823  162.0427 H   0  0  0  0  0  0  0  0  0  0  0  0
  133.9005  137.5342  159.5098 H   0  0  0  0  0  0  0  0  0  0  0  0
  133.2937  139.0803  158.8382 H   0  0  0  0  0  0  0  0  0  0  0  0
  1  2  1  0
  1 30  1  0
  1 31  1  0
  1 32  1  0
  2  3  2  0
  2  4  1  0
  4  5  2  0
  4 33  1  0
  5  6  1  0
  5 34  1  0
  6  7  1  0
  6 35  1  0
  7 29  1  0
  7  8  2  0
  8  9  1  0
  8 36  1  0
  9 10  2  0
  9 37  1  0
 10 11  1  0
 10 29  1  0
 11 16  1  0
 11 12  2  0
 12 13  1  0
 13 14  1  0
 13 15  1  0
 15 16  2  0
 15 38  1  0
 16 17  1  0
 17 18  1  0
 17 39  1  0
 17 40  1  0
 18 19  1  0
 18 20  1  0
 18 21  1  0
 21 22  1  0
 21 41  1  0
 21 42  1  0
 22 28  1  0
 22 23  1  0
 22 43  1  1
 23 24  1  0
 23 44  1  0
 23 45  1  0
 24 26  1  0
 24 25  1  0
 24 46  1  6
 25 26  1  0
 25 47  1  0
 25 48  1  0
 26 27  1  6
 26 28  1  0
 28 49  1  0
 28 50  1  0
M  CHG  1  18   1
M  END
>  <DOCK_score>  (1) 
-43.326775

>  <SMILES>  (1) 
CC(=O)C=CNc1ccc(-c2n[nH]cc2C[NH2+]CC2CC3C[C@H]3C2)o1

$$$$
