Cc1cccc(N2CC[NH+]([C@@H](C(N)=O)c3ccccc3)CC2)c1-c1ccccc1CC1CC=CC1
     RDKit          3D

 71 75  0  0  1  0  0  0  0  0999 V2000
  136.1990  139.1809  163.6930 C   0  0  0  0  0  0  0  0  0  0  0  0
  135.5570  138.8505  162.3702 C   0  0  0  0  0  0  0  0  0  0  0  0
  136.0367  139.4207  161.2079 C   0  0  0  0  0  0  0  0  0  0  0  0
  135.4509  139.1215  159.9907 C   0  0  0  0  0  0  0  0  0  0  0  0
  134.3810  138.2493  159.9268 C   0  0  0  0  0  0  0  0  0  0  0  0
  133.8881  137.6688  161.0865 C   0  0  0  0  0  0  0  0  0  0  0  0
  132.8077  136.7889  161.0245 N   0  0  0  0  0  0  0  0  0  0  0  0
  133.1527  135.5845  160.2560 C   0  0  0  0  0  0  0  0  0  0  0  0
  131.9640  134.6209  160.2617 C   0  0  0  0  0  0  0  0  0  0  0  0
  130.7943  135.2826  159.6688 N   0  0  0  0  0  0  0  0  0  0  0  0
  131.0092  135.5617  158.7233 H   0  0  0  0  0  0  0  0  0  0  0  0
  129.6583  134.3512  159.6581 C   0  0  1  0  0  0  0  0  0  0  0  0
  129.4263  134.0493  160.6793 H   0  0  0  0  0  0  0  0  0  0  0  0
  128.4581  135.0298  159.0499 C   0  0  0  0  0  0  0  0  0  0  0  0
  128.2422  134.9541  157.7216 N   0  0  0  0  0  0  0  0  0  0  0  0
  127.6863  135.6440  159.7555 O   0  0  0  0  0  0  0  0  0  0  0  0
  130.0141  133.1346  158.8430 C   0  0  0  0  0  0  0  0  0  0  0  0
  129.4590  131.9075  159.1542 C   0  0  0  0  0  0  0  0  0  0  0  0
  129.7824  130.7922  158.4042 C   0  0  0  0  0  0  0  0  0  0  0  0
  130.6674  130.9026  157.3480 C   0  0  0  0  0  0  0  0  0  0  0  0
  131.2267  132.1287  157.0401 C   0  0  0  0  0  0  0  0  0  0  0  0
  130.9003  133.2446  157.7877 C   0  0  0  0  0  0  0  0  0  0  0  0
  130.4466  136.4692  160.4617 C   0  0  0  0  0  0  0  0  0  0  0  0
  131.6227  137.4482  160.4577 C   0  0  0  0  0  0  0  0  0  0  0  0
  134.4760  137.9743  162.3199 C   0  0  0  0  0  0  0  0  0  0  0  0
  133.9531  137.3640  163.5662 C   0  0  0  0  0  0  0  0  0  0  0  0
  132.9443  138.0008  164.2874 C   0  0  0  0  0  0  0  0  0  0  0  0
  132.4616  137.4282  165.4463 C   0  0  0  0  0  0  0  0  0  0  0  0
  132.9767  136.2243  165.8928 C   0  0  0  0  0  0  0  0  0  0  0  0
  133.9780  135.5883  165.1816 C   0  0  0  0  0  0  0  0  0  0  0  0
  134.4644  136.1488  164.0179 C   0  0  0  0  0  0  0  0  0  0  0  0
  135.5505  135.4511  163.2403 C   0  0  0  0  0  0  0  0  0  0  0  0
  136.6322  134.9591  164.2041 C   0  0  0  0  0  0  0  0  0  0  0  0
  137.6432  136.0842  164.5249 C   0  0  0  0  0  0  0  0  0  0  0  0
  138.9810  135.3856  164.6071 C   0  0  0  0  0  0  0  0  0  0  0  0
  138.9271  134.2005  164.0628 C   0  0  0  0  0  0  0  0  0  0  0  0
  137.5447  133.9108  163.5261 C   0  0  0  0  0  0  0  0  0  0  0  0
  135.7046  140.0483  164.1303 H   0  0  0  0  0  0  0  0  0  0  0  0
  136.1022  138.3294  164.3665 H   0  0  0  0  0  0  0  0  0  0  0  0
  137.2549  139.4039  163.5387 H   0  0  0  0  0  0  0  0  0  0  0  0
  136.8725  140.1034  161.2492 H   0  0  0  0  0  0  0  0  0  0  0  0
  135.8315  139.5721  159.0859 H   0  0  0  0  0  0  0  0  0  0  0  0
  133.9280  138.0198  158.9737 H   0  0  0  0  0  0  0  0  0  0  0  0
  134.0168  135.0989  160.7094 H   0  0  0  0  0  0  0  0  0  0  0  0
  133.3897  135.8638  159.2293 H   0  0  0  0  0  0  0  0  0  0  0  0
  132.2130  133.7334  159.6799 H   0  0  0  0  0  0  0  0  0  0  0  0
  131.7363  134.3309  161.2874 H   0  0  0  0  0  0  0  0  0  0  0  0
  128.8595  134.4628  157.1572 H   0  0  0  0  0  0  0  0  0  0  0  0
  127.4696  135.3909  157.3301 H   0  0  0  0  0  0  0  0  0  0  0  0
  128.7701  131.8206  159.9814 H   0  0  0  0  0  0  0  0  0  0  0  0
  129.3458  129.8343  158.6449 H   0  0  0  0  0  0  0  0  0  0  0  0
  130.9221  130.0308  156.7636 H   0  0  0  0  0  0  0  0  0  0  0  0
  131.9184  132.2148  156.2151 H   0  0  0  0  0  0  0  0  0  0  0  0
  131.3373  134.2026  157.5471 H   0  0  0  0  0  0  0  0  0  0  0  0
  129.5706  136.9518  160.0284 H   0  0  0  0  0  0  0  0  0  0  0  0
  130.2267  136.1697  161.4865 H   0  0  0  0  0  0  0  0  0  0  0  0
  131.8341  137.7585  159.4344 H   0  0  0  0  0  0  0  0  0  0  0  0
  131.3703  138.3224  161.0580 H   0  0  0  0  0  0  0  0  0  0  0  0
  132.5409  138.9402  163.9394 H   0  0  0  0  0  0  0  0  0  0  0  0
  131.6800  137.9207  166.0058 H   0  0  0  0  0  0  0  0  0  0  0  0
  132.5957  135.7796  166.8002 H   0  0  0  0  0  0  0  0  0  0  0  0
  134.3769  134.6489  165.5351 H   0  0  0  0  0  0  0  0  0  0  0  0
  135.1260  134.6011  162.7061 H   0  0  0  0  0  0  0  0  0  0  0  0
  135.9898  136.1469  162.5255 H   0  0  0  0  0  0  0  0  0  0  0  0
  136.1884  134.5600  165.1162 H   0  0  0  0  0  0  0  0  0  0  0  0
  137.6510  136.8266  163.7268 H   0  0  0  0  0  0  0  0  0  0  0  0
  137.3996  136.5531  165.4783 H   0  0  0  0  0  0  0  0  0  0  0  0
  139.8657  135.8112  165.0576 H   0  0  0  0  0  0  0  0  0  0  0  0
  139.7608  133.5166  164.0042 H   0  0  0  0  0  0  0  0  0  0  0  0
  137.2342  132.9028  163.8007 H   0  0  0  0  0  0  0  0  0  0  0  0
  137.5228  134.0322  162.4431 H   0  0  0  0  0  0  0  0  0  0  0  0
  1  2  1  0
  1 38  1  0
  1 39  1  0
  1 40  1  0
  2 25  2  0
  2  3  1  0
  3  4  2  0
  3 41  1  0
  4  5  1  0
  4 42  1  0
  5  6  2  0
  5 43  1  0
  6  7  1  0
  6 25  1  0
  7 24  1  0
  7  8  1  0
  8  9  1  0
  8 44  1  0
  8 45  1  0
  9 10  1  0
  9 46  1  0
  9 47  1  0
 10 11  1  0
 10 12  1  0
 10 23  1  0
 12 13  1  1
 12 14  1  0
 12 17  1  0
 14 15  1  0
 14 16  2  0
 15 48  1  0
 15 49  1  0
 17 22  1  0
 17 18  2  0
 18 19  1  0
 18 50  1  0
 19 20  2  0
 19 51  1  0
 20 21  1  0
 20 52  1  0
 21 22  2  0
 21 53  1  0
 22 54  1  0
 23 24  1  0
 23 55  1  0
 23 56  1  0
 24 57  1  0
 24 58  1  0
 25 26  1  0
 26 31  1  0
 26 27  2  0
 27 28  1  0
 27 59  1  0
 28 29  2  0
 28 60  1  0
 29 30  1  0
 29 61  1  0
 30 31  2  0
 30 62  1  0
 31 32  1  0
 32 33  1  0
 32 63  1  0
 32 64  1  0
 33 37  1  0
 33 34  1  0
 33 65  1  0
 34 35  1  0
 34 66  1  0
 34 67  1  0
 35 36  2  0
 35 68  1  0
 36 37  1  0
 36 69  1  0
 37 70  1  0
 37 71  1  0
M  CHG  1  10   1
M  END
>  <DOCK_score>  (1) 
-59.162968

>  <SMILES>  (1) 
Cc1cccc(N2CC[NH+]([C@@H](C(N)=O)c3ccccc3)CC2)c1-c1ccccc1CC1CC=CC1

$$$$
