Cc1ccc(-c2ccc3c(C[N@@H+]4CC=C(c5ccccc5)CC4)c[nH]c3c2)c(F)c1
     RDKit          3D

 56 60  0  0  1  0  0  0  0  0999 V2000
  130.5513  128.4757  151.1898 C   0  0  0  0  0  0  0  0  0  0  0  0
  130.5145  129.3392  152.4243 C   0  0  0  0  0  0  0  0  0  0  0  0
  129.6273  130.3985  152.4979 C   0  0  0  0  0  0  0  0  0  0  0  0
  129.5881  131.1934  153.6251 C   0  0  0  0  0  0  0  0  0  0  0  0
  130.4444  130.9282  154.6924 C   0  0  0  0  0  0  0  0  0  0  0  0
  130.4072  131.7798  155.9061 C   0  0  0  0  0  0  0  0  0  0  0  0
  130.0538  133.1293  155.7984 C   0  0  0  0  0  0  0  0  0  0  0  0
  130.0157  133.9233  156.9063 C   0  0  0  0  0  0  0  0  0  0  0  0
  130.3314  133.3886  158.1587 C   0  0  0  0  0  0  0  0  0  0  0  0
  130.3887  133.9426  159.5131 C   0  0  0  0  0  0  0  0  0  0  0  0
  130.0898  135.3645  159.9132 C   0  0  0  0  0  0  0  0  0  0  0  0
  131.3229  136.1604  159.8504 N   0  0  2  0  0  0  0  0  0  0  0  0
  131.6876  136.1467  158.9097 H   0  0  0  0  0  0  0  0  0  0  0  0
  132.3178  135.5980  160.7711 C   0  0  0  0  0  0  0  0  0  0  0  0
  133.5159  136.4986  160.8611 C   0  0  0  0  0  0  0  0  0  0  0  0
  133.4928  137.7597  160.4873 C   0  0  0  0  0  0  0  0  0  0  0  0
  134.7248  138.5654  160.6214 C   0  0  0  0  0  0  0  0  0  0  0  0
  134.9780  139.6116  159.7335 C   0  0  0  0  0  0  0  0  0  0  0  0
  136.1275  140.3628  159.8670 C   0  0  0  0  0  0  0  0  0  0  0  0
  137.0332  140.0739  160.8726 C   0  0  0  0  0  0  0  0  0  0  0  0
  136.7907  139.0347  161.7523 C   0  0  0  0  0  0  0  0  0  0  0  0
  135.6424  138.2792  161.6328 C   0  0  0  0  0  0  0  0  0  0  0  0
  132.2576  138.4113  159.9289 C   0  0  0  0  0  0  0  0  0  0  0  0
  131.0344  137.5476  160.2473 C   0  0  0  0  0  0  0  0  0  0  0  0
  130.7523  132.9422  160.3319 C   0  0  0  0  0  0  0  0  0  0  0  0
  130.9378  131.7938  159.6118 N   0  0  0  0  0  0  0  0  0  0  0  0
  131.2034  130.9386  159.9849 H   0  0  0  0  0  0  0  0  0  0  0  0
  130.6918  132.0333  158.2776 C   0  0  0  0  0  0  0  0  0  0  0  0
  130.7318  131.2346  157.1419 C   0  0  0  0  0  0  0  0  0  0  0  0
  131.3412  129.8619  154.6117 C   0  0  0  0  0  0  0  0  0  0  0  0
  132.1784  129.6017  155.6396 F   0  0  0  0  0  0  0  0  0  0  0  0
  131.3673  129.0697  153.4787 C   0  0  0  0  0  0  0  0  0  0  0  0
  131.2670  128.8883  150.4789 H   0  0  0  0  0  0  0  0  0  0  0  0
  130.8522  127.4642  151.4630 H   0  0  0  0  0  0  0  0  0  0  0  0
  129.5611  128.4497  150.7350 H   0  0  0  0  0  0  0  0  0  0  0  0
  128.9639  130.6037  151.6708 H   0  0  0  0  0  0  0  0  0  0  0  0
  128.8948  132.0196  153.6804 H   0  0  0  0  0  0  0  0  0  0  0  0
  129.8096  133.5446  154.8318 H   0  0  0  0  0  0  0  0  0  0  0  0
  129.7415  134.9640  156.8163 H   0  0  0  0  0  0  0  0  0  0  0  0
  129.6981  135.3810  160.9302 H   0  0  0  0  0  0  0  0  0  0  0  0
  129.3503  135.7858  159.2321 H   0  0  0  0  0  0  0  0  0  0  0  0
  132.6298  134.6181  160.4101 H   0  0  0  0  0  0  0  0  0  0  0  0
  131.8710  135.4926  161.7597 H   0  0  0  0  0  0  0  0  0  0  0  0
  134.4379  136.0930  161.2505 H   0  0  0  0  0  0  0  0  0  0  0  0
  134.2736  139.8354  158.9460 H   0  0  0  0  0  0  0  0  0  0  0  0
  136.3225  141.1754  159.1829 H   0  0  0  0  0  0  0  0  0  0  0  0
  137.9339  140.6619  160.9704 H   0  0  0  0  0  0  0  0  0  0  0  0
  137.5019  138.8140  162.5346 H   0  0  0  0  0  0  0  0  0  0  0  0
  135.4545  137.4679  162.3204 H   0  0  0  0  0  0  0  0  0  0  0  0
  132.1328  139.3969  160.3772 H   0  0  0  0  0  0  0  0  0  0  0  0
  132.3582  138.5140  158.8484 H   0  0  0  0  0  0  0  0  0  0  0  0
  130.8270  137.5869  161.3166 H   0  0  0  0  0  0  0  0  0  0  0  0
  130.1721  137.9152  159.6911 H   0  0  0  0  0  0  0  0  0  0  0  0
  130.8799  133.0312  161.4006 H   0  0  0  0  0  0  0  0  0  0  0  0
  131.0026  130.1921  157.2209 H   0  0  0  0  0  0  0  0  0  0  0  0
  132.0580  128.2419  153.4155 H   0  0  0  0  0  0  0  0  0  0  0  0
  1  2  1  0
  1 33  1  0
  1 34  1  0
  1 35  1  0
  2 32  2  0
  2  3  1  0
  3  4  2  0
  3 36  1  0
  4  5  1  0
  4 37  1  0
  5  6  1  0
  5 30  2  0
  6 29  1  0
  6  7  2  0
  7  8  1  0
  7 38  1  0
  8  9  2  0
  8 39  1  0
  9 28  1  0
  9 10  1  0
 10 11  1  0
 10 25  2  0
 11 12  1  0
 11 40  1  0
 11 41  1  0
 12 13  1  6
 12 24  1  0
 12 14  1  0
 14 15  1  0
 14 42  1  0
 14 43  1  0
 15 16  2  0
 15 44  1  0
 16 17  1  0
 16 23  1  0
 17 22  1  0
 17 18  2  0
 18 19  1  0
 18 45  1  0
 19 20  2  0
 19 46  1  0
 20 21  1  0
 20 47  1  0
 21 22  2  0
 21 48  1  0
 22 49  1  0
 23 24  1  0
 23 50  1  0
 23 51  1  0
 24 52  1  0
 24 53  1  0
 25 26  1  0
 25 54  1  0
 26 27  1  0
 26 28  1  0
 28 29  2  0
 29 55  1  0
 30 31  1  0
 30 32  1  0
 32 56  1  0
M  CHG  1  12   1
M  END
>  <DOCK_score>  (1) 
-58.299458

>  <SMILES>  (1) 
Cc1ccc(-c2ccc3c(C[N@@H+]4CC=C(c5ccccc5)CC4)c[nH]c3c2)c(F)c1

$$$$
