Cc1ccc([C@@H](NCc2[nH+]cc(NCc3cccc(F)c3)n2C)c2nc3ccccc3o2)cc1
     RDKit          3D

 61 65  0  0  1  0  0  0  0  0999 V2000
  130.5316  131.0808  153.2465 C   0  0  0  0  0  0  0  0  0  0  0  0
  130.6177  131.4213  154.7121 C   0  0  0  0  0  0  0  0  0  0  0  0
  131.2671  130.5667  155.5832 C   0  0  0  0  0  0  0  0  0  0  0  0
  131.3459  130.8790  156.9275 C   0  0  0  0  0  0  0  0  0  0  0  0
  130.7753  132.0460  157.4006 C   0  0  0  0  0  0  0  0  0  0  0  0
  130.8610  132.3862  158.8663 C   0  0  1  0  0  0  0  0  0  0  0  0
  131.4052  131.6006  159.3904 H   0  0  0  0  0  0  0  0  0  0  0  0
  131.5660  133.6643  159.0317 N   0  0  0  0  0  0  0  0  0  0  0  0
  132.0860  133.8056  160.3983 C   0  0  0  0  0  0  0  0  0  0  0  0
  132.3530  135.2605  160.6864 C   0  0  0  0  0  0  0  0  0  0  0  0
  132.1511  136.2485  159.8598 N   0  0  0  0  0  0  0  0  0  0  0  0
  131.8039  136.1628  158.9580 H   0  0  0  0  0  0  0  0  0  0  0  0
  132.4989  137.4025  160.4507 C   0  0  0  0  0  0  0  0  0  0  0  0
  132.9367  137.1201  161.7006 C   0  0  0  0  0  0  0  0  0  0  0  0
  133.3925  138.0358  162.6501 N   0  0  0  0  0  0  0  0  0  0  0  0
  133.0367  139.4520  162.5318 C   0  0  0  0  0  0  0  0  0  0  0  0
  134.2918  140.2767  162.4074 C   0  0  0  0  0  0  0  0  0  0  0  0
  134.9095  140.7706  163.5417 C   0  0  0  0  0  0  0  0  0  0  0  0
  136.0639  141.5225  163.4295 C   0  0  0  0  0  0  0  0  0  0  0  0
  136.5959  141.7908  162.1824 C   0  0  0  0  0  0  0  0  0  0  0  0
  135.9753  141.3016  161.0458 C   0  0  0  0  0  0  0  0  0  0  0  0
  136.4947  141.5630  159.8263 F   0  0  0  0  0  0  0  0  0  0  0  0
  134.8219  140.5438  161.1597 C   0  0  0  0  0  0  0  0  0  0  0  0
  132.8399  135.7621  161.8551 N   0  0  0  0  0  0  0  0  0  0  0  0
  133.1963  134.9942  163.0508 C   0  0  0  0  0  0  0  0  0  0  0  0
  129.4712  132.5015  159.4371 C   0  0  0  0  0  0  0  0  0  0  0  0
  128.9813  133.5709  159.9887 N   0  0  0  0  0  0  0  0  0  0  0  0
  127.7066  133.3134  160.3886 C   0  0  0  0  0  0  0  0  0  0  0  0
  126.7217  134.0713  161.0242 C   0  0  0  0  0  0  0  0  0  0  0  0
  125.4973  133.5057  161.3008 C   0  0  0  0  0  0  0  0  0  0  0  0
  125.2373  132.1883  160.9523 C   0  0  0  0  0  0  0  0  0  0  0  0
  126.2010  131.4278  160.3240 C   0  0  0  0  0  0  0  0  0  0  0  0
  127.4395  131.9815  160.0373 C   0  0  0  0  0  0  0  0  0  0  0  0
  128.5621  131.5139  159.4486 O   0  0  0  0  0  0  0  0  0  0  0  0
  130.1214  132.8978  156.5303 C   0  0  0  0  0  0  0  0  0  0  0  0
  130.0474  132.5883  155.1851 C   0  0  0  0  0  0  0  0  0  0  0  0
  129.6286  130.4992  153.0611 H   0  0  0  0  0  0  0  0  0  0  0  0
  130.4985  131.9998  152.6613 H   0  0  0  0  0  0  0  0  0  0  0  0
  131.4055  130.4971  152.9573 H   0  0  0  0  0  0  0  0  0  0  0  0
  131.7124  129.6550  155.2136 H   0  0  0  0  0  0  0  0  0  0  0  0
  131.8530  130.2114  157.6082 H   0  0  0  0  0  0  0  0  0  0  0  0
  132.3053  133.7602  158.3518 H   0  0  0  0  0  0  0  0  0  0  0  0
  131.3520  133.4235  161.1078 H   0  0  0  0  0  0  0  0  0  0  0  0
  133.0128  133.2401  160.4946 H   0  0  0  0  0  0  0  0  0  0  0  0
  132.4402  138.3851  160.0064 H   0  0  0  0  0  0  0  0  0  0  0  0
  133.9450  137.7345  163.3884 H   0  0  0  0  0  0  0  0  0  0  0  0
  132.4169  139.5982  161.6474 H   0  0  0  0  0  0  0  0  0  0  0  0
  132.4840  139.7630  163.4183 H   0  0  0  0  0  0  0  0  0  0  0  0
  134.4917  140.5654  164.5163 H   0  0  0  0  0  0  0  0  0  0  0  0
  136.5479  141.9040  164.3164 H   0  0  0  0  0  0  0  0  0  0  0  0
  137.4957  142.3817  162.0947 H   0  0  0  0  0  0  0  0  0  0  0  0
  134.3370  140.1613  160.2737 H   0  0  0  0  0  0  0  0  0  0  0  0
  134.2436  134.6978  162.9934 H   0  0  0  0  0  0  0  0  0  0  0  0
  133.0407  135.6091  163.9373 H   0  0  0  0  0  0  0  0  0  0  0  0
  132.5696  134.1044  163.1112 H   0  0  0  0  0  0  0  0  0  0  0  0
  126.9192  135.0972  161.2976 H   0  0  0  0  0  0  0  0  0  0  0  0
  124.7345  134.0911  161.7926 H   0  0  0  0  0  0  0  0  0  0  0  0
  124.2747  131.7539  161.1787 H   0  0  0  0  0  0  0  0  0  0  0  0
  125.9914  130.4028  160.0559 H   0  0  0  0  0  0  0  0  0  0  0  0
  129.6719  133.8074  156.9006 H   0  0  0  0  0  0  0  0  0  0  0  0
  129.5403  133.2562  154.5044 H   0  0  0  0  0  0  0  0  0  0  0  0
  1  2  1  0
  1 37  1  0
  1 38  1  0
  1 39  1  0
  2 36  2  0
  2  3  1  0
  3  4  2  0
  3 40  1  0
  4  5  1  0
  4 41  1  0
  5  6  1  0
  5 35  2  0
  6  7  1  1
  6  8  1  0
  6 26  1  0
  8  9  1  0
  8 42  1  0
  9 43  1  0
  9 44  1  0
 10  9  1  0
 10 24  1  0
 10 11  2  0
 11 12  1  0
 11 13  1  0
 13 14  2  0
 13 45  1  0
 14 15  1  0
 14 24  1  0
 15 16  1  0
 15 46  1  0
 16 17  1  0
 16 47  1  0
 16 48  1  0
 17 23  1  0
 17 18  2  0
 18 19  1  0
 18 49  1  0
 19 20  2  0
 19 50  1  0
 20 21  1  0
 20 51  1  0
 21 22  1  0
 21 23  2  0
 23 52  1  0
 24 25  1  0
 25 53  1  0
 25 54  1  0
 25 55  1  0
 26 34  1  0
 26 27  2  0
 27 28  1  0
 28 33  2  0
 28 29  1  0
 29 30  2  0
 29 56  1  0
 30 31  1  0
 30 57  1  0
 31 32  2  0
 31 58  1  0
 32 33  1  0
 32 59  1  0
 33 34  1  0
 35 36  1  0
 35 60  1  0
 36 61  1  0
M  CHG  1  11   1
M  END
>  <DOCK_score>  (1) 
-57.341232

>  <SMILES>  (1) 
Cc1ccc([C@@H](NCc2[nH+]cc(NCc3cccc(F)c3)n2C)c2nc3ccccc3o2)cc1

$$$$
