CCc1ccc(-c2c[nH]c(N[C@@H](Cc3ccccc3)c3ccccc3)[nH+]2)cc1
     RDKit          3D

 54 57  0  0  1  0  0  0  0  0999 V2000
  130.5945  128.4544  151.5761 C   0  0  0  0  0  0  0  0  0  0  0  0
  131.6798  129.4695  151.9397 C   0  0  0  0  0  0  0  0  0  0  0  0
  131.2943  130.1842  153.2093 C   0  0  0  0  0  0  0  0  0  0  0  0
  131.6864  129.6737  154.4332 C   0  0  0  0  0  0  0  0  0  0  0  0
  131.3411  130.3268  155.5990 C   0  0  0  0  0  0  0  0  0  0  0  0
  130.5860  131.4968  155.5416 C   0  0  0  0  0  0  0  0  0  0  0  0
  130.2071  132.2003  156.7914 C   0  0  0  0  0  0  0  0  0  0  0  0
  129.4725  131.6830  157.8071 C   0  0  0  0  0  0  0  0  0  0  0  0
  129.3596  132.6671  158.7589 N   0  0  0  0  0  0  0  0  0  0  0  0
  128.8893  132.5974  159.6043 H   0  0  0  0  0  0  0  0  0  0  0  0
  130.0292  133.7579  158.2966 C   0  0  0  0  0  0  0  0  0  0  0  0
  130.1559  134.9669  158.9590 N   0  0  0  0  0  0  0  0  0  0  0  0
  129.0990  135.4187  159.8673 C   0  0  1  0  0  0  0  0  0  0  0  0
  128.9734  134.6910  160.6691 H   0  0  0  0  0  0  0  0  0  0  0  0
  129.4843  136.7738  160.4642 C   0  0  0  0  0  0  0  0  0  0  0  0
  130.7773  136.6378  161.2261 C   0  0  0  0  0  0  0  0  0  0  0  0
  131.6420  137.7124  161.3176 C   0  0  0  0  0  0  0  0  0  0  0  0
  132.8258  137.5890  162.0206 C   0  0  0  0  0  0  0  0  0  0  0  0
  133.1498  136.3880  162.6233 C   0  0  0  0  0  0  0  0  0  0  0  0
  132.2875  135.3118  162.5273 C   0  0  0  0  0  0  0  0  0  0  0  0
  131.1012  135.4367  161.8289 C   0  0  0  0  0  0  0  0  0  0  0  0
  127.8060  135.5548  159.1054 C   0  0  0  0  0  0  0  0  0  0  0  0
  126.5997  135.3484  159.7483 C   0  0  0  0  0  0  0  0  0  0  0  0
  125.4136  135.4772  159.0502 C   0  0  0  0  0  0  0  0  0  0  0  0
  125.4338  135.8043  157.7073 C   0  0  0  0  0  0  0  0  0  0  0  0
  126.6403  136.0055  157.0630 C   0  0  0  0  0  0  0  0  0  0  0  0
  127.8264  135.8805  157.7621 C   0  0  0  0  0  0  0  0  0  0  0  0
  130.5392  133.4732  157.1232 N   0  0  0  0  0  0  0  0  0  0  0  0
  131.0675  134.0770  156.5780 H   0  0  0  0  0  0  0  0  0  0  0  0
  130.1887  132.0038  154.3056 C   0  0  0  0  0  0  0  0  0  0  0  0
  130.5446  131.3455  153.1461 C   0  0  0  0  0  0  0  0  0  0  0  0
  129.6469  128.9722  151.4283 H   0  0  0  0  0  0  0  0  0  0  0  0
  130.8733  127.9377  150.6578 H   0  0  0  0  0  0  0  0  0  0  0  0
  130.4905  127.7296  152.3835 H   0  0  0  0  0  0  0  0  0  0  0  0
  132.6272  128.9523  152.0870 H   0  0  0  0  0  0  0  0  0  0  0  0
  131.7836  130.1949  151.1318 H   0  0  0  0  0  0  0  0  0  0  0  0
  132.2674  128.7644  154.4767 H   0  0  0  0  0  0  0  0  0  0  0  0
  131.6518  129.9298  156.5540 H   0  0  0  0  0  0  0  0  0  0  0  0
  129.0556  130.6880  157.8578 H   0  0  0  0  0  0  0  0  0  0  0  0
  130.9445  135.5148  158.8219 H   0  0  0  0  0  0  0  0  0  0  0  0
  129.6097  137.5015  159.6625 H   0  0  0  0  0  0  0  0  0  0  0  0
  128.6978  137.1099  161.1401 H   0  0  0  0  0  0  0  0  0  0  0  0
  131.3910  138.6494  160.8430 H   0  0  0  0  0  0  0  0  0  0  0  0
  133.4996  138.4297  162.0952 H   0  0  0  0  0  0  0  0  0  0  0  0
  134.0767  136.2902  163.1687 H   0  0  0  0  0  0  0  0  0  0  0  0
  132.5408  134.3732  162.9980 H   0  0  0  0  0  0  0  0  0  0  0  0
  130.4277  134.5958  161.7536 H   0  0  0  0  0  0  0  0  0  0  0  0
  126.5840  135.0897  160.7967 H   0  0  0  0  0  0  0  0  0  0  0  0
  124.4710  135.3197  159.5535 H   0  0  0  0  0  0  0  0  0  0  0  0
  124.5072  135.9022  157.1613 H   0  0  0  0  0  0  0  0  0  0  0  0
  126.6562  136.2606  156.0139 H   0  0  0  0  0  0  0  0  0  0  0  0
  128.7688  136.0377  157.2589 H   0  0  0  0  0  0  0  0  0  0  0  0
  129.6033  132.9101  154.2553 H   0  0  0  0  0  0  0  0  0  0  0  0
  130.2376  131.7377  152.1878 H   0  0  0  0  0  0  0  0  0  0  0  0
  1  2  1  0
  1 32  1  0
  1 33  1  0
  1 34  1  0
  2  3  1  0
  2 35  1  0
  2 36  1  0
  3 31  2  0
  3  4  1  0
  4  5  2  0
  4 37  1  0
  5  6  1  0
  5 38  1  0
  6  7  1  0
  6 30  2  0
  7 28  1  0
  7  8  2  0
  8  9  1  0
  8 39  1  0
  9 10  1  0
  9 11  1  0
 11 12  1  0
 11 28  2  0
 12 13  1  0
 12 40  1  0
 13 14  1  1
 13 15  1  0
 13 22  1  0
 15 16  1  0
 15 41  1  0
 15 42  1  0
 16 21  1  0
 16 17  2  0
 17 18  1  0
 17 43  1  0
 18 19  2  0
 18 44  1  0
 19 20  1  0
 19 45  1  0
 20 21  2  0
 20 46  1  0
 21 47  1  0
 22 27  1  0
 22 23  2  0
 23 24  1  0
 23 48  1  0
 24 25  2  0
 24 49  1  0
 25 26  1  0
 25 50  1  0
 26 27  2  0
 26 51  1  0
 27 52  1  0
 28 29  1  0
 30 31  1  0
 30 53  1  0
 31 54  1  0
M  CHG  1  28   1
M  END
>  <DOCK_score>  (1) 
-61.194786

>  <SMILES>  (1) 
CCc1ccc(-c2c[nH]c(N[C@@H](Cc3ccccc3)c3ccccc3)[nH+]2)cc1

$$$$
