CCc1ccc(-c2c[nH]c(N[C@H](C)Cc3ccc(-c4ccc(O)cc4)cc3)[nH+]2)cc1
     RDKit          3D

 58 61  0  0  1  0  0  0  0  0999 V2000
  130.5049  128.4820  152.1212 C   0  0  0  0  0  0  0  0  0  0  0  0
  131.5321  129.5898  152.3625 C   0  0  0  0  0  0  0  0  0  0  0  0
  131.1434  130.3774  153.5872 C   0  0  0  0  0  0  0  0  0  0  0  0
  131.6100  129.9920  154.8306 C   0  0  0  0  0  0  0  0  0  0  0  0
  131.2620  130.7127  155.9550 C   0  0  0  0  0  0  0  0  0  0  0  0
  130.4294  131.8241  155.8369 C   0  0  0  0  0  0  0  0  0  0  0  0
  130.0473  132.5995  157.0424 C   0  0  0  0  0  0  0  0  0  0  0  0
  129.3837  132.1192  158.1231 C   0  0  0  0  0  0  0  0  0  0  0  0
  129.2382  133.1668  158.9996 N   0  0  0  0  0  0  0  0  0  0  0  0
  128.8025  133.1350  159.8657 H   0  0  0  0  0  0  0  0  0  0  0  0
  129.8178  134.2577  158.4285 C   0  0  0  0  0  0  0  0  0  0  0  0
  129.8864  135.5211  158.9901 N   0  0  0  0  0  0  0  0  0  0  0  0
  129.3030  135.7684  160.3110 C   0  0  2  0  0  0  0  0  0  0  0  0
  129.5077  134.9195  160.9632 H   0  0  0  0  0  0  0  0  0  0  0  0
  127.7904  135.9531  160.1738 C   0  0  0  0  0  0  0  0  0  0  0  0
  129.9189  137.0336  160.9117 C   0  0  0  0  0  0  0  0  0  0  0  0
  131.2685  136.7061  161.4969 C   0  0  0  0  0  0  0  0  0  0  0  0
  132.4025  136.8050  160.7111 C   0  0  0  0  0  0  0  0  0  0  0  0
  133.6416  136.5110  161.2432 C   0  0  0  0  0  0  0  0  0  0  0  0
  133.7478  136.1039  162.5717 C   0  0  0  0  0  0  0  0  0  0  0  0
  135.0762  135.7806  163.1475 C   0  0  0  0  0  0  0  0  0  0  0  0
  135.1844  134.8371  164.1676 C   0  0  0  0  0  0  0  0  0  0  0  0
  136.4211  134.5359  164.6982 C   0  0  0  0  0  0  0  0  0  0  0  0
  137.5567  135.1782  164.2236 C   0  0  0  0  0  0  0  0  0  0  0  0
  138.7733  134.8828  164.7515 O   0  0  0  0  0  0  0  0  0  0  0  0
  137.4517  136.1219  163.2108 C   0  0  0  0  0  0  0  0  0  0  0  0
  136.2181  136.4240  162.6733 C   0  0  0  0  0  0  0  0  0  0  0  0
  132.6013  136.0009  163.3572 C   0  0  0  0  0  0  0  0  0  0  0  0
  131.3680  136.3024  162.8162 C   0  0  0  0  0  0  0  0  0  0  0  0
  130.3053  133.9133  157.2616 N   0  0  0  0  0  0  0  0  0  0  0  0
  130.7736  134.5040  156.6511 H   0  0  0  0  0  0  0  0  0  0  0  0
  129.9575  132.2048  154.5820 C   0  0  0  0  0  0  0  0  0  0  0  0
  130.3166  131.4800  153.4637 C   0  0  0  0  0  0  0  0  0  0  0  0
  130.7859  127.9125  151.2354 H   0  0  0  0  0  0  0  0  0  0  0  0
  130.4767  127.8187  152.9857 H   0  0  0  0  0  0  0  0  0  0  0  0
  129.5204  128.9252  151.9710 H   0  0  0  0  0  0  0  0  0  0  0  0
  132.5162  129.1471  152.5121 H   0  0  0  0  0  0  0  0  0  0  0  0
  131.5600  130.2536  151.4975 H   0  0  0  0  0  0  0  0  0  0  0  0
  132.2512  129.1278  154.9214 H   0  0  0  0  0  0  0  0  0  0  0  0
  131.6306  130.4135  156.9250 H   0  0  0  0  0  0  0  0  0  0  0  0
  129.0357  131.1069  158.2668 H   0  0  0  0  0  0  0  0  0  0  0  0
  130.3210  136.2428  158.5090 H   0  0  0  0  0  0  0  0  0  0  0  0
  127.3563  136.1371  161.1565 H   0  0  0  0  0  0  0  0  0  0  0  0
  127.5857  136.8021  159.5215 H   0  0  0  0  0  0  0  0  0  0  0  0
  127.3516  135.0518  159.7458 H   0  0  0  0  0  0  0  0  0  0  0  0
  130.0336  137.7871  160.1327 H   0  0  0  0  0  0  0  0  0  0  0  0
  129.2665  137.4181  161.6959 H   0  0  0  0  0  0  0  0  0  0  0  0
  132.3187  137.1167  159.6805 H   0  0  0  0  0  0  0  0  0  0  0  0
  134.5269  136.5925  160.6300 H   0  0  0  0  0  0  0  0  0  0  0  0
  134.3008  134.3401  164.5401 H   0  0  0  0  0  0  0  0  0  0  0  0
  136.5059  133.8026  165.4866 H   0  0  0  0  0  0  0  0  0  0  0  0
  139.5039  135.3794  164.3581 H   0  0  0  0  0  0  0  0  0  0  0  0
  138.3368  136.6202  162.8439 H   0  0  0  0  0  0  0  0  0  0  0  0
  136.1368  137.1589  161.8861 H   0  0  0  0  0  0  0  0  0  0  0  0
  132.6778  135.6855  164.3872 H   0  0  0  0  0  0  0  0  0  0  0  0
  130.4789  136.2233  163.4241 H   0  0  0  0  0  0  0  0  0  0  0  0
  129.3119  133.0651  154.4847 H   0  0  0  0  0  0  0  0  0  0  0  0
  129.9513  131.7739  152.4907 H   0  0  0  0  0  0  0  0  0  0  0  0
  1  2  1  0
  1 34  1  0
  1 35  1  0
  1 36  1  0
  2  3  1  0
  2 37  1  0
  2 38  1  0
  3 33  2  0
  3  4  1  0
  4  5  2  0
  4 39  1  0
  5  6  1  0
  5 40  1  0
  6  7  1  0
  6 32  2  0
  7 30  1  0
  7  8  2  0
  8  9  1  0
  8 41  1  0
  9 10  1  0
  9 11  1  0
 11 12  1  0
 11 30  2  0
 12 13  1  0
 12 42  1  0
 13 14  1  1
 13 15  1  0
 13 16  1  0
 15 43  1  0
 15 44  1  0
 15 45  1  0
 16 17  1  0
 16 46  1  0
 16 47  1  0
 17 29  1  0
 17 18  2  0
 18 19  1  0
 18 48  1  0
 19 20  2  0
 19 49  1  0
 20 21  1  0
 20 28  1  0
 21 27  1  0
 21 22  2  0
 22 23  1  0
 22 50  1  0
 23 24  2  0
 23 51  1  0
 24 25  1  0
 24 26  1  0
 25 52  1  0
 26 27  2  0
 26 53  1  0
 27 54  1  0
 28 29  2  0
 28 55  1  0
 29 56  1  0
 30 31  1  0
 32 33  1  0
 32 57  1  0
 33 58  1  0
M  CHG  1  30   1
M  END
>  <DOCK_score>  (1) 
-57.977577

>  <SMILES>  (1) 
CCc1ccc(-c2c[nH]c(N[C@H](C)Cc3ccc(-c4ccc(O)cc4)cc3)[nH+]2)cc1

$$$$
