C1=C([C@@H](Nc2[nH]cc(-c3ccc(-c4ccccc4)cc3)[nH+]2)c2ccccc2)COC1
     RDKit          3D

 54 58  0  0  1  0  0  0  0  0999 V2000
  128.9846  136.0364  160.9172 C   0  0  0  0  0  0  0  0  0  0  0  0
  130.0164  135.7548  161.6814 C   0  0  0  0  0  0  0  0  0  0  0  0
  131.4665  135.8977  161.2967 C   0  0  1  0  0  0  0  0  0  0  0  0
  132.0586  135.1536  161.8293 H   0  0  0  0  0  0  0  0  0  0  0  0
  131.6110  135.6946  159.8530 N   0  0  0  0  0  0  0  0  0  0  0  0
  131.2303  134.4926  159.2816 C   0  0  0  0  0  0  0  0  0  0  0  0
  130.7053  133.4288  159.9488 N   0  0  0  0  0  0  0  0  0  0  0  0
  130.5323  133.3770  160.9019 H   0  0  0  0  0  0  0  0  0  0  0  0
  130.4660  132.4421  159.0238 C   0  0  0  0  0  0  0  0  0  0  0  0
  130.8515  132.9309  157.8184 C   0  0  0  0  0  0  0  0  0  0  0  0
  130.7777  132.2148  156.5224 C   0  0  0  0  0  0  0  0  0  0  0  0
  130.0095  132.7352  155.4807 C   0  0  0  0  0  0  0  0  0  0  0  0
  129.9445  132.0720  154.2754 C   0  0  0  0  0  0  0  0  0  0  0  0
  130.6381  130.8756  154.0992 C   0  0  0  0  0  0  0  0  0  0  0  0
  130.5632  130.1578  152.8036 C   0  0  0  0  0  0  0  0  0  0  0  0
  130.6844  128.7699  152.7642 C   0  0  0  0  0  0  0  0  0  0  0  0
  130.6089  128.1074  151.5558 C   0  0  0  0  0  0  0  0  0  0  0  0
  130.4239  128.8192  150.3842 C   0  0  0  0  0  0  0  0  0  0  0  0
  130.3084  130.1973  150.4167 C   0  0  0  0  0  0  0  0  0  0  0  0
  130.3770  130.8699  151.6198 C   0  0  0  0  0  0  0  0  0  0  0  0
  131.4025  130.3521  155.1425 C   0  0  0  0  0  0  0  0  0  0  0  0
  131.4716  131.0175  156.3464 C   0  0  0  0  0  0  0  0  0  0  0  0
  131.3110  134.1935  158.0081 N   0  0  0  0  0  0  0  0  0  0  0  0
  131.6477  134.7800  157.3128 H   0  0  0  0  0  0  0  0  0  0  0  0
  131.9490  137.2782  161.6607 C   0  0  0  0  0  0  0  0  0  0  0  0
  132.9520  137.8769  160.9214 C   0  0  0  0  0  0  0  0  0  0  0  0
  133.3917  139.1449  161.2526 C   0  0  0  0  0  0  0  0  0  0  0  0
  132.8347  139.8107  162.3282 C   0  0  0  0  0  0  0  0  0  0  0  0
  131.8354  139.2097  163.0709 C   0  0  0  0  0  0  0  0  0  0  0  0
  131.3926  137.9434  162.7372 C   0  0  0  0  0  0  0  0  0  0  0  0
  129.4990  135.2620  163.0134 C   0  0  0  0  0  0  0  0  0  0  0  0
  128.1223  134.9019  162.7904 O   0  0  0  0  0  0  0  0  0  0  0  0
  127.7213  135.7470  161.6952 C   0  0  0  0  0  0  0  0  0  0  0  0
  129.0317  136.4104  159.9051 H   0  0  0  0  0  0  0  0  0  0  0  0
  131.9734  136.4026  159.2977 H   0  0  0  0  0  0  0  0  0  0  0  0
  130.0503  131.4646  159.2187 H   0  0  0  0  0  0  0  0  0  0  0  0
  129.4687  133.6598  155.6184 H   0  0  0  0  0  0  0  0  0  0  0  0
  129.3531  132.4769  153.4675 H   0  0  0  0  0  0  0  0  0  0  0  0
  130.8328  128.2135  153.6779 H   0  0  0  0  0  0  0  0  0  0  0  0
  130.6982  127.0316  151.5244 H   0  0  0  0  0  0  0  0  0  0  0  0
  130.3701  128.2971  149.4404 H   0  0  0  0  0  0  0  0  0  0  0  0
  130.1646  130.7479  149.4989 H   0  0  0  0  0  0  0  0  0  0  0  0
  130.2871  131.9458  151.6441 H   0  0  0  0  0  0  0  0  0  0  0  0
  131.9397  129.4252  155.0063 H   0  0  0  0  0  0  0  0  0  0  0  0
  132.0633  130.6126  157.1541 H   0  0  0  0  0  0  0  0  0  0  0  0
  133.3898  137.3554  160.0831 H   0  0  0  0  0  0  0  0  0  0  0  0
  134.1722  139.6146  160.6725 H   0  0  0  0  0  0  0  0  0  0  0  0
  133.1797  140.8002  162.5892 H   0  0  0  0  0  0  0  0  0  0  0  0
  131.4001  139.7297  163.9115 H   0  0  0  0  0  0  0  0  0  0  0  0
  130.6119  137.4740  163.3170 H   0  0  0  0  0  0  0  0  0  0  0  0
  129.5648  136.0542  163.7592 H   0  0  0  0  0  0  0  0  0  0  0  0
  130.0679  134.3910  163.3391 H   0  0  0  0  0  0  0  0  0  0  0  0
  127.0008  135.2276  161.0633 H   0  0  0  0  0  0  0  0  0  0  0  0
  127.2913  136.6746  162.0733 H   0  0  0  0  0  0  0  0  0  0  0  0
  1 33  1  0
  1  2  2  0
  1 34  1  0
  2  3  1  0
  2 31  1  0
  3  4  1  1
  3  5  1  0
  3 25  1  0
  5 35  1  0
  6  5  1  0
  6 23  2  0
  6  7  1  0
  7  8  1  0
  7  9  1  0
  9 10  2  0
  9 36  1  0
 10 11  1  0
 10 23  1  0
 11 22  1  0
 11 12  2  0
 12 13  1  0
 12 37  1  0
 13 14  2  0
 13 38  1  0
 14 15  1  0
 14 21  1  0
 15 20  1  0
 15 16  2  0
 16 17  1  0
 16 39  1  0
 17 18  2  0
 17 40  1  0
 18 19  1  0
 18 41  1  0
 19 20  2  0
 19 42  1  0
 20 43  1  0
 21 22  2  0
 21 44  1  0
 22 45  1  0
 23 24  1  0
 25 30  1  0
 25 26  2  0
 26 27  1  0
 26 46  1  0
 27 28  2  0
 27 47  1  0
 28 29  1  0
 28 48  1  0
 29 30  2  0
 29 49  1  0
 30 50  1  0
 31 32  1  0
 31 51  1  0
 31 52  1  0
 32 33  1  0
 33 53  1  0
 33 54  1  0
M  CHG  1  23   1
M  END
>  <DOCK_score>  (1) 
-57.898003

>  <SMILES>  (1) 
C1=C([C@@H](Nc2[nH]cc(-c3ccc(-c4ccccc4)cc3)[nH+]2)c2ccccc2)COC1

$$$$
