Nc1ccc(-c2c[nH]c(N[C@H](CC(F)(F)F)c3c[nH]c4ccccc34)[nH+]2)cc1
     RDKit          3D

 47 50  0  0  1  0  0  0  0  0999 V2000
  131.4055  129.9720  151.6883 N   0  0  0  0  0  0  0  0  0  0  0  0
  131.0917  130.5818  152.9053 C   0  0  0  0  0  0  0  0  0  0  0  0
  130.5052  131.8426  152.9181 C   0  0  0  0  0  0  0  0  0  0  0  0
  130.1949  132.4473  154.1178 C   0  0  0  0  0  0  0  0  0  0  0  0
  130.4694  131.7937  155.3182 C   0  0  0  0  0  0  0  0  0  0  0  0
  130.1370  132.4426  156.6102 C   0  0  0  0  0  0  0  0  0  0  0  0
  129.2888  131.9589  157.5510 C   0  0  0  0  0  0  0  0  0  0  0  0
  129.2739  132.8699  158.5805 N   0  0  0  0  0  0  0  0  0  0  0  0
  128.7594  132.8026  159.4001 H   0  0  0  0  0  0  0  0  0  0  0  0
  130.1142  133.8837  158.2373 C   0  0  0  0  0  0  0  0  0  0  0  0
  130.3825  135.0039  159.0054 N   0  0  0  0  0  0  0  0  0  0  0  0
  129.7366  135.1693  160.3099 C   0  0  2  0  0  0  0  0  0  0  0  0
  129.7016  134.2080  160.8225 H   0  0  0  0  0  0  0  0  0  0  0  0
  128.3129  135.6934  160.1112 C   0  0  0  0  0  0  0  0  0  0  0  0
  127.4831  135.4027  161.3633 C   0  0  0  0  0  0  0  0  0  0  0  0
  128.0644  136.0382  162.4658 F   0  0  0  0  0  0  0  0  0  0  0  0
  126.1813  135.8819  161.1818 F   0  0  0  0  0  0  0  0  0  0  0  0
  127.4449  134.0223  161.5874 F   0  0  0  0  0  0  0  0  0  0  0  0
  130.5227  136.1523  161.1387 C   0  0  0  0  0  0  0  0  0  0  0  0
  131.1016  135.9126  162.3259 C   0  0  0  0  0  0  0  0  0  0  0  0
  131.7274  137.0430  162.7762 N   0  0  0  0  0  0  0  0  0  0  0  0
  132.2145  137.1149  163.6120 H   0  0  0  0  0  0  0  0  0  0  0  0
  131.5623  138.0634  161.8666 C   0  0  0  0  0  0  0  0  0  0  0  0
  131.9778  139.3907  161.8305 C   0  0  0  0  0  0  0  0  0  0  0  0
  131.6477  140.1817  160.7522 C   0  0  0  0  0  0  0  0  0  0  0  0
  130.8954  139.6708  159.7032 C   0  0  0  0  0  0  0  0  0  0  0  0
  130.4733  138.3714  159.7201 C   0  0  0  0  0  0  0  0  0  0  0  0
  130.8007  137.5504  160.8011 C   0  0  0  0  0  0  0  0  0  0  0  0
  130.6237  133.6274  157.0570 N   0  0  0  0  0  0  0  0  0  0  0  0
  131.2503  134.1938  156.5800 H   0  0  0  0  0  0  0  0  0  0  0  0
  131.0621  130.5321  155.3027 C   0  0  0  0  0  0  0  0  0  0  0  0
  131.3659  129.9289  154.1004 C   0  0  0  0  0  0  0  0  0  0  0  0
  131.2142  130.4274  150.8535 H   0  0  0  0  0  0  0  0  0  0  0  0
  131.8148  129.0927  151.6783 H   0  0  0  0  0  0  0  0  0  0  0  0
  130.2927  132.3484  151.9880 H   0  0  0  0  0  0  0  0  0  0  0  0
  129.7393  133.4264  154.1276 H   0  0  0  0  0  0  0  0  0  0  0  0
  128.7312  131.0353  157.5009 H   0  0  0  0  0  0  0  0  0  0  0  0
  130.9980  135.6791  158.6798 H   0  0  0  0  0  0  0  0  0  0  0  0
  128.3428  136.7688  159.9367 H   0  0  0  0  0  0  0  0  0  0  0  0
  127.8601  135.1982  159.2523 H   0  0  0  0  0  0  0  0  0  0  0  0
  131.0769  134.9677  162.8481 H   0  0  0  0  0  0  0  0  0  0  0  0
  132.5628  139.7977  162.6421 H   0  0  0  0  0  0  0  0  0  0  0  0
  131.9746  141.2106  160.7240 H   0  0  0  0  0  0  0  0  0  0  0  0
  130.6420  140.3054  158.8669 H   0  0  0  0  0  0  0  0  0  0  0  0
  129.8883  137.9809  158.9006 H   0  0  0  0  0  0  0  0  0  0  0  0
  131.2794  130.0257  156.2315 H   0  0  0  0  0  0  0  0  0  0  0  0
  131.8213  128.9497  154.0879 H   0  0  0  0  0  0  0  0  0  0  0  0
  1  2  1  0
  1 33  1  0
  1 34  1  0
  2 32  2  0
  2  3  1  0
  3  4  2  0
  3 35  1  0
  4  5  1  0
  4 36  1  0
  5  6  1  0
  5 31  2  0
  6 29  1  0
  6  7  2  0
  7  8  1  0
  7 37  1  0
  8  9  1  0
  8 10  1  0
 10 11  1  0
 10 29  2  0
 11 12  1  0
 11 38  1  0
 12 13  1  1
 12 14  1  0
 12 19  1  0
 14 15  1  0
 14 39  1  0
 14 40  1  0
 15 16  1  0
 15 17  1  0
 15 18  1  0
 19 28  1  0
 19 20  2  0
 20 21  1  0
 20 41  1  0
 21 22  1  0
 21 23  1  0
 23 28  2  0
 23 24  1  0
 24 25  2  0
 24 42  1  0
 25 26  1  0
 25 43  1  0
 26 27  2  0
 26 44  1  0
 27 28  1  0
 27 45  1  0
 29 30  1  0
 31 32  1  0
 31 46  1  0
 32 47  1  0
M  CHG  1  29   1
M  END
>  <DOCK_score>  (1) 
-56.043858

>  <SMILES>  (1) 
Nc1ccc(-c2c[nH]c(N[C@H](CC(F)(F)F)c3c[nH]c4ccccc34)[nH+]2)cc1

$$$$
