Cc1ccccc1C(CF)Nc1[nH]c(-c2ccccc2[C@@](C)(O)c2ccccc2)c(C)[nH+]1
     RDKit          3D

 61 64  0  0  1  0  0  0  0  0999 V2000
  128.9377  134.6807  156.3990 C   0  0  0  0  0  0  0  0  0  0  0  0
  129.7096  133.3964  156.5598 C   0  0  0  0  0  0  0  0  0  0  0  0
  130.0109  132.6275  155.4510 C   0  0  0  0  0  0  0  0  0  0  0  0
  130.7140  131.4469  155.5991 C   0  0  0  0  0  0  0  0  0  0  0  0
  131.1205  131.0374  156.8555 C   0  0  0  0  0  0  0  0  0  0  0  0
  130.8243  131.8089  157.9634 C   0  0  0  0  0  0  0  0  0  0  0  0
  130.1210  132.9900  157.8152 C   0  0  0  0  0  0  0  0  0  0  0  0
  129.7975  133.8310  159.0231 C   0  0  1  0  0  0  0  0  0  0  0  0
  130.3626  133.1611  160.2773 C   0  0  0  0  0  0  0  0  0  0  0  0
  130.0622  133.9418  161.3985 F   0  0  0  0  0  0  0  0  0  0  0  0
  130.3955  135.1594  158.8676 N   0  0  0  0  0  0  0  0  0  0  0  0
  130.2323  136.1113  159.8571 C   0  0  0  0  0  0  0  0  0  0  0  0
  130.7299  137.3771  159.8294 N   0  0  0  0  0  0  0  0  0  0  0  0
  131.2594  137.7744  159.1203 H   0  0  0  0  0  0  0  0  0  0  0  0
  130.3392  137.9888  161.0081 C   0  0  0  0  0  0  0  0  0  0  0  0
  130.6461  139.3717  161.4293 C   0  0  0  0  0  0  0  0  0  0  0  0
  129.6109  140.2750  161.6783 C   0  0  0  0  0  0  0  0  0  0  0  0
  129.9045  141.5641  162.0716 C   0  0  0  0  0  0  0  0  0  0  0  0
  131.2214  141.9628  162.2197 C   0  0  0  0  0  0  0  0  0  0  0  0
  132.2517  141.0711  161.9801 C   0  0  0  0  0  0  0  0  0  0  0  0
  131.9723  139.7805  161.5806 C   0  0  0  0  0  0  0  0  0  0  0  0
  133.0960  138.8123  161.3140 C   0  0  1  0  0  0  0  0  0  0  0  0
  132.9702  137.6132  162.2559 C   0  0  0  0  0  0  0  0  0  0  0  0
  133.0266  138.3633  159.9592 O   0  0  0  0  0  0  0  0  0  0  0  0
  134.4169  139.4989  161.5486 C   0  0  0  0  0  0  0  0  0  0  0  0
  134.9979  139.4696  162.8026 C   0  0  0  0  0  0  0  0  0  0  0  0
  136.2119  140.0954  163.0165 C   0  0  0  0  0  0  0  0  0  0  0  0
  136.8398  140.7589  161.9790 C   0  0  0  0  0  0  0  0  0  0  0  0
  136.2558  140.7931  160.7265 C   0  0  0  0  0  0  0  0  0  0  0  0
  135.0445  140.1629  160.5112 C   0  0  0  0  0  0  0  0  0  0  0  0
  129.6132  137.0717  161.6994 C   0  0  0  0  0  0  0  0  0  0  0  0
  128.9726  137.2851  163.0466 C   0  0  0  0  0  0  0  0  0  0  0  0
  129.5661  135.9450  160.9768 N   0  0  0  0  0  0  0  0  0  0  0  0
  129.1097  135.1306  161.2402 H   0  0  0  0  0  0  0  0  0  0  0  0
  129.6327  135.5047  156.2381 H   0  0  0  0  0  0  0  0  0  0  0  0
  128.2682  134.5975  155.5428 H   0  0  0  0  0  0  0  0  0  0  0  0
  128.3536  134.8688  157.2999 H   0  0  0  0  0  0  0  0  0  0  0  0
  129.6936  132.9476  154.4695 H   0  0  0  0  0  0  0  0  0  0  0  0
  130.9461  130.8443  154.7334 H   0  0  0  0  0  0  0  0  0  0  0  0
  131.6699  130.1148  156.9713 H   0  0  0  0  0  0  0  0  0  0  0  0
  131.1419  131.4890  158.9448 H   0  0  0  0  0  0  0  0  0  0  0  0
  128.7161  133.9283  159.1190 H   0  0  0  0  0  0  0  0  0  0  0  0
  129.9177  132.1727  160.3929 H   0  0  0  0  0  0  0  0  0  0  0  0
  131.4440  133.0637  160.1812 H   0  0  0  0  0  0  0  0  0  0  0  0
  130.9059  135.3710  158.0703 H   0  0  0  0  0  0  0  0  0  0  0  0
  128.5828  139.9651  161.5634 H   0  0  0  0  0  0  0  0  0  0  0  0
  129.1048  142.2639  162.2642 H   0  0  0  0  0  0  0  0  0  0  0  0
  131.4457  142.9733  162.5278 H   0  0  0  0  0  0  0  0  0  0  0  0
  133.2772  141.3873  162.1018 H   0  0  0  0  0  0  0  0  0  0  0  0
  133.8278  136.9542  162.1215 H   0  0  0  0  0  0  0  0  0  0  0  0
  132.9391  137.9632  163.2877 H   0  0  0  0  0  0  0  0  0  0  0  0
  132.0540  137.0679  162.0294 H   0  0  0  0  0  0  0  0  0  0  0  0
  133.5820  137.5944  159.7707 H   0  0  0  0  0  0  0  0  0  0  0  0
  134.5054  138.9547  163.6141 H   0  0  0  0  0  0  0  0  0  0  0  0
  136.6679  140.0690  163.9951 H   0  0  0  0  0  0  0  0  0  0  0  0
  137.7863  141.2509  162.1471 H   0  0  0  0  0  0  0  0  0  0  0  0
  136.7463  141.3118  159.9161 H   0  0  0  0  0  0  0  0  0  0  0  0
  134.5883  140.1895  159.5327 H   0  0  0  0  0  0  0  0  0  0  0  0
  127.9347  137.5898  162.9112 H   0  0  0  0  0  0  0  0  0  0  0  0
  129.0072  136.3567  163.6165 H   0  0  0  0  0  0  0  0  0  0  0  0
  129.5122  138.0632  163.5864 H   0  0  0  0  0  0  0  0  0  0  0  0
  1  2  1  0
  1 35  1  0
  1 36  1  0
  1 37  1  0
  2  7  2  0
  2  3  1  0
  3  4  2  0
  3 38  1  0
  4  5  1  0
  4 39  1  0
  5  6  2  0
  5 40  1  0
  6  7  1  0
  6 41  1  0
  7  8  1  0
  8  9  1  0
  8 11  1  0
  8 42  1  1
  9 10  1  0
  9 43  1  0
  9 44  1  0
 11 45  1  0
 12 11  1  0
 12 33  2  0
 12 13  1  0
 13 14  1  0
 13 15  1  0
 15 16  1  0
 15 31  2  0
 16 21  1  0
 16 17  2  0
 17 18  1  0
 17 46  1  0
 18 19  2  0
 18 47  1  0
 19 20  1  0
 19 48  1  0
 20 21  2  0
 20 49  1  0
 21 22  1  0
 22 23  1  0
 22 24  1  6
 22 25  1  0
 23 50  1  0
 23 51  1  0
 23 52  1  0
 24 53  1  0
 25 30  1  0
 25 26  2  0
 26 27  1  0
 26 54  1  0
 27 28  2  0
 27 55  1  0
 28 29  1  0
 28 56  1  0
 29 30  2  0
 29 57  1  0
 30 58  1  0
 31 32  1  0
 31 33  1  0
 32 59  1  0
 32 60  1  0
 32 61  1  0
 33 34  1  0
M  CHG  1  33   1
M  END
>  <DOCK_score>  (1) 
-57.130405

>  <SMILES>  (1) 
Cc1ccccc1C(CF)Nc1[nH]c(-c2ccccc2[C@@](C)(O)c2ccccc2)c(C)[nH+]1

$$$$
