Oc1ccc(COCc2c(Cl)cccc2N2CC[NH+](C(c3ccccc3)c3ccccc3)CC2)cc1
     RDKit          3D

 68 72  0  0  0  0  0  0  0  0999 V2000
  139.2600  135.3003  166.7315 O   0  0  0  0  0  0  0  0  0  0  0  0
  138.1651  135.9816  166.3024 C   0  0  0  0  0  0  0  0  0  0  0  0
  137.4013  135.4813  165.2576 C   0  0  0  0  0  0  0  0  0  0  0  0
  136.2919  136.1784  164.8194 C   0  0  0  0  0  0  0  0  0  0  0  0
  135.9361  137.3676  165.4284 C   0  0  0  0  0  0  0  0  0  0  0  0
  134.7220  138.1227  164.9523 C   0  0  0  0  0  0  0  0  0  0  0  0
  134.7204  138.1702  163.5240 O   0  0  0  0  0  0  0  0  0  0  0  0
  133.9042  139.2081  162.9779 C   0  0  0  0  0  0  0  0  0  0  0  0
  134.3346  139.4933  161.5621 C   0  0  0  0  0  0  0  0  0  0  0  0
  135.3107  140.4399  161.3129 C   0  0  0  0  0  0  0  0  0  0  0  0
  136.0411  141.3008  162.6317 Cl  0  0  0  0  0  0  0  0  0  0  0  0
  135.7056  140.7023  160.0128 C   0  0  0  0  0  0  0  0  0  0  0  0
  135.1257  140.0189  158.9597 C   0  0  0  0  0  0  0  0  0  0  0  0
  134.1505  139.0719  159.2023 C   0  0  0  0  0  0  0  0  0  0  0  0
  133.7553  138.8015  160.5066 C   0  0  0  0  0  0  0  0  0  0  0  0
  132.7731  137.8399  160.7552 N   0  0  0  0  0  0  0  0  0  0  0  0
  133.2270  136.5045  160.3420 C   0  0  0  0  0  0  0  0  0  0  0  0
  132.1491  135.4739  160.6850 C   0  0  0  0  0  0  0  0  0  0  0  0
  130.9010  135.8216  159.9930 N   0  0  0  0  0  0  0  0  0  0  0  0
  131.0618  135.8358  158.9969 H   0  0  0  0  0  0  0  0  0  0  0  0
  129.8717  134.8221  160.3083 C   0  0  0  0  0  0  0  0  0  0  0  0
  128.5911  135.1786  159.5984 C   0  0  0  0  0  0  0  0  0  0  0  0
  127.3737  134.8275  160.1509 C   0  0  0  0  0  0  0  0  0  0  0  0
  126.1989  135.1588  159.5021 C   0  0  0  0  0  0  0  0  0  0  0  0
  126.2414  135.8319  158.2961 C   0  0  0  0  0  0  0  0  0  0  0  0
  127.4594  136.1783  157.7402 C   0  0  0  0  0  0  0  0  0  0  0  0
  128.6342  135.8517  158.3917 C   0  0  0  0  0  0  0  0  0  0  0  0
  130.3362  133.4623  159.8539 C   0  0  0  0  0  0  0  0  0  0  0  0
  129.9234  132.3294  160.5300 C   0  0  0  0  0  0  0  0  0  0  0  0
  130.3455  131.0817  160.1102 C   0  0  0  0  0  0  0  0  0  0  0  0
  131.1887  130.9678  159.0207 C   0  0  0  0  0  0  0  0  0  0  0  0
  131.6057  132.1010  158.3480 C   0  0  0  0  0  0  0  0  0  0  0  0
  131.1794  133.3483  158.7645 C   0  0  0  0  0  0  0  0  0  0  0  0
  130.4473  137.1471  160.4342 C   0  0  0  0  0  0  0  0  0  0  0  0
  131.5111  138.1916  160.0891 C   0  0  0  0  0  0  0  0  0  0  0  0
  136.6922  137.8650  166.4738 C   0  0  0  0  0  0  0  0  0  0  0  0
  137.8057  137.1746  166.9120 C   0  0  0  0  0  0  0  0  0  0  0  0
  139.7240  135.7248  167.4664 H   0  0  0  0  0  0  0  0  0  0  0  0
  137.6760  134.5500  164.7848 H   0  0  0  0  0  0  0  0  0  0  0  0
  135.6996  135.7917  164.0033 H   0  0  0  0  0  0  0  0  0  0  0  0
  133.8207  137.6178  165.3000 H   0  0  0  0  0  0  0  0  0  0  0  0
  134.7462  139.1373  165.3495 H   0  0  0  0  0  0  0  0  0  0  0  0
  132.8612  138.8913  162.9838 H   0  0  0  0  0  0  0  0  0  0  0  0
  134.0132  140.1106  163.5796 H   0  0  0  0  0  0  0  0  0  0  0  0
  136.4682  141.4425  159.8202 H   0  0  0  0  0  0  0  0  0  0  0  0
  135.4357  140.2265  157.9462 H   0  0  0  0  0  0  0  0  0  0  0  0
  133.6983  138.5387  158.3791 H   0  0  0  0  0  0  0  0  0  0  0  0
  133.4074  136.4981  159.2671 H   0  0  0  0  0  0  0  0  0  0  0  0
  134.1490  136.2550  160.8673 H   0  0  0  0  0  0  0  0  0  0  0  0
  131.9788  135.4709  161.7617 H   0  0  0  0  0  0  0  0  0  0  0  0
  132.4778  134.4846  160.3665 H   0  0  0  0  0  0  0  0  0  0  0  0
  129.6984  134.8060  161.3843 H   0  0  0  0  0  0  0  0  0  0  0  0
  127.3402  134.2977  161.0915 H   0  0  0  0  0  0  0  0  0  0  0  0
  125.2476  134.8877  159.9356 H   0  0  0  0  0  0  0  0  0  0  0  0
  125.3241  136.0867  157.7863 H   0  0  0  0  0  0  0  0  0  0  0  0
  127.4930  136.7039  156.7973 H   0  0  0  0  0  0  0  0  0  0  0  0
  129.5854  136.1221  157.9578 H   0  0  0  0  0  0  0  0  0  0  0  0
  129.2681  132.4188  161.3838 H   0  0  0  0  0  0  0  0  0  0  0  0
  130.0200  130.1964  160.6362 H   0  0  0  0  0  0  0  0  0  0  0  0
  131.5220  129.9933  158.6956 H   0  0  0  0  0  0  0  0  0  0  0  0
  132.2647  132.0120  157.4970 H   0  0  0  0  0  0  0  0  0  0  0  0
  131.5054  134.2337  158.2391 H   0  0  0  0  0  0  0  0  0  0  0  0
  130.2858  137.1356  161.5121 H   0  0  0  0  0  0  0  0  0  0  0  0
  129.5144  137.3984  159.9297 H   0  0  0  0  0  0  0  0  0  0  0  0
  131.1812  139.1730  160.4298 H   0  0  0  0  0  0  0  0  0  0  0  0
  131.6632  138.2130  159.0099 H   0  0  0  0  0  0  0  0  0  0  0  0
  136.4118  138.7938  166.9483 H   0  0  0  0  0  0  0  0  0  0  0  0
  138.3957  137.5634  167.7288 H   0  0  0  0  0  0  0  0  0  0  0  0
  1  2  1  0
  1 38  1  0
  2 37  2  0
  2  3  1  0
  3  4  2  0
  3 39  1  0
  4  5  1  0
  4 40  1  0
  5  6  1  0
  5 36  2  0
  6  7  1  0
  6 41  1  0
  6 42  1  0
  7  8  1  0
  8  9  1  0
  8 43  1  0
  8 44  1  0
  9 15  1  0
  9 10  2  0
 10 11  1  0
 10 12  1  0
 12 13  2  0
 12 45  1  0
 13 14  1  0
 13 46  1  0
 14 15  2  0
 14 47  1  0
 15 16  1  0
 16 35  1  0
 16 17  1  0
 17 18  1  0
 17 48  1  0
 17 49  1  0
 18 19  1  0
 18 50  1  0
 18 51  1  0
 19 20  1  0
 19 21  1  0
 19 34  1  0
 21 22  1  0
 21 28  1  0
 21 52  1  0
 22 27  1  0
 22 23  2  0
 23 24  1  0
 23 53  1  0
 24 25  2  0
 24 54  1  0
 25 26  1  0
 25 55  1  0
 26 27  2  0
 26 56  1  0
 27 57  1  0
 28 33  1  0
 28 29  2  0
 29 30  1  0
 29 58  1  0
 30 31  2  0
 30 59  1  0
 31 32  1  0
 31 60  1  0
 32 33  2  0
 32 61  1  0
 33 62  1  0
 34 35  1  0
 34 63  1  0
 34 64  1  0
 35 65  1  0
 35 66  1  0
 36 37  1  0
 36 67  1  0
 37 68  1  0
M  CHG  1  19   1
M  END
>  <DOCK_score>  (1) 
-56.269421

>  <SMILES>  (1) 
Oc1ccc(COCc2c(Cl)cccc2N2CC[NH+](C(c3ccccc3)c3ccccc3)CC2)cc1

$$$$
