O=C1CC[C@H](NC(NC2CC3(CCC3)C2)=[NH+]C2COc3ccccc3C2)CN1
     RDKit          3D

 59 63  0  0  1  0  0  0  0  0999 V2000
  123.6589  133.6362  161.5959 O   0  0  0  0  0  0  0  0  0  0  0  0
  124.8103  133.9213  161.3431 C   0  0  0  0  0  0  0  0  0  0  0  0
  125.7097  132.8419  160.8128 C   0  0  0  0  0  0  0  0  0  0  0  0
  127.1738  133.2594  160.9714 C   0  0  0  0  0  0  0  0  0  0  0  0
  127.3337  134.6831  160.4246 C   0  0  2  0  0  0  0  0  0  0  0  0
  126.9277  134.7346  159.4143 H   0  0  0  0  0  0  0  0  0  0  0  0
  128.7533  135.0447  160.4028 N   0  0  0  0  0  0  0  0  0  0  0  0
  129.5131  134.7796  159.2880 C   0  0  0  0  0  0  0  0  0  0  0  0
  128.9407  134.1753  158.1938 N   0  0  0  0  0  0  0  0  0  0  0  0
  129.7504  133.8928  157.0060 C   0  0  0  0  0  0  0  0  0  0  0  0
  129.1720  132.7764  156.1176 C   0  0  0  0  0  0  0  0  0  0  0  0
  130.6100  132.2846  155.9480 C   0  0  0  0  0  0  0  0  0  0  0  0
  130.9171  130.8058  155.7101 C   0  0  0  0  0  0  0  0  0  0  0  0
  131.0824  131.1658  154.2225 C   0  0  0  0  0  0  0  0  0  0  0  0
  131.4100  132.5985  154.6807 C   0  0  0  0  0  0  0  0  0  0  0  0
  130.9414  132.9568  157.2809 C   0  0  0  0  0  0  0  0  0  0  0  0
  130.7759  135.1014  159.2685 N   0  0  0  0  0  0  0  0  0  0  0  0
  131.2047  135.3325  158.4297 H   0  0  0  0  0  0  0  0  0  0  0  0
  131.5479  135.1141  160.5136 C   0  0  1  0  0  0  0  0  0  0  0  0
  133.0198  134.8041  160.2125 C   0  0  0  0  0  0  0  0  0  0  0  0
  133.7252  134.7215  161.4518 O   0  0  0  0  0  0  0  0  0  0  0  0
  133.5526  135.7269  162.3489 C   0  0  0  0  0  0  0  0  0  0  0  0
  134.4771  135.8629  163.3799 C   0  0  0  0  0  0  0  0  0  0  0  0
  134.3334  136.8690  164.3129 C   0  0  0  0  0  0  0  0  0  0  0  0
  133.2678  137.7458  164.2246 C   0  0  0  0  0  0  0  0  0  0  0  0
  132.3490  137.6147  163.2018 C   0  0  0  0  0  0  0  0  0  0  0  0
  132.4888  136.6075  162.2614 C   0  0  0  0  0  0  0  0  0  0  0  0
  131.4705  136.5020  161.1546 C   0  0  0  0  0  0  0  0  0  0  0  0
  126.5729  135.6463  161.3367 C   0  0  0  0  0  0  0  0  0  0  0  0
  125.2100  135.1763  161.5514 N   0  0  0  0  0  0  0  0  0  0  0  0
  125.4928  132.6758  159.7577 H   0  0  0  0  0  0  0  0  0  0  0  0
  125.5342  131.9196  161.3667 H   0  0  0  0  0  0  0  0  0  0  0  0
  127.8128  132.5770  160.4108 H   0  0  0  0  0  0  0  0  0  0  0  0
  127.4493  133.2381  162.0258 H   0  0  0  0  0  0  0  0  0  0  0  0
  129.1570  135.4710  161.1748 H   0  0  0  0  0  0  0  0  0  0  0  0
  128.0009  133.9359  158.2081 H   0  0  0  0  0  0  0  0  0  0  0  0
  130.0202  134.7933  156.4541 H   0  0  0  0  0  0  0  0  0  0  0  0
  128.7225  133.1409  155.1940 H   0  0  0  0  0  0  0  0  0  0  0  0
  128.5309  132.0766  156.6537 H   0  0  0  0  0  0  0  0  0  0  0  0
  130.0726  130.1461  155.9094 H   0  0  0  0  0  0  0  0  0  0  0  0
  131.8392  130.4688  156.1838 H   0  0  0  0  0  0  0  0  0  0  0  0
  131.9194  130.6596  153.7417 H   0  0  0  0  0  0  0  0  0  0  0  0
  130.1577  131.0905  153.6503 H   0  0  0  0  0  0  0  0  0  0  0  0
  132.4708  132.7669  154.8655 H   0  0  0  0  0  0  0  0  0  0  0  0
  130.9604  133.3710  154.0569 H   0  0  0  0  0  0  0  0  0  0  0  0
  130.7979  132.3085  158.1453 H   0  0  0  0  0  0  0  0  0  0  0  0
  131.9055  133.4656  157.2864 H   0  0  0  0  0  0  0  0  0  0  0  0
  131.1487  134.3683  161.2010 H   0  0  0  0  0  0  0  0  0  0  0  0
  133.0943  133.8540  159.6836 H   0  0  0  0  0  0  0  0  0  0  0  0
  133.4449  135.5998  159.6006 H   0  0  0  0  0  0  0  0  0  0  0  0
  135.3096  135.1786  163.4501 H   0  0  0  0  0  0  0  0  0  0  0  0
  135.0530  136.9719  165.1116 H   0  0  0  0  0  0  0  0  0  0  0  0
  133.1537  138.5327  164.9555 H   0  0  0  0  0  0  0  0  0  0  0  0
  131.5175  138.3006  163.1351 H   0  0  0  0  0  0  0  0  0  0  0  0
  131.6744  137.2618  160.4002 H   0  0  0  0  0  0  0  0  0  0  0  0
  130.4724  136.6571  161.5641 H   0  0  0  0  0  0  0  0  0  0  0  0
  127.0857  135.7148  162.2961 H   0  0  0  0  0  0  0  0  0  0  0  0
  126.5451  136.6333  160.8752 H   0  0  0  0  0  0  0  0  0  0  0  0
  124.5525  135.8166  161.8654 H   0  0  0  0  0  0  0  0  0  0  0  0
  1  2  2  0
  2 30  1  0
  2  3  1  0
  3  4  1  0
  3 31  1  0
  3 32  1  0
  4  5  1  0
  4 33  1  0
  4 34  1  0
  5  6  1  6
  5  7  1  0
  5 29  1  0
  7 35  1  0
  8  7  1  0
  8  9  1  0
  8 17  2  0
  9 10  1  0
  9 36  1  0
 10 16  1  0
 10 11  1  0
 10 37  1  0
 11 12  1  0
 11 38  1  0
 11 39  1  0
 12 15  1  0
 12 13  1  0
 12 16  1  0
 13 14  1  0
 13 40  1  0
 13 41  1  0
 14 15  1  0
 14 42  1  0
 14 43  1  0
 15 44  1  0
 15 45  1  0
 16 46  1  0
 16 47  1  0
 17 18  1  0
 17 19  1  0
 19 28  1  0
 19 20  1  0
 19 48  1  1
 20 21  1  0
 20 49  1  0
 20 50  1  0
 21 22  1  0
 22 27  2  0
 22 23  1  0
 23 24  2  0
 23 51  1  0
 24 25  1  0
 24 52  1  0
 25 26  2  0
 25 53  1  0
 26 27  1  0
 26 54  1  0
 27 28  1  0
 28 55  1  0
 28 56  1  0
 29 30  1  0
 29 57  1  0
 29 58  1  0
 30 59  1  0
M  CHG  1  17   1
M  END
>  <DOCK_score>  (1) 
-45.184303

>  <SMILES>  (1) 
O=C1CC[C@H](NC(NC2CC3(CCC3)C2)=[NH+]C2COc3ccccc3C2)CN1

$$$$
