CC1=C(C)[C@H](Nc2[nH]c3ccccc3[nH+]2)C=CC1Nc1ccccc1
     RDKit          3D

 48 51  0  0  1  0  0  0  0  0999 V2000
  133.9523  135.6389  161.9858 C   0  0  0  0  0  0  0  0  0  0  0  0
  132.6239  136.1847  161.5291 C   0  0  0  0  0  0  0  0  0  0  0  0
  131.6476  135.3536  161.3260 C   0  0  0  0  0  0  0  0  0  0  0  0
  131.8916  133.8844  161.5570 C   0  0  0  0  0  0  0  0  0  0  0  0
  130.2879  135.7922  160.8720 C   0  0  2  0  0  0  0  0  0  0  0  0
  129.5312  135.2146  161.4032 H   0  0  0  0  0  0  0  0  0  0  0  0
  130.1587  135.5443  159.4339 N   0  0  0  0  0  0  0  0  0  0  0  0
  130.2820  134.2662  158.9427 C   0  0  0  0  0  0  0  0  0  0  0  0
  130.7368  133.9557  157.7307 N   0  0  0  0  0  0  0  0  0  0  0  0
  131.0354  134.5876  157.0580 H   0  0  0  0  0  0  0  0  0  0  0  0
  130.7114  132.5926  157.5941 C   0  0  0  0  0  0  0  0  0  0  0  0
  131.0617  131.7210  156.5670 C   0  0  0  0  0  0  0  0  0  0  0  0
  130.9150  130.3620  156.7420 C   0  0  0  0  0  0  0  0  0  0  0  0
  130.4204  129.8558  157.9351 C   0  0  0  0  0  0  0  0  0  0  0  0
  130.0689  130.7047  158.9622 C   0  0  0  0  0  0  0  0  0  0  0  0
  130.2107  132.0801  158.8021 C   0  0  0  0  0  0  0  0  0  0  0  0
  129.9588  133.1592  159.6078 N   0  0  0  0  0  0  0  0  0  0  0  0
  129.6048  133.1229  160.5102 H   0  0  0  0  0  0  0  0  0  0  0  0
  130.0711  137.2510  161.1409 C   0  0  0  0  0  0  0  0  0  0  0  0
  131.0476  138.0821  161.3431 C   0  0  0  0  0  0  0  0  0  0  0  0
  132.4872  137.6641  161.3286 C   0  0  2  0  0  0  0  0  0  0  0  0
  133.0808  138.0309  160.0405 N   0  0  0  0  0  0  0  0  0  0  0  0
  134.1454  138.9341  159.9940 C   0  0  0  0  0  0  0  0  0  0  0  0
  134.2580  139.9275  160.9584 C   0  0  0  0  0  0  0  0  0  0  0  0
  135.3144  140.8159  160.9122 C   0  0  0  0  0  0  0  0  0  0  0  0
  136.2536  140.7238  159.9014 C   0  0  0  0  0  0  0  0  0  0  0  0
  136.1415  139.7393  158.9367 C   0  0  0  0  0  0  0  0  0  0  0  0
  135.0905  138.8445  158.9800 C   0  0  0  0  0  0  0  0  0  0  0  0
  133.9794  135.6128  163.0751 H   0  0  0  0  0  0  0  0  0  0  0  0
  134.0843  134.6300  161.5949 H   0  0  0  0  0  0  0  0  0  0  0  0
  134.7541  136.2789  161.6176 H   0  0  0  0  0  0  0  0  0  0  0  0
  132.2434  133.4250  160.6334 H   0  0  0  0  0  0  0  0  0  0  0  0
  132.6446  133.7592  162.3350 H   0  0  0  0  0  0  0  0  0  0  0  0
  130.9631  133.4067  161.8698 H   0  0  0  0  0  0  0  0  0  0  0  0
  129.9859  136.2821  158.8282 H   0  0  0  0  0  0  0  0  0  0  0  0
  131.4476  132.1086  155.6358 H   0  0  0  0  0  0  0  0  0  0  0  0
  131.1872  129.6863  155.9448 H   0  0  0  0  0  0  0  0  0  0  0  0
  130.3097  128.7887  158.0598 H   0  0  0  0  0  0  0  0  0  0  0  0
  129.6841  130.3041  159.8883 H   0  0  0  0  0  0  0  0  0  0  0  0
  129.0589  137.6267  161.1670 H   0  0  0  0  0  0  0  0  0  0  0  0
  130.8127  139.1195  161.5302 H   0  0  0  0  0  0  0  0  0  0  0  0
  133.0181  138.1834  162.1264 H   0  0  0  0  0  0  0  0  0  0  0  0
  132.7346  137.6466  159.2198 H   0  0  0  0  0  0  0  0  0  0  0  0
  133.5224  140.0027  161.7456 H   0  0  0  0  0  0  0  0  0  0  0  0
  135.4049  141.5859  161.6640 H   0  0  0  0  0  0  0  0  0  0  0  0
  137.0767  141.4221  159.8654 H   0  0  0  0  0  0  0  0  0  0  0  0
  136.8770  139.6700  158.1489 H   0  0  0  0  0  0  0  0  0  0  0  0
  135.0038  138.0757  158.2265 H   0  0  0  0  0  0  0  0  0  0  0  0
  1  2  1  0
  1 29  1  0
  1 30  1  0
  1 31  1  0
  2 21  1  0
  2  3  2  0
  3  4  1  0
  3  5  1  0
  4 32  1  0
  4 33  1  0
  4 34  1  0
  5  6  1  1
  5  7  1  0
  5 19  1  0
  7  8  1  0
  7 35  1  0
  8 17  1  0
  8  9  2  0
  9 10  1  0
  9 11  1  0
 11 16  2  0
 11 12  1  0
 12 13  2  0
 12 36  1  0
 13 14  1  0
 13 37  1  0
 14 15  2  0
 14 38  1  0
 15 16  1  0
 15 39  1  0
 16 17  1  0
 17 18  1  0
 19 20  2  0
 19 40  1  0
 20 21  1  0
 20 41  1  0
 21 22  1  0
 21 42  1  1
 22 23  1  0
 22 43  1  0
 23 28  1  0
 23 24  2  0
 24 25  1  0
 24 44  1  0
 25 26  2  0
 25 45  1  0
 26 27  1  0
 26 46  1  0
 27 28  2  0
 27 47  1  0
 28 48  1  0
M  CHG  1   9   1
M  END
>  <DOCK_score>  (1) 
-56.097168

>  <SMILES>  (1) 
CC1=C(C)[C@H](Nc2[nH]c3ccccc3[nH+]2)C=CC1Nc1ccccc1

$$$$
