c1ccc(-c2ccc(-c3c[nH]c(N[C@@H](Cc4ccncc4)c4ccccc4)[nH+]3)cc2)cc1
     RDKit          3D

 57 61  0  0  1  0  0  0  0  0999 V2000
  130.4608  128.7644  151.4641 C   0  0  0  0  0  0  0  0  0  0  0  0
  129.6587  129.8874  151.5595 C   0  0  0  0  0  0  0  0  0  0  0  0
  129.6602  130.6438  152.7138 C   0  0  0  0  0  0  0  0  0  0  0  0
  130.4796  130.2799  153.7811 C   0  0  0  0  0  0  0  0  0  0  0  0
  130.4900  131.0918  155.0221 C   0  0  0  0  0  0  0  0  0  0  0  0
  130.2383  132.4621  154.9610 C   0  0  0  0  0  0  0  0  0  0  0  0
  130.2422  133.2152  156.1142 C   0  0  0  0  0  0  0  0  0  0  0  0
  130.5086  132.6091  157.3419 C   0  0  0  0  0  0  0  0  0  0  0  0
  130.5179  133.4204  158.5827 C   0  0  0  0  0  0  0  0  0  0  0  0
  130.1993  132.9816  159.8262 C   0  0  0  0  0  0  0  0  0  0  0  0
  130.3408  134.0521  160.6750 N   0  0  0  0  0  0  0  0  0  0  0  0
  130.1832  134.0510  161.6321 H   0  0  0  0  0  0  0  0  0  0  0  0
  130.7419  135.1149  159.9253 C   0  0  0  0  0  0  0  0  0  0  0  0
  130.9970  136.3886  160.4038 N   0  0  0  0  0  0  0  0  0  0  0  0
  130.8396  136.6801  161.8308 C   0  0  1  0  0  0  0  0  0  0  0  0
  131.5096  136.0429  162.4080 H   0  0  0  0  0  0  0  0  0  0  0  0
  131.1812  138.1485  162.0921 C   0  0  0  0  0  0  0  0  0  0  0  0
  132.6061  138.4137  161.6794 C   0  0  0  0  0  0  0  0  0  0  0  0
  133.5627  137.4122  161.7467 C   0  0  0  0  0  0  0  0  0  0  0  0
  134.8586  137.6914  161.3558 C   0  0  0  0  0  0  0  0  0  0  0  0
  135.1908  138.8952  160.9323 N   0  0  0  0  0  0  0  0  0  0  0  0
  134.3087  139.8727  160.8596 C   0  0  0  0  0  0  0  0  0  0  0  0
  132.9930  139.6666  161.2289 C   0  0  0  0  0  0  0  0  0  0  0  0
  129.4147  136.4148  162.2434 C   0  0  0  0  0  0  0  0  0  0  0  0
  129.1335  136.0048  163.5333 C   0  0  0  0  0  0  0  0  0  0  0  0
  127.8261  135.7652  163.9129 C   0  0  0  0  0  0  0  0  0  0  0  0
  126.8006  135.9275  163.0003 C   0  0  0  0  0  0  0  0  0  0  0  0
  127.0822  136.3325  161.7089 C   0  0  0  0  0  0  0  0  0  0  0  0
  128.3893  136.5758  161.3304 C   0  0  0  0  0  0  0  0  0  0  0  0
  130.8523  134.7322  158.6766 N   0  0  0  0  0  0  0  0  0  0  0  0
  131.1269  135.2971  157.9374 H   0  0  0  0  0  0  0  0  0  0  0  0
  130.7660  131.2395  157.4022 C   0  0  0  0  0  0  0  0  0  0  0  0
  130.7569  130.4856  156.2495 C   0  0  0  0  0  0  0  0  0  0  0  0
  131.2897  129.1503  153.6773 C   0  0  0  0  0  0  0  0  0  0  0  0
  131.2763  128.3989  152.5199 C   0  0  0  0  0  0  0  0  0  0  0  0
  130.4535  128.1734  150.5602 H   0  0  0  0  0  0  0  0  0  0  0  0
  129.0271  130.1707  150.7303 H   0  0  0  0  0  0  0  0  0  0  0  0
  129.0305  131.5179  152.7887 H   0  0  0  0  0  0  0  0  0  0  0  0
  130.0364  132.9320  154.0098 H   0  0  0  0  0  0  0  0  0  0  0  0
  130.0426  134.2756  156.0674 H   0  0  0  0  0  0  0  0  0  0  0  0
  129.8927  131.9819  160.0968 H   0  0  0  0  0  0  0  0  0  0  0  0
  131.2802  137.0880  159.7942 H   0  0  0  0  0  0  0  0  0  0  0  0
  130.5111  138.7856  161.5151 H   0  0  0  0  0  0  0  0  0  0  0  0
  131.0641  138.3653  163.1539 H   0  0  0  0  0  0  0  0  0  0  0  0
  133.2977  136.4256  162.0970 H   0  0  0  0  0  0  0  0  0  0  0  0
  135.6088  136.9159  161.4020 H   0  0  0  0  0  0  0  0  0  0  0  0
  134.6181  140.8458  160.5074 H   0  0  0  0  0  0  0  0  0  0  0  0
  132.2754  140.4714  161.1677 H   0  0  0  0  0  0  0  0  0  0  0  0
  129.9350  135.8748  164.2455 H   0  0  0  0  0  0  0  0  0  0  0  0
  127.6060  135.4485  164.9218 H   0  0  0  0  0  0  0  0  0  0  0  0
  125.7793  135.7378  163.2961 H   0  0  0  0  0  0  0  0  0  0  0  0
  126.2811  136.4589  160.9958 H   0  0  0  0  0  0  0  0  0  0  0  0
  128.6094  136.8922  160.3215 H   0  0  0  0  0  0  0  0  0  0  0  0
  130.9726  130.7701  158.3527 H   0  0  0  0  0  0  0  0  0  0  0  0
  130.9561  129.4253  156.2962 H   0  0  0  0  0  0  0  0  0  0  0  0
  131.9264  128.8636  154.5013 H   0  0  0  0  0  0  0  0  0  0  0  0
  131.9037  127.5235  152.4384 H   0  0  0  0  0  0  0  0  0  0  0  0
  1 35  2  0
  1  2  1  0
  1 36  1  0
  2  3  2  0
  2 37  1  0
  3  4  1  0
  3 38  1  0
  4  5  1  0
  4 34  2  0
  5 33  1  0
  5  6  2  0
  6  7  1  0
  6 39  1  0
  7  8  2  0
  7 40  1  0
  8  9  1  0
  8 32  1  0
  9 30  1  0
  9 10  2  0
 10 11  1  0
 10 41  1  0
 11 12  1  0
 11 13  1  0
 13 14  1  0
 13 30  2  0
 14 15  1  0
 14 42  1  0
 15 16  1  1
 15 17  1  0
 15 24  1  0
 17 18  1  0
 17 43  1  0
 17 44  1  0
 18 23  1  0
 18 19  2  0
 19 20  1  0
 19 45  1  0
 20 21  2  0
 20 46  1  0
 21 22  1  0
 22 23  2  0
 22 47  1  0
 23 48  1  0
 24 29  1  0
 24 25  2  0
 25 26  1  0
 25 49  1  0
 26 27  2  0
 26 50  1  0
 27 28  1  0
 27 51  1  0
 28 29  2  0
 28 52  1  0
 29 53  1  0
 30 31  1  0
 32 33  2  0
 32 54  1  0
 33 55  1  0
 34 35  1  0
 34 56  1  0
 35 57  1  0
M  CHG  1  30   1
M  END
>  <DOCK_score>  (1) 
-57.516655

>  <SMILES>  (1) 
c1ccc(-c2ccc(-c3c[nH]c(N[C@@H](Cc4ccncc4)c4ccccc4)[nH+]3)cc2)cc1

$$$$
