c1ccc(-c2ccc(-c3ccccc3Nc3[nH]cc(-c4cccnc4)[nH+]3)cc2)cc1
     RDKit          3D

 51 55  0  0  1  0  0  0  0  0999 V2000
  137.5485  140.1597  160.7664 C   0  0  0  0  0  0  0  0  0  0  0  0
  136.9463  139.7732  159.5825 C   0  0  0  0  0  0  0  0  0  0  0  0
  135.6661  139.2579  159.5925 C   0  0  0  0  0  0  0  0  0  0  0  0
  134.9797  139.1274  160.7982 C   0  0  0  0  0  0  0  0  0  0  0  0
  133.6038  138.5740  160.8157 C   0  0  0  0  0  0  0  0  0  0  0  0
  132.7647  138.7574  159.7173 C   0  0  0  0  0  0  0  0  0  0  0  0
  131.4888  138.2388  159.7309 C   0  0  0  0  0  0  0  0  0  0  0  0
  131.0320  137.5397  160.8482 C   0  0  0  0  0  0  0  0  0  0  0  0
  129.6573  136.9865  160.8654 C   0  0  0  0  0  0  0  0  0  0  0  0
  128.7512  137.3926  161.8428 C   0  0  0  0  0  0  0  0  0  0  0  0
  127.4708  136.8782  161.8517 C   0  0  0  0  0  0  0  0  0  0  0  0
  127.0841  135.9514  160.8988 C   0  0  0  0  0  0  0  0  0  0  0  0
  127.9745  135.5362  159.9278 C   0  0  0  0  0  0  0  0  0  0  0  0
  129.2641  136.0487  159.9028 C   0  0  0  0  0  0  0  0  0  0  0  0
  130.1649  135.6312  158.9222 N   0  0  0  0  0  0  0  0  0  0  0  0
  130.0692  134.3551  158.3916 C   0  0  0  0  0  0  0  0  0  0  0  0
  129.6076  133.2558  159.0485 N   0  0  0  0  0  0  0  0  0  0  0  0
  129.2888  133.2254  159.9642 H   0  0  0  0  0  0  0  0  0  0  0  0
  129.6736  132.1987  158.1747 C   0  0  0  0  0  0  0  0  0  0  0  0
  130.1807  132.6797  157.0122 C   0  0  0  0  0  0  0  0  0  0  0  0
  130.4355  131.8944  155.7799 C   0  0  0  0  0  0  0  0  0  0  0  0
  130.3463  132.4976  154.5219 C   0  0  0  0  0  0  0  0  0  0  0  0
  130.5987  131.7230  153.4031 C   0  0  0  0  0  0  0  0  0  0  0  0
  130.9175  130.3866  153.5634 C   0  0  0  0  0  0  0  0  0  0  0  0
  130.9890  129.8437  154.7632 N   0  0  0  0  0  0  0  0  0  0  0  0
  130.7620  130.5420  155.8571 C   0  0  0  0  0  0  0  0  0  0  0  0
  130.4133  134.0058  157.1760 N   0  0  0  0  0  0  0  0  0  0  0  0
  130.7770  134.6005  156.5015 H   0  0  0  0  0  0  0  0  0  0  0  0
  131.8696  137.3610  161.9493 C   0  0  0  0  0  0  0  0  0  0  0  0
  133.1474  137.8749  161.9332 C   0  0  0  0  0  0  0  0  0  0  0  0
  135.5894  139.5234  161.9878 C   0  0  0  0  0  0  0  0  0  0  0  0
  136.8722  140.0321  161.9664 C   0  0  0  0  0  0  0  0  0  0  0  0
  138.5502  140.5628  160.7538 H   0  0  0  0  0  0  0  0  0  0  0  0
  137.4789  139.8753  158.6485 H   0  0  0  0  0  0  0  0  0  0  0  0
  135.1969  138.9567  158.6676 H   0  0  0  0  0  0  0  0  0  0  0  0
  133.1169  139.3026  158.8540 H   0  0  0  0  0  0  0  0  0  0  0  0
  130.8407  138.3769  158.8782 H   0  0  0  0  0  0  0  0  0  0  0  0
  129.0496  138.1126  162.5905 H   0  0  0  0  0  0  0  0  0  0  0  0
  126.7683  137.1972  162.6075 H   0  0  0  0  0  0  0  0  0  0  0  0
  126.0813  135.5508  160.9148 H   0  0  0  0  0  0  0  0  0  0  0  0
  127.6668  134.8127  159.1874 H   0  0  0  0  0  0  0  0  0  0  0  0
  130.8582  136.2346  158.6121 H   0  0  0  0  0  0  0  0  0  0  0  0
  129.3815  131.1786  158.3757 H   0  0  0  0  0  0  0  0  0  0  0  0
  130.0907  133.5426  154.4257 H   0  0  0  0  0  0  0  0  0  0  0  0
  130.5434  132.1562  152.4154 H   0  0  0  0  0  0  0  0  0  0  0  0
  131.1114  129.7782  152.6923 H   0  0  0  0  0  0  0  0  0  0  0  0
  130.8300  130.0620  156.8221 H   0  0  0  0  0  0  0  0  0  0  0  0
  131.5163  136.8195  162.8145 H   0  0  0  0  0  0  0  0  0  0  0  0
  133.7961  137.7362  162.7854 H   0  0  0  0  0  0  0  0  0  0  0  0
  135.0606  139.4283  162.9247 H   0  0  0  0  0  0  0  0  0  0  0  0
  137.3472  140.3352  162.8877 H   0  0  0  0  0  0  0  0  0  0  0  0
  1 32  2  0
  1  2  1  0
  1 33  1  0
  2  3  2  0
  2 34  1  0
  3  4  1  0
  3 35  1  0
  4  5  1  0
  4 31  2  0
  5 30  1  0
  5  6  2  0
  6  7  1  0
  6 36  1  0
  7  8  2  0
  7 37  1  0
  8  9  1  0
  8 29  1  0
  9 14  1  0
  9 10  2  0
 10 11  1  0
 10 38  1  0
 11 12  2  0
 11 39  1  0
 12 13  1  0
 12 40  1  0
 13 14  2  0
 13 41  1  0
 14 15  1  0
 15 42  1  0
 16 15  1  0
 16 27  2  0
 16 17  1  0
 17 18  1  0
 17 19  1  0
 19 20  2  0
 19 43  1  0
 20 21  1  0
 20 27  1  0
 21 26  1  0
 21 22  2  0
 22 23  1  0
 22 44  1  0
 23 24  2  0
 23 45  1  0
 24 25  1  0
 24 46  1  0
 25 26  2  0
 26 47  1  0
 27 28  1  0
 29 30  2  0
 29 48  1  0
 30 49  1  0
 31 32  1  0
 31 50  1  0
 32 51  1  0
M  CHG  1  27   1
M  END
>  <DOCK_score>  (1) 
-58.635818

>  <SMILES>  (1) 
c1ccc(-c2ccc(-c3ccccc3Nc3[nH]cc(-c4cccnc4)[nH+]3)cc2)cc1

$$$$
