CCc1ccc(-c2c[nH]c(N[C@@H](c3ccc(CC)cc3)c3c[nH]nc3C)[nH+]2)cc1
     RDKit          3D

 57 60  0  0  1  0  0  0  0  0999 V2000
  129.8889  128.6325  151.6289 C   0  0  0  0  0  0  0  0  0  0  0  0
  131.0073  129.6618  151.8031 C   0  0  0  0  0  0  0  0  0  0  0  0
  130.8378  130.3695  153.1228 C   0  0  0  0  0  0  0  0  0  0  0  0
  131.4423  129.8628  154.2586 C   0  0  0  0  0  0  0  0  0  0  0  0
  131.2953  130.5096  155.4689 C   0  0  0  0  0  0  0  0  0  0  0  0
  130.5264  131.6693  155.5472 C   0  0  0  0  0  0  0  0  0  0  0  0
  130.3600  132.3660  156.8463 C   0  0  0  0  0  0  0  0  0  0  0  0
  129.8190  131.8374  157.9718 C   0  0  0  0  0  0  0  0  0  0  0  0
  129.8595  132.8185  158.9323 N   0  0  0  0  0  0  0  0  0  0  0  0
  129.5434  132.7413  159.8461 H   0  0  0  0  0  0  0  0  0  0  0  0
  130.4247  133.9190  158.3652 C   0  0  0  0  0  0  0  0  0  0  0  0
  130.6481  135.1287  159.0002 N   0  0  0  0  0  0  0  0  0  0  0  0
  130.2648  135.3011  160.4036 C   0  0  1  0  0  0  0  0  0  0  0  0
  130.5015  134.3936  160.9590 H   0  0  0  0  0  0  0  0  0  0  0  0
  131.0232  136.4627  160.9924 C   0  0  0  0  0  0  0  0  0  0  0  0
  132.2827  136.7776  160.5179 C   0  0  0  0  0  0  0  0  0  0  0  0
  132.9766  137.8457  161.0551 C   0  0  0  0  0  0  0  0  0  0  0  0
  132.4144  138.5933  162.0735 C   0  0  0  0  0  0  0  0  0  0  0  0
  133.1726  139.7548  162.6624 C   0  0  0  0  0  0  0  0  0  0  0  0
  134.0232  139.2660  163.8368 C   0  0  0  0  0  0  0  0  0  0  0  0
  131.1572  138.2752  162.5510 C   0  0  0  0  0  0  0  0  0  0  0  0
  130.4616  137.2097  162.0109 C   0  0  0  0  0  0  0  0  0  0  0  0
  128.7848  135.5717  160.4905 C   0  0  0  0  0  0  0  0  0  0  0  0
  128.0329  136.1937  159.5531 C   0  0  0  0  0  0  0  0  0  0  0  0
  126.7626  136.2357  160.0063 N   0  0  0  0  0  0  0  0  0  0  0  0
  126.0035  136.6225  159.5424 H   0  0  0  0  0  0  0  0  0  0  0  0
  126.7345  135.6273  161.2679 N   0  0  0  0  0  0  0  0  0  0  0  0
  127.9469  135.2297  161.5569 C   0  0  0  0  0  0  0  0  0  0  0  0
  128.3680  134.5246  162.8205 C   0  0  0  0  0  0  0  0  0  0  0  0
  130.7277  133.6428  157.1203 N   0  0  0  0  0  0  0  0  0  0  0  0
  131.1459  134.2544  156.4942 H   0  0  0  0  0  0  0  0  0  0  0  0
  129.9147  132.1725  154.4004 C   0  0  0  0  0  0  0  0  0  0  0  0
  130.0733  131.5206  153.1944 C   0  0  0  0  0  0  0  0  0  0  0  0
  129.9356  127.9053  152.4395 H   0  0  0  0  0  0  0  0  0  0  0  0
  128.9233  129.1376  151.6491 H   0  0  0  0  0  0  0  0  0  0  0  0
  130.0115  128.1208  150.6743 H   0  0  0  0  0  0  0  0  0  0  0  0
  131.9726  129.1573  151.7825 H   0  0  0  0  0  0  0  0  0  0  0  0
  130.9603  130.3896  150.9921 H   0  0  0  0  0  0  0  0  0  0  0  0
  132.0340  128.9613  154.1976 H   0  0  0  0  0  0  0  0  0  0  0  0
  131.7717  130.1155  156.3544 H   0  0  0  0  0  0  0  0  0  0  0  0
  129.4303  130.8367  158.0902 H   0  0  0  0  0  0  0  0  0  0  0  0
  131.0587  135.8621  158.5159 H   0  0  0  0  0  0  0  0  0  0  0  0
  132.7234  136.1912  159.7253 H   0  0  0  0  0  0  0  0  0  0  0  0
  133.9590  138.0943  160.6817 H   0  0  0  0  0  0  0  0  0  0  0  0
  133.8209  140.1890  161.9008 H   0  0  0  0  0  0  0  0  0  0  0  0
  132.4682  140.5085  163.0127 H   0  0  0  0  0  0  0  0  0  0  0  0
  134.7281  138.5121  163.4863 H   0  0  0  0  0  0  0  0  0  0  0  0
  134.5716  140.1062  164.2627 H   0  0  0  0  0  0  0  0  0  0  0  0
  133.3752  138.8316  164.5981 H   0  0  0  0  0  0  0  0  0  0  0  0
  130.7183  138.8591  163.3466 H   0  0  0  0  0  0  0  0  0  0  0  0
  129.4791  136.9612  162.3844 H   0  0  0  0  0  0  0  0  0  0  0  0
  128.3857  136.5841  158.6099 H   0  0  0  0  0  0  0  0  0  0  0  0
  128.6620  135.2622  163.5674 H   0  0  0  0  0  0  0  0  0  0  0  0
  127.5351  133.9337  163.2017 H   0  0  0  0  0  0  0  0  0  0  0  0
  129.2114  133.8681  162.6065 H   0  0  0  0  0  0  0  0  0  0  0  0
  129.3175  133.0708  154.4554 H   0  0  0  0  0  0  0  0  0  0  0  0
  129.5995  131.9094  152.3051 H   0  0  0  0  0  0  0  0  0  0  0  0
  1  2  1  0
  1 34  1  0
  1 35  1  0
  1 36  1  0
  2  3  1  0
  2 37  1  0
  2 38  1  0
  3 33  2  0
  3  4  1  0
  4  5  2  0
  4 39  1  0
  5  6  1  0
  5 40  1  0
  6  7  1  0
  6 32  2  0
  7 30  1  0
  7  8  2  0
  8  9  1  0
  8 41  1  0
  9 10  1  0
  9 11  1  0
 11 12  1  0
 11 30  2  0
 12 13  1  0
 12 42  1  0
 13 14  1  1
 13 15  1  0
 13 23  1  0
 15 22  1  0
 15 16  2  0
 16 17  1  0
 16 43  1  0
 17 18  2  0
 17 44  1  0
 18 19  1  0
 18 21  1  0
 19 20  1  0
 19 45  1  0
 19 46  1  0
 20 47  1  0
 20 48  1  0
 20 49  1  0
 21 22  2  0
 21 50  1  0
 22 51  1  0
 23 28  1  0
 23 24  2  0
 24 25  1  0
 24 52  1  0
 25 26  1  0
 25 27  1  0
 27 28  2  0
 28 29  1  0
 29 53  1  0
 29 54  1  0
 29 55  1  0
 30 31  1  0
 32 33  1  0
 32 56  1  0
 33 57  1  0
M  CHG  1  30   1
M  END
>  <DOCK_score>  (1) 
-56.352989

>  <SMILES>  (1) 
CCc1ccc(-c2c[nH]c(N[C@@H](c3ccc(CC)cc3)c3c[nH]nc3C)[nH+]2)cc1

$$$$
