CCc1ccc(-c2c[nH]c(N[C@H](Cc3c[nH]c4cc(C)ccc34)C3=CCCC3)[nH+]2)cc1
     RDKit          3D

 62 66  0  0  1  0  0  0  0  0999 V2000
  130.0221  129.3706  151.7723 C   0  0  0  0  0  0  0  0  0  0  0  0
  131.3626  129.8266  152.3524 C   0  0  0  0  0  0  0  0  0  0  0  0
  131.1254  130.5681  153.6427 C   0  0  0  0  0  0  0  0  0  0  0  0
  131.1043  129.8769  154.8407 C   0  0  0  0  0  0  0  0  0  0  0  0
  130.8931  130.5517  156.0259 C   0  0  0  0  0  0  0  0  0  0  0  0
  130.6897  131.9304  156.0131 C   0  0  0  0  0  0  0  0  0  0  0  0
  130.4568  132.6605  157.2832 C   0  0  0  0  0  0  0  0  0  0  0  0
  129.8709  132.1565  158.3975 C   0  0  0  0  0  0  0  0  0  0  0  0
  129.8569  133.1642  159.3310 N   0  0  0  0  0  0  0  0  0  0  0  0
  129.5004  133.1084  160.2313 H   0  0  0  0  0  0  0  0  0  0  0  0
  130.4352  134.2554  158.7593 C   0  0  0  0  0  0  0  0  0  0  0  0
  130.6162  135.4848  159.3695 N   0  0  0  0  0  0  0  0  0  0  0  0
  130.1676  135.6911  160.7488 C   0  0  2  0  0  0  0  0  0  0  0  0
  129.2079  135.1958  160.8965 H   0  0  0  0  0  0  0  0  0  0  0  0
  130.0148  137.1897  161.0166 C   0  0  0  0  0  0  0  0  0  0  0  0
  131.3416  137.8745  160.8123 C   0  0  0  0  0  0  0  0  0  0  0  0
  131.7992  138.4034  159.6664 C   0  0  0  0  0  0  0  0  0  0  0  0
  133.0423  138.9399  159.8642 N   0  0  0  0  0  0  0  0  0  0  0  0
  133.5747  139.3785  159.1823 H   0  0  0  0  0  0  0  0  0  0  0  0
  133.4246  138.7650  161.1752 C   0  0  0  0  0  0  0  0  0  0  0  0
  134.5639  139.1106  161.8951 C   0  0  0  0  0  0  0  0  0  0  0  0
  134.6463  138.8017  163.2349 C   0  0  0  0  0  0  0  0  0  0  0  0
  135.8798  139.1814  164.0133 C   0  0  0  0  0  0  0  0  0  0  0  0
  133.6078  138.1379  163.8739 C   0  0  0  0  0  0  0  0  0  0  0  0
  132.4820  137.7851  163.1852 C   0  0  0  0  0  0  0  0  0  0  0  0
  132.3739  138.0948  161.8279 C   0  0  0  0  0  0  0  0  0  0  0  0
  131.1834  135.1120  161.6995 C   0  0  0  0  0  0  0  0  0  0  0  0
  132.4633  135.0350  161.4552 C   0  0  0  0  0  0  0  0  0  0  0  0
  133.2013  134.4058  162.6140 C   0  0  0  0  0  0  0  0  0  0  0  0
  132.2093  134.4755  163.7981 C   0  0  0  0  0  0  0  0  0  0  0  0
  130.8532  134.5384  163.0578 C   0  0  0  0  0  0  0  0  0  0  0  0
  130.7977  133.9488  157.5376 N   0  0  0  0  0  0  0  0  0  0  0  0
  131.2372  134.5480  156.9141 H   0  0  0  0  0  0  0  0  0  0  0  0
  130.7065  132.6208  154.8024 C   0  0  0  0  0  0  0  0  0  0  0  0
  130.9241  131.9365  153.6238 C   0  0  0  0  0  0  0  0  0  0  0  0
  129.3941  130.2406  151.5812 H   0  0  0  0  0  0  0  0  0  0  0  0
  130.1938  128.8341  150.8392 H   0  0  0  0  0  0  0  0  0  0  0  0
  129.5237  128.7120  152.4836 H   0  0  0  0  0  0  0  0  0  0  0  0
  131.9906  128.9564  152.5435 H   0  0  0  0  0  0  0  0  0  0  0  0
  131.8611  130.4851  151.6411 H   0  0  0  0  0  0  0  0  0  0  0  0
  131.2572  128.8079  154.8489 H   0  0  0  0  0  0  0  0  0  0  0  0
  130.8815  130.0118  156.9613 H   0  0  0  0  0  0  0  0  0  0  0  0
  129.4882  131.1548  158.5262 H   0  0  0  0  0  0  0  0  0  0  0  0
  131.0404  136.2096  158.8839 H   0  0  0  0  0  0  0  0  0  0  0  0
  129.2802  137.6086  160.3289 H   0  0  0  0  0  0  0  0  0  0  0  0
  129.6809  137.3433  162.0427 H   0  0  0  0  0  0  0  0  0  0  0  0
  131.2650  138.4056  158.7279 H   0  0  0  0  0  0  0  0  0  0  0  0
  135.3762  139.6290  161.4074 H   0  0  0  0  0  0  0  0  0  0  0  0
  136.6063  138.3705  163.9610 H   0  0  0  0  0  0  0  0  0  0  0  0
  136.3138  140.0862  163.5877 H   0  0  0  0  0  0  0  0  0  0  0  0
  135.6112  139.3620  165.0542 H   0  0  0  0  0  0  0  0  0  0  0  0
  133.6909  137.8983  164.9238 H   0  0  0  0  0  0  0  0  0  0  0  0
  131.6780  137.2690  163.6888 H   0  0  0  0  0  0  0  0  0  0  0  0
  132.9335  135.3779  160.5454 H   0  0  0  0  0  0  0  0  0  0  0  0
  134.1057  134.9696  162.8425 H   0  0  0  0  0  0  0  0  0  0  0  0
  133.4470  133.3687  162.3850 H   0  0  0  0  0  0  0  0  0  0  0  0
  132.3726  135.3743  164.3928 H   0  0  0  0  0  0  0  0  0  0  0  0
  132.2759  133.5811  164.4175 H   0  0  0  0  0  0  0  0  0  0  0  0
  130.1611  135.1925  163.5881 H   0  0  0  0  0  0  0  0  0  0  0  0
  130.4280  133.5401  162.9552 H   0  0  0  0  0  0  0  0  0  0  0  0
  130.5492  133.6893  154.7866 H   0  0  0  0  0  0  0  0  0  0  0  0
  130.9370  132.4704  152.6852 H   0  0  0  0  0  0  0  0  0  0  0  0
  1  2  1  0
  1 36  1  0
  1 37  1  0
  1 38  1  0
  2  3  1  0
  2 39  1  0
  2 40  1  0
  3 35  2  0
  3  4  1  0
  4  5  2  0
  4 41  1  0
  5  6  1  0
  5 42  1  0
  6  7  1  0
  6 34  2  0
  7 32  1  0
  7  8  2  0
  8  9  1  0
  8 43  1  0
  9 10  1  0
  9 11  1  0
 11 12  1  0
 11 32  2  0
 12 13  1  0
 12 44  1  0
 13 14  1  6
 13 15  1  0
 13 27  1  0
 15 16  1  0
 15 45  1  0
 15 46  1  0
 16 26  1  0
 16 17  2  0
 17 18  1  0
 17 47  1  0
 18 19  1  0
 18 20  1  0
 20 26  2  0
 20 21  1  0
 21 22  2  0
 21 48  1  0
 22 23  1  0
 22 24  1  0
 23 49  1  0
 23 50  1  0
 23 51  1  0
 24 25  2  0
 24 52  1  0
 25 26  1  0
 25 53  1  0
 27 31  1  0
 27 28  2  0
 28 29  1  0
 28 54  1  0
 29 30  1  0
 29 55  1  0
 29 56  1  0
 30 31  1  0
 30 57  1  0
 30 58  1  0
 31 59  1  0
 31 60  1  0
 32 33  1  0
 34 35  1  0
 34 61  1  0
 35 62  1  0
M  CHG  1  32   1
M  END
>  <DOCK_score>  (1) 
-58.668518

>  <SMILES>  (1) 
CCc1ccc(-c2c[nH]c(N[C@H](Cc3c[nH]c4cc(C)ccc34)C3=CCCC3)[nH+]2)cc1

$$$$
