O=C1C=CC(O)(c2c[nH]c(N[C@H](c3ccccc3)c3cccc4ccccc34)[nH+]2)C=C1
     RDKit          3D

 53 57  0  0  1  0  0  0  0  0999 V2000
  130.2204  129.7265  160.4342 O   0  0  0  0  0  0  0  0  0  0  0  0
  130.0895  130.7518  159.7920 C   0  0  0  0  0  0  0  0  0  0  0  0
  131.1409  131.2100  158.8646 C   0  0  0  0  0  0  0  0  0  0  0  0
  131.1303  132.4657  158.4375 C   0  0  0  0  0  0  0  0  0  0  0  0
  130.1001  133.4635  158.8634 C   0  0  0  0  0  0  0  0  0  0  0  0
  129.6923  134.2197  157.7216 O   0  0  0  0  0  0  0  0  0  0  0  0
  130.7187  134.4003  159.8689 C   0  0  0  0  0  0  0  0  0  0  0  0
  130.3025  134.5837  161.1333 C   0  0  0  0  0  0  0  0  0  0  0  0
  131.1398  135.5180  161.6998 N   0  0  0  0  0  0  0  0  0  0  0  0
  131.0938  135.8597  162.6065 H   0  0  0  0  0  0  0  0  0  0  0  0
  132.0474  135.8678  160.7487 C   0  0  0  0  0  0  0  0  0  0  0  0
  133.0764  136.7810  160.9079 N   0  0  0  0  0  0  0  0  0  0  0  0
  132.9218  137.9044  161.8354 C   0  0  2  0  0  0  0  0  0  0  0  0
  132.7499  137.5233  162.8421 H   0  0  0  0  0  0  0  0  0  0  0  0
  131.7481  138.7488  161.4107 C   0  0  0  0  0  0  0  0  0  0  0  0
  131.0135  139.4376  162.3578 C   0  0  0  0  0  0  0  0  0  0  0  0
  129.9394  140.2153  161.9678 C   0  0  0  0  0  0  0  0  0  0  0  0
  129.5943  140.2974  160.6316 C   0  0  0  0  0  0  0  0  0  0  0  0
  130.3260  139.6048  159.6852 C   0  0  0  0  0  0  0  0  0  0  0  0
  131.4025  138.8303  160.0747 C   0  0  0  0  0  0  0  0  0  0  0  0
  134.1743  138.7424  161.8227 C   0  0  0  0  0  0  0  0  0  0  0  0
  134.1164  140.0537  161.4614 C   0  0  0  0  0  0  0  0  0  0  0  0
  135.2625  140.8458  161.4501 C   0  0  0  0  0  0  0  0  0  0  0  0
  136.4756  140.3283  161.7877 C   0  0  0  0  0  0  0  0  0  0  0  0
  136.5757  138.9773  162.1600 C   0  0  0  0  0  0  0  0  0  0  0  0
  137.8105  138.4077  162.5151 C   0  0  0  0  0  0  0  0  0  0  0  0
  137.8693  137.0951  162.8698 C   0  0  0  0  0  0  0  0  0  0  0  0
  136.7219  136.3042  162.8870 C   0  0  0  0  0  0  0  0  0  0  0  0
  135.5091  136.8214  162.5499 C   0  0  0  0  0  0  0  0  0  0  0  0
  135.4086  138.1730  162.1780 C   0  0  0  0  0  0  0  0  0  0  0  0
  131.7812  135.1947  159.6545 N   0  0  0  0  0  0  0  0  0  0  0  0
  132.2761  135.2576  158.8226 H   0  0  0  0  0  0  0  0  0  0  0  0
  128.8924  132.8281  159.4766 C   0  0  0  0  0  0  0  0  0  0  0  0
  128.8743  131.5785  159.9150 C   0  0  0  0  0  0  0  0  0  0  0  0
  131.9125  130.5294  158.5367 H   0  0  0  0  0  0  0  0  0  0  0  0
  131.9013  132.7826  157.7507 H   0  0  0  0  0  0  0  0  0  0  0  0
  130.4153  134.6860  157.2800 H   0  0  0  0  0  0  0  0  0  0  0  0
  129.4694  134.0920  161.6135 H   0  0  0  0  0  0  0  0  0  0  0  0
  133.8993  136.6769  160.4052 H   0  0  0  0  0  0  0  0  0  0  0  0
  131.2808  139.3705  163.4020 H   0  0  0  0  0  0  0  0  0  0  0  0
  129.3675  140.7560  162.7074 H   0  0  0  0  0  0  0  0  0  0  0  0
  128.7530  140.9023  160.3274 H   0  0  0  0  0  0  0  0  0  0  0  0
  130.0562  139.6688  158.6414 H   0  0  0  0  0  0  0  0  0  0  0  0
  131.9741  138.2889  159.3352 H   0  0  0  0  0  0  0  0  0  0  0  0
  133.1671  140.4876  161.1844 H   0  0  0  0  0  0  0  0  0  0  0  0
  135.1884  141.8847  161.1643 H   0  0  0  0  0  0  0  0  0  0  0  0
  137.3562  140.9532  161.7698 H   0  0  0  0  0  0  0  0  0  0  0  0
  138.7080  139.0083  162.5067 H   0  0  0  0  0  0  0  0  0  0  0  0
  138.8196  136.6598  163.1418 H   0  0  0  0  0  0  0  0  0  0  0  0
  136.7963  135.2652  163.1723 H   0  0  0  0  0  0  0  0  0  0  0  0
  134.6284  136.1966  162.5684 H   0  0  0  0  0  0  0  0  0  0  0  0
  127.9908  133.4157  159.5665 H   0  0  0  0  0  0  0  0  0  0  0  0
  127.9792  131.1687  160.3592 H   0  0  0  0  0  0  0  0  0  0  0  0
  1  2  2  0
  2 34  1  0
  2  3  1  0
  3  4  2  0
  3 35  1  0
  4  5  1  0
  4 36  1  0
  5  6  1  0
  5  7  1  0
  5 33  1  0
  6 37  1  0
  7 31  1  0
  7  8  2  0
  8  9  1  0
  8 38  1  0
  9 10  1  0
  9 11  1  0
 11 12  1  0
 11 31  2  0
 12 13  1  0
 12 39  1  0
 13 14  1  1
 13 15  1  0
 13 21  1  0
 15 20  1  0
 15 16  2  0
 16 17  1  0
 16 40  1  0
 17 18  2  0
 17 41  1  0
 18 19  1  0
 18 42  1  0
 19 20  2  0
 19 43  1  0
 20 44  1  0
 21 30  1  0
 21 22  2  0
 22 23  1  0
 22 45  1  0
 23 24  2  0
 23 46  1  0
 24 25  1  0
 24 47  1  0
 25 30  2  0
 25 26  1  0
 26 27  2  0
 26 48  1  0
 27 28  1  0
 27 49  1  0
 28 29  2  0
 28 50  1  0
 29 30  1  0
 29 51  1  0
 31 32  1  0
 33 34  2  0
 33 52  1  0
 34 53  1  0
M  CHG  1  31   1
M  END
>  <DOCK_score>  (1) 
-56.074528

>  <SMILES>  (1) 
O=C1C=CC(O)(c2c[nH]c(N[C@H](c3ccccc3)c3cccc4ccccc34)[nH+]2)C=C1

$$$$
