C[C@](O)(CC(Nc1[nH]cc(-c2ccc(N)cc2)[nH+]1)c1ccc(F)cc1)c1nc2ccncc2[nH]1
     RDKit          3D

 59 63  0  0  1  0  0  0  0  0999 V2000
  132.9107  135.4882  160.2219 C   0  0  0  0  0  0  0  0  0  0  0  0
  132.0233  135.7218  161.4462 C   0  0  2  0  0  0  0  0  0  0  0  0
  132.2372  134.6761  162.3962 O   0  0  0  0  0  0  0  0  0  0  0  0
  130.5545  135.7288  161.0176 C   0  0  0  0  0  0  0  0  0  0  0  0
  130.2024  134.3823  160.3819 C   0  0  2  0  0  0  0  0  0  0  0  0
  130.6731  134.3592  158.9948 N   0  0  0  0  0  0  0  0  0  0  0  0
  130.4666  133.2358  158.2124 C   0  0  0  0  0  0  0  0  0  0  0  0
  129.8481  132.0925  158.6147 N   0  0  0  0  0  0  0  0  0  0  0  0
  129.4757  131.9193  159.4935 H   0  0  0  0  0  0  0  0  0  0  0  0
  129.8453  131.2297  157.5444 C   0  0  0  0  0  0  0  0  0  0  0  0
  130.4698  131.8673  156.5237 C   0  0  0  0  0  0  0  0  0  0  0  0
  130.7063  131.3185  155.1659 C   0  0  0  0  0  0  0  0  0  0  0  0
  130.1705  131.9603  154.0504 C   0  0  0  0  0  0  0  0  0  0  0  0
  130.3965  131.4516  152.7888 C   0  0  0  0  0  0  0  0  0  0  0  0
  131.1477  130.2935  152.6297 C   0  0  0  0  0  0  0  0  0  0  0  0
  131.3702  129.7770  151.3509 N   0  0  0  0  0  0  0  0  0  0  0  0
  131.6786  129.6488  153.7409 C   0  0  0  0  0  0  0  0  0  0  0  0
  131.4601  130.1570  155.0039 C   0  0  0  0  0  0  0  0  0  0  0  0
  130.8398  133.0961  156.9636 N   0  0  0  0  0  0  0  0  0  0  0  0
  131.3063  133.7646  156.4379 H   0  0  0  0  0  0  0  0  0  0  0  0
  128.7079  134.1898  160.4085 C   0  0  0  0  0  0  0  0  0  0  0  0
  128.1108  133.5682  161.4892 C   0  0  0  0  0  0  0  0  0  0  0  0
  126.7399  133.3962  161.5172 C   0  0  0  0  0  0  0  0  0  0  0  0
  125.9656  133.8364  160.4570 C   0  0  0  0  0  0  0  0  0  0  0  0
  124.6259  133.6631  160.4803 F   0  0  0  0  0  0  0  0  0  0  0  0
  126.5654  134.4538  159.3726 C   0  0  0  0  0  0  0  0  0  0  0  0
  127.9359  134.6301  159.3495 C   0  0  0  0  0  0  0  0  0  0  0  0
  132.3700  137.0480  162.0724 C   0  0  0  0  0  0  0  0  0  0  0  0
  131.5411  138.0420  162.2218 N   0  0  0  0  0  0  0  0  0  0  0  0
  132.1757  139.0771  162.8179 C   0  0  0  0  0  0  0  0  0  0  0  0
  131.8015  140.3652  163.2179 C   0  0  0  0  0  0  0  0  0  0  0  0
  132.7346  141.1681  163.8103 C   0  0  0  0  0  0  0  0  0  0  0  0
  133.9744  140.7541  164.0112 N   0  0  0  0  0  0  0  0  0  0  0  0
  134.3828  139.5522  163.6548 C   0  0  0  0  0  0  0  0  0  0  0  0
  133.5044  138.6692  163.0473 C   0  0  0  0  0  0  0  0  0  0  0  0
  133.5930  137.3808  162.5637 N   0  0  0  0  0  0  0  0  0  0  0  0
  134.3818  136.8163  162.5726 H   0  0  0  0  0  0  0  0  0  0  0  0
  133.9542  135.4406  160.5334 H   0  0  0  0  0  0  0  0  0  0  0  0
  132.6309  134.5492  159.7442 H   0  0  0  0  0  0  0  0  0  0  0  0
  132.7793  136.3083  159.5162 H   0  0  0  0  0  0  0  0  0  0  0  0
  131.7059  134.7599  163.1998 H   0  0  0  0  0  0  0  0  0  0  0  0
  129.9223  135.8952  161.8898 H   0  0  0  0  0  0  0  0  0  0  0  0
  130.3912  136.5264  160.2928 H   0  0  0  0  0  0  0  0  0  0  0  0
  130.6821  133.5795  160.9419 H   0  0  0  0  0  0  0  0  0  0  0  0
  131.1295  135.1309  158.6245 H   0  0  0  0  0  0  0  0  0  0  0  0
  129.4289  130.2334  157.5221 H   0  0  0  0  0  0  0  0  0  0  0  0
  129.5822  132.8576  154.1739 H   0  0  0  0  0  0  0  0  0  0  0  0
  129.9852  131.9509  151.9241 H   0  0  0  0  0  0  0  0  0  0  0  0
  131.8947  128.9680  151.2394 H   0  0  0  0  0  0  0  0  0  0  0  0
  131.0001  130.2254  150.5753 H   0  0  0  0  0  0  0  0  0  0  0  0
  132.2625  128.7489  153.6149 H   0  0  0  0  0  0  0  0  0  0  0  0
  131.8728  129.6559  155.8670 H   0  0  0  0  0  0  0  0  0  0  0  0
  128.7153  133.2204  162.3138 H   0  0  0  0  0  0  0  0  0  0  0  0
  126.2730  132.9142  162.3635 H   0  0  0  0  0  0  0  0  0  0  0  0
  125.9626  134.7971  158.5449 H   0  0  0  0  0  0  0  0  0  0  0  0
  128.4040  135.1117  158.5038 H   0  0  0  0  0  0  0  0  0  0  0  0
  130.7930  140.7182  163.0607 H   0  0  0  0  0  0  0  0  0  0  0  0
  132.4547  142.1649  164.1175 H   0  0  0  0  0  0  0  0  0  0  0  0
  135.4048  139.2547  163.8375 H   0  0  0  0  0  0  0  0  0  0  0  0
  1  2  1  0
  1 38  1  0
  1 39  1  0
  1 40  1  0
  2  3  1  1
  2  4  1  0
  2 28  1  0
  3 41  1  0
  4  5  1  0
  4 42  1  0
  4 43  1  0
  5  6  1  0
  5 21  1  0
  5 44  1  1
  6 45  1  0
  7  6  1  0
  7 19  2  0
  7  8  1  0
  8  9  1  0
  8 10  1  0
 10 11  2  0
 10 46  1  0
 11 12  1  0
 11 19  1  0
 12 18  1  0
 12 13  2  0
 13 14  1  0
 13 47  1  0
 14 15  2  0
 14 48  1  0
 15 16  1  0
 15 17  1  0
 16 49  1  0
 16 50  1  0
 17 18  2  0
 17 51  1  0
 18 52  1  0
 19 20  1  0
 21 27  1  0
 21 22  2  0
 22 23  1  0
 22 53  1  0
 23 24  2  0
 23 54  1  0
 24 25  1  0
 24 26  1  0
 26 27  2  0
 26 55  1  0
 27 56  1  0
 28 36  1  0
 28 29  2  0
 29 30  1  0
 30 35  2  0
 30 31  1  0
 31 32  2  0
 31 57  1  0
 32 33  1  0
 32 58  1  0
 33 34  2  0
 34 35  1  0
 34 59  1  0
 35 36  1  0
 36 37  1  0
M  CHG  1  19   1
M  END
>  <DOCK_score>  (1) 
-57.33321

>  <SMILES>  (1) 
C[C@](O)(CC(Nc1[nH]cc(-c2ccc(N)cc2)[nH+]1)c1ccc(F)cc1)c1nc2ccncc2[nH]1

$$$$
