OCc1cc(NC[C@@H]2CC2(F)F)cc(Nc2[nH]c3ccccc3[nH+]2)c1Cl
     RDKit          3D

 44 47  0  0  1  0  0  0  0  0999 V2000
  125.3885  135.5949  162.8728 O   0  0  0  0  0  0  0  0  0  0  0  0
  125.8194  135.0829  161.6101 C   0  0  0  0  0  0  0  0  0  0  0  0
  127.1488  135.6934  161.2479 C   0  0  0  0  0  0  0  0  0  0  0  0
  127.7475  136.5996  162.1026 C   0  0  0  0  0  0  0  0  0  0  0  0
  128.9731  137.1636  161.7720 C   0  0  0  0  0  0  0  0  0  0  0  0
  129.5779  138.0790  162.6372 N   0  0  0  0  0  0  0  0  0  0  0  0
  128.7743  138.7768  163.6439 C   0  0  0  0  0  0  0  0  0  0  0  0
  129.3854  140.1518  163.9210 C   0  0  2  0  0  0  0  0  0  0  0  0
  130.4086  140.1444  164.2964 H   0  0  0  0  0  0  0  0  0  0  0  0
  128.4516  141.2490  164.4360 C   0  0  0  0  0  0  0  0  0  0  0  0
  128.9790  141.3040  163.0001 C   0  0  0  0  0  0  0  0  0  0  0  0
  129.9490  142.2677  162.7047 F   0  0  0  0  0  0  0  0  0  0  0  0
  128.0771  141.0196  161.9690 F   0  0  0  0  0  0  0  0  0  0  0  0
  129.5990  136.8131  160.5835 C   0  0  0  0  0  0  0  0  0  0  0  0
  128.9932  135.9081  159.7245 C   0  0  0  0  0  0  0  0  0  0  0  0
  129.6182  135.5567  158.5231 N   0  0  0  0  0  0  0  0  0  0  0  0
  129.9537  134.2443  158.2800 C   0  0  0  0  0  0  0  0  0  0  0  0
  129.7305  133.2327  159.1163 N   0  0  0  0  0  0  0  0  0  0  0  0
  129.3091  133.2995  159.9874 H   0  0  0  0  0  0  0  0  0  0  0  0
  130.1968  132.0816  158.5383 C   0  0  0  0  0  0  0  0  0  0  0  0
  130.2374  130.7498  158.9411 C   0  0  0  0  0  0  0  0  0  0  0  0
  130.7855  129.7988  158.1080 C   0  0  0  0  0  0  0  0  0  0  0  0
  131.3060  130.1604  156.8740 C   0  0  0  0  0  0  0  0  0  0  0  0
  131.2778  131.4751  156.4617 C   0  0  0  0  0  0  0  0  0  0  0  0
  130.7235  132.4478  157.2887 C   0  0  0  0  0  0  0  0  0  0  0  0
  130.5489  133.8017  157.1746 N   0  0  0  0  0  0  0  0  0  0  0  0
  130.8136  134.3456  156.4163 H   0  0  0  0  0  0  0  0  0  0  0  0
  127.7667  135.3461  160.0615 C   0  0  0  0  0  0  0  0  0  0  0  0
  127.0109  134.2078  158.9907 Cl  0  0  0  0  0  0  0  0  0  0  0  0
  125.2758  136.5552  162.8900 H   0  0  0  0  0  0  0  0  0  0  0  0
  125.0840  135.3344  160.8459 H   0  0  0  0  0  0  0  0  0  0  0  0
  125.9221  133.9996  161.6732 H   0  0  0  0  0  0  0  0  0  0  0  0
  127.2620  136.8692  163.0289 H   0  0  0  0  0  0  0  0  0  0  0  0
  130.5301  138.2523  162.5714 H   0  0  0  0  0  0  0  0  0  0  0  0
  127.7560  138.8994  163.2747 H   0  0  0  0  0  0  0  0  0  0  0  0
  128.7590  138.1936  164.5646 H   0  0  0  0  0  0  0  0  0  0  0  0
  127.4021  140.9912  164.5775 H   0  0  0  0  0  0  0  0  0  0  0  0
  128.8607  141.9635  165.1504 H   0  0  0  0  0  0  0  0  0  0  0  0
  130.5540  137.2474  160.3264 H   0  0  0  0  0  0  0  0  0  0  0  0
  129.8150  136.2382  157.8615 H   0  0  0  0  0  0  0  0  0  0  0  0
  129.8346  130.4618  159.9008 H   0  0  0  0  0  0  0  0  0  0  0  0
  130.8133  128.7651  158.4196 H   0  0  0  0  0  0  0  0  0  0  0  0
  131.7363  129.4062  156.2318 H   0  0  0  0  0  0  0  0  0  0  0  0
  131.6848  131.7497  155.4998 H   0  0  0  0  0  0  0  0  0  0  0  0
  1  2  1  0
  1 30  1  0
  2  3  1  0
  2 31  1  0
  2 32  1  0
  3 28  2  0
  3  4  1  0
  4  5  2  0
  4 33  1  0
  5  6  1  0
  5 14  1  0
  6  7  1  0
  6 34  1  0
  7  8  1  0
  7 35  1  0
  7 36  1  0
  8  9  1  1
  8 11  1  0
  8 10  1  0
 10 11  1  0
 10 37  1  0
 10 38  1  0
 11 12  1  0
 11 13  1  0
 14 15  2  0
 14 39  1  0
 15 16  1  0
 15 28  1  0
 16 17  1  0
 16 40  1  0
 17 26  1  0
 17 18  2  0
 18 19  1  0
 18 20  1  0
 20 25  2  0
 20 21  1  0
 21 22  2  0
 21 41  1  0
 22 23  1  0
 22 42  1  0
 23 24  2  0
 23 43  1  0
 24 25  1  0
 24 44  1  0
 25 26  1  0
 26 27  1  0
 28 29  1  0
M  CHG  1  18   1
M  END
>  <DOCK_score>  (1) 
-46.847214

>  <SMILES>  (1) 
OCc1cc(NC[C@@H]2CC2(F)F)cc(Nc2[nH]c3ccccc3[nH+]2)c1Cl

$$$$
