Nc1ccc(-c2c[nH]c(NCCC[C@@H]3CC=C(CCc4c[nH]c5ccccc45)CC3)[nH+]2)cc1
     RDKit          3D

 67 71  0  0  1  0  0  0  0  0999 V2000
  131.4516  129.3683  151.7877 N   0  0  0  0  0  0  0  0  0  0  0  0
  131.1258  130.0873  152.9402 C   0  0  0  0  0  0  0  0  0  0  0  0
  130.3164  131.2134  152.8501 C   0  0  0  0  0  0  0  0  0  0  0  0
  129.9888  131.9212  153.9872 C   0  0  0  0  0  0  0  0  0  0  0  0
  130.4794  131.5129  155.2266 C   0  0  0  0  0  0  0  0  0  0  0  0
  130.1333  132.2764  156.4506 C   0  0  0  0  0  0  0  0  0  0  0  0
  129.4822  131.7908  157.5363 C   0  0  0  0  0  0  0  0  0  0  0  0
  129.3716  132.8281  158.4317 N   0  0  0  0  0  0  0  0  0  0  0  0
  128.9523  132.7907  159.3056 H   0  0  0  0  0  0  0  0  0  0  0  0
  129.9590  133.9171  157.8655 C   0  0  0  0  0  0  0  0  0  0  0  0
  130.0606  135.1708  158.4441 N   0  0  0  0  0  0  0  0  0  0  0  0
  129.5072  135.4082  159.7796 C   0  0  0  0  0  0  0  0  0  0  0  0
  130.3239  136.4930  160.4847 C   0  0  0  0  0  0  0  0  0  0  0  0
  131.7787  136.0360  160.6093 C   0  0  0  0  0  0  0  0  0  0  0  0
  132.5954  137.1209  161.3143 C   0  0  2  0  0  0  0  0  0  0  0  0
  132.2829  138.1032  160.9598 H   0  0  0  0  0  0  0  0  0  0  0  0
  134.0833  136.9173  161.0204 C   0  0  0  0  0  0  0  0  0  0  0  0
  134.9106  137.7975  161.9125 C   0  0  0  0  0  0  0  0  0  0  0  0
  134.4664  138.3646  162.9880 C   0  0  0  0  0  0  0  0  0  0  0  0
  135.4214  139.2166  163.7836 C   0  0  0  0  0  0  0  0  0  0  0  0
  134.8847  140.6472  163.8620 C   0  0  0  0  0  0  0  0  0  0  0  0
  135.8397  141.4993  164.6576 C   0  0  0  0  0  0  0  0  0  0  0  0
  136.8741  142.2045  164.1731 C   0  0  0  0  0  0  0  0  0  0  0  0
  137.5136  142.8548  165.1931 N   0  0  0  0  0  0  0  0  0  0  0  0
  138.2904  143.4264  165.0891 H   0  0  0  0  0  0  0  0  0  0  0  0
  136.8906  142.5767  166.3890 C   0  0  0  0  0  0  0  0  0  0  0  0
  137.1235  142.9671  167.7039 C   0  0  0  0  0  0  0  0  0  0  0  0
  136.2929  142.5201  168.7077 C   0  0  0  0  0  0  0  0  0  0  0  0
  135.2314  141.6716  168.4231 C   0  0  0  0  0  0  0  0  0  0  0  0
  134.9872  141.2721  167.1397 C   0  0  0  0  0  0  0  0  0  0  0  0
  135.8116  141.7199  166.1054 C   0  0  0  0  0  0  0  0  0  0  0  0
  133.0596  138.2262  163.4920 C   0  0  0  0  0  0  0  0  0  0  0  0
  132.3782  137.0267  162.8299 C   0  0  0  0  0  0  0  0  0  0  0  0
  130.4174  133.5822  156.6840 N   0  0  0  0  0  0  0  0  0  0  0  0
  130.8835  134.1741  156.0732 H   0  0  0  0  0  0  0  0  0  0  0  0
  131.2951  130.3859  155.3141 C   0  0  0  0  0  0  0  0  0  0  0  0
  131.6151  129.6775  154.1751 C   0  0  0  0  0  0  0  0  0  0  0  0
  132.0189  128.5837  151.8496 H   0  0  0  0  0  0  0  0  0  0  0  0
  131.1066  129.6505  150.9263 H   0  0  0  0  0  0  0  0  0  0  0  0
  129.9408  131.5323  151.8890 H   0  0  0  0  0  0  0  0  0  0  0  0
  129.3567  132.7941  153.9171 H   0  0  0  0  0  0  0  0  0  0  0  0
  129.1196  130.7825  157.6716 H   0  0  0  0  0  0  0  0  0  0  0  0
  130.4981  135.8920  157.9652 H   0  0  0  0  0  0  0  0  0  0  0  0
  128.4709  135.7337  159.6909 H   0  0  0  0  0  0  0  0  0  0  0  0
  129.5501  134.4864  160.3598 H   0  0  0  0  0  0  0  0  0  0  0  0
  130.2810  137.4149  159.9045 H   0  0  0  0  0  0  0  0  0  0  0  0
  129.9121  136.6697  161.4783 H   0  0  0  0  0  0  0  0  0  0  0  0
  131.8217  135.1143  161.1894 H   0  0  0  0  0  0  0  0  0  0  0  0
  132.1905  135.8595  159.6156 H   0  0  0  0  0  0  0  0  0  0  0  0
  134.3476  135.8751  161.2000 H   0  0  0  0  0  0  0  0  0  0  0  0
  134.2827  137.1640  159.9777 H   0  0  0  0  0  0  0  0  0  0  0  0
  135.9404  137.9705  161.6371 H   0  0  0  0  0  0  0  0  0  0  0  0
  135.5194  138.8097  164.7900 H   0  0  0  0  0  0  0  0  0  0  0  0
  136.3966  139.2207  163.2968 H   0  0  0  0  0  0  0  0  0  0  0  0
  134.7867  141.0542  162.8556 H   0  0  0  0  0  0  0  0  0  0  0  0
  133.9093  140.6432  164.3488 H   0  0  0  0  0  0  0  0  0  0  0  0
  137.1596  142.2513  163.1326 H   0  0  0  0  0  0  0  0  0  0  0  0
  137.9458  143.6280  167.9353 H   0  0  0  0  0  0  0  0  0  0  0  0
  136.4731  142.8272  169.7273 H   0  0  0  0  0  0  0  0  0  0  0  0
  134.5936  141.3249  169.2227 H   0  0  0  0  0  0  0  0  0  0  0  0
  134.1592  140.6125  166.9256 H   0  0  0  0  0  0  0  0  0  0  0  0
  132.5014  139.1328  163.2588 H   0  0  0  0  0  0  0  0  0  0  0  0
  133.0777  138.0807  164.5721 H   0  0  0  0  0  0  0  0  0  0  0  0
  131.3107  137.0448  163.0489 H   0  0  0  0  0  0  0  0  0  0  0  0
  132.8169  136.1024  163.2061 H   0  0  0  0  0  0  0  0  0  0  0  0
  131.6767  130.0681  156.2731 H   0  0  0  0  0  0  0  0  0  0  0  0
  132.2472  128.8044  154.2424 H   0  0  0  0  0  0  0  0  0  0  0  0
  1  2  1  0
  1 38  1  0
  1 39  1  0
  2 37  2  0
  2  3  1  0
  3  4  2  0
  3 40  1  0
  4  5  1  0
  4 41  1  0
  5  6  1  0
  5 36  2  0
  6 34  1  0
  6  7  2  0
  7  8  1  0
  7 42  1  0
  8  9  1  0
  8 10  1  0
 10 11  1  0
 10 34  2  0
 11 12  1  0
 11 43  1  0
 12 13  1  0
 12 44  1  0
 12 45  1  0
 13 14  1  0
 13 46  1  0
 13 47  1  0
 14 15  1  0
 14 48  1  0
 14 49  1  0
 15 16  1  6
 15 33  1  0
 15 17  1  0
 17 18  1  0
 17 50  1  0
 17 51  1  0
 18 19  2  0
 18 52  1  0
 19 20  1  0
 19 32  1  0
 20 21  1  0
 20 53  1  0
 20 54  1  0
 21 22  1  0
 21 55  1  0
 21 56  1  0
 22 31  1  0
 22 23  2  0
 23 24  1  0
 23 57  1  0
 24 25  1  0
 24 26  1  0
 26 31  2  0
 26 27  1  0
 27 28  2  0
 27 58  1  0
 28 29  1  0
 28 59  1  0
 29 30  2  0
 29 60  1  0
 30 31  1  0
 30 61  1  0
 32 33  1  0
 32 62  1  0
 32 63  1  0
 33 64  1  0
 33 65  1  0
 34 35  1  0
 36 37  1  0
 36 66  1  0
 37 67  1  0
M  CHG  1  34   1
M  END
>  <DOCK_score>  (1) 
-61.509159

>  <SMILES>  (1) 
Nc1ccc(-c2c[nH]c(NCCC[C@@H]3CC=C(CCc4c[nH]c5ccccc45)CC3)[nH+]2)cc1

$$$$
