c1ccc(CC(Cc2ccccc2)Nc2[nH]cc(CCc3nc4cccnc4[nH]3)[nH+]2)cc1
     RDKit          3D

 59 63  0  0  1  0  0  0  0  0999 V2000
  130.8920  131.1927  160.3719 C   0  0  0  0  0  0  0  0  0  0  0  0
  130.9949  131.6440  161.6745 C   0  0  0  0  0  0  0  0  0  0  0  0
  131.6096  132.8533  161.9404 C   0  0  0  0  0  0  0  0  0  0  0  0
  132.1211  133.6113  160.9039 C   0  0  0  0  0  0  0  0  0  0  0  0
  132.7908  134.9299  161.1936 C   0  0  0  0  0  0  0  0  0  0  0  0
  131.7476  136.0487  161.1649 C   0  0  0  0  0  0  0  0  0  0  0  0
  132.4274  137.3875  161.4593 C   0  0  0  0  0  0  0  0  0  0  0  0
  131.4000  138.4896  161.4310 C   0  0  0  0  0  0  0  0  0  0  0  0
  131.1324  139.1549  160.2492 C   0  0  0  0  0  0  0  0  0  0  0  0
  130.1864  140.1626  160.2223 C   0  0  0  0  0  0  0  0  0  0  0  0
  129.5156  140.5120  161.3794 C   0  0  0  0  0  0  0  0  0  0  0  0
  129.7870  139.8503  162.5623 C   0  0  0  0  0  0  0  0  0  0  0  0
  130.7293  138.8390  162.5882 C   0  0  0  0  0  0  0  0  0  0  0  0
  131.1221  136.0994  159.8411 N   0  0  0  0  0  0  0  0  0  0  0  0
  129.9865  135.3497  159.5827 C   0  0  0  0  0  0  0  0  0  0  0  0
  129.3092  135.3125  158.4038 N   0  0  0  0  0  0  0  0  0  0  0  0
  129.5302  135.8015  157.5957 H   0  0  0  0  0  0  0  0  0  0  0  0
  128.2519  134.4474  158.5738 C   0  0  0  0  0  0  0  0  0  0  0  0
  128.3139  133.9969  159.8383 C   0  0  0  0  0  0  0  0  0  0  0  0
  127.3534  133.0276  160.4779 C   0  0  0  0  0  0  0  0  0  0  0  0
  126.2039  133.8016  161.1262 C   0  0  0  0  0  0  0  0  0  0  0  0
  126.7538  134.7310  162.1773 C   0  0  0  0  0  0  0  0  0  0  0  0
  127.6468  134.4063  163.0660 N   0  0  0  0  0  0  0  0  0  0  0  0
  127.9150  135.4796  163.8514 C   0  0  0  0  0  0  0  0  0  0  0  0
  128.7709  135.6974  164.9356 C   0  0  0  0  0  0  0  0  0  0  0  0
  128.7822  136.9514  165.5157 C   0  0  0  0  0  0  0  0  0  0  0  0
  127.9560  137.9447  165.0133 C   0  0  0  0  0  0  0  0  0  0  0  0
  127.1573  137.7195  163.9909 N   0  0  0  0  0  0  0  0  0  0  0  0
  127.1065  136.5370  163.3983 C   0  0  0  0  0  0  0  0  0  0  0  0
  126.3844  136.0311  162.3391 N   0  0  0  0  0  0  0  0  0  0  0  0
  125.7327  136.5131  161.8063 H   0  0  0  0  0  0  0  0  0  0  0  0
  129.3784  134.5594  160.4354 N   0  0  0  0  0  0  0  0  0  0  0  0
  129.6537  134.4056  161.3527 H   0  0  0  0  0  0  0  0  0  0  0  0
  132.0134  133.1625  159.6008 C   0  0  0  0  0  0  0  0  0  0  0  0
  131.4036  131.9506  159.3354 C   0  0  0  0  0  0  0  0  0  0  0  0
  130.4115  130.2479  160.1642 H   0  0  0  0  0  0  0  0  0  0  0  0
  130.5950  131.0518  162.4844 H   0  0  0  0  0  0  0  0  0  0  0  0
  131.6897  133.2060  162.9580 H   0  0  0  0  0  0  0  0  0  0  0  0
  133.5527  135.1240  160.4388 H   0  0  0  0  0  0  0  0  0  0  0  0
  133.2562  134.8924  162.1786 H   0  0  0  0  0  0  0  0  0  0  0  0
  130.9856  135.8547  161.9196 H   0  0  0  0  0  0  0  0  0  0  0  0
  132.8928  137.3498  162.4442 H   0  0  0  0  0  0  0  0  0  0  0  0
  133.1894  137.5818  160.7044 H   0  0  0  0  0  0  0  0  0  0  0  0
  131.6596  138.8849  159.3462 H   0  0  0  0  0  0  0  0  0  0  0  0
  129.9746  140.6798  159.2981 H   0  0  0  0  0  0  0  0  0  0  0  0
  128.7798  141.3023  161.3592 H   0  0  0  0  0  0  0  0  0  0  0  0
  129.2632  140.1235  163.4663 H   0  0  0  0  0  0  0  0  0  0  0  0
  130.9415  138.3223  163.5124 H   0  0  0  0  0  0  0  0  0  0  0  0
  131.5054  136.6548  159.1445 H   0  0  0  0  0  0  0  0  0  0  0  0
  127.5115  134.1837  157.8331 H   0  0  0  0  0  0  0  0  0  0  0  0
  126.9556  132.3554  159.7177 H   0  0  0  0  0  0  0  0  0  0  0  0
  127.8755  132.4475  161.2388 H   0  0  0  0  0  0  0  0  0  0  0  0
  125.6816  134.3817  160.3654 H   0  0  0  0  0  0  0  0  0  0  0  0
  125.5092  133.1004  161.5888 H   0  0  0  0  0  0  0  0  0  0  0  0
  129.4056  134.9075  165.3090 H   0  0  0  0  0  0  0  0  0  0  0  0
  129.4307  137.1564  166.3546 H   0  0  0  0  0  0  0  0  0  0  0  0
  127.9680  138.9236  165.4695 H   0  0  0  0  0  0  0  0  0  0  0  0
  132.4091  133.7568  158.7905 H   0  0  0  0  0  0  0  0  0  0  0  0
  131.3228  131.5983  158.3176 H   0  0  0  0  0  0  0  0  0  0  0  0
  1 35  2  0
  1  2  1  0
  1 36  1  0
  2  3  2  0
  2 37  1  0
  3  4  1  0
  3 38  1  0
  4  5  1  0
  4 34  2  0
  5  6  1  0
  5 39  1  0
  5 40  1  0
  6  7  1  0
  6 14  1  0
  6 41  1  0
  7  8  1  0
  7 42  1  0
  7 43  1  0
  8 13  1  0
  8  9  2  0
  9 10  1  0
  9 44  1  0
 10 11  2  0
 10 45  1  0
 11 12  1  0
 11 46  1  0
 12 13  2  0
 12 47  1  0
 13 48  1  0
 14 49  1  0
 15 14  1  0
 15 32  2  0
 15 16  1  0
 16 17  1  0
 16 18  1  0
 18 19  2  0
 18 50  1  0
 19 20  1  0
 19 32  1  0
 20 21  1  0
 20 51  1  0
 20 52  1  0
 21 22  1  0
 21 53  1  0
 21 54  1  0
 22 30  1  0
 22 23  2  0
 23 24  1  0
 24 29  2  0
 24 25  1  0
 25 26  2  0
 25 55  1  0
 26 27  1  0
 26 56  1  0
 27 28  2  0
 27 57  1  0
 28 29  1  0
 29 30  1  0
 30 31  1  0
 32 33  1  0
 34 35  1  0
 34 58  1  0
 35 59  1  0
M  CHG  1  32   1
M  END
>  <DOCK_score>  (1) 
-47.548168

>  <SMILES>  (1) 
c1ccc(CC(Cc2ccccc2)Nc2[nH]cc(CCc3nc4cccnc4[nH]3)[nH+]2)cc1

$$$$
