CC[N@@H+](Cc1cccs1)Cc1c[nH]nc1C1=Cc2ccccc2C1
     RDKit          3D

 46 49  0  0  1  0  0  0  0  0999 V2000
  132.6446  134.1755  159.7843 C   0  0  0  0  0  0  0  0  0  0  0  0
  131.5072  133.4685  159.0445 C   0  0  0  0  0  0  0  0  0  0  0  0
  130.2708  134.2490  159.1870 N   0  0  1  0  0  0  0  0  0  0  0  0
  130.4065  135.1687  158.7948 H   0  0  0  0  0  0  0  0  0  0  0  0
  129.1786  133.5700  158.4767 C   0  0  0  0  0  0  0  0  0  0  0  0
  129.6961  133.0106  157.1766 C   0  0  0  0  0  0  0  0  0  0  0  0
  129.7076  133.6590  156.0109 C   0  0  0  0  0  0  0  0  0  0  0  0
  130.2335  132.9422  154.9500 C   0  0  0  0  0  0  0  0  0  0  0  0
  130.6442  131.7099  155.2528 C   0  0  0  0  0  0  0  0  0  0  0  0
  130.3787  131.4036  156.9644 S   0  0  0  0  0  0  0  0  0  0  0  0
  129.9289  134.3693  160.6106 C   0  0  0  0  0  0  0  0  0  0  0  0
  128.6606  135.1699  160.7567 C   0  0  0  0  0  0  0  0  0  0  0  0
  127.4048  134.6754  160.7645 C   0  0  0  0  0  0  0  0  0  0  0  0
  126.5485  135.7089  160.9192 N   0  0  0  0  0  0  0  0  0  0  0  0
  125.5816  135.6448  160.9620 H   0  0  0  0  0  0  0  0  0  0  0  0
  127.2977  136.8895  161.0011 N   0  0  0  0  0  0  0  0  0  0  0  0
  128.5744  136.5713  160.9036 C   0  0  0  0  0  0  0  0  0  0  0  0
  129.7091  137.5119  160.9418 C   0  0  0  0  0  0  0  0  0  0  0  0
  130.6085  137.6991  159.9682 C   0  0  0  0  0  0  0  0  0  0  0  0
  131.5970  138.7162  160.3570 C   0  0  0  0  0  0  0  0  0  0  0  0
  132.7066  139.2427  159.6864 C   0  0  0  0  0  0  0  0  0  0  0  0
  133.4813  140.2083  160.2928 C   0  0  0  0  0  0  0  0  0  0  0  0
  133.1685  140.6608  161.5627 C   0  0  0  0  0  0  0  0  0  0  0  0
  132.0725  140.1456  162.2343 C   0  0  0  0  0  0  0  0  0  0  0  0
  131.2919  139.1822  161.6391 C   0  0  0  0  0  0  0  0  0  0  0  0
  130.0565  138.4379  162.0840 C   0  0  0  0  0  0  0  0  0  0  0  0
  132.4195  134.2086  160.8503 H   0  0  0  0  0  0  0  0  0  0  0  0
  133.5751  133.6302  159.6261 H   0  0  0  0  0  0  0  0  0  0  0  0
  132.7496  135.1914  159.4034 H   0  0  0  0  0  0  0  0  0  0  0  0
  131.3603  132.4750  159.4682 H   0  0  0  0  0  0  0  0  0  0  0  0
  131.7608  133.3792  157.9882 H   0  0  0  0  0  0  0  0  0  0  0  0
  128.3793  134.2826  158.2732 H   0  0  0  0  0  0  0  0  0  0  0  0
  128.7934  132.7584  159.0937 H   0  0  0  0  0  0  0  0  0  0  0  0
  129.3345  134.6669  155.9030 H   0  0  0  0  0  0  0  0  0  0  0  0
  130.3016  133.3482  153.9515 H   0  0  0  0  0  0  0  0  0  0  0  0
  131.0760  131.0082  154.5545 H   0  0  0  0  0  0  0  0  0  0  0  0
  129.7824  133.3757  161.0342 H   0  0  0  0  0  0  0  0  0  0  0  0
  130.7393  134.8730  161.1376 H   0  0  0  0  0  0  0  0  0  0  0  0
  127.1322  133.6349  160.6670 H   0  0  0  0  0  0  0  0  0  0  0  0
  130.6088  137.1737  159.0248 H   0  0  0  0  0  0  0  0  0  0  0  0
  132.9554  138.8934  158.6952 H   0  0  0  0  0  0  0  0  0  0  0  0
  134.3374  140.6137  159.7739 H   0  0  0  0  0  0  0  0  0  0  0  0
  133.7810  141.4169  162.0312 H   0  0  0  0  0  0  0  0  0  0  0  0
  131.8304  140.5007  163.2252 H   0  0  0  0  0  0  0  0  0  0  0  0
  129.2386  139.1352  162.2661 H   0  0  0  0  0  0  0  0  0  0  0  0
  130.2697  137.8622  162.9846 H   0  0  0  0  0  0  0  0  0  0  0  0
  1  2  1  0
  1 27  1  0
  1 28  1  0
  1 29  1  0
  2  3  1  0
  2 30  1  0
  2 31  1  0
  3  4  1  6
  3  5  1  0
  3 11  1  0
  5  6  1  0
  5 32  1  0
  5 33  1  0
  6 10  1  0
  6  7  2  0
  7  8  1  0
  7 34  1  0
  8  9  2  0
  8 35  1  0
  9 10  1  0
  9 36  1  0
 11 12  1  0
 11 37  1  0
 11 38  1  0
 12 17  1  0
 12 13  2  0
 13 14  1  0
 13 39  1  0
 14 15  1  0
 14 16  1  0
 16 17  2  0
 17 18  1  0
 18 26  1  0
 18 19  2  0
 19 20  1  0
 19 40  1  0
 20 25  2  0
 20 21  1  0
 21 22  2  0
 21 41  1  0
 22 23  1  0
 22 42  1  0
 23 24  2  0
 23 43  1  0
 24 25  1  0
 24 44  1  0
 25 26  1  0
 26 45  1  0
 26 46  1  0
M  CHG  1   3   1
M  END
>  <DOCK_score>  (1) 
-42.02803

>  <SMILES>  (1) 
CC[N@@H+](Cc1cccs1)Cc1c[nH]nc1C1=Cc2ccccc2C1

$$$$
