[NH3+][C@@H](C(=O)Nc1cccc(O)c1)c1cccc(NCc2ncnn2C2CC2)c1
     RDKit          3D

 51 54  0  0  1  0  0  0  0  0999 V2000
  130.6756  134.1257  157.4868 N   0  0  0  0  0  0  0  0  0  0  0  0
  130.7727  133.1271  157.5935 H   0  0  0  0  0  0  0  0  0  0  0  0
  130.0645  134.3228  156.7084 H   0  0  0  0  0  0  0  0  0  0  0  0
  131.5815  134.5353  157.3154 H   0  0  0  0  0  0  0  0  0  0  0  0
  130.1045  134.6961  158.7142 C   0  0  1  0  0  0  0  0  0  0  0  0
  129.9995  135.7749  158.5989 H   0  0  0  0  0  0  0  0  0  0  0  0
  128.7513  134.0842  158.9702 C   0  0  0  0  0  0  0  0  0  0  0  0
  128.3065  133.2546  158.2055 O   0  0  0  0  0  0  0  0  0  0  0  0
  128.0332  134.4628  160.0461 N   0  0  0  0  0  0  0  0  0  0  0  0
  126.7745  133.8988  160.2808 C   0  0  0  0  0  0  0  0  0  0  0  0
  126.5028  132.6037  159.8578 C   0  0  0  0  0  0  0  0  0  0  0  0
  125.2619  132.0449  160.0946 C   0  0  0  0  0  0  0  0  0  0  0  0
  124.2841  132.7761  160.7423 C   0  0  0  0  0  0  0  0  0  0  0  0
  124.5480  134.0721  161.1619 C   0  0  0  0  0  0  0  0  0  0  0  0
  123.5855  134.7901  161.7982 O   0  0  0  0  0  0  0  0  0  0  0  0
  125.7940  134.6344  160.9312 C   0  0  0  0  0  0  0  0  0  0  0  0
  131.0172  134.4015  159.8768 C   0  0  0  0  0  0  0  0  0  0  0  0
  130.8474  133.2425  160.6119 C   0  0  0  0  0  0  0  0  0  0  0  0
  131.6860  132.9657  161.6757 C   0  0  0  0  0  0  0  0  0  0  0  0
  132.6897  133.8521  162.0148 C   0  0  0  0  0  0  0  0  0  0  0  0
  132.8593  135.0199  161.2821 C   0  0  0  0  0  0  0  0  0  0  0  0
  133.8728  135.9187  161.6226 N   0  0  0  0  0  0  0  0  0  0  0  0
  134.7583  135.6302  162.7535 C   0  0  0  0  0  0  0  0  0  0  0  0
  135.7565  136.7486  162.9078 C   0  0  0  0  0  0  0  0  0  0  0  0
  135.8382  137.8150  162.1543 N   0  0  0  0  0  0  0  0  0  0  0  0
  136.8335  138.5928  162.5782 C   0  0  0  0  0  0  0  0  0  0  0  0
  137.4072  138.0254  163.6066 N   0  0  0  0  0  0  0  0  0  0  0  0
  136.7222  136.8216  163.8402 N   0  0  0  0  0  0  0  0  0  0  0  0
  137.0045  135.8403  164.8908 C   0  0  0  0  0  0  0  0  0  0  0  0
  136.1428  135.8903  166.1541 C   0  0  0  0  0  0  0  0  0  0  0  0
  137.5989  136.3600  166.2015 C   0  0  0  0  0  0  0  0  0  0  0  0
  132.0183  135.2921  160.2103 C   0  0  0  0  0  0  0  0  0  0  0  0
  128.3891  135.1262  160.6577 H   0  0  0  0  0  0  0  0  0  0  0  0
  127.2637  132.0318  159.3476 H   0  0  0  0  0  0  0  0  0  0  0  0
  125.0539  131.0365  159.7688 H   0  0  0  0  0  0  0  0  0  0  0  0
  123.3136  132.3380  160.9225 H   0  0  0  0  0  0  0  0  0  0  0  0
  123.8625  135.6812  162.0519 H   0  0  0  0  0  0  0  0  0  0  0  0
  126.0013  135.6429  161.2573 H   0  0  0  0  0  0  0  0  0  0  0  0
  130.0605  132.5499  160.3519 H   0  0  0  0  0  0  0  0  0  0  0  0
  131.5535  132.0576  162.2450 H   0  0  0  0  0  0  0  0  0  0  0  0
  133.3413  133.6377  162.8489 H   0  0  0  0  0  0  0  0  0  0  0  0
  133.9903  136.7338  161.1101 H   0  0  0  0  0  0  0  0  0  0  0  0
  134.1668  135.5427  163.6649 H   0  0  0  0  0  0  0  0  0  0  0  0
  135.2864  134.6942  162.5719 H   0  0  0  0  0  0  0  0  0  0  0  0
  137.1219  139.5372  162.1408 H   0  0  0  0  0  0  0  0  0  0  0  0
  137.3319  134.8605  164.5432 H   0  0  0  0  0  0  0  0  0  0  0  0
  135.3658  136.6531  166.2035 H   0  0  0  0  0  0  0  0  0  0  0  0
  135.9036  134.9432  166.6378 H   0  0  0  0  0  0  0  0  0  0  0  0
  138.3171  135.7218  166.7162 H   0  0  0  0  0  0  0  0  0  0  0  0
  137.7802  137.4318  166.2818 H   0  0  0  0  0  0  0  0  0  0  0  0
  132.1478  136.1990  159.6383 H   0  0  0  0  0  0  0  0  0  0  0  0
  1  2  1  0
  1  3  1  0
  1  4  1  0
  1  5  1  0
  5  6  1  6
  5  7  1  0
  5 17  1  0
  7  8  2  0
  7  9  1  0
  9 10  1  0
  9 33  1  0
 10 16  1  0
 10 11  2  0
 11 12  1  0
 11 34  1  0
 12 13  2  0
 12 35  1  0
 13 14  1  0
 13 36  1  0
 14 15  1  0
 14 16  2  0
 15 37  1  0
 16 38  1  0
 17 32  1  0
 17 18  2  0
 18 19  1  0
 18 39  1  0
 19 20  2  0
 19 40  1  0
 20 21  1  0
 20 41  1  0
 21 22  1  0
 21 32  2  0
 22 23  1  0
 22 42  1  0
 23 24  1  0
 23 43  1  0
 23 44  1  0
 24 28  1  0
 24 25  2  0
 25 26  1  0
 26 27  2  0
 26 45  1  0
 27 28  1  0
 28 29  1  0
 29 31  1  0
 29 30  1  0
 29 46  1  0
 30 31  1  0
 30 47  1  0
 30 48  1  0
 31 49  1  0
 31 50  1  0
 32 51  1  0
M  CHG  1   1   1
M  END
>  <DOCK_score>  (1) 
-47.082817

>  <SMILES>  (1) 
[NH3+][C@@H](C(=O)Nc1cccc(O)c1)c1cccc(NCc2ncnn2C2CC2)c1

$$$$
