Cc1[nH]c(N[C@@H]2C[C@H](C(=O)c3cccc(F)n3)C[C@@H]2O)[nH+]c1C
     RDKit          3D

 43 45  0  0  1  0  0  0  0  0999 V2000
  129.8181  132.0361  155.8619 C   0  0  0  0  0  0  0  0  0  0  0  0
  129.9401  132.7038  157.2073 C   0  0  0  0  0  0  0  0  0  0  0  0
  130.7812  133.7248  157.5259 N   0  0  0  0  0  0  0  0  0  0  0  0
  131.4104  134.1523  156.9240 H   0  0  0  0  0  0  0  0  0  0  0  0
  130.5921  134.0349  158.8053 C   0  0  0  0  0  0  0  0  0  0  0  0
  131.2606  135.0236  159.5020 N   0  0  0  0  0  0  0  0  0  0  0  0
  130.9524  135.2603  160.9146 C   0  0  2  0  0  0  0  0  0  0  0  0
  131.1489  134.3591  161.4954 H   0  0  0  0  0  0  0  0  0  0  0  0
  129.4755  135.6780  161.0703 C   0  0  0  0  0  0  0  0  0  0  0  0
  129.4975  136.7372  162.2002 C   0  0  2  0  0  0  0  0  0  0  0  0
  129.5388  136.2578  163.1784 H   0  0  0  0  0  0  0  0  0  0  0  0
  128.3018  137.6491  162.1008 C   0  0  0  0  0  0  0  0  0  0  0  0
  127.2608  137.2352  161.6381 O   0  0  0  0  0  0  0  0  0  0  0  0
  128.3986  139.0458  162.5666 C   0  0  0  0  0  0  0  0  0  0  0  0
  128.0839  139.3569  163.8893 C   0  0  0  0  0  0  0  0  0  0  0  0
  128.1834  140.6728  164.3143 C   0  0  0  0  0  0  0  0  0  0  0  0
  128.5843  141.6344  163.4015 C   0  0  0  0  0  0  0  0  0  0  0  0
  128.8781  141.2555  162.0970 C   0  0  0  0  0  0  0  0  0  0  0  0
  129.2695  142.1901  161.2032 F   0  0  0  0  0  0  0  0  0  0  0  0
  128.7798  139.9980  161.7207 N   0  0  0  0  0  0  0  0  0  0  0  0
  130.8062  137.5148  161.9144 C   0  0  0  0  0  0  0  0  0  0  0  0
  131.7984  136.4282  161.4512 C   0  0  2  0  0  0  0  0  0  0  0  0
  132.4054  136.0938  162.2927 H   0  0  0  0  0  0  0  0  0  0  0  0
  132.6378  136.9415  160.4148 O   0  0  0  0  0  0  0  0  0  0  0  0
  129.6569  133.2318  159.3043 N   0  0  0  0  0  0  0  0  0  0  0  0
  129.3286  133.2392  160.2171 H   0  0  0  0  0  0  0  0  0  0  0  0
  129.2382  132.3994  158.3125 C   0  0  0  0  0  0  0  0  0  0  0  0
  128.1853  131.3280  158.4330 C   0  0  0  0  0  0  0  0  0  0  0  0
  130.5107  131.1960  155.8090 H   0  0  0  0  0  0  0  0  0  0  0  0
  128.7984  131.6754  155.7265 H   0  0  0  0  0  0  0  0  0  0  0  0
  130.0568  132.7538  155.0771 H   0  0  0  0  0  0  0  0  0  0  0  0
  131.9339  135.5608  159.0559 H   0  0  0  0  0  0  0  0  0  0  0  0
  128.8658  134.8227  161.3611 H   0  0  0  0  0  0  0  0  0  0  0  0
  129.1010  136.1153  160.1449 H   0  0  0  0  0  0  0  0  0  0  0  0
  127.7700  138.5829  164.5739 H   0  0  0  0  0  0  0  0  0  0  0  0
  127.9497  140.9428  165.3334 H   0  0  0  0  0  0  0  0  0  0  0  0
  128.6672  142.6689  163.7005 H   0  0  0  0  0  0  0  0  0  0  0  0
  130.6487  138.2493  161.1247 H   0  0  0  0  0  0  0  0  0  0  0  0
  131.1675  137.9999  162.8212 H   0  0  0  0  0  0  0  0  0  0  0  0
  132.1558  137.2559  159.6377 H   0  0  0  0  0  0  0  0  0  0  0  0
  128.6535  130.3907  158.7335 H   0  0  0  0  0  0  0  0  0  0  0  0
  127.4503  131.6235  159.1817 H   0  0  0  0  0  0  0  0  0  0  0  0
  127.6906  131.1950  157.4709 H   0  0  0  0  0  0  0  0  0  0  0  0
  1  2  1  0
  1 29  1  0
  1 30  1  0
  1 31  1  0
  2 27  2  0
  2  3  1  0
  3  4  1  0
  3  5  1  0
  5  6  1  0
  5 25  2  0
  6  7  1  0
  6 32  1  0
  7  8  1  1
  7 22  1  0
  7  9  1  0
  9 10  1  0
  9 33  1  0
  9 34  1  0
 10 11  1  1
 10 12  1  0
 10 21  1  0
 12 13  2  0
 12 14  1  0
 14 20  1  0
 14 15  2  0
 15 16  1  0
 15 35  1  0
 16 17  2  0
 16 36  1  0
 17 18  1  0
 17 37  1  0
 18 19  1  0
 18 20  2  0
 21 22  1  0
 21 38  1  0
 21 39  1  0
 22 23  1  1
 22 24  1  0
 24 40  1  0
 25 26  1  0
 25 27  1  0
 27 28  1  0
 28 41  1  0
 28 42  1  0
 28 43  1  0
M  CHG  1  25   1
M  END
>  <DOCK_score>  (1) 
-48.26749

>  <SMILES>  (1) 
Cc1[nH]c(N[C@@H]2C[C@H](C(=O)c3cccc(F)n3)C[C@@H]2O)[nH+]c1C

$$$$
