IC=Cc1c[nH]c(NC(c2ccccc2)c2ccccc2)[nH+]1
     RDKit          3D

 39 41  0  0  1  0  0  0  0  0999 V2000
  131.4521  130.8525  153.2308 I   0  0  0  0  0  0  0  0  0  0  0  0
  130.8306  132.0379  154.8425 C   0  0  0  0  0  0  0  0  0  0  0  0
  130.6638  131.4932  156.0412 C   0  0  0  0  0  0  0  0  0  0  0  0
  130.2255  132.3291  157.1777 C   0  0  0  0  0  0  0  0  0  0  0  0
  129.4890  131.9120  158.2403 C   0  0  0  0  0  0  0  0  0  0  0  0
  129.3147  133.0029  159.0564 N   0  0  0  0  0  0  0  0  0  0  0  0
  128.8318  133.0195  159.8976 H   0  0  0  0  0  0  0  0  0  0  0  0
  129.9416  134.0571  158.4662 C   0  0  0  0  0  0  0  0  0  0  0  0
  129.9985  135.3453  158.9695 N   0  0  0  0  0  0  0  0  0  0  0  0
  128.9040  135.8570  159.7979 C   0  0  0  0  0  0  0  0  0  0  0  0
  129.2089  137.2728  160.2146 C   0  0  0  0  0  0  0  0  0  0  0  0
  128.7243  137.7599  161.4141 C   0  0  0  0  0  0  0  0  0  0  0  0
  129.0080  139.0570  161.7985 C   0  0  0  0  0  0  0  0  0  0  0  0
  129.7675  139.8705  160.9787 C   0  0  0  0  0  0  0  0  0  0  0  0
  130.2477  139.3851  159.7766 C   0  0  0  0  0  0  0  0  0  0  0  0
  129.9684  138.0863  159.3947 C   0  0  0  0  0  0  0  0  0  0  0  0
  127.6212  135.8312  159.0075 C   0  0  0  0  0  0  0  0  0  0  0  0
  126.4136  135.6495  159.6555 C   0  0  0  0  0  0  0  0  0  0  0  0
  125.2364  135.6307  158.9311 C   0  0  0  0  0  0  0  0  0  0  0  0
  125.2677  135.7830  157.5574 C   0  0  0  0  0  0  0  0  0  0  0  0
  126.4758  135.9594  156.9089 C   0  0  0  0  0  0  0  0  0  0  0  0
  127.6524  135.9835  157.6339 C   0  0  0  0  0  0  0  0  0  0  0  0
  130.4873  133.6509  157.3462 N   0  0  0  0  0  0  0  0  0  0  0  0
  130.9971  134.2057  156.7352 H   0  0  0  0  0  0  0  0  0  0  0  0
  130.6461  133.0921  154.6979 H   0  0  0  0  0  0  0  0  0  0  0  0
  130.8483  130.4390  156.1858 H   0  0  0  0  0  0  0  0  0  0  0  0
  129.1157  130.9134  158.4124 H   0  0  0  0  0  0  0  0  0  0  0  0
  130.7611  135.9107  158.7701 H   0  0  0  0  0  0  0  0  0  0  0  0
  128.7969  135.2324  160.6848 H   0  0  0  0  0  0  0  0  0  0  0  0
  128.1271  137.1257  162.0527 H   0  0  0  0  0  0  0  0  0  0  0  0
  128.6325  139.4364  162.7375 H   0  0  0  0  0  0  0  0  0  0  0  0
  129.9854  140.8853  161.2769 H   0  0  0  0  0  0  0  0  0  0  0  0
  130.8408  140.0207  159.1359 H   0  0  0  0  0  0  0  0  0  0  0  0
  130.3433  137.7072  158.4554 H   0  0  0  0  0  0  0  0  0  0  0  0
  126.3896  135.5262  160.7282 H   0  0  0  0  0  0  0  0  0  0  0  0
  124.2929  135.4926  159.4376 H   0  0  0  0  0  0  0  0  0  0  0  0
  124.3485  135.7639  156.9909 H   0  0  0  0  0  0  0  0  0  0  0  0
  126.5002  136.0780  155.8358 H   0  0  0  0  0  0  0  0  0  0  0  0
  128.5961  136.1210  157.1272 H   0  0  0  0  0  0  0  0  0  0  0  0
  1  2  1  0
  2  3  2  0
  2 25  1  0
  3  4  1  0
  3 26  1  0
  4 23  1  0
  4  5  2  0
  5  6  1  0
  5 27  1  0
  6  7  1  0
  6  8  1  0
  8  9  1  0
  8 23  2  0
  9 10  1  0
  9 28  1  0
 10 11  1  0
 10 17  1  0
 10 29  1  0
 11 16  1  0
 11 12  2  0
 12 13  1  0
 12 30  1  0
 13 14  2  0
 13 31  1  0
 14 15  1  0
 14 32  1  0
 15 16  2  0
 15 33  1  0
 16 34  1  0
 17 22  1  0
 17 18  2  0
 18 19  1  0
 18 35  1  0
 19 20  2  0
 19 36  1  0
 20 21  1  0
 20 37  1  0
 21 22  2  0
 21 38  1  0
 22 39  1  0
 23 24  1  0
M  CHG  1  23   1
M  END
>  <DOCK_score>  (1) 
-56.752735

>  <SMILES>  (1) 
IC=Cc1c[nH]c(NC(c2ccccc2)c2ccccc2)[nH+]1

$$$$
