CC(c1ccccc1)[C@@H](Cc1cnnn1C)Nc1[nH]cc(-c2ccc(N)cc2)[nH+]1
     RDKit          3D

 55 58  0  0  1  0  0  0  0  0999 V2000
  132.9313  134.6895  160.9139 C   0  0  0  0  0  0  0  0  0  0  0  0
  131.7818  135.5801  161.3897 C   0  0  1  0  0  0  0  0  0  0  0  0
  132.1643  137.0278  161.2195 C   0  0  0  0  0  0  0  0  0  0  0  0
  131.6515  137.9835  162.0766 C   0  0  0  0  0  0  0  0  0  0  0  0
  132.0020  139.3115  161.9204 C   0  0  0  0  0  0  0  0  0  0  0  0
  132.8660  139.6836  160.9075 C   0  0  0  0  0  0  0  0  0  0  0  0
  133.3750  138.7287  160.0474 C   0  0  0  0  0  0  0  0  0  0  0  0
  133.0276  137.4001  160.2061 C   0  0  0  0  0  0  0  0  0  0  0  0
  130.5300  135.2827  160.5617 C   0  0  1  0  0  0  0  0  0  0  0  0
  130.0501  134.3801  160.9401 H   0  0  0  0  0  0  0  0  0  0  0  0
  129.5577  136.4595  160.6664 C   0  0  0  0  0  0  0  0  0  0  0  0
  128.3247  136.1664  159.8510 C   0  0  0  0  0  0  0  0  0  0  0  0
  128.1243  136.4621  158.5456 C   0  0  0  0  0  0  0  0  0  0  0  0
  126.8987  136.0219  158.2401 N   0  0  0  0  0  0  0  0  0  0  0  0
  126.3746  135.4891  159.2872 N   0  0  0  0  0  0  0  0  0  0  0  0
  127.1976  135.5496  160.2751 N   0  0  0  0  0  0  0  0  0  0  0  0
  126.9542  135.0411  161.6273 C   0  0  0  0  0  0  0  0  0  0  0  0
  130.9072  135.0843  159.1601 N   0  0  0  0  0  0  0  0  0  0  0  0
  130.6347  133.8801  158.5338 C   0  0  0  0  0  0  0  0  0  0  0  0
  130.0190  132.8103  159.1064 N   0  0  0  0  0  0  0  0  0  0  0  0
  129.6952  132.7544  160.0191 H   0  0  0  0  0  0  0  0  0  0  0  0
  129.9408  131.8234  158.1526 C   0  0  0  0  0  0  0  0  0  0  0  0
  130.5107  132.3189  157.0265 C   0  0  0  0  0  0  0  0  0  0  0  0
  130.6530  131.6055  155.7335 C   0  0  0  0  0  0  0  0  0  0  0  0
  130.0589  132.1211  154.5827 C   0  0  0  0  0  0  0  0  0  0  0  0
  130.1974  131.4595  153.3809 C   0  0  0  0  0  0  0  0  0  0  0  0
  130.9189  130.2733  153.3186 C   0  0  0  0  0  0  0  0  0  0  0  0
  131.0532  129.6012  152.1013 N   0  0  0  0  0  0  0  0  0  0  0  0
  131.5072  129.7542  154.4658 C   0  0  0  0  0  0  0  0  0  0  0  0
  131.3762  130.4155  155.6687 C   0  0  0  0  0  0  0  0  0  0  0  0
  130.9224  133.5844  157.2895 N   0  0  0  0  0  0  0  0  0  0  0  0
  131.3615  134.1756  156.6581 H   0  0  0  0  0  0  0  0  0  0  0  0
  132.6546  133.6425  161.0369 H   0  0  0  0  0  0  0  0  0  0  0  0
  133.1352  134.8904  159.8621 H   0  0  0  0  0  0  0  0  0  0  0  0
  133.8230  134.9014  161.5037 H   0  0  0  0  0  0  0  0  0  0  0  0
  131.5779  135.3794  162.4415 H   0  0  0  0  0  0  0  0  0  0  0  0
  130.9767  137.6926  162.8682 H   0  0  0  0  0  0  0  0  0  0  0  0
  131.6011  140.0582  162.5899 H   0  0  0  0  0  0  0  0  0  0  0  0
  133.1400  140.7212  160.7855 H   0  0  0  0  0  0  0  0  0  0  0  0
  134.0466  139.0201  159.2534 H   0  0  0  0  0  0  0  0  0  0  0  0
  133.4278  136.6537  159.5363 H   0  0  0  0  0  0  0  0  0  0  0  0
  129.2770  136.6071  161.7092 H   0  0  0  0  0  0  0  0  0  0  0  0
  130.0376  137.3620  160.2881 H   0  0  0  0  0  0  0  0  0  0  0  0
  128.8178  136.9557  157.8810 H   0  0  0  0  0  0  0  0  0  0  0  0
  126.4982  135.8240  162.2333 H   0  0  0  0  0  0  0  0  0  0  0  0
  126.2836  134.1832  161.5776 H   0  0  0  0  0  0  0  0  0  0  0  0
  127.8996  134.7377  162.0772 H   0  0  0  0  0  0  0  0  0  0  0  0
  131.3480  135.7966  158.6709 H   0  0  0  0  0  0  0  0  0  0  0  0
  129.5084  130.8415  158.2764 H   0  0  0  0  0  0  0  0  0  0  0  0
  129.4940  133.0404  154.6316 H   0  0  0  0  0  0  0  0  0  0  0  0
  129.7406  131.8608  152.4883 H   0  0  0  0  0  0  0  0  0  0  0  0
  131.5569  128.7740  152.0566 H   0  0  0  0  0  0  0  0  0  0  0  0
  130.6429  129.9634  151.2998 H   0  0  0  0  0  0  0  0  0  0  0  0
  132.0671  128.8322  154.4152 H   0  0  0  0  0  0  0  0  0  0  0  0
  131.8340  130.0120  156.5599 H   0  0  0  0  0  0  0  0  0  0  0  0
  1  2  1  0
  1 33  1  0
  1 34  1  0
  1 35  1  0
  2  3  1  0
  2  9  1  0
  2 36  1  1
  3  8  1  0
  3  4  2  0
  4  5  1  0
  4 37  1  0
  5  6  2  0
  5 38  1  0
  6  7  1  0
  6 39  1  0
  7  8  2  0
  7 40  1  0
  8 41  1  0
  9 10  1  1
  9 11  1  0
  9 18  1  0
 11 12  1  0
 11 42  1  0
 11 43  1  0
 12 16  1  0
 12 13  2  0
 13 14  1  0
 13 44  1  0
 14 15  2  0
 15 16  1  0
 16 17  1  0
 17 45  1  0
 17 46  1  0
 17 47  1  0
 18 48  1  0
 19 18  1  0
 19 31  2  0
 19 20  1  0
 20 21  1  0
 20 22  1  0
 22 23  2  0
 22 49  1  0
 23 24  1  0
 23 31  1  0
 24 30  1  0
 24 25  2  0
 25 26  1  0
 25 50  1  0
 26 27  2  0
 26 51  1  0
 27 28  1  0
 27 29  1  0
 28 52  1  0
 28 53  1  0
 29 30  2  0
 29 54  1  0
 30 55  1  0
 31 32  1  0
M  CHG  1  31   1
M  END
>  <DOCK_score>  (1) 
-63.565342

>  <SMILES>  (1) 
CC(c1ccccc1)[C@@H](Cc1cnnn1C)Nc1[nH]cc(-c2ccc(N)cc2)[nH+]1

$$$$
