CCC=C[C@@H](Nc1[nH]cc(-c2ccc(CC)cc2)[nH+]1)C1=C(CC)CCC1
     RDKit          3D

 58 60  0  0  1  0  0  0  0  0999 V2000
  125.7132  133.5458  159.3573 C   0  0  0  0  0  0  0  0  0  0  0  0
  126.1624  134.4503  160.5067 C   0  0  0  0  0  0  0  0  0  0  0  0
  127.6664  134.4341  160.6002 C   0  0  0  0  0  0  0  0  0  0  0  0
  128.3739  135.3073  159.9271 C   0  0  0  0  0  0  0  0  0  0  0  0
  129.8780  135.2911  160.0205 C   0  0  1  0  0  0  0  0  0  0  0  0
  130.1918  134.4897  160.6895 H   0  0  0  0  0  0  0  0  0  0  0  0
  130.4475  135.0671  158.6894 N   0  0  0  0  0  0  0  0  0  0  0  0
  130.1432  133.9105  157.9920 C   0  0  0  0  0  0  0  0  0  0  0  0
  129.3363  132.9076  158.4337 N   0  0  0  0  0  0  0  0  0  0  0  0
  128.8747  132.8748  159.2862 H   0  0  0  0  0  0  0  0  0  0  0  0
  129.2958  131.9503  157.4493 C   0  0  0  0  0  0  0  0  0  0  0  0
  130.0784  132.3955  156.4352 C   0  0  0  0  0  0  0  0  0  0  0  0
  130.3360  131.6890  155.1565 C   0  0  0  0  0  0  0  0  0  0  0  0
  129.9867  132.2845  153.9457 C   0  0  0  0  0  0  0  0  0  0  0  0
  130.2292  131.6228  152.7592 C   0  0  0  0  0  0  0  0  0  0  0  0
  130.8179  130.3706  152.7703 C   0  0  0  0  0  0  0  0  0  0  0  0
  131.0802  129.6528  151.4714 C   0  0  0  0  0  0  0  0  0  0  0  0
  129.8621  128.8036  151.1029 C   0  0  0  0  0  0  0  0  0  0  0  0
  131.1614  129.7728  153.9690 C   0  0  0  0  0  0  0  0  0  0  0  0
  130.9287  130.4276  155.1614 C   0  0  0  0  0  0  0  0  0  0  0  0
  130.5889  133.5986  156.7995 N   0  0  0  0  0  0  0  0  0  0  0  0
  131.1864  134.1420  156.2624 H   0  0  0  0  0  0  0  0  0  0  0  0
  130.3623  136.6129  160.5581 C   0  0  0  0  0  0  0  0  0  0  0  0
  131.6166  136.9144  160.7565 C   0  0  0  0  0  0  0  0  0  0  0  0
  132.7708  135.9862  160.4780 C   0  0  0  0  0  0  0  0  0  0  0  0
  133.0723  135.1579  161.7284 C   0  0  0  0  0  0  0  0  0  0  0  0
  131.7598  138.3174  161.2993 C   0  0  0  0  0  0  0  0  0  0  0  0
  130.3954  138.9894  161.0201 C   0  0  0  0  0  0  0  0  0  0  0  0
  129.4591  137.7611  160.9444 C   0  0  0  0  0  0  0  0  0  0  0  0
  126.0549  132.5273  159.5416 H   0  0  0  0  0  0  0  0  0  0  0  0
  124.6253  133.5576  159.2896 H   0  0  0  0  0  0  0  0  0  0  0  0
  126.1393  133.9083  158.4219 H   0  0  0  0  0  0  0  0  0  0  0  0
  125.7363  134.0877  161.4421 H   0  0  0  0  0  0  0  0  0  0  0  0
  125.8207  135.4688  160.3224 H   0  0  0  0  0  0  0  0  0  0  0  0
  128.1609  133.7026  161.2220 H   0  0  0  0  0  0  0  0  0  0  0  0
  127.8794  136.0388  159.3051 H   0  0  0  0  0  0  0  0  0  0  0  0
  131.0377  135.7292  158.2968 H   0  0  0  0  0  0  0  0  0  0  0  0
  128.7457  131.0214  157.4774 H   0  0  0  0  0  0  0  0  0  0  0  0
  129.5269  133.2617  153.9361 H   0  0  0  0  0  0  0  0  0  0  0  0
  129.9587  132.0831  151.8203 H   0  0  0  0  0  0  0  0  0  0  0  0
  131.9525  129.0097  151.5813 H   0  0  0  0  0  0  0  0  0  0  0  0
  131.2646  130.3840  150.6833 H   0  0  0  0  0  0  0  0  0  0  0  0
  129.6774  128.0731  151.8906 H   0  0  0  0  0  0  0  0  0  0  0  0
  128.9896  129.4475  150.9927 H   0  0  0  0  0  0  0  0  0  0  0  0
  130.0519  128.2846  150.1633 H   0  0  0  0  0  0  0  0  0  0  0  0
  131.6162  128.7933  153.9718 H   0  0  0  0  0  0  0  0  0  0  0  0
  131.2016  129.9617  156.0968 H   0  0  0  0  0  0  0  0  0  0  0  0
  132.5111  135.3204  159.6549 H   0  0  0  0  0  0  0  0  0  0  0  0
  133.6504  136.5709  160.2085 H   0  0  0  0  0  0  0  0  0  0  0  0
  133.3319  135.8237  162.5515 H   0  0  0  0  0  0  0  0  0  0  0  0
  132.1927  134.5733  161.9978 H   0  0  0  0  0  0  0  0  0  0  0  0
  133.9071  134.4866  161.5270 H   0  0  0  0  0  0  0  0  0  0  0  0
  132.5578  138.8482  160.7804 H   0  0  0  0  0  0  0  0  0  0  0  0
  131.9572  138.2896  162.3709 H   0  0  0  0  0  0  0  0  0  0  0  0
  130.4113  139.5283  160.0727 H   0  0  0  0  0  0  0  0  0  0  0  0
  130.1091  139.6498  161.8386 H   0  0  0  0  0  0  0  0  0  0  0  0
  128.6929  137.9139  160.1842 H   0  0  0  0  0  0  0  0  0  0  0  0
  128.9985  137.5723  161.9141 H   0  0  0  0  0  0  0  0  0  0  0  0
  1  2  1  0
  1 30  1  0
  1 31  1  0
  1 32  1  0
  2  3  1  0
  2 33  1  0
  2 34  1  0
  3  4  2  0
  3 35  1  0
  4  5  1  0
  4 36  1  0
  5  6  1  1
  5  7  1  0
  5 23  1  0
  7 37  1  0
  8  7  1  0
  8 21  2  0
  8  9  1  0
  9 10  1  0
  9 11  1  0
 11 12  2  0
 11 38  1  0
 12 13  1  0
 12 21  1  0
 13 20  1  0
 13 14  2  0
 14 15  1  0
 14 39  1  0
 15 16  2  0
 15 40  1  0
 16 17  1  0
 16 19  1  0
 17 18  1  0
 17 41  1  0
 17 42  1  0
 18 43  1  0
 18 44  1  0
 18 45  1  0
 19 20  2  0
 19 46  1  0
 20 47  1  0
 21 22  1  0
 23 29  1  0
 23 24  2  0
 24 25  1  0
 24 27  1  0
 25 26  1  0
 25 48  1  0
 25 49  1  0
 26 50  1  0
 26 51  1  0
 26 52  1  0
 27 28  1  0
 27 53  1  0
 27 54  1  0
 28 29  1  0
 28 55  1  0
 28 56  1  0
 29 57  1  0
 29 58  1  0
M  CHG  1  21   1
M  END
>  <DOCK_score>  (1) 
-59.421772

>  <SMILES>  (1) 
CCC=C[C@@H](Nc1[nH]cc(-c2ccc(CC)cc2)[nH+]1)C1=C(CC)CCC1

$$$$
