Cc1ccccc1[C@@H](c1ccccc1)[NH+]1CCN(c2ccccc2C(O)c2ccnn2C)CC1
     RDKit          3D

 67 71  0  0  1  0  0  0  0  0999 V2000
  127.6910  133.6056  160.7722 C   0  0  0  0  0  0  0  0  0  0  0  0
  127.7113  134.5225  159.5764 C   0  0  0  0  0  0  0  0  0  0  0  0
  126.5283  134.8674  158.9497 C   0  0  0  0  0  0  0  0  0  0  0  0
  126.5471  135.7086  157.8528 C   0  0  0  0  0  0  0  0  0  0  0  0
  127.7486  136.2050  157.3830 C   0  0  0  0  0  0  0  0  0  0  0  0
  128.9309  135.8638  158.0123 C   0  0  0  0  0  0  0  0  0  0  0  0
  128.9127  135.0183  159.1061 C   0  0  0  0  0  0  0  0  0  0  0  0
  130.2023  134.6422  159.7893 C   0  0  1  0  0  0  0  0  0  0  0  0
  130.0134  134.4613  160.8475 H   0  0  0  0  0  0  0  0  0  0  0  0
  130.7596  133.3927  159.1577 C   0  0  0  0  0  0  0  0  0  0  0  0
  130.5100  133.1213  157.8254 C   0  0  0  0  0  0  0  0  0  0  0  0
  131.0248  131.9773  157.2448 C   0  0  0  0  0  0  0  0  0  0  0  0
  131.7813  131.0999  157.9991 C   0  0  0  0  0  0  0  0  0  0  0  0
  132.0267  131.3687  159.3326 C   0  0  0  0  0  0  0  0  0  0  0  0
  131.5155  132.5150  159.9120 C   0  0  0  0  0  0  0  0  0  0  0  0
  131.1704  135.7376  159.6449 N   0  0  0  0  0  0  0  0  0  0  0  0
  131.3450  135.9049  158.6654 H   0  0  0  0  0  0  0  0  0  0  0  0
  130.6266  136.9555  160.2601 C   0  0  0  0  0  0  0  0  0  0  0  0
  131.6267  138.1017  160.0933 C   0  0  0  0  0  0  0  0  0  0  0  0
  132.8984  137.7352  160.7326 N   0  0  0  0  0  0  0  0  0  0  0  0
  133.8209  138.7806  160.6475 C   0  0  0  0  0  0  0  0  0  0  0  0
  134.2221  139.2558  159.4052 C   0  0  0  0  0  0  0  0  0  0  0  0
  135.1345  140.2891  159.3247 C   0  0  0  0  0  0  0  0  0  0  0  0
  135.6487  140.8511  160.4792 C   0  0  0  0  0  0  0  0  0  0  0  0
  135.2480  140.3837  161.7172 C   0  0  0  0  0  0  0  0  0  0  0  0
  134.3396  139.3468  161.8049 C   0  0  0  0  0  0  0  0  0  0  0  0
  133.9070  138.8350  163.1546 C   0  0  2  0  0  0  0  0  0  0  0  0
  133.2991  139.8960  163.8940 O   0  0  0  0  0  0  0  0  0  0  0  0
  135.1086  138.3229  163.9063 C   0  0  0  0  0  0  0  0  0  0  0  0
  136.3856  138.3144  163.4586 C   0  0  0  0  0  0  0  0  0  0  0  0
  137.1887  137.7573  164.4591 C   0  0  0  0  0  0  0  0  0  0  0  0
  136.4208  137.4376  165.4689 N   0  0  0  0  0  0  0  0  0  0  0  0
  135.1039  137.7902  165.1461 N   0  0  0  0  0  0  0  0  0  0  0  0
  133.9285  137.6076  166.0013 C   0  0  0  0  0  0  0  0  0  0  0  0
  133.4426  136.5034  160.1438 C   0  0  0  0  0  0  0  0  0  0  0  0
  132.4275  135.3705  160.3100 C   0  0  0  0  0  0  0  0  0  0  0  0
  127.6526  134.1999  161.6852 H   0  0  0  0  0  0  0  0  0  0  0  0
  126.8134  132.9612  160.7211 H   0  0  0  0  0  0  0  0  0  0  0  0
  128.5923  132.9925  160.7754 H   0  0  0  0  0  0  0  0  0  0  0  0
  125.5896  134.4795  159.3168 H   0  0  0  0  0  0  0  0  0  0  0  0
  125.6227  135.9773  157.3631 H   0  0  0  0  0  0  0  0  0  0  0  0
  127.7632  136.8619  156.5258 H   0  0  0  0  0  0  0  0  0  0  0  0
  129.8692  136.2546  157.6475 H   0  0  0  0  0  0  0  0  0  0  0  0
  129.9156  133.8048  157.2371 H   0  0  0  0  0  0  0  0  0  0  0  0
  130.8332  131.7673  156.2029 H   0  0  0  0  0  0  0  0  0  0  0  0
  132.1807  130.2043  157.5463 H   0  0  0  0  0  0  0  0  0  0  0  0
  132.6177  130.6833  159.9218 H   0  0  0  0  0  0  0  0  0  0  0  0
  131.7070  132.7249  160.9540 H   0  0  0  0  0  0  0  0  0  0  0  0
  130.4499  136.7790  161.3211 H   0  0  0  0  0  0  0  0  0  0  0  0
  129.6872  137.2196  159.7743 H   0  0  0  0  0  0  0  0  0  0  0  0
  131.2298  139.0019  160.5628 H   0  0  0  0  0  0  0  0  0  0  0  0
  131.7933  138.2880  159.0324 H   0  0  0  0  0  0  0  0  0  0  0  0
  133.8203  138.8179  158.5034 H   0  0  0  0  0  0  0  0  0  0  0  0
  135.4467  140.6591  158.3594 H   0  0  0  0  0  0  0  0  0  0  0  0
  136.3619  141.6593  160.4135 H   0  0  0  0  0  0  0  0  0  0  0  0
  135.6487  140.8273  162.6168 H   0  0  0  0  0  0  0  0  0  0  0  0
  133.1889  138.0257  163.0232 H   0  0  0  0  0  0  0  0  0  0  0  0
  133.8821  140.6517  164.0489 H   0  0  0  0  0  0  0  0  0  0  0  0
  136.7247  138.6744  162.4984 H   0  0  0  0  0  0  0  0  0  0  0  0
  138.2575  137.6120  164.4055 H   0  0  0  0  0  0  0  0  0  0  0  0
  133.5566  136.5886  165.8946 H   0  0  0  0  0  0  0  0  0  0  0  0
  134.2038  137.7869  167.0406 H   0  0  0  0  0  0  0  0  0  0  0  0
  133.1506  138.3112  165.7048 H   0  0  0  0  0  0  0  0  0  0  0  0
  133.6391  136.6630  159.0836 H   0  0  0  0  0  0  0  0  0  0  0  0
  134.3706  136.2375  160.6500 H   0  0  0  0  0  0  0  0  0  0  0  0
  132.2416  135.2020  161.3708 H   0  0  0  0  0  0  0  0  0  0  0  0
  132.8232  134.4593  159.8614 H   0  0  0  0  0  0  0  0  0  0  0  0
  1  2  1  0
  1 37  1  0
  1 38  1  0
  1 39  1  0
  2  7  2  0
  2  3  1  0
  3  4  2  0
  3 40  1  0
  4  5  1  0
  4 41  1  0
  5  6  2  0
  5 42  1  0
  6  7  1  0
  6 43  1  0
  7  8  1  0
  8  9  1  1
  8 10  1  0
  8 16  1  0
 10 15  1  0
 10 11  2  0
 11 12  1  0
 11 44  1  0
 12 13  2  0
 12 45  1  0
 13 14  1  0
 13 46  1  0
 14 15  2  0
 14 47  1  0
 15 48  1  0
 16 17  1  0
 16 36  1  0
 16 18  1  0
 18 19  1  0
 18 49  1  0
 18 50  1  0
 19 20  1  0
 19 51  1  0
 19 52  1  0
 20 21  1  0
 20 35  1  0
 21 26  1  0
 21 22  2  0
 22 23  1  0
 22 53  1  0
 23 24  2  0
 23 54  1  0
 24 25  1  0
 24 55  1  0
 25 26  2  0
 25 56  1  0
 26 27  1  0
 27 28  1  0
 27 29  1  0
 27 57  1  6
 28 58  1  0
 29 33  1  0
 29 30  2  0
 30 31  1  0
 30 59  1  0
 31 32  2  0
 31 60  1  0
 32 33  1  0
 33 34  1  0
 34 61  1  0
 34 62  1  0
 34 63  1  0
 35 36  1  0
 35 64  1  0
 35 65  1  0
 36 66  1  0
 36 67  1  0
M  CHG  1  16   1
M  END
>  <DOCK_score>  (1) 
-56.475601

>  <SMILES>  (1) 
Cc1ccccc1[C@@H](c1ccccc1)[NH+]1CCN(c2ccccc2C(O)c2ccnn2C)CC1

$$$$
