O=C(Nc1cc(O)cc(O)c1)[C@H](CO)[NH2+]CCF
     RDKit          3D

 34 34  0  0  1  0  0  0  0  0999 V2000
  129.0894  132.4113  160.0138 O   0  0  0  0  0  0  0  0  0  0  0  0
  129.1689  133.5890  159.7355 C   0  0  0  0  0  0  0  0  0  0  0  0
  128.0655  134.3627  159.7573 N   0  0  0  0  0  0  0  0  0  0  0  0
  126.8282  133.8070  160.1010 C   0  0  0  0  0  0  0  0  0  0  0  0
  125.8660  134.5880  160.7265 C   0  0  0  0  0  0  0  0  0  0  0  0
  124.6383  134.0382  161.0620 C   0  0  0  0  0  0  0  0  0  0  0  0
  123.6941  134.8040  161.6693 O   0  0  0  0  0  0  0  0  0  0  0  0
  124.3756  132.7052  160.7833 C   0  0  0  0  0  0  0  0  0  0  0  0
  125.3384  131.9230  160.1632 C   0  0  0  0  0  0  0  0  0  0  0  0
  125.0802  130.6169  159.8905 O   0  0  0  0  0  0  0  0  0  0  0  0
  126.5645  132.4731  159.8219 C   0  0  0  0  0  0  0  0  0  0  0  0
  130.5014  134.1874  159.3653 C   0  0  2  0  0  0  0  0  0  0  0  0
  131.2973  133.6487  159.8796 H   0  0  0  0  0  0  0  0  0  0  0  0
  130.5320  135.6600  159.7796 C   0  0  0  0  0  0  0  0  0  0  0  0
  129.8397  136.4434  158.8055 O   0  0  0  0  0  0  0  0  0  0  0  0
  130.6986  134.0832  157.9132 N   0  0  0  0  0  0  0  0  0  0  0  0
  131.5907  134.4839  157.6652 H   0  0  0  0  0  0  0  0  0  0  0  0
  129.9618  134.5820  157.4372 H   0  0  0  0  0  0  0  0  0  0  0  0
  130.6691  132.6694  157.5153 C   0  0  0  0  0  0  0  0  0  0  0  0
  130.8744  132.5608  156.0030 C   0  0  0  0  0  0  0  0  0  0  0  0
  129.8531  133.2525  155.3430 F   0  0  0  0  0  0  0  0  0  0  0  0
  128.1291  135.3047  159.5347 H   0  0  0  0  0  0  0  0  0  0  0  0
  126.0722  135.6247  160.9479 H   0  0  0  0  0  0  0  0  0  0  0  0
  123.9698  135.7176  161.8260 H   0  0  0  0  0  0  0  0  0  0  0  0
  123.4207  132.2762  161.0490 H   0  0  0  0  0  0  0  0  0  0  0  0
  124.2006  130.3241  160.1654 H   0  0  0  0  0  0  0  0  0  0  0  0
  127.3140  131.8639  159.3387 H   0  0  0  0  0  0  0  0  0  0  0  0
  130.0476  135.7747  160.7492 H   0  0  0  0  0  0  0  0  0  0  0  0
  131.5664  135.9968  159.8482 H   0  0  0  0  0  0  0  0  0  0  0  0
  130.2170  136.3892  157.9168 H   0  0  0  0  0  0  0  0  0  0  0  0
  129.7053  132.2366  157.7832 H   0  0  0  0  0  0  0  0  0  0  0  0
  131.4649  132.1306  158.0296 H   0  0  0  0  0  0  0  0  0  0  0  0
  131.8382  132.9937  155.7353 H   0  0  0  0  0  0  0  0  0  0  0  0
  130.8525  131.5119  155.7078 H   0  0  0  0  0  0  0  0  0  0  0  0
  1  2  2  0
  2  3  1  0
  2 12  1  0
  3  4  1  0
  3 22  1  0
  4 11  2  0
  4  5  1  0
  5  6  2  0
  5 23  1  0
  6  7  1  0
  6  8  1  0
  7 24  1  0
  8  9  2  0
  8 25  1  0
  9 10  1  0
  9 11  1  0
 10 26  1  0
 11 27  1  0
 12 13  1  1
 12 14  1  0
 12 16  1  0
 14 15  1  0
 14 28  1  0
 14 29  1  0
 15 30  1  0
 16 17  1  0
 16 18  1  0
 16 19  1  0
 19 20  1  0
 19 31  1  0
 19 32  1  0
 20 21  1  0
 20 33  1  0
 20 34  1  0
M  CHG  1  16   1
M  END
>  <DOCK_score>  (1) 
-41.585651

>  <SMILES>  (1) 
O=C(Nc1cc(O)cc(O)c1)[C@H](CO)[NH2+]CCF

$$$$
