O=C1CCC(C2=C[C@@H]([NH+]=C(NC3CC=CC3)N[C@H]3C[C@@H](O)C3)CC2)CC1
     RDKit          3D

 58 61  0  0  1  0  0  0  0  0999 V2000
  137.5393  138.4531  162.2782 O   0  0  0  0  0  0  0  0  0  0  0  0
  136.5509  137.9816  162.7868 C   0  0  0  0  0  0  0  0  0  0  0  0
  136.3143  136.4875  162.7837 C   0  0  0  0  0  0  0  0  0  0  0  0
  134.9066  136.2183  162.2418 C   0  0  0  0  0  0  0  0  0  0  0  0
  133.8872  137.0159  163.0568 C   0  0  0  0  0  0  0  0  0  0  0  0
  132.4959  136.6817  162.5837 C   0  0  0  0  0  0  0  0  0  0  0  0
  131.8662  137.3179  161.6339 C   0  0  0  0  0  0  0  0  0  0  0  0
  130.4920  136.7329  161.4053 C   0  0  1  0  0  0  0  0  0  0  0  0
  129.7507  137.5262  161.3091 H   0  0  0  0  0  0  0  0  0  0  0  0
  130.4901  135.8863  160.2097 N   0  0  0  0  0  0  0  0  0  0  0  0
  131.3040  135.7726  159.6947 H   0  0  0  0  0  0  0  0  0  0  0  0
  129.3945  135.2859  159.8382 C   0  0  0  0  0  0  0  0  0  0  0  0
  129.3926  134.4914  158.7161 N   0  0  0  0  0  0  0  0  0  0  0  0
  130.6119  133.7838  158.3177 C   0  0  0  0  0  0  0  0  0  0  0  0
  130.3303  132.8042  157.1548 C   0  0  0  0  0  0  0  0  0  0  0  0
  131.1967  131.6007  157.4489 C   0  0  0  0  0  0  0  0  0  0  0  0
  131.6055  131.6072  158.6885 C   0  0  0  0  0  0  0  0  0  0  0  0
  131.0796  132.8150  159.4285 C   0  0  0  0  0  0  0  0  0  0  0  0
  128.2421  135.4426  160.5714 N   0  0  0  0  0  0  0  0  0  0  0  0
  127.2496  134.3659  160.6150 C   0  0  1  0  0  0  0  0  0  0  0  0
  127.6937  133.3762  160.5089 H   0  0  0  0  0  0  0  0  0  0  0  0
  126.2703  134.4783  161.7953 C   0  0  0  0  0  0  0  0  0  0  0  0
  125.1676  134.0317  160.8210 C   0  0  1  0  0  0  0  0  0  0  0  0
  125.0414  132.9503  160.7703 H   0  0  0  0  0  0  0  0  0  0  0  0
  123.9316  134.7269  160.9978 O   0  0  0  0  0  0  0  0  0  0  0  0
  126.0422  134.6035  159.6927 C   0  0  0  0  0  0  0  0  0  0  0  0
  130.2115  135.8839  162.6671 C   0  0  0  0  0  0  0  0  0  0  0  0
  131.6466  135.5661  163.1471 C   0  0  0  0  0  0  0  0  0  0  0  0
  134.1395  138.5138  162.8767 C   0  0  0  0  0  0  0  0  0  0  0  0
  135.5176  138.8698  163.4440 C   0  0  0  0  0  0  0  0  0  0  0  0
  136.3954  136.1018  163.7999 H   0  0  0  0  0  0  0  0  0  0  0  0
  137.0518  136.0015  162.1448 H   0  0  0  0  0  0  0  0  0  0  0  0
  134.6836  135.1542  162.3220 H   0  0  0  0  0  0  0  0  0  0  0  0
  134.8547  136.5228  161.1965 H   0  0  0  0  0  0  0  0  0  0  0  0
  133.9834  136.7565  164.1111 H   0  0  0  0  0  0  0  0  0  0  0  0
  132.2740  138.1527  161.0832 H   0  0  0  0  0  0  0  0  0  0  0  0
  128.5840  134.3994  158.1883 H   0  0  0  0  0  0  0  0  0  0  0  0
  131.4016  134.4873  158.0540 H   0  0  0  0  0  0  0  0  0  0  0  0
  129.2779  132.5205  157.1436 H   0  0  0  0  0  0  0  0  0  0  0  0
  130.6135  133.2533  156.2029 H   0  0  0  0  0  0  0  0  0  0  0  0
  131.4451  130.8362  156.7276 H   0  0  0  0  0  0  0  0  0  0  0  0
  132.2364  130.8486  159.1276 H   0  0  0  0  0  0  0  0  0  0  0  0
  131.8720  133.2717  160.0216 H   0  0  0  0  0  0  0  0  0  0  0  0
  130.2412  132.5361  160.0669 H   0  0  0  0  0  0  0  0  0  0  0  0
  128.0863  136.2660  161.0598 H   0  0  0  0  0  0  0  0  0  0  0  0
  126.4643  133.7616  162.5934 H   0  0  0  0  0  0  0  0  0  0  0  0
  126.1430  135.4969  162.1617 H   0  0  0  0  0  0  0  0  0  0  0  0
  123.9976  135.6837  160.8748 H   0  0  0  0  0  0  0  0  0  0  0  0
  125.8524  135.6564  159.4842 H   0  0  0  0  0  0  0  0  0  0  0  0
  126.0519  133.9879  158.7932 H   0  0  0  0  0  0  0  0  0  0  0  0
  129.6677  136.4616  163.4144 H   0  0  0  0  0  0  0  0  0  0  0  0
  129.6728  134.9711  162.4126 H   0  0  0  0  0  0  0  0  0  0  0  0
  131.6917  135.5674  164.2362 H   0  0  0  0  0  0  0  0  0  0  0  0
  131.9735  134.6028  162.7555 H   0  0  0  0  0  0  0  0  0  0  0  0
  134.1063  138.7630  161.8161 H   0  0  0  0  0  0  0  0  0  0  0  0
  133.3722  139.0780  163.4069 H   0  0  0  0  0  0  0  0  0  0  0  0
  135.5249  138.7046  164.5215 H   0  0  0  0  0  0  0  0  0  0  0  0
  135.7451  139.9145  163.2323 H   0  0  0  0  0  0  0  0  0  0  0  0
  1  2  2  0
  2 30  1  0
  2  3  1  0
  3  4  1  0
  3 31  1  0
  3 32  1  0
  4  5  1  0
  4 33  1  0
  4 34  1  0
  5  6  1  0
  5 29  1  0
  5 35  1  0
  6 28  1  0
  6  7  2  0
  7  8  1  0
  7 36  1  0
  8  9  1  6
  8 10  1  0
  8 27  1  0
 10 11  1  0
 12 10  2  0
 12 13  1  0
 12 19  1  0
 13 14  1  0
 13 37  1  0
 14 18  1  0
 14 15  1  0
 14 38  1  0
 15 16  1  0
 15 39  1  0
 15 40  1  0
 16 17  2  0
 16 41  1  0
 17 18  1  0
 17 42  1  0
 18 43  1  0
 18 44  1  0
 19 20  1  0
 19 45  1  0
 20 21  1  6
 20 26  1  0
 20 22  1  0
 22 23  1  0
 22 46  1  0
 22 47  1  0
 23 24  1  6
 23 25  1  0
 23 26  1  0
 25 48  1  0
 26 49  1  0
 26 50  1  0
 27 28  1  0
 27 51  1  0
 27 52  1  0
 28 53  1  0
 28 54  1  0
 29 30  1  0
 29 55  1  0
 29 56  1  0
 30 57  1  0
 30 58  1  0
M  CHG  1  10   1
M  END
>  <DOCK_score>  (1) 
-41.144203

>  <SMILES>  (1) 
O=C1CCC(C2=C[C@@H]([NH+]=C(NC3CC=CC3)N[C@H]3C[C@@H](O)C3)CC2)CC1

$$$$
