O=C(C=Cc1cn(-c2ccccc2)nc1-c1cccnc1)Nc1c[nH]nc1[C@H]1CCC[NH2+]C1
     RDKit          3D

 59 63  0  0  1  0  0  0  0  0999 V2000
  129.0662  138.7411  162.4129 O   0  0  0  0  0  0  0  0  0  0  0  0
  129.9910  137.9507  162.3599 C   0  0  0  0  0  0  0  0  0  0  0  0
  131.3078  138.3788  162.6639 C   0  0  0  0  0  0  0  0  0  0  0  0
  131.5369  139.6644  163.0125 C   0  0  0  0  0  0  0  0  0  0  0  0
  132.9002  140.1077  163.3271 C   0  0  0  0  0  0  0  0  0  0  0  0
  133.3433  140.6385  164.5238 C   0  0  0  0  0  0  0  0  0  0  0  0
  134.6546  140.9111  164.3926 N   0  0  0  0  0  0  0  0  0  0  0  0
  135.4680  141.4620  165.3911 C   0  0  0  0  0  0  0  0  0  0  0  0
  136.5557  142.2526  165.0449 C   0  0  0  0  0  0  0  0  0  0  0  0
  137.3527  142.7986  166.0320 C   0  0  0  0  0  0  0  0  0  0  0  0
  137.0745  142.5499  167.3637 C   0  0  0  0  0  0  0  0  0  0  0  0
  135.9955  141.7582  167.7114 C   0  0  0  0  0  0  0  0  0  0  0  0
  135.1914  141.2140  166.7293 C   0  0  0  0  0  0  0  0  0  0  0  0
  135.0813  140.5610  163.1087 N   0  0  0  0  0  0  0  0  0  0  0  0
  134.0654  140.0694  162.4356 C   0  0  0  0  0  0  0  0  0  0  0  0
  134.0905  139.5738  161.0389 C   0  0  0  0  0  0  0  0  0  0  0  0
  133.2795  140.1603  160.0620 C   0  0  0  0  0  0  0  0  0  0  0  0
  133.3444  139.6649  158.7713 C   0  0  0  0  0  0  0  0  0  0  0  0
  134.1921  138.6075  158.4941 C   0  0  0  0  0  0  0  0  0  0  0  0
  134.9413  138.0710  159.4376 N   0  0  0  0  0  0  0  0  0  0  0  0
  134.9184  138.5119  160.6787 C   0  0  0  0  0  0  0  0  0  0  0  0
  129.7627  136.6687  162.0123 N   0  0  0  0  0  0  0  0  0  0  0  0
  128.4555  136.2438  161.7108 C   0  0  0  0  0  0  0  0  0  0  0  0
  127.3092  136.7531  162.2301 C   0  0  0  0  0  0  0  0  0  0  0  0
  126.2719  136.0649  161.6866 N   0  0  0  0  0  0  0  0  0  0  0  0
  125.3311  136.2075  161.8749 H   0  0  0  0  0  0  0  0  0  0  0  0
  126.8013  135.1123  160.8069 N   0  0  0  0  0  0  0  0  0  0  0  0
  128.1051  135.2201  160.8180 C   0  0  0  0  0  0  0  0  0  0  0  0
  129.0665  134.3833  160.0140 C   0  0  1  0  0  0  0  0  0  0  0  0
  130.0055  134.2835  160.5584 H   0  0  0  0  0  0  0  0  0  0  0  0
  128.4626  132.9959  159.7775 C   0  0  0  0  0  0  0  0  0  0  0  0
  129.4122  132.1804  158.8952 C   0  0  0  0  0  0  0  0  0  0  0  0
  129.6600  132.9356  157.5878 C   0  0  0  0  0  0  0  0  0  0  0  0
  130.2618  134.2422  157.8796 N   0  0  0  0  0  0  0  0  0  0  0  0
  131.1134  134.1094  158.4042 H   0  0  0  0  0  0  0  0  0  0  0  0
  130.4718  134.7156  157.0137 H   0  0  0  0  0  0  0  0  0  0  0  0
  129.3269  135.0569  158.6650 C   0  0  0  0  0  0  0  0  0  0  0  0
  132.1280  137.6777  162.6169 H   0  0  0  0  0  0  0  0  0  0  0  0
  130.7167  140.3654  163.0594 H   0  0  0  0  0  0  0  0  0  0  0  0
  132.7440  140.8047  165.4069 H   0  0  0  0  0  0  0  0  0  0  0  0
  136.7760  142.4438  164.0051 H   0  0  0  0  0  0  0  0  0  0  0  0
  138.1963  143.4173  165.7634 H   0  0  0  0  0  0  0  0  0  0  0  0
  137.7016  142.9750  168.1335 H   0  0  0  0  0  0  0  0  0  0  0  0
  135.7811  141.5657  168.7523 H   0  0  0  0  0  0  0  0  0  0  0  0
  134.3484  140.5964  167.0016 H   0  0  0  0  0  0  0  0  0  0  0  0
  132.6230  140.9818  160.3075 H   0  0  0  0  0  0  0  0  0  0  0  0
  132.7360  140.0961  157.9901 H   0  0  0  0  0  0  0  0  0  0  0  0
  134.2414  138.2155  157.4890 H   0  0  0  0  0  0  0  0  0  0  0  0
  135.5464  138.0464  161.4238 H   0  0  0  0  0  0  0  0  0  0  0  0
  130.4992  136.0390  161.9701 H   0  0  0  0  0  0  0  0  0  0  0  0
  127.2357  137.5566  162.9481 H   0  0  0  0  0  0  0  0  0  0  0  0
  128.3276  132.4894  160.7331 H   0  0  0  0  0  0  0  0  0  0  0  0
  127.4990  133.0981  159.2784 H   0  0  0  0  0  0  0  0  0  0  0  0
  130.3584  132.0349  159.4165 H   0  0  0  0  0  0  0  0  0  0  0  0
  128.9640  131.2110  158.6772 H   0  0  0  0  0  0  0  0  0  0  0  0
  130.3355  132.3576  156.9572 H   0  0  0  0  0  0  0  0  0  0  0  0
  128.7132  133.0808  157.0676 H   0  0  0  0  0  0  0  0  0  0  0  0
  128.3873  135.1564  158.1215 H   0  0  0  0  0  0  0  0  0  0  0  0
  129.7567  136.0450  158.8298 H   0  0  0  0  0  0  0  0  0  0  0  0
  1  2  2  0
  2  3  1  0
  2 22  1  0
  3  4  2  0
  3 38  1  0
  4  5  1  0
  4 39  1  0
  5 15  1  0
  5  6  2  0
  6  7  1  0
  6 40  1  0
  7  8  1  0
  7 14  1  0
  8 13  1  0
  8  9  2  0
  9 10  1  0
  9 41  1  0
 10 11  2  0
 10 42  1  0
 11 12  1  0
 11 43  1  0
 12 13  2  0
 12 44  1  0
 13 45  1  0
 14 15  2  0
 15 16  1  0
 16 21  1  0
 16 17  2  0
 17 18  1  0
 17 46  1  0
 18 19  2  0
 18 47  1  0
 19 20  1  0
 19 48  1  0
 20 21  2  0
 21 49  1  0
 22 23  1  0
 22 50  1  0
 23 28  1  0
 23 24  2  0
 24 25  1  0
 24 51  1  0
 25 26  1  0
 25 27  1  0
 27 28  2  0
 28 29  1  0
 29 30  1  1
 29 37  1  0
 29 31  1  0
 31 32  1  0
 31 52  1  0
 31 53  1  0
 32 33  1  0
 32 54  1  0
 32 55  1  0
 33 34  1  0
 33 56  1  0
 33 57  1  0
 34 35  1  0
 34 36  1  0
 34 37  1  0
 37 58  1  0
 37 59  1  0
M  CHG  1  34   1
M  END
>  <DOCK_score>  (1) 
-41.248371

>  <SMILES>  (1) 
O=C(C=Cc1cn(-c2ccccc2)nc1-c1cccnc1)Nc1c[nH]nc1[C@H]1CCC[NH2+]C1

$$$$
