O=C1CCC([NH+]=C(NC[C@H]2CC=CCC2)NC2CC2)CN1
     RDKit          3D

 48 50  0  0  1  0  0  0  0  0999 V2000
  124.1550  133.6250  162.0625 O   0  0  0  0  0  0  0  0  0  0  0  0
  125.2622  134.0517  161.8115 C   0  0  0  0  0  0  0  0  0  0  0  0
  126.4396  133.1453  162.0299 C   0  0  0  0  0  0  0  0  0  0  0  0
  127.7271  133.9711  162.0851 C   0  0  0  0  0  0  0  0  0  0  0  0
  127.7466  134.9203  160.8812 C   0  0  2  0  0  0  0  0  0  0  0  0
  129.0439  135.5972  160.8095 N   0  0  0  0  0  0  0  0  0  0  0  0
  129.3435  136.1508  161.5475 H   0  0  0  0  0  0  0  0  0  0  0  0
  129.7955  135.4554  159.7540 C   0  0  0  0  0  0  0  0  0  0  0  0
  129.2199  135.2393  158.5244 N   0  0  0  0  0  0  0  0  0  0  0  0
  129.9324  134.4597  157.5090 C   0  0  0  0  0  0  0  0  0  0  0  0
  129.5691  132.9806  157.6538 C   0  0  1  0  0  0  0  0  0  0  0  0
  128.4949  132.8524  157.5206 H   0  0  0  0  0  0  0  0  0  0  0  0
  130.3235  132.1606  156.6049 C   0  0  0  0  0  0  0  0  0  0  0  0
  130.1875  130.6952  156.8987 C   0  0  0  0  0  0  0  0  0  0  0  0
  129.8101  130.2164  158.0405 C   0  0  0  0  0  0  0  0  0  0  0  0
  129.4461  131.0599  159.2271 C   0  0  0  0  0  0  0  0  0  0  0  0
  129.9791  132.4828  159.0456 C   0  0  0  0  0  0  0  0  0  0  0  0
  131.1637  135.5218  159.8705 N   0  0  0  0  0  0  0  0  0  0  0  0
  131.7769  135.7518  161.1810 C   0  0  0  0  0  0  0  0  0  0  0  0
  133.2366  135.3304  161.3618 C   0  0  0  0  0  0  0  0  0  0  0  0
  132.1194  134.5233  162.0263 C   0  0  0  0  0  0  0  0  0  0  0  0
  126.6364  135.9567  161.0598 C   0  0  0  0  0  0  0  0  0  0  0  0
  125.3691  135.3007  161.3568 N   0  0  0  0  0  0  0  0  0  0  0  0
  126.3135  132.6081  162.9698 H   0  0  0  0  0  0  0  0  0  0  0  0
  126.5029  132.4301  161.2097 H   0  0  0  0  0  0  0  0  0  0  0  0
  127.7536  134.5483  163.0092 H   0  0  0  0  0  0  0  0  0  0  0  0
  128.5908  133.3075  162.0414 H   0  0  0  0  0  0  0  0  0  0  0  0
  127.5752  134.3550  159.9652 H   0  0  0  0  0  0  0  0  0  0  0  0
  128.3422  135.6030  158.3289 H   0  0  0  0  0  0  0  0  0  0  0  0
  129.6468  134.8085  156.5166 H   0  0  0  0  0  0  0  0  0  0  0  0
  131.0069  134.5847  157.6428 H   0  0  0  0  0  0  0  0  0  0  0  0
  129.9122  132.3708  155.6176 H   0  0  0  0  0  0  0  0  0  0  0  0
  131.3780  132.4359  156.6210 H   0  0  0  0  0  0  0  0  0  0  0  0
  130.4193  129.9966  156.1083 H   0  0  0  0  0  0  0  0  0  0  0  0
  129.7534  129.1430  158.1458 H   0  0  0  0  0  0  0  0  0  0  0  0
  129.8798  130.6238  160.1271 H   0  0  0  0  0  0  0  0  0  0  0  0
  128.3612  131.0904  159.3271 H   0  0  0  0  0  0  0  0  0  0  0  0
  131.0659  132.4804  159.1284 H   0  0  0  0  0  0  0  0  0  0  0  0
  129.5551  133.1363  159.8080 H   0  0  0  0  0  0  0  0  0  0  0  0
  131.7231  135.4161  159.0852 H   0  0  0  0  0  0  0  0  0  0  0  0
  131.4424  136.6465  161.7061 H   0  0  0  0  0  0  0  0  0  0  0  0
  133.7405  134.8819  160.5057 H   0  0  0  0  0  0  0  0  0  0  0  0
  133.8626  135.9478  162.0058 H   0  0  0  0  0  0  0  0  0  0  0  0
  132.0105  134.6099  163.1073 H   0  0  0  0  0  0  0  0  0  0  0  0
  131.8881  133.5439  161.6074 H   0  0  0  0  0  0  0  0  0  0  0  0
  126.5351  136.5377  160.1430 H   0  0  0  0  0  0  0  0  0  0  0  0
  126.8966  136.6258  161.8798 H   0  0  0  0  0  0  0  0  0  0  0  0
  124.5523  135.8044  161.2152 H   0  0  0  0  0  0  0  0  0  0  0  0
  1  2  2  0
  2 23  1  0
  2  3  1  0
  3  4  1  0
  3 24  1  0
  3 25  1  0
  4  5  1  0
  4 26  1  0
  4 27  1  0
  5  6  1  0
  5 22  1  0
  5 28  1  6
  6  7  1  0
  8  6  2  0
  8  9  1  0
  8 18  1  0
  9 10  1  0
  9 29  1  0
 10 11  1  0
 10 30  1  0
 10 31  1  0
 11 12  1  6
 11 17  1  0
 11 13  1  0
 13 14  1  0
 13 32  1  0
 13 33  1  0
 14 15  2  0
 14 34  1  0
 15 16  1  0
 15 35  1  0
 16 17  1  0
 16 36  1  0
 16 37  1  0
 17 38  1  0
 17 39  1  0
 18 19  1  0
 18 40  1  0
 19 21  1  0
 19 20  1  0
 19 41  1  0
 20 21  1  0
 20 42  1  0
 20 43  1  0
 21 44  1  0
 21 45  1  0
 22 23  1  0
 22 46  1  0
 22 47  1  0
 23 48  1  0
M  CHG  1   6   1
M  END
>  <DOCK_score>  (1) 
-42.693127

>  <SMILES>  (1) 
O=C1CCC([NH+]=C(NC[C@H]2CC=CCC2)NC2CC2)CN1

$$$$
