Nc1ccc(-c2c[nH]c(N[C@H](C3=CCCC3=O)c3c(Cl)ccc4cccnc34)[nH+]2)cc1
     RDKit          3D

 52 56  0  0  1  0  0  0  0  0999 V2000
  130.6422  130.7598  152.2259 N   0  0  0  0  0  0  0  0  0  0  0  0
  130.6527  131.2508  153.5338 C   0  0  0  0  0  0  0  0  0  0  0  0
  130.1916  132.5354  153.7963 C   0  0  0  0  0  0  0  0  0  0  0  0
  130.2014  133.0223  155.0865 C   0  0  0  0  0  0  0  0  0  0  0  0
  130.6736  132.2247  156.1277 C   0  0  0  0  0  0  0  0  0  0  0  0
  130.6855  132.7465  157.5164 C   0  0  0  0  0  0  0  0  0  0  0  0
  130.0239  132.2153  158.5740 C   0  0  0  0  0  0  0  0  0  0  0  0
  130.3098  133.0067  159.6613 N   0  0  0  0  0  0  0  0  0  0  0  0
  129.9816  132.8813  160.5655 H   0  0  0  0  0  0  0  0  0  0  0  0
  131.1382  133.9983  159.2347 C   0  0  0  0  0  0  0  0  0  0  0  0
  131.6603  135.0084  160.0245 N   0  0  0  0  0  0  0  0  0  0  0  0
  131.3292  135.0686  161.4503 C   0  0  2  0  0  0  0  0  0  0  0  0
  131.3253  134.0608  161.8654 H   0  0  0  0  0  0  0  0  0  0  0  0
  129.9668  135.6887  161.6239 C   0  0  0  0  0  0  0  0  0  0  0  0
  129.4539  136.5879  160.7965 C   0  0  0  0  0  0  0  0  0  0  0  0
  128.0782  137.0036  161.2541 C   0  0  0  0  0  0  0  0  0  0  0  0
  127.8083  136.1960  162.5361 C   0  0  0  0  0  0  0  0  0  0  0  0
  129.0591  135.3633  162.7185 C   0  0  0  0  0  0  0  0  0  0  0  0
  129.2695  134.5718  163.6136 O   0  0  0  0  0  0  0  0  0  0  0  0
  132.3566  135.9041  162.1698 C   0  0  0  0  0  0  0  0  0  0  0  0
  132.6573  135.6457  163.4730 C   0  0  0  0  0  0  0  0  0  0  0  0
  131.8423  134.3536  164.2977 Cl  0  0  0  0  0  0  0  0  0  0  0  0
  133.6049  136.4064  164.1568 C   0  0  0  0  0  0  0  0  0  0  0  0
  134.2570  137.4294  163.5389 C   0  0  0  0  0  0  0  0  0  0  0  0
  133.9716  137.7239  162.1960 C   0  0  0  0  0  0  0  0  0  0  0  0
  134.6232  138.7738  161.5217 C   0  0  0  0  0  0  0  0  0  0  0  0
  134.2950  139.0029  160.2159 C   0  0  0  0  0  0  0  0  0  0  0  0
  133.3390  138.2067  159.5891 C   0  0  0  0  0  0  0  0  0  0  0  0
  132.7339  137.2296  160.2197 N   0  0  0  0  0  0  0  0  0  0  0  0
  133.0087  136.9524  161.4984 C   0  0  0  0  0  0  0  0  0  0  0  0
  131.3559  133.8427  157.9515 N   0  0  0  0  0  0  0  0  0  0  0  0
  131.9095  134.4185  157.4011 H   0  0  0  0  0  0  0  0  0  0  0  0
  131.1399  130.9383  155.8612 C   0  0  0  0  0  0  0  0  0  0  0  0
  131.1234  130.4538  154.5705 C   0  0  0  0  0  0  0  0  0  0  0  0
  130.3136  131.3154  151.5019 H   0  0  0  0  0  0  0  0  0  0  0  0
  130.9639  129.8634  152.0418 H   0  0  0  0  0  0  0  0  0  0  0  0
  129.8259  133.1529  152.9893 H   0  0  0  0  0  0  0  0  0  0  0  0
  129.8431  134.0205  155.2901 H   0  0  0  0  0  0  0  0  0  0  0  0
  129.3928  131.3390  158.5641 H   0  0  0  0  0  0  0  0  0  0  0  0
  132.2453  135.6763  159.6338 H   0  0  0  0  0  0  0  0  0  0  0  0
  129.9516  136.9702  159.9175 H   0  0  0  0  0  0  0  0  0  0  0  0
  128.0596  138.0717  161.4704 H   0  0  0  0  0  0  0  0  0  0  0  0
  127.3379  136.7597  160.4921 H   0  0  0  0  0  0  0  0  0  0  0  0
  127.6631  136.8645  163.3847 H   0  0  0  0  0  0  0  0  0  0  0  0
  126.9386  135.5521  162.4054 H   0  0  0  0  0  0  0  0  0  0  0  0
  133.8246  136.1811  165.1899 H   0  0  0  0  0  0  0  0  0  0  0  0
  134.9889  138.0116  164.0788 H   0  0  0  0  0  0  0  0  0  0  0  0
  135.3623  139.3810  162.0231 H   0  0  0  0  0  0  0  0  0  0  0  0
  134.7762  139.8008  159.6697 H   0  0  0  0  0  0  0  0  0  0  0  0
  133.0895  138.3997  158.5562 H   0  0  0  0  0  0  0  0  0  0  0  0
  131.5100  130.3203  156.6659 H   0  0  0  0  0  0  0  0  0  0  0  0
  131.4809  129.4557  154.3642 H   0  0  0  0  0  0  0  0  0  0  0  0
  1  2  1  0
  1 35  1  0
  1 36  1  0
  2 34  2  0
  2  3  1  0
  3  4  2  0
  3 37  1  0
  4  5  1  0
  4 38  1  0
  5  6  1  0
  5 33  2  0
  6 31  1  0
  6  7  2  0
  7  8  1  0
  7 39  1  0
  8  9  1  0
  8 10  1  0
 10 11  1  0
 10 31  2  0
 11 12  1  0
 11 40  1  0
 12 13  1  1
 12 14  1  0
 12 20  1  0
 14 18  1  0
 14 15  2  0
 15 16  1  0
 15 41  1  0
 16 17  1  0
 16 42  1  0
 16 43  1  0
 17 18  1  0
 17 44  1  0
 17 45  1  0
 18 19  2  0
 20 30  1  0
 20 21  2  0
 21 22  1  0
 21 23  1  0
 23 24  2  0
 23 46  1  0
 24 25  1  0
 24 47  1  0
 25 30  2  0
 25 26  1  0
 26 27  2  0
 26 48  1  0
 27 28  1  0
 27 49  1  0
 28 29  2  0
 28 50  1  0
 29 30  1  0
 31 32  1  0
 33 34  1  0
 33 51  1  0
 34 52  1  0
M  CHG  1  31   1
M  END
>  <DOCK_score>  (1) 
-56.702164

>  <SMILES>  (1) 
Nc1ccc(-c2c[nH]c(N[C@H](C3=CCCC3=O)c3c(Cl)ccc4cccnc34)[nH+]2)cc1

$$$$
