CCc1ccc(-c2c[nH]c(Nc3cccc4c3OCO4)[nH+]2)cc1
     RDKit          3D

 41 44  0  0  1  0  0  0  0  0999 V2000
  130.0663  128.6245  151.3787 C   0  0  0  0  0  0  0  0  0  0  0  0
  131.2465  129.5349  151.7235 C   0  0  0  0  0  0  0  0  0  0  0  0
  130.9307  130.3153  152.9734 C   0  0  0  0  0  0  0  0  0  0  0  0
  131.2664  129.7983  154.2114 C   0  0  0  0  0  0  0  0  0  0  0  0
  130.9848  130.5109  155.3593 C   0  0  0  0  0  0  0  0  0  0  0  0
  130.3506  131.7489  155.2698 C   0  0  0  0  0  0  0  0  0  0  0  0
  130.0402  132.5170  156.5003 C   0  0  0  0  0  0  0  0  0  0  0  0
  129.2543  132.1004  157.5242 C   0  0  0  0  0  0  0  0  0  0  0  0
  129.2374  133.1133  158.4514 N   0  0  0  0  0  0  0  0  0  0  0  0
  128.7600  133.1114  159.2958 H   0  0  0  0  0  0  0  0  0  0  0  0
  130.0143  134.1206  157.9666 C   0  0  0  0  0  0  0  0  0  0  0  0
  130.2593  135.3272  158.6009 N   0  0  0  0  0  0  0  0  0  0  0  0
  129.6855  135.5903  159.8509 C   0  0  0  0  0  0  0  0  0  0  0  0
  130.4971  135.8393  160.9498 C   0  0  0  0  0  0  0  0  0  0  0  0
  129.9310  136.1057  162.1819 C   0  0  0  0  0  0  0  0  0  0  0  0
  128.5564  136.1126  162.3288 C   0  0  0  0  0  0  0  0  0  0  0  0
  127.7377  135.8593  161.2384 C   0  0  0  0  0  0  0  0  0  0  0  0
  128.3020  135.5970  159.9948 C   0  0  0  0  0  0  0  0  0  0  0  0
  127.2970  135.3817  159.0952 O   0  0  0  0  0  0  0  0  0  0  0  0
  126.1246  135.1122  159.8866 C   0  0  0  0  0  0  0  0  0  0  0  0
  126.3786  135.8091  161.1207 O   0  0  0  0  0  0  0  0  0  0  0  0
  130.4968  133.7577  156.8030 N   0  0  0  0  0  0  0  0  0  0  0  0
  131.0843  134.2923  156.2463 H   0  0  0  0  0  0  0  0  0  0  0  0
  130.0095  132.2625  154.0199 C   0  0  0  0  0  0  0  0  0  0  0  0
  130.3011  131.5437  152.8783 C   0  0  0  0  0  0  0  0  0  0  0  0
  129.1756  129.2308  151.2134 H   0  0  0  0  0  0  0  0  0  0  0  0
  130.2947  128.0602  150.4747 H   0  0  0  0  0  0  0  0  0  0  0  0
  129.8878  127.9339  152.2029 H   0  0  0  0  0  0  0  0  0  0  0  0
  132.1371  128.9293  151.8885 H   0  0  0  0  0  0  0  0  0  0  0  0
  131.4248  130.2262  150.8991 H   0  0  0  0  0  0  0  0  0  0  0  0
  131.7539  128.8371  154.2798 H   0  0  0  0  0  0  0  0  0  0  0  0
  131.2514  130.1082  156.3252 H   0  0  0  0  0  0  0  0  0  0  0  0
  128.7402  131.1534  157.5966 H   0  0  0  0  0  0  0  0  0  0  0  0
  130.8284  135.9900  158.1793 H   0  0  0  0  0  0  0  0  0  0  0  0
  131.5715  135.8296  160.8405 H   0  0  0  0  0  0  0  0  0  0  0  0
  130.5646  136.3042  163.0338 H   0  0  0  0  0  0  0  0  0  0  0  0
  128.1190  136.3161  163.2950 H   0  0  0  0  0  0  0  0  0  0  0  0
  126.0208  134.0420  160.0653 H   0  0  0  0  0  0  0  0  0  0  0  0
  125.2324  135.5066  159.4006 H   0  0  0  0  0  0  0  0  0  0  0  0
  129.5176  133.2211  153.9447 H   0  0  0  0  0  0  0  0  0  0  0  0
  130.0369  131.9406  151.9093 H   0  0  0  0  0  0  0  0  0  0  0  0
  1  2  1  0
  1 26  1  0
  1 27  1  0
  1 28  1  0
  2  3  1  0
  2 29  1  0
  2 30  1  0
  3 25  2  0
  3  4  1  0
  4  5  2  0
  4 31  1  0
  5  6  1  0
  5 32  1  0
  6  7  1  0
  6 24  2  0
  7 22  1  0
  7  8  2  0
  8  9  1  0
  8 33  1  0
  9 10  1  0
  9 11  1  0
 11 12  1  0
 11 22  2  0
 12 13  1  0
 12 34  1  0
 13 18  1  0
 13 14  2  0
 14 15  1  0
 14 35  1  0
 15 16  2  0
 15 36  1  0
 16 17  1  0
 16 37  1  0
 17 21  1  0
 17 18  2  0
 18 19  1  0
 19 20  1  0
 20 21  1  0
 20 38  1  0
 20 39  1  0
 22 23  1  0
 24 25  1  0
 24 40  1  0
 25 41  1  0
M  CHG  1  22   1
M  END
>  <DOCK_score>  (1) 
-52.139668

>  <SMILES>  (1) 
CCc1ccc(-c2c[nH]c(Nc3cccc4c3OCO4)[nH+]2)cc1

$$$$
