C=C1CC(C=C[C@H](Nc2[nH]cc(-c3ccc(F)cc3)[nH+]2)c2ccccc2)C1
     RDKit          3D

 50 53  0  0  1  0  0  0  0  0999 V2000
  129.3779  140.7059  164.4286 C   0  0  0  0  0  0  0  0  0  0  0  0
  129.4055  139.6704  163.6268 C   0  0  0  0  0  0  0  0  0  0  0  0
  128.6741  139.2522  162.3667 C   0  0  0  0  0  0  0  0  0  0  0  0
  129.9047  138.3873  162.0442 C   0  0  0  0  0  0  0  0  0  0  0  0
  129.5610  137.0338  161.4778 C   0  0  0  0  0  0  0  0  0  0  0  0
  129.4400  136.8771  160.1828 C   0  0  0  0  0  0  0  0  0  0  0  0
  129.0900  135.5250  159.6168 C   0  0  2  0  0  0  0  0  0  0  0  0
  128.9775  134.8085  160.4305 H   0  0  0  0  0  0  0  0  0  0  0  0
  130.1586  135.0801  158.7188 N   0  0  0  0  0  0  0  0  0  0  0  0
  130.0590  133.8576  158.0767 C   0  0  0  0  0  0  0  0  0  0  0  0
  129.4061  132.7628  158.5533 N   0  0  0  0  0  0  0  0  0  0  0  0
  128.9314  132.6989  159.3968 H   0  0  0  0  0  0  0  0  0  0  0  0
  129.5443  131.7644  157.6193 C   0  0  0  0  0  0  0  0  0  0  0  0
  130.2768  132.2776  156.6002 C   0  0  0  0  0  0  0  0  0  0  0  0
  130.6785  131.5595  155.3658 C   0  0  0  0  0  0  0  0  0  0  0  0
  130.2702  132.0303  154.1191 C   0  0  0  0  0  0  0  0  0  0  0  0
  130.6509  131.3624  152.9733 C   0  0  0  0  0  0  0  0  0  0  0  0
  131.4282  130.2192  153.0612 C   0  0  0  0  0  0  0  0  0  0  0  0
  131.7941  129.5650  151.9373 F   0  0  0  0  0  0  0  0  0  0  0  0
  131.8315  129.7442  154.2988 C   0  0  0  0  0  0  0  0  0  0  0  0
  131.4604  130.4088  155.4496 C   0  0  0  0  0  0  0  0  0  0  0  0
  130.5732  133.5655  156.9069 N   0  0  0  0  0  0  0  0  0  0  0  0
  131.0859  134.1725  156.3506 H   0  0  0  0  0  0  0  0  0  0  0  0
  127.7965  135.6211  158.8496 C   0  0  0  0  0  0  0  0  0  0  0  0
  126.5932  135.4005  159.4932 C   0  0  0  0  0  0  0  0  0  0  0  0
  125.4064  135.4931  158.7903 C   0  0  0  0  0  0  0  0  0  0  0  0
  125.4235  135.7972  157.4420 C   0  0  0  0  0  0  0  0  0  0  0  0
  126.6272  136.0126  156.7973 C   0  0  0  0  0  0  0  0  0  0  0  0
  127.8137  135.9244  157.5011 C   0  0  0  0  0  0  0  0  0  0  0  0
  130.1856  138.3703  163.5566 C   0  0  0  0  0  0  0  0  0  0  0  0
  128.6991  141.5228  164.2325 H   0  0  0  0  0  0  0  0  0  0  0  0
  130.0339  140.7430  165.2856 H   0  0  0  0  0  0  0  0  0  0  0  0
  128.5158  140.0683  161.6616 H   0  0  0  0  0  0  0  0  0  0  0  0
  127.7703  138.6735  162.5571 H   0  0  0  0  0  0  0  0  0  0  0  0
  130.6659  138.9087  161.4637 H   0  0  0  0  0  0  0  0  0  0  0  0
  129.4097  136.1939  162.1397 H   0  0  0  0  0  0  0  0  0  0  0  0
  129.5911  137.7170  159.5209 H   0  0  0  0  0  0  0  0  0  0  0  0
  130.9359  135.6420  158.5739 H   0  0  0  0  0  0  0  0  0  0  0  0
  129.1453  130.7629  157.6843 H   0  0  0  0  0  0  0  0  0  0  0  0
  129.6605  132.9191  154.0498 H   0  0  0  0  0  0  0  0  0  0  0  0
  130.3390  131.7292  152.0065 H   0  0  0  0  0  0  0  0  0  0  0  0
  132.4370  128.8522  154.3628 H   0  0  0  0  0  0  0  0  0  0  0  0
  131.7755  130.0382  156.4138 H   0  0  0  0  0  0  0  0  0  0  0  0
  126.5800  135.1592  160.5458 H   0  0  0  0  0  0  0  0  0  0  0  0
  124.4660  135.3250  159.2941 H   0  0  0  0  0  0  0  0  0  0  0  0
  124.4964  135.8668  156.8924 H   0  0  0  0  0  0  0  0  0  0  0  0
  126.6405  136.2503  155.7438 H   0  0  0  0  0  0  0  0  0  0  0  0
  128.7541  136.0926  156.9974 H   0  0  0  0  0  0  0  0  0  0  0  0
  129.7066  137.5437  164.0814 H   0  0  0  0  0  0  0  0  0  0  0  0
  131.2410  138.4782  163.8069 H   0  0  0  0  0  0  0  0  0  0  0  0
  1  2  2  0
  1 31  1  0
  1 32  1  0
  2 30  1  0
  2  3  1  0
  3  4  1  0
  3 33  1  0
  3 34  1  0
  4  5  1  0
  4 30  1  0
  4 35  1  0
  5  6  2  0
  5 36  1  0
  6  7  1  0
  6 37  1  0
  7  8  1  1
  7  9  1  0
  7 24  1  0
  9 38  1  0
 10  9  1  0
 10 22  2  0
 10 11  1  0
 11 12  1  0
 11 13  1  0
 13 14  2  0
 13 39  1  0
 14 15  1  0
 14 22  1  0
 15 21  1  0
 15 16  2  0
 16 17  1  0
 16 40  1  0
 17 18  2  0
 17 41  1  0
 18 19  1  0
 18 20  1  0
 20 21  2  0
 20 42  1  0
 21 43  1  0
 22 23  1  0
 24 29  1  0
 24 25  2  0
 25 26  1  0
 25 44  1  0
 26 27  2  0
 26 45  1  0
 27 28  1  0
 27 46  1  0
 28 29  2  0
 28 47  1  0
 29 48  1  0
 30 49  1  0
 30 50  1  0
M  CHG  1  22   1
M  END
>  <DOCK_score>  (1) 
-57.315258

>  <SMILES>  (1) 
C=C1CC(C=C[C@H](Nc2[nH]cc(-c3ccc(F)cc3)[nH+]2)c2ccccc2)C1

$$$$
