C[C@H](NC(NC1CC=CC1)=[NH+]Cc1nc(N)ccc1Cl)c1cnn(-c2ccccc2)c1
     RDKit          3D

 58 61  0  0  1  0  0  0  0  0999 V2000
  128.6429  135.7563  157.8172 C   0  0  0  0  0  0  0  0  0  0  0  0
  129.2412  134.7653  158.8176 C   0  0  2  0  0  0  0  0  0  0  0  0
  128.5082  134.5453  159.5938 H   0  0  0  0  0  0  0  0  0  0  0  0
  130.4381  135.3497  159.4277 N   0  0  0  0  0  0  0  0  0  0  0  0
  130.7944  135.0047  160.7098 C   0  0  0  0  0  0  0  0  0  0  0  0
  130.0277  134.1111  161.4196 N   0  0  0  0  0  0  0  0  0  0  0  0
  129.9527  134.2077  162.8795 C   0  0  0  0  0  0  0  0  0  0  0  0
  128.5260  133.8900  163.3844 C   0  0  0  0  0  0  0  0  0  0  0  0
  128.3054  134.8421  164.5366 C   0  0  0  0  0  0  0  0  0  0  0  0
  129.1770  135.8137  164.5170 C   0  0  0  0  0  0  0  0  0  0  0  0
  130.1241  135.6712  163.3484 C   0  0  0  0  0  0  0  0  0  0  0  0
  131.8593  135.5248  161.2527 N   0  0  0  0  0  0  0  0  0  0  0  0
  132.1107  135.2812  162.1574 H   0  0  0  0  0  0  0  0  0  0  0  0
  132.6763  136.4771  160.4966 C   0  0  0  0  0  0  0  0  0  0  0  0
  133.8392  136.9250  161.3439 C   0  0  0  0  0  0  0  0  0  0  0  0
  133.9793  136.4437  162.5648 N   0  0  0  0  0  0  0  0  0  0  0  0
  134.9856  136.8087  163.3437 C   0  0  0  0  0  0  0  0  0  0  0  0
  135.0940  136.2761  164.6239 N   0  0  0  0  0  0  0  0  0  0  0  0
  135.9352  137.7206  162.8940 C   0  0  0  0  0  0  0  0  0  0  0  0
  135.8156  138.2427  161.6190 C   0  0  0  0  0  0  0  0  0  0  0  0
  134.7481  137.8296  160.8307 C   0  0  0  0  0  0  0  0  0  0  0  0
  134.5555  138.4490  159.2205 Cl  0  0  0  0  0  0  0  0  0  0  0  0
  129.6128  133.4920  158.1023 C   0  0  0  0  0  0  0  0  0  0  0  0
  129.6208  132.2079  158.6579 C   0  0  0  0  0  0  0  0  0  0  0  0
  129.9970  131.3631  157.7318 N   0  0  0  0  0  0  0  0  0  0  0  0
  130.2409  132.0831  156.5552 N   0  0  0  0  0  0  0  0  0  0  0  0
  130.6631  131.5452  155.3314 C   0  0  0  0  0  0  0  0  0  0  0  0
  130.8686  132.3777  154.2395 C   0  0  0  0  0  0  0  0  0  0  0  0
  131.2850  131.8448  153.0353 C   0  0  0  0  0  0  0  0  0  0  0  0
  131.4978  130.4837  152.9166 C   0  0  0  0  0  0  0  0  0  0  0  0
  131.2940  129.6519  154.0023 C   0  0  0  0  0  0  0  0  0  0  0  0
  130.8772  130.1789  155.2090 C   0  0  0  0  0  0  0  0  0  0  0  0
  130.0029  133.3894  156.8105 C   0  0  0  0  0  0  0  0  0  0  0  0
  129.3759  135.9762  157.0410 H   0  0  0  0  0  0  0  0  0  0  0  0
  127.7524  135.3214  157.3633 H   0  0  0  0  0  0  0  0  0  0  0  0
  128.3741  136.6772  158.3347 H   0  0  0  0  0  0  0  0  0  0  0  0
  130.9791  135.9803  158.9270 H   0  0  0  0  0  0  0  0  0  0  0  0
  129.5364  133.4165  160.9536 H   0  0  0  0  0  0  0  0  0  0  0  0
  130.6891  133.5569  163.3509 H   0  0  0  0  0  0  0  0  0  0  0  0
  127.7952  134.0715  162.5963 H   0  0  0  0  0  0  0  0  0  0  0  0
  128.4661  132.8573  163.7282 H   0  0  0  0  0  0  0  0  0  0  0  0
  127.5287  134.7331  165.2790 H   0  0  0  0  0  0  0  0  0  0  0  0
  129.2161  136.6139  165.2412 H   0  0  0  0  0  0  0  0  0  0  0  0
  131.1509  135.8497  163.6680 H   0  0  0  0  0  0  0  0  0  0  0  0
  129.8507  136.3605  162.5495 H   0  0  0  0  0  0  0  0  0  0  0  0
  133.0496  135.9973  159.5917 H   0  0  0  0  0  0  0  0  0  0  0  0
  132.0697  137.3413  160.2257 H   0  0  0  0  0  0  0  0  0  0  0  0
  134.4342  135.6404  164.9421 H   0  0  0  0  0  0  0  0  0  0  0  0
  135.8294  136.5405  165.1984 H   0  0  0  0  0  0  0  0  0  0  0  0
  136.7545  138.0170  163.5322 H   0  0  0  0  0  0  0  0  0  0  0  0
  136.5376  138.9524  161.2429 H   0  0  0  0  0  0  0  0  0  0  0  0
  129.3616  131.9571  159.6759 H   0  0  0  0  0  0  0  0  0  0  0  0
  130.7033  133.4410  154.3318 H   0  0  0  0  0  0  0  0  0  0  0  0
  131.4451  132.4919  152.1856 H   0  0  0  0  0  0  0  0  0  0  0  0
  131.8195  130.0688  151.9727 H   0  0  0  0  0  0  0  0  0  0  0  0
  131.4610  128.5891  153.9065 H   0  0  0  0  0  0  0  0  0  0  0  0
  130.7182  129.5287  156.0566 H   0  0  0  0  0  0  0  0  0  0  0  0
  130.1037  134.2043  156.1089 H   0  0  0  0  0  0  0  0  0  0  0  0
  1  2  1  0
  1 34  1  0
  1 35  1  0
  1 36  1  0
  2  3  1  1
  2  4  1  0
  2 23  1  0
  4 37  1  0
  5  4  1  0
  5  6  1  0
  5 12  2  0
  6  7  1  0
  6 38  1  0
  7 11  1  0
  7  8  1  0
  7 39  1  0
  8  9  1  0
  8 40  1  0
  8 41  1  0
  9 10  2  0
  9 42  1  0
 10 11  1  0
 10 43  1  0
 11 44  1  0
 11 45  1  0
 12 13  1  0
 12 14  1  0
 14 15  1  0
 14 46  1  0
 14 47  1  0
 15 21  1  0
 15 16  2  0
 16 17  1  0
 17 18  1  0
 17 19  2  0
 18 48  1  0
 18 49  1  0
 19 20  1  0
 19 50  1  0
 20 21  2  0
 20 51  1  0
 21 22  1  0
 23 33  2  0
 23 24  1  0
 24 25  2  0
 24 52  1  0
 25 26  1  0
 26 27  1  0
 26 33  1  0
 27 32  1  0
 27 28  2  0
 28 29  1  0
 28 53  1  0
 29 30  2  0
 29 54  1  0
 30 31  1  0
 30 55  1  0
 31 32  2  0
 31 56  1  0
 32 57  1  0
 33 58  1  0
M  CHG  1  12   1
M  END
>  <DOCK_score>  (1) 
-56.466171

>  <SMILES>  (1) 
C[C@H](NC(NC1CC=CC1)=[NH+]Cc1nc(N)ccc1Cl)c1cnn(-c2ccccc2)c1

$$$$
