Oc1ccc(-c2c[nH]c(Nc3ccc(Nc4ccc(F)cc4)cc3)[nH+]2)cc1
     RDKit          3D

 45 48  0  0  1  0  0  0  0  0999 V2000
  131.4078  129.1685  151.4764 O   0  0  0  0  0  0  0  0  0  0  0  0
  131.1302  129.8629  152.6113 C   0  0  0  0  0  0  0  0  0  0  0  0
  130.1991  130.8928  152.5819 C   0  0  0  0  0  0  0  0  0  0  0  0
  129.9149  131.6001  153.7316 C   0  0  0  0  0  0  0  0  0  0  0  0
  130.5630  131.2797  154.9233 C   0  0  0  0  0  0  0  0  0  0  0  0
  130.2601  132.0387  156.1615 C   0  0  0  0  0  0  0  0  0  0  0  0
  129.7655  131.5216  157.3135 C   0  0  0  0  0  0  0  0  0  0  0  0
  129.6411  132.5659  158.1981 N   0  0  0  0  0  0  0  0  0  0  0  0
  129.3159  132.5105  159.1103 H   0  0  0  0  0  0  0  0  0  0  0  0
  130.0562  133.6924  157.5569 C   0  0  0  0  0  0  0  0  0  0  0  0
  130.0864  134.9657  158.1010 N   0  0  0  0  0  0  0  0  0  0  0  0
  129.1584  135.3289  159.0847 C   0  0  0  0  0  0  0  0  0  0  0  0
  129.5005  136.2679  160.0493 C   0  0  0  0  0  0  0  0  0  0  0  0
  128.5876  136.6222  161.0223 C   0  0  0  0  0  0  0  0  0  0  0  0
  127.3231  136.0472  161.0306 C   0  0  0  0  0  0  0  0  0  0  0  0
  126.3957  136.4104  162.0140 N   0  0  0  0  0  0  0  0  0  0  0  0
  126.6913  136.2022  163.3646 C   0  0  0  0  0  0  0  0  0  0  0  0
  126.1659  137.0508  164.3305 C   0  0  0  0  0  0  0  0  0  0  0  0
  126.4546  136.8398  165.6645 C   0  0  0  0  0  0  0  0  0  0  0  0
  127.2763  135.7898  166.0384 C   0  0  0  0  0  0  0  0  0  0  0  0
  127.5616  135.5883  167.3435 F   0  0  0  0  0  0  0  0  0  0  0  0
  127.8063  134.9462  165.0767 C   0  0  0  0  0  0  0  0  0  0  0  0
  127.5156  135.1497  163.7420 C   0  0  0  0  0  0  0  0  0  0  0  0
  126.9809  135.1086  160.0657 C   0  0  0  0  0  0  0  0  0  0  0  0
  127.8955  134.7508  159.0956 C   0  0  0  0  0  0  0  0  0  0  0  0
  130.4281  133.3723  156.3412 N   0  0  0  0  0  0  0  0  0  0  0  0
  130.7695  133.9908  155.6764 H   0  0  0  0  0  0  0  0  0  0  0  0
  131.5007  130.2487  154.9479 C   0  0  0  0  0  0  0  0  0  0  0  0
  131.7770  129.5421  153.7959 C   0  0  0  0  0  0  0  0  0  0  0  0
  130.9090  129.4636  150.7023 H   0  0  0  0  0  0  0  0  0  0  0  0
  129.6972  131.1406  151.6583 H   0  0  0  0  0  0  0  0  0  0  0  0
  129.1907  132.4008  153.7085 H   0  0  0  0  0  0  0  0  0  0  0  0
  129.5202  130.4867  157.5011 H   0  0  0  0  0  0  0  0  0  0  0  0
  130.7503  135.6059  157.8006 H   0  0  0  0  0  0  0  0  0  0  0  0
  130.4825  136.7174  160.0407 H   0  0  0  0  0  0  0  0  0  0  0  0
  128.8553  137.3491  161.7750 H   0  0  0  0  0  0  0  0  0  0  0  0
  125.5479  136.8065  161.7584 H   0  0  0  0  0  0  0  0  0  0  0  0
  125.5283  137.8724  164.0390 H   0  0  0  0  0  0  0  0  0  0  0  0
  126.0430  137.4970  166.4164 H   0  0  0  0  0  0  0  0  0  0  0  0
  128.4472  134.1280  165.3707 H   0  0  0  0  0  0  0  0  0  0  0  0
  127.9293  134.4916  162.9924 H   0  0  0  0  0  0  0  0  0  0  0  0
  125.9989  134.6589  160.0741 H   0  0  0  0  0  0  0  0  0  0  0  0
  127.6295  134.0210  158.3454 H   0  0  0  0  0  0  0  0  0  0  0  0
  132.0076  130.0009  155.8689 H   0  0  0  0  0  0  0  0  0  0  0  0
  132.5008  128.7407  153.8153 H   0  0  0  0  0  0  0  0  0  0  0  0
  1  2  1  0
  1 30  1  0
  2 29  2  0
  2  3  1  0
  3  4  2  0
  3 31  1  0
  4  5  1  0
  4 32  1  0
  5  6  1  0
  5 28  2  0
  6 26  1  0
  6  7  2  0
  7  8  1  0
  7 33  1  0
  8  9  1  0
  8 10  1  0
 10 11  1  0
 10 26  2  0
 11 12  1  0
 11 34  1  0
 12 25  1  0
 12 13  2  0
 13 14  1  0
 13 35  1  0
 14 15  2  0
 14 36  1  0
 15 16  1  0
 15 24  1  0
 16 17  1  0
 16 37  1  0
 17 23  1  0
 17 18  2  0
 18 19  1  0
 18 38  1  0
 19 20  2  0
 19 39  1  0
 20 21  1  0
 20 22  1  0
 22 23  2  0
 22 40  1  0
 23 41  1  0
 24 25  2  0
 24 42  1  0
 25 43  1  0
 26 27  1  0
 28 29  1  0
 28 44  1  0
 29 45  1  0
M  CHG  1  26   1
M  END
>  <DOCK_score>  (1) 
-54.608604

>  <SMILES>  (1) 
Oc1ccc(-c2c[nH]c(Nc3ccc(Nc4ccc(F)cc4)cc3)[nH+]2)cc1

$$$$
