CCc1ccc(-c2c[nH]c(N[C@@H](C3=CCCC3)C(C)c3cccc(F)c3)[nH+]2)cc1
     RDKit          3D

 58 61  0  0  1  0  0  0  0  0999 V2000
  132.1061  129.5762  152.6823 C   0  0  0  0  0  0  0  0  0  0  0  0
  130.6844  129.6959  153.2350 C   0  0  0  0  0  0  0  0  0  0  0  0
  130.7017  130.5317  154.4888 C   0  0  0  0  0  0  0  0  0  0  0  0
  130.5375  131.9027  154.4055 C   0  0  0  0  0  0  0  0  0  0  0  0
  130.5475  132.6725  155.5509 C   0  0  0  0  0  0  0  0  0  0  0  0
  130.7342  132.0673  156.7924 C   0  0  0  0  0  0  0  0  0  0  0  0
  130.7512  132.8899  158.0266 C   0  0  0  0  0  0  0  0  0  0  0  0
  130.3643  132.4844  159.2614 C   0  0  0  0  0  0  0  0  0  0  0  0
  130.5429  133.5528  160.1061 N   0  0  0  0  0  0  0  0  0  0  0  0
  130.3535  133.5712  161.0572 H   0  0  0  0  0  0  0  0  0  0  0  0
  131.0342  134.5811  159.3621 C   0  0  0  0  0  0  0  0  0  0  0  0
  131.3510  135.8416  159.8384 N   0  0  0  0  0  0  0  0  0  0  0  0
  131.1632  136.1573  161.2566 C   0  0  1  0  0  0  0  0  0  0  0  0
  130.2346  135.7084  161.6089 H   0  0  0  0  0  0  0  0  0  0  0  0
  132.3199  135.6077  162.0510 C   0  0  0  0  0  0  0  0  0  0  0  0
  133.3249  134.9536  161.5356 C   0  0  0  0  0  0  0  0  0  0  0  0
  134.3129  134.5446  162.6033 C   0  0  0  0  0  0  0  0  0  0  0  0
  133.9519  135.4153  163.8291 C   0  0  0  0  0  0  0  0  0  0  0  0
  132.4653  135.7359  163.5496 C   0  0  0  0  0  0  0  0  0  0  0  0
  131.0964  137.6752  161.4368 C   0  0  2  0  0  0  0  0  0  0  0  0
  129.6954  138.1708  161.0726 C   0  0  0  0  0  0  0  0  0  0  0  0
  132.1113  138.3331  160.5378 C   0  0  0  0  0  0  0  0  0  0  0  0
  131.7597  138.7023  159.2526 C   0  0  0  0  0  0  0  0  0  0  0  0
  132.6895  139.3063  158.4271 C   0  0  0  0  0  0  0  0  0  0  0  0
  133.9719  139.5418  158.8857 C   0  0  0  0  0  0  0  0  0  0  0  0
  134.3252  139.1721  160.1723 C   0  0  0  0  0  0  0  0  0  0  0  0
  135.5786  139.4014  160.6216 F   0  0  0  0  0  0  0  0  0  0  0  0
  133.3911  138.5723  161.0003 C   0  0  0  0  0  0  0  0  0  0  0  0
  131.1620  134.1796  158.1210 N   0  0  0  0  0  0  0  0  0  0  0  0
  131.4954  134.7188  157.3868 H   0  0  0  0  0  0  0  0  0  0  0  0
  130.9045  130.6861  156.8699 C   0  0  0  0  0  0  0  0  0  0  0  0
  130.8875  129.9257  155.7184 C   0  0  0  0  0  0  0  0  0  0  0  0
  132.4910  130.5695  152.4516 H   0  0  0  0  0  0  0  0  0  0  0  0
  132.7464  129.1023  153.4263 H   0  0  0  0  0  0  0  0  0  0  0  0
  132.0936  128.9717  151.7754 H   0  0  0  0  0  0  0  0  0  0  0  0
  130.0441  130.1699  152.4911 H   0  0  0  0  0  0  0  0  0  0  0  0
  130.2995  128.7027  153.4658 H   0  0  0  0  0  0  0  0  0  0  0  0
  130.3972  132.3710  153.4425 H   0  0  0  0  0  0  0  0  0  0  0  0
  130.4147  133.7422  155.4850 H   0  0  0  0  0  0  0  0  0  0  0  0
  129.9875  131.5084  159.5294 H   0  0  0  0  0  0  0  0  0  0  0  0
  131.6971  136.5161  159.2331 H   0  0  0  0  0  0  0  0  0  0  0  0
  133.4368  134.7351  160.4839 H   0  0  0  0  0  0  0  0  0  0  0  0
  135.3330  134.7499  162.2788 H   0  0  0  0  0  0  0  0  0  0  0  0
  134.1945  133.4874  162.8405 H   0  0  0  0  0  0  0  0  0  0  0  0
  134.5509  136.3259  163.8523 H   0  0  0  0  0  0  0  0  0  0  0  0
  134.0633  134.8522  164.7556 H   0  0  0  0  0  0  0  0  0  0  0  0
  132.2291  136.7512  163.8685 H   0  0  0  0  0  0  0  0  0  0  0  0
  131.8202  135.0181  164.0563 H   0  0  0  0  0  0  0  0  0  0  0  0
  131.3126  137.9278  162.4750 H   0  0  0  0  0  0  0  0  0  0  0  0
  128.9725  137.7722  161.7843 H   0  0  0  0  0  0  0  0  0  0  0  0
  129.6753  139.2601  161.1059 H   0  0  0  0  0  0  0  0  0  0  0  0
  129.4403  137.8332  160.0681 H   0  0  0  0  0  0  0  0  0  0  0  0
  130.7579  138.5191  158.8935 H   0  0  0  0  0  0  0  0  0  0  0  0
  132.4137  139.5946  157.4236 H   0  0  0  0  0  0  0  0  0  0  0  0
  134.6982  140.0137  158.2407 H   0  0  0  0  0  0  0  0  0  0  0  0
  133.6642  138.2880  162.0058 H   0  0  0  0  0  0  0  0  0  0  0  0
  131.0499  130.2119  157.8293 H   0  0  0  0  0  0  0  0  0  0  0  0
  131.0196  128.8554  155.7773 H   0  0  0  0  0  0  0  0  0  0  0  0
  1  2  1  0
  1 33  1  0
  1 34  1  0
  1 35  1  0
  2  3  1  0
  2 36  1  0
  2 37  1  0
  3 32  2  0
  3  4  1  0
  4  5  2  0
  4 38  1  0
  5  6  1  0
  5 39  1  0
  6  7  1  0
  6 31  2  0
  7 29  1  0
  7  8  2  0
  8  9  1  0
  8 40  1  0
  9 10  1  0
  9 11  1  0
 11 12  1  0
 11 29  2  0
 12 13  1  0
 12 41  1  0
 13 14  1  1
 13 15  1  0
 13 20  1  0
 15 19  1  0
 15 16  2  0
 16 17  1  0
 16 42  1  0
 17 18  1  0
 17 43  1  0
 17 44  1  0
 18 19  1  0
 18 45  1  0
 18 46  1  0
 19 47  1  0
 19 48  1  0
 20 21  1  0
 20 22  1  0
 20 49  1  1
 21 50  1  0
 21 51  1  0
 21 52  1  0
 22 28  1  0
 22 23  2  0
 23 24  1  0
 23 53  1  0
 24 25  2  0
 24 54  1  0
 25 26  1  0
 25 55  1  0
 26 27  1  0
 26 28  2  0
 28 56  1  0
 29 30  1  0
 31 32  1  0
 31 57  1  0
 32 58  1  0
M  CHG  1  29   1
M  END
>  <DOCK_score>  (1) 
-58.541225

>  <SMILES>  (1) 
CCc1ccc(-c2c[nH]c(N[C@@H](C3=CCCC3)C(C)c3cccc(F)c3)[nH+]2)cc1

$$$$
