c1ccc(CNc2ccc(-c3n[nH]cc3C[NH2+]C[C@@H]3CC4CC3C4)o2)cc1
     RDKit          3D

 54 58  0  0  1  0  0  0  0  0999 V2000
  125.8612  138.4659  166.5969 C   0  0  0  0  0  0  0  0  0  0  0  0
  126.4479  139.4198  165.7857 C   0  0  0  0  0  0  0  0  0  0  0  0
  126.8962  139.0734  164.5247 C   0  0  0  0  0  0  0  0  0  0  0  0
  126.7574  137.7737  164.0749 C   0  0  0  0  0  0  0  0  0  0  0  0
  127.2456  137.3960  162.7001 C   0  0  0  0  0  0  0  0  0  0  0  0
  126.4184  136.3095  162.1694 N   0  0  0  0  0  0  0  0  0  0  0  0
  126.9662  135.3866  161.2862 C   0  0  0  0  0  0  0  0  0  0  0  0
  126.3116  134.3365  160.7306 C   0  0  0  0  0  0  0  0  0  0  0  0
  127.2355  133.6669  159.9041 C   0  0  0  0  0  0  0  0  0  0  0  0
  128.4102  134.3439  159.9977 C   0  0  0  0  0  0  0  0  0  0  0  0
  129.6655  133.9999  159.2985 C   0  0  0  0  0  0  0  0  0  0  0  0
  129.8432  132.9843  158.4766 N   0  0  0  0  0  0  0  0  0  0  0  0
  131.1709  133.0127  158.0312 N   0  0  0  0  0  0  0  0  0  0  0  0
  131.5785  132.3822  157.4171 H   0  0  0  0  0  0  0  0  0  0  0  0
  131.7842  134.0725  158.6013 C   0  0  0  0  0  0  0  0  0  0  0  0
  130.8872  134.6993  159.3923 C   0  0  0  0  0  0  0  0  0  0  0  0
  131.1436  135.9305  160.2223 C   0  0  0  0  0  0  0  0  0  0  0  0
  132.5393  136.3555  160.0500 N   0  0  0  0  0  0  0  0  0  0  0  0
  132.7096  136.5638  159.0775 H   0  0  0  0  0  0  0  0  0  0  0  0
  133.1556  135.6146  160.3483 H   0  0  0  0  0  0  0  0  0  0  0  0
  132.7891  137.5559  160.8591 C   0  0  0  0  0  0  0  0  0  0  0  0
  134.2426  137.9984  160.6795 C   0  0  2  0  0  0  0  0  0  0  0  0
  134.9352  137.2176  160.9938 H   0  0  0  0  0  0  0  0  0  0  0  0
  134.5273  139.3719  161.4164 C   0  0  0  0  0  0  0  0  0  0  0  0
  134.8945  140.2404  160.1647 C   0  0  2  0  0  0  0  0  0  0  0  0
  133.9064  139.8749  159.0154 C   0  0  0  0  0  0  0  0  0  0  0  0
  134.5247  138.4568  159.2079 C   0  0  1  0  0  0  0  0  0  0  0  0
  135.8190  139.2972  159.3535 C   0  0  0  0  0  0  0  0  0  0  0  0
  128.2350  135.3811  160.8435 O   0  0  0  0  0  0  0  0  0  0  0  0
  126.1656  136.8217  164.8839 C   0  0  0  0  0  0  0  0  0  0  0  0
  125.7220  137.1670  166.1468 C   0  0  0  0  0  0  0  0  0  0  0  0
  125.5104  138.7377  167.5817 H   0  0  0  0  0  0  0  0  0  0  0  0
  126.5560  140.4354  166.1370 H   0  0  0  0  0  0  0  0  0  0  0  0
  127.3544  139.8182  163.8909 H   0  0  0  0  0  0  0  0  0  0  0  0
  128.2829  137.0664  162.7608 H   0  0  0  0  0  0  0  0  0  0  0  0
  127.1772  138.2605  162.0399 H   0  0  0  0  0  0  0  0  0  0  0  0
  125.4882  136.2344  162.4345 H   0  0  0  0  0  0  0  0  0  0  0  0
  125.2785  134.0655  160.8910 H   0  0  0  0  0  0  0  0  0  0  0  0
  127.0463  132.7852  159.3099 H   0  0  0  0  0  0  0  0  0  0  0  0
  132.8129  134.3659  158.4523 H   0  0  0  0  0  0  0  0  0  0  0  0
  130.9595  135.7054  161.2728 H   0  0  0  0  0  0  0  0  0  0  0  0
  130.4776  136.7312  159.9003 H   0  0  0  0  0  0  0  0  0  0  0  0
  132.6049  137.3308  161.9095 H   0  0  0  0  0  0  0  0  0  0  0  0
  132.1232  138.3564  160.5369 H   0  0  0  0  0  0  0  0  0  0  0  0
  135.3659  139.2955  162.1085 H   0  0  0  0  0  0  0  0  0  0  0  0
  133.6349  139.7494  161.9158 H   0  0  0  0  0  0  0  0  0  0  0  0
  135.1721  141.2817  160.3276 H   0  0  0  0  0  0  0  0  0  0  0  0
  132.8536  139.9470  159.2877 H   0  0  0  0  0  0  0  0  0  0  0  0
  134.1390  140.3406  158.0577 H   0  0  0  0  0  0  0  0  0  0  0  0
  134.4329  137.7152  158.4141 H   0  0  0  0  0  0  0  0  0  0  0  0
  136.1833  139.7231  158.4188 H   0  0  0  0  0  0  0  0  0  0  0  0
  136.5993  138.8181  159.9450 H   0  0  0  0  0  0  0  0  0  0  0  0
  126.0531  135.8073  164.5307 H   0  0  0  0  0  0  0  0  0  0  0  0
  125.2632  136.4223  166.7803 H   0  0  0  0  0  0  0  0  0  0  0  0
  1 31  2  0
  1  2  1  0
  1 32  1  0
  2  3  2  0
  2 33  1  0
  3  4  1  0
  3 34  1  0
  4  5  1  0
  4 30  2  0
  5  6  1  0
  5 35  1  0
  5 36  1  0
  6  7  1  0
  6 37  1  0
  7 29  1  0
  7  8  2  0
  8  9  1  0
  8 38  1  0
  9 10  2  0
  9 39  1  0
 10 11  1  0
 10 29  1  0
 11 16  1  0
 11 12  2  0
 12 13  1  0
 13 14  1  0
 13 15  1  0
 15 16  2  0
 15 40  1  0
 16 17  1  0
 17 18  1  0
 17 41  1  0
 17 42  1  0
 18 19  1  0
 18 20  1  0
 18 21  1  0
 21 22  1  0
 21 43  1  0
 21 44  1  0
 22 23  1  1
 22 27  1  0
 22 24  1  0
 24 25  1  0
 24 45  1  0
 24 46  1  0
 25 28  1  0
 25 26  1  0
 25 47  1  1
 26 27  1  0
 26 48  1  0
 26 49  1  0
 27 28  1  0
 27 50  1  6
 28 51  1  0
 28 52  1  0
 30 31  1  0
 30 53  1  0
 31 54  1  0
M  CHG  1  18   1
M  END
>  <DOCK_score>  (1) 
-42.79528

>  <SMILES>  (1) 
c1ccc(CNc2ccc(-c3n[nH]cc3C[NH2+]C[C@@H]3CC4CC3C4)o2)cc1

$$$$
