O=C1CC[C@H](NC(NC2CC=CC2)=[NH+]CCc2cncc3ccccc23)CN1
     RDKit          3D

 56 59  0  0  1  0  0  0  0  0999 V2000
  123.7949  133.7690  161.4384 O   0  0  0  0  0  0  0  0  0  0  0  0
  124.9739  133.9514  161.2209 C   0  0  0  0  0  0  0  0  0  0  0  0
  125.8247  132.7634  160.8741 C   0  0  0  0  0  0  0  0  0  0  0  0
  127.3036  133.1081  161.0659 C   0  0  0  0  0  0  0  0  0  0  0  0
  127.5853  134.4428  160.3654 C   0  0  2  0  0  0  0  0  0  0  0  0
  127.2340  134.3989  159.3344 H   0  0  0  0  0  0  0  0  0  0  0  0
  129.0250  134.7129  160.3828 N   0  0  0  0  0  0  0  0  0  0  0  0
  129.8202  134.2695  159.3527 C   0  0  0  0  0  0  0  0  0  0  0  0
  129.2643  133.5726  158.3062 N   0  0  0  0  0  0  0  0  0  0  0  0
  130.1116  133.1001  157.2084 C   0  0  0  0  0  0  0  0  0  0  0  0
  131.0717  131.9867  157.6878 C   0  0  0  0  0  0  0  0  0  0  0  0
  131.1483  131.0176  156.5310 C   0  0  0  0  0  0  0  0  0  0  0  0
  130.1696  131.2120  155.6895 C   0  0  0  0  0  0  0  0  0  0  0  0
  129.2771  132.3431  156.1447 C   0  0  0  0  0  0  0  0  0  0  0  0
  131.1012  134.5099  159.3683 N   0  0  0  0  0  0  0  0  0  0  0  0
  131.6622  134.1970  158.6414 H   0  0  0  0  0  0  0  0  0  0  0  0
  131.6936  135.2526  160.4834 C   0  0  0  0  0  0  0  0  0  0  0  0
  133.2000  135.3961  160.2574 C   0  0  0  0  0  0  0  0  0  0  0  0
  133.8095  136.1602  161.4045 C   0  0  0  0  0  0  0  0  0  0  0  0
  134.2671  135.5074  162.5089 C   0  0  0  0  0  0  0  0  0  0  0  0
  134.8118  136.1550  163.5295 N   0  0  0  0  0  0  0  0  0  0  0  0
  134.9395  137.4613  163.5556 C   0  0  0  0  0  0  0  0  0  0  0  0
  134.4944  138.2295  162.4680 C   0  0  0  0  0  0  0  0  0  0  0  0
  134.6085  139.6285  162.4469 C   0  0  0  0  0  0  0  0  0  0  0  0
  134.1597  140.3219  161.3644 C   0  0  0  0  0  0  0  0  0  0  0  0
  133.5879  139.6657  160.2757 C   0  0  0  0  0  0  0  0  0  0  0  0
  133.4606  138.3096  160.2612 C   0  0  0  0  0  0  0  0  0  0  0  0
  133.9119  137.5623  161.3587 C   0  0  0  0  0  0  0  0  0  0  0  0
  126.8458  135.5535  161.1124 C   0  0  0  0  0  0  0  0  0  0  0  0
  125.4456  135.1961  161.3021 N   0  0  0  0  0  0  0  0  0  0  0  0
  125.5609  131.9275  161.5219 H   0  0  0  0  0  0  0  0  0  0  0  0
  125.6498  132.4839  159.8351 H   0  0  0  0  0  0  0  0  0  0  0  0
  127.9227  132.3256  160.6272 H   0  0  0  0  0  0  0  0  0  0  0  0
  127.5242  133.1982  162.1295 H   0  0  0  0  0  0  0  0  0  0  0  0
  129.4173  135.2046  161.1213 H   0  0  0  0  0  0  0  0  0  0  0  0
  128.3109  133.3937  158.2944 H   0  0  0  0  0  0  0  0  0  0  0  0
  130.6632  133.9258  156.7589 H   0  0  0  0  0  0  0  0  0  0  0  0
  130.6684  131.4921  158.5715 H   0  0  0  0  0  0  0  0  0  0  0  0
  132.0568  132.4012  157.9019 H   0  0  0  0  0  0  0  0  0  0  0  0
  131.9126  130.2634  156.4155 H   0  0  0  0  0  0  0  0  0  0  0  0
  130.0175  130.6393  154.7866 H   0  0  0  0  0  0  0  0  0  0  0  0
  129.0419  133.0013  155.3085 H   0  0  0  0  0  0  0  0  0  0  0  0
  128.3617  131.9501  156.5868 H   0  0  0  0  0  0  0  0  0  0  0  0
  131.2395  136.2417  160.5434 H   0  0  0  0  0  0  0  0  0  0  0  0
  131.5155  134.7140  161.4140 H   0  0  0  0  0  0  0  0  0  0  0  0
  133.6543  134.4071  160.1975 H   0  0  0  0  0  0  0  0  0  0  0  0
  133.3782  135.9348  159.3267 H   0  0  0  0  0  0  0  0  0  0  0  0
  134.1879  134.4312  162.5526 H   0  0  0  0  0  0  0  0  0  0  0  0
  135.3867  137.9441  164.4120 H   0  0  0  0  0  0  0  0  0  0  0  0
  135.0496  140.1509  163.2829 H   0  0  0  0  0  0  0  0  0  0  0  0
  134.2477  141.3983  161.3492 H   0  0  0  0  0  0  0  0  0  0  0  0
  133.2408  140.2413  159.4303 H   0  0  0  0  0  0  0  0  0  0  0  0
  133.0160  137.8138  159.4110 H   0  0  0  0  0  0  0  0  0  0  0  0
  127.3135  135.7068  162.0850 H   0  0  0  0  0  0  0  0  0  0  0  0
  126.9071  136.4772  160.5372 H   0  0  0  0  0  0  0  0  0  0  0  0
  124.8175  135.9081  161.5002 H   0  0  0  0  0  0  0  0  0  0  0  0
  1  2  2  0
  2 30  1  0
  2  3  1  0
  3  4  1  0
  3 31  1  0
  3 32  1  0
  4  5  1  0
  4 33  1  0
  4 34  1  0
  5  6  1  6
  5  7  1  0
  5 29  1  0
  7 35  1  0
  8  7  1  0
  8  9  1  0
  8 15  2  0
  9 10  1  0
  9 36  1  0
 10 14  1  0
 10 11  1  0
 10 37  1  0
 11 12  1  0
 11 38  1  0
 11 39  1  0
 12 13  2  0
 12 40  1  0
 13 14  1  0
 13 41  1  0
 14 42  1  0
 14 43  1  0
 15 16  1  0
 15 17  1  0
 17 18  1  0
 17 44  1  0
 17 45  1  0
 18 19  1  0
 18 46  1  0
 18 47  1  0
 19 28  1  0
 19 20  2  0
 20 21  1  0
 20 48  1  0
 21 22  2  0
 22 23  1  0
 22 49  1  0
 23 28  2  0
 23 24  1  0
 24 25  2  0
 24 50  1  0
 25 26  1  0
 25 51  1  0
 26 27  2  0
 26 52  1  0
 27 28  1  0
 27 53  1  0
 29 30  1  0
 29 54  1  0
 29 55  1  0
 30 56  1  0
M  CHG  1  15   1
M  END
>  <DOCK_score>  (1) 
-47.900848

>  <SMILES>  (1) 
O=C1CC[C@H](NC(NC2CC=CC2)=[NH+]CCc2cncc3ccccc23)CN1

$$$$
