C[C@@H](C[NH2+]C1C=Cc2cc(O)ccc2C1NC1CC(O)C1(C)C)Cc1cnn(C)c1
     RDKit          3D

 65 68  0  0  1  0  0  0  0  0999 V2000
  133.2130  135.8414  162.6266 C   0  0  0  0  0  0  0  0  0  0  0  0
  133.0103  135.5515  161.1380 C   0  0  1  0  0  0  0  0  0  0  0  0
  133.5839  134.6679  160.8586 H   0  0  0  0  0  0  0  0  0  0  0  0
  131.5256  135.3034  160.8644 C   0  0  0  0  0  0  0  0  0  0  0  0
  131.3309  135.0251  159.4353 N   0  0  0  0  0  0  0  0  0  0  0  0
  131.8619  134.2070  159.1764 H   0  0  0  0  0  0  0  0  0  0  0  0
  131.6454  135.8156  158.8928 H   0  0  0  0  0  0  0  0  0  0  0  0
  129.9053  134.7869  159.1725 C   0  0  1  0  0  0  0  0  0  0  0  0
  129.6254  135.0186  157.7138 C   0  0  0  0  0  0  0  0  0  0  0  0
  129.8238  134.0613  156.8191 C   0  0  0  0  0  0  0  0  0  0  0  0
  130.3188  132.7415  157.2639 C   0  0  0  0  0  0  0  0  0  0  0  0
  130.9109  131.8596  156.3643 C   0  0  0  0  0  0  0  0  0  0  0  0
  131.3609  130.6270  156.8099 C   0  0  0  0  0  0  0  0  0  0  0  0
  131.9356  129.7580  155.9373 O   0  0  0  0  0  0  0  0  0  0  0  0
  131.2303  130.2816  158.1484 C   0  0  0  0  0  0  0  0  0  0  0  0
  130.6468  131.1600  159.0431 C   0  0  0  0  0  0  0  0  0  0  0  0
  130.1911  132.3866  158.6086 C   0  0  0  0  0  0  0  0  0  0  0  0
  129.5531  133.3547  159.5697 C   0  0  2  0  0  0  0  0  0  0  0  0
  128.0944  133.1841  159.5383 N   0  0  0  0  0  0  0  0  0  0  0  0
  127.4746  133.7268  160.7546 C   0  0  1  0  0  0  0  0  0  0  0  0
  126.8121  135.0991  160.5487 C   0  0  0  0  0  0  0  0  0  0  0  0
  125.6759  134.5992  161.4566 C   0  0  1  0  0  0  0  0  0  0  0  0
  124.3752  134.9946  161.0165 O   0  0  0  0  0  0  0  0  0  0  0  0
  126.0663  133.1729  161.0282 C   0  0  0  0  0  0  0  0  0  0  0  0
  125.3421  132.6912  159.7695 C   0  0  0  0  0  0  0  0  0  0  0  0
  126.0193  132.1543  162.1689 C   0  0  0  0  0  0  0  0  0  0  0  0
  133.4872  136.7502  160.3156 C   0  0  0  0  0  0  0  0  0  0  0  0
  132.6942  137.9721  160.7019 C   0  0  0  0  0  0  0  0  0  0  0  0
  131.4973  138.3958  160.1150 C   0  0  0  0  0  0  0  0  0  0  0  0
  131.1124  139.4916  160.7174 N   0  0  0  0  0  0  0  0  0  0  0  0
  132.0534  139.8002  161.7080 N   0  0  0  0  0  0  0  0  0  0  0  0
  132.0038  140.9488  162.6161 C   0  0  0  0  0  0  0  0  0  0  0  0
  133.0111  138.8498  161.6818 C   0  0  0  0  0  0  0  0  0  0  0  0
  134.2709  136.0181  162.8216 H   0  0  0  0  0  0  0  0  0  0  0  0
  132.6394  136.7251  162.9061 H   0  0  0  0  0  0  0  0  0  0  0  0
  132.8735  134.9874  163.2126 H   0  0  0  0  0  0  0  0  0  0  0  0
  130.9520  136.1871  161.1440 H   0  0  0  0  0  0  0  0  0  0  0  0
  131.1859  134.4493  161.4504 H   0  0  0  0  0  0  0  0  0  0  0  0
  129.3102  135.4802  159.7668 H   0  0  0  0  0  0  0  0  0  0  0  0
  129.2570  135.9808  157.3897 H   0  0  0  0  0  0  0  0  0  0  0  0
  129.6251  134.2438  155.7733 H   0  0  0  0  0  0  0  0  0  0  0  0
  131.0153  132.1327  155.3246 H   0  0  0  0  0  0  0  0  0  0  0  0
  131.9861  130.0878  155.0296 H   0  0  0  0  0  0  0  0  0  0  0  0
  131.5868  129.3220  158.4927 H   0  0  0  0  0  0  0  0  0  0  0  0
  130.5484  130.8852  160.0829 H   0  0  0  0  0  0  0  0  0  0  0  0
  129.9193  133.1577  160.5773 H   0  0  0  0  0  0  0  0  0  0  0  0
  127.6987  133.6062  158.7116 H   0  0  0  0  0  0  0  0  0  0  0  0
  128.1354  133.6865  161.6205 H   0  0  0  0  0  0  0  0  0  0  0  0
  127.3796  135.9263  160.9749 H   0  0  0  0  0  0  0  0  0  0  0  0
  126.5015  135.2842  159.5204 H   0  0  0  0  0  0  0  0  0  0  0  0
  125.8434  134.7982  162.5152 H   0  0  0  0  0  0  0  0  0  0  0  0
  124.1429  135.9051  161.2442 H   0  0  0  0  0  0  0  0  0  0  0  0
  125.9194  131.8945  159.3004 H   0  0  0  0  0  0  0  0  0  0  0  0
  124.3557  132.3143  160.0397 H   0  0  0  0  0  0  0  0  0  0  0  0
  125.2350  133.5217  159.0716 H   0  0  0  0  0  0  0  0  0  0  0  0
  126.3689  132.6228  163.0889 H   0  0  0  0  0  0  0  0  0  0  0  0
  124.9948  131.8075  162.3044 H   0  0  0  0  0  0  0  0  0  0  0  0
  126.6606  131.3071  161.9262 H   0  0  0  0  0  0  0  0  0  0  0  0
  134.5450  136.9269  160.5108 H   0  0  0  0  0  0  0  0  0  0  0  0
  133.3430  136.5437  159.2551 H   0  0  0  0  0  0  0  0  0  0  0  0
  130.9805  137.9036  159.3044 H   0  0  0  0  0  0  0  0  0  0  0  0
  131.4601  140.6740  163.5199 H   0  0  0  0  0  0  0  0  0  0  0  0
  133.0182  141.2481  162.8792 H   0  0  0  0  0  0  0  0  0  0  0  0
  131.4959  141.7788  162.1247 H   0  0  0  0  0  0  0  0  0  0  0  0
  133.8767  138.8002  162.3256 H   0  0  0  0  0  0  0  0  0  0  0  0
  1  2  1  0
  1 34  1  0
  1 35  1  0
  1 36  1  0
  2  3  1  6
  2  4  1  0
  2 27  1  0
  4  5  1  0
  4 37  1  0
  4 38  1  0
  5  6  1  0
  5  7  1  0
  5  8  1  0
  8 18  1  0
  8  9  1  0
  8 39  1  1
  9 10  2  0
  9 40  1  0
 10 11  1  0
 10 41  1  0
 11 17  2  0
 11 12  1  0
 12 13  2  0
 12 42  1  0
 13 14  1  0
 13 15  1  0
 14 43  1  0
 15 16  2  0
 15 44  1  0
 16 17  1  0
 16 45  1  0
 17 18  1  0
 18 19  1  0
 18 46  1  1
 19 20  1  0
 19 47  1  0
 20 24  1  0
 20 21  1  0
 20 48  1  1
 21 22  1  0
 21 49  1  0
 21 50  1  0
 22 23  1  0
 22 24  1  0
 22 51  1  1
 23 52  1  0
 24 25  1  0
 24 26  1  0
 25 53  1  0
 25 54  1  0
 25 55  1  0
 26 56  1  0
 26 57  1  0
 26 58  1  0
 27 28  1  0
 27 59  1  0
 27 60  1  0
 28 33  2  0
 28 29  1  0
 29 30  2  0
 29 61  1  0
 30 31  1  0
 31 32  1  0
 31 33  1  0
 32 62  1  0
 32 63  1  0
 32 64  1  0
 33 65  1  0
M  CHG  1   5   1
M  END
>  <DOCK_score>  (1) 
-55.464302

>  <SMILES>  (1) 
C[C@@H](C[NH2+]C1C=Cc2cc(O)ccc2C1NC1CC(O)C1(C)C)Cc1cnn(C)c1

$$$$
