Fc1ccc(-c2c[nH]c(N[C@@H](c3ccccc3)c3cccc4ccccc34)[nH+]2)cc1
     RDKit          3D

 51 55  0  0  1  0  0  0  0  0999 V2000
  130.9169  129.4287  150.8016 F   0  0  0  0  0  0  0  0  0  0  0  0
  130.8628  129.9720  152.0374 C   0  0  0  0  0  0  0  0  0  0  0  0
  130.1626  131.1501  152.2432 C   0  0  0  0  0  0  0  0  0  0  0  0
  130.1047  131.7094  153.5033 C   0  0  0  0  0  0  0  0  0  0  0  0
  130.7515  131.0874  154.5697 C   0  0  0  0  0  0  0  0  0  0  0  0
  130.6926  131.6850  155.9262 C   0  0  0  0  0  0  0  0  0  0  0  0
  130.1763  131.0989  157.0347 C   0  0  0  0  0  0  0  0  0  0  0  0
  130.3244  131.9956  158.0654 N   0  0  0  0  0  0  0  0  0  0  0  0
  130.0503  131.8627  158.9864 H   0  0  0  0  0  0  0  0  0  0  0  0
  130.9273  133.1039  157.5558 C   0  0  0  0  0  0  0  0  0  0  0  0
  131.2558  134.2436  158.2698 N   0  0  0  0  0  0  0  0  0  0  0  0
  130.9538  134.3237  159.7011 C   0  0  1  0  0  0  0  0  0  0  0  0
  131.1614  133.3621  160.1707 H   0  0  0  0  0  0  0  0  0  0  0  0
  131.8106  135.3883  160.3365 C   0  0  0  0  0  0  0  0  0  0  0  0
  133.0482  135.0598  160.8572 C   0  0  0  0  0  0  0  0  0  0  0  0
  133.8362  136.0370  161.4360 C   0  0  0  0  0  0  0  0  0  0  0  0
  133.3823  137.3411  161.5026 C   0  0  0  0  0  0  0  0  0  0  0  0
  132.1426  137.6687  160.9861 C   0  0  0  0  0  0  0  0  0  0  0  0
  131.3565  136.6922  160.4034 C   0  0  0  0  0  0  0  0  0  0  0  0
  129.4995  134.6709  159.8889 C   0  0  0  0  0  0  0  0  0  0  0  0
  128.6949  134.8561  158.8066 C   0  0  0  0  0  0  0  0  0  0  0  0
  127.3478  135.1771  158.9607 C   0  0  0  0  0  0  0  0  0  0  0  0
  126.7971  135.3148  160.1979 C   0  0  0  0  0  0  0  0  0  0  0  0
  127.5963  135.1313  161.3388 C   0  0  0  0  0  0  0  0  0  0  0  0
  127.0634  135.2648  162.6325 C   0  0  0  0  0  0  0  0  0  0  0  0
  127.8640  135.0632  163.7145 C   0  0  0  0  0  0  0  0  0  0  0  0
  129.2116  134.7425  163.5604 C   0  0  0  0  0  0  0  0  0  0  0  0
  129.7635  134.6102  162.3236 C   0  0  0  0  0  0  0  0  0  0  0  0
  128.9654  134.7996  161.1822 C   0  0  0  0  0  0  0  0  0  0  0  0
  131.1406  132.9168  156.2761 N   0  0  0  0  0  0  0  0  0  0  0  0
  131.5547  133.5562  155.6755 H   0  0  0  0  0  0  0  0  0  0  0  0
  131.4586  129.9054  154.3568 C   0  0  0  0  0  0  0  0  0  0  0  0
  131.5067  129.3506  153.0944 C   0  0  0  0  0  0  0  0  0  0  0  0
  129.6616  131.6314  151.4162 H   0  0  0  0  0  0  0  0  0  0  0  0
  129.5587  132.6274  153.6631 H   0  0  0  0  0  0  0  0  0  0  0  0
  129.7335  130.1158  157.0957 H   0  0  0  0  0  0  0  0  0  0  0  0
  131.6824  134.9906  157.8216 H   0  0  0  0  0  0  0  0  0  0  0  0
  133.4010  134.0401  160.8087 H   0  0  0  0  0  0  0  0  0  0  0  0
  134.8047  135.7812  161.8393 H   0  0  0  0  0  0  0  0  0  0  0  0
  133.9963  138.1040  161.9579 H   0  0  0  0  0  0  0  0  0  0  0  0
  131.7880  138.6875  161.0382 H   0  0  0  0  0  0  0  0  0  0  0  0
  130.3879  136.9481  160.0001 H   0  0  0  0  0  0  0  0  0  0  0  0
  129.1069  134.7529  157.8137 H   0  0  0  0  0  0  0  0  0  0  0  0
  126.7314  135.3190  158.0854 H   0  0  0  0  0  0  0  0  0  0  0  0
  125.7515  135.5643  160.3021 H   0  0  0  0  0  0  0  0  0  0  0  0
  126.0211  135.5136  162.7673 H   0  0  0  0  0  0  0  0  0  0  0  0
  127.4510  135.1621  164.7075 H   0  0  0  0  0  0  0  0  0  0  0  0
  129.8269  134.5964  164.4358 H   0  0  0  0  0  0  0  0  0  0  0  0
  130.8093  134.3612  162.2195 H   0  0  0  0  0  0  0  0  0  0  0  0
  131.9648  129.4223  155.1795 H   0  0  0  0  0  0  0  0  0  0  0  0
  132.0510  128.4324  152.9293 H   0  0  0  0  0  0  0  0  0  0  0  0
  1  2  1  0
  2 33  2  0
  2  3  1  0
  3  4  2  0
  3 34  1  0
  4  5  1  0
  4 35  1  0
  5  6  1  0
  5 32  2  0
  6 30  1  0
  6  7  2  0
  7  8  1  0
  7 36  1  0
  8  9  1  0
  8 10  1  0
 10 11  1  0
 10 30  2  0
 11 12  1  0
 11 37  1  0
 12 13  1  1
 12 14  1  0
 12 20  1  0
 14 19  1  0
 14 15  2  0
 15 16  1  0
 15 38  1  0
 16 17  2  0
 16 39  1  0
 17 18  1  0
 17 40  1  0
 18 19  2  0
 18 41  1  0
 19 42  1  0
 20 29  1  0
 20 21  2  0
 21 22  1  0
 21 43  1  0
 22 23  2  0
 22 44  1  0
 23 24  1  0
 23 45  1  0
 24 29  2  0
 24 25  1  0
 25 26  2  0
 25 46  1  0
 26 27  1  0
 26 47  1  0
 27 28  2  0
 27 48  1  0
 28 29  1  0
 28 49  1  0
 30 31  1  0
 32 33  1  0
 32 50  1  0
 33 51  1  0
M  CHG  1  30   1
M  END
>  <DOCK_score>  (1) 
-57.885418

>  <SMILES>  (1) 
Fc1ccc(-c2c[nH]c(N[C@@H](c3ccccc3)c3cccc4ccccc34)[nH+]2)cc1

$$$$
