Nc1ccc(-c2c[nH]c(N[C@H](c3ccccc3)c3ccc(C4=CCC=CC4)cc3)[nH+]2)cc1
     RDKit          3D

 59 63  0  0  1  0  0  0  0  0999 V2000
  131.8279  129.7440  151.7824 N   0  0  0  0  0  0  0  0  0  0  0  0
  131.4735  130.3200  153.0048 C   0  0  0  0  0  0  0  0  0  0  0  0
  130.9290  131.5982  153.0374 C   0  0  0  0  0  0  0  0  0  0  0  0
  130.5789  132.1690  154.2429 C   0  0  0  0  0  0  0  0  0  0  0  0
  130.7710  131.4627  155.4292 C   0  0  0  0  0  0  0  0  0  0  0  0
  130.3956  132.0749  156.7274 C   0  0  0  0  0  0  0  0  0  0  0  0
  129.9752  131.4094  157.8314 C   0  0  0  0  0  0  0  0  0  0  0  0
  129.7367  132.3553  158.8003 N   0  0  0  0  0  0  0  0  0  0  0  0
  129.4250  132.1870  159.7032 H   0  0  0  0  0  0  0  0  0  0  0  0
  130.0187  133.5712  158.2583 C   0  0  0  0  0  0  0  0  0  0  0  0
  129.9084  134.7888  158.9079 N   0  0  0  0  0  0  0  0  0  0  0  0
  129.4542  134.8379  160.2998 C   0  0  2  0  0  0  0  0  0  0  0  0
  129.8984  134.0125  160.8563 H   0  0  0  0  0  0  0  0  0  0  0  0
  127.9523  134.7218  160.3425 C   0  0  0  0  0  0  0  0  0  0  0  0
  127.3352  134.1330  161.4303 C   0  0  0  0  0  0  0  0  0  0  0  0
  125.9573  134.0306  161.4716 C   0  0  0  0  0  0  0  0  0  0  0  0
  125.1969  134.5088  160.4208 C   0  0  0  0  0  0  0  0  0  0  0  0
  125.8144  135.0928  159.3305 C   0  0  0  0  0  0  0  0  0  0  0  0
  127.1919  135.1992  159.2913 C   0  0  0  0  0  0  0  0  0  0  0  0
  129.8748  136.1456  160.9197 C   0  0  0  0  0  0  0  0  0  0  0  0
  131.0271  136.7751  160.4839 C   0  0  0  0  0  0  0  0  0  0  0  0
  131.4177  137.9724  161.0475 C   0  0  0  0  0  0  0  0  0  0  0  0
  130.6473  138.5483  162.0589 C   0  0  0  0  0  0  0  0  0  0  0  0
  131.0602  139.8310  162.6665 C   0  0  0  0  0  0  0  0  0  0  0  0
  130.1314  140.6364  163.1326 C   0  0  0  0  0  0  0  0  0  0  0  0
  130.4507  141.9566  163.7673 C   0  0  0  0  0  0  0  0  0  0  0  0
  131.8801  142.0118  164.2147 C   0  0  0  0  0  0  0  0  0  0  0  0
  132.7965  141.2179  163.7533 C   0  0  0  0  0  0  0  0  0  0  0  0
  132.5217  140.1587  162.7321 C   0  0  0  0  0  0  0  0  0  0  0  0
  129.4861  137.9087  162.4927 C   0  0  0  0  0  0  0  0  0  0  0  0
  129.1065  136.7116  161.9212 C   0  0  0  0  0  0  0  0  0  0  0  0
  130.4067  133.4000  157.0179 N   0  0  0  0  0  0  0  0  0  0  0  0
  130.6628  134.1078  156.4060 H   0  0  0  0  0  0  0  0  0  0  0  0
  131.3218  130.1826  155.3943 C   0  0  0  0  0  0  0  0  0  0  0  0
  131.6655  129.6137  154.1862 C   0  0  0  0  0  0  0  0  0  0  0  0
  131.6939  130.2361  150.9573 H   0  0  0  0  0  0  0  0  0  0  0  0
  132.2080  128.8518  151.7587 H   0  0  0  0  0  0  0  0  0  0  0  0
  130.7803  132.1452  152.1180 H   0  0  0  0  0  0  0  0  0  0  0  0
  130.1558  133.1624  154.2678 H   0  0  0  0  0  0  0  0  0  0  0  0
  129.8511  130.3412  157.9305 H   0  0  0  0  0  0  0  0  0  0  0  0
  130.1320  135.6093  158.4414 H   0  0  0  0  0  0  0  0  0  0  0  0
  127.9295  133.7562  162.2497 H   0  0  0  0  0  0  0  0  0  0  0  0
  125.4749  133.5746  162.3234 H   0  0  0  0  0  0  0  0  0  0  0  0
  124.1205  134.4263  160.4517 H   0  0  0  0  0  0  0  0  0  0  0  0
  125.2203  135.4664  158.5096 H   0  0  0  0  0  0  0  0  0  0  0  0
  127.6744  135.6555  158.4396 H   0  0  0  0  0  0  0  0  0  0  0  0
  131.6222  136.3283  159.7013 H   0  0  0  0  0  0  0  0  0  0  0  0
  132.3153  138.4650  160.7036 H   0  0  0  0  0  0  0  0  0  0  0  0
  129.0974  140.3343  163.0561 H   0  0  0  0  0  0  0  0  0  0  0  0
  130.2715  142.7527  163.0448 H   0  0  0  0  0  0  0  0  0  0  0  0
  129.8012  142.1046  164.6300 H   0  0  0  0  0  0  0  0  0  0  0  0
  132.1600  142.7466  164.9550 H   0  0  0  0  0  0  0  0  0  0  0  0
  133.8042  141.3214  164.1286 H   0  0  0  0  0  0  0  0  0  0  0  0
  133.0786  139.2579  162.9903 H   0  0  0  0  0  0  0  0  0  0  0  0
  132.8523  140.5143  161.7561 H   0  0  0  0  0  0  0  0  0  0  0  0
  128.8858  138.3493  163.2751 H   0  0  0  0  0  0  0  0  0  0  0  0
  128.2078  136.2154  162.2566 H   0  0  0  0  0  0  0  0  0  0  0  0
  131.4753  129.6351  156.3126 H   0  0  0  0  0  0  0  0  0  0  0  0
  132.0885  128.6203  154.1584 H   0  0  0  0  0  0  0  0  0  0  0  0
  1  2  1  0
  1 36  1  0
  1 37  1  0
  2 35  2  0
  2  3  1  0
  3  4  2  0
  3 38  1  0
  4  5  1  0
  4 39  1  0
  5  6  1  0
  5 34  2  0
  6 32  1  0
  6  7  2  0
  7  8  1  0
  7 40  1  0
  8  9  1  0
  8 10  1  0
 10 11  1  0
 10 32  2  0
 11 12  1  0
 11 41  1  0
 12 13  1  1
 12 14  1  0
 12 20  1  0
 14 19  1  0
 14 15  2  0
 15 16  1  0
 15 42  1  0
 16 17  2  0
 16 43  1  0
 17 18  1  0
 17 44  1  0
 18 19  2  0
 18 45  1  0
 19 46  1  0
 20 31  1  0
 20 21  2  0
 21 22  1  0
 21 47  1  0
 22 23  2  0
 22 48  1  0
 23 24  1  0
 23 30  1  0
 24 29  1  0
 24 25  2  0
 25 26  1  0
 25 49  1  0
 26 27  1  0
 26 50  1  0
 26 51  1  0
 27 28  2  0
 27 52  1  0
 28 29  1  0
 28 53  1  0
 29 54  1  0
 29 55  1  0
 30 31  2  0
 30 56  1  0
 31 57  1  0
 32 33  1  0
 34 35  1  0
 34 58  1  0
 35 59  1  0
M  CHG  1  32   1
M  END
>  <DOCK_score>  (1) 
-57.157978

>  <SMILES>  (1) 
Nc1ccc(-c2c[nH]c(N[C@H](c3ccccc3)c3ccc(C4=CCC=CC4)cc3)[nH+]2)cc1

$$$$
