CC(C)Cc1ccc([C@H](Nc2[nH]cc(-c3ccc(N)cc3)[nH+]2)c2cccs2)cc1
     RDKit          3D

 56 59  0  0  1  0  0  0  0  0999 V2000
  131.4067  142.3326  163.4995 C   0  0  0  0  0  0  0  0  0  0  0  0
  131.2331  140.8673  163.0952 C   0  0  0  0  0  0  0  0  0  0  0  0
  130.6661  140.0762  164.2757 C   0  0  0  0  0  0  0  0  0  0  0  0
  130.2695  140.7759  161.9101 C   0  0  0  0  0  0  0  0  0  0  0  0
  130.0983  139.3325  161.5121 C   0  0  0  0  0  0  0  0  0  0  0  0
  129.0984  138.5707  162.0866 C   0  0  0  0  0  0  0  0  0  0  0  0
  128.9416  137.2468  161.7213 C   0  0  0  0  0  0  0  0  0  0  0  0
  129.7845  136.6848  160.7807 C   0  0  0  0  0  0  0  0  0  0  0  0
  129.6136  135.2415  160.3825 C   0  0  2  0  0  0  0  0  0  0  0  0
  130.2182  134.6108  161.0342 H   0  0  0  0  0  0  0  0  0  0  0  0
  130.0445  135.0638  158.9937 N   0  0  0  0  0  0  0  0  0  0  0  0
  129.9791  133.8132  158.4034 C   0  0  0  0  0  0  0  0  0  0  0  0
  129.5368  132.6753  159.0042 N   0  0  0  0  0  0  0  0  0  0  0  0
  129.2131  132.5949  159.9150 H   0  0  0  0  0  0  0  0  0  0  0  0
  129.6338  131.6604  158.0817 C   0  0  0  0  0  0  0  0  0  0  0  0
  130.1267  132.2091  156.9439 C   0  0  0  0  0  0  0  0  0  0  0  0
  130.3953  131.4912  155.6739 C   0  0  0  0  0  0  0  0  0  0  0  0
  129.7366  131.8700  154.5051 C   0  0  0  0  0  0  0  0  0  0  0  0
  129.9923  131.2051  153.3244 C   0  0  0  0  0  0  0  0  0  0  0  0
  130.8969  130.1503  153.3015 C   0  0  0  0  0  0  0  0  0  0  0  0
  131.1495  129.4742  152.1054 N   0  0  0  0  0  0  0  0  0  0  0  0
  131.5508  129.7673  154.4666 C   0  0  0  0  0  0  0  0  0  0  0  0
  131.3026  130.4332  155.6483 C   0  0  0  0  0  0  0  0  0  0  0  0
  130.3340  133.5299  157.1736 N   0  0  0  0  0  0  0  0  0  0  0  0
  130.6848  134.1645  156.5293 H   0  0  0  0  0  0  0  0  0  0  0  0
  128.1632  134.8530  160.5120 C   0  0  0  0  0  0  0  0  0  0  0  0
  127.1528  135.4232  159.8540 C   0  0  0  0  0  0  0  0  0  0  0  0
  125.9036  134.8959  160.1329 C   0  0  0  0  0  0  0  0  0  0  0  0
  125.8987  133.9036  161.0243 C   0  0  0  0  0  0  0  0  0  0  0  0
  127.5433  133.5836  161.5598 S   0  0  0  0  0  0  0  0  0  0  0  0
  130.7878  137.4453  160.2096 C   0  0  0  0  0  0  0  0  0  0  0  0
  130.9418  138.7704  160.5717 C   0  0  0  0  0  0  0  0  0  0  0  0
  130.4400  142.7478  163.7843 H   0  0  0  0  0  0  0  0  0  0  0  0
  132.0931  142.3977  164.3438 H   0  0  0  0  0  0  0  0  0  0  0  0
  131.8107  142.8961  162.6585 H   0  0  0  0  0  0  0  0  0  0  0  0
  132.1999  140.4520  162.8104 H   0  0  0  0  0  0  0  0  0  0  0  0
  130.5424  139.0321  163.9876 H   0  0  0  0  0  0  0  0  0  0  0  0
  131.3525  140.1413  165.1200 H   0  0  0  0  0  0  0  0  0  0  0  0
  129.6994  140.4913  164.5605 H   0  0  0  0  0  0  0  0  0  0  0  0
  130.6734  141.3395  161.0692 H   0  0  0  0  0  0  0  0  0  0  0  0
  129.3028  141.1911  162.1951 H   0  0  0  0  0  0  0  0  0  0  0  0
  128.4398  139.0099  162.8212 H   0  0  0  0  0  0  0  0  0  0  0  0
  128.1604  136.6516  162.1705 H   0  0  0  0  0  0  0  0  0  0  0  0
  130.3756  135.8221  158.4877 H   0  0  0  0  0  0  0  0  0  0  0  0
  129.3644  130.6256  158.2329 H   0  0  0  0  0  0  0  0  0  0  0  0
  129.0296  132.6863  154.5235 H   0  0  0  0  0  0  0  0  0  0  0  0
  129.4855  131.5011  152.4178 H   0  0  0  0  0  0  0  0  0  0  0  0
  131.7810  128.7378  152.0888 H   0  0  0  0  0  0  0  0  0  0  0  0
  130.6936  129.7405  151.2920 H   0  0  0  0  0  0  0  0  0  0  0  0
  132.2536  128.9476  154.4466 H   0  0  0  0  0  0  0  0  0  0  0  0
  131.8110  130.1354  156.5535 H   0  0  0  0  0  0  0  0  0  0  0  0
  127.2984  136.2331  159.1544 H   0  0  0  0  0  0  0  0  0  0  0  0
  125.0009  135.2627  159.6671 H   0  0  0  0  0  0  0  0  0  0  0  0
  125.0195  133.3773  161.3653 H   0  0  0  0  0  0  0  0  0  0  0  0
  131.4491  137.0050  159.4781 H   0  0  0  0  0  0  0  0  0  0  0  0
  131.7231  139.3657  160.1226 H   0  0  0  0  0  0  0  0  0  0  0  0
  1  2  1  0
  1 33  1  0
  1 34  1  0
  1 35  1  0
  2  3  1  0
  2  4  1  0
  2 36  1  0
  3 37  1  0
  3 38  1  0
  3 39  1  0
  4  5  1  0
  4 40  1  0
  4 41  1  0
  5 32  2  0
  5  6  1  0
  6  7  2  0
  6 42  1  0
  7  8  1  0
  7 43  1  0
  8  9  1  0
  8 31  2  0
  9 10  1  1
  9 11  1  0
  9 26  1  0
 11 44  1  0
 12 11  1  0
 12 24  2  0
 12 13  1  0
 13 14  1  0
 13 15  1  0
 15 16  2  0
 15 45  1  0
 16 17  1  0
 16 24  1  0
 17 23  1  0
 17 18  2  0
 18 19  1  0
 18 46  1  0
 19 20  2  0
 19 47  1  0
 20 21  1  0
 20 22  1  0
 21 48  1  0
 21 49  1  0
 22 23  2  0
 22 50  1  0
 23 51  1  0
 24 25  1  0
 26 30  1  0
 26 27  2  0
 27 28  1  0
 27 52  1  0
 28 29  2  0
 28 53  1  0
 29 30  1  0
 29 54  1  0
 31 32  1  0
 31 55  1  0
 32 56  1  0
M  CHG  1  24   1
M  END
>  <DOCK_score>  (1) 
-57.501675

>  <SMILES>  (1) 
CC(C)Cc1ccc([C@H](Nc2[nH]cc(-c3ccc(N)cc3)[nH+]2)c2cccs2)cc1

$$$$
