Fc1ccccc1Nc1ccc(-c2n[nH]cc2C[NH2+]CC2CC(=C3CC3)C2)o1
     RDKit          3D

 52 56  0  0  0  0  0  0  0  0999 V2000
  127.5862  134.6465  164.1640 F   0  0  0  0  0  0  0  0  0  0  0  0
  127.6455  135.9954  164.1213 C   0  0  0  0  0  0  0  0  0  0  0  0
  128.3242  136.6903  165.1055 C   0  0  0  0  0  0  0  0  0  0  0  0
  128.3894  138.0702  165.0591 C   0  0  0  0  0  0  0  0  0  0  0  0
  127.7723  138.7614  164.0318 C   0  0  0  0  0  0  0  0  0  0  0  0
  127.0875  138.0746  163.0483 C   0  0  0  0  0  0  0  0  0  0  0  0
  127.0191  136.6882  163.0903 C   0  0  0  0  0  0  0  0  0  0  0  0
  126.3264  135.9901  162.0964 N   0  0  0  0  0  0  0  0  0  0  0  0
  126.9949  135.0658  161.3018 C   0  0  0  0  0  0  0  0  0  0  0  0
  126.4454  133.9610  160.7380 C   0  0  0  0  0  0  0  0  0  0  0  0
  127.4700  133.3123  160.0215 C   0  0  0  0  0  0  0  0  0  0  0  0
  128.5962  134.0559  160.1844 C   0  0  0  0  0  0  0  0  0  0  0  0
  129.9229  133.7547  159.6082 C   0  0  0  0  0  0  0  0  0  0  0  0
  130.2209  132.7234  158.8427 N   0  0  0  0  0  0  0  0  0  0  0  0
  131.5793  132.8064  158.5111 N   0  0  0  0  0  0  0  0  0  0  0  0
  132.0690  132.1784  157.9572 H   0  0  0  0  0  0  0  0  0  0  0  0
  132.0892  133.9121  159.0956 C   0  0  0  0  0  0  0  0  0  0  0  0
  131.0945  134.5230  159.7743 C   0  0  0  0  0  0  0  0  0  0  0  0
  131.2152  135.7969  160.5703 C   0  0  0  0  0  0  0  0  0  0  0  0
  130.9320  136.9463  159.7007 N   0  0  0  0  0  0  0  0  0  0  0  0
  131.5928  136.9622  158.9384 H   0  0  0  0  0  0  0  0  0  0  0  0
  129.9958  136.8671  159.3326 H   0  0  0  0  0  0  0  0  0  0  0  0
  131.0495  138.1882  160.4767 C   0  0  0  0  0  0  0  0  0  0  0  0
  132.4691  138.3084  161.0348 C   0  0  0  0  0  0  0  0  0  0  0  0
  132.8794  139.7520  161.3728 C   0  0  0  0  0  0  0  0  0  0  0  0
  134.2354  139.4113  160.7823 C   0  0  0  0  0  0  0  0  0  0  0  0
  135.4606  139.8510  160.9303 C   0  0  0  0  0  0  0  0  0  0  0  0
  136.9210  139.7719  160.5676 C   0  0  0  0  0  0  0  0  0  0  0  0
  136.4295  140.7973  161.5911 C   0  0  0  0  0  0  0  0  0  0  0  0
  133.5585  138.3413  159.9490 C   0  0  0  0  0  0  0  0  0  0  0  0
  128.2932  135.1193  160.9581 O   0  0  0  0  0  0  0  0  0  0  0  0
  128.8076  136.1541  165.9087 H   0  0  0  0  0  0  0  0  0  0  0  0
  128.9232  138.6112  165.8266 H   0  0  0  0  0  0  0  0  0  0  0  0
  127.8254  139.8396  163.9990 H   0  0  0  0  0  0  0  0  0  0  0  0
  126.6061  138.6153  162.2467 H   0  0  0  0  0  0  0  0  0  0  0  0
  125.3794  136.1507  161.9612 H   0  0  0  0  0  0  0  0  0  0  0  0
  125.4176  133.6401  160.8221 H   0  0  0  0  0  0  0  0  0  0  0  0
  127.3783  132.3996  159.4514 H   0  0  0  0  0  0  0  0  0  0  0  0
  133.1125  134.2509  159.0282 H   0  0  0  0  0  0  0  0  0  0  0  0
  130.5013  135.7796  161.3938 H   0  0  0  0  0  0  0  0  0  0  0  0
  132.2265  135.8824  160.9679 H   0  0  0  0  0  0  0  0  0  0  0  0
  130.8395  139.0411  159.8313 H   0  0  0  0  0  0  0  0  0  0  0  0
  130.3356  138.1709  161.3001 H   0  0  0  0  0  0  0  0  0  0  0  0
  132.6712  137.5974  161.8358 H   0  0  0  0  0  0  0  0  0  0  0  0
  132.3326  140.5061  160.8066 H   0  0  0  0  0  0  0  0  0  0  0  0
  132.9065  139.9602  162.4423 H   0  0  0  0  0  0  0  0  0  0  0  0
  137.4887  138.9212  160.9446 H   0  0  0  0  0  0  0  0  0  0  0  0
  137.2169  140.1374  159.5842 H   0  0  0  0  0  0  0  0  0  0  0  0
  136.3987  141.8437  161.2874 H   0  0  0  0  0  0  0  0  0  0  0  0
  136.6756  140.6172  162.6376 H   0  0  0  0  0  0  0  0  0  0  0  0
  134.1309  137.4166  159.8755 H   0  0  0  0  0  0  0  0  0  0  0  0
  133.2027  138.6989  158.9829 H   0  0  0  0  0  0  0  0  0  0  0  0
  1  2  1  0
  2  7  2  0
  2  3  1  0
  3  4  2  0
  3 32  1  0
  4  5  1  0
  4 33  1  0
  5  6  2  0
  5 34  1  0
  6  7  1  0
  6 35  1  0
  7  8  1  0
  8  9  1  0
  8 36  1  0
  9 31  1  0
  9 10  2  0
 10 11  1  0
 10 37  1  0
 11 12  2  0
 11 38  1  0
 12 13  1  0
 12 31  1  0
 13 18  1  0
 13 14  2  0
 14 15  1  0
 15 16  1  0
 15 17  1  0
 17 18  2  0
 17 39  1  0
 18 19  1  0
 19 20  1  0
 19 40  1  0
 19 41  1  0
 20 21  1  0
 20 22  1  0
 20 23  1  0
 23 24  1  0
 23 42  1  0
 23 43  1  0
 24 30  1  0
 24 25  1  0
 24 44  1  0
 25 26  1  0
 25 45  1  0
 25 46  1  0
 26 27  2  0
 26 30  1  0
 27 29  1  0
 27 28  1  0
 28 29  1  0
 28 47  1  0
 28 48  1  0
 29 49  1  0
 29 50  1  0
 30 51  1  0
 30 52  1  0
M  CHG  1  20   1
M  END
>  <DOCK_score>  (1) 
-45.220108

>  <SMILES>  (1) 
Fc1ccccc1Nc1ccc(-c2n[nH]cc2C[NH2+]CC2CC(=C3CC3)C2)o1

$$$$
