c1ccc([C@H]2C[C@H](Nc3ccc(-c4n[nH]cc4C[NH2+]C[C@H]4C[C@H]5CC[C@H]5C4)o3)C2)cc1
     RDKit          3D

 64 69  0  0  1  0  0  0  0  0999 V2000
  128.0553  137.9207  168.5107 C   0  0  0  0  0  0  0  0  0  0  0  0
  126.8194  138.3163  168.0345 C   0  0  0  0  0  0  0  0  0  0  0  0
  126.4397  137.9934  166.7451 C   0  0  0  0  0  0  0  0  0  0  0  0
  127.3004  137.2842  165.9283 C   0  0  0  0  0  0  0  0  0  0  0  0
  126.8890  136.9377  164.5205 C   0  0  1  0  0  0  0  0  0  0  0  0
  126.2122  136.0846  164.4752 H   0  0  0  0  0  0  0  0  0  0  0  0
  126.4096  138.1488  163.7031 C   0  0  0  0  0  0  0  0  0  0  0  0
  127.1705  137.5430  162.5098 C   0  0  2  0  0  0  0  0  0  0  0  0
  127.6954  138.2824  161.9046 H   0  0  0  0  0  0  0  0  0  0  0  0
  126.3645  136.6198  161.7073 N   0  0  0  0  0  0  0  0  0  0  0  0
  126.9745  135.5632  161.0411 C   0  0  0  0  0  0  0  0  0  0  0  0
  126.4023  134.3652  160.7637 C   0  0  0  0  0  0  0  0  0  0  0  0
  127.3656  133.5981  160.0793 C   0  0  0  0  0  0  0  0  0  0  0  0
  128.4830  134.3656  159.9815 C   0  0  0  0  0  0  0  0  0  0  0  0
  129.7537  133.9667  159.3417 C   0  0  0  0  0  0  0  0  0  0  0  0
  129.8858  133.1229  158.3371 N   0  0  0  0  0  0  0  0  0  0  0  0
  131.2487  133.0234  158.0296 N   0  0  0  0  0  0  0  0  0  0  0  0
  131.6352  132.4745  157.3294 H   0  0  0  0  0  0  0  0  0  0  0  0
  131.9320  133.8204  158.8793 C   0  0  0  0  0  0  0  0  0  0  0  0
  131.0418  134.4163  159.7011 C   0  0  0  0  0  0  0  0  0  0  0  0
  131.3663  135.3885  160.8060 C   0  0  0  0  0  0  0  0  0  0  0  0
  131.3530  136.7574  160.2732 N   0  0  0  0  0  0  0  0  0  0  0  0
  132.0411  136.8396  159.5400 H   0  0  0  0  0  0  0  0  0  0  0  0
  130.4384  136.9645  159.9008 H   0  0  0  0  0  0  0  0  0  0  0  0
  131.6693  137.7050  161.3502 C   0  0  0  0  0  0  0  0  0  0  0  0
  131.6555  139.1309  160.7953 C   0  0  1  0  0  0  0  0  0  0  0  0
  132.1111  139.1478  159.8055 H   0  0  0  0  0  0  0  0  0  0  0  0
  130.2109  139.6461  160.7148 C   0  0  0  0  0  0  0  0  0  0  0  0
  130.2457  141.0988  161.2265 C   0  0  1  0  0  0  0  0  0  0  0  0
  130.2212  141.8632  160.4498 H   0  0  0  0  0  0  0  0  0  0  0  0
  129.3152  141.3273  162.4312 C   0  0  0  0  0  0  0  0  0  0  0  0
  130.4555  140.6812  163.2956 C   0  0  0  0  0  0  0  0  0  0  0  0
  131.4364  141.1475  162.2108 C   0  0  1  0  0  0  0  0  0  0  0  0
  131.8787  142.1306  162.3727 H   0  0  0  0  0  0  0  0  0  0  0  0
  132.4192  140.0672  161.7420 C   0  0  0  0  0  0  0  0  0  0  0  0
  128.2326  135.5547  160.5687 O   0  0  0  0  0  0  0  0  0  0  0  0
  128.0698  136.8398  163.5402 C   0  0  0  0  0  0  0  0  0  0  0  0
  128.5385  136.8931  166.4027 C   0  0  0  0  0  0  0  0  0  0  0  0
  128.9159  137.2113  167.6938 C   0  0  0  0  0  0  0  0  0  0  0  0
  128.3504  138.1696  169.5193 H   0  0  0  0  0  0  0  0  0  0  0  0
  126.1487  138.8742  168.6711 H   0  0  0  0  0  0  0  0  0  0  0  0
  125.4725  138.2992  166.3743 H   0  0  0  0  0  0  0  0  0  0  0  0
  125.3291  138.1806  163.5625 H   0  0  0  0  0  0  0  0  0  0  0  0
  126.8207  139.0980  164.0469 H   0  0  0  0  0  0  0  0  0  0  0  0
  125.4050  136.7458  161.6406 H   0  0  0  0  0  0  0  0  0  0  0  0
  125.3983  134.0584  161.0174 H   0  0  0  0  0  0  0  0  0  0  0  0
  127.2415  132.5916  159.7077 H   0  0  0  0  0  0  0  0  0  0  0  0
  133.0032  133.9569  158.8985 H   0  0  0  0  0  0  0  0  0  0  0  0
  130.6229  135.2997  161.5981 H   0  0  0  0  0  0  0  0  0  0  0  0
  132.3544  135.1647  161.2082 H   0  0  0  0  0  0  0  0  0  0  0  0
  130.9259  137.6162  162.1423 H   0  0  0  0  0  0  0  0  0  0  0  0
  132.6573  137.4813  161.7525 H   0  0  0  0  0  0  0  0  0  0  0  0
  129.8606  139.6205  159.6828 H   0  0  0  0  0  0  0  0  0  0  0  0
  129.5608  139.0405  161.3463 H   0  0  0  0  0  0  0  0  0  0  0  0
  129.1443  142.3799  162.6570 H   0  0  0  0  0  0  0  0  0  0  0  0
  128.3931  140.7480  162.3865 H   0  0  0  0  0  0  0  0  0  0  0  0
  130.3761  139.5969  163.3756 H   0  0  0  0  0  0  0  0  0  0  0  0
  130.6076  141.1667  164.2596 H   0  0  0  0  0  0  0  0  0  0  0  0
  132.7888  139.5055  162.6000 H   0  0  0  0  0  0  0  0  0  0  0  0
  133.2526  140.5294  161.2130 H   0  0  0  0  0  0  0  0  0  0  0  0
  128.9357  137.4305  163.8390 H   0  0  0  0  0  0  0  0  0  0  0  0
  128.3277  135.8163  163.2681 H   0  0  0  0  0  0  0  0  0  0  0  0
  129.2110  136.3392  165.7644 H   0  0  0  0  0  0  0  0  0  0  0  0
  129.8835  136.9062  168.0644 H   0  0  0  0  0  0  0  0  0  0  0  0
  1 39  2  0
  1  2  1  0
  1 40  1  0
  2  3  2  0
  2 41  1  0
  3  4  1  0
  3 42  1  0
  4  5  1  0
  4 38  2  0
  5  6  1  1
  5 37  1  0
  5  7  1  0
  7  8  1  0
  7 43  1  0
  7 44  1  0
  8  9  1  6
  8 10  1  0
  8 37  1  0
 10 11  1  0
 10 45  1  0
 11 36  1  0
 11 12  2  0
 12 13  1  0
 12 46  1  0
 13 14  2  0
 13 47  1  0
 14 15  1  0
 14 36  1  0
 15 20  1  0
 15 16  2  0
 16 17  1  0
 17 18  1  0
 17 19  1  0
 19 20  2  0
 19 48  1  0
 20 21  1  0
 21 22  1  0
 21 49  1  0
 21 50  1  0
 22 23  1  0
 22 24  1  0
 22 25  1  0
 25 26  1  0
 25 51  1  0
 25 52  1  0
 26 27  1  6
 26 35  1  0
 26 28  1  0
 28 29  1  0
 28 53  1  0
 28 54  1  0
 29 30  1  6
 29 33  1  0
 29 31  1  0
 31 32  1  0
 31 55  1  0
 31 56  1  0
 32 33  1  0
 32 57  1  0
 32 58  1  0
 33 34  1  1
 33 35  1  0
 35 59  1  0
 35 60  1  0
 37 61  1  0
 37 62  1  0
 38 39  1  0
 38 63  1  0
 39 64  1  0
M  CHG  1  22   1
M  END
>  <DOCK_score>  (1) 
-44.540897

>  <SMILES>  (1) 
c1ccc([C@H]2C[C@H](Nc3ccc(-c4n[nH]cc4C[NH2+]C[C@H]4C[C@H]5CC[C@H]5C4)o3)C2)cc1

$$$$
