Nc1ccc(-c2c[nH]c(N[C@H](c3cccc(F)c3)C(c3ccccc3)c3ccccc3)[nH+]2)cc1
     RDKit          3D

 60 64  0  0  1  0  0  0  0  0999 V2000
  131.4317  130.2177  152.0027 N   0  0  0  0  0  0  0  0  0  0  0  0
  131.1593  130.7737  153.2550 C   0  0  0  0  0  0  0  0  0  0  0  0
  130.3944  131.9303  153.3491 C   0  0  0  0  0  0  0  0  0  0  0  0
  130.1237  132.4806  154.5841 C   0  0  0  0  0  0  0  0  0  0  0  0
  130.6180  131.8760  155.7388 C   0  0  0  0  0  0  0  0  0  0  0  0
  130.3286  132.4665  157.0687 C   0  0  0  0  0  0  0  0  0  0  0  0
  129.6713  131.8573  158.0862 C   0  0  0  0  0  0  0  0  0  0  0  0
  129.6249  132.7561  159.1255 N   0  0  0  0  0  0  0  0  0  0  0  0
  129.2174  132.6103  159.9936 H   0  0  0  0  0  0  0  0  0  0  0  0
  130.2557  133.8883  158.7111 C   0  0  0  0  0  0  0  0  0  0  0  0
  130.4269  135.0376  159.4638 N   0  0  0  0  0  0  0  0  0  0  0  0
  129.9062  135.1015  160.8317 C   0  0  2  0  0  0  0  0  0  0  0  0
  130.3704  134.3207  161.4340 H   0  0  0  0  0  0  0  0  0  0  0  0
  128.4130  134.8991  160.8108 C   0  0  0  0  0  0  0  0  0  0  0  0
  127.8495  133.8393  161.4972 C   0  0  0  0  0  0  0  0  0  0  0  0
  126.4796  133.6559  161.4836 C   0  0  0  0  0  0  0  0  0  0  0  0
  125.6723  134.5252  160.7744 C   0  0  0  0  0  0  0  0  0  0  0  0
  126.2358  135.5833  160.0821 C   0  0  0  0  0  0  0  0  0  0  0  0
  125.4478  136.4339  159.3889 F   0  0  0  0  0  0  0  0  0  0  0  0
  127.6079  135.7695  160.1010 C   0  0  0  0  0  0  0  0  0  0  0  0
  130.2268  136.4702  161.4358 C   0  0  0  0  0  0  0  0  0  0  0  0
  129.6912  136.5360  162.8430 C   0  0  0  0  0  0  0  0  0  0  0  0
  129.2924  137.7481  163.3746 C   0  0  0  0  0  0  0  0  0  0  0  0
  128.7966  137.8078  164.6637 C   0  0  0  0  0  0  0  0  0  0  0  0
  128.7096  136.6571  165.4247 C   0  0  0  0  0  0  0  0  0  0  0  0
  129.1134  135.4457  164.8948 C   0  0  0  0  0  0  0  0  0  0  0  0
  129.6043  135.3853  163.6039 C   0  0  0  0  0  0  0  0  0  0  0  0
  131.7201  136.6726  161.4568 C   0  0  0  0  0  0  0  0  0  0  0  0
  132.4558  136.2775  162.5583 C   0  0  0  0  0  0  0  0  0  0  0  0
  133.8262  136.4589  162.5753 C   0  0  0  0  0  0  0  0  0  0  0  0
  134.4594  137.0449  161.4952 C   0  0  0  0  0  0  0  0  0  0  0  0
  133.7228  137.4446  160.3958 C   0  0  0  0  0  0  0  0  0  0  0  0
  132.3532  137.2586  160.3766 C   0  0  0  0  0  0  0  0  0  0  0  0
  130.6748  133.7114  157.4818 N   0  0  0  0  0  0  0  0  0  0  0  0
  131.1557  134.3661  156.9519 H   0  0  0  0  0  0  0  0  0  0  0  0
  131.3893  130.7190  155.6416 C   0  0  0  0  0  0  0  0  0  0  0  0
  131.6531  130.1691  154.4050 C   0  0  0  0  0  0  0  0  0  0  0  0
  131.0872  130.6389  151.1997 H   0  0  0  0  0  0  0  0  0  0  0  0
  131.9655  129.4105  151.9362 H   0  0  0  0  0  0  0  0  0  0  0  0
  130.0119  132.3985  152.4542 H   0  0  0  0  0  0  0  0  0  0  0  0
  129.5290  133.3791  154.6567 H   0  0  0  0  0  0  0  0  0  0  0  0
  129.2660  130.8562  158.0826 H   0  0  0  0  0  0  0  0  0  0  0  0
  130.8914  135.8004  159.0854 H   0  0  0  0  0  0  0  0  0  0  0  0
  128.4799  133.1569  162.0477 H   0  0  0  0  0  0  0  0  0  0  0  0
  126.0402  132.8303  162.0237 H   0  0  0  0  0  0  0  0  0  0  0  0
  124.6025  134.3789  160.7599 H   0  0  0  0  0  0  0  0  0  0  0  0
  128.0488  136.5945  159.5611 H   0  0  0  0  0  0  0  0  0  0  0  0
  129.7627  137.2511  160.8334 H   0  0  0  0  0  0  0  0  0  0  0  0
  129.3646  138.6479  162.7817 H   0  0  0  0  0  0  0  0  0  0  0  0
  128.4816  138.7542  165.0778 H   0  0  0  0  0  0  0  0  0  0  0  0
  128.3264  136.7043  166.4333 H   0  0  0  0  0  0  0  0  0  0  0  0
  129.0455  134.5467  165.4893 H   0  0  0  0  0  0  0  0  0  0  0  0
  129.9200  134.4391  163.1901 H   0  0  0  0  0  0  0  0  0  0  0  0
  131.9605  135.8239  163.4040 H   0  0  0  0  0  0  0  0  0  0  0  0
  134.4015  136.1468  163.4344 H   0  0  0  0  0  0  0  0  0  0  0  0
  135.5294  137.1906  161.5104 H   0  0  0  0  0  0  0  0  0  0  0  0
  134.2176  137.9028  159.5522 H   0  0  0  0  0  0  0  0  0  0  0  0
  131.7778  137.5713  159.5178 H   0  0  0  0  0  0  0  0  0  0  0  0
  131.7770  130.2514  156.5347 H   0  0  0  0  0  0  0  0  0  0  0  0
  132.2475  129.2707  154.3294 H   0  0  0  0  0  0  0  0  0  0  0  0
  1  2  1  0
  1 38  1  0
  1 39  1  0
  2 37  2  0
  2  3  1  0
  3  4  2  0
  3 40  1  0
  4  5  1  0
  4 41  1  0
  5  6  1  0
  5 36  2  0
  6 34  1  0
  6  7  2  0
  7  8  1  0
  7 42  1  0
  8  9  1  0
  8 10  1  0
 10 11  1  0
 10 34  2  0
 11 12  1  0
 11 43  1  0
 12 13  1  1
 12 14  1  0
 12 21  1  0
 14 20  1  0
 14 15  2  0
 15 16  1  0
 15 44  1  0
 16 17  2  0
 16 45  1  0
 17 18  1  0
 17 46  1  0
 18 19  1  0
 18 20  2  0
 20 47  1  0
 21 22  1  0
 21 28  1  0
 21 48  1  0
 22 27  1  0
 22 23  2  0
 23 24  1  0
 23 49  1  0
 24 25  2  0
 24 50  1  0
 25 26  1  0
 25 51  1  0
 26 27  2  0
 26 52  1  0
 27 53  1  0
 28 33  1  0
 28 29  2  0
 29 30  1  0
 29 54  1  0
 30 31  2  0
 30 55  1  0
 31 32  1  0
 31 56  1  0
 32 33  2  0
 32 57  1  0
 33 58  1  0
 34 35  1  0
 36 37  1  0
 36 59  1  0
 37 60  1  0
M  CHG  1  34   1
M  END
>  <DOCK_score>  (1) 
-59.358624

>  <SMILES>  (1) 
Nc1ccc(-c2c[nH]c(N[C@H](c3cccc(F)c3)C(c3ccccc3)c3ccccc3)[nH+]2)cc1

$$$$
