O=C1CC[C@H](NC(NC2CC2)=[NH+]C2COc3ccccc3C2)CN1
     RDKit          3D

 49 52  0  0  1  0  0  0  0  0999 V2000
  123.6642  134.0660  161.6680 O   0  0  0  0  0  0  0  0  0  0  0  0
  124.8302  134.2480  161.3883 C   0  0  0  0  0  0  0  0  0  0  0  0
  125.6341  133.0785  160.8972 C   0  0  0  0  0  0  0  0  0  0  0  0
  127.1287  133.3863  161.0183 C   0  0  0  0  0  0  0  0  0  0  0  0
  127.3905  134.7670  160.4047 C   0  0  2  0  0  0  0  0  0  0  0  0
  126.9737  134.8048  159.3982 H   0  0  0  0  0  0  0  0  0  0  0  0
  128.8334  135.0145  160.3488 N   0  0  0  0  0  0  0  0  0  0  0  0
  129.5524  134.6407  159.2383 C   0  0  0  0  0  0  0  0  0  0  0  0
  128.9174  134.0348  158.1802 N   0  0  0  0  0  0  0  0  0  0  0  0
  129.6836  133.6364  156.9967 C   0  0  0  0  0  0  0  0  0  0  0  0
  129.5252  132.1964  156.5042 C   0  0  0  0  0  0  0  0  0  0  0  0
  130.8191  132.6305  157.1958 C   0  0  0  0  0  0  0  0  0  0  0  0
  130.8362  134.8609  159.1886 N   0  0  0  0  0  0  0  0  0  0  0  0
  131.2684  135.0196  158.3349 H   0  0  0  0  0  0  0  0  0  0  0  0
  131.6252  134.8743  160.4229 C   0  0  1  0  0  0  0  0  0  0  0  0
  132.7242  133.8069  160.3458 C   0  0  0  0  0  0  0  0  0  0  0  0
  133.4088  133.7735  161.5989 O   0  0  0  0  0  0  0  0  0  0  0  0
  133.8304  134.9532  162.1238 C   0  0  0  0  0  0  0  0  0  0  0  0
  134.7923  134.9269  163.1289 C   0  0  0  0  0  0  0  0  0  0  0  0
  135.2423  136.1042  163.6904 C   0  0  0  0  0  0  0  0  0  0  0  0
  134.7366  137.3150  163.2540 C   0  0  0  0  0  0  0  0  0  0  0  0
  133.7830  137.3451  162.2554 C   0  0  0  0  0  0  0  0  0  0  0  0
  133.3289  136.1666  161.6867 C   0  0  0  0  0  0  0  0  0  0  0  0
  132.2931  136.2411  160.5935 C   0  0  0  0  0  0  0  0  0  0  0  0
  126.7211  135.8294  161.2774 C   0  0  0  0  0  0  0  0  0  0  0  0
  125.3299  135.4759  161.5336 N   0  0  0  0  0  0  0  0  0  0  0  0
  125.3882  132.8828  159.8534 H   0  0  0  0  0  0  0  0  0  0  0  0
  125.3960  132.1988  161.4950 H   0  0  0  0  0  0  0  0  0  0  0  0
  127.7035  132.6313  160.4819 H   0  0  0  0  0  0  0  0  0  0  0  0
  127.4184  133.3907  162.0691 H   0  0  0  0  0  0  0  0  0  0  0  0
  129.2813  135.4419  161.0954 H   0  0  0  0  0  0  0  0  0  0  0  0
  127.9621  133.8709  158.2171 H   0  0  0  0  0  0  0  0  0  0  0  0
  129.8251  134.4129  156.2450 H   0  0  0  0  0  0  0  0  0  0  0  0
  128.8511  131.5455  157.0609 H   0  0  0  0  0  0  0  0  0  0  0  0
  129.5625  132.0255  155.4284 H   0  0  0  0  0  0  0  0  0  0  0  0
  131.7076  132.7451  156.5749 H   0  0  0  0  0  0  0  0  0  0  0  0
  130.9962  132.2651  158.2073 H   0  0  0  0  0  0  0  0  0  0  0  0
  130.9769  134.6732  161.2757 H   0  0  0  0  0  0  0  0  0  0  0  0
  132.2769  132.8331  160.1459 H   0  0  0  0  0  0  0  0  0  0  0  0
  133.4259  134.0591  159.5508 H   0  0  0  0  0  0  0  0  0  0  0  0
  135.1880  133.9819  163.4707 H   0  0  0  0  0  0  0  0  0  0  0  0
  135.9894  136.0801  164.4699 H   0  0  0  0  0  0  0  0  0  0  0  0
  135.0869  138.2369  163.6942 H   0  0  0  0  0  0  0  0  0  0  0  0
  133.3899  138.2920  161.9160 H   0  0  0  0  0  0  0  0  0  0  0  0
  132.7734  136.5294  159.6584 H   0  0  0  0  0  0  0  0  0  0  0  0
  131.5390  136.9828  160.8571 H   0  0  0  0  0  0  0  0  0  0  0  0
  127.2524  135.9031  162.2264 H   0  0  0  0  0  0  0  0  0  0  0  0
  126.7633  136.7924  160.7687 H   0  0  0  0  0  0  0  0  0  0  0  0
  124.7294  136.1793  161.8258 H   0  0  0  0  0  0  0  0  0  0  0  0
  1  2  2  0
  2 26  1  0
  2  3  1  0
  3  4  1  0
  3 27  1  0
  3 28  1  0
  4  5  1  0
  4 29  1  0
  4 30  1  0
  5  6  1  6
  5  7  1  0
  5 25  1  0
  7 31  1  0
  8  7  1  0
  8  9  1  0
  8 13  2  0
  9 10  1  0
  9 32  1  0
 10 12  1  0
 10 11  1  0
 10 33  1  0
 11 12  1  0
 11 34  1  0
 11 35  1  0
 12 36  1  0
 12 37  1  0
 13 14  1  0
 13 15  1  0
 15 24  1  0
 15 16  1  0
 15 38  1  1
 16 17  1  0
 16 39  1  0
 16 40  1  0
 17 18  1  0
 18 23  2  0
 18 19  1  0
 19 20  2  0
 19 41  1  0
 20 21  1  0
 20 42  1  0
 21 22  2  0
 21 43  1  0
 22 23  1  0
 22 44  1  0
 23 24  1  0
 24 45  1  0
 24 46  1  0
 25 26  1  0
 25 47  1  0
 25 48  1  0
 26 49  1  0
M  CHG  1  13   1
M  END
>  <DOCK_score>  (1) 
-47.958023

>  <SMILES>  (1) 
O=C1CC[C@H](NC(NC2CC2)=[NH+]C2COc3ccccc3C2)CN1

$$$$
