O=C1CC[C@H](NC(NC2CC(F)(F)C2)=[NH+]C2COc3cc(F)ccc3C2)CN1
     RDKit          3D

 52 55  0  0  1  0  0  0  0  0999 V2000
  123.7634  133.7208  161.4353 O   0  0  0  0  0  0  0  0  0  0  0  0
  124.9344  133.8726  161.1584 C   0  0  0  0  0  0  0  0  0  0  0  0
  125.7377  132.6619  160.7787 C   0  0  0  0  0  0  0  0  0  0  0  0
  127.2320  132.9732  160.8945 C   0  0  0  0  0  0  0  0  0  0  0  0
  127.5088  134.2968  160.1714 C   0  0  2  0  0  0  0  0  0  0  0  0
  127.1034  134.2531  159.1605 H   0  0  0  0  0  0  0  0  0  0  0  0
  128.9536  134.5314  160.1117 N   0  0  0  0  0  0  0  0  0  0  0  0
  129.6827  134.0630  159.0443 C   0  0  0  0  0  0  0  0  0  0  0  0
  129.0558  133.3745  158.0329 N   0  0  0  0  0  0  0  0  0  0  0  0
  129.8325  132.8754  156.8954 C   0  0  0  0  0  0  0  0  0  0  0  0
  129.1613  131.7055  156.1568 C   0  0  0  0  0  0  0  0  0  0  0  0
  130.5609  131.0792  156.0398 C   0  0  0  0  0  0  0  0  0  0  0  0
  131.2554  131.4700  154.8900 F   0  0  0  0  0  0  0  0  0  0  0  0
  130.5757  129.6945  156.2390 F   0  0  0  0  0  0  0  0  0  0  0  0
  130.9406  131.8858  157.2928 C   0  0  0  0  0  0  0  0  0  0  0  0
  130.9681  134.2716  158.9914 N   0  0  0  0  0  0  0  0  0  0  0  0
  131.4107  134.3568  158.1325 H   0  0  0  0  0  0  0  0  0  0  0  0
  131.7445  134.3776  160.2292 C   0  0  1  0  0  0  0  0  0  0  0  0
  133.1835  133.9082  159.9787 C   0  0  0  0  0  0  0  0  0  0  0  0
  133.8854  133.9249  161.2225 O   0  0  0  0  0  0  0  0  0  0  0  0
  133.8032  135.0475  161.9830 C   0  0  0  0  0  0  0  0  0  0  0  0
  134.7414  135.2347  162.9930 C   0  0  0  0  0  0  0  0  0  0  0  0
  134.6886  136.3620  163.7905 C   0  0  0  0  0  0  0  0  0  0  0  0
  135.6019  136.5411  164.7698 F   0  0  0  0  0  0  0  0  0  0  0  0
  133.6982  137.3082  163.5841 C   0  0  0  0  0  0  0  0  0  0  0  0
  132.7672  137.1242  162.5813 C   0  0  0  0  0  0  0  0  0  0  0  0
  132.8173  135.9969  161.7779 C   0  0  0  0  0  0  0  0  0  0  0  0
  131.7882  135.8374  160.6876 C   0  0  0  0  0  0  0  0  0  0  0  0
  126.8333  135.4288  160.9465 C   0  0  0  0  0  0  0  0  0  0  0  0
  125.4365  135.1052  161.2083 N   0  0  0  0  0  0  0  0  0  0  0  0
  125.5050  132.3806  159.7516 H   0  0  0  0  0  0  0  0  0  0  0  0
  125.4869  131.8372  161.4457 H   0  0  0  0  0  0  0  0  0  0  0  0
  127.5075  133.0644  161.9451 H   0  0  0  0  0  0  0  0  0  0  0  0
  127.8103  132.1736  160.4316 H   0  0  0  0  0  0  0  0  0  0  0  0
  129.3961  135.0173  160.8253 H   0  0  0  0  0  0  0  0  0  0  0  0
  128.0991  133.2191  158.0723 H   0  0  0  0  0  0  0  0  0  0  0  0
  130.1749  133.6718  156.2346 H   0  0  0  0  0  0  0  0  0  0  0  0
  128.4766  131.1308  156.7805 H   0  0  0  0  0  0  0  0  0  0  0  0
  128.7271  131.9863  155.1974 H   0  0  0  0  0  0  0  0  0  0  0  0
  131.9427  132.3124  157.2505 H   0  0  0  0  0  0  0  0  0  0  0  0
  130.7429  131.3615  158.2277 H   0  0  0  0  0  0  0  0  0  0  0  0
  131.2870  133.7621  161.0037 H   0  0  0  0  0  0  0  0  0  0  0  0
  133.1746  132.8957  159.5756 H   0  0  0  0  0  0  0  0  0  0  0  0
  133.6711  134.5802  159.2724 H   0  0  0  0  0  0  0  0  0  0  0  0
  135.5136  134.4970  163.1539 H   0  0  0  0  0  0  0  0  0  0  0  0
  133.6541  138.1891  164.2073 H   0  0  0  0  0  0  0  0  0  0  0  0
  131.9958  137.8632  162.4224 H   0  0  0  0  0  0  0  0  0  0  0  0
  132.0520  136.4748  159.8438 H   0  0  0  0  0  0  0  0  0  0  0  0
  130.8087  136.1274  161.0681 H   0  0  0  0  0  0  0  0  0  0  0  0
  127.3524  135.5769  161.8934 H   0  0  0  0  0  0  0  0  0  0  0  0
  126.8837  136.3467  160.3607 H   0  0  0  0  0  0  0  0  0  0  0  0
  124.8356  135.8329  161.4324 H   0  0  0  0  0  0  0  0  0  0  0  0
  1  2  2  0
  2 30  1  0
  2  3  1  0
  3  4  1  0
  3 31  1  0
  3 32  1  0
  4  5  1  0
  4 33  1  0
  4 34  1  0
  5  6  1  6
  5  7  1  0
  5 29  1  0
  7 35  1  0
  8  7  1  0
  8  9  1  0
  8 16  2  0
  9 10  1  0
  9 36  1  0
 10 15  1  0
 10 11  1  0
 10 37  1  0
 11 12  1  0
 11 38  1  0
 11 39  1  0
 12 13  1  0
 12 14  1  0
 12 15  1  0
 15 40  1  0
 15 41  1  0
 16 17  1  0
 16 18  1  0
 18 28  1  0
 18 19  1  0
 18 42  1  1
 19 20  1  0
 19 43  1  0
 19 44  1  0
 20 21  1  0
 21 27  2  0
 21 22  1  0
 22 23  2  0
 22 45  1  0
 23 24  1  0
 23 25  1  0
 25 26  2  0
 25 46  1  0
 26 27  1  0
 26 47  1  0
 27 28  1  0
 28 48  1  0
 28 49  1  0
 29 30  1  0
 29 50  1  0
 29 51  1  0
 30 52  1  0
M  CHG  1  16   1
M  END
>  <DOCK_score>  (1) 
-45.696487

>  <SMILES>  (1) 
O=C1CC[C@H](NC(NC2CC(F)(F)C2)=[NH+]C2COc3cc(F)ccc3C2)CN1

$$$$
