Nc1ccc(Oc2cc(O)cc(C[NH+]=C(NCC3CC=CC3)NC3CC=CC3)c2)cc1
     RDKit          3D

 62 65  0  0  1  0  0  0  0  0999 V2000
  124.2209  137.1229  171.1841 N   0  0  0  0  0  0  0  0  0  0  0  0
  125.1160  136.6291  170.2287 C   0  0  0  0  0  0  0  0  0  0  0  0
  125.6944  137.4920  169.3071 C   0  0  0  0  0  0  0  0  0  0  0  0
  126.5774  137.0037  168.3642 C   0  0  0  0  0  0  0  0  0  0  0  0
  126.8867  135.6517  168.3376 C   0  0  0  0  0  0  0  0  0  0  0  0
  127.7559  135.1715  167.4087 O   0  0  0  0  0  0  0  0  0  0  0  0
  127.6128  135.5907  166.1242 C   0  0  0  0  0  0  0  0  0  0  0  0
  126.3540  135.6293  165.5425 C   0  0  0  0  0  0  0  0  0  0  0  0
  126.2117  136.0569  164.2321 C   0  0  0  0  0  0  0  0  0  0  0  0
  124.9799  136.0945  163.6593 O   0  0  0  0  0  0  0  0  0  0  0  0
  127.3280  136.4466  163.5052 C   0  0  0  0  0  0  0  0  0  0  0  0
  128.5807  136.4080  164.0867 C   0  0  0  0  0  0  0  0  0  0  0  0
  129.7909  136.8315  163.2948 C   0  0  0  0  0  0  0  0  0  0  0  0
  129.7298  136.2402  161.9559 N   0  0  0  0  0  0  0  0  0  0  0  0
  128.9816  135.6743  161.7092 H   0  0  0  0  0  0  0  0  0  0  0  0
  130.6835  136.4702  161.0977 C   0  0  0  0  0  0  0  0  0  0  0  0
  131.7468  137.2677  161.4490 N   0  0  0  0  0  0  0  0  0  0  0  0
  132.8187  137.5261  160.4845 C   0  0  0  0  0  0  0  0  0  0  0  0
  133.8709  138.4353  161.1226 C   0  0  0  0  0  0  0  0  0  0  0  0
  133.3045  139.8532  161.3672 C   0  0  0  0  0  0  0  0  0  0  0  0
  134.4576  140.7838  161.0710 C   0  0  0  0  0  0  0  0  0  0  0  0
  135.3942  140.1723  160.3982 C   0  0  0  0  0  0  0  0  0  0  0  0
  135.0219  138.7320  160.1335 C   0  0  0  0  0  0  0  0  0  0  0  0
  130.6260  135.9154  159.8411 N   0  0  0  0  0  0  0  0  0  0  0  0
  129.4928  135.0657  159.4666 C   0  0  0  0  0  0  0  0  0  0  0  0
  129.5076  133.7389  160.2609 C   0  0  0  0  0  0  0  0  0  0  0  0
  129.0352  132.6958  159.2750 C   0  0  0  0  0  0  0  0  0  0  0  0
  129.1066  133.1406  158.0500 C   0  0  0  0  0  0  0  0  0  0  0  0
  129.6384  134.5544  158.0146 C   0  0  0  0  0  0  0  0  0  0  0  0
  128.7264  135.9766  165.3914 C   0  0  0  0  0  0  0  0  0  0  0  0
  126.3054  134.7882  169.2547 C   0  0  0  0  0  0  0  0  0  0  0  0
  125.4262  135.2758  170.2016 C   0  0  0  0  0  0  0  0  0  0  0  0
  124.0041  138.0683  171.2027 H   0  0  0  0  0  0  0  0  0  0  0  0
  123.8171  136.5200  171.8277 H   0  0  0  0  0  0  0  0  0  0  0  0
  125.4533  138.5445  169.3274 H   0  0  0  0  0  0  0  0  0  0  0  0
  127.0269  137.6746  167.6471 H   0  0  0  0  0  0  0  0  0  0  0  0
  125.4867  135.3260  166.1100 H   0  0  0  0  0  0  0  0  0  0  0  0
  124.9811  136.4064  162.7440 H   0  0  0  0  0  0  0  0  0  0  0  0
  127.2172  136.7807  162.4841 H   0  0  0  0  0  0  0  0  0  0  0  0
  130.6939  136.4911  163.8015 H   0  0  0  0  0  0  0  0  0  0  0  0
  129.8087  137.9182  163.2116 H   0  0  0  0  0  0  0  0  0  0  0  0
  131.7874  137.6591  162.3356 H   0  0  0  0  0  0  0  0  0  0  0  0
  133.2816  136.5829  160.1941 H   0  0  0  0  0  0  0  0  0  0  0  0
  132.4039  138.0140  159.6024 H   0  0  0  0  0  0  0  0  0  0  0  0
  134.2517  138.0007  162.0468 H   0  0  0  0  0  0  0  0  0  0  0  0
  132.4730  140.0519  160.6909 H   0  0  0  0  0  0  0  0  0  0  0  0
  132.9860  139.9612  162.4039 H   0  0  0  0  0  0  0  0  0  0  0  0
  134.5013  141.8188  161.3764 H   0  0  0  0  0  0  0  0  0  0  0  0
  136.3145  140.6349  160.0737 H   0  0  0  0  0  0  0  0  0  0  0  0
  135.8707  138.0778  160.3313 H   0  0  0  0  0  0  0  0  0  0  0  0
  134.6797  138.6111  159.1055 H   0  0  0  0  0  0  0  0  0  0  0  0
  131.3357  136.0865  159.2025 H   0  0  0  0  0  0  0  0  0  0  0  0
  128.5490  135.5934  159.6030 H   0  0  0  0  0  0  0  0  0  0  0  0
  130.5181  133.5107  160.6002 H   0  0  0  0  0  0  0  0  0  0  0  0
  128.8253  133.7964  161.1090 H   0  0  0  0  0  0  0  0  0  0  0  0
  128.6843  131.7116  159.5481 H   0  0  0  0  0  0  0  0  0  0  0  0
  128.8223  132.5728  157.1763 H   0  0  0  0  0  0  0  0  0  0  0  0
  129.0449  135.1665  157.3353 H   0  0  0  0  0  0  0  0  0  0  0  0
  130.6858  134.5606  157.7130 H   0  0  0  0  0  0  0  0  0  0  0  0
  129.7072  135.9435  165.8423 H   0  0  0  0  0  0  0  0  0  0  0  0
  126.5436  133.7350  169.2308 H   0  0  0  0  0  0  0  0  0  0  0  0
  124.9768  134.6041  170.9180 H   0  0  0  0  0  0  0  0  0  0  0  0
  1  2  1  0
  1 33  1  0
  1 34  1  0
  2 32  2  0
  2  3  1  0
  3  4  2  0
  3 35  1  0
  4  5  1  0
  4 36  1  0
  5  6  1  0
  5 31  2  0
  6  7  1  0
  7 30  1  0
  7  8  2  0
  8  9  1  0
  8 37  1  0
  9 10  1  0
  9 11  2  0
 10 38  1  0
 11 12  1  0
 11 39  1  0
 12 13  1  0
 12 30  2  0
 13 14  1  0
 13 40  1  0
 13 41  1  0
 14 15  1  0
 16 14  2  0
 16 17  1  0
 16 24  1  0
 17 18  1  0
 17 42  1  0
 18 19  1  0
 18 43  1  0
 18 44  1  0
 19 23  1  0
 19 20  1  0
 19 45  1  0
 20 21  1  0
 20 46  1  0
 20 47  1  0
 21 22  2  0
 21 48  1  0
 22 23  1  0
 22 49  1  0
 23 50  1  0
 23 51  1  0
 24 25  1  0
 24 52  1  0
 25 29  1  0
 25 26  1  0
 25 53  1  0
 26 27  1  0
 26 54  1  0
 26 55  1  0
 27 28  2  0
 27 56  1  0
 28 29  1  0
 28 57  1  0
 29 58  1  0
 29 59  1  0
 30 60  1  0
 31 32  1  0
 31 61  1  0
 32 62  1  0
M  CHG  1  14   1
M  END
>  <DOCK_score>  (1) 
-43.115616

>  <SMILES>  (1) 
Nc1ccc(Oc2cc(O)cc(C[NH+]=C(NCC3CC=CC3)NC3CC=CC3)c2)cc1

$$$$
