Cc1ccc2c(c1)C[C@@H](NC(NC1CCCCC1)=[NH+]CC1=NOC(C)C1)CO2
     RDKit          3D

 61 64  0  0  1  0  0  0  0  0999 V2000
  136.3172  142.0424  159.0554 C   0  0  0  0  0  0  0  0  0  0  0  0
  135.5148  141.1461  159.9632 C   0  0  0  0  0  0  0  0  0  0  0  0
  135.6597  141.2429  161.3350 C   0  0  0  0  0  0  0  0  0  0  0  0
  134.9235  140.4230  162.1651 C   0  0  0  0  0  0  0  0  0  0  0  0
  134.0384  139.4942  161.6264 C   0  0  0  0  0  0  0  0  0  0  0  0
  133.8938  139.4011  160.2534 C   0  0  0  0  0  0  0  0  0  0  0  0
  134.6350  140.2275  159.4251 C   0  0  0  0  0  0  0  0  0  0  0  0
  132.9482  138.4071  159.6286 C   0  0  0  0  0  0  0  0  0  0  0  0
  131.9380  137.9286  160.6744 C   0  0  1  0  0  0  0  0  0  0  0  0
  131.2358  138.7309  160.9009 H   0  0  0  0  0  0  0  0  0  0  0  0
  131.2106  136.7648  160.1620 N   0  0  0  0  0  0  0  0  0  0  0  0
  130.2463  136.1620  160.9347 C   0  0  0  0  0  0  0  0  0  0  0  0
  130.0027  134.8154  160.8034 N   0  0  0  0  0  0  0  0  0  0  0  0
  130.7706  134.0225  159.8402 C   0  0  0  0  0  0  0  0  0  0  0  0
  130.0512  134.0238  158.4898 C   0  0  0  0  0  0  0  0  0  0  0  0
  130.8531  133.1958  157.4839 C   0  0  0  0  0  0  0  0  0  0  0  0
  130.9801  131.7585  157.9926 C   0  0  0  0  0  0  0  0  0  0  0  0
  131.6995  131.7570  159.3428 C   0  0  0  0  0  0  0  0  0  0  0  0
  130.8976  132.5851  160.3489 C   0  0  0  0  0  0  0  0  0  0  0  0
  129.5629  136.8674  161.7917 N   0  0  0  0  0  0  0  0  0  0  0  0
  129.7347  137.8175  161.8844 H   0  0  0  0  0  0  0  0  0  0  0  0
  128.5354  136.2251  162.6151 C   0  0  0  0  0  0  0  0  0  0  0  0
  127.8983  137.2522  163.5152 C   0  0  0  0  0  0  0  0  0  0  0  0
  126.8745  137.9598  163.2321 N   0  0  0  0  0  0  0  0  0  0  0  0
  126.5065  138.8462  164.2702 O   0  0  0  0  0  0  0  0  0  0  0  0
  127.1487  138.3897  165.4786 C   0  0  2  0  0  0  0  0  0  0  0  0
  127.6003  139.5711  166.3397 C   0  0  0  0  0  0  0  0  0  0  0  0
  128.3614  137.6152  164.9132 C   0  0  0  0  0  0  0  0  0  0  0  0
  132.7062  137.5402  161.9442 C   0  0  0  0  0  0  0  0  0  0  0  0
  133.3200  138.7149  162.4763 O   0  0  0  0  0  0  0  0  0  0  0  0
  137.2607  141.5568  158.8069 H   0  0  0  0  0  0  0  0  0  0  0  0
  135.7542  142.2317  158.1415 H   0  0  0  0  0  0  0  0  0  0  0  0
  136.5168  142.9869  159.5614 H   0  0  0  0  0  0  0  0  0  0  0  0
  136.3491  141.9596  161.7563 H   0  0  0  0  0  0  0  0  0  0  0  0
  135.0375  140.4993  163.2364 H   0  0  0  0  0  0  0  0  0  0  0  0
  134.5240  140.1536  158.3534 H   0  0  0  0  0  0  0  0  0  0  0  0
  132.4180  138.8807  158.8025 H   0  0  0  0  0  0  0  0  0  0  0  0
  133.5140  137.5540  159.2540 H   0  0  0  0  0  0  0  0  0  0  0  0
  131.4092  136.4194  159.2775 H   0  0  0  0  0  0  0  0  0  0  0  0
  129.3222  134.3902  161.3487 H   0  0  0  0  0  0  0  0  0  0  0  0
  131.7640  134.4556  159.7230 H   0  0  0  0  0  0  0  0  0  0  0  0
  129.0577  133.5908  158.6070 H   0  0  0  0  0  0  0  0  0  0  0  0
  129.9607  135.0479  158.1274 H   0  0  0  0  0  0  0  0  0  0  0  0
  131.8465  133.6289  157.3667 H   0  0  0  0  0  0  0  0  0  0  0  0
  130.3406  133.1968  156.5219 H   0  0  0  0  0  0  0  0  0  0  0  0
  131.5514  131.1685  157.2759 H   0  0  0  0  0  0  0  0  0  0  0  0
  129.9867  131.3254  158.1098 H   0  0  0  0  0  0  0  0  0  0  0  0
  132.6930  132.1901  159.2258 H   0  0  0  0  0  0  0  0  0  0  0  0
  131.7900  130.7331  159.7054 H   0  0  0  0  0  0  0  0  0  0  0  0
  131.4100  132.5842  161.3109 H   0  0  0  0  0  0  0  0  0  0  0  0
  129.9042  132.1521  160.4661 H   0  0  0  0  0  0  0  0  0  0  0  0
  127.7748  135.7857  161.9698 H   0  0  0  0  0  0  0  0  0  0  0  0
  128.9925  135.4435  163.2223 H   0  0  0  0  0  0  0  0  0  0  0  0
  126.4937  137.7256  166.0424 H   0  0  0  0  0  0  0  0  0  0  0  0
  126.7313  140.1604  166.6324 H   0  0  0  0  0  0  0  0  0  0  0  0
  128.1041  139.1988  167.2316 H   0  0  0  0  0  0  0  0  0  0  0  0
  128.2870  140.1956  165.7684 H   0  0  0  0  0  0  0  0  0  0  0  0
  128.5577  136.7185  165.5011 H   0  0  0  0  0  0  0  0  0  0  0  0
  129.2429  138.2552  164.8751 H   0  0  0  0  0  0  0  0  0  0  0  0
  132.0162  137.1221  162.6772 H   0  0  0  0  0  0  0  0  0  0  0  0
  133.4718  136.8039  161.6993 H   0  0  0  0  0  0  0  0  0  0  0  0
  1  2  1  0
  1 31  1  0
  1 32  1  0
  1 33  1  0
  2  7  2  0
  2  3  1  0
  3  4  2  0
  3 34  1  0
  4  5  1  0
  4 35  1  0
  5 30  1  0
  5  6  2  0
  6  7  1  0
  6  8  1  0
  7 36  1  0
  8  9  1  0
  8 37  1  0
  8 38  1  0
  9 10  1  1
  9 11  1  0
  9 29  1  0
 11 39  1  0
 12 11  1  0
 12 13  1  0
 12 20  2  0
 13 14  1  0
 13 40  1  0
 14 19  1  0
 14 15  1  0
 14 41  1  0
 15 16  1  0
 15 42  1  0
 15 43  1  0
 16 17  1  0
 16 44  1  0
 16 45  1  0
 17 18  1  0
 17 46  1  0
 17 47  1  0
 18 19  1  0
 18 48  1  0
 18 49  1  0
 19 50  1  0
 19 51  1  0
 20 21  1  0
 20 22  1  0
 22 23  1  0
 22 52  1  0
 22 53  1  0
 23 28  1  0
 23 24  2  0
 24 25  1  0
 25 26  1  0
 26 27  1  0
 26 28  1  0
 26 54  1  1
 27 55  1  0
 27 56  1  0
 27 57  1  0
 28 58  1  0
 28 59  1  0
 29 30  1  0
 29 60  1  0
 29 61  1  0
M  CHG  1  20   1
M  END
>  <DOCK_score>  (1) 
-43.392689

>  <SMILES>  (1) 
Cc1ccc2c(c1)C[C@@H](NC(NC1CCCCC1)=[NH+]CC1=NOC(C)C1)CO2

$$$$
