OCC[NH2+]C[C@@H]1CC=C(c2n[nH]cc2C(O)(Cc2ccccc2)C2=CC3C=CC2CC3)CC1
     RDKit          3D

 69 73  0  0  1  0  0  0  0  0999 V2000
  131.2503  133.9615  153.1644 O   0  0  0  0  0  0  0  0  0  0  0  0
  131.8038  132.7755  153.7380 C   0  0  0  0  0  0  0  0  0  0  0  0
  130.8561  132.2382  154.8123 C   0  0  0  0  0  0  0  0  0  0  0  0
  130.6787  133.2521  155.8603 N   0  0  0  0  0  0  0  0  0  0  0  0
  130.2878  134.0895  155.4554 H   0  0  0  0  0  0  0  0  0  0  0  0
  131.5725  133.4655  156.2767 H   0  0  0  0  0  0  0  0  0  0  0  0
  129.7687  132.7362  156.8916 C   0  0  0  0  0  0  0  0  0  0  0  0
  129.5838  133.7923  157.9832 C   0  0  2  0  0  0  0  0  0  0  0  0
  130.5360  134.2817  158.1883 H   0  0  0  0  0  0  0  0  0  0  0  0
  129.0621  133.1274  159.2588 C   0  0  0  0  0  0  0  0  0  0  0  0
  128.6326  134.1719  160.2473 C   0  0  0  0  0  0  0  0  0  0  0  0
  128.3958  135.4221  159.9323 C   0  0  0  0  0  0  0  0  0  0  0  0
  127.9688  136.3418  161.0082 C   0  0  0  0  0  0  0  0  0  0  0  0
  126.7265  136.5815  161.3760 N   0  0  0  0  0  0  0  0  0  0  0  0
  126.7548  137.5086  162.4257 N   0  0  0  0  0  0  0  0  0  0  0  0
  125.9820  137.8660  162.8901 H   0  0  0  0  0  0  0  0  0  0  0  0
  128.0447  137.8192  162.6786 C   0  0  0  0  0  0  0  0  0  0  0  0
  128.8189  137.1177  161.8230 C   0  0  0  0  0  0  0  0  0  0  0  0
  130.3239  137.1529  161.7552 C   0  0  1  0  0  0  0  0  0  0  0  0
  130.7467  136.8931  160.4151 O   0  0  0  0  0  0  0  0  0  0  0  0
  130.8217  138.5333  162.1884 C   0  0  0  0  0  0  0  0  0  0  0  0
  132.2216  138.7470  161.6727 C   0  0  0  0  0  0  0  0  0  0  0  0
  133.3067  138.3750  162.4442 C   0  0  0  0  0  0  0  0  0  0  0  0
  134.5906  138.5666  161.9691 C   0  0  0  0  0  0  0  0  0  0  0  0
  134.7897  139.1399  160.7271 C   0  0  0  0  0  0  0  0  0  0  0  0
  133.7046  139.5168  159.9579 C   0  0  0  0  0  0  0  0  0  0  0  0
  132.4205  139.3204  160.4308 C   0  0  0  0  0  0  0  0  0  0  0  0
  130.8929  136.1026  162.6740 C   0  0  0  0  0  0  0  0  0  0  0  0
  130.6691  136.0845  163.9882 C   0  0  0  0  0  0  0  0  0  0  0  0
  131.3477  134.9233  164.7094 C   0  0  1  0  0  0  0  0  0  0  0  0
  130.9025  133.6531  163.9899 C   0  0  0  0  0  0  0  0  0  0  0  0
  131.1301  133.6740  162.6770 C   0  0  0  0  0  0  0  0  0  0  0  0
  131.7846  134.9632  162.1885 C   0  0  2  0  0  0  0  0  0  0  0  0
  133.1257  135.1048  162.9307 C   0  0  0  0  0  0  0  0  0  0  0  0
  132.8580  135.0706  164.4521 C   0  0  0  0  0  0  0  0  0  0  0  0
  128.5269  135.9733  158.5424 C   0  0  0  0  0  0  0  0  0  0  0  0
  128.5572  134.8346  157.5231 C   0  0  0  0  0  0  0  0  0  0  0  0
  131.1056  134.6755  153.8005 H   0  0  0  0  0  0  0  0  0  0  0  0
  132.7696  133.0059  154.1877 H   0  0  0  0  0  0  0  0  0  0  0  0
  131.9355  132.0231  152.9603 H   0  0  0  0  0  0  0  0  0  0  0  0
  131.2784  131.3335  155.2497 H   0  0  0  0  0  0  0  0  0  0  0  0
  129.8904  132.0076  154.3624 H   0  0  0  0  0  0  0  0  0  0  0  0
  130.1909  131.8315  157.3292 H   0  0  0  0  0  0  0  0  0  0  0  0
  128.8030  132.5057  156.4418 H   0  0  0  0  0  0  0  0  0  0  0  0
  129.8521  132.5179  159.6975 H   0  0  0  0  0  0  0  0  0  0  0  0
  128.2113  132.4928  159.0111 H   0  0  0  0  0  0  0  0  0  0  0  0
  128.5113  133.8760  161.2789 H   0  0  0  0  0  0  0  0  0  0  0  0
  128.3955  138.5074  163.4333 H   0  0  0  0  0  0  0  0  0  0  0  0
  130.4169  137.5315  159.7679 H   0  0  0  0  0  0  0  0  0  0  0  0
  130.1635  139.3011  161.7818 H   0  0  0  0  0  0  0  0  0  0  0  0
  130.8223  138.5943  163.2767 H   0  0  0  0  0  0  0  0  0  0  0  0
  133.1512  137.9312  163.4164 H   0  0  0  0  0  0  0  0  0  0  0  0
  135.4383  138.2726  162.5702 H   0  0  0  0  0  0  0  0  0  0  0  0
  135.7928  139.2937  160.3578 H   0  0  0  0  0  0  0  0  0  0  0  0
  133.8600  139.9651  158.9877 H   0  0  0  0  0  0  0  0  0  0  0  0
  131.5729  139.6151  159.8300 H   0  0  0  0  0  0  0  0  0  0  0  0
  130.0630  136.8211  164.4945 H   0  0  0  0  0  0  0  0  0  0  0  0
  131.1031  134.9003  165.7714 H   0  0  0  0  0  0  0  0  0  0  0  0
  130.4460  132.8161  164.4970 H   0  0  0  0  0  0  0  0  0  0  0  0
  130.8748  132.8556  162.0202 H   0  0  0  0  0  0  0  0  0  0  0  0
  131.9117  134.9743  161.1060 H   0  0  0  0  0  0  0  0  0  0  0  0
  133.7790  134.2747  162.6618 H   0  0  0  0  0  0  0  0  0  0  0  0
  133.5990  136.0455  162.6491 H   0  0  0  0  0  0  0  0  0  0  0  0
  133.2133  136.0001  164.8971 H   0  0  0  0  0  0  0  0  0  0  0  0
  133.3865  134.2286  164.8991 H   0  0  0  0  0  0  0  0  0  0  0  0
  127.6804  136.6269  158.3317 H   0  0  0  0  0  0  0  0  0  0  0  0
  129.4509  136.5464  158.4666 H   0  0  0  0  0  0  0  0  0  0  0  0
  128.8432  135.2240  156.5460 H   0  0  0  0  0  0  0  0  0  0  0  0
  127.5705  134.3752  157.4630 H   0  0  0  0  0  0  0  0  0  0  0  0
  1  2  1  0
  1 38  1  0
  2  3  1  0
  2 39  1  0
  2 40  1  0
  3  4  1  0
  3 41  1  0
  3 42  1  0
  4  5  1  0
  4  6  1  0
  4  7  1  0
  7  8  1  0
  7 43  1  0
  7 44  1  0
  8  9  1  1
  8 37  1  0
  8 10  1  0
 10 11  1  0
 10 45  1  0
 10 46  1  0
 11 12  2  0
 11 47  1  0
 12 13  1  0
 12 36  1  0
 13 18  1  0
 13 14  2  0
 14 15  1  0
 15 16  1  0
 15 17  1  0
 17 18  2  0
 17 48  1  0
 18 19  1  0
 19 20  1  6
 19 21  1  0
 19 28  1  0
 20 49  1  0
 21 22  1  0
 21 50  1  0
 21 51  1  0
 22 27  1  0
 22 23  2  0
 23 24  1  0
 23 52  1  0
 24 25  2  0
 24 53  1  0
 25 26  1  0
 25 54  1  0
 26 27  2  0
 26 55  1  0
 27 56  1  0
 28 33  1  0
 28 29  2  0
 29 30  1  0
 29 57  1  0
 30 35  1  0
 30 31  1  0
 30 58  1  1
 31 32  2  0
 31 59  1  0
 32 33  1  0
 32 60  1  0
 33 34  1  0
 33 61  1  6
 34 35  1  0
 34 62  1  0
 34 63  1  0
 35 64  1  0
 35 65  1  0
 36 37  1  0
 36 66  1  0
 36 67  1  0
 37 68  1  0
 37 69  1  0
M  CHG  1   4   1
M  END
>  <DOCK_score>  (1) 
-48.228699

>  <SMILES>  (1) 
OCC[NH2+]C[C@@H]1CC=C(c2n[nH]cc2C(O)(Cc2ccccc2)C2=CC3C=CC2CC3)CC1

$$$$
