CCn1ncnc1[C@@H](C)Nc1ccc(Cl)cc1C(Nc1[nH]c(C)c(C)[nH+]1)c1ccccc1
     RDKit          3D

 61 64  0  0  1  0  0  0  0  0999 V2000
  127.8378  138.4792  167.3091 C   0  0  0  0  0  0  0  0  0  0  0  0
  128.5598  138.7671  165.9913 C   0  0  0  0  0  0  0  0  0  0  0  0
  127.6097  138.6630  164.8810 N   0  0  0  0  0  0  0  0  0  0  0  0
  126.8200  139.6954  164.3492 N   0  0  0  0  0  0  0  0  0  0  0  0
  126.1200  139.1728  163.3768 C   0  0  0  0  0  0  0  0  0  0  0  0
  126.4287  137.8813  163.2671 N   0  0  0  0  0  0  0  0  0  0  0  0
  127.3199  137.5599  164.1694 C   0  0  0  0  0  0  0  0  0  0  0  0
  127.9215  136.1930  164.3715 C   0  0  1  0  0  0  0  0  0  0  0  0
  128.6379  136.2290  165.1922 H   0  0  0  0  0  0  0  0  0  0  0  0
  126.8134  135.1924  164.7054 C   0  0  0  0  0  0  0  0  0  0  0  0
  128.6044  135.7739  163.1451 N   0  0  0  0  0  0  0  0  0  0  0  0
  129.9734  135.4940  163.1683 C   0  0  0  0  0  0  0  0  0  0  0  0
  130.5628  134.9990  164.3249 C   0  0  0  0  0  0  0  0  0  0  0  0
  131.9168  134.7286  164.3467 C   0  0  0  0  0  0  0  0  0  0  0  0
  132.6856  134.9458  163.2167 C   0  0  0  0  0  0  0  0  0  0  0  0
  134.3878  134.6059  163.2481 Cl  0  0  0  0  0  0  0  0  0  0  0  0
  132.1002  135.4339  162.0619 C   0  0  0  0  0  0  0  0  0  0  0  0
  130.7462  135.7056  162.0340 C   0  0  0  0  0  0  0  0  0  0  0  0
  130.1093  136.2371  160.7760 C   0  0  2  0  0  0  0  0  0  0  0  0
  130.8356  135.7301  159.6091 N   0  0  0  0  0  0  0  0  0  0  0  0
  130.4547  134.5382  159.0225 C   0  0  0  0  0  0  0  0  0  0  0  0
  129.4541  133.7605  159.4257 N   0  0  0  0  0  0  0  0  0  0  0  0
  128.8688  133.9318  160.1799 H   0  0  0  0  0  0  0  0  0  0  0  0
  129.3917  132.6839  158.5956 C   0  0  0  0  0  0  0  0  0  0  0  0
  128.4049  131.5482  158.6814 C   0  0  0  0  0  0  0  0  0  0  0  0
  130.3750  132.8161  157.6889 C   0  0  0  0  0  0  0  0  0  0  0  0
  130.6926  131.8555  156.5720 C   0  0  0  0  0  0  0  0  0  0  0  0
  131.0315  133.9756  157.9644 N   0  0  0  0  0  0  0  0  0  0  0  0
  131.7890  134.3308  157.4735 H   0  0  0  0  0  0  0  0  0  0  0  0
  130.1610  137.7433  160.7844 C   0  0  0  0  0  0  0  0  0  0  0  0
  130.1316  138.4292  161.9842 C   0  0  0  0  0  0  0  0  0  0  0  0
  130.1800  139.8107  161.9919 C   0  0  0  0  0  0  0  0  0  0  0  0
  130.2584  140.5063  160.7999 C   0  0  0  0  0  0  0  0  0  0  0  0
  130.2825  139.8206  159.5998 C   0  0  0  0  0  0  0  0  0  0  0  0
  130.2385  138.4389  159.5923 C   0  0  0  0  0  0  0  0  0  0  0  0
  127.0346  139.2028  167.4489 H   0  0  0  0  0  0  0  0  0  0  0  0
  127.4195  137.4730  167.2820 H   0  0  0  0  0  0  0  0  0  0  0  0
  128.5446  138.5567  168.1352 H   0  0  0  0  0  0  0  0  0  0  0  0
  129.3629  138.0435  165.8512 H   0  0  0  0  0  0  0  0  0  0  0  0
  128.9780  139.7733  166.0184 H   0  0  0  0  0  0  0  0  0  0  0  0
  125.4102  139.7031  162.7592 H   0  0  0  0  0  0  0  0  0  0  0  0
  126.3050  135.5042  165.6178 H   0  0  0  0  0  0  0  0  0  0  0  0
  126.0969  135.1563  163.8846 H   0  0  0  0  0  0  0  0  0  0  0  0
  127.2483  134.2037  164.8515 H   0  0  0  0  0  0  0  0  0  0  0  0
  128.1065  135.6907  162.3167 H   0  0  0  0  0  0  0  0  0  0  0  0
  129.9634  134.8295  165.2071 H   0  0  0  0  0  0  0  0  0  0  0  0
  132.3764  134.3476  165.2468 H   0  0  0  0  0  0  0  0  0  0  0  0
  132.7025  135.6022  161.1813 H   0  0  0  0  0  0  0  0  0  0  0  0
  129.0708  135.9097  160.7281 H   0  0  0  0  0  0  0  0  0  0  0  0
  131.5839  136.2309  159.2483 H   0  0  0  0  0  0  0  0  0  0  0  0
  128.8079  130.7645  159.3229 H   0  0  0  0  0  0  0  0  0  0  0  0
  127.4666  131.9129  159.0991 H   0  0  0  0  0  0  0  0  0  0  0  0
  128.2265  131.1458  157.6842 H   0  0  0  0  0  0  0  0  0  0  0  0
  131.4100  131.1140  156.9235 H   0  0  0  0  0  0  0  0  0  0  0  0
  129.7787  131.3542  156.2531 H   0  0  0  0  0  0  0  0  0  0  0  0
  131.1186  132.4035  155.7317 H   0  0  0  0  0  0  0  0  0  0  0  0
  130.0711  137.8857  162.9156 H   0  0  0  0  0  0  0  0  0  0  0  0
  130.1569  140.3465  162.9293 H   0  0  0  0  0  0  0  0  0  0  0  0
  130.2962  141.5856  160.8061 H   0  0  0  0  0  0  0  0  0  0  0  0
  130.3393  140.3641  158.6684 H   0  0  0  0  0  0  0  0  0  0  0  0
  130.2619  137.9030  158.6549 H   0  0  0  0  0  0  0  0  0  0  0  0
  1  2  1  0
  1 36  1  0
  1 37  1  0
  1 38  1  0
  2  3  1  0
  2 39  1  0
  2 40  1  0
  3  7  1  0
  3  4  1  0
  4  5  2  0
  5  6  1  0
  5 41  1  0
  6  7  2  0
  7  8  1  0
  8  9  1  1
  8 10  1  0
  8 11  1  0
 10 42  1  0
 10 43  1  0
 10 44  1  0
 11 12  1  0
 11 45  1  0
 12 18  1  0
 12 13  2  0
 13 14  1  0
 13 46  1  0
 14 15  2  0
 14 47  1  0
 15 16  1  0
 15 17  1  0
 17 18  2  0
 17 48  1  0
 18 19  1  0
 19 20  1  0
 19 30  1  0
 19 49  1  6
 20 50  1  0
 21 20  1  0
 21 28  1  0
 21 22  2  0
 22 23  1  0
 22 24  1  0
 24 25  1  0
 24 26  2  0
 25 51  1  0
 25 52  1  0
 25 53  1  0
 26 27  1  0
 26 28  1  0
 27 54  1  0
 27 55  1  0
 27 56  1  0
 28 29  1  0
 30 35  1  0
 30 31  2  0
 31 32  1  0
 31 57  1  0
 32 33  2  0
 32 58  1  0
 33 34  1  0
 33 59  1  0
 34 35  2  0
 34 60  1  0
 35 61  1  0
M  CHG  1  22   1
M  END
>  <DOCK_score>  (1) 
-48.38039

>  <SMILES>  (1) 
CCn1ncnc1[C@@H](C)Nc1ccc(Cl)cc1C(Nc1[nH]c(C)c(C)[nH+]1)c1ccccc1

$$$$
