Fc1ccc([C@H](Nc2[nH]cc(-c3ccc(Br)cc3)[nH+]2)c2ccccc2)cc1
     RDKit          3D

 45 48  0  0  1  0  0  0  0  0999 V2000
  130.9985  141.1797  161.5256 F   0  0  0  0  0  0  0  0  0  0  0  0
  130.6839  139.9065  161.2014 C   0  0  0  0  0  0  0  0  0  0  0  0
  130.5586  138.9496  162.1943 C   0  0  0  0  0  0  0  0  0  0  0  0
  130.2372  137.6473  161.8615 C   0  0  0  0  0  0  0  0  0  0  0  0
  130.0402  137.3001  160.5380 C   0  0  0  0  0  0  0  0  0  0  0  0
  129.6892  135.8797  160.1764 C   0  0  2  0  0  0  0  0  0  0  0  0
  130.1270  135.2000  160.9074 H   0  0  0  0  0  0  0  0  0  0  0  0
  130.2162  135.5703  158.8451 N   0  0  0  0  0  0  0  0  0  0  0  0
  130.0167  134.3151  158.2961 C   0  0  0  0  0  0  0  0  0  0  0  0
  129.3457  133.2892  158.8870 N   0  0  0  0  0  0  0  0  0  0  0  0
  128.9252  133.3054  159.7609 H   0  0  0  0  0  0  0  0  0  0  0  0
  129.3738  132.2262  158.0172 C   0  0  0  0  0  0  0  0  0  0  0  0
  130.0605  132.6328  156.9208 C   0  0  0  0  0  0  0  0  0  0  0  0
  130.3436  131.8160  155.7155 C   0  0  0  0  0  0  0  0  0  0  0  0
  129.8763  132.2253  154.4678 C   0  0  0  0  0  0  0  0  0  0  0  0
  130.1478  131.4650  153.3486 C   0  0  0  0  0  0  0  0  0  0  0  0
  130.8723  130.2913  153.4655 C   0  0  0  0  0  0  0  0  0  0  0  0
  131.2334  129.2500  151.9289 Br  0  0  0  0  0  0  0  0  0  0  0  0
  131.3337  129.8774  154.7030 C   0  0  0  0  0  0  0  0  0  0  0  0
  131.0730  130.6336  155.8275 C   0  0  0  0  0  0  0  0  0  0  0  0
  130.4378  133.9208  157.1193 N   0  0  0  0  0  0  0  0  0  0  0  0
  130.9410  134.4626  156.4913 H   0  0  0  0  0  0  0  0  0  0  0  0
  128.1910  135.7176  160.1738 C   0  0  0  0  0  0  0  0  0  0  0  0
  127.5349  135.3355  161.3289 C   0  0  0  0  0  0  0  0  0  0  0  0
  126.1602  135.1911  161.3274 C   0  0  0  0  0  0  0  0  0  0  0  0
  125.4424  135.4200  160.1684 C   0  0  0  0  0  0  0  0  0  0  0  0
  126.0990  135.7972  159.0119 C   0  0  0  0  0  0  0  0  0  0  0  0
  127.4733  135.9457  159.0145 C   0  0  0  0  0  0  0  0  0  0  0  0
  130.1705  138.2533  159.5453 C   0  0  0  0  0  0  0  0  0  0  0  0
  130.4867  139.5574  159.8762 C   0  0  0  0  0  0  0  0  0  0  0  0
  130.7125  139.2206  163.2283 H   0  0  0  0  0  0  0  0  0  0  0  0
  130.1397  136.9007  162.6357 H   0  0  0  0  0  0  0  0  0  0  0  0
  130.7051  136.2448  158.3481 H   0  0  0  0  0  0  0  0  0  0  0  0
  128.9328  131.2531  158.1758 H   0  0  0  0  0  0  0  0  0  0  0  0
  129.3066  133.1382  154.3764 H   0  0  0  0  0  0  0  0  0  0  0  0
  129.7904  131.7837  152.3806 H   0  0  0  0  0  0  0  0  0  0  0  0
  131.8984  128.9608  154.7888 H   0  0  0  0  0  0  0  0  0  0  0  0
  131.4337  130.3100  156.7926 H   0  0  0  0  0  0  0  0  0  0  0  0
  128.0962  135.1530  162.2335 H   0  0  0  0  0  0  0  0  0  0  0  0
  125.6472  134.8968  162.2311 H   0  0  0  0  0  0  0  0  0  0  0  0
  124.3686  135.3045  160.1665 H   0  0  0  0  0  0  0  0  0  0  0  0
  125.5382  135.9759  158.1064 H   0  0  0  0  0  0  0  0  0  0  0  0
  127.9863  136.2404  158.1110 H   0  0  0  0  0  0  0  0  0  0  0  0
  130.0209  137.9799  158.5113 H   0  0  0  0  0  0  0  0  0  0  0  0
  130.5836  140.3031  159.1009 H   0  0  0  0  0  0  0  0  0  0  0  0
  1  2  1  0
  2 30  2  0
  2  3  1  0
  3  4  2  0
  3 31  1  0
  4  5  1  0
  4 32  1  0
  5  6  1  0
  5 29  2  0
  6  7  1  1
  6  8  1  0
  6 23  1  0
  8 33  1  0
  9  8  1  0
  9 21  2  0
  9 10  1  0
 10 11  1  0
 10 12  1  0
 12 13  2  0
 12 34  1  0
 13 14  1  0
 13 21  1  0
 14 20  1  0
 14 15  2  0
 15 16  1  0
 15 35  1  0
 16 17  2  0
 16 36  1  0
 17 18  1  0
 17 19  1  0
 19 20  2  0
 19 37  1  0
 20 38  1  0
 21 22  1  0
 23 28  1  0
 23 24  2  0
 24 25  1  0
 24 39  1  0
 25 26  2  0
 25 40  1  0
 26 27  1  0
 26 41  1  0
 27 28  2  0
 27 42  1  0
 28 43  1  0
 29 30  1  0
 29 44  1  0
 30 45  1  0
M  CHG  1  21   1
M  END
>  <DOCK_score>  (1) 
-58.478069

>  <SMILES>  (1) 
Fc1ccc([C@H](Nc2[nH]cc(-c3ccc(Br)cc3)[nH+]2)c2ccccc2)cc1

$$$$
