CCc1ccc(-c2c[nH]c(N[C@H](Cc3ccc(NC4CC4)cc3)c3ccnn3C)[nH+]2)cc1
     RDKit          3D

 63 67  0  0  1  0  0  0  0  0999 V2000
  130.4471  128.6724  151.9780 C   0  0  0  0  0  0  0  0  0  0  0  0
  131.4482  129.7989  152.2416 C   0  0  0  0  0  0  0  0  0  0  0  0
  131.0446  130.5492  153.4846 C   0  0  0  0  0  0  0  0  0  0  0  0
  131.5242  130.1473  154.7178 C   0  0  0  0  0  0  0  0  0  0  0  0
  131.1625  130.8340  155.8591 C   0  0  0  0  0  0  0  0  0  0  0  0
  130.3032  131.9275  155.7683 C   0  0  0  0  0  0  0  0  0  0  0  0
  129.9065  132.6662  156.9919 C   0  0  0  0  0  0  0  0  0  0  0  0
  129.2579  132.1459  158.0632 C   0  0  0  0  0  0  0  0  0  0  0  0
  129.0901  133.1698  158.9635 N   0  0  0  0  0  0  0  0  0  0  0  0
  128.6580  133.1081  159.8297 H   0  0  0  0  0  0  0  0  0  0  0  0
  129.6416  134.2868  158.4156 C   0  0  0  0  0  0  0  0  0  0  0  0
  129.6817  135.5387  159.0053 N   0  0  0  0  0  0  0  0  0  0  0  0
  129.0967  135.7421  160.3329 C   0  0  2  0  0  0  0  0  0  0  0  0
  128.0345  135.4990  160.3029 H   0  0  0  0  0  0  0  0  0  0  0  0
  129.2737  137.2036  160.7498 C   0  0  0  0  0  0  0  0  0  0  0  0
  130.7423  137.5398  160.7911 C   0  0  0  0  0  0  0  0  0  0  0  0
  131.3705  138.0271  159.6597 C   0  0  0  0  0  0  0  0  0  0  0  0
  132.7148  138.3415  159.6957 C   0  0  0  0  0  0  0  0  0  0  0  0
  133.4385  138.1571  160.8670 C   0  0  0  0  0  0  0  0  0  0  0  0
  134.7993  138.4691  160.9056 N   0  0  0  0  0  0  0  0  0  0  0  0
  135.4652  138.9915  159.7096 C   0  0  0  0  0  0  0  0  0  0  0  0
  136.7671  139.7701  159.9092 C   0  0  0  0  0  0  0  0  0  0  0  0
  135.4851  140.5095  159.5185 C   0  0  0  0  0  0  0  0  0  0  0  0
  132.8055  137.6620  162.0001 C   0  0  0  0  0  0  0  0  0  0  0  0
  131.4597  137.3549  161.9587 C   0  0  0  0  0  0  0  0  0  0  0  0
  129.7889  134.8481  161.3293 C   0  0  0  0  0  0  0  0  0  0  0  0
  131.0747  134.4314  161.2685 C   0  0  0  0  0  0  0  0  0  0  0  0
  131.3180  133.6225  162.3833 C   0  0  0  0  0  0  0  0  0  0  0  0
  130.2155  133.5497  163.0839 N   0  0  0  0  0  0  0  0  0  0  0  0
  129.2357  134.3153  162.4388 N   0  0  0  0  0  0  0  0  0  0  0  0
  127.8543  134.5039  162.8889 C   0  0  0  0  0  0  0  0  0  0  0  0
  130.1336  133.9806  157.2399 N   0  0  0  0  0  0  0  0  0  0  0  0
  130.5856  134.5960  156.6417 H   0  0  0  0  0  0  0  0  0  0  0  0
  129.8184  132.3248  154.5234 C   0  0  0  0  0  0  0  0  0  0  0  0
  130.1913  131.6341  153.3882 C   0  0  0  0  0  0  0  0  0  0  0  0
  129.4518  129.0951  151.8405 H   0  0  0  0  0  0  0  0  0  0  0  0
  130.7389  128.1299  151.0789 H   0  0  0  0  0  0  0  0  0  0  0  0
  130.4375  127.9894  152.8275 H   0  0  0  0  0  0  0  0  0  0  0  0
  132.4431  129.3767  152.3787 H   0  0  0  0  0  0  0  0  0  0  0  0
  131.4575  130.4824  151.3916 H   0  0  0  0  0  0  0  0  0  0  0  0
  132.1862  129.2969  154.7876 H   0  0  0  0  0  0  0  0  0  0  0  0
  131.5413  130.5221  156.8212 H   0  0  0  0  0  0  0  0  0  0  0  0
  128.9347  131.1226  158.1850 H   0  0  0  0  0  0  0  0  0  0  0  0
  130.0974  136.2811  158.5394 H   0  0  0  0  0  0  0  0  0  0  0  0
  128.7733  137.8501  160.0289 H   0  0  0  0  0  0  0  0  0  0  0  0
  128.8384  137.3550  161.7375 H   0  0  0  0  0  0  0  0  0  0  0  0
  130.8084  138.1658  158.7480 H   0  0  0  0  0  0  0  0  0  0  0  0
  133.2039  138.7263  158.8131 H   0  0  0  0  0  0  0  0  0  0  0  0
  135.3036  138.3399  161.7239 H   0  0  0  0  0  0  0  0  0  0  0  0
  135.3806  138.3728  158.8163 H   0  0  0  0  0  0  0  0  0  0  0  0
  137.1283  139.8934  160.9302 H   0  0  0  0  0  0  0  0  0  0  0  0
  137.5389  139.6636  159.1468 H   0  0  0  0  0  0  0  0  0  0  0  0
  135.4139  140.8892  158.4992 H   0  0  0  0  0  0  0  0  0  0  0  0
  135.0024  141.1193  160.2821 H   0  0  0  0  0  0  0  0  0  0  0  0
  133.3651  137.5177  162.9125 H   0  0  0  0  0  0  0  0  0  0  0  0
  130.9671  136.9695  162.8392 H   0  0  0  0  0  0  0  0  0  0  0  0
  131.7878  134.6809  160.4967 H   0  0  0  0  0  0  0  0  0  0  0  0
  132.2533  133.1382  162.6225 H   0  0  0  0  0  0  0  0  0  0  0  0
  127.2232  133.7254  162.4604 H   0  0  0  0  0  0  0  0  0  0  0  0
  127.8155  134.4453  163.9766 H   0  0  0  0  0  0  0  0  0  0  0  0
  127.4967  135.4811  162.5646 H   0  0  0  0  0  0  0  0  0  0  0  0
  129.1520  133.1714  154.4472 H   0  0  0  0  0  0  0  0  0  0  0  0
  129.8160  131.9409  152.4230 H   0  0  0  0  0  0  0  0  0  0  0  0
  1  2  1  0
  1 36  1  0
  1 37  1  0
  1 38  1  0
  2  3  1  0
  2 39  1  0
  2 40  1  0
  3 35  2  0
  3  4  1  0
  4  5  2  0
  4 41  1  0
  5  6  1  0
  5 42  1  0
  6  7  1  0
  6 34  2  0
  7 32  1  0
  7  8  2  0
  8  9  1  0
  8 43  1  0
  9 10  1  0
  9 11  1  0
 11 12  1  0
 11 32  2  0
 12 13  1  0
 12 44  1  0
 13 14  1  6
 13 15  1  0
 13 26  1  0
 15 16  1  0
 15 45  1  0
 15 46  1  0
 16 25  1  0
 16 17  2  0
 17 18  1  0
 17 47  1  0
 18 19  2  0
 18 48  1  0
 19 20  1  0
 19 24  1  0
 20 21  1  0
 20 49  1  0
 21 23  1  0
 21 22  1  0
 21 50  1  0
 22 23  1  0
 22 51  1  0
 22 52  1  0
 23 53  1  0
 23 54  1  0
 24 25  2  0
 24 55  1  0
 25 56  1  0
 26 30  1  0
 26 27  2  0
 27 28  1  0
 27 57  1  0
 28 29  2  0
 28 58  1  0
 29 30  1  0
 30 31  1  0
 31 59  1  0
 31 60  1  0
 31 61  1  0
 32 33  1  0
 34 35  1  0
 34 62  1  0
 35 63  1  0
M  CHG  1  32   1
M  END
>  <DOCK_score>  (1) 
-59.093403

>  <SMILES>  (1) 
CCc1ccc(-c2c[nH]c(N[C@H](Cc3ccc(NC4CC4)cc3)c3ccnn3C)[nH+]2)cc1

$$$$
