CCc1ccc(-c2c[nH]c(N[C@@H](Cc3ccc(-c4ccc(O)cc4)cc3)c3ccc(F)cc3)[nH+]2)cc1
     RDKit          3D

 65 69  0  0  1  0  0  0  0  0999 V2000
  130.0941  128.5047  151.5699 C   0  0  0  0  0  0  0  0  0  0  0  0
  131.1626  129.5809  151.7717 C   0  0  0  0  0  0  0  0  0  0  0  0
  130.9175  130.2937  153.0766 C   0  0  0  0  0  0  0  0  0  0  0  0
  131.5013  129.8235  154.2387 C   0  0  0  0  0  0  0  0  0  0  0  0
  131.2843  130.4751  155.4357 C   0  0  0  0  0  0  0  0  0  0  0  0
  130.4664  131.6030  155.4740 C   0  0  0  0  0  0  0  0  0  0  0  0
  130.2253  132.3045  156.7584 C   0  0  0  0  0  0  0  0  0  0  0  0
  129.6661  131.7649  157.8698 C   0  0  0  0  0  0  0  0  0  0  0  0
  129.6328  132.7558  158.8206 N   0  0  0  0  0  0  0  0  0  0  0  0
  129.2876  132.6743  159.7234 H   0  0  0  0  0  0  0  0  0  0  0  0
  130.1730  133.8731  158.2619 C   0  0  0  0  0  0  0  0  0  0  0  0
  130.3243  135.0968  158.8912 N   0  0  0  0  0  0  0  0  0  0  0  0
  129.8839  135.2667  160.2782 C   0  0  1  0  0  0  0  0  0  0  0  0
  130.4266  134.5720  160.9193 H   0  0  0  0  0  0  0  0  0  0  0  0
  130.1630  136.7017  160.7297 C   0  0  0  0  0  0  0  0  0  0  0  0
  130.1828  136.7595  162.2355 C   0  0  0  0  0  0  0  0  0  0  0  0
  131.3696  136.5590  162.9171 C   0  0  0  0  0  0  0  0  0  0  0  0
  131.3945  136.6155  164.2959 C   0  0  0  0  0  0  0  0  0  0  0  0
  130.2191  136.8645  165.0017 C   0  0  0  0  0  0  0  0  0  0  0  0
  130.2386  136.9211  166.4842 C   0  0  0  0  0  0  0  0  0  0  0  0
  129.3359  137.7374  167.1637 C   0  0  0  0  0  0  0  0  0  0  0  0
  129.3539  137.7850  168.5418 C   0  0  0  0  0  0  0  0  0  0  0  0
  130.2761  137.0282  169.2520 C   0  0  0  0  0  0  0  0  0  0  0  0
  130.2946  137.0809  170.6095 O   0  0  0  0  0  0  0  0  0  0  0  0
  131.1797  136.2182  168.5776 C   0  0  0  0  0  0  0  0  0  0  0  0
  131.1635  136.1629  167.1998 C   0  0  0  0  0  0  0  0  0  0  0  0
  129.0253  137.0603  164.3101 C   0  0  0  0  0  0  0  0  0  0  0  0
  129.0131  137.0069  162.9310 C   0  0  0  0  0  0  0  0  0  0  0  0
  128.4059  134.9884  160.3736 C   0  0  0  0  0  0  0  0  0  0  0  0
  127.8742  134.4731  161.5410 C   0  0  0  0  0  0  0  0  0  0  0  0
  126.5180  134.2228  161.6316 C   0  0  0  0  0  0  0  0  0  0  0  0
  125.6936  134.4781  160.5490 C   0  0  0  0  0  0  0  0  0  0  0  0
  124.3686  134.2286  160.6345 F   0  0  0  0  0  0  0  0  0  0  0  0
  126.2283  134.9888  159.3784 C   0  0  0  0  0  0  0  0  0  0  0  0
  127.5838  135.2432  159.2918 C   0  0  0  0  0  0  0  0  0  0  0  0
  130.5305  133.5980  157.0313 N   0  0  0  0  0  0  0  0  0  0  0  0
  130.9453  134.2204  156.4137 H   0  0  0  0  0  0  0  0  0  0  0  0
  129.8764  132.0695  154.3006 C   0  0  0  0  0  0  0  0  0  0  0  0
  130.1046  131.4131  153.1083 C   0  0  0  0  0  0  0  0  0  0  0  0
  130.1415  127.7880  152.3898 H   0  0  0  0  0  0  0  0  0  0  0  0
  129.1087  128.9698  151.5504 H   0  0  0  0  0  0  0  0  0  0  0  0
  130.2715  127.9891  150.6260 H   0  0  0  0  0  0  0  0  0  0  0  0
  132.1480  129.1162  151.7910 H   0  0  0  0  0  0  0  0  0  0  0  0
  131.1151  130.2981  150.9515 H   0  0  0  0  0  0  0  0  0  0  0  0
  132.1315  128.9468  154.2087 H   0  0  0  0  0  0  0  0  0  0  0  0
  131.7445  130.1095  156.3419 H   0  0  0  0  0  0  0  0  0  0  0  0
  129.3141  130.7504  157.9852 H   0  0  0  0  0  0  0  0  0  0  0  0
  130.7217  135.8418  158.4139 H   0  0  0  0  0  0  0  0  0  0  0  0
  131.1292  137.0236  160.3410 H   0  0  0  0  0  0  0  0  0  0  0  0
  129.3813  137.3602  160.3510 H   0  0  0  0  0  0  0  0  0  0  0  0
  132.2793  136.3621  162.3692 H   0  0  0  0  0  0  0  0  0  0  0  0
  132.3226  136.4630  164.8269 H   0  0  0  0  0  0  0  0  0  0  0  0
  128.6210  138.3294  166.6116 H   0  0  0  0  0  0  0  0  0  0  0  0
  128.6527  138.4149  169.0690 H   0  0  0  0  0  0  0  0  0  0  0  0
  129.6298  137.6717  170.9893 H   0  0  0  0  0  0  0  0  0  0  0  0
  131.8961  135.6308  169.1327 H   0  0  0  0  0  0  0  0  0  0  0  0
  131.8671  135.5331  166.6759 H   0  0  0  0  0  0  0  0  0  0  0  0
  128.1113  137.2532  164.8522 H   0  0  0  0  0  0  0  0  0  0  0  0
  128.0885  137.1589  162.3939 H   0  0  0  0  0  0  0  0  0  0  0  0
  128.5181  134.2698  162.3839 H   0  0  0  0  0  0  0  0  0  0  0  0
  126.1021  133.8248  162.5453 H   0  0  0  0  0  0  0  0  0  0  0  0
  125.5862  135.1880  158.5330 H   0  0  0  0  0  0  0  0  0  0  0  0
  128.0011  135.6416  158.3788 H   0  0  0  0  0  0  0  0  0  0  0  0
  129.2414  132.9428  154.3244 H   0  0  0  0  0  0  0  0  0  0  0  0
  129.6476  131.7734  152.1986 H   0  0  0  0  0  0  0  0  0  0  0  0
  1  2  1  0
  1 40  1  0
  1 41  1  0
  1 42  1  0
  2  3  1  0
  2 43  1  0
  2 44  1  0
  3 39  2  0
  3  4  1  0
  4  5  2  0
  4 45  1  0
  5  6  1  0
  5 46  1  0
  6  7  1  0
  6 38  2  0
  7 36  1  0
  7  8  2  0
  8  9  1  0
  8 47  1  0
  9 10  1  0
  9 11  1  0
 11 12  1  0
 11 36  2  0
 12 13  1  0
 12 48  1  0
 13 14  1  1
 13 15  1  0
 13 29  1  0
 15 16  1  0
 15 49  1  0
 15 50  1  0
 16 28  1  0
 16 17  2  0
 17 18  1  0
 17 51  1  0
 18 19  2  0
 18 52  1  0
 19 20  1  0
 19 27  1  0
 20 26  1  0
 20 21  2  0
 21 22  1  0
 21 53  1  0
 22 23  2  0
 22 54  1  0
 23 24  1  0
 23 25  1  0
 24 55  1  0
 25 26  2  0
 25 56  1  0
 26 57  1  0
 27 28  2  0
 27 58  1  0
 28 59  1  0
 29 35  1  0
 29 30  2  0
 30 31  1  0
 30 60  1  0
 31 32  2  0
 31 61  1  0
 32 33  1  0
 32 34  1  0
 34 35  2  0
 34 62  1  0
 35 63  1  0
 36 37  1  0
 38 39  1  0
 38 64  1  0
 39 65  1  0
M  CHG  1  36   1
M  END
>  <DOCK_score>  (1) 
-58.442551

>  <SMILES>  (1) 
CCc1ccc(-c2c[nH]c(N[C@@H](Cc3ccc(-c4ccc(O)cc4)cc3)c3ccc(F)cc3)[nH+]2)cc1

$$$$
