Nc1ccc(-c2c[nH]c(N[C@@H]3CCC=C3SCc3ccccc3CBr)[nH+]2)cc1
     RDKit          3D

 52 55  0  0  1  0  0  0  0  0999 V2000
  130.3435  129.4308  151.2912 N   0  0  0  0  0  0  0  0  0  0  0  0
  130.5368  129.9955  152.5542 C   0  0  0  0  0  0  0  0  0  0  0  0
  130.1816  131.3194  152.7841 C   0  0  0  0  0  0  0  0  0  0  0  0
  130.3721  131.8790  154.0299 C   0  0  0  0  0  0  0  0  0  0  0  0
  130.9208  131.1158  155.0592 C   0  0  0  0  0  0  0  0  0  0  0  0
  131.1265  131.7156  156.4004 C   0  0  0  0  0  0  0  0  0  0  0  0
  131.0900  131.0550  157.5840 C   0  0  0  0  0  0  0  0  0  0  0  0
  131.3307  131.9853  158.5673 N   0  0  0  0  0  0  0  0  0  0  0  0
  131.3678  131.8160  159.5217 H   0  0  0  0  0  0  0  0  0  0  0  0
  131.5009  133.1882  157.9546 C   0  0  0  0  0  0  0  0  0  0  0  0
  131.7586  134.3892  158.5934 N   0  0  0  0  0  0  0  0  0  0  0  0
  131.8685  134.4333  160.0536 C   0  0  2  0  0  0  0  0  0  0  0  0
  132.6788  133.7876  160.3921 H   0  0  0  0  0  0  0  0  0  0  0  0
  130.5332  134.0088  160.7071 C   0  0  0  0  0  0  0  0  0  0  0  0
  129.8478  135.3807  160.9243 C   0  0  0  0  0  0  0  0  0  0  0  0
  130.9850  136.3729  161.0001 C   0  0  0  0  0  0  0  0  0  0  0  0
  132.0959  135.8521  160.5215 C   0  0  0  0  0  0  0  0  0  0  0  0
  133.6402  136.6962  160.4378 S   0  0  0  0  0  0  0  0  0  0  0  0
  133.1470  138.4305  160.2382 C   0  0  0  0  0  0  0  0  0  0  0  0
  134.2915  139.3270  160.6346 C   0  0  0  0  0  0  0  0  0  0  0  0
  135.2159  139.7276  159.6878 C   0  0  0  0  0  0  0  0  0  0  0  0
  136.2654  140.5503  160.0513 C   0  0  0  0  0  0  0  0  0  0  0  0
  136.3909  140.9725  161.3618 C   0  0  0  0  0  0  0  0  0  0  0  0
  135.4668  140.5721  162.3083 C   0  0  0  0  0  0  0  0  0  0  0  0
  134.4140  139.7535  161.9436 C   0  0  0  0  0  0  0  0  0  0  0  0
  133.4029  139.3219  162.9745 C   0  0  0  0  0  0  0  0  0  0  0  0
  131.9311  140.6239  163.0340 Br  0  0  0  0  0  0  0  0  0  0  0  0
  131.3841  133.0219  156.6597 N   0  0  0  0  0  0  0  0  0  0  0  0
  131.4647  133.7222  155.9933 H   0  0  0  0  0  0  0  0  0  0  0  0
  131.2811  129.7897  154.8249 C   0  0  0  0  0  0  0  0  0  0  0  0
  131.0845  129.2328  153.5788 C   0  0  0  0  0  0  0  0  0  0  0  0
  129.9615  129.9625  150.5754 H   0  0  0  0  0  0  0  0  0  0  0  0
  130.5911  128.5068  151.1300 H   0  0  0  0  0  0  0  0  0  0  0  0
  129.7565  131.9104  151.9863 H   0  0  0  0  0  0  0  0  0  0  0  0
  130.0960  132.9078  154.2081 H   0  0  0  0  0  0  0  0  0  0  0  0
  130.9071  130.0002  157.7268 H   0  0  0  0  0  0  0  0  0  0  0  0
  131.8661  135.2014  158.0742 H   0  0  0  0  0  0  0  0  0  0  0  0
  129.9502  133.3814  160.0329 H   0  0  0  0  0  0  0  0  0  0  0  0
  130.7063  133.5031  161.6571 H   0  0  0  0  0  0  0  0  0  0  0  0
  129.2830  135.3791  161.8565 H   0  0  0  0  0  0  0  0  0  0  0  0
  129.1934  135.6172  160.0854 H   0  0  0  0  0  0  0  0  0  0  0  0
  130.8985  137.3749  161.3936 H   0  0  0  0  0  0  0  0  0  0  0  0
  132.8840  138.6159  159.1968 H   0  0  0  0  0  0  0  0  0  0  0  0
  132.2857  138.6386  160.8731 H   0  0  0  0  0  0  0  0  0  0  0  0
  135.1177  139.3979  158.6640 H   0  0  0  0  0  0  0  0  0  0  0  0
  136.9872  140.8634  159.3116 H   0  0  0  0  0  0  0  0  0  0  0  0
  137.2107  141.6156  161.6458 H   0  0  0  0  0  0  0  0  0  0  0  0
  135.5646  140.9024  163.3320 H   0  0  0  0  0  0  0  0  0  0  0  0
  133.0095  138.3407  162.7090 H   0  0  0  0  0  0  0  0  0  0  0  0
  133.8810  139.2691  163.9526 H   0  0  0  0  0  0  0  0  0  0  0  0
  131.7106  129.1979  155.6197 H   0  0  0  0  0  0  0  0  0  0  0  0
  131.3604  128.2044  153.3978 H   0  0  0  0  0  0  0  0  0  0  0  0
  1  2  1  0
  1 32  1  0
  1 33  1  0
  2 31  2  0
  2  3  1  0
  3  4  2  0
  3 34  1  0
  4  5  1  0
  4 35  1  0
  5  6  1  0
  5 30  2  0
  6 28  1  0
  6  7  2  0
  7  8  1  0
  7 36  1  0
  8  9  1  0
  8 10  1  0
 10 11  1  0
 10 28  2  0
 11 12  1  0
 11 37  1  0
 12 13  1  1
 12 17  1  0
 12 14  1  0
 14 15  1  0
 14 38  1  0
 14 39  1  0
 15 16  1  0
 15 40  1  0
 15 41  1  0
 16 17  2  0
 16 42  1  0
 17 18  1  0
 18 19  1  0
 19 20  1  0
 19 43  1  0
 19 44  1  0
 20 25  1  0
 20 21  2  0
 21 22  1  0
 21 45  1  0
 22 23  2  0
 22 46  1  0
 23 24  1  0
 23 47  1  0
 24 25  2  0
 24 48  1  0
 25 26  1  0
 26 27  1  0
 26 49  1  0
 26 50  1  0
 28 29  1  0
 30 31  1  0
 30 51  1  0
 31 52  1  0
M  CHG  1  28   1
M  END
>  <DOCK_score>  (1) 
-61.897072

>  <SMILES>  (1) 
Nc1ccc(-c2c[nH]c(N[C@@H]3CCC=C3SCc3ccccc3CBr)[nH+]2)cc1

$$$$
