CC(C)[C@@H](CCc1ccccc1)Nc1[nH]cc(-c2ccc(N)cc2)[nH+]1
     RDKit          3D

 52 54  0  0  1  0  0  0  0  0999 V2000
  131.0762  134.8556  162.8972 C   0  0  0  0  0  0  0  0  0  0  0  0
  131.5240  135.2080  161.4772 C   0  0  0  0  0  0  0  0  0  0  0  0
  132.6064  134.2257  161.0251 C   0  0  0  0  0  0  0  0  0  0  0  0
  130.3268  135.1199  160.5283 C   0  0  1  0  0  0  0  0  0  0  0  0
  129.7180  134.2547  160.7909 H   0  0  0  0  0  0  0  0  0  0  0  0
  129.4850  136.3917  160.6500 C   0  0  0  0  0  0  0  0  0  0  0  0
  128.2881  136.3036  159.7012 C   0  0  0  0  0  0  0  0  0  0  0  0
  127.4463  135.1073  160.0641 C   0  0  0  0  0  0  0  0  0  0  0  0
  126.7216  134.4502  159.0874 C   0  0  0  0  0  0  0  0  0  0  0  0
  125.9533  133.3500  159.4194 C   0  0  0  0  0  0  0  0  0  0  0  0
  125.9017  132.9132  160.7300 C   0  0  0  0  0  0  0  0  0  0  0  0
  126.6223  133.5735  161.7076 C   0  0  0  0  0  0  0  0  0  0  0  0
  127.3945  134.6706  161.3747 C   0  0  0  0  0  0  0  0  0  0  0  0
  130.8050  134.9807  159.1506 N   0  0  0  0  0  0  0  0  0  0  0  0
  130.4591  133.8652  158.4072 C   0  0  0  0  0  0  0  0  0  0  0  0
  129.6850  132.8332  158.8401 N   0  0  0  0  0  0  0  0  0  0  0  0
  129.2825  132.7457  159.7183 H   0  0  0  0  0  0  0  0  0  0  0  0
  129.5838  131.9345  157.8046 C   0  0  0  0  0  0  0  0  0  0  0  0
  130.2984  132.4436  156.7708 C   0  0  0  0  0  0  0  0  0  0  0  0
  130.4742  131.8159  155.4382 C   0  0  0  0  0  0  0  0  0  0  0  0
  130.0402  132.4791  154.2914 C   0  0  0  0  0  0  0  0  0  0  0  0
  130.2087  131.8957  153.0534 C   0  0  0  0  0  0  0  0  0  0  0  0
  130.8016  130.6429  152.9493 C   0  0  0  0  0  0  0  0  0  0  0  0
  130.9668  130.0517  151.6945 N   0  0  0  0  0  0  0  0  0  0  0  0
  131.2307  129.9779  154.0917 C   0  0  0  0  0  0  0  0  0  0  0  0
  131.0686  130.5595  155.3313 C   0  0  0  0  0  0  0  0  0  0  0  0
  130.8236  133.6288  157.1705 N   0  0  0  0  0  0  0  0  0  0  0  0
  131.3803  134.2087  156.6278 H   0  0  0  0  0  0  0  0  0  0  0  0
  130.3051  135.5554  163.2191 H   0  0  0  0  0  0  0  0  0  0  0  0
  130.6756  133.8419  162.9108 H   0  0  0  0  0  0  0  0  0  0  0  0
  131.9290  134.9184  163.5731 H   0  0  0  0  0  0  0  0  0  0  0  0
  131.9245  136.2216  161.4635 H   0  0  0  0  0  0  0  0  0  0  0  0
  132.9254  134.4767  160.0136 H   0  0  0  0  0  0  0  0  0  0  0  0
  133.4592  134.2885  161.7010 H   0  0  0  0  0  0  0  0  0  0  0  0
  132.2058  133.2120  161.0388 H   0  0  0  0  0  0  0  0  0  0  0  0
  129.1293  136.4952  161.6751 H   0  0  0  0  0  0  0  0  0  0  0  0
  130.0938  137.2569  160.3875 H   0  0  0  0  0  0  0  0  0  0  0  0
  127.6882  137.2096  159.7879 H   0  0  0  0  0  0  0  0  0  0  0  0
  128.6437  136.2000  158.6761 H   0  0  0  0  0  0  0  0  0  0  0  0
  126.7587  134.7941  158.0643 H   0  0  0  0  0  0  0  0  0  0  0  0
  125.3901  132.8343  158.6558 H   0  0  0  0  0  0  0  0  0  0  0  0
  125.2980  132.0563  160.9901 H   0  0  0  0  0  0  0  0  0  0  0  0
  126.5815  133.2325  162.7316 H   0  0  0  0  0  0  0  0  0  0  0  0
  127.9573  135.1866  162.1385 H   0  0  0  0  0  0  0  0  0  0  0  0
  131.3639  135.6702  158.7592 H   0  0  0  0  0  0  0  0  0  0  0  0
  129.0399  131.0015  157.8131 H   0  0  0  0  0  0  0  0  0  0  0  0
  129.5758  133.4508  154.3723 H   0  0  0  0  0  0  0  0  0  0  0  0
  129.8760  132.4107  152.1644 H   0  0  0  0  0  0  0  0  0  0  0  0
  131.3808  129.1776  151.6209 H   0  0  0  0  0  0  0  0  0  0  0  0
  130.6676  130.5152  150.8967 H   0  0  0  0  0  0  0  0  0  0  0  0
  131.6911  129.0043  154.0084 H   0  0  0  0  0  0  0  0  0  0  0  0
  131.4022  130.0423  156.2187 H   0  0  0  0  0  0  0  0  0  0  0  0
  1  2  1  0
  1 29  1  0
  1 30  1  0
  1 31  1  0
  2  3  1  0
  2  4  1  0
  2 32  1  0
  3 33  1  0
  3 34  1  0
  3 35  1  0
  4  5  1  1
  4  6  1  0
  4 14  1  0
  6  7  1  0
  6 36  1  0
  6 37  1  0
  7  8  1  0
  7 38  1  0
  7 39  1  0
  8 13  1  0
  8  9  2  0
  9 10  1  0
  9 40  1  0
 10 11  2  0
 10 41  1  0
 11 12  1  0
 11 42  1  0
 12 13  2  0
 12 43  1  0
 13 44  1  0
 14 45  1  0
 15 14  1  0
 15 27  2  0
 15 16  1  0
 16 17  1  0
 16 18  1  0
 18 19  2  0
 18 46  1  0
 19 20  1  0
 19 27  1  0
 20 26  1  0
 20 21  2  0
 21 22  1  0
 21 47  1  0
 22 23  2  0
 22 48  1  0
 23 24  1  0
 23 25  1  0
 24 49  1  0
 24 50  1  0
 25 26  2  0
 25 51  1  0
 26 52  1  0
 27 28  1  0
M  CHG  1  27   1
M  END
>  <DOCK_score>  (1) 
-56.4254

>  <SMILES>  (1) 
CC(C)[C@@H](CCc1ccccc1)Nc1[nH]cc(-c2ccc(N)cc2)[nH+]1

$$$$
