C/C=C/CCCNc1ccc(-c2ccccc2C[NH2+]CC2CC2)o1
     RDKit          3D

 53 55  0  0  0  0  0  0  0  0999 V2000
  126.8243  134.4103  168.8353 C   0  0  0  0  0  0  0  0  0  0  0  0
  127.4144  134.9615  167.5628 C   0  0  0  0  0  0  0  0  0  0  0  0
  126.7580  135.8603  166.8721 C   0  0  0  0  0  0  0  0  0  0  0  0
  127.3480  136.4114  165.5996 C   0  0  0  0  0  0  0  0  0  0  0  0
  126.4099  136.1088  164.4294 C   0  0  0  0  0  0  0  0  0  0  0  0
  127.0089  136.6684  163.1376 C   0  0  0  0  0  0  0  0  0  0  0  0
  126.1105  136.3786  162.0172 N   0  0  0  0  0  0  0  0  0  0  0  0
  126.5584  135.6136  160.9476 C   0  0  0  0  0  0  0  0  0  0  0  0
  125.8272  135.2709  159.8569 C   0  0  0  0  0  0  0  0  0  0  0  0
  126.6638  134.5011  159.0265 C   0  0  0  0  0  0  0  0  0  0  0  0
  127.8645  134.4045  159.6578 C   0  0  0  0  0  0  0  0  0  0  0  0
  129.0497  133.6816  159.1558 C   0  0  0  0  0  0  0  0  0  0  0  0
  128.8932  132.5546  158.3454 C   0  0  0  0  0  0  0  0  0  0  0  0
  130.0049  131.8877  157.8748 C   0  0  0  0  0  0  0  0  0  0  0  0
  131.2737  132.3258  158.2142 C   0  0  0  0  0  0  0  0  0  0  0  0
  131.4358  133.4376  159.0210 C   0  0  0  0  0  0  0  0  0  0  0  0
  130.3328  134.1179  159.4936 C   0  0  0  0  0  0  0  0  0  0  0  0
  130.5117  135.3287  160.3729 C   0  0  0  0  0  0  0  0  0  0  0  0
  131.5558  136.1939  159.8080 N   0  0  0  0  0  0  0  0  0  0  0  0
  132.4247  135.6835  159.7576 H   0  0  0  0  0  0  0  0  0  0  0  0
  131.2843  136.4881  158.8819 H   0  0  0  0  0  0  0  0  0  0  0  0
  131.7304  137.3741  160.6651 C   0  0  0  0  0  0  0  0  0  0  0  0
  132.8179  138.2753  160.0768 C   0  0  0  0  0  0  0  0  0  0  0  0
  134.2551  138.0500  160.5511 C   0  0  0  0  0  0  0  0  0  0  0  0
  133.4817  139.2859  161.0145 C   0  0  0  0  0  0  0  0  0  0  0  0
  127.7867  135.0837  160.8217 O   0  0  0  0  0  0  0  0  0  0  0  0
  125.8714  133.9291  168.6153 H   0  0  0  0  0  0  0  0  0  0  0  0
  127.5090  133.6802  169.2669 H   0  0  0  0  0  0  0  0  0  0  0  0
  126.6658  135.2231  169.5440 H   0  0  0  0  0  0  0  0  0  0  0  0
  128.3765  134.6121  167.2181 H   0  0  0  0  0  0  0  0  0  0  0  0
  125.7939  136.2063  167.2144 H   0  0  0  0  0  0  0  0  0  0  0  0
  127.4740  137.4898  165.6947 H   0  0  0  0  0  0  0  0  0  0  0  0
  128.3173  135.9470  165.4175 H   0  0  0  0  0  0  0  0  0  0  0  0
  126.2839  135.0303  164.3342 H   0  0  0  0  0  0  0  0  0  0  0  0
  125.4406  136.5731  164.6114 H   0  0  0  0  0  0  0  0  0  0  0  0
  127.1347  137.7469  163.2328 H   0  0  0  0  0  0  0  0  0  0  0  0
  127.9781  136.2041  162.9556 H   0  0  0  0  0  0  0  0  0  0  0  0
  125.2029  136.7209  162.0222 H   0  0  0  0  0  0  0  0  0  0  0  0
  124.7995  135.5397  159.6619 H   0  0  0  0  0  0  0  0  0  0  0  0
  126.4011  134.0669  158.0732 H   0  0  0  0  0  0  0  0  0  0  0  0
  127.9038  132.2088  158.0842 H   0  0  0  0  0  0  0  0  0  0  0  0
  129.8854  131.0192  157.2442 H   0  0  0  0  0  0  0  0  0  0  0  0
  132.1405  131.7973  157.8457 H   0  0  0  0  0  0  0  0  0  0  0  0
  132.4285  133.7738  159.2813 H   0  0  0  0  0  0  0  0  0  0  0  0
  129.5730  135.8801  160.4271 H   0  0  0  0  0  0  0  0  0  0  0  0
  130.8049  135.0110  161.3734 H   0  0  0  0  0  0  0  0  0  0  0  0
  130.7917  137.9256  160.7197 H   0  0  0  0  0  0  0  0  0  0  0  0
  132.0238  137.0564  161.6656 H   0  0  0  0  0  0  0  0  0  0  0  0
  132.6709  138.5731  159.0387 H   0  0  0  0  0  0  0  0  0  0  0  0
  134.4257  137.2596  161.2820 H   0  0  0  0  0  0  0  0  0  0  0  0
  135.0538  138.1992  159.8246 H   0  0  0  0  0  0  0  0  0  0  0  0
  133.7715  140.2484  160.5932 H   0  0  0  0  0  0  0  0  0  0  0  0
  133.1433  139.3088  162.0504 H   0  0  0  0  0  0  0  0  0  0  0  0
  1  2  1  0
  1 27  1  0
  1 28  1  0
  1 29  1  0
  2  3  2  0
  2 30  1  0
  3  4  1  0
  3 31  1  0
  4  5  1  0
  4 32  1  0
  4 33  1  0
  5  6  1  0
  5 34  1  0
  5 35  1  0
  6  7  1  0
  6 36  1  0
  6 37  1  0
  7  8  1  0
  7 38  1  0
  8 26  1  0
  8  9  2  0
  9 10  1  0
  9 39  1  0
 10 11  2  0
 10 40  1  0
 11 12  1  0
 11 26  1  0
 12 17  1  0
 12 13  2  0
 13 14  1  0
 13 41  1  0
 14 15  2  0
 14 42  1  0
 15 16  1  0
 15 43  1  0
 16 17  2  0
 16 44  1  0
 17 18  1  0
 18 19  1  0
 18 45  1  0
 18 46  1  0
 19 20  1  0
 19 21  1  0
 19 22  1  0
 22 23  1  0
 22 47  1  0
 22 48  1  0
 23 25  1  0
 23 24  1  0
 23 49  1  0
 24 25  1  0
 24 50  1  0
 24 51  1  0
 25 52  1  0
 25 53  1  0
M  CHG  1  19   1
M  END
>  <DOCK_score>  (1) 
-46.533901

>  <SMILES>  (1) 
C/C=C/CCCNc1ccc(-c2ccccc2C[NH2+]CC2CC2)o1

$$$$
