COC1C[C@H](Nc2ccc(-c3n[nH]cc3C[NH2+]C3CC(O)C3(C)C)o2)C1(C)C
     RDKit          3D

 61 64  0  0  1  0  0  0  0  0999 V2000
  125.8646  136.0628  167.2907 C   0  0  0  0  0  0  0  0  0  0  0  0
  126.1868  137.1434  166.4128 O   0  0  0  0  0  0  0  0  0  0  0  0
  126.1929  136.7863  165.0292 C   0  0  1  0  0  0  0  0  0  0  0  0
  126.6000  137.9396  164.0971 C   0  0  0  0  0  0  0  0  0  0  0  0
  127.3946  136.9009  163.2880 C   0  0  2  0  0  0  0  0  0  0  0  0
  128.3601  137.2659  162.9378 H   0  0  0  0  0  0  0  0  0  0  0  0
  126.6118  136.2573  162.2300 N   0  0  0  0  0  0  0  0  0  0  0  0
  127.2005  135.2958  161.4169 C   0  0  0  0  0  0  0  0  0  0  0  0
  126.5604  134.2519  160.8336 C   0  0  0  0  0  0  0  0  0  0  0  0
  127.5272  133.5337  160.1023 C   0  0  0  0  0  0  0  0  0  0  0  0
  128.7112  134.1775  160.2769 C   0  0  0  0  0  0  0  0  0  0  0  0
  130.0082  133.7777  159.6928 C   0  0  0  0  0  0  0  0  0  0  0  0
  130.2191  132.7396  158.9077 N   0  0  0  0  0  0  0  0  0  0  0  0
  131.5793  132.7158  158.5745 N   0  0  0  0  0  0  0  0  0  0  0  0
  132.0148  132.0600  158.0079 H   0  0  0  0  0  0  0  0  0  0  0  0
  132.1797  133.7644  159.1782 C   0  0  0  0  0  0  0  0  0  0  0  0
  131.2398  134.4425  159.8710 C   0  0  0  0  0  0  0  0  0  0  0  0
  131.4666  135.6859  160.6915 C   0  0  0  0  0  0  0  0  0  0  0  0
  131.2793  136.8719  159.8452 N   0  0  0  0  0  0  0  0  0  0  0  0
  131.9386  136.8478  159.0816 H   0  0  0  0  0  0  0  0  0  0  0  0
  130.3395  136.8781  159.4779 H   0  0  0  0  0  0  0  0  0  0  0  0
  131.5004  138.0842  160.6449 C   0  0  2  0  0  0  0  0  0  0  0  0
  131.3849  139.3861  159.8349 C   0  0  0  0  0  0  0  0  0  0  0  0
  132.5898  139.9014  160.6429 C   0  0  1  0  0  0  0  0  0  0  0  0
  132.2229  140.5653  161.8540 O   0  0  0  0  0  0  0  0  0  0  0  0
  132.9859  138.4290  160.8433 C   0  0  0  0  0  0  0  0  0  0  0  0
  133.5043  138.1197  162.2491 C   0  0  0  0  0  0  0  0  0  0  0  0
  133.8943  137.8831  159.7399 C   0  0  0  0  0  0  0  0  0  0  0  0
  128.4984  135.2473  161.0719 O   0  0  0  0  0  0  0  0  0  0  0  0
  127.4809  136.0748  164.5822 C   0  0  0  0  0  0  0  0  0  0  0  0
  128.6986  136.4126  165.4449 C   0  0  0  0  0  0  0  0  0  0  0  0
  127.3058  134.5708  164.3623 C   0  0  0  0  0  0  0  0  0  0  0  0
  125.8812  136.4152  168.3220 H   0  0  0  0  0  0  0  0  0  0  0  0
  126.5963  135.2644  167.1678 H   0  0  0  0  0  0  0  0  0  0  0  0
  124.8706  135.6847  167.0517 H   0  0  0  0  0  0  0  0  0  0  0  0
  125.2809  136.2758  164.7198 H   0  0  0  0  0  0  0  0  0  0  0  0
  125.7639  138.3736  163.5486 H   0  0  0  0  0  0  0  0  0  0  0  0
  127.2254  138.6908  164.5794 H   0  0  0  0  0  0  0  0  0  0  0  0
  125.6827  136.5023  162.0969 H   0  0  0  0  0  0  0  0  0  0  0  0
  125.5097  134.0158  160.9145 H   0  0  0  0  0  0  0  0  0  0  0  0
  127.3595  132.6425  159.5158 H   0  0  0  0  0  0  0  0  0  0  0  0
  133.2275  134.0182  159.1146 H   0  0  0  0  0  0  0  0  0  0  0  0
  130.7543  135.7120  161.5163 H   0  0  0  0  0  0  0  0  0  0  0  0
  132.4818  135.6793  161.0882 H   0  0  0  0  0  0  0  0  0  0  0  0
  130.9230  138.0924  161.5695 H   0  0  0  0  0  0  0  0  0  0  0  0
  131.5936  139.2594  158.7726 H   0  0  0  0  0  0  0  0  0  0  0  0
  130.4636  139.9374  160.0234 H   0  0  0  0  0  0  0  0  0  0  0  0
  133.3060  140.4691  160.0491 H   0  0  0  0  0  0  0  0  0  0  0  0
  132.9245  140.5865  162.5190 H   0  0  0  0  0  0  0  0  0  0  0  0
  133.3874  137.0553  162.4535 H   0  0  0  0  0  0  0  0  0  0  0  0
  134.5586  138.3885  162.3148 H   0  0  0  0  0  0  0  0  0  0  0  0
  132.9365  138.6947  162.9806 H   0  0  0  0  0  0  0  0  0  0  0  0
  133.5895  138.2985  158.7794 H   0  0  0  0  0  0  0  0  0  0  0  0
  134.9268  138.1652  159.9465 H   0  0  0  0  0  0  0  0  0  0  0  0
  133.8142  136.7965  159.7076 H   0  0  0  0  0  0  0  0  0  0  0  0
  128.6649  135.8296  166.3652 H   0  0  0  0  0  0  0  0  0  0  0  0
  129.6098  136.1737  164.8966 H   0  0  0  0  0  0  0  0  0  0  0  0
  128.6885  137.4752  165.6874 H   0  0  0  0  0  0  0  0  0  0  0  0
  126.3509  134.3844  163.8705 H   0  0  0  0  0  0  0  0  0  0  0  0
  128.1160  134.1985  163.7355 H   0  0  0  0  0  0  0  0  0  0  0  0
  127.3253  134.0584  165.3241 H   0  0  0  0  0  0  0  0  0  0  0  0
  1  2  1  0
  1 33  1  0
  1 34  1  0
  1 35  1  0
  2  3  1  0
  3 30  1  0
  3  4  1  0
  3 36  1  6
  4  5  1  0
  4 37  1  0
  4 38  1  0
  5  6  1  6
  5  7  1  0
  5 30  1  0
  7  8  1  0
  7 39  1  0
  8 29  1  0
  8  9  2  0
  9 10  1  0
  9 40  1  0
 10 11  2  0
 10 41  1  0
 11 12  1  0
 11 29  1  0
 12 17  1  0
 12 13  2  0
 13 14  1  0
 14 15  1  0
 14 16  1  0
 16 17  2  0
 16 42  1  0
 17 18  1  0
 18 19  1  0
 18 43  1  0
 18 44  1  0
 19 20  1  0
 19 21  1  0
 19 22  1  0
 22 26  1  0
 22 23  1  0
 22 45  1  1
 23 24  1  0
 23 46  1  0
 23 47  1  0
 24 25  1  0
 24 26  1  0
 24 48  1  6
 25 49  1  0
 26 27  1  0
 26 28  1  0
 27 50  1  0
 27 51  1  0
 27 52  1  0
 28 53  1  0
 28 54  1  0
 28 55  1  0
 30 31  1  0
 30 32  1  0
 31 56  1  0
 31 57  1  0
 31 58  1  0
 32 59  1  0
 32 60  1  0
 32 61  1  0
M  CHG  1  19   1
M  END
>  <DOCK_score>  (1) 
-43.536221

>  <SMILES>  (1) 
COC1C[C@H](Nc2ccc(-c3n[nH]cc3C[NH2+]C3CC(O)C3(C)C)o2)C1(C)C

$$$$
