CCCCOc1ncccc1CNC1=CC[N@@H+](C(c2ccccc2)c2ccccc2)CC1
     RDKit          3D

 66 69  0  0  1  0  0  0  0  0999 V2000
  138.5490  136.8248  167.0496 C   0  0  0  0  0  0  0  0  0  0  0  0
  138.4962  136.3055  165.6114 C   0  0  0  0  0  0  0  0  0  0  0  0
  137.2612  136.8734  164.9091 C   0  0  0  0  0  0  0  0  0  0  0  0
  137.2084  136.3540  163.4709 C   0  0  0  0  0  0  0  0  0  0  0  0
  136.0550  136.8844  162.8149 O   0  0  0  0  0  0  0  0  0  0  0  0
  136.2049  138.0656  162.1644 C   0  0  0  0  0  0  0  0  0  0  0  0
  137.3831  138.6671  162.1617 N   0  0  0  0  0  0  0  0  0  0  0  0
  137.5709  139.8189  161.5464 C   0  0  0  0  0  0  0  0  0  0  0  0
  136.5364  140.4389  160.8737 C   0  0  0  0  0  0  0  0  0  0  0  0
  135.2861  139.8373  160.8483 C   0  0  0  0  0  0  0  0  0  0  0  0
  135.1212  138.6291  161.5033 C   0  0  0  0  0  0  0  0  0  0  0  0
  133.7823  137.9375  161.5045 C   0  0  0  0  0  0  0  0  0  0  0  0
  133.9695  136.5106  161.2305 N   0  0  0  0  0  0  0  0  0  0  0  0
  132.9041  135.7456  160.7731 C   0  0  0  0  0  0  0  0  0  0  0  0
  133.0982  134.4725  160.5357 C   0  0  0  0  0  0  0  0  0  0  0  0
  132.0151  133.5566  160.0427 C   0  0  0  0  0  0  0  0  0  0  0  0
  130.9058  134.3334  159.4774 N   0  0  1  0  0  0  0  0  0  0  0  0
  131.2110  134.7918  158.6319 H   0  0  0  0  0  0  0  0  0  0  0  0
  129.7827  133.4370  159.1728 C   0  0  0  0  0  0  0  0  0  0  0  0
  128.6447  134.2367  158.5924 C   0  0  0  0  0  0  0  0  0  0  0  0
  127.3398  133.8251  158.7891 C   0  0  0  0  0  0  0  0  0  0  0  0
  126.2961  134.5590  158.2572 C   0  0  0  0  0  0  0  0  0  0  0  0
  126.5572  135.7040  157.5282 C   0  0  0  0  0  0  0  0  0  0  0  0
  127.8623  136.1125  157.3266 C   0  0  0  0  0  0  0  0  0  0  0  0
  128.9059  135.3816  157.8631 C   0  0  0  0  0  0  0  0  0  0  0  0
  130.2257  132.3974  158.1758 C   0  0  0  0  0  0  0  0  0  0  0  0
  130.0928  132.6380  156.8211 C   0  0  0  0  0  0  0  0  0  0  0  0
  130.5029  131.6861  155.9065 C   0  0  0  0  0  0  0  0  0  0  0  0
  131.0385  130.4902  156.3467 C   0  0  0  0  0  0  0  0  0  0  0  0
  131.1665  130.2474  157.7016 C   0  0  0  0  0  0  0  0  0  0  0  0
  130.7600  131.2009  158.6161 C   0  0  0  0  0  0  0  0  0  0  0  0
  130.4778  135.3435  160.4583 C   0  0  0  0  0  0  0  0  0  0  0  0
  131.5705  136.4099  160.5689 C   0  0  0  0  0  0  0  0  0  0  0  0
  137.6514  136.5108  167.5823 H   0  0  0  0  0  0  0  0  0  0  0  0
  139.4288  136.4202  167.5499 H   0  0  0  0  0  0  0  0  0  0  0  0
  138.6043  137.9133  167.0410 H   0  0  0  0  0  0  0  0  0  0  0  0
  138.4409  135.2169  165.6199 H   0  0  0  0  0  0  0  0  0  0  0  0
  139.3937  136.6195  165.0786 H   0  0  0  0  0  0  0  0  0  0  0  0
  137.3166  137.9619  164.9005 H   0  0  0  0  0  0  0  0  0  0  0  0
  136.3636  136.5593  165.4418 H   0  0  0  0  0  0  0  0  0  0  0  0
  137.1531  135.2655  163.4795 H   0  0  0  0  0  0  0  0  0  0  0  0
  138.1060  136.6680  162.9380 H   0  0  0  0  0  0  0  0  0  0  0  0
  138.5459  140.2827  161.5688 H   0  0  0  0  0  0  0  0  0  0  0  0
  136.6989  141.3816  160.3723 H   0  0  0  0  0  0  0  0  0  0  0  0
  134.4603  140.3014  160.3296 H   0  0  0  0  0  0  0  0  0  0  0  0
  133.1468  138.3749  160.7346 H   0  0  0  0  0  0  0  0  0  0  0  0
  133.3101  138.0614  162.4792 H   0  0  0  0  0  0  0  0  0  0  0  0
  134.8375  136.1000  161.3685 H   0  0  0  0  0  0  0  0  0  0  0  0
  134.0834  134.0621  160.7007 H   0  0  0  0  0  0  0  0  0  0  0  0
  131.6472  132.9554  160.8743 H   0  0  0  0  0  0  0  0  0  0  0  0
  132.4203  132.8961  159.2760 H   0  0  0  0  0  0  0  0  0  0  0  0
  129.4517  132.9453  160.0875 H   0  0  0  0  0  0  0  0  0  0  0  0
  127.1358  132.9305  159.3587 H   0  0  0  0  0  0  0  0  0  0  0  0
  125.2766  134.2374  158.4108 H   0  0  0  0  0  0  0  0  0  0  0  0
  125.7417  136.2771  157.1123 H   0  0  0  0  0  0  0  0  0  0  0  0
  128.0666  137.0047  156.7534 H   0  0  0  0  0  0  0  0  0  0  0  0
  129.9254  135.7029  157.7091 H   0  0  0  0  0  0  0  0  0  0  0  0
  129.6713  133.5710  156.4772 H   0  0  0  0  0  0  0  0  0  0  0  0
  130.4025  131.8757  154.8480 H   0  0  0  0  0  0  0  0  0  0  0  0
  131.3564  129.7454  155.6322 H   0  0  0  0  0  0  0  0  0  0  0  0
  131.5847  129.3129  158.0455 H   0  0  0  0  0  0  0  0  0  0  0  0
  130.8602  131.0113  159.6745 H   0  0  0  0  0  0  0  0  0  0  0  0
  129.5480  135.8052  160.1261 H   0  0  0  0  0  0  0  0  0  0  0  0
  130.3251  134.8701  161.4282 H   0  0  0  0  0  0  0  0  0  0  0  0
  131.5954  137.0005  159.6530 H   0  0  0  0  0  0  0  0  0  0  0  0
  131.3568  137.0622  161.4156 H   0  0  0  0  0  0  0  0  0  0  0  0
  1  2  1  0
  1 34  1  0
  1 35  1  0
  1 36  1  0
  2  3  1  0
  2 37  1  0
  2 38  1  0
  3  4  1  0
  3 39  1  0
  3 40  1  0
  4  5  1  0
  4 41  1  0
  4 42  1  0
  5  6  1  0
  6 11  2  0
  6  7  1  0
  7  8  2  0
  8  9  1  0
  8 43  1  0
  9 10  2  0
  9 44  1  0
 10 11  1  0
 10 45  1  0
 11 12  1  0
 12 13  1  0
 12 46  1  0
 12 47  1  0
 13 14  1  0
 13 48  1  0
 14 33  1  0
 14 15  2  0
 15 16  1  0
 15 49  1  0
 16 17  1  0
 16 50  1  0
 16 51  1  0
 17 18  1  6
 17 19  1  0
 17 32  1  0
 19 20  1  0
 19 26  1  0
 19 52  1  0
 20 25  1  0
 20 21  2  0
 21 22  1  0
 21 53  1  0
 22 23  2  0
 22 54  1  0
 23 24  1  0
 23 55  1  0
 24 25  2  0
 24 56  1  0
 25 57  1  0
 26 31  1  0
 26 27  2  0
 27 28  1  0
 27 58  1  0
 28 29  2  0
 28 59  1  0
 29 30  1  0
 29 60  1  0
 30 31  2  0
 30 61  1  0
 31 62  1  0
 32 33  1  0
 32 63  1  0
 32 64  1  0
 33 65  1  0
 33 66  1  0
M  CHG  1  17   1
M  END
>  <DOCK_score>  (1) 
-58.528019

>  <SMILES>  (1) 
CCCCOc1ncccc1CNC1=CC[N@@H+](C(c2ccccc2)c2ccccc2)CC1

$$$$
