CCc1ccc(C[C@@H](Nc2[nH]cc(-c3cccnc3)[nH+]2)c2ccc(CC)cc2)cc1
     RDKit          3D

 59 62  0  0  1  0  0  0  0  0999 V2000
  126.9514  131.5331  159.4405 C   0  0  0  0  0  0  0  0  0  0  0  0
  126.2985  132.8696  159.7985 C   0  0  0  0  0  0  0  0  0  0  0  0
  127.3671  133.8728  160.1488 C   0  0  0  0  0  0  0  0  0  0  0  0
  127.9173  134.6696  159.1623 C   0  0  0  0  0  0  0  0  0  0  0  0
  128.8979  135.5894  159.4836 C   0  0  0  0  0  0  0  0  0  0  0  0
  129.3283  135.7125  160.7915 C   0  0  0  0  0  0  0  0  0  0  0  0
  130.3977  136.7150  161.1416 C   0  0  0  0  0  0  0  0  0  0  0  0
  131.7737  136.0584  161.0138 C   0  0  1  0  0  0  0  0  0  0  0  0
  131.8354  135.2088  161.6939 H   0  0  0  0  0  0  0  0  0  0  0  0
  131.9688  135.5971  159.6372 N   0  0  0  0  0  0  0  0  0  0  0  0
  131.5815  134.3185  159.2742 C   0  0  0  0  0  0  0  0  0  0  0  0
  131.0165  133.3967  160.1007 N   0  0  0  0  0  0  0  0  0  0  0  0
  130.8143  133.5163  161.0419 H   0  0  0  0  0  0  0  0  0  0  0  0
  130.7826  132.2667  159.3554 C   0  0  0  0  0  0  0  0  0  0  0  0
  131.2188  132.5271  158.0983 C   0  0  0  0  0  0  0  0  0  0  0  0
  131.1743  131.5922  156.9474 C   0  0  0  0  0  0  0  0  0  0  0  0
  131.0388  132.0770  155.6432 C   0  0  0  0  0  0  0  0  0  0  0  0
  131.0084  131.1640  154.6034 C   0  0  0  0  0  0  0  0  0  0  0  0
  131.1003  129.8132  154.8863 C   0  0  0  0  0  0  0  0  0  0  0  0
  131.2219  129.3850  156.1279 N   0  0  0  0  0  0  0  0  0  0  0  0
  131.2609  130.2163  157.1492 C   0  0  0  0  0  0  0  0  0  0  0  0
  131.7038  133.7941  158.0792 N   0  0  0  0  0  0  0  0  0  0  0  0
  132.0804  134.2406  157.3048 H   0  0  0  0  0  0  0  0  0  0  0  0
  132.8431  137.0609  161.3641 C   0  0  0  0  0  0  0  0  0  0  0  0
  132.9612  138.2289  160.6341 C   0  0  0  0  0  0  0  0  0  0  0  0
  133.9396  139.1503  160.9578 C   0  0  0  0  0  0  0  0  0  0  0  0
  134.8053  138.8997  162.0060 C   0  0  0  0  0  0  0  0  0  0  0  0
  135.8749  139.9020  162.3559 C   0  0  0  0  0  0  0  0  0  0  0  0
  135.3270  140.8951  163.3828 C   0  0  0  0  0  0  0  0  0  0  0  0
  134.6902  137.7295  162.7328 C   0  0  0  0  0  0  0  0  0  0  0  0
  133.7093  136.8099  162.4116 C   0  0  0  0  0  0  0  0  0  0  0  0
  128.7818  134.9121  161.7771 C   0  0  0  0  0  0  0  0  0  0  0  0
  127.7975  133.9959  161.4567 C   0  0  0  0  0  0  0  0  0  0  0  0
  126.1784  130.8075  159.1871 H   0  0  0  0  0  0  0  0  0  0  0  0
  127.6151  131.6699  158.5868 H   0  0  0  0  0  0  0  0  0  0  0  0
  127.5256  131.1694  160.2926 H   0  0  0  0  0  0  0  0  0  0  0  0
  125.6348  132.7328  160.6522 H   0  0  0  0  0  0  0  0  0  0  0  0
  125.7242  133.2334  158.9464 H   0  0  0  0  0  0  0  0  0  0  0  0
  127.5813  134.5732  158.1405 H   0  0  0  0  0  0  0  0  0  0  0  0
  129.3280  136.2117  158.7126 H   0  0  0  0  0  0  0  0  0  0  0  0
  130.2525  137.0582  162.1658 H   0  0  0  0  0  0  0  0  0  0  0  0
  130.3359  137.5646  160.4615 H   0  0  0  0  0  0  0  0  0  0  0  0
  132.3730  136.1861  158.9809 H   0  0  0  0  0  0  0  0  0  0  0  0
  130.3398  131.3456  159.7049 H   0  0  0  0  0  0  0  0  0  0  0  0
  130.9642  133.1373  155.4516 H   0  0  0  0  0  0  0  0  0  0  0  0
  130.9095  131.5025  153.5826 H   0  0  0  0  0  0  0  0  0  0  0  0
  131.0723  129.0978  154.0777 H   0  0  0  0  0  0  0  0  0  0  0  0
  131.3613  129.8277  158.1519 H   0  0  0  0  0  0  0  0  0  0  0  0
  132.2871  138.4230  159.8129 H   0  0  0  0  0  0  0  0  0  0  0  0
  134.0297  140.0643  160.3897 H   0  0  0  0  0  0  0  0  0  0  0  0
  136.7361  139.3827  162.7760 H   0  0  0  0  0  0  0  0  0  0  0  0
  136.1777  140.4390  161.4568 H   0  0  0  0  0  0  0  0  0  0  0  0
  135.0242  140.3581  164.2817 H   0  0  0  0  0  0  0  0  0  0  0  0
  136.1007  141.6200  163.6357 H   0  0  0  0  0  0  0  0  0  0  0  0
  134.4659  141.4144  162.9624 H   0  0  0  0  0  0  0  0  0  0  0  0
  135.3669  137.5335  163.5515 H   0  0  0  0  0  0  0  0  0  0  0  0
  133.6197  135.8956  162.9793 H   0  0  0  0  0  0  0  0  0  0  0  0
  129.1212  135.0053  162.7982 H   0  0  0  0  0  0  0  0  0  0  0  0
  127.3679  133.3732  162.2274 H   0  0  0  0  0  0  0  0  0  0  0  0
  1  2  1  0
  1 34  1  0
  1 35  1  0
  1 36  1  0
  2  3  1  0
  2 37  1  0
  2 38  1  0
  3 33  2  0
  3  4  1  0
  4  5  2  0
  4 39  1  0
  5  6  1  0
  5 40  1  0
  6  7  1  0
  6 32  2  0
  7  8  1  0
  7 41  1  0
  7 42  1  0
  8  9  1  1
  8 10  1  0
  8 24  1  0
 10 43  1  0
 11 10  1  0
 11 22  2  0
 11 12  1  0
 12 13  1  0
 12 14  1  0
 14 15  2  0
 14 44  1  0
 15 16  1  0
 15 22  1  0
 16 21  1  0
 16 17  2  0
 17 18  1  0
 17 45  1  0
 18 19  2  0
 18 46  1  0
 19 20  1  0
 19 47  1  0
 20 21  2  0
 21 48  1  0
 22 23  1  0
 24 31  1  0
 24 25  2  0
 25 26  1  0
 25 49  1  0
 26 27  2  0
 26 50  1  0
 27 28  1  0
 27 30  1  0
 28 29  1  0
 28 51  1  0
 28 52  1  0
 29 53  1  0
 29 54  1  0
 29 55  1  0
 30 31  2  0
 30 56  1  0
 31 57  1  0
 32 33  1  0
 32 58  1  0
 33 59  1  0
M  CHG  1  22   1
M  END
>  <DOCK_score>  (1) 
-56.907757

>  <SMILES>  (1) 
CCc1ccc(C[C@@H](Nc2[nH]cc(-c3cccnc3)[nH+]2)c2ccc(CC)cc2)cc1

$$$$
