[NH3+][C@@H](C(=O)N(Cc1ccccn1)Cc1ccccn1)c1ccc(C(=O)c2ccccc2)cc1
     RDKit          3D

 58 61  0  0  1  0  0  0  0  0999 V2000
  133.1578  135.6138  159.8413 N   0  0  0  0  0  0  0  0  0  0  0  0
  132.9928  134.6245  159.7303 H   0  0  0  0  0  0  0  0  0  0  0  0
  132.6454  136.1214  159.1356 H   0  0  0  0  0  0  0  0  0  0  0  0
  134.1440  135.8034  159.7425 H   0  0  0  0  0  0  0  0  0  0  0  0
  132.7083  136.0388  161.1737 C   0  0  1  0  0  0  0  0  0  0  0  0
  133.2618  135.4905  161.9359 H   0  0  0  0  0  0  0  0  0  0  0  0
  132.9548  137.5162  161.3392 C   0  0  0  0  0  0  0  0  0  0  0  0
  132.9242  138.2482  160.3727 O   0  0  0  0  0  0  0  0  0  0  0  0
  133.2092  138.0243  162.5614 N   0  0  0  0  0  0  0  0  0  0  0  0
  133.4487  139.4606  162.7222 C   0  0  0  0  0  0  0  0  0  0  0  0
  134.6474  139.8648  161.9032 C   0  0  0  0  0  0  0  0  0  0  0  0
  134.5925  141.0100  161.1311 C   0  0  0  0  0  0  0  0  0  0  0  0
  135.7008  141.3733  160.3817 C   0  0  0  0  0  0  0  0  0  0  0  0
  136.8280  140.5675  160.4370 C   0  0  0  0  0  0  0  0  0  0  0  0
  136.8073  139.4342  161.2276 C   0  0  0  0  0  0  0  0  0  0  0  0
  135.7366  139.1222  161.9315 N   0  0  0  0  0  0  0  0  0  0  0  0
  133.2462  137.1403  163.7290 C   0  0  0  0  0  0  0  0  0  0  0  0
  134.6496  136.6280  163.9268 C   0  0  0  0  0  0  0  0  0  0  0  0
  135.2037  136.6250  165.1932 C   0  0  0  0  0  0  0  0  0  0  0  0
  136.4933  136.1463  165.3651 C   0  0  0  0  0  0  0  0  0  0  0  0
  137.1846  135.6969  164.2502 C   0  0  0  0  0  0  0  0  0  0  0  0
  136.5674  135.7353  163.0145 C   0  0  0  0  0  0  0  0  0  0  0  0
  135.3367  136.1925  162.8890 N   0  0  0  0  0  0  0  0  0  0  0  0
  131.2355  135.7556  161.3209 C   0  0  0  0  0  0  0  0  0  0  0  0
  130.3308  136.3464  160.4564 C   0  0  0  0  0  0  0  0  0  0  0  0
  128.9820  136.0871  160.5820 C   0  0  0  0  0  0  0  0  0  0  0  0
  128.5288  135.2351  161.5918 C   0  0  0  0  0  0  0  0  0  0  0  0
  127.0849  134.9578  161.7366 C   0  0  0  0  0  0  0  0  0  0  0  0
  126.3985  135.6652  162.4479 O   0  0  0  0  0  0  0  0  0  0  0  0
  126.4753  133.8206  161.0170 C   0  0  0  0  0  0  0  0  0  0  0  0
  127.2600  133.0090  160.1944 C   0  0  0  0  0  0  0  0  0  0  0  0
  126.6852  131.9464  159.5289 C   0  0  0  0  0  0  0  0  0  0  0  0
  125.3324  131.6895  159.6669 C   0  0  0  0  0  0  0  0  0  0  0  0
  124.5480  132.4923  160.4765 C   0  0  0  0  0  0  0  0  0  0  0  0
  125.1105  133.5554  161.1516 C   0  0  0  0  0  0  0  0  0  0  0  0
  129.4474  134.6466  162.4643 C   0  0  0  0  0  0  0  0  0  0  0  0
  130.7939  134.9104  162.3238 C   0  0  0  0  0  0  0  0  0  0  0  0
  133.6353  139.6824  163.7730 H   0  0  0  0  0  0  0  0  0  0  0  0
  132.5736  140.0151  162.3834 H   0  0  0  0  0  0  0  0  0  0  0  0
  133.6973  141.6142  161.1117 H   0  0  0  0  0  0  0  0  0  0  0  0
  135.6868  142.2630  159.7696 H   0  0  0  0  0  0  0  0  0  0  0  0
  137.7092  140.8198  159.8659 H   0  0  0  0  0  0  0  0  0  0  0  0
  137.6797  138.7991  161.2729 H   0  0  0  0  0  0  0  0  0  0  0  0
  132.9335  137.6942  164.6142 H   0  0  0  0  0  0  0  0  0  0  0  0
  132.5715  136.2992  163.5696 H   0  0  0  0  0  0  0  0  0  0  0  0
  134.6375  136.9870  166.0386 H   0  0  0  0  0  0  0  0  0  0  0  0
  136.9502  136.1279  166.3435 H   0  0  0  0  0  0  0  0  0  0  0  0
  138.1927  135.3215  164.3465 H   0  0  0  0  0  0  0  0  0  0  0  0
  137.0991  135.3874  162.1413 H   0  0  0  0  0  0  0  0  0  0  0  0
  130.6820  137.0086  159.6789 H   0  0  0  0  0  0  0  0  0  0  0  0
  128.2772  136.5452  159.9036 H   0  0  0  0  0  0  0  0  0  0  0  0
  128.3151  133.2108  160.0825 H   0  0  0  0  0  0  0  0  0  0  0  0
  127.2913  131.3159  158.8954 H   0  0  0  0  0  0  0  0  0  0  0  0
  124.8866  130.8589  159.1400 H   0  0  0  0  0  0  0  0  0  0  0  0
  123.4930  132.2861  160.5797 H   0  0  0  0  0  0  0  0  0  0  0  0
  124.4971  134.1815  161.7826 H   0  0  0  0  0  0  0  0  0  0  0  0
  129.1040  133.9871  163.2476 H   0  0  0  0  0  0  0  0  0  0  0  0
  131.5050  134.4557  162.9975 H   0  0  0  0  0  0  0  0  0  0  0  0
  1  2  1  0
  1  3  1  0
  1  4  1  0
  1  5  1  0
  5  6  1  1
  5  7  1  0
  5 24  1  0
  7  8  2  0
  7  9  1  0
  9 10  1  0
  9 17  1  0
 10 11  1  0
 10 38  1  0
 10 39  1  0
 11 16  1  0
 11 12  2  0
 12 13  1  0
 12 40  1  0
 13 14  2  0
 13 41  1  0
 14 15  1  0
 14 42  1  0
 15 16  2  0
 15 43  1  0
 17 18  1  0
 17 44  1  0
 17 45  1  0
 18 23  1  0
 18 19  2  0
 19 20  1  0
 19 46  1  0
 20 21  2  0
 20 47  1  0
 21 22  1  0
 21 48  1  0
 22 23  2  0
 22 49  1  0
 24 37  1  0
 24 25  2  0
 25 26  1  0
 25 50  1  0
 26 27  2  0
 26 51  1  0
 27 28  1  0
 27 36  1  0
 28 29  2  0
 28 30  1  0
 30 35  1  0
 30 31  2  0
 31 32  1  0
 31 52  1  0
 32 33  2  0
 32 53  1  0
 33 34  1  0
 33 54  1  0
 34 35  2  0
 34 55  1  0
 35 56  1  0
 36 37  2  0
 36 57  1  0
 37 58  1  0
M  CHG  1   1   1
M  END
>  <DOCK_score>  (1) 
-43.284538

>  <SMILES>  (1) 
[NH3+][C@@H](C(=O)N(Cc1ccccn1)Cc1ccccn1)c1ccc(C(=O)c2ccccc2)cc1

$$$$
