CCc1ccc(-c2c[nH]c(N[C@@H](c3ccc(CC)cc3)c3ccccc3Cl)[nH+]2)cc1
     RDKit          3D

 57 60  0  0  1  0  0  0  0  0999 V2000
  130.4083  128.6151  151.4924 C   0  0  0  0  0  0  0  0  0  0  0  0
  131.5811  129.4999  151.9214 C   0  0  0  0  0  0  0  0  0  0  0  0
  131.2013  130.2730  153.1580 C   0  0  0  0  0  0  0  0  0  0  0  0
  131.4482  129.7362  154.4086 C   0  0  0  0  0  0  0  0  0  0  0  0
  131.1019  130.4389  155.5448 C   0  0  0  0  0  0  0  0  0  0  0  0
  130.5019  131.6917  155.4303 C   0  0  0  0  0  0  0  0  0  0  0  0
  130.1275  132.4518  156.6477 C   0  0  0  0  0  0  0  0  0  0  0  0
  129.2589  132.0456  157.6066 C   0  0  0  0  0  0  0  0  0  0  0  0
  129.2061  133.0460  158.5465 N   0  0  0  0  0  0  0  0  0  0  0  0
  128.6703  133.0468  159.3551 H   0  0  0  0  0  0  0  0  0  0  0  0
  130.0448  134.0352  158.1341 C   0  0  0  0  0  0  0  0  0  0  0  0
  130.2791  135.2247  158.8027 N   0  0  0  0  0  0  0  0  0  0  0  0
  129.5950  135.5004  160.0685 C   0  0  1  0  0  0  0  0  0  0  0  0
  129.8558  134.7329  160.7972 H   0  0  0  0  0  0  0  0  0  0  0  0
  130.0211  136.8500  160.5862 C   0  0  0  0  0  0  0  0  0  0  0  0
  129.7931  137.9841  159.8295 C   0  0  0  0  0  0  0  0  0  0  0  0
  130.1840  139.2220  160.3044 C   0  0  0  0  0  0  0  0  0  0  0  0
  130.8028  139.3259  161.5361 C   0  0  0  0  0  0  0  0  0  0  0  0
  131.2294  140.6754  162.0537 C   0  0  0  0  0  0  0  0  0  0  0  0
  130.0900  141.2932  162.8669 C   0  0  0  0  0  0  0  0  0  0  0  0
  131.0356  138.1911  162.2906 C   0  0  0  0  0  0  0  0  0  0  0  0
  130.6395  136.9539  161.8182 C   0  0  0  0  0  0  0  0  0  0  0  0
  128.1045  135.4956  159.8455 C   0  0  0  0  0  0  0  0  0  0  0  0
  127.5878  135.8716  158.6198 C   0  0  0  0  0  0  0  0  0  0  0  0
  126.2210  135.8622  158.4135 C   0  0  0  0  0  0  0  0  0  0  0  0
  125.3695  135.4878  159.4363 C   0  0  0  0  0  0  0  0  0  0  0  0
  125.8847  135.1167  160.6638 C   0  0  0  0  0  0  0  0  0  0  0  0
  127.2532  135.1204  160.8691 C   0  0  0  0  0  0  0  0  0  0  0  0
  127.9010  134.6550  162.4109 Cl  0  0  0  0  0  0  0  0  0  0  0  0
  130.5899  133.6787  156.9967 N   0  0  0  0  0  0  0  0  0  0  0  0
  131.2239  134.2069  156.4869 H   0  0  0  0  0  0  0  0  0  0  0  0
  130.2499  132.2251  154.1675 C   0  0  0  0  0  0  0  0  0  0  0  0
  130.6056  131.5159  153.0382 C   0  0  0  0  0  0  0  0  0  0  0  0
  130.1663  127.9189  152.2954 H   0  0  0  0  0  0  0  0  0  0  0  0
  129.5407  129.2392  151.2788 H   0  0  0  0  0  0  0  0  0  0  0  0
  130.6832  128.0563  150.5977 H   0  0  0  0  0  0  0  0  0  0  0  0
  131.8225  130.1963  151.1179 H   0  0  0  0  0  0  0  0  0  0  0  0
  132.4480  128.8761  152.1346 H   0  0  0  0  0  0  0  0  0  0  0  0
  131.9131  128.7653  154.4961 H   0  0  0  0  0  0  0  0  0  0  0  0
  131.2958  130.0190  156.5207 H   0  0  0  0  0  0  0  0  0  0  0  0
  128.7127  131.1141  157.6270 H   0  0  0  0  0  0  0  0  0  0  0  0
  130.8961  135.8754  158.4331 H   0  0  0  0  0  0  0  0  0  0  0  0
  129.3100  137.9029  158.8669 H   0  0  0  0  0  0  0  0  0  0  0  0
  130.0062  140.1081  159.7130 H   0  0  0  0  0  0  0  0  0  0  0  0
  131.4711  141.3268  161.2139 H   0  0  0  0  0  0  0  0  0  0  0  0
  132.1079  140.5600  162.6885 H   0  0  0  0  0  0  0  0  0  0  0  0
  130.3986  142.2693  163.2413 H   0  0  0  0  0  0  0  0  0  0  0  0
  129.8484  140.6418  163.7067 H   0  0  0  0  0  0  0  0  0  0  0  0
  129.2115  141.4085  162.2320 H   0  0  0  0  0  0  0  0  0  0  0  0
  131.5229  138.2719  163.2510 H   0  0  0  0  0  0  0  0  0  0  0  0
  130.8174  136.0679  162.4096 H   0  0  0  0  0  0  0  0  0  0  0  0
  128.2523  136.1687  157.8220 H   0  0  0  0  0  0  0  0  0  0  0  0
  125.8180  136.1514  157.4541 H   0  0  0  0  0  0  0  0  0  0  0  0
  124.3014  135.4849  159.2758 H   0  0  0  0  0  0  0  0  0  0  0  0
  125.2195  134.8243  161.4626 H   0  0  0  0  0  0  0  0  0  0  0  0
  129.7808  133.1933  154.0729 H   0  0  0  0  0  0  0  0  0  0  0  0
  130.4147  131.9302  152.0593 H   0  0  0  0  0  0  0  0  0  0  0  0
  1  2  1  0
  1 34  1  0
  1 35  1  0
  1 36  1  0
  2  3  1  0
  2 37  1  0
  2 38  1  0
  3 33  2  0
  3  4  1  0
  4  5  2  0
  4 39  1  0
  5  6  1  0
  5 40  1  0
  6  7  1  0
  6 32  2  0
  7 30  1  0
  7  8  2  0
  8  9  1  0
  8 41  1  0
  9 10  1  0
  9 11  1  0
 11 12  1  0
 11 30  2  0
 12 13  1  0
 12 42  1  0
 13 14  1  1
 13 15  1  0
 13 23  1  0
 15 22  1  0
 15 16  2  0
 16 17  1  0
 16 43  1  0
 17 18  2  0
 17 44  1  0
 18 19  1  0
 18 21  1  0
 19 20  1  0
 19 45  1  0
 19 46  1  0
 20 47  1  0
 20 48  1  0
 20 49  1  0
 21 22  2  0
 21 50  1  0
 22 51  1  0
 23 28  1  0
 23 24  2  0
 24 25  1  0
 24 52  1  0
 25 26  2  0
 25 53  1  0
 26 27  1  0
 26 54  1  0
 27 28  2  0
 27 55  1  0
 28 29  1  0
 30 31  1  0
 32 33  1  0
 32 56  1  0
 33 57  1  0
M  CHG  1  30   1
M  END
>  <DOCK_score>  (1) 
-63.594173

>  <SMILES>  (1) 
CCc1ccc(-c2c[nH]c(N[C@@H](c3ccc(CC)cc3)c3ccccc3Cl)[nH+]2)cc1

$$$$
