CCc1ccc(-c2c[nH]c(N[C@@H](C=CCCc3ccccc3)CCc3ccccc3)[nH+]2)cc1
     RDKit          3D

 67 70  0  0  1  0  0  0  0  0999 V2000
  130.4728  129.2578  152.0387 C   0  0  0  0  0  0  0  0  0  0  0  0
  131.7452  129.8763  152.6214 C   0  0  0  0  0  0  0  0  0  0  0  0
  131.4174  130.5728  153.9170 C   0  0  0  0  0  0  0  0  0  0  0  0
  131.4857  129.8763  155.1102 C   0  0  0  0  0  0  0  0  0  0  0  0
  131.1921  130.5105  156.3002 C   0  0  0  0  0  0  0  0  0  0  0  0
  130.8152  131.8523  156.2971 C   0  0  0  0  0  0  0  0  0  0  0  0
  130.4930  132.5381  157.5723 C   0  0  0  0  0  0  0  0  0  0  0  0
  129.9773  131.9561  158.6833 C   0  0  0  0  0  0  0  0  0  0  0  0
  129.8365  132.9474  159.6238 N   0  0  0  0  0  0  0  0  0  0  0  0
  129.4911  132.8405  160.5238 H   0  0  0  0  0  0  0  0  0  0  0  0
  130.2709  134.1072  159.0596 C   0  0  0  0  0  0  0  0  0  0  0  0
  130.2951  135.3454  159.6783 N   0  0  0  0  0  0  0  0  0  0  0  0
  129.8256  135.4835  161.0592 C   0  0  1  0  0  0  0  0  0  0  0  0
  128.9368  134.8694  161.2038 H   0  0  0  0  0  0  0  0  0  0  0  0
  130.9080  135.0316  162.0054 C   0  0  0  0  0  0  0  0  0  0  0  0
  132.1676  135.1612  161.6695 C   0  0  0  0  0  0  0  0  0  0  0  0
  133.2500  134.7093  162.6157 C   0  0  0  0  0  0  0  0  0  0  0  0
  133.6409  135.8686  163.5345 C   0  0  0  0  0  0  0  0  0  0  0  0
  134.1481  137.0190  162.7036 C   0  0  0  0  0  0  0  0  0  0  0  0
  135.4941  137.1140  162.4034 C   0  0  0  0  0  0  0  0  0  0  0  0
  135.9587  138.1667  161.6372 C   0  0  0  0  0  0  0  0  0  0  0  0
  135.0788  139.1300  161.1798 C   0  0  0  0  0  0  0  0  0  0  0  0
  133.7336  139.0376  161.4845 C   0  0  0  0  0  0  0  0  0  0  0  0
  133.2683  137.9822  162.2463 C   0  0  0  0  0  0  0  0  0  0  0  0
  129.4841  136.9487  161.3375 C   0  0  0  0  0  0  0  0  0  0  0  0
  128.9937  137.0931  162.7796 C   0  0  0  0  0  0  0  0  0  0  0  0
  128.6572  138.5363  163.0536 C   0  0  0  0  0  0  0  0  0  0  0  0
  129.6259  139.3898  163.5476 C   0  0  0  0  0  0  0  0  0  0  0  0
  129.3187  140.7150  163.7944 C   0  0  0  0  0  0  0  0  0  0  0  0
  128.0400  141.1838  163.5572 C   0  0  0  0  0  0  0  0  0  0  0  0
  127.0700  140.3288  163.0683 C   0  0  0  0  0  0  0  0  0  0  0  0
  127.3787  139.0052  162.8165 C   0  0  0  0  0  0  0  0  0  0  0  0
  130.6678  133.8575  157.8356 N   0  0  0  0  0  0  0  0  0  0  0  0
  131.0269  134.5120  157.2162 H   0  0  0  0  0  0  0  0  0  0  0  0
  130.7426  132.5476  155.0912 C   0  0  0  0  0  0  0  0  0  0  0  0
  131.0439  131.9047  153.9078 C   0  0  0  0  0  0  0  0  0  0  0  0
  130.0630  128.5363  152.7456 H   0  0  0  0  0  0  0  0  0  0  0  0
  129.7392  130.0423  151.8539 H   0  0  0  0  0  0  0  0  0  0  0  0
  130.7101  128.7539  151.1017 H   0  0  0  0  0  0  0  0  0  0  0  0
  132.4789  129.0916  152.8063 H   0  0  0  0  0  0  0  0  0  0  0  0
  132.1552  130.5977  151.9146 H   0  0  0  0  0  0  0  0  0  0  0  0
  131.7732  128.8353  155.1109 H   0  0  0  0  0  0  0  0  0  0  0  0
  131.2502  129.9671  157.2317 H   0  0  0  0  0  0  0  0  0  0  0  0
  129.7250  130.9131  158.8051 H   0  0  0  0  0  0  0  0  0  0  0  0
  130.6231  136.1215  159.1976 H   0  0  0  0  0  0  0  0  0  0  0  0
  130.6452  134.6010  162.9604 H   0  0  0  0  0  0  0  0  0  0  0  0
  132.4303  135.5918  160.7146 H   0  0  0  0  0  0  0  0  0  0  0  0
  132.8831  133.8772  163.2167 H   0  0  0  0  0  0  0  0  0  0  0  0
  134.1211  134.3886  162.0446 H   0  0  0  0  0  0  0  0  0  0  0  0
  132.7697  136.1894  164.1056 H   0  0  0  0  0  0  0  0  0  0  0  0
  134.4237  135.5417  164.2188 H   0  0  0  0  0  0  0  0  0  0  0  0
  136.1823  136.3640  162.7643 H   0  0  0  0  0  0  0  0  0  0  0  0
  137.0098  138.2391  161.3995 H   0  0  0  0  0  0  0  0  0  0  0  0
  135.4425  139.9547  160.5850 H   0  0  0  0  0  0  0  0  0  0  0  0
  133.0463  139.7903  161.1275 H   0  0  0  0  0  0  0  0  0  0  0  0
  132.2173  137.9102  162.4845 H   0  0  0  0  0  0  0  0  0  0  0  0
  130.3728  137.5628  161.1927 H   0  0  0  0  0  0  0  0  0  0  0  0
  128.7012  137.2756  160.6530 H   0  0  0  0  0  0  0  0  0  0  0  0
  128.1047  136.4791  162.9242 H   0  0  0  0  0  0  0  0  0  0  0  0
  129.7765  136.7661  163.4639 H   0  0  0  0  0  0  0  0  0  0  0  0
  130.6237  139.0226  163.7371 H   0  0  0  0  0  0  0  0  0  0  0  0
  130.0765  141.3827  164.1769 H   0  0  0  0  0  0  0  0  0  0  0  0
  127.7989  142.2178  163.7544 H   0  0  0  0  0  0  0  0  0  0  0  0
  126.0711  140.6950  162.8833 H   0  0  0  0  0  0  0  0  0  0  0  0
  126.6207  138.3371  162.4347 H   0  0  0  0  0  0  0  0  0  0  0  0
  130.4509  133.5875  155.0830 H   0  0  0  0  0  0  0  0  0  0  0  0
  130.9878  132.4423  152.9729 H   0  0  0  0  0  0  0  0  0  0  0  0
  1  2  1  0
  1 37  1  0
  1 38  1  0
  1 39  1  0
  2  3  1  0
  2 40  1  0
  2 41  1  0
  3 36  2  0
  3  4  1  0
  4  5  2  0
  4 42  1  0
  5  6  1  0
  5 43  1  0
  6  7  1  0
  6 35  2  0
  7 33  1  0
  7  8  2  0
  8  9  1  0
  8 44  1  0
  9 10  1  0
  9 11  1  0
 11 12  1  0
 11 33  2  0
 12 13  1  0
 12 45  1  0
 13 14  1  6
 13 15  1  0
 13 25  1  0
 15 16  2  0
 15 46  1  0
 16 17  1  0
 16 47  1  0
 17 18  1  0
 17 48  1  0
 17 49  1  0
 18 19  1  0
 18 50  1  0
 18 51  1  0
 19 24  1  0
 19 20  2  0
 20 21  1  0
 20 52  1  0
 21 22  2  0
 21 53  1  0
 22 23  1  0
 22 54  1  0
 23 24  2  0
 23 55  1  0
 24 56  1  0
 25 26  1  0
 25 57  1  0
 25 58  1  0
 26 27  1  0
 26 59  1  0
 26 60  1  0
 27 32  1  0
 27 28  2  0
 28 29  1  0
 28 61  1  0
 29 30  2  0
 29 62  1  0
 30 31  1  0
 30 63  1  0
 31 32  2  0
 31 64  1  0
 32 65  1  0
 33 34  1  0
 35 36  1  0
 35 66  1  0
 36 67  1  0
M  CHG  1  33   1
M  END
>  <DOCK_score>  (1) 
-56.38131

>  <SMILES>  (1) 
CCc1ccc(-c2c[nH]c(N[C@@H](C=CCCc3ccccc3)CCc3ccccc3)[nH+]2)cc1

$$$$
