CNC(=[NH2+])N[C@@H]1C[C@@H]1N[C@H]1c2ccccc2-c2ccc(-c3cccc(F)c3Br)cc21
     RDKit          3D

 53 57  0  0  1  0  0  0  0  0999 V2000
  131.2657  131.8429  154.0925 C   0  0  0  0  0  0  0  0  0  0  0  0
  131.4275  132.7717  155.2138 N   0  0  0  0  0  0  0  0  0  0  0  0
  130.8065  132.5156  156.4134 C   0  0  0  0  0  0  0  0  0  0  0  0
  130.0740  131.4467  156.5531 N   0  0  0  0  0  0  0  0  0  0  0  0
  129.9668  130.8318  155.8107 H   0  0  0  0  0  0  0  0  0  0  0  0
  129.6359  131.2661  157.3994 H   0  0  0  0  0  0  0  0  0  0  0  0
  130.9584  133.3873  157.4658 N   0  0  0  0  0  0  0  0  0  0  0  0
  130.3019  133.1113  158.7460 C   0  0  2  0  0  0  0  0  0  0  0  0
  130.8840  132.5235  159.4559 H   0  0  0  0  0  0  0  0  0  0  0  0
  128.7860  132.9044  158.7324 C   0  0  0  0  0  0  0  0  0  0  0  0
  129.3774  134.1905  159.3129 C   0  0  2  0  0  0  0  0  0  0  0  0
  129.3509  134.3125  160.3959 H   0  0  0  0  0  0  0  0  0  0  0  0
  129.2160  135.4242  158.5320 N   0  0  0  0  0  0  0  0  0  0  0  0
  128.3024  136.3573  159.2045 C   0  0  1  0  0  0  0  0  0  0  0  0
  127.9148  137.0833  158.4899 H   0  0  0  0  0  0  0  0  0  0  0  0
  127.1648  135.6002  159.8447 C   0  0  0  0  0  0  0  0  0  0  0  0
  126.1845  134.7847  159.3199 C   0  0  0  0  0  0  0  0  0  0  0  0
  125.2453  134.2054  160.1546 C   0  0  0  0  0  0  0  0  0  0  0  0
  125.2869  134.4436  161.5169 C   0  0  0  0  0  0  0  0  0  0  0  0
  126.2633  135.2584  162.0505 C   0  0  0  0  0  0  0  0  0  0  0  0
  127.2153  135.8456  161.2142 C   0  0  0  0  0  0  0  0  0  0  0  0
  128.3552  136.7468  161.5136 C   0  0  0  0  0  0  0  0  0  0  0  0
  128.8141  137.2750  162.7235 C   0  0  0  0  0  0  0  0  0  0  0  0
  129.9141  138.1022  162.7431 C   0  0  0  0  0  0  0  0  0  0  0  0
  130.5740  138.4180  161.5555 C   0  0  0  0  0  0  0  0  0  0  0  0
  131.7582  139.3105  161.5779 C   0  0  0  0  0  0  0  0  0  0  0  0
  131.6448  140.6112  162.0665 C   0  0  0  0  0  0  0  0  0  0  0  0
  132.7491  141.4383  162.0854 C   0  0  0  0  0  0  0  0  0  0  0  0
  133.9689  140.9804  161.6207 C   0  0  0  0  0  0  0  0  0  0  0  0
  134.0897  139.6894  161.1340 C   0  0  0  0  0  0  0  0  0  0  0  0
  135.2837  139.2476  160.6818 F   0  0  0  0  0  0  0  0  0  0  0  0
  132.9901  138.8499  161.1155 C   0  0  0  0  0  0  0  0  0  0  0  0
  133.1560  137.0846  160.4580 Br  0  0  0  0  0  0  0  0  0  0  0  0
  130.1172  137.8925  160.3472 C   0  0  0  0  0  0  0  0  0  0  0  0
  129.0177  137.0648  160.3297 C   0  0  0  0  0  0  0  0  0  0  0  0
  131.8269  132.2096  153.2330 H   0  0  0  0  0  0  0  0  0  0  0  0
  131.6397  130.8597  154.3780 H   0  0  0  0  0  0  0  0  0  0  0  0
  130.2100  131.7683  153.8319 H   0  0  0  0  0  0  0  0  0  0  0  0
  131.9726  133.5672  155.1099 H   0  0  0  0  0  0  0  0  0  0  0  0
  131.5036  134.1828  157.3618 H   0  0  0  0  0  0  0  0  0  0  0  0
  128.2772  132.9737  157.7709 H   0  0  0  0  0  0  0  0  0  0  0  0
  128.3706  132.1803  159.4333 H   0  0  0  0  0  0  0  0  0  0  0  0
  130.1091  135.8584  158.3532 H   0  0  0  0  0  0  0  0  0  0  0  0
  126.1500  134.5977  158.2569 H   0  0  0  0  0  0  0  0  0  0  0  0
  124.4784  133.5666  159.7421 H   0  0  0  0  0  0  0  0  0  0  0  0
  124.5518  133.9897  162.1649 H   0  0  0  0  0  0  0  0  0  0  0  0
  126.2917  135.4422  163.1144 H   0  0  0  0  0  0  0  0  0  0  0  0
  128.3056  137.0327  163.6448 H   0  0  0  0  0  0  0  0  0  0  0  0
  130.2667  138.5079  163.6798 H   0  0  0  0  0  0  0  0  0  0  0  0
  130.6936  140.9709  162.4303 H   0  0  0  0  0  0  0  0  0  0  0  0
  132.6607  142.4461  162.4637 H   0  0  0  0  0  0  0  0  0  0  0  0
  134.8301  141.6318  161.6376 H   0  0  0  0  0  0  0  0  0  0  0  0
  130.6257  138.1351  159.4257 H   0  0  0  0  0  0  0  0  0  0  0  0
  1  2  1  0
  1 36  1  0
  1 37  1  0
  1 38  1  0
  2  3  1  0
  2 39  1  0
  3  4  2  0
  3  7  1  0
  4  5  1  0
  4  6  1  0
  7  8  1  0
  7 40  1  0
  8  9  1  1
  8 11  1  0
  8 10  1  0
 10 11  1  0
 10 41  1  0
 10 42  1  0
 11 12  1  1
 11 13  1  0
 13 14  1  0
 13 43  1  0
 14 15  1  6
 14 35  1  0
 14 16  1  0
 16 21  1  0
 16 17  2  0
 17 18  1  0
 17 44  1  0
 18 19  2  0
 18 45  1  0
 19 20  1  0
 19 46  1  0
 20 21  2  0
 20 47  1  0
 21 22  1  0
 22 35  2  0
 22 23  1  0
 23 24  2  0
 23 48  1  0
 24 25  1  0
 24 49  1  0
 25 26  1  0
 25 34  2  0
 26 32  1  0
 26 27  2  0
 27 28  1  0
 27 50  1  0
 28 29  2  0
 28 51  1  0
 29 30  1  0
 29 52  1  0
 30 31  1  0
 30 32  2  0
 32 33  1  0
 34 35  1  0
 34 53  1  0
M  CHG  1   4   1
M  END
>  <DOCK_score>  (1) 
-57.011421

>  <SMILES>  (1) 
CNC(=[NH2+])N[C@@H]1C[C@@H]1N[C@H]1c2ccccc2-c2ccc(-c3cccc(F)c3Br)cc21

$$$$
