Cc1c(NC(Cn2cccn2)c2ccccc2)cccc1N1CC[NH+]([C@@H](c2ccccc2)C2CC2)CC1
     RDKit          3D

 75 80  0  0  1  0  0  0  0  0999 V2000
  132.5278  135.5730  164.0338 C   0  0  0  0  0  0  0  0  0  0  0  0
  133.4928  136.3604  163.1855 C   0  0  0  0  0  0  0  0  0  0  0  0
  134.5221  137.0743  163.7833 C   0  0  0  0  0  0  0  0  0  0  0  0
  134.6649  137.0639  165.1727 N   0  0  0  0  0  0  0  0  0  0  0  0
  135.9933  137.2076  165.7735 C   0  0  1  0  0  0  0  0  0  0  0  0
  135.8709  137.1636  167.2980 C   0  0  0  0  0  0  0  0  0  0  0  0
  137.1993  137.3073  167.8989 N   0  0  0  0  0  0  0  0  0  0  0  0
  138.0483  136.3019  168.1981 C   0  0  0  0  0  0  0  0  0  0  0  0
  139.1631  136.8496  168.7350 C   0  0  0  0  0  0  0  0  0  0  0  0
  138.9895  138.2372  168.7650 C   0  0  0  0  0  0  0  0  0  0  0  0
  137.8149  138.5130  168.2588 N   0  0  0  0  0  0  0  0  0  0  0  0
  136.8797  136.0812  165.3080 C   0  0  0  0  0  0  0  0  0  0  0  0
  138.2424  136.2790  165.1863 C   0  0  0  0  0  0  0  0  0  0  0  0
  139.0546  135.2479  164.7529 C   0  0  0  0  0  0  0  0  0  0  0  0
  138.5043  134.0183  164.4425 C   0  0  0  0  0  0  0  0  0  0  0  0
  137.1415  133.8205  164.5642 C   0  0  0  0  0  0  0  0  0  0  0  0
  136.3293  134.8519  164.9972 C   0  0  0  0  0  0  0  0  0  0  0  0
  135.4135  137.7947  162.9978 C   0  0  0  0  0  0  0  0  0  0  0  0
  135.2729  137.8054  161.6232 C   0  0  0  0  0  0  0  0  0  0  0  0
  134.2462  137.1007  161.0255 C   0  0  0  0  0  0  0  0  0  0  0  0
  133.3513  136.3777  161.8053 C   0  0  0  0  0  0  0  0  0  0  0  0
  132.3137  135.6649  161.2000 N   0  0  0  0  0  0  0  0  0  0  0  0
  132.8409  134.5972  160.3384 C   0  0  0  0  0  0  0  0  0  0  0  0
  131.6753  133.8046  159.7427 C   0  0  0  0  0  0  0  0  0  0  0  0
  130.8167  134.7067  158.9639 N   0  0  0  0  0  0  0  0  0  0  0  0
  131.3580  135.1328  158.2266 H   0  0  0  0  0  0  0  0  0  0  0  0
  129.7081  133.9418  158.3776 C   0  0  1  0  0  0  0  0  0  0  0  0
  129.0707  134.6108  157.7996 H   0  0  0  0  0  0  0  0  0  0  0  0
  130.2602  132.8691  157.4744 C   0  0  0  0  0  0  0  0  0  0  0  0
  130.4725  133.1356  156.1347 C   0  0  0  0  0  0  0  0  0  0  0  0
  130.9836  132.1532  155.3072 C   0  0  0  0  0  0  0  0  0  0  0  0
  131.2724  130.9008  155.8178 C   0  0  0  0  0  0  0  0  0  0  0  0
  131.0549  130.6332  157.1559 C   0  0  0  0  0  0  0  0  0  0  0  0
  130.5489  131.6172  157.9845 C   0  0  0  0  0  0  0  0  0  0  0  0
  128.8876  133.2948  159.4953 C   0  0  0  0  0  0  0  0  0  0  0  0
  127.3894  133.1030  159.2516 C   0  0  0  0  0  0  0  0  0  0  0  0
  127.8743  134.1759  160.2286 C   0  0  0  0  0  0  0  0  0  0  0  0
  130.2783  135.7532  159.8429 C   0  0  0  0  0  0  0  0  0  0  0  0
  131.4322  136.5620  160.4395 C   0  0  0  0  0  0  0  0  0  0  0  0
  131.6840  136.2065  164.3074 H   0  0  0  0  0  0  0  0  0  0  0  0
  132.1681  134.7118  163.4707 H   0  0  0  0  0  0  0  0  0  0  0  0
  133.0333  135.2312  164.9370 H   0  0  0  0  0  0  0  0  0  0  0  0
  133.8847  136.9615  165.7398 H   0  0  0  0  0  0  0  0  0  0  0  0
  136.4277  138.1605  165.4713 H   0  0  0  0  0  0  0  0  0  0  0  0
  135.2298  137.9781  167.6348 H   0  0  0  0  0  0  0  0  0  0  0  0
  135.4366  136.2106  167.6003 H   0  0  0  0  0  0  0  0  0  0  0  0
  137.8699  135.2489  168.0380 H   0  0  0  0  0  0  0  0  0  0  0  0
  140.0332  136.3105  169.0795 H   0  0  0  0  0  0  0  0  0  0  0  0
  139.7036  138.9568  169.1373 H   0  0  0  0  0  0  0  0  0  0  0  0
  138.6724  137.2395  165.4292 H   0  0  0  0  0  0  0  0  0  0  0  0
  140.1191  135.4024  164.6579 H   0  0  0  0  0  0  0  0  0  0  0  0
  139.1388  133.2125  164.1046 H   0  0  0  0  0  0  0  0  0  0  0  0
  136.7115  132.8600  164.3214 H   0  0  0  0  0  0  0  0  0  0  0  0
  135.2646  134.6972  165.0922 H   0  0  0  0  0  0  0  0  0  0  0  0
  136.2171  138.3469  163.4621 H   0  0  0  0  0  0  0  0  0  0  0  0
  135.9669  138.3664  161.0150 H   0  0  0  0  0  0  0  0  0  0  0  0
  134.1390  137.1112  159.9509 H   0  0  0  0  0  0  0  0  0  0  0  0
  133.4305  135.0368  159.5339 H   0  0  0  0  0  0  0  0  0  0  0  0
  133.4699  133.9309  160.9286 H   0  0  0  0  0  0  0  0  0  0  0  0
  131.0938  133.3539  160.5469 H   0  0  0  0  0  0  0  0  0  0  0  0
  132.0638  133.0211  159.0919 H   0  0  0  0  0  0  0  0  0  0  0  0
  130.2429  134.1124  155.7353 H   0  0  0  0  0  0  0  0  0  0  0  0
  131.1531  132.3624  154.2613 H   0  0  0  0  0  0  0  0  0  0  0  0
  131.6673  130.1323  155.1698 H   0  0  0  0  0  0  0  0  0  0  0  0
  131.2802  129.6549  157.5542 H   0  0  0  0  0  0  0  0  0  0  0  0
  130.3787  131.4078  159.0302 H   0  0  0  0  0  0  0  0  0  0  0  0
  129.4050  132.5318  160.0769 H   0  0  0  0  0  0  0  0  0  0  0  0
  126.9882  133.4378  158.2950 H   0  0  0  0  0  0  0  0  0  0  0  0
  126.9208  132.2135  159.6728 H   0  0  0  0  0  0  0  0  0  0  0  0
  127.7248  133.9924  161.2925 H   0  0  0  0  0  0  0  0  0  0  0  0
  127.7921  135.2166  159.9148 H   0  0  0  0  0  0  0  0  0  0  0  0
  129.7039  135.2923  160.6466 H   0  0  0  0  0  0  0  0  0  0  0  0
  129.6310  136.4141  159.2666 H   0  0  0  0  0  0  0  0  0  0  0  0
  131.0336  137.3290  161.1034 H   0  0  0  0  0  0  0  0  0  0  0  0
  131.9987  137.0339  159.6367 H   0  0  0  0  0  0  0  0  0  0  0  0
  1  2  1  0
  1 40  1  0
  1 41  1  0
  1 42  1  0
  2 21  2  0
  2  3  1  0
  3  4  1  0
  3 18  2  0
  4  5  1  0
  4 43  1  0
  5  6  1  0
  5 12  1  0
  5 44  1  1
  6  7  1  0
  6 45  1  0
  6 46  1  0
  7 11  1  0
  7  8  1  0
  8  9  2  0
  8 47  1  0
  9 10  1  0
  9 48  1  0
 10 11  2  0
 10 49  1  0
 12 17  1  0
 12 13  2  0
 13 14  1  0
 13 50  1  0
 14 15  2  0
 14 51  1  0
 15 16  1  0
 15 52  1  0
 16 17  2  0
 16 53  1  0
 17 54  1  0
 18 19  1  0
 18 55  1  0
 19 20  2  0
 19 56  1  0
 20 21  1  0
 20 57  1  0
 21 22  1  0
 22 39  1  0
 22 23  1  0
 23 24  1  0
 23 58  1  0
 23 59  1  0
 24 25  1  0
 24 60  1  0
 24 61  1  0
 25 26  1  0
 25 27  1  0
 25 38  1  0
 27 28  1  6
 27 29  1  0
 27 35  1  0
 29 34  1  0
 29 30  2  0
 30 31  1  0
 30 62  1  0
 31 32  2  0
 31 63  1  0
 32 33  1  0
 32 64  1  0
 33 34  2  0
 33 65  1  0
 34 66  1  0
 35 37  1  0
 35 36  1  0
 35 67  1  0
 36 37  1  0
 36 68  1  0
 36 69  1  0
 37 70  1  0
 37 71  1  0
 38 39  1  0
 38 72  1  0
 38 73  1  0
 39 74  1  0
 39 75  1  0
M  CHG  1  25   1
M  END
>  <DOCK_score>  (1) 
-55.967903

>  <SMILES>  (1) 
Cc1c(NC(Cn2cccn2)c2ccccc2)cccc1N1CC[NH+]([C@@H](c2ccccc2)C2CC2)CC1

$$$$
