CCc1ccc(C[C@@H]([NH3+])C(=O)Nc2cccc(O)c2)cc1
     RDKit          3D

 42 43  0  0  1  0  0  0  0  0999 V2000
  130.9691  135.9050  164.7692 C   0  0  0  0  0  0  0  0  0  0  0  0
  131.9592  134.7615  164.5388 C   0  0  0  0  0  0  0  0  0  0  0  0
  131.8422  134.2745  163.1175 C   0  0  0  0  0  0  0  0  0  0  0  0
  132.6218  134.8409  162.1264 C   0  0  0  0  0  0  0  0  0  0  0  0
  132.5141  134.3943  160.8226 C   0  0  0  0  0  0  0  0  0  0  0  0
  131.6268  133.3816  160.5098 C   0  0  0  0  0  0  0  0  0  0  0  0
  131.5092  132.8952  159.0883 C   0  0  0  0  0  0  0  0  0  0  0  0
  130.4445  133.7142  158.3556 C   0  0  1  0  0  0  0  0  0  0  0  0
  130.5253  134.7607  158.6492 H   0  0  0  0  0  0  0  0  0  0  0  0
  130.6476  133.5954  156.9055 N   0  0  0  0  0  0  0  0  0  0  0  0
  129.9456  134.1355  156.4223 H   0  0  0  0  0  0  0  0  0  0  0  0
  131.5639  133.9426  156.6647 H   0  0  0  0  0  0  0  0  0  0  0  0
  130.5730  132.6266  156.6336 H   0  0  0  0  0  0  0  0  0  0  0  0
  129.0760  133.1954  158.7153 C   0  0  0  0  0  0  0  0  0  0  0  0
  128.5667  132.3171  158.0518 O   0  0  0  0  0  0  0  0  0  0  0  0
  128.4182  133.7077  159.7742 N   0  0  0  0  0  0  0  0  0  0  0  0
  127.1476  133.2262  160.1081 C   0  0  0  0  0  0  0  0  0  0  0  0
  126.8078  131.9083  159.8293 C   0  0  0  0  0  0  0  0  0  0  0  0
  125.5538  131.4328  160.1597 C   0  0  0  0  0  0  0  0  0  0  0  0
  124.6358  132.2647  160.7724 C   0  0  0  0  0  0  0  0  0  0  0  0
  124.9676  133.5836  161.0480 C   0  0  0  0  0  0  0  0  0  0  0  0
  124.0621  134.4019  161.6459 O   0  0  0  0  0  0  0  0  0  0  0  0
  126.2254  134.0643  160.7184 C   0  0  0  0  0  0  0  0  0  0  0  0
  130.8435  132.8188  161.5000 C   0  0  0  0  0  0  0  0  0  0  0  0
  130.9548  133.2617  162.8048 C   0  0  0  0  0  0  0  0  0  0  0  0
  131.0538  136.2574  165.7972 H   0  0  0  0  0  0  0  0  0  0  0  0
  131.1936  136.7234  164.0851 H   0  0  0  0  0  0  0  0  0  0  0  0
  129.9547  135.5491  164.5895 H   0  0  0  0  0  0  0  0  0  0  0  0
  131.7347  133.9432  165.2230 H   0  0  0  0  0  0  0  0  0  0  0  0
  132.9736  135.1175  164.7186 H   0  0  0  0  0  0  0  0  0  0  0  0
  133.3148  135.6324  162.3706 H   0  0  0  0  0  0  0  0  0  0  0  0
  133.1229  134.8371  160.0482 H   0  0  0  0  0  0  0  0  0  0  0  0
  131.2234  131.8434  159.0867 H   0  0  0  0  0  0  0  0  0  0  0  0
  132.4683  133.0120  158.5838 H   0  0  0  0  0  0  0  0  0  0  0  0
  128.8255  134.4101  160.3048 H   0  0  0  0  0  0  0  0  0  0  0  0
  127.5248  131.2551  159.3542 H   0  0  0  0  0  0  0  0  0  0  0  0
  125.2915  130.4079  159.9425 H   0  0  0  0  0  0  0  0  0  0  0  0
  123.6575  131.8889  161.0337 H   0  0  0  0  0  0  0  0  0  0  0  0
  124.3841  135.3011  161.7970 H   0  0  0  0  0  0  0  0  0  0  0  0
  126.4869  135.0894  160.9359 H   0  0  0  0  0  0  0  0  0  0  0  0
  130.1470  132.0306  161.2550 H   0  0  0  0  0  0  0  0  0  0  0  0
  130.3455  132.8195  163.5791 H   0  0  0  0  0  0  0  0  0  0  0  0
  1  2  1  0
  1 26  1  0
  1 27  1  0
  1 28  1  0
  2  3  1  0
  2 29  1  0
  2 30  1  0
  3 25  2  0
  3  4  1  0
  4  5  2  0
  4 31  1  0
  5  6  1  0
  5 32  1  0
  6  7  1  0
  6 24  2  0
  7  8  1  0
  7 33  1  0
  7 34  1  0
  8  9  1  1
  8 10  1  0
  8 14  1  0
 10 11  1  0
 10 12  1  0
 10 13  1  0
 14 15  2  0
 14 16  1  0
 16 17  1  0
 16 35  1  0
 17 23  1  0
 17 18  2  0
 18 19  1  0
 18 36  1  0
 19 20  2  0
 19 37  1  0
 20 21  1  0
 20 38  1  0
 21 22  1  0
 21 23  2  0
 22 39  1  0
 23 40  1  0
 24 25  1  0
 24 41  1  0
 25 42  1  0
M  CHG  1  10   1
M  END
>  <DOCK_score>  (1) 
-43.126457

>  <SMILES>  (1) 
CCc1ccc(C[C@@H]([NH3+])C(=O)Nc2cccc(O)c2)cc1

$$$$
