N#Cc1cccc([C@@H](O)C[NH+]=C(NC2CC=CC2)N[C@@H]2C[C@H](O)C[C@H](O)C2)c1
     RDKit          3D

 57 59  0  0  1  0  0  0  0  0999 V2000
  129.9168  131.8189  153.0086 N   0  0  0  0  0  0  0  0  0  0  0  0
  130.1511  131.6958  154.1133 C   0  0  0  0  0  0  0  0  0  0  0  0
  130.4465  131.5405  155.5059 C   0  0  0  0  0  0  0  0  0  0  0  0
  131.3996  130.6082  155.9211 C   0  0  0  0  0  0  0  0  0  0  0  0
  131.6796  130.4643  157.2640 C   0  0  0  0  0  0  0  0  0  0  0  0
  131.0222  131.2448  158.1986 C   0  0  0  0  0  0  0  0  0  0  0  0
  130.0731  132.1667  157.7947 C   0  0  0  0  0  0  0  0  0  0  0  0
  129.3585  133.0085  158.8203 C   0  0  1  0  0  0  0  0  0  0  0  0
  128.3591  133.2507  158.4590 H   0  0  0  0  0  0  0  0  0  0  0  0
  129.2586  132.2823  160.0469 O   0  0  0  0  0  0  0  0  0  0  0  0
  130.1429  134.3010  159.0553 C   0  0  0  0  0  0  0  0  0  0  0  0
  129.4484  135.1193  160.0523 N   0  0  0  0  0  0  0  0  0  0  0  0
  128.6207  134.8035  160.4476 H   0  0  0  0  0  0  0  0  0  0  0  0
  129.9423  136.2718  160.4081 C   0  0  0  0  0  0  0  0  0  0  0  0
  131.1153  136.7195  159.8477 N   0  0  0  0  0  0  0  0  0  0  0  0
  131.6706  138.0148  160.2477 C   0  0  0  0  0  0  0  0  0  0  0  0
  133.0798  138.2243  159.6465 C   0  0  0  0  0  0  0  0  0  0  0  0
  133.8558  138.9401  160.7284 C   0  0  0  0  0  0  0  0  0  0  0  0
  133.2537  138.8417  161.8824 C   0  0  0  0  0  0  0  0  0  0  0  0
  131.9763  138.0435  161.7632 C   0  0  0  0  0  0  0  0  0  0  0  0
  129.2905  137.0399  161.3437 N   0  0  0  0  0  0  0  0  0  0  0  0
  128.4906  136.3979  162.3897 C   0  0  2  0  0  0  0  0  0  0  0  0
  128.9126  135.4198  162.6210 H   0  0  0  0  0  0  0  0  0  0  0  0
  127.0511  136.2292  161.8996 C   0  0  0  0  0  0  0  0  0  0  0  0
  126.2156  135.5587  162.9921 C   0  0  2  0  0  0  0  0  0  0  0  0
  126.6376  134.5806  163.2233 H   0  0  0  0  0  0  0  0  0  0  0  0
  124.8711  135.4013  162.5342 O   0  0  0  0  0  0  0  0  0  0  0  0
  126.2275  136.4296  164.2500 C   0  0  0  0  0  0  0  0  0  0  0  0
  127.6670  136.5981  164.7400 C   0  0  2  0  0  0  0  0  0  0  0  0
  128.0890  135.6201  164.9712 H   0  0  0  0  0  0  0  0  0  0  0  0
  127.6780  137.4116  165.9149 O   0  0  0  0  0  0  0  0  0  0  0  0
  128.5024  137.2687  163.6476 C   0  0  0  0  0  0  0  0  0  0  0  0
  129.7832  132.3210  156.4547 C   0  0  0  0  0  0  0  0  0  0  0  0
  131.9161  130.0010  155.1924 H   0  0  0  0  0  0  0  0  0  0  0  0
  132.4168  129.7439  157.5864 H   0  0  0  0  0  0  0  0  0  0  0  0
  131.2485  131.1312  159.2486 H   0  0  0  0  0  0  0  0  0  0  0  0
  128.8086  132.7647  160.7541 H   0  0  0  0  0  0  0  0  0  0  0  0
  130.2190  134.8550  158.1197 H   0  0  0  0  0  0  0  0  0  0  0  0
  131.1424  134.0588  159.4165 H   0  0  0  0  0  0  0  0  0  0  0  0
  131.5731  136.1794  159.1847 H   0  0  0  0  0  0  0  0  0  0  0  0
  131.0009  138.8282  159.9681 H   0  0  0  0  0  0  0  0  0  0  0  0
  133.5424  137.2638  159.4197 H   0  0  0  0  0  0  0  0  0  0  0  0
  133.0220  138.8402  158.7490 H   0  0  0  0  0  0  0  0  0  0  0  0
  134.7860  139.4647  160.5675 H   0  0  0  0  0  0  0  0  0  0  0  0
  133.6203  139.2744  162.8015 H   0  0  0  0  0  0  0  0  0  0  0  0
  131.1687  138.5367  162.3042 H   0  0  0  0  0  0  0  0  0  0  0  0
  132.1244  137.0315  162.1400 H   0  0  0  0  0  0  0  0  0  0  0  0
  129.3604  138.0068  161.3113 H   0  0  0  0  0  0  0  0  0  0  0  0
  126.6291  137.2073  161.6684 H   0  0  0  0  0  0  0  0  0  0  0  0
  127.0426  135.6088  161.0035 H   0  0  0  0  0  0  0  0  0  0  0  0
  124.4323  136.2332  162.3096 H   0  0  0  0  0  0  0  0  0  0  0  0
  125.8055  137.4077  164.0187 H   0  0  0  0  0  0  0  0  0  0  0  0
  125.6322  135.9518  165.0282 H   0  0  0  0  0  0  0  0  0  0  0  0
  128.5603  137.5610  166.2815 H   0  0  0  0  0  0  0  0  0  0  0  0
  129.5280  137.3888  163.9968 H   0  0  0  0  0  0  0  0  0  0  0  0
  128.0804  138.2467  163.4165 H   0  0  0  0  0  0  0  0  0  0  0  0
  129.0447  133.0437  156.1404 H   0  0  0  0  0  0  0  0  0  0  0  0
  1  2  3  0
  2  3  1  0
  3 33  2  0
  3  4  1  0
  4  5  2  0
  4 34  1  0
  5  6  1  0
  5 35  1  0
  6  7  2  0
  6 36  1  0
  7  8  1  0
  7 33  1  0
  8  9  1  6
  8 10  1  0
  8 11  1  0
 10 37  1  0
 11 12  1  0
 11 38  1  0
 11 39  1  0
 12 13  1  0
 14 12  2  0
 14 15  1  0
 14 21  1  0
 15 16  1  0
 15 40  1  0
 16 20  1  0
 16 17  1  0
 16 41  1  0
 17 18  1  0
 17 42  1  0
 17 43  1  0
 18 19  2  0
 18 44  1  0
 19 20  1  0
 19 45  1  0
 20 46  1  0
 20 47  1  0
 21 22  1  0
 21 48  1  0
 22 23  1  1
 22 32  1  0
 22 24  1  0
 24 25  1  0
 24 49  1  0
 24 50  1  0
 25 26  1  1
 25 27  1  0
 25 28  1  0
 27 51  1  0
 28 29  1  0
 28 52  1  0
 28 53  1  0
 29 30  1  1
 29 31  1  0
 29 32  1  0
 31 54  1  0
 32 55  1  0
 32 56  1  0
 33 57  1  0
M  CHG  1  12   1
M  END
>  <DOCK_score>  (1) 
-41.372417

>  <SMILES>  (1) 
N#Cc1cccc([C@@H](O)C[NH+]=C(NC2CC=CC2)N[C@@H]2C[C@H](O)C[C@H](O)C2)c1

$$$$
