Oc1ccc(Nc2[nH]cc(Sc3ccc(O)cc3)[nH+]2)cc1
     RDKit          3D

 35 37  0  0  1  0  0  0  0  0999 V2000
  130.8895  135.2274  165.4715 O   0  0  0  0  0  0  0  0  0  0  0  0
  131.0639  135.1422  164.1256 C   0  0  0  0  0  0  0  0  0  0  0  0
  131.4126  133.9303  163.5470 C   0  0  0  0  0  0  0  0  0  0  0  0
  131.5899  133.8430  162.1803 C   0  0  0  0  0  0  0  0  0  0  0  0
  131.4189  134.9686  161.3851 C   0  0  0  0  0  0  0  0  0  0  0  0
  131.5988  134.8813  159.9994 N   0  0  0  0  0  0  0  0  0  0  0  0
  130.8120  134.0204  159.2517 C   0  0  0  0  0  0  0  0  0  0  0  0
  130.8913  133.8394  157.9063 N   0  0  0  0  0  0  0  0  0  0  0  0
  131.5031  134.2847  157.2993 H   0  0  0  0  0  0  0  0  0  0  0  0
  129.9352  132.9007  157.5676 C   0  0  0  0  0  0  0  0  0  0  0  0
  129.3131  132.5470  158.7126 C   0  0  0  0  0  0  0  0  0  0  0  0
  128.0045  131.3761  158.8583 S   0  0  0  0  0  0  0  0  0  0  0  0
  126.6888  132.3340  159.5334 C   0  0  0  0  0  0  0  0  0  0  0  0
  126.5991  133.6909  159.2480 C   0  0  0  0  0  0  0  0  0  0  0  0
  125.5653  134.4397  159.7746 C   0  0  0  0  0  0  0  0  0  0  0  0
  124.6219  133.8403  160.5952 C   0  0  0  0  0  0  0  0  0  0  0  0
  123.6068  134.5794  161.1175 O   0  0  0  0  0  0  0  0  0  0  0  0
  124.7131  132.4861  160.8852 C   0  0  0  0  0  0  0  0  0  0  0  0
  125.7434  131.7344  160.3564 C   0  0  0  0  0  0  0  0  0  0  0  0
  129.8694  133.2388  159.7243 N   0  0  0  0  0  0  0  0  0  0  0  0
  129.6118  133.1721  160.6572 H   0  0  0  0  0  0  0  0  0  0  0  0
  131.0750  136.1824  161.9658 C   0  0  0  0  0  0  0  0  0  0  0  0
  130.8936  136.2668  163.3322 C   0  0  0  0  0  0  0  0  0  0  0  0
  130.6485  136.1105  165.7818 H   0  0  0  0  0  0  0  0  0  0  0  0
  131.5459  133.0551  164.1656 H   0  0  0  0  0  0  0  0  0  0  0  0
  131.8615  132.8998  161.7299 H   0  0  0  0  0  0  0  0  0  0  0  0
  132.2744  135.4236  159.5629 H   0  0  0  0  0  0  0  0  0  0  0  0
  129.7258  132.5230  156.5777 H   0  0  0  0  0  0  0  0  0  0  0  0
  127.3360  134.1590  158.6122 H   0  0  0  0  0  0  0  0  0  0  0  0
  125.4936  135.4937  159.5502 H   0  0  0  0  0  0  0  0  0  0  0  0
  123.6267  135.5113  160.8603 H   0  0  0  0  0  0  0  0  0  0  0  0
  123.9780  132.0202  161.5248 H   0  0  0  0  0  0  0  0  0  0  0  0
  125.8147  130.6808  160.5823 H   0  0  0  0  0  0  0  0  0  0  0  0
  130.9459  137.0593  161.3485 H   0  0  0  0  0  0  0  0  0  0  0  0
  130.6228  137.2098  163.7836 H   0  0  0  0  0  0  0  0  0  0  0  0
  1  2  1  0
  1 24  1  0
  2 23  2  0
  2  3  1  0
  3  4  2  0
  3 25  1  0
  4  5  1  0
  4 26  1  0
  5  6  1  0
  5 22  2  0
  6 27  1  0
  7  6  1  0
  7 20  2  0
  7  8  1  0
  8  9  1  0
  8 10  1  0
 10 11  2  0
 10 28  1  0
 11 12  1  0
 11 20  1  0
 12 13  1  0
 13 19  1  0
 13 14  2  0
 14 15  1  0
 14 29  1  0
 15 16  2  0
 15 30  1  0
 16 17  1  0
 16 18  1  0
 17 31  1  0
 18 19  2  0
 18 32  1  0
 19 33  1  0
 20 21  1  0
 22 23  1  0
 22 34  1  0
 23 35  1  0
M  CHG  1  20   1
M  END
>  <DOCK_score>  (1) 
-45.403572

>  <SMILES>  (1) 
Oc1ccc(Nc2[nH]cc(Sc3ccc(O)cc3)[nH+]2)cc1

$$$$
