OC1CNC(=[NH+][C@H](c2c[nH]c3ccccc23)C(F)(F)F)NC1
     RDKit          3D

 38 40  0  0  1  0  0  0  0  0999 V2000
  128.7116  130.8363  157.8353 O   0  0  0  0  0  0  0  0  0  0  0  0
  129.5842  131.7374  158.5201 C   0  0  0  0  0  0  0  0  0  0  0  0
  130.2755  132.6529  157.5033 C   0  0  0  0  0  0  0  0  0  0  0  0
  131.0895  133.6376  158.2340 N   0  0  0  0  0  0  0  0  0  0  0  0
  130.4794  134.3266  159.2710 C   0  0  0  0  0  0  0  0  0  0  0  0
  130.6560  135.6066  159.4419 N   0  0  0  0  0  0  0  0  0  0  0  0
  131.2270  136.1028  158.8347 H   0  0  0  0  0  0  0  0  0  0  0  0
  129.9920  136.2960  160.5510 C   0  0  2  0  0  0  0  0  0  0  0  0
  130.3132  135.8575  161.4958 H   0  0  0  0  0  0  0  0  0  0  0  0
  128.4986  136.1500  160.4113 C   0  0  0  0  0  0  0  0  0  0  0  0
  127.6025  136.1177  161.4103 C   0  0  0  0  0  0  0  0  0  0  0  0
  126.3408  135.9751  160.9006 N   0  0  0  0  0  0  0  0  0  0  0  0
  125.5286  135.9264  161.4287 H   0  0  0  0  0  0  0  0  0  0  0  0
  126.3956  135.9105  159.5263 C   0  0  0  0  0  0  0  0  0  0  0  0
  125.4298  135.7714  158.5346 C   0  0  0  0  0  0  0  0  0  0  0  0
  125.8084  135.7397  157.2106 C   0  0  0  0  0  0  0  0  0  0  0  0
  127.1459  135.8459  156.8537 C   0  0  0  0  0  0  0  0  0  0  0  0
  128.1107  135.9832  157.8113 C   0  0  0  0  0  0  0  0  0  0  0  0
  127.7494  136.0172  159.1595 C   0  0  0  0  0  0  0  0  0  0  0  0
  130.3641  137.7799  160.5249 C   0  0  0  0  0  0  0  0  0  0  0  0
  129.9519  138.3427  159.3123 F   0  0  0  0  0  0  0  0  0  0  0  0
  129.7301  138.4382  161.5840 F   0  0  0  0  0  0  0  0  0  0  0  0
  131.7504  137.9153  160.6546 F   0  0  0  0  0  0  0  0  0  0  0  0
  129.6760  133.5808  160.1201 N   0  0  0  0  0  0  0  0  0  0  0  0
  128.7725  132.5938  159.4988 C   0  0  0  0  0  0  0  0  0  0  0  0
  129.1590  130.2653  157.1959 H   0  0  0  0  0  0  0  0  0  0  0  0
  130.3355  131.1699  159.0693 H   0  0  0  0  0  0  0  0  0  0  0  0
  129.5242  133.1700  156.9066 H   0  0  0  0  0  0  0  0  0  0  0  0
  130.9168  132.0604  156.8507 H   0  0  0  0  0  0  0  0  0  0  0  0
  132.0169  133.7981  157.9994 H   0  0  0  0  0  0  0  0  0  0  0  0
  127.8421  136.1928  162.4607 H   0  0  0  0  0  0  0  0  0  0  0  0
  124.3867  135.6888  158.8020 H   0  0  0  0  0  0  0  0  0  0  0  0
  125.0573  135.6316  156.4422 H   0  0  0  0  0  0  0  0  0  0  0  0
  127.4263  135.8150  155.8112 H   0  0  0  0  0  0  0  0  0  0  0  0
  129.1493  136.0649  157.5263 H   0  0  0  0  0  0  0  0  0  0  0  0
  129.7069  133.7054  161.0816 H   0  0  0  0  0  0  0  0  0  0  0  0
  127.9769  133.1093  158.9608 H   0  0  0  0  0  0  0  0  0  0  0  0
  128.3395  131.9569  160.2701 H   0  0  0  0  0  0  0  0  0  0  0  0
  1  2  1  0
  1 26  1  0
  2 25  1  0
  2  3  1  0
  2 27  1  0
  3  4  1  0
  3 28  1  0
  3 29  1  0
  4  5  1  0
  4 30  1  0
  5  6  2  0
  5 24  1  0
  6  7  1  0
  6  8  1  0
  8  9  1  1
  8 10  1  0
  8 20  1  0
 10 19  1  0
 10 11  2  0
 11 12  1  0
 11 31  1  0
 12 13  1  0
 12 14  1  0
 14 19  2  0
 14 15  1  0
 15 16  2  0
 15 32  1  0
 16 17  1  0
 16 33  1  0
 17 18  2  0
 17 34  1  0
 18 19  1  0
 18 35  1  0
 20 21  1  0
 20 22  1  0
 20 23  1  0
 24 25  1  0
 24 36  1  0
 25 37  1  0
 25 38  1  0
M  CHG  1   6   1
M  END
>  <DOCK_score>  (1) 
-44.113899

>  <SMILES>  (1) 
OC1CNC(=[NH+][C@H](c2c[nH]c3ccccc23)C(F)(F)F)NC1

$$$$
