CC=C[C@H](Nc1[nH]cc(-c2ccc(F)cc2)[nH+]1)c1ccccc1
     RDKit          3D

 42 44  0  0  1  0  0  0  0  0999 V2000
  130.2764  138.1673  161.6085 C   0  0  0  0  0  0  0  0  0  0  0  0
  129.8646  136.8326  161.0430 C   0  0  0  0  0  0  0  0  0  0  0  0
  129.6791  136.6966  159.7534 C   0  0  0  0  0  0  0  0  0  0  0  0
  129.2672  135.3619  159.1879 C   0  0  2  0  0  0  0  0  0  0  0  0
  129.1739  134.6376  159.9971 H   0  0  0  0  0  0  0  0  0  0  0  0
  130.2804  134.9016  158.2351 N   0  0  0  0  0  0  0  0  0  0  0  0
  130.1184  133.6910  157.5834 C   0  0  0  0  0  0  0  0  0  0  0  0
  129.4597  132.6071  158.0766 N   0  0  0  0  0  0  0  0  0  0  0  0
  129.0234  132.5441  158.9407 H   0  0  0  0  0  0  0  0  0  0  0  0
  129.5275  131.6182  157.1250 C   0  0  0  0  0  0  0  0  0  0  0  0
  130.2250  132.1260  156.0790 C   0  0  0  0  0  0  0  0  0  0  0  0
  130.5492  131.4147  154.8181 C   0  0  0  0  0  0  0  0  0  0  0  0
  130.0961  131.9131  153.5980 C   0  0  0  0  0  0  0  0  0  0  0  0
  130.4051  131.2514  152.4273 C   0  0  0  0  0  0  0  0  0  0  0  0
  131.1546  130.0866  152.4645 C   0  0  0  0  0  0  0  0  0  0  0  0
  131.4505  129.4393  151.3163 F   0  0  0  0  0  0  0  0  0  0  0  0
  131.6023  129.5846  153.6755 C   0  0  0  0  0  0  0  0  0  0  0  0
  131.3032  130.2429  154.8507 C   0  0  0  0  0  0  0  0  0  0  0  0
  130.5695  133.4015  156.3872 N   0  0  0  0  0  0  0  0  0  0  0  0
  131.0716  134.0024  155.8149 H   0  0  0  0  0  0  0  0  0  0  0  0
  127.9422  135.5019  158.4836 C   0  0  0  0  0  0  0  0  0  0  0  0
  126.7649  135.3037  159.1803 C   0  0  0  0  0  0  0  0  0  0  0  0
  125.5494  135.4365  158.5354 C   0  0  0  0  0  0  0  0  0  0  0  0
  125.5116  135.7583  157.1915 C   0  0  0  0  0  0  0  0  0  0  0  0
  126.6891  135.9512  156.4936 C   0  0  0  0  0  0  0  0  0  0  0  0
  127.9044  135.8228  157.1396 C   0  0  0  0  0  0  0  0  0  0  0  0
  130.3815  138.0867  162.6906 H   0  0  0  0  0  0  0  0  0  0  0  0
  131.2289  138.4683  161.1724 H   0  0  0  0  0  0  0  0  0  0  0  0
  129.5167  138.9122  161.3719 H   0  0  0  0  0  0  0  0  0  0  0  0
  129.7223  135.9879  161.7011 H   0  0  0  0  0  0  0  0  0  0  0  0
  129.8214  137.5412  159.0956 H   0  0  0  0  0  0  0  0  0  0  0  0
  131.0647  135.4451  158.0609 H   0  0  0  0  0  0  0  0  0  0  0  0
  129.1055  130.6266  157.1962 H   0  0  0  0  0  0  0  0  0  0  0  0
  129.5080  132.8185  153.5685 H   0  0  0  0  0  0  0  0  0  0  0  0
  130.0584  131.6395  151.4809 H   0  0  0  0  0  0  0  0  0  0  0  0
  132.1862  128.6763  153.6999 H   0  0  0  0  0  0  0  0  0  0  0  0
  131.6528  129.8509  155.7943 H   0  0  0  0  0  0  0  0  0  0  0  0
  126.7945  135.0486  160.2294 H   0  0  0  0  0  0  0  0  0  0  0  0
  124.6295  135.2860  159.0808 H   0  0  0  0  0  0  0  0  0  0  0  0
  124.5620  135.8594  156.6870 H   0  0  0  0  0  0  0  0  0  0  0  0
  126.6595  136.2028  155.4437 H   0  0  0  0  0  0  0  0  0  0  0  0
  128.8244  135.9737  156.5943 H   0  0  0  0  0  0  0  0  0  0  0  0
  1  2  1  0
  1 27  1  0
  1 28  1  0
  1 29  1  0
  2  3  2  0
  2 30  1  0
  3  4  1  0
  3 31  1  0
  4  5  1  1
  4  6  1  0
  4 21  1  0
  6 32  1  0
  7  6  1  0
  7 19  2  0
  7  8  1  0
  8  9  1  0
  8 10  1  0
 10 11  2  0
 10 33  1  0
 11 12  1  0
 11 19  1  0
 12 18  1  0
 12 13  2  0
 13 14  1  0
 13 34  1  0
 14 15  2  0
 14 35  1  0
 15 16  1  0
 15 17  1  0
 17 18  2  0
 17 36  1  0
 18 37  1  0
 19 20  1  0
 21 26  1  0
 21 22  2  0
 22 23  1  0
 22 38  1  0
 23 24  2  0
 23 39  1  0
 24 25  1  0
 24 40  1  0
 25 26  2  0
 25 41  1  0
 26 42  1  0
M  CHG  1  19   1
M  END
>  <DOCK_score>  (1) 
-57.204315

>  <SMILES>  (1) 
CC=C[C@H](Nc1[nH]cc(-c2ccc(F)cc2)[nH+]1)c1ccccc1

$$$$
