Cc1cccc(N2CC[NH+](C(c3ccccc3)c3ccccc3)CC2)c1C[C@H]1CCc2ccccc2C1
     RDKit          3D

 76 81  0  0  1  0  0  0  0  0999 V2000
  135.6590  141.0166  162.9713 C   0  0  0  0  0  0  0  0  0  0  0  0
  135.1196  140.3682  161.7224 C   0  0  0  0  0  0  0  0  0  0  0  0
  135.5452  140.8017  160.4799 C   0  0  0  0  0  0  0  0  0  0  0  0
  135.0485  140.2134  159.3315 C   0  0  0  0  0  0  0  0  0  0  0  0
  134.1295  139.1863  159.4218 C   0  0  0  0  0  0  0  0  0  0  0  0
  133.7043  138.7446  160.6680 C   0  0  0  0  0  0  0  0  0  0  0  0
  132.7753  137.7058  160.7631 N   0  0  0  0  0  0  0  0  0  0  0  0
  133.3239  136.4571  160.2155 C   0  0  0  0  0  0  0  0  0  0  0  0
  132.3004  135.3332  160.3923 C   0  0  0  0  0  0  0  0  0  0  0  0
  131.0570  135.6889  159.6958 N   0  0  0  0  0  0  0  0  0  0  0  0
  131.2495  135.8305  158.7156 H   0  0  0  0  0  0  0  0  0  0  0  0
  130.0813  134.6018  159.8509 C   0  0  0  0  0  0  0  0  0  0  0  0
  128.8054  134.9663  159.1366 C   0  0  0  0  0  0  0  0  0  0  0  0
  127.5943  134.4830  159.5953 C   0  0  0  0  0  0  0  0  0  0  0  0
  126.4235  134.8209  158.9426 C   0  0  0  0  0  0  0  0  0  0  0  0
  126.4646  135.6347  157.8263 C   0  0  0  0  0  0  0  0  0  0  0  0
  127.6764  136.1137  157.3642 C   0  0  0  0  0  0  0  0  0  0  0  0
  128.8467  135.7793  158.0194 C   0  0  0  0  0  0  0  0  0  0  0  0
  130.6433  133.3344  159.2603 C   0  0  0  0  0  0  0  0  0  0  0  0
  130.4151  133.0309  157.9312 C   0  0  0  0  0  0  0  0  0  0  0  0
  130.9342  131.8704  157.3883 C   0  0  0  0  0  0  0  0  0  0  0  0
  131.6746  131.0090  158.1772 C   0  0  0  0  0  0  0  0  0  0  0  0
  131.8976  131.3099  159.5074 C   0  0  0  0  0  0  0  0  0  0  0  0
  131.3820  132.4725  160.0492 C   0  0  0  0  0  0  0  0  0  0  0  0
  130.5084  136.9246  160.2701 C   0  0  0  0  0  0  0  0  0  0  0  0
  131.5170  138.0617  160.0923 C   0  0  0  0  0  0  0  0  0  0  0  0
  134.2054  139.3380  161.8200 C   0  0  0  0  0  0  0  0  0  0  0  0
  133.7470  138.8620  163.1745 C   0  0  0  0  0  0  0  0  0  0  0  0
  134.9521  138.3631  163.9742 C   0  0  1  0  0  0  0  0  0  0  0  0
  135.6702  139.1735  164.0998 H   0  0  0  0  0  0  0  0  0  0  0  0
  134.4901  137.8639  165.3483 C   0  0  0  0  0  0  0  0  0  0  0  0
  135.7261  137.6015  166.2064 C   0  0  0  0  0  0  0  0  0  0  0  0
  136.7066  136.7279  165.4684 C   0  0  0  0  0  0  0  0  0  0  0  0
  137.6897  136.0875  166.2119 C   0  0  0  0  0  0  0  0  0  0  0  0
  138.6204  135.2784  165.5942 C   0  0  0  0  0  0  0  0  0  0  0  0
  138.5756  135.1029  164.2236 C   0  0  0  0  0  0  0  0  0  0  0  0
  137.5989  135.7363  163.4836 C   0  0  0  0  0  0  0  0  0  0  0  0
  136.6590  136.5494  164.1041 C   0  0  0  0  0  0  0  0  0  0  0  0
  135.6127  137.1997  163.2374 C   0  0  0  0  0  0  0  0  0  0  0  0
  136.6119  140.5584  163.2361 H   0  0  0  0  0  0  0  0  0  0  0  0
  135.8052  142.0820  162.7934 H   0  0  0  0  0  0  0  0  0  0  0  0
  134.9502  140.8785  163.7876 H   0  0  0  0  0  0  0  0  0  0  0  0
  136.2637  141.6047  160.4065 H   0  0  0  0  0  0  0  0  0  0  0  0
  135.3793  140.5576  158.3627 H   0  0  0  0  0  0  0  0  0  0  0  0
  133.7422  138.7268  158.5244 H   0  0  0  0  0  0  0  0  0  0  0  0
  133.5398  136.5888  159.1552 H   0  0  0  0  0  0  0  0  0  0  0  0
  134.2414  136.2000  160.7446 H   0  0  0  0  0  0  0  0  0  0  0  0
  132.0950  135.1925  161.4535 H   0  0  0  0  0  0  0  0  0  0  0  0
  132.6996  134.4093  159.9739 H   0  0  0  0  0  0  0  0  0  0  0  0
  129.8737  134.4483  160.9100 H   0  0  0  0  0  0  0  0  0  0  0  0
  127.5625  133.8443  160.4655 H   0  0  0  0  0  0  0  0  0  0  0  0
  125.4768  134.4469  159.3036 H   0  0  0  0  0  0  0  0  0  0  0  0
  125.5505  135.8964  157.3141 H   0  0  0  0  0  0  0  0  0  0  0  0
  127.7086  136.7494  156.4917 H   0  0  0  0  0  0  0  0  0  0  0  0
  129.7935  136.1536  157.6586 H   0  0  0  0  0  0  0  0  0  0  0  0
  129.8342  133.7020  157.3160 H   0  0  0  0  0  0  0  0  0  0  0  0
  130.7597  131.6354  156.3487 H   0  0  0  0  0  0  0  0  0  0  0  0
  132.0767  130.1007  157.7536 H   0  0  0  0  0  0  0  0  0  0  0  0
  132.4754  130.6369  160.1234 H   0  0  0  0  0  0  0  0  0  0  0  0
  131.5569  132.7076  161.0887 H   0  0  0  0  0  0  0  0  0  0  0  0
  130.3121  136.7758  161.3319 H   0  0  0  0  0  0  0  0  0  0  0  0
  129.5791  137.1803  159.7613 H   0  0  0  0  0  0  0  0  0  0  0  0
  131.1163  138.9751  160.5317 H   0  0  0  0  0  0  0  0  0  0  0  0
  131.7032  138.2202  159.0301 H   0  0  0  0  0  0  0  0  0  0  0  0
  133.0313  138.0492  163.0508 H   0  0  0  0  0  0  0  0  0  0  0  0
  133.2728  139.6858  163.7078 H   0  0  0  0  0  0  0  0  0  0  0  0
  133.9213  136.9415  165.2321 H   0  0  0  0  0  0  0  0  0  0  0  0
  133.8678  138.6222  165.8234 H   0  0  0  0  0  0  0  0  0  0  0  0
  135.4246  137.1040  167.1282 H   0  0  0  0  0  0  0  0  0  0  0  0
  136.2030  138.5508  166.4497 H   0  0  0  0  0  0  0  0  0  0  0  0
  137.7258  136.2247  167.2826 H   0  0  0  0  0  0  0  0  0  0  0  0
  139.3814  134.7834  166.1792 H   0  0  0  0  0  0  0  0  0  0  0  0
  139.3028  134.4724  163.7338 H   0  0  0  0  0  0  0  0  0  0  0  0
  137.5646  135.5989  162.4128 H   0  0  0  0  0  0  0  0  0  0  0  0
  136.0811  137.5712  162.3260 H   0  0  0  0  0  0  0  0  0  0  0  0
  134.8533  136.4627  162.9763 H   0  0  0  0  0  0  0  0  0  0  0  0
  1  2  1  0
  1 40  1  0
  1 41  1  0
  1 42  1  0
  2 27  2  0
  2  3  1  0
  3  4  2  0
  3 43  1  0
  4  5  1  0
  4 44  1  0
  5  6  2  0
  5 45  1  0
  6  7  1  0
  6 27  1  0
  7 26  1  0
  7  8  1  0
  8  9  1  0
  8 46  1  0
  8 47  1  0
  9 10  1  0
  9 48  1  0
  9 49  1  0
 10 11  1  0
 10 12  1  0
 10 25  1  0
 12 13  1  0
 12 19  1  0
 12 50  1  0
 13 18  1  0
 13 14  2  0
 14 15  1  0
 14 51  1  0
 15 16  2  0
 15 52  1  0
 16 17  1  0
 16 53  1  0
 17 18  2  0
 17 54  1  0
 18 55  1  0
 19 24  1  0
 19 20  2  0
 20 21  1  0
 20 56  1  0
 21 22  2  0
 21 57  1  0
 22 23  1  0
 22 58  1  0
 23 24  2  0
 23 59  1  0
 24 60  1  0
 25 26  1  0
 25 61  1  0
 25 62  1  0
 26 63  1  0
 26 64  1  0
 27 28  1  0
 28 29  1  0
 28 65  1  0
 28 66  1  0
 29 30  1  1
 29 39  1  0
 29 31  1  0
 31 32  1  0
 31 67  1  0
 31 68  1  0
 32 33  1  0
 32 69  1  0
 32 70  1  0
 33 38  2  0
 33 34  1  0
 34 35  2  0
 34 71  1  0
 35 36  1  0
 35 72  1  0
 36 37  2  0
 36 73  1  0
 37 38  1  0
 37 74  1  0
 38 39  1  0
 39 75  1  0
 39 76  1  0
M  CHG  1  10   1
M  END
>  <DOCK_score>  (1) 
-65.506958

>  <SMILES>  (1) 
Cc1cccc(N2CC[NH+](C(c3ccccc3)c3ccccc3)CC2)c1C[C@H]1CCc2ccccc2C1

$$$$
