OCC[NH2+]C1CCN(C2c3cc(O)ccc3-c3ccc(O)cc32)CC1
     RDKit          3D

 50 53  0  0  1  0  0  0  0  0999 V2000
  134.1088  139.0596  161.9225 O   0  0  0  0  0  0  0  0  0  0  0  0
  133.2399  139.7814  161.0473 C   0  0  0  0  0  0  0  0  0  0  0  0
  132.4507  138.7947  160.1843 C   0  0  0  0  0  0  0  0  0  0  0  0
  131.6536  137.9156  161.0500 N   0  0  0  0  0  0  0  0  0  0  0  0
  131.0130  138.4719  161.5960 H   0  0  0  0  0  0  0  0  0  0  0  0
  132.2672  137.4060  161.6680 H   0  0  0  0  0  0  0  0  0  0  0  0
  130.8961  136.9683  160.2214 C   0  0  0  0  0  0  0  0  0  0  0  0
  129.9599  137.7403  159.2875 C   0  0  0  0  0  0  0  0  0  0  0  0
  129.1288  136.7475  158.4716 C   0  0  0  0  0  0  0  0  0  0  0  0
  128.3514  135.8939  159.3791 N   0  0  0  0  0  0  0  0  0  0  0  0
  127.4385  135.0215  158.6284 C   0  0  0  0  0  0  0  0  0  0  0  0
  126.3816  134.4611  159.5483 C   0  0  0  0  0  0  0  0  0  0  0  0
  125.4115  135.0654  160.3180 C   0  0  0  0  0  0  0  0  0  0  0  0
  124.5528  134.2909  161.0866 C   0  0  0  0  0  0  0  0  0  0  0  0
  123.5955  134.8865  161.8451 O   0  0  0  0  0  0  0  0  0  0  0  0
  124.6723  132.9077  161.0796 C   0  0  0  0  0  0  0  0  0  0  0  0
  125.6415  132.2995  160.3114 C   0  0  0  0  0  0  0  0  0  0  0  0
  126.5074  133.0743  159.5362 C   0  0  0  0  0  0  0  0  0  0  0  0
  127.6198  132.6870  158.6337 C   0  0  0  0  0  0  0  0  0  0  0  0
  128.1304  131.4327  158.2911 C   0  0  0  0  0  0  0  0  0  0  0  0
  129.1887  131.3350  157.4137 C   0  0  0  0  0  0  0  0  0  0  0  0
  129.7511  132.4808  156.8673 C   0  0  0  0  0  0  0  0  0  0  0  0
  130.7947  132.3799  156.0029 O   0  0  0  0  0  0  0  0  0  0  0  0
  129.2471  133.7298  157.2048 C   0  0  0  0  0  0  0  0  0  0  0  0
  128.1890  133.8318  158.0817 C   0  0  0  0  0  0  0  0  0  0  0  0
  129.2317  135.1073  160.2525 C   0  0  0  0  0  0  0  0  0  0  0  0
  130.0648  136.0512  161.1227 C   0  0  0  0  0  0  0  0  0  0  0  0
  134.6412  139.6229  162.5007 H   0  0  0  0  0  0  0  0  0  0  0  0
  133.8312  140.4338  160.4049 H   0  0  0  0  0  0  0  0  0  0  0  0
  132.5476  140.3825  161.6371 H   0  0  0  0  0  0  0  0  0  0  0  0
  133.1428  138.1938  159.5945 H   0  0  0  0  0  0  0  0  0  0  0  0
  131.7879  139.3454  159.5167 H   0  0  0  0  0  0  0  0  0  0  0  0
  131.5873  136.3682  159.6296 H   0  0  0  0  0  0  0  0  0  0  0  0
  129.2953  138.3708  159.8783 H   0  0  0  0  0  0  0  0  0  0  0  0
  130.5495  138.3626  158.6142 H   0  0  0  0  0  0  0  0  0  0  0  0
  129.7932  136.1274  157.8698 H   0  0  0  0  0  0  0  0  0  0  0  0
  128.4502  137.2942  157.8168 H   0  0  0  0  0  0  0  0  0  0  0  0
  126.9729  135.5777  157.8147 H   0  0  0  0  0  0  0  0  0  0  0  0
  125.3190  136.1414  160.3236 H   0  0  0  0  0  0  0  0  0  0  0  0
  123.5898  135.8517  161.7847 H   0  0  0  0  0  0  0  0  0  0  0  0
  124.0039  132.3065  161.6781 H   0  0  0  0  0  0  0  0  0  0  0  0
  125.7313  131.2233  160.3086 H   0  0  0  0  0  0  0  0  0  0  0  0
  127.6956  130.5391  158.7141 H   0  0  0  0  0  0  0  0  0  0  0  0
  129.5814  130.3641  157.1502 H   0  0  0  0  0  0  0  0  0  0  0  0
  131.1181  133.2305  155.6759 H   0  0  0  0  0  0  0  0  0  0  0  0
  129.6840  134.6213  156.7797 H   0  0  0  0  0  0  0  0  0  0  0  0
  129.8957  134.4949  159.6424 H   0  0  0  0  0  0  0  0  0  0  0  0
  128.6278  134.4627  160.8911 H   0  0  0  0  0  0  0  0  0  0  0  0
  130.7292  135.4674  161.7598 H   0  0  0  0  0  0  0  0  0  0  0  0
  129.4023  136.6543  161.7436 H   0  0  0  0  0  0  0  0  0  0  0  0
  1  2  1  0
  1 28  1  0
  2  3  1  0
  2 29  1  0
  2 30  1  0
  3  4  1  0
  3 31  1  0
  3 32  1  0
  4  5  1  0
  4  6  1  0
  4  7  1  0
  7 27  1  0
  7  8  1  0
  7 33  1  0
  8  9  1  0
  8 34  1  0
  8 35  1  0
  9 10  1  0
  9 36  1  0
  9 37  1  0
 10 11  1  0
 10 26  1  0
 11 25  1  0
 11 12  1  0
 11 38  1  0
 12 18  1  0
 12 13  2  0
 13 14  1  0
 13 39  1  0
 14 15  1  0
 14 16  2  0
 15 40  1  0
 16 17  1  0
 16 41  1  0
 17 18  2  0
 17 42  1  0
 18 19  1  0
 19 25  2  0
 19 20  1  0
 20 21  2  0
 20 43  1  0
 21 22  1  0
 21 44  1  0
 22 23  1  0
 22 24  2  0
 23 45  1  0
 24 25  1  0
 24 46  1  0
 26 27  1  0
 26 47  1  0
 26 48  1  0
 27 49  1  0
 27 50  1  0
M  CHG  1   4   1
M  END
>  <DOCK_score>  (1) 
-44.771145

>  <SMILES>  (1) 
OCC[NH2+]C1CCN(C2c3cc(O)ccc3-c3ccc(O)cc32)CC1

$$$$
