ClC[C@@H](Nc1[nH]cc(-c2cccnc2)[nH+]1)C(=CCc1ccc(Cl)cc1)c1ccccc1
     RDKit          3D

 54 57  0  0  1  0  0  0  0  0999 V2000
  127.2266  134.1745  159.8989 Cl  0  0  0  0  0  0  0  0  0  0  0  0
  128.2609  135.5735  160.3724 C   0  0  0  0  0  0  0  0  0  0  0  0
  129.7155  135.1146  160.4930 C   0  0  1  0  0  0  0  0  0  0  0  0
  129.7485  134.1310  160.9616 H   0  0  0  0  0  0  0  0  0  0  0  0
  130.3163  135.0403  159.1590 N   0  0  0  0  0  0  0  0  0  0  0  0
  130.2478  133.8632  158.4335 C   0  0  0  0  0  0  0  0  0  0  0  0
  129.6583  132.7091  158.8491 N   0  0  0  0  0  0  0  0  0  0  0  0
  129.2143  132.5645  159.6993 H   0  0  0  0  0  0  0  0  0  0  0  0
  129.8055  131.7875  157.8410 C   0  0  0  0  0  0  0  0  0  0  0  0
  130.4875  132.4018  156.8428 C   0  0  0  0  0  0  0  0  0  0  0  0
  130.8826  131.7901  155.5505 C   0  0  0  0  0  0  0  0  0  0  0  0
  130.9929  132.5734  154.3979 C   0  0  0  0  0  0  0  0  0  0  0  0
  131.3707  131.9561  153.2184 C   0  0  0  0  0  0  0  0  0  0  0  0
  131.6134  130.5943  153.2149 C   0  0  0  0  0  0  0  0  0  0  0  0
  131.4958  129.8799  154.3172 N   0  0  0  0  0  0  0  0  0  0  0  0
  131.1443  130.4241  155.4644 C   0  0  0  0  0  0  0  0  0  0  0  0
  130.7450  133.6747  157.2356 N   0  0  0  0  0  0  0  0  0  0  0  0
  131.2206  134.3392  156.7130 H   0  0  0  0  0  0  0  0  0  0  0  0
  130.4844  136.0987  161.3362 C   0  0  0  0  0  0  0  0  0  0  0  0
  131.0666  135.6979  162.4577 C   0  0  0  0  0  0  0  0  0  0  0  0
  131.8357  136.6822  163.3009 C   0  0  0  0  0  0  0  0  0  0  0  0
  133.2684  136.2302  163.4196 C   0  0  0  0  0  0  0  0  0  0  0  0
  133.6479  135.4032  164.4602 C   0  0  0  0  0  0  0  0  0  0  0  0
  134.9606  134.9837  164.5665 C   0  0  0  0  0  0  0  0  0  0  0  0
  135.8971  135.4008  163.6376 C   0  0  0  0  0  0  0  0  0  0  0  0
  137.5477  134.8806  163.7746 Cl  0  0  0  0  0  0  0  0  0  0  0  0
  135.5179  136.2332  162.5995 C   0  0  0  0  0  0  0  0  0  0  0  0
  134.2038  136.6474  162.4911 C   0  0  0  0  0  0  0  0  0  0  0  0
  130.5895  137.5111  160.9128 C   0  0  0  0  0  0  0  0  0  0  0  0
  131.6480  137.9227  160.1022 C   0  0  0  0  0  0  0  0  0  0  0  0
  131.7378  139.2415  159.7068 C   0  0  0  0  0  0  0  0  0  0  0  0
  130.7868  140.1571  160.1205 C   0  0  0  0  0  0  0  0  0  0  0  0
  129.7377  139.7564  160.9285 C   0  0  0  0  0  0  0  0  0  0  0  0
  129.6337  138.4396  161.3269 C   0  0  0  0  0  0  0  0  0  0  0  0
  127.9233  135.9668  161.3313 H   0  0  0  0  0  0  0  0  0  0  0  0
  128.1875  136.3529  159.6139 H   0  0  0  0  0  0  0  0  0  0  0  0
  130.7621  135.8159  158.7839 H   0  0  0  0  0  0  0  0  0  0  0  0
  129.4498  130.7678  157.8445 H   0  0  0  0  0  0  0  0  0  0  0  0
  130.7925  133.6343  154.4282 H   0  0  0  0  0  0  0  0  0  0  0  0
  131.4705  132.5306  152.3092 H   0  0  0  0  0  0  0  0  0  0  0  0
  131.9040  130.1084  152.2951 H   0  0  0  0  0  0  0  0  0  0  0  0
  131.0587  129.8062  156.3460 H   0  0  0  0  0  0  0  0  0  0  0  0
  130.9901  134.6660  162.7670 H   0  0  0  0  0  0  0  0  0  0  0  0
  131.8027  137.6658  162.8322 H   0  0  0  0  0  0  0  0  0  0  0  0
  131.3887  136.7375  164.2933 H   0  0  0  0  0  0  0  0  0  0  0  0
  132.9176  135.0811  165.1878 H   0  0  0  0  0  0  0  0  0  0  0  0
  135.2561  134.3340  165.3770 H   0  0  0  0  0  0  0  0  0  0  0  0
  136.2486  136.5595  161.8742 H   0  0  0  0  0  0  0  0  0  0  0  0
  133.9077  137.2974  161.6810 H   0  0  0  0  0  0  0  0  0  0  0  0
  132.3934  137.2097  159.7819 H   0  0  0  0  0  0  0  0  0  0  0  0
  132.5543  139.5606  159.0760 H   0  0  0  0  0  0  0  0  0  0  0  0
  130.8639  141.1891  159.8119 H   0  0  0  0  0  0  0  0  0  0  0  0
  128.9988  140.4762  161.2486 H   0  0  0  0  0  0  0  0  0  0  0  0
  128.8144  138.1281  161.9579 H   0  0  0  0  0  0  0  0  0  0  0  0
  1  2  1  0
  2  3  1  0
  2 35  1  0
  2 36  1  0
  3  4  1  1
  3  5  1  0
  3 19  1  0
  5 37  1  0
  6  5  1  0
  6 17  2  0
  6  7  1  0
  7  8  1  0
  7  9  1  0
  9 10  2  0
  9 38  1  0
 10 11  1  0
 10 17  1  0
 11 16  1  0
 11 12  2  0
 12 13  1  0
 12 39  1  0
 13 14  2  0
 13 40  1  0
 14 15  1  0
 14 41  1  0
 15 16  2  0
 16 42  1  0
 17 18  1  0
 19 20  2  0
 19 29  1  0
 20 21  1  0
 20 43  1  0
 21 22  1  0
 21 44  1  0
 21 45  1  0
 22 28  1  0
 22 23  2  0
 23 24  1  0
 23 46  1  0
 24 25  2  0
 24 47  1  0
 25 26  1  0
 25 27  1  0
 27 28  2  0
 27 48  1  0
 28 49  1  0
 29 34  1  0
 29 30  2  0
 30 31  1  0
 30 50  1  0
 31 32  2  0
 31 51  1  0
 32 33  1  0
 32 52  1  0
 33 34  2  0
 33 53  1  0
 34 54  1  0
M  CHG  1  17   1
M  END
>  <DOCK_score>  (1) 
-60.771458

>  <SMILES>  (1) 
ClC[C@@H](Nc1[nH]cc(-c2cccnc2)[nH+]1)C(=CCc1ccc(Cl)cc1)c1ccccc1

$$$$
