O=C1CCC(C[NH2+]Cc2c[nH]nc2-c2ccc(NC[C@H]3C[C@H]4CC[C@H]4C3)o2)CN1
     RDKit          3D

 61 65  0  0  1  0  0  0  0  0999 V2000
  137.4863  140.0810  159.7930 O   0  0  0  0  0  0  0  0  0  0  0  0
  136.4202  139.5448  160.0096 C   0  0  0  0  0  0  0  0  0  0  0  0
  136.0791  139.1885  161.4280 C   0  0  0  0  0  0  0  0  0  0  0  0
  134.5739  138.9403  161.5550 C   0  0  0  0  0  0  0  0  0  0  0  0
  134.1440  137.9860  160.4343 C   0  0  1  0  0  0  0  0  0  0  0  0
  132.6847  137.5753  160.6415 C   0  0  0  0  0  0  0  0  0  0  0  0
  132.4135  136.3390  159.8960 N   0  0  0  0  0  0  0  0  0  0  0  0
  133.0201  135.6050  160.2299 H   0  0  0  0  0  0  0  0  0  0  0  0
  132.5829  136.4944  158.9136 H   0  0  0  0  0  0  0  0  0  0  0  0
  131.0124  135.9446  160.0949 C   0  0  0  0  0  0  0  0  0  0  0  0
  130.7341  134.6763  159.3302 C   0  0  0  0  0  0  0  0  0  0  0  0
  131.6209  133.9909  158.5771 C   0  0  0  0  0  0  0  0  0  0  0  0
  130.9862  132.9190  158.0552 N   0  0  0  0  0  0  0  0  0  0  0  0
  131.3810  132.2529  157.4711 H   0  0  0  0  0  0  0  0  0  0  0  0
  129.6593  132.9350  158.5040 N   0  0  0  0  0  0  0  0  0  0  0  0
  129.5018  133.9916  159.2768 C   0  0  0  0  0  0  0  0  0  0  0  0
  128.2543  134.3911  159.9605 C   0  0  0  0  0  0  0  0  0  0  0  0
  127.0693  133.7278  159.9063 C   0  0  0  0  0  0  0  0  0  0  0  0
  126.1586  134.4538  160.6991 C   0  0  0  0  0  0  0  0  0  0  0  0
  126.8308  135.5216  161.1967 C   0  0  0  0  0  0  0  0  0  0  0  0
  126.3004  136.4976  162.0323 N   0  0  0  0  0  0  0  0  0  0  0  0
  127.1441  137.6014  162.4972 C   0  0  0  0  0  0  0  0  0  0  0  0
  126.3225  138.5277  163.3960 C   0  0  1  0  0  0  0  0  0  0  0  0
  125.4772  138.9313  162.8385 H   0  0  0  0  0  0  0  0  0  0  0  0
  125.8178  137.7532  164.6224 C   0  0  0  0  0  0  0  0  0  0  0  0
  126.0183  138.6873  165.8308 C   0  0  1  0  0  0  0  0  0  0  0  0
  125.1172  139.1919  166.1795 H   0  0  0  0  0  0  0  0  0  0  0  0
  126.9386  138.0808  166.9052 C   0  0  0  0  0  0  0  0  0  0  0  0
  128.1225  138.4909  166.0137 C   0  0  0  0  0  0  0  0  0  0  0  0
  127.2131  139.5890  165.4451 C   0  0  1  0  0  0  0  0  0  0  0  0
  127.2667  140.5504  165.9557 H   0  0  0  0  0  0  0  0  0  0  0  0
  127.2056  139.6717  163.9134 C   0  0  0  0  0  0  0  0  0  0  0  0
  128.0961  135.4770  160.7461 O   0  0  0  0  0  0  0  0  0  0  0  0
  134.2884  138.7081  159.0941 C   0  0  0  0  0  0  0  0  0  0  0  0
  135.6138  139.3029  158.9753 N   0  0  0  0  0  0  0  0  0  0  0  0
  136.6201  138.2869  161.7150 H   0  0  0  0  0  0  0  0  0  0  0  0
  136.3666  140.0082  162.0865 H   0  0  0  0  0  0  0  0  0  0  0  0
  134.0367  139.8840  161.4596 H   0  0  0  0  0  0  0  0  0  0  0  0
  134.3566  138.4904  162.5237 H   0  0  0  0  0  0  0  0  0  0  0  0
  134.7781  137.0995  160.4425 H   0  0  0  0  0  0  0  0  0  0  0  0
  132.0295  138.3682  160.2809 H   0  0  0  0  0  0  0  0  0  0  0  0
  132.5017  137.4074  161.7028 H   0  0  0  0  0  0  0  0  0  0  0  0
  130.3571  136.7375  159.7343 H   0  0  0  0  0  0  0  0  0  0  0  0
  130.8294  135.7766  161.1561 H   0  0  0  0  0  0  0  0  0  0  0  0
  132.6554  134.2560  158.4163 H   0  0  0  0  0  0  0  0  0  0  0  0
  126.8660  132.8165  159.3635 H   0  0  0  0  0  0  0  0  0  0  0  0
  125.1224  134.2068  160.8772 H   0  0  0  0  0  0  0  0  0  0  0  0
  125.3716  136.4478  162.3076 H   0  0  0  0  0  0  0  0  0  0  0  0
  127.9870  137.2020  163.0609 H   0  0  0  0  0  0  0  0  0  0  0  0
  127.5141  138.1623  161.6388 H   0  0  0  0  0  0  0  0  0  0  0  0
  124.7610  137.5130  164.5054 H   0  0  0  0  0  0  0  0  0  0  0  0
  126.3973  136.8393  164.7533 H   0  0  0  0  0  0  0  0  0  0  0  0
  126.9055  138.6101  167.8575 H   0  0  0  0  0  0  0  0  0  0  0  0
  126.8285  137.0020  167.0156 H   0  0  0  0  0  0  0  0  0  0  0  0
  128.4013  137.7325  165.2820 H   0  0  0  0  0  0  0  0  0  0  0  0
  128.9769  138.8763  166.5703 H   0  0  0  0  0  0  0  0  0  0  0  0
  128.2201  139.5582  163.5316 H   0  0  0  0  0  0  0  0  0  0  0  0
  126.7937  140.6298  163.5965 H   0  0  0  0  0  0  0  0  0  0  0  0
  134.1395  137.9952  158.2831 H   0  0  0  0  0  0  0  0  0  0  0  0
  133.5366  139.4941  159.0255 H   0  0  0  0  0  0  0  0  0  0  0  0
  135.9292  139.5371  158.0885 H   0  0  0  0  0  0  0  0  0  0  0  0
  1  2  2  0
  2 35  1  0
  2  3  1  0
  3  4  1  0
  3 36  1  0
  3 37  1  0
  4  5  1  0
  4 38  1  0
  4 39  1  0
  5  6  1  0
  5 34  1  0
  5 40  1  6
  6  7  1  0
  6 41  1  0
  6 42  1  0
  7  8  1  0
  7  9  1  0
  7 10  1  0
 10 11  1  0
 10 43  1  0
 10 44  1  0
 11 16  1  0
 11 12  2  0
 12 13  1  0
 12 45  1  0
 13 14  1  0
 13 15  1  0
 15 16  2  0
 16 17  1  0
 17 33  1  0
 17 18  2  0
 18 19  1  0
 18 46  1  0
 19 20  2  0
 19 47  1  0
 20 21  1  0
 20 33  1  0
 21 22  1  0
 21 48  1  0
 22 23  1  0
 22 49  1  0
 22 50  1  0
 23 24  1  6
 23 32  1  0
 23 25  1  0
 25 26  1  0
 25 51  1  0
 25 52  1  0
 26 27  1  1
 26 30  1  0
 26 28  1  0
 28 29  1  0
 28 53  1  0
 28 54  1  0
 29 30  1  0
 29 55  1  0
 29 56  1  0
 30 31  1  1
 30 32  1  0
 32 57  1  0
 32 58  1  0
 34 35  1  0
 34 59  1  0
 34 60  1  0
 35 61  1  0
M  CHG  1   7   1
M  END
>  <DOCK_score>  (1) 
-42.166977

>  <SMILES>  (1) 
O=C1CCC(C[NH2+]Cc2c[nH]nc2-c2ccc(NC[C@H]3C[C@H]4CC[C@H]4C3)o2)CN1

$$$$
