O=C1CC[C@H](NC(N[C@H]2COc3ccccc3C2)=[NH+]C2COC2)CN1
     RDKit          3D

 50 53  0  0  1  0  0  0  0  0999 V2000
  123.6023  134.0600  161.4584 O   0  0  0  0  0  0  0  0  0  0  0  0
  124.7942  134.2240  161.3057 C   0  0  0  0  0  0  0  0  0  0  0  0
  125.6004  133.0918  160.7370 C   0  0  0  0  0  0  0  0  0  0  0  0
  127.0876  133.3143  161.0199 C   0  0  0  0  0  0  0  0  0  0  0  0
  127.4482  134.7499  160.6191 C   0  0  2  0  0  0  0  0  0  0  0  0
  127.1246  134.9358  159.5950 H   0  0  0  0  0  0  0  0  0  0  0  0
  128.8976  134.9386  160.7185 N   0  0  0  0  0  0  0  0  0  0  0  0
  129.7005  134.6802  159.6328 C   0  0  0  0  0  0  0  0  0  0  0  0
  130.8710  135.3805  159.4612 N   0  0  0  0  0  0  0  0  0  0  0  0
  131.2629  136.4022  160.4352 C   0  0  1  0  0  0  0  0  0  0  0  0
  130.8768  136.1383  161.4197 H   0  0  0  0  0  0  0  0  0  0  0  0
  132.7925  136.5047  160.4899 C   0  0  0  0  0  0  0  0  0  0  0  0
  133.1452  137.4312  161.5182 O   0  0  0  0  0  0  0  0  0  0  0  0
  132.5176  138.6358  161.5300 C   0  0  0  0  0  0  0  0  0  0  0  0
  133.0808  139.6709  162.2701 C   0  0  0  0  0  0  0  0  0  0  0  0
  132.4707  140.9077  162.3102 C   0  0  0  0  0  0  0  0  0  0  0  0
  131.2957  141.1210  161.6130 C   0  0  0  0  0  0  0  0  0  0  0  0
  130.7346  140.0965  160.8762 C   0  0  0  0  0  0  0  0  0  0  0  0
  131.3433  138.8531  160.8312 C   0  0  0  0  0  0  0  0  0  0  0  0
  130.7042  137.7622  160.0094 C   0  0  0  0  0  0  0  0  0  0  0  0
  129.3519  133.7711  158.7663 N   0  0  0  0  0  0  0  0  0  0  0  0
  128.4129  133.5885  158.6060 H   0  0  0  0  0  0  0  0  0  0  0  0
  130.3785  133.0248  158.0343 C   0  0  0  0  0  0  0  0  0  0  0  0
  130.0155  131.5499  157.7787 C   0  0  0  0  0  0  0  0  0  0  0  0
  129.4593  132.0202  156.5344 O   0  0  0  0  0  0  0  0  0  0  0  0
  130.2979  133.1926  156.5053 C   0  0  0  0  0  0  0  0  0  0  0  0
  126.7385  135.7190  161.5654 C   0  0  0  0  0  0  0  0  0  0  0  0
  125.3188  135.4003  161.6514 N   0  0  0  0  0  0  0  0  0  0  0  0
  125.2805  132.1548  161.1930 H   0  0  0  0  0  0  0  0  0  0  0  0
  125.4444  133.0418  159.6593 H   0  0  0  0  0  0  0  0  0  0  0  0
  127.6832  132.6104  160.4385 H   0  0  0  0  0  0  0  0  0  0  0  0
  127.2823  133.1701  162.0827 H   0  0  0  0  0  0  0  0  0  0  0  0
  129.2907  135.2459  161.5502 H   0  0  0  0  0  0  0  0  0  0  0  0
  131.4374  135.1980  158.6952 H   0  0  0  0  0  0  0  0  0  0  0  0
  133.2182  135.5269  160.7150 H   0  0  0  0  0  0  0  0  0  0  0  0
  133.1713  136.8588  159.5312 H   0  0  0  0  0  0  0  0  0  0  0  0
  133.9984  139.5054  162.8152 H   0  0  0  0  0  0  0  0  0  0  0  0
  132.9109  141.7089  162.8853 H   0  0  0  0  0  0  0  0  0  0  0  0
  130.8165  142.0884  161.6452 H   0  0  0  0  0  0  0  0  0  0  0  0
  129.8166  140.2656  160.3328 H   0  0  0  0  0  0  0  0  0  0  0  0
  130.9211  137.9293  158.9543 H   0  0  0  0  0  0  0  0  0  0  0  0
  129.6253  137.7757  160.1638 H   0  0  0  0  0  0  0  0  0  0  0  0
  131.3798  133.1676  158.4406 H   0  0  0  0  0  0  0  0  0  0  0  0
  130.8803  130.8976  157.6566 H   0  0  0  0  0  0  0  0  0  0  0  0
  129.2735  131.1519  158.4709 H   0  0  0  0  0  0  0  0  0  0  0  0
  129.7799  134.0975  156.1876 H   0  0  0  0  0  0  0  0  0  0  0  0
  131.2494  133.0441  155.9946 H   0  0  0  0  0  0  0  0  0  0  0  0
  127.1848  135.6460  162.5572 H   0  0  0  0  0  0  0  0  0  0  0  0
  126.8543  136.7366  161.1923 H   0  0  0  0  0  0  0  0  0  0  0  0
  124.7179  136.0869  161.9806 H   0  0  0  0  0  0  0  0  0  0  0  0
  1  2  2  0
  2 28  1  0
  2  3  1  0
  3  4  1  0
  3 29  1  0
  3 30  1  0
  4  5  1  0
  4 31  1  0
  4 32  1  0
  5  6  1  6
  5  7  1  0
  5 27  1  0
  7 33  1  0
  8  7  1  0
  8  9  1  0
  8 21  2  0
  9 10  1  0
  9 34  1  0
 10 11  1  1
 10 20  1  0
 10 12  1  0
 12 13  1  0
 12 35  1  0
 12 36  1  0
 13 14  1  0
 14 19  2  0
 14 15  1  0
 15 16  2  0
 15 37  1  0
 16 17  1  0
 16 38  1  0
 17 18  2  0
 17 39  1  0
 18 19  1  0
 18 40  1  0
 19 20  1  0
 20 41  1  0
 20 42  1  0
 21 22  1  0
 21 23  1  0
 23 26  1  0
 23 24  1  0
 23 43  1  0
 24 25  1  0
 24 44  1  0
 24 45  1  0
 25 26  1  0
 26 46  1  0
 26 47  1  0
 27 28  1  0
 27 48  1  0
 27 49  1  0
 28 50  1  0
M  CHG  1  21   1
M  END
>  <DOCK_score>  (1) 
-41.708042

>  <SMILES>  (1) 
O=C1CC[C@H](NC(N[C@H]2COc3ccccc3C2)=[NH+]C2COC2)CN1

$$$$
