CCc1ccc(-c2c[nH]c(N[C@H](C)Cc3ccc(Br)cc3)[nH+]2)cc1
     RDKit          3D

 47 49  0  0  1  0  0  0  0  0999 V2000
  130.2736  128.5411  151.3883 C   0  0  0  0  0  0  0  0  0  0  0  0
  131.4207  129.4917  151.7364 C   0  0  0  0  0  0  0  0  0  0  0  0
  131.0789  130.2534  152.9911 C   0  0  0  0  0  0  0  0  0  0  0  0
  131.4351  129.7423  154.2256 C   0  0  0  0  0  0  0  0  0  0  0  0
  131.1298  130.4380  155.3778 C   0  0  0  0  0  0  0  0  0  0  0  0
  130.4510  131.6525  155.2960 C   0  0  0  0  0  0  0  0  0  0  0  0
  130.1151  132.4022  156.5311 C   0  0  0  0  0  0  0  0  0  0  0  0
  129.3469  131.9521  157.5540 C   0  0  0  0  0  0  0  0  0  0  0  0
  129.2950  132.9592  158.4867 N   0  0  0  0  0  0  0  0  0  0  0  0
  128.8194  132.9356  159.3318 H   0  0  0  0  0  0  0  0  0  0  0  0
  130.0338  133.9962  158.0062 C   0  0  0  0  0  0  0  0  0  0  0  0
  130.2359  135.2070  158.6462 N   0  0  0  0  0  0  0  0  0  0  0  0
  129.6283  135.4534  159.9564 C   0  0  2  0  0  0  0  0  0  0  0  0
  129.6936  134.5501  160.5628 H   0  0  0  0  0  0  0  0  0  0  0  0
  128.1591  135.8392  159.7726 C   0  0  0  0  0  0  0  0  0  0  0  0
  130.3711  136.5930  160.6567 C   0  0  0  0  0  0  0  0  0  0  0  0
  131.6400  136.0620  161.2723 C   0  0  0  0  0  0  0  0  0  0  0  0
  132.1547  136.6515  162.4119 C   0  0  0  0  0  0  0  0  0  0  0  0
  133.3159  136.1617  162.9794 C   0  0  0  0  0  0  0  0  0  0  0  0
  133.9685  135.0885  162.4017 C   0  0  0  0  0  0  0  0  0  0  0  0
  135.5617  134.4225  163.1726 Br  0  0  0  0  0  0  0  0  0  0  0  0
  133.4563  134.5018  161.2578 C   0  0  0  0  0  0  0  0  0  0  0  0
  132.2921  134.9890  160.6939 C   0  0  0  0  0  0  0  0  0  0  0  0
  130.5270  133.6574  156.8400 N   0  0  0  0  0  0  0  0  0  0  0  0
  131.0939  134.2159  156.2854 H   0  0  0  0  0  0  0  0  0  0  0  0
  130.0894  132.1602  154.0494 C   0  0  0  0  0  0  0  0  0  0  0  0
  130.4049  131.4587  152.9036 C   0  0  0  0  0  0  0  0  0  0  0  0
  130.1219  127.8398  152.2089 H   0  0  0  0  0  0  0  0  0  0  0  0
  129.3612  129.1153  151.2278 H   0  0  0  0  0  0  0  0  0  0  0  0
  130.5208  127.9903  150.4808 H   0  0  0  0  0  0  0  0  0  0  0  0
  132.3329  128.9181  151.8965 H   0  0  0  0  0  0  0  0  0  0  0  0
  131.5722  130.1936  150.9153 H   0  0  0  0  0  0  0  0  0  0  0  0
  131.9569  128.7988  154.2881 H   0  0  0  0  0  0  0  0  0  0  0  0
  131.4126  130.0401  156.3412 H   0  0  0  0  0  0  0  0  0  0  0  0
  128.8673  130.9868  157.6220 H   0  0  0  0  0  0  0  0  0  0  0  0
  130.7800  135.8922  158.2273 H   0  0  0  0  0  0  0  0  0  0  0  0
  127.6299  135.0274  159.2736 H   0  0  0  0  0  0  0  0  0  0  0  0
  127.7071  136.0226  160.7473 H   0  0  0  0  0  0  0  0  0  0  0  0
  128.0939  136.7427  159.1660 H   0  0  0  0  0  0  0  0  0  0  0  0
  130.6161  137.3677  159.9303 H   0  0  0  0  0  0  0  0  0  0  0  0
  129.7372  137.0142  161.4372 H   0  0  0  0  0  0  0  0  0  0  0  0
  131.6470  137.4923  162.8611 H   0  0  0  0  0  0  0  0  0  0  0  0
  133.7157  136.6199  163.8719 H   0  0  0  0  0  0  0  0  0  0  0  0
  133.9658  133.6638  160.8056 H   0  0  0  0  0  0  0  0  0  0  0  0
  131.8922  134.5315  159.8011 H   0  0  0  0  0  0  0  0  0  0  0  0
  129.5630  133.1008  153.9802 H   0  0  0  0  0  0  0  0  0  0  0  0
  130.1249  131.8511  151.9371 H   0  0  0  0  0  0  0  0  0  0  0  0
  1  2  1  0
  1 28  1  0
  1 29  1  0
  1 30  1  0
  2  3  1  0
  2 31  1  0
  2 32  1  0
  3 27  2  0
  3  4  1  0
  4  5  2  0
  4 33  1  0
  5  6  1  0
  5 34  1  0
  6  7  1  0
  6 26  2  0
  7 24  1  0
  7  8  2  0
  8  9  1  0
  8 35  1  0
  9 10  1  0
  9 11  1  0
 11 12  1  0
 11 24  2  0
 12 13  1  0
 12 36  1  0
 13 14  1  1
 13 15  1  0
 13 16  1  0
 15 37  1  0
 15 38  1  0
 15 39  1  0
 16 17  1  0
 16 40  1  0
 16 41  1  0
 17 23  1  0
 17 18  2  0
 18 19  1  0
 18 42  1  0
 19 20  2  0
 19 43  1  0
 20 21  1  0
 20 22  1  0
 22 23  2  0
 22 44  1  0
 23 45  1  0
 24 25  1  0
 26 27  1  0
 26 46  1  0
 27 47  1  0
M  CHG  1  24   1
M  END
>  <DOCK_score>  (1) 
-57.547531

>  <SMILES>  (1) 
CCc1ccc(-c2c[nH]c(N[C@H](C)Cc3ccc(Br)cc3)[nH+]2)cc1

$$$$
