O[C@@H]1[C@H](O)C=C[C@H]1[NH+]=C(N[C@@H]1CCc2cc(Br)ccc2C1)N[C@H]1C[C@@H](O)C1
     RDKit          3D

 54 57  0  0  1  0  0  0  0  0999 V2000
  125.8316  135.9430  161.6648 O   0  0  0  0  0  0  0  0  0  0  0  0
  125.4632  134.8379  160.8371 C   0  0  2  0  0  0  0  0  0  0  0  0
  125.1252  135.1800  159.8589 H   0  0  0  0  0  0  0  0  0  0  0  0
  124.3859  133.9658  161.5227 C   0  0  2  0  0  0  0  0  0  0  0  0
  123.3951  134.2202  161.1460 H   0  0  0  0  0  0  0  0  0  0  0  0
  124.4385  134.1331  162.9409 O   0  0  0  0  0  0  0  0  0  0  0  0
  124.7438  132.5468  161.1466 C   0  0  0  0  0  0  0  0  0  0  0  0
  125.9692  132.4731  160.7031 C   0  0  0  0  0  0  0  0  0  0  0  0
  126.6298  133.8320  160.7008 C   0  0  1  0  0  0  0  0  0  0  0  0
  127.3093  133.9216  161.5484 H   0  0  0  0  0  0  0  0  0  0  0  0
  127.3504  134.0535  159.4447 N   0  0  0  0  0  0  0  0  0  0  0  0
  127.0772  133.5859  158.6399 H   0  0  0  0  0  0  0  0  0  0  0  0
  128.3586  134.8787  159.4085 C   0  0  0  0  0  0  0  0  0  0  0  0
  128.3950  135.9575  160.2600 N   0  0  0  0  0  0  0  0  0  0  0  0
  129.6823  136.4862  160.7177 C   0  0  2  0  0  0  0  0  0  0  0  0
  130.4157  135.6810  160.7600 H   0  0  0  0  0  0  0  0  0  0  0  0
  129.5191  137.1095  162.1089 C   0  0  0  0  0  0  0  0  0  0  0  0
  130.9072  137.4323  162.6582 C   0  0  0  0  0  0  0  0  0  0  0  0
  131.7029  138.2250  161.6544 C   0  0  0  0  0  0  0  0  0  0  0  0
  132.8170  138.9163  162.1130 C   0  0  0  0  0  0  0  0  0  0  0  0
  133.5903  139.6566  161.2420 C   0  0  0  0  0  0  0  0  0  0  0  0
  135.1049  140.5929  161.8788 Br  0  0  0  0  0  0  0  0  0  0  0  0
  133.2538  139.7108  159.9012 C   0  0  0  0  0  0  0  0  0  0  0  0
  132.1466  139.0267  159.4451 C   0  0  0  0  0  0  0  0  0  0  0  0
  131.3658  138.2828  160.3209 C   0  0  0  0  0  0  0  0  0  0  0  0
  130.1640  137.5709  159.7565 C   0  0  0  0  0  0  0  0  0  0  0  0
  129.3859  134.6703  158.5187 N   0  0  0  0  0  0  0  0  0  0  0  0
  129.3472  133.5208  157.6114 C   0  0  1  0  0  0  0  0  0  0  0  0
  128.4792  133.5310  156.9520 H   0  0  0  0  0  0  0  0  0  0  0  0
  130.6753  133.2702  156.8777 C   0  0  0  0  0  0  0  0  0  0  0  0
  130.4243  131.7694  157.1005 C   0  0  1  0  0  0  0  0  0  0  0  0
  129.8508  131.2993  156.3017 H   0  0  0  0  0  0  0  0  0  0  0  0
  131.6021  131.0370  157.4448 O   0  0  0  0  0  0  0  0  0  0  0  0
  129.5723  132.1724  158.3157 C   0  0  0  0  0  0  0  0  0  0  0  0
  125.1031  136.5482  161.8602 H   0  0  0  0  0  0  0  0  0  0  0  0
  125.3016  133.9338  163.3288 H   0  0  0  0  0  0  0  0  0  0  0  0
  124.0751  131.7037  161.2370 H   0  0  0  0  0  0  0  0  0  0  0  0
  126.4476  131.5608  160.3785 H   0  0  0  0  0  0  0  0  0  0  0  0
  127.5683  136.3685  160.5576 H   0  0  0  0  0  0  0  0  0  0  0  0
  128.9318  138.0249  162.0346 H   0  0  0  0  0  0  0  0  0  0  0  0
  129.0174  136.4037  162.7710 H   0  0  0  0  0  0  0  0  0  0  0  0
  130.8052  138.0127  163.5751 H   0  0  0  0  0  0  0  0  0  0  0  0
  131.4318  136.5024  162.8781 H   0  0  0  0  0  0  0  0  0  0  0  0
  133.0804  138.8736  163.1594 H   0  0  0  0  0  0  0  0  0  0  0  0
  133.8557  140.2871  159.2141 H   0  0  0  0  0  0  0  0  0  0  0  0
  131.8846  139.0692  158.3983 H   0  0  0  0  0  0  0  0  0  0  0  0
  130.4308  137.1140  158.8036 H   0  0  0  0  0  0  0  0  0  0  0  0
  129.3620  138.2917  159.5968 H   0  0  0  0  0  0  0  0  0  0  0  0
  130.1361  135.2845  158.4917 H   0  0  0  0  0  0  0  0  0  0  0  0
  130.6568  133.5649  155.8285 H   0  0  0  0  0  0  0  0  0  0  0  0
  131.5468  133.6508  157.4102 H   0  0  0  0  0  0  0  0  0  0  0  0
  132.2985  131.0745  156.7749 H   0  0  0  0  0  0  0  0  0  0  0  0
  130.1424  132.2530  159.2411 H   0  0  0  0  0  0  0  0  0  0  0  0
  128.6636  131.5810  158.4272 H   0  0  0  0  0  0  0  0  0  0  0  0
  1  2  1  0
  1 35  1  0
  2  3  1  6
  2  9  1  0
  2  4  1  0
  4  5  1  6
  4  6  1  0
  4  7  1  0
  6 36  1  0
  7  8  2  0
  7 37  1  0
  8  9  1  0
  8 38  1  0
  9 10  1  1
  9 11  1  0
 11 12  1  0
 13 11  2  0
 13 14  1  0
 13 27  1  0
 14 15  1  0
 14 39  1  0
 15 16  1  1
 15 26  1  0
 15 17  1  0
 17 18  1  0
 17 40  1  0
 17 41  1  0
 18 19  1  0
 18 42  1  0
 18 43  1  0
 19 25  2  0
 19 20  1  0
 20 21  2  0
 20 44  1  0
 21 22  1  0
 21 23  1  0
 23 24  2  0
 23 45  1  0
 24 25  1  0
 24 46  1  0
 25 26  1  0
 26 47  1  0
 26 48  1  0
 27 28  1  0
 27 49  1  0
 28 29  1  6
 28 34  1  0
 28 30  1  0
 30 31  1  0
 30 50  1  0
 30 51  1  0
 31 32  1  6
 31 33  1  0
 31 34  1  0
 33 52  1  0
 34 53  1  0
 34 54  1  0
M  CHG  1  11   1
M  END
>  <DOCK_score>  (1) 
-42.961117

>  <SMILES>  (1) 
O[C@@H]1[C@H](O)C=C[C@H]1[NH+]=C(N[C@@H]1CCc2cc(Br)ccc2C1)N[C@H]1C[C@@H](O)C1

$$$$
