CCc1ccc(-c2c[nH]c(N[C@@H](Cc3ccnn3C)c3ccc(O)c(N)c3)[nH+]2)cc1
     RDKit          3D

 57 60  0  0  1  0  0  0  0  0999 V2000
  129.8552  128.7340  151.1992 C   0  0  0  0  0  0  0  0  0  0  0  0
  131.0495  129.6206  151.5572 C   0  0  0  0  0  0  0  0  0  0  0  0
  130.7661  130.3493  152.8455 C   0  0  0  0  0  0  0  0  0  0  0  0
  131.1235  129.7778  154.0529 C   0  0  0  0  0  0  0  0  0  0  0  0
  130.8716  130.4430  155.2357 C   0  0  0  0  0  0  0  0  0  0  0  0
  130.2454  131.6879  155.2122 C   0  0  0  0  0  0  0  0  0  0  0  0
  129.9670  132.4052  156.4804 C   0  0  0  0  0  0  0  0  0  0  0  0
  129.1998  131.9512  157.5022 C   0  0  0  0  0  0  0  0  0  0  0  0
  129.2105  132.9244  158.4717 N   0  0  0  0  0  0  0  0  0  0  0  0
  128.7508  132.8901  159.3252 H   0  0  0  0  0  0  0  0  0  0  0  0
  129.9847  133.9455  158.0135 C   0  0  0  0  0  0  0  0  0  0  0  0
  130.2523  135.1219  158.6925 N   0  0  0  0  0  0  0  0  0  0  0  0
  130.2876  135.1305  160.1572 C   0  0  1  0  0  0  0  0  0  0  0  0
  129.4859  134.5013  160.5436 H   0  0  0  0  0  0  0  0  0  0  0  0
  131.6363  134.5912  160.6380 C   0  0  0  0  0  0  0  0  0  0  0  0
  131.6237  133.0852  160.5820 C   0  0  0  0  0  0  0  0  0  0  0  0
  132.0018  132.3228  159.5300 C   0  0  0  0  0  0  0  0  0  0  0  0
  131.8377  130.9811  159.8898 C   0  0  0  0  0  0  0  0  0  0  0  0
  131.3775  130.9395  161.1138 N   0  0  0  0  0  0  0  0  0  0  0  0
  131.2388  132.2554  161.5741 N   0  0  0  0  0  0  0  0  0  0  0  0
  130.7579  132.6592  162.8978 C   0  0  0  0  0  0  0  0  0  0  0  0
  130.1041  136.5409  160.6557 C   0  0  0  0  0  0  0  0  0  0  0  0
  129.0336  136.8489  161.4746 C   0  0  0  0  0  0  0  0  0  0  0  0
  128.8627  138.1401  161.9391 C   0  0  0  0  0  0  0  0  0  0  0  0
  129.7590  139.1315  161.5758 C   0  0  0  0  0  0  0  0  0  0  0  0
  129.5894  140.4030  162.0281 O   0  0  0  0  0  0  0  0  0  0  0  0
  130.8350  138.8231  160.7463 C   0  0  0  0  0  0  0  0  0  0  0  0
  131.7443  139.8209  160.3763 N   0  0  0  0  0  0  0  0  0  0  0  0
  131.0031  137.5245  160.2884 C   0  0  0  0  0  0  0  0  0  0  0  0
  130.4397  133.6292  156.8257 N   0  0  0  0  0  0  0  0  0  0  0  0
  131.0197  134.1827  156.2798 H   0  0  0  0  0  0  0  0  0  0  0  0
  129.8823  132.2567  153.9927 C   0  0  0  0  0  0  0  0  0  0  0  0
  130.1443  131.5851  152.8158 C   0  0  0  0  0  0  0  0  0  0  0  0
  128.9660  129.3528  151.0788 H   0  0  0  0  0  0  0  0  0  0  0  0
  130.0601  128.2070  150.2673 H   0  0  0  0  0  0  0  0  0  0  0  0
  129.6887  128.0100  151.9969 H   0  0  0  0  0  0  0  0  0  0  0  0
  131.9385  129.0024  151.6771 H   0  0  0  0  0  0  0  0  0  0  0  0
  131.2158  130.3451  150.7590 H   0  0  0  0  0  0  0  0  0  0  0  0
  131.6043  128.8110  154.0702 H   0  0  0  0  0  0  0  0  0  0  0  0
  131.1552  129.9978  156.1779 H   0  0  0  0  0  0  0  0  0  0  0  0
  128.6796  131.0057  157.5454 H   0  0  0  0  0  0  0  0  0  0  0  0
  130.4167  135.9404  158.1986 H   0  0  0  0  0  0  0  0  0  0  0  0
  132.4299  134.9720  159.9953 H   0  0  0  0  0  0  0  0  0  0  0  0
  131.8122  134.9151  161.6637 H   0  0  0  0  0  0  0  0  0  0  0  0
  132.3664  132.6861  158.5805 H   0  0  0  0  0  0  0  0  0  0  0  0
  132.0541  130.1270  159.2651 H   0  0  0  0  0  0  0  0  0  0  0  0
  129.6750  132.7801  162.8695 H   0  0  0  0  0  0  0  0  0  0  0  0
  131.0190  131.8937  163.6283 H   0  0  0  0  0  0  0  0  0  0  0  0
  131.2217  133.6043  163.1800 H   0  0  0  0  0  0  0  0  0  0  0  0
  128.3313  136.0780  161.7557 H   0  0  0  0  0  0  0  0  0  0  0  0
  128.0277  138.3764  162.5820 H   0  0  0  0  0  0  0  0  0  0  0  0
  128.8158  140.5182  162.5968 H   0  0  0  0  0  0  0  0  0  0  0  0
  132.4931  139.6046  159.7990 H   0  0  0  0  0  0  0  0  0  0  0  0
  131.6254  140.7285  160.6972 H   0  0  0  0  0  0  0  0  0  0  0  0
  131.8359  137.2821  159.6450 H   0  0  0  0  0  0  0  0  0  0  0  0
  129.3967  133.2211  153.9686 H   0  0  0  0  0  0  0  0  0  0  0  0
  129.8631  132.0247  151.8703 H   0  0  0  0  0  0  0  0  0  0  0  0
  1  2  1  0
  1 34  1  0
  1 35  1  0
  1 36  1  0
  2  3  1  0
  2 37  1  0
  2 38  1  0
  3 33  2  0
  3  4  1  0
  4  5  2  0
  4 39  1  0
  5  6  1  0
  5 40  1  0
  6  7  1  0
  6 32  2  0
  7 30  1  0
  7  8  2  0
  8  9  1  0
  8 41  1  0
  9 10  1  0
  9 11  1  0
 11 12  1  0
 11 30  2  0
 12 13  1  0
 12 42  1  0
 13 14  1  1
 13 15  1  0
 13 22  1  0
 15 16  1  0
 15 43  1  0
 15 44  1  0
 16 20  1  0
 16 17  2  0
 17 18  1  0
 17 45  1  0
 18 19  2  0
 18 46  1  0
 19 20  1  0
 20 21  1  0
 21 47  1  0
 21 48  1  0
 21 49  1  0
 22 29  1  0
 22 23  2  0
 23 24  1  0
 23 50  1  0
 24 25  2  0
 24 51  1  0
 25 26  1  0
 25 27  1  0
 26 52  1  0
 27 28  1  0
 27 29  2  0
 28 53  1  0
 28 54  1  0
 29 55  1  0
 30 31  1  0
 32 33  1  0
 32 56  1  0
 33 57  1  0
M  CHG  1  30   1
M  END
>  <DOCK_score>  (1) 
-63.671474

>  <SMILES>  (1) 
CCc1ccc(-c2c[nH]c(N[C@@H](Cc3ccnn3C)c3ccc(O)c(N)c3)[nH+]2)cc1

$$$$
