O[C@H](CC(Cc1ccccc1)N1CC[NH+](Cc2cccc3ccccc23)CC1)c1ccncc1
     RDKit          3D

 68 72  0  0  1  0  0  0  0  0999 V2000
  132.3313  137.2497  165.2425 O   0  0  0  0  0  0  0  0  0  0  0  0
  131.9647  137.6517  163.9212 C   0  0  2  0  0  0  0  0  0  0  0  0
  131.1511  137.0217  163.5622 H   0  0  0  0  0  0  0  0  0  0  0  0
  133.1707  137.5066  162.9909 C   0  0  0  0  0  0  0  0  0  0  0  0
  132.7781  137.9372  161.5761 C   0  0  1  0  0  0  0  0  0  0  0  0
  133.9840  137.7921  160.6457 C   0  0  0  0  0  0  0  0  0  0  0  0
  134.8999  138.9758  160.8223 C   0  0  0  0  0  0  0  0  0  0  0  0
  134.7311  140.1029  160.0400 C   0  0  0  0  0  0  0  0  0  0  0  0
  135.5682  141.1906  160.2052 C   0  0  0  0  0  0  0  0  0  0  0  0
  136.5807  141.1470  161.1454 C   0  0  0  0  0  0  0  0  0  0  0  0
  136.7527  140.0178  161.9240 C   0  0  0  0  0  0  0  0  0  0  0  0
  135.9124  138.9322  161.7623 C   0  0  0  0  0  0  0  0  0  0  0  0
  131.6815  137.0879  161.0924 N   0  0  0  0  0  0  0  0  0  0  0  0
  130.9110  137.7696  160.0427 C   0  0  0  0  0  0  0  0  0  0  0  0
  129.7455  136.8778  159.6090 C   0  0  0  0  0  0  0  0  0  0  0  0
  130.2671  135.6002  159.1060 N   0  0  0  0  0  0  0  0  0  0  0  0
  130.8809  135.7722  158.3239 H   0  0  0  0  0  0  0  0  0  0  0  0
  129.1489  134.7514  158.6731 C   0  0  0  0  0  0  0  0  0  0  0  0
  129.6586  133.6904  157.7323 C   0  0  0  0  0  0  0  0  0  0  0  0
  129.6992  133.9265  156.3922 C   0  0  0  0  0  0  0  0  0  0  0  0
  130.1676  132.9576  155.5070 C   0  0  0  0  0  0  0  0  0  0  0  0
  130.5983  131.7470  155.9565 C   0  0  0  0  0  0  0  0  0  0  0  0
  130.5714  131.4668  157.3330 C   0  0  0  0  0  0  0  0  0  0  0  0
  131.0083  130.2288  157.8348 C   0  0  0  0  0  0  0  0  0  0  0  0
  130.9680  129.9933  159.1745 C   0  0  0  0  0  0  0  0  0  0  0  0
  130.4995  130.9623  160.0600 C   0  0  0  0  0  0  0  0  0  0  0  0
  130.0685  132.1724  159.6105 C   0  0  0  0  0  0  0  0  0  0  0  0
  130.0949  132.4523  158.2335 C   0  0  0  0  0  0  0  0  0  0  0  0
  131.0132  134.9198  160.1728 C   0  0  0  0  0  0  0  0  0  0  0  0
  132.1892  135.7954  160.6113 C   0  0  0  0  0  0  0  0  0  0  0  0
  131.5154  139.0901  163.9403 C   0  0  0  0  0  0  0  0  0  0  0  0
  132.3723  140.0959  164.3601 C   0  0  0  0  0  0  0  0  0  0  0  0
  131.9268  141.4042  164.3592 C   0  0  0  0  0  0  0  0  0  0  0  0
  130.7000  141.6986  163.9756 N   0  0  0  0  0  0  0  0  0  0  0  0
  129.8561  140.7675  163.5756 C   0  0  0  0  0  0  0  0  0  0  0  0
  130.2330  139.4384  163.5442 C   0  0  0  0  0  0  0  0  0  0  0  0
  133.0515  137.7686  165.6259 H   0  0  0  0  0  0  0  0  0  0  0  0
  133.4958  136.4663  162.9770 H   0  0  0  0  0  0  0  0  0  0  0  0
  133.9844  138.1369  163.3498 H   0  0  0  0  0  0  0  0  0  0  0  0
  132.4529  138.9775  161.5901 H   0  0  0  0  0  0  0  0  0  0  0  0
  134.5227  136.8763  160.8893 H   0  0  0  0  0  0  0  0  0  0  0  0
  133.6420  137.7484  159.6116 H   0  0  0  0  0  0  0  0  0  0  0  0
  133.9429  140.1354  159.3024 H   0  0  0  0  0  0  0  0  0  0  0  0
  135.4340  142.0726  159.5966 H   0  0  0  0  0  0  0  0  0  0  0  0
  137.2375  141.9950  161.2713 H   0  0  0  0  0  0  0  0  0  0  0  0
  137.5440  139.9836  162.6583 H   0  0  0  0  0  0  0  0  0  0  0  0
  136.0470  138.0498  162.3704 H   0  0  0  0  0  0  0  0  0  0  0  0
  131.5569  137.9656  159.1868 H   0  0  0  0  0  0  0  0  0  0  0  0
  130.5235  138.7121  160.4295 H   0  0  0  0  0  0  0  0  0  0  0  0
  129.1811  137.3755  158.8206 H   0  0  0  0  0  0  0  0  0  0  0  0
  129.0926  136.6931  160.4621 H   0  0  0  0  0  0  0  0  0  0  0  0
  128.4052  135.3630  158.1623 H   0  0  0  0  0  0  0  0  0  0  0  0
  128.6943  134.2778  159.5432 H   0  0  0  0  0  0  0  0  0  0  0  0
  129.3636  134.8789  156.0095 H   0  0  0  0  0  0  0  0  0  0  0  0
  130.1896  133.1706  154.4484 H   0  0  0  0  0  0  0  0  0  0  0  0
  130.9629  131.0075  155.2589 H   0  0  0  0  0  0  0  0  0  0  0  0
  131.3738  129.4684  157.1606 H   0  0  0  0  0  0  0  0  0  0  0  0
  131.3039  129.0410  159.5574 H   0  0  0  0  0  0  0  0  0  0  0  0
  130.4778  130.7497  161.1186 H   0  0  0  0  0  0  0  0  0  0  0  0
  129.7084  132.9139  160.3084 H   0  0  0  0  0  0  0  0  0  0  0  0
  130.3538  134.7451  161.0229 H   0  0  0  0  0  0  0  0  0  0  0  0
  131.3886  133.9660  159.8023 H   0  0  0  0  0  0  0  0  0  0  0  0
  132.8562  135.9589  159.7646 H   0  0  0  0  0  0  0  0  0  0  0  0
  132.7347  135.2975  161.4129 H   0  0  0  0  0  0  0  0  0  0  0  0
  133.3768  139.8604  164.6797 H   0  0  0  0  0  0  0  0  0  0  0  0
  132.5898  142.1940  164.6802 H   0  0  0  0  0  0  0  0  0  0  0  0
  128.8591  141.0472  163.2686 H   0  0  0  0  0  0  0  0  0  0  0  0
  129.5377  138.6804  163.2150 H   0  0  0  0  0  0  0  0  0  0  0  0
  1  2  1  0
  1 37  1  0
  2  3  1  6
  2  4  1  0
  2 31  1  0
  4  5  1  0
  4 38  1  0
  4 39  1  0
  5  6  1  0
  5 13  1  0
  5 40  1  1
  6  7  1  0
  6 41  1  0
  6 42  1  0
  7 12  1  0
  7  8  2  0
  8  9  1  0
  8 43  1  0
  9 10  2  0
  9 44  1  0
 10 11  1  0
 10 45  1  0
 11 12  2  0
 11 46  1  0
 12 47  1  0
 13 30  1  0
 13 14  1  0
 14 15  1  0
 14 48  1  0
 14 49  1  0
 15 16  1  0
 15 50  1  0
 15 51  1  0
 16 17  1  0
 16 18  1  0
 16 29  1  0
 18 19  1  0
 18 52  1  0
 18 53  1  0
 19 28  1  0
 19 20  2  0
 20 21  1  0
 20 54  1  0
 21 22  2  0
 21 55  1  0
 22 23  1  0
 22 56  1  0
 23 28  2  0
 23 24  1  0
 24 25  2  0
 24 57  1  0
 25 26  1  0
 25 58  1  0
 26 27  2  0
 26 59  1  0
 27 28  1  0
 27 60  1  0
 29 30  1  0
 29 61  1  0
 29 62  1  0
 30 63  1  0
 30 64  1  0
 31 36  1  0
 31 32  2  0
 32 33  1  0
 32 65  1  0
 33 34  2  0
 33 66  1  0
 34 35  1  0
 35 36  2  0
 35 67  1  0
 36 68  1  0
M  CHG  1  16   1
M  END
>  <DOCK_score>  (1) 
-57.141682

>  <SMILES>  (1) 
O[C@H](CC(Cc1ccccc1)N1CC[NH+](Cc2cccc3ccccc23)CC1)c1ccncc1

$$$$
