c1ccc(-c2ccc(-c3nn(-c4ccccc4)cc3CNc3[nH]cc(C4CC4)[nH+]3)cc2)cc1
     RDKit          3D

 59 64  0  0  1  0  0  0  0  0999 V2000
  127.2038  135.0217  169.5427 C   0  0  0  0  0  0  0  0  0  0  0  0
  126.6369  134.9864  168.2814 C   0  0  0  0  0  0  0  0  0  0  0  0
  127.3945  135.3042  167.1725 C   0  0  0  0  0  0  0  0  0  0  0  0
  128.7331  135.6615  167.3254 C   0  0  0  0  0  0  0  0  0  0  0  0
  129.5524  136.0037  166.1374 C   0  0  0  0  0  0  0  0  0  0  0  0
  128.9507  136.5748  165.0164 C   0  0  0  0  0  0  0  0  0  0  0  0
  129.7126  136.8980  163.9153 C   0  0  0  0  0  0  0  0  0  0  0  0
  131.0847  136.6490  163.9194 C   0  0  0  0  0  0  0  0  0  0  0  0
  131.9049  136.9962  162.7336 C   0  0  0  0  0  0  0  0  0  0  0  0
  132.9233  137.8311  162.7151 N   0  0  0  0  0  0  0  0  0  0  0  0
  133.4233  137.8803  161.4076 N   0  0  0  0  0  0  0  0  0  0  0  0
  134.5073  138.6522  160.9691 C   0  0  0  0  0  0  0  0  0  0  0  0
  134.9041  138.6025  159.6394 C   0  0  0  0  0  0  0  0  0  0  0  0
  135.9694  139.3691  159.2090 C   0  0  0  0  0  0  0  0  0  0  0  0
  136.6478  140.1765  160.1033 C   0  0  0  0  0  0  0  0  0  0  0  0
  136.2586  140.2240  161.4294 C   0  0  0  0  0  0  0  0  0  0  0  0
  135.1906  139.4641  161.8647 C   0  0  0  0  0  0  0  0  0  0  0  0
  132.6732  137.0479  160.6390 C   0  0  0  0  0  0  0  0  0  0  0  0
  131.7348  136.4856  161.4312 C   0  0  0  0  0  0  0  0  0  0  0  0
  130.6883  135.4916  160.9981 C   0  0  0  0  0  0  0  0  0  0  0  0
  130.8410  135.2135  159.5680 N   0  0  0  0  0  0  0  0  0  0  0  0
  130.4846  133.9747  159.0615 C   0  0  0  0  0  0  0  0  0  0  0  0
  129.9777  132.9372  159.7804 N   0  0  0  0  0  0  0  0  0  0  0  0
  129.8003  132.9283  160.7340 H   0  0  0  0  0  0  0  0  0  0  0  0
  129.7637  131.9023  158.8981 C   0  0  0  0  0  0  0  0  0  0  0  0
  130.1426  132.3375  157.6846 C   0  0  0  0  0  0  0  0  0  0  0  0
  130.0880  131.5427  156.4053 C   0  0  0  0  0  0  0  0  0  0  0  0
  131.2293  130.5604  156.1348 C   0  0  0  0  0  0  0  0  0  0  0  0
  131.1308  131.8598  155.3316 C   0  0  0  0  0  0  0  0  0  0  0  0
  130.5734  133.6047  157.8058 N   0  0  0  0  0  0  0  0  0  0  0  0
  130.9008  134.1581  157.0796 H   0  0  0  0  0  0  0  0  0  0  0  0
  131.6855  136.0728  165.0382 C   0  0  0  0  0  0  0  0  0  0  0  0
  130.9236  135.7498  166.1395 C   0  0  0  0  0  0  0  0  0  0  0  0
  129.3003  135.6902  168.5982 C   0  0  0  0  0  0  0  0  0  0  0  0
  128.5317  135.3755  169.7004 C   0  0  0  0  0  0  0  0  0  0  0  0
  126.6073  134.7718  170.4077 H   0  0  0  0  0  0  0  0  0  0  0  0
  125.5998  134.7091  168.1642 H   0  0  0  0  0  0  0  0  0  0  0  0
  126.9511  135.2760  166.1882 H   0  0  0  0  0  0  0  0  0  0  0  0
  127.8882  136.7680  165.0134 H   0  0  0  0  0  0  0  0  0  0  0  0
  129.2474  137.3444  163.0488 H   0  0  0  0  0  0  0  0  0  0  0  0
  134.3775  137.9686  158.9415 H   0  0  0  0  0  0  0  0  0  0  0  0
  136.2754  139.3345  158.1740 H   0  0  0  0  0  0  0  0  0  0  0  0
  137.4831  140.7720  159.7654 H   0  0  0  0  0  0  0  0  0  0  0  0
  136.7903  140.8559  162.1254 H   0  0  0  0  0  0  0  0  0  0  0  0
  134.8869  139.5018  162.9004 H   0  0  0  0  0  0  0  0  0  0  0  0
  132.8069  136.8645  159.5831 H   0  0  0  0  0  0  0  0  0  0  0  0
  130.8094  134.5672  161.5630 H   0  0  0  0  0  0  0  0  0  0  0  0
  129.6966  135.9038  161.1842 H   0  0  0  0  0  0  0  0  0  0  0  0
  131.1916  135.8969  158.9757 H   0  0  0  0  0  0  0  0  0  0  0  0
  129.3668  130.9264  159.1360 H   0  0  0  0  0  0  0  0  0  0  0  0
  129.0902  131.2597  156.0699 H   0  0  0  0  0  0  0  0  0  0  0  0
  132.0197  130.4890  156.8819 H   0  0  0  0  0  0  0  0  0  0  0  0
  130.9827  129.6314  155.6209 H   0  0  0  0  0  0  0  0  0  0  0  0
  130.8192  131.7850  154.2898 H   0  0  0  0  0  0  0  0  0  0  0  0
  131.8564  132.6432  155.5505 H   0  0  0  0  0  0  0  0  0  0  0  0
  132.7482  135.8796  165.0414 H   0  0  0  0  0  0  0  0  0  0  0  0
  131.3889  135.3040  167.0061 H   0  0  0  0  0  0  0  0  0  0  0  0
  130.3381  135.9620  168.7220 H   0  0  0  0  0  0  0  0  0  0  0  0
  128.9689  135.4018  170.6877 H   0  0  0  0  0  0  0  0  0  0  0  0
  1 35  2  0
  1  2  1  0
  1 36  1  0
  2  3  2  0
  2 37  1  0
  3  4  1  0
  3 38  1  0
  4  5  1  0
  4 34  2  0
  5 33  1  0
  5  6  2  0
  6  7  1  0
  6 39  1  0
  7  8  2  0
  7 40  1  0
  8  9  1  0
  8 32  1  0
  9 19  1  0
  9 10  2  0
 10 11  1  0
 11 12  1  0
 11 18  1  0
 12 17  1  0
 12 13  2  0
 13 14  1  0
 13 41  1  0
 14 15  2  0
 14 42  1  0
 15 16  1  0
 15 43  1  0
 16 17  2  0
 16 44  1  0
 17 45  1  0
 18 19  2  0
 18 46  1  0
 19 20  1  0
 20 21  1  0
 20 47  1  0
 20 48  1  0
 21 49  1  0
 22 21  1  0
 22 30  2  0
 22 23  1  0
 23 24  1  0
 23 25  1  0
 25 26  2  0
 25 50  1  0
 26 27  1  0
 26 30  1  0
 27 29  1  0
 27 28  1  0
 27 51  1  0
 28 29  1  0
 28 52  1  0
 28 53  1  0
 29 54  1  0
 29 55  1  0
 30 31  1  0
 32 33  2  0
 32 56  1  0
 33 57  1  0
 34 35  1  0
 34 58  1  0
 35 59  1  0
M  CHG  1  30   1
M  END
>  <DOCK_score>  (1) 
-57.328156

>  <SMILES>  (1) 
c1ccc(-c2ccc(-c3nn(-c4ccccc4)cc3CNc3[nH]cc(C4CC4)[nH+]3)cc2)cc1

$$$$
