CCn1ncnc1CNc1cccc(N2CC[NH+](C(c3ccccc3)c3ccccc3)CC2)c1
     RDKit          3D

 67 71  0  0  1  0  0  0  0  0999 V2000
  135.8645  138.7311  167.6273 C   0  0  0  0  0  0  0  0  0  0  0  0
  137.0325  139.1381  166.7266 C   0  0  0  0  0  0  0  0  0  0  0  0
  136.9240  140.5620  166.3996 N   0  0  0  0  0  0  0  0  0  0  0  0
  137.4723  141.6354  167.1204 N   0  0  0  0  0  0  0  0  0  0  0  0
  137.1374  142.7273  166.4847 C   0  0  0  0  0  0  0  0  0  0  0  0
  136.4197  142.3999  165.4109 N   0  0  0  0  0  0  0  0  0  0  0  0
  136.2791  141.1006  165.3503 C   0  0  0  0  0  0  0  0  0  0  0  0
  135.5303  140.3402  164.2863 C   0  0  0  0  0  0  0  0  0  0  0  0
  135.8775  140.8756  162.9676 N   0  0  0  0  0  0  0  0  0  0  0  0
  135.3042  140.3272  161.8181 C   0  0  0  0  0  0  0  0  0  0  0  0
  135.6334  140.8343  160.5666 C   0  0  0  0  0  0  0  0  0  0  0  0
  135.0673  140.2921  159.4292 C   0  0  0  0  0  0  0  0  0  0  0  0
  134.1678  139.2483  159.5318 C   0  0  0  0  0  0  0  0  0  0  0  0
  133.8386  138.7328  160.7794 C   0  0  0  0  0  0  0  0  0  0  0  0
  132.9334  137.6741  160.8819 N   0  0  0  0  0  0  0  0  0  0  0  0
  133.4589  136.4666  160.2292 C   0  0  0  0  0  0  0  0  0  0  0  0
  132.4664  135.3169  160.4151 C   0  0  0  0  0  0  0  0  0  0  0  0
  131.1719  135.6875  159.8282 N   0  0  0  0  0  0  0  0  0  0  0  0
  131.2924  135.8852  158.8461 H   0  0  0  0  0  0  0  0  0  0  0  0
  130.2247  134.5766  159.9908 C   0  0  0  0  0  0  0  0  0  0  0  0
  128.8965  134.9566  159.3887 C   0  0  0  0  0  0  0  0  0  0  0  0
  127.7276  134.4278  159.9037 C   0  0  0  0  0  0  0  0  0  0  0  0
  126.5089  134.7801  159.3545 C   0  0  0  0  0  0  0  0  0  0  0  0
  126.4595  135.6530  158.2845 C   0  0  0  0  0  0  0  0  0  0  0  0
  127.6291  136.1777  157.7656 C   0  0  0  0  0  0  0  0  0  0  0  0
  128.8473  135.8295  158.3179 C   0  0  0  0  0  0  0  0  0  0  0  0
  130.7608  133.3531  159.2932 C   0  0  0  0  0  0  0  0  0  0  0  0
  130.4435  133.1181  157.9684 C   0  0  0  0  0  0  0  0  0  0  0  0
  130.9391  131.9984  157.3271 C   0  0  0  0  0  0  0  0  0  0  0  0
  131.7437  131.1082  158.0135 C   0  0  0  0  0  0  0  0  0  0  0  0
  132.0569  131.3404  159.3398 C   0  0  0  0  0  0  0  0  0  0  0  0
  131.5655  132.4629  159.9796 C   0  0  0  0  0  0  0  0  0  0  0  0
  130.6483  136.8804  160.5068 C   0  0  0  0  0  0  0  0  0  0  0  0
  131.6257  138.0432  160.3216 C   0  0  0  0  0  0  0  0  0  0  0  0
  134.4057  139.2752  161.9242 C   0  0  0  0  0  0  0  0  0  0  0  0
  135.9453  137.6718  167.8707 H   0  0  0  0  0  0  0  0  0  0  0  0
  135.8921  139.3180  168.5454 H   0  0  0  0  0  0  0  0  0  0  0  0
  134.9240  138.9138  167.1073 H   0  0  0  0  0  0  0  0  0  0  0  0
  137.0049  138.5512  165.8085 H   0  0  0  0  0  0  0  0  0  0  0  0
  137.9730  138.9553  167.2465 H   0  0  0  0  0  0  0  0  0  0  0  0
  137.4035  143.7318  166.7793 H   0  0  0  0  0  0  0  0  0  0  0  0
  134.4580  140.4461  164.4507 H   0  0  0  0  0  0  0  0  0  0  0  0
  135.8026  139.2858  164.3336 H   0  0  0  0  0  0  0  0  0  0  0  0
  136.5054  141.6110  162.8928 H   0  0  0  0  0  0  0  0  0  0  0  0
  136.3324  141.6534  160.4834 H   0  0  0  0  0  0  0  0  0  0  0  0
  135.3248  140.6880  158.4580 H   0  0  0  0  0  0  0  0  0  0  0  0
  133.7232  138.8297  158.6409 H   0  0  0  0  0  0  0  0  0  0  0  0
  133.5972  136.6593  159.1654 H   0  0  0  0  0  0  0  0  0  0  0  0
  134.4152  136.1977  160.6778 H   0  0  0  0  0  0  0  0  0  0  0  0
  132.3387  135.1155  161.4787 H   0  0  0  0  0  0  0  0  0  0  0  0
  132.8477  134.4240  159.9195 H   0  0  0  0  0  0  0  0  0  0  0  0
  130.0948  134.3623  161.0517 H   0  0  0  0  0  0  0  0  0  0  0  0
  127.7664  133.7424  160.7374 H   0  0  0  0  0  0  0  0  0  0  0  0
  125.5956  134.3700  159.7591 H   0  0  0  0  0  0  0  0  0  0  0  0
  125.5079  135.9248  157.8518 H   0  0  0  0  0  0  0  0  0  0  0  0
  127.5907  136.8594  156.9287 H   0  0  0  0  0  0  0  0  0  0  0  0
  129.7608  136.2391  157.9128 H   0  0  0  0  0  0  0  0  0  0  0  0
  129.8113  133.8114  157.4334 H   0  0  0  0  0  0  0  0  0  0  0  0
  130.6943  131.8168  156.2910 H   0  0  0  0  0  0  0  0  0  0  0  0
  132.1275  130.2311  157.5136 H   0  0  0  0  0  0  0  0  0  0  0  0
  132.6851  130.6447  159.8761 H   0  0  0  0  0  0  0  0  0  0  0  0
  131.8097  132.6442  161.0159 H   0  0  0  0  0  0  0  0  0  0  0  0
  130.5299  136.6710  161.5699 H   0  0  0  0  0  0  0  0  0  0  0  0
  129.6817  137.1467  160.0791 H   0  0  0  0  0  0  0  0  0  0  0  0
  131.2446  138.9244  160.8377 H   0  0  0  0  0  0  0  0  0  0  0  0
  131.7338  138.2618  159.2593 H   0  0  0  0  0  0  0  0  0  0  0  0
  134.1485  138.8791  162.8955 H   0  0  0  0  0  0  0  0  0  0  0  0
  1  2  1  0
  1 36  1  0
  1 37  1  0
  1 38  1  0
  2  3  1  0
  2 39  1  0
  2 40  1  0
  3  7  1  0
  3  4  1  0
  4  5  2  0
  5  6  1  0
  5 41  1  0
  6  7  2  0
  7  8  1  0
  8  9  1  0
  8 42  1  0
  8 43  1  0
  9 10  1  0
  9 44  1  0
 10 35  1  0
 10 11  2  0
 11 12  1  0
 11 45  1  0
 12 13  2  0
 12 46  1  0
 13 14  1  0
 13 47  1  0
 14 15  1  0
 14 35  2  0
 15 34  1  0
 15 16  1  0
 16 17  1  0
 16 48  1  0
 16 49  1  0
 17 18  1  0
 17 50  1  0
 17 51  1  0
 18 19  1  0
 18 20  1  0
 18 33  1  0
 20 21  1  0
 20 27  1  0
 20 52  1  0
 21 26  1  0
 21 22  2  0
 22 23  1  0
 22 53  1  0
 23 24  2  0
 23 54  1  0
 24 25  1  0
 24 55  1  0
 25 26  2  0
 25 56  1  0
 26 57  1  0
 27 32  1  0
 27 28  2  0
 28 29  1  0
 28 58  1  0
 29 30  2  0
 29 59  1  0
 30 31  1  0
 30 60  1  0
 31 32  2  0
 31 61  1  0
 32 62  1  0
 33 34  1  0
 33 63  1  0
 33 64  1  0
 34 65  1  0
 34 66  1  0
 35 67  1  0
M  CHG  1  18   1
M  END
>  <DOCK_score>  (1) 
-60.392567

>  <SMILES>  (1) 
CCn1ncnc1CNc1cccc(N2CC[NH+](C(c3ccccc3)c3ccccc3)CC2)c1

$$$$
