CCC(c1cccc(Cl)c1)[C@H](Nc1[nH]cc(-c2ccc(N)cc2)[nH+]1)c1ccnn1C
     RDKit          3D

 56 59  0  0  1  0  0  0  0  0999 V2000
  129.1144  138.4414  162.2205 C   0  0  0  0  0  0  0  0  0  0  0  0
  128.7274  137.0894  161.6182 C   0  0  0  0  0  0  0  0  0  0  0  0
  129.5245  136.8564  160.3332 C   0  0  1  0  0  0  0  0  0  0  0  0
  130.9982  136.8625  160.6483 C   0  0  0  0  0  0  0  0  0  0  0  0
  131.5188  135.9396  161.5365 C   0  0  0  0  0  0  0  0  0  0  0  0
  132.8704  135.9445  161.8261 C   0  0  0  0  0  0  0  0  0  0  0  0
  133.7023  136.8724  161.2278 C   0  0  0  0  0  0  0  0  0  0  0  0
  133.1819  137.7959  160.3389 C   0  0  0  0  0  0  0  0  0  0  0  0
  134.2259  138.9617  159.5876 Cl  0  0  0  0  0  0  0  0  0  0  0  0
  131.8298  137.7868  160.0452 C   0  0  0  0  0  0  0  0  0  0  0  0
  129.1373  135.5044  159.7308 C   0  0  2  0  0  0  0  0  0  0  0  0
  129.0179  134.7718  160.5291 H   0  0  0  0  0  0  0  0  0  0  0  0
  130.1891  135.0595  158.8131 N   0  0  0  0  0  0  0  0  0  0  0  0
  130.0599  133.8542  158.1444 C   0  0  0  0  0  0  0  0  0  0  0  0
  129.3942  132.7600  158.6042 N   0  0  0  0  0  0  0  0  0  0  0  0
  128.9263  132.6858  159.4506 H   0  0  0  0  0  0  0  0  0  0  0  0
  129.5023  131.7814  157.6446 C   0  0  0  0  0  0  0  0  0  0  0  0
  130.2303  132.3061  156.6282 C   0  0  0  0  0  0  0  0  0  0  0  0
  130.6027  131.6110  155.3716 C   0  0  0  0  0  0  0  0  0  0  0  0
  130.1859  132.1195  154.1425 C   0  0  0  0  0  0  0  0  0  0  0  0
  130.5385  131.4752  152.9755 C   0  0  0  0  0  0  0  0  0  0  0  0
  131.2986  130.3125  153.0248 C   0  0  0  0  0  0  0  0  0  0  0  0
  131.6493  129.6579  151.8415 N   0  0  0  0  0  0  0  0  0  0  0  0
  131.7105  129.8005  154.2494 C   0  0  0  0  0  0  0  0  0  0  0  0
  131.3653  130.4450  155.4186 C   0  0  0  0  0  0  0  0  0  0  0  0
  130.5580  133.5790  156.9635 N   0  0  0  0  0  0  0  0  0  0  0  0
  131.0780  134.1885  156.4167 H   0  0  0  0  0  0  0  0  0  0  0  0
  127.8394  135.6431  158.9779 C   0  0  0  0  0  0  0  0  0  0  0  0
  127.7061  135.9630  157.6699 C   0  0  0  0  0  0  0  0  0  0  0  0
  126.3401  135.9859  157.3694 C   0  0  0  0  0  0  0  0  0  0  0  0
  125.6773  135.6903  158.4581 N   0  0  0  0  0  0  0  0  0  0  0  0
  126.6019  135.4648  159.4858 N   0  0  0  0  0  0  0  0  0  0  0  0
  126.2819  135.1023  160.8687 C   0  0  0  0  0  0  0  0  0  0  0  0
  130.1804  138.4457  162.4484 H   0  0  0  0  0  0  0  0  0  0  0  0
  128.8924  139.2344  161.5064 H   0  0  0  0  0  0  0  0  0  0  0  0
  128.5466  138.6074  163.1360 H   0  0  0  0  0  0  0  0  0  0  0  0
  127.6614  137.0851  161.3903 H   0  0  0  0  0  0  0  0  0  0  0  0
  128.9494  136.2964  162.3324 H   0  0  0  0  0  0  0  0  0  0  0  0
  129.3023  137.6493  159.6191 H   0  0  0  0  0  0  0  0  0  0  0  0
  130.8693  135.2143  162.0040 H   0  0  0  0  0  0  0  0  0  0  0  0
  133.2765  135.2231  162.5196 H   0  0  0  0  0  0  0  0  0  0  0  0
  134.7582  136.8763  161.4543 H   0  0  0  0  0  0  0  0  0  0  0  0
  131.4236  138.5048  159.3481 H   0  0  0  0  0  0  0  0  0  0  0  0
  130.9759  135.6093  158.6741 H   0  0  0  0  0  0  0  0  0  0  0  0
  129.0867  130.7857  157.6914 H   0  0  0  0  0  0  0  0  0  0  0  0
  129.5909  133.0200  154.1041 H   0  0  0  0  0  0  0  0  0  0  0  0
  130.2198  131.8715  152.0228 H   0  0  0  0  0  0  0  0  0  0  0  0
  132.1801  128.8468  151.8751 H   0  0  0  0  0  0  0  0  0  0  0  0
  131.3623  130.0148  150.9864 H   0  0  0  0  0  0  0  0  0  0  0  0
  132.3010  128.8969  154.2854 H   0  0  0  0  0  0  0  0  0  0  0  0
  131.6860  130.0469  156.3700 H   0  0  0  0  0  0  0  0  0  0  0  0
  128.5119  136.1652  156.9799 H   0  0  0  0  0  0  0  0  0  0  0  0
  125.9075  136.2095  156.4055 H   0  0  0  0  0  0  0  0  0  0  0  0
  126.1625  136.0081  161.4634 H   0  0  0  0  0  0  0  0  0  0  0  0
  125.3548  134.5294  160.8891 H   0  0  0  0  0  0  0  0  0  0  0  0
  127.0904  134.4999  161.2829 H   0  0  0  0  0  0  0  0  0  0  0  0
  1  2  1  0
  1 34  1  0
  1 35  1  0
  1 36  1  0
  2  3  1  0
  2 37  1  0
  2 38  1  0
  3  4  1  0
  3 11  1  0
  3 39  1  6
  4 10  1  0
  4  5  2  0
  5  6  1  0
  5 40  1  0
  6  7  2  0
  6 41  1  0
  7  8  1  0
  7 42  1  0
  8  9  1  0
  8 10  2  0
 10 43  1  0
 11 12  1  1
 11 13  1  0
 11 28  1  0
 13 44  1  0
 14 13  1  0
 14 26  2  0
 14 15  1  0
 15 16  1  0
 15 17  1  0
 17 18  2  0
 17 45  1  0
 18 19  1  0
 18 26  1  0
 19 25  1  0
 19 20  2  0
 20 21  1  0
 20 46  1  0
 21 22  2  0
 21 47  1  0
 22 23  1  0
 22 24  1  0
 23 48  1  0
 23 49  1  0
 24 25  2  0
 24 50  1  0
 25 51  1  0
 26 27  1  0
 28 32  1  0
 28 29  2  0
 29 30  1  0
 29 52  1  0
 30 31  2  0
 30 53  1  0
 31 32  1  0
 32 33  1  0
 33 54  1  0
 33 55  1  0
 33 56  1  0
M  CHG  1  26   1
M  END
>  <DOCK_score>  (1) 
-62.065266

>  <SMILES>  (1) 
CCC(c1cccc(Cl)c1)[C@H](Nc1[nH]cc(-c2ccc(N)cc2)[nH+]1)c1ccnn1C

$$$$
