Nc1ccc(-c2c[nH]c(NC(C[C@H]3CC=CCC3)c3ccccc3)[nH+]2)cc1
     RDKit          3D

 54 57  0  0  1  0  0  0  0  0999 V2000
  131.1487  129.7577  151.8266 N   0  0  0  0  0  0  0  0  0  0  0  0
  130.9064  130.4249  153.0299 C   0  0  0  0  0  0  0  0  0  0  0  0
  130.2548  131.6530  153.0235 C   0  0  0  0  0  0  0  0  0  0  0  0
  130.0145  132.3131  154.2101 C   0  0  0  0  0  0  0  0  0  0  0  0
  130.4257  131.7482  155.4164 C   0  0  0  0  0  0  0  0  0  0  0  0
  130.1688  132.4567  156.6942 C   0  0  0  0  0  0  0  0  0  0  0  0
  129.4363  131.9866  157.7338 C   0  0  0  0  0  0  0  0  0  0  0  0
  129.4613  132.9551  158.7093 N   0  0  0  0  0  0  0  0  0  0  0  0
  129.0293  132.9086  159.5765 H   0  0  0  0  0  0  0  0  0  0  0  0
  130.2014  133.9924  158.2321 C   0  0  0  0  0  0  0  0  0  0  0  0
  130.4679  135.1709  158.9078 N   0  0  0  0  0  0  0  0  0  0  0  0
  129.9349  135.3786  160.2565 C   0  0  1  0  0  0  0  0  0  0  0  0
  130.3728  136.7509  160.7724 C   0  0  0  0  0  0  0  0  0  0  0  0
  130.2656  136.7800  162.2984 C   0  0  1  0  0  0  0  0  0  0  0  0
  129.3601  136.2605  162.6120 H   0  0  0  0  0  0  0  0  0  0  0  0
  131.4893  136.0972  162.9132 C   0  0  0  0  0  0  0  0  0  0  0  0
  131.5327  136.3480  164.3921 C   0  0  0  0  0  0  0  0  0  0  0  0
  130.8621  137.2803  164.9895 C   0  0  0  0  0  0  0  0  0  0  0  0
  129.9404  138.2344  164.2880 C   0  0  0  0  0  0  0  0  0  0  0  0
  130.2206  138.2341  162.7845 C   0  0  0  0  0  0  0  0  0  0  0  0
  128.4297  135.3137  160.2173 C   0  0  0  0  0  0  0  0  0  0  0  0
  127.7286  134.8604  161.3191 C   0  0  0  0  0  0  0  0  0  0  0  0
  126.3478  134.8046  161.2846 C   0  0  0  0  0  0  0  0  0  0  0  0
  125.6686  135.1942  160.1453 C   0  0  0  0  0  0  0  0  0  0  0  0
  126.3701  135.6425  159.0417 C   0  0  0  0  0  0  0  0  0  0  0  0
  127.7506  135.7020  159.0777 C   0  0  0  0  0  0  0  0  0  0  0  0
  130.6253  133.6894  157.0293 N   0  0  0  0  0  0  0  0  0  0  0  0
  131.1777  134.2562  156.4683 H   0  0  0  0  0  0  0  0  0  0  0  0
  131.0837  130.5193  155.4196 C   0  0  0  0  0  0  0  0  0  0  0  0
  131.3167  129.8600  154.2311 C   0  0  0  0  0  0  0  0  0  0  0  0
  130.8622  130.1521  150.9873 H   0  0  0  0  0  0  0  0  0  0  0  0
  131.6033  128.9016  151.8297 H   0  0  0  0  0  0  0  0  0  0  0  0
  129.9361  132.0901  152.0888 H   0  0  0  0  0  0  0  0  0  0  0  0
  129.5085  133.2672  154.2049 H   0  0  0  0  0  0  0  0  0  0  0  0
  128.9333  131.0324  157.7872 H   0  0  0  0  0  0  0  0  0  0  0  0
  131.0075  135.8593  158.4883 H   0  0  0  0  0  0  0  0  0  0  0  0
  130.3148  134.6024  160.9209 H   0  0  0  0  0  0  0  0  0  0  0  0
  131.4054  136.9374  160.4771 H   0  0  0  0  0  0  0  0  0  0  0  0
  129.7289  137.5210  160.3482 H   0  0  0  0  0  0  0  0  0  0  0  0
  131.4343  135.0241  162.7301 H   0  0  0  0  0  0  0  0  0  0  0  0
  132.3941  136.4942  162.4528 H   0  0  0  0  0  0  0  0  0  0  0  0
  132.1626  135.7112  164.9955 H   0  0  0  0  0  0  0  0  0  0  0  0
  130.9732  137.3777  166.0594 H   0  0  0  0  0  0  0  0  0  0  0  0
  128.9076  137.9309  164.4594 H   0  0  0  0  0  0  0  0  0  0  0  0
  130.0902  139.2386  164.6843 H   0  0  0  0  0  0  0  0  0  0  0  0
  131.1807  138.7140  162.5943 H   0  0  0  0  0  0  0  0  0  0  0  0
  129.4291  138.7709  162.2613 H   0  0  0  0  0  0  0  0  0  0  0  0
  128.2594  134.5529  162.2079 H   0  0  0  0  0  0  0  0  0  0  0  0
  125.7998  134.4541  162.1465 H   0  0  0  0  0  0  0  0  0  0  0  0
  124.5899  135.1482  160.1174 H   0  0  0  0  0  0  0  0  0  0  0  0
  125.8395  135.9466  158.1515 H   0  0  0  0  0  0  0  0  0  0  0  0
  128.2987  136.0523  158.2155 H   0  0  0  0  0  0  0  0  0  0  0  0
  131.4071  130.0819  156.3526 H   0  0  0  0  0  0  0  0  0  0  0  0
  131.8226  128.9059  154.2335 H   0  0  0  0  0  0  0  0  0  0  0  0
  1  2  1  0
  1 31  1  0
  1 32  1  0
  2 30  2  0
  2  3  1  0
  3  4  2  0
  3 33  1  0
  4  5  1  0
  4 34  1  0
  5  6  1  0
  5 29  2  0
  6 27  1  0
  6  7  2  0
  7  8  1  0
  7 35  1  0
  8  9  1  0
  8 10  1  0
 10 11  1  0
 10 27  2  0
 11 12  1  0
 11 36  1  0
 12 13  1  0
 12 21  1  0
 12 37  1  1
 13 14  1  0
 13 38  1  0
 13 39  1  0
 14 15  1  6
 14 20  1  0
 14 16  1  0
 16 17  1  0
 16 40  1  0
 16 41  1  0
 17 18  2  0
 17 42  1  0
 18 19  1  0
 18 43  1  0
 19 20  1  0
 19 44  1  0
 19 45  1  0
 20 46  1  0
 20 47  1  0
 21 26  1  0
 21 22  2  0
 22 23  1  0
 22 48  1  0
 23 24  2  0
 23 49  1  0
 24 25  1  0
 24 50  1  0
 25 26  2  0
 25 51  1  0
 26 52  1  0
 27 28  1  0
 29 30  1  0
 29 53  1  0
 30 54  1  0
M  CHG  1  27   1
M  END
>  <DOCK_score>  (1) 
-56.108448

>  <SMILES>  (1) 
Nc1ccc(-c2c[nH]c(NC(C[C@H]3CC=CCC3)c3ccccc3)[nH+]2)cc1

$$$$
