Oc1ccc(Nc2[nH]cc(-c3ccc(Br)cc3)[nH+]2)cc1
     RDKit          3D

 33 35  0  0  1  0  0  0  0  0999 V2000
  126.6154  136.3363  163.0273 O   0  0  0  0  0  0  0  0  0  0  0  0
  127.4862  136.0246  162.0304 C   0  0  0  0  0  0  0  0  0  0  0  0
  128.6939  135.4121  162.3315 C   0  0  0  0  0  0  0  0  0  0  0  0
  129.5788  135.0949  161.3199 C   0  0  0  0  0  0  0  0  0  0  0  0
  129.2593  135.3891  160.0009 C   0  0  0  0  0  0  0  0  0  0  0  0
  130.1559  135.0677  158.9746 N   0  0  0  0  0  0  0  0  0  0  0  0
  130.0823  133.8326  158.3522 C   0  0  0  0  0  0  0  0  0  0  0  0
  129.6595  132.6761  158.9327 N   0  0  0  0  0  0  0  0  0  0  0  0
  129.3582  132.5696  159.8485 H   0  0  0  0  0  0  0  0  0  0  0  0
  129.7351  131.6887  157.9811 C   0  0  0  0  0  0  0  0  0  0  0  0
  130.2101  132.2673  156.8502 C   0  0  0  0  0  0  0  0  0  0  0  0
  130.4619  131.5824  155.5587 C   0  0  0  0  0  0  0  0  0  0  0  0
  129.7862  131.9875  154.4089 C   0  0  0  0  0  0  0  0  0  0  0  0
  130.0284  131.3508  153.2088 C   0  0  0  0  0  0  0  0  0  0  0  0
  130.9322  130.3039  153.1481 C   0  0  0  0  0  0  0  0  0  0  0  0
  131.2537  129.4314  151.5015 Br  0  0  0  0  0  0  0  0  0  0  0  0
  131.6015  129.8942  154.2881 C   0  0  0  0  0  0  0  0  0  0  0  0
  131.3709  130.5280  155.4919 C   0  0  0  0  0  0  0  0  0  0  0  0
  130.4137  133.5831  157.1088 N   0  0  0  0  0  0  0  0  0  0  0  0
  130.7509  134.2354  156.4749 H   0  0  0  0  0  0  0  0  0  0  0  0
  128.0525  136.0072  159.7009 C   0  0  0  0  0  0  0  0  0  0  0  0
  127.1661  136.3185  160.7131 C   0  0  0  0  0  0  0  0  0  0  0  0
  125.8022  136.7604  162.7207 H   0  0  0  0  0  0  0  0  0  0  0  0
  128.9424  135.1838  163.3574 H   0  0  0  0  0  0  0  0  0  0  0  0
  130.5191  134.6185  161.5547 H   0  0  0  0  0  0  0  0  0  0  0  0
  130.8259  135.7117  158.6968 H   0  0  0  0  0  0  0  0  0  0  0  0
  129.4716  130.6493  158.1101 H   0  0  0  0  0  0  0  0  0  0  0  0
  129.0773  132.8009  154.4563 H   0  0  0  0  0  0  0  0  0  0  0  0
  129.5084  131.6665  152.3165 H   0  0  0  0  0  0  0  0  0  0  0  0
  132.3054  129.0767  154.2353 H   0  0  0  0  0  0  0  0  0  0  0  0
  131.8939  130.2077  156.3808 H   0  0  0  0  0  0  0  0  0  0  0  0
  127.8051  136.2404  158.6758 H   0  0  0  0  0  0  0  0  0  0  0  0
  126.2257  136.7952  160.4796 H   0  0  0  0  0  0  0  0  0  0  0  0
  1  2  1  0
  1 23  1  0
  2 22  2  0
  2  3  1  0
  3  4  2  0
  3 24  1  0
  4  5  1  0
  4 25  1  0
  5  6  1  0
  5 21  2  0
  6 26  1  0
  7  6  1  0
  7 19  2  0
  7  8  1  0
  8  9  1  0
  8 10  1  0
 10 11  2  0
 10 27  1  0
 11 12  1  0
 11 19  1  0
 12 18  1  0
 12 13  2  0
 13 14  1  0
 13 28  1  0
 14 15  2  0
 14 29  1  0
 15 16  1  0
 15 17  1  0
 17 18  2  0
 17 30  1  0
 18 31  1  0
 19 20  1  0
 21 22  1  0
 21 32  1  0
 22 33  1  0
M  CHG  1  19   1
M  END
>  <DOCK_score>  (1) 
-47.33847

>  <SMILES>  (1) 
Oc1ccc(Nc2[nH]cc(-c3ccc(Br)cc3)[nH+]2)cc1

$$$$
