CCc1ccc(-c2c[nH]c(N[C@@H](Cc3nc4cc(Cl)ccc4[nH]3)c3ccc(F)cc3)[nH+]2)cc1
     RDKit          3D

 57 61  0  0  1  0  0  0  0  0999 V2000
  130.5197  128.4872  151.1189 C   0  0  0  0  0  0  0  0  0  0  0  0
  131.6085  129.4940  151.4950 C   0  0  0  0  0  0  0  0  0  0  0  0
  131.2227  130.1984  152.7701 C   0  0  0  0  0  0  0  0  0  0  0  0
  131.6091  129.6748  153.9903 C   0  0  0  0  0  0  0  0  0  0  0  0
  131.2635  130.3186  155.1611 C   0  0  0  0  0  0  0  0  0  0  0  0
  130.5140  131.4926  155.1127 C   0  0  0  0  0  0  0  0  0  0  0  0
  130.1348  132.1861  156.3679 C   0  0  0  0  0  0  0  0  0  0  0  0
  129.3950  131.6627  157.3767 C   0  0  0  0  0  0  0  0  0  0  0  0
  129.2839  132.6384  158.3373 N   0  0  0  0  0  0  0  0  0  0  0  0
  128.8109  132.5630  159.1807 H   0  0  0  0  0  0  0  0  0  0  0  0
  129.9598  133.7304  157.8870 C   0  0  0  0  0  0  0  0  0  0  0  0
  130.0901  134.9325  158.5611 N   0  0  0  0  0  0  0  0  0  0  0  0
  129.0328  135.3807  159.4707 C   0  0  1  0  0  0  0  0  0  0  0  0
  128.9016  134.6462  160.2652 H   0  0  0  0  0  0  0  0  0  0  0  0
  129.4226  136.7284  160.0812 C   0  0  0  0  0  0  0  0  0  0  0  0
  130.7128  136.5794  160.8454 C   0  0  0  0  0  0  0  0  0  0  0  0
  131.3828  135.4707  160.9677 N   0  0  0  0  0  0  0  0  0  0  0  0
  132.4955  135.6898  161.7147 C   0  0  0  0  0  0  0  0  0  0  0  0
  133.5425  134.8707  162.1461 C   0  0  0  0  0  0  0  0  0  0  0  0
  134.5508  135.4008  162.9194 C   0  0  0  0  0  0  0  0  0  0  0  0
  135.8515  134.3833  163.4545 Cl  0  0  0  0  0  0  0  0  0  0  0  0
  134.5350  136.7435  163.2749 C   0  0  0  0  0  0  0  0  0  0  0  0
  133.5090  137.5640  162.8583 C   0  0  0  0  0  0  0  0  0  0  0  0
  132.4844  137.0470  162.0777 C   0  0  0  0  0  0  0  0  0  0  0  0
  131.3438  137.5830  161.5125 N   0  0  0  0  0  0  0  0  0  0  0  0
  131.0474  138.5042  161.5790 H   0  0  0  0  0  0  0  0  0  0  0  0
  127.7425  135.5299  158.7064 C   0  0  0  0  0  0  0  0  0  0  0  0
  126.5337  135.3229  159.3447 C   0  0  0  0  0  0  0  0  0  0  0  0
  125.3498  135.4649  158.6462 C   0  0  0  0  0  0  0  0  0  0  0  0
  125.3748  135.8041  157.3041 C   0  0  0  0  0  0  0  0  0  0  0  0
  124.2181  135.9378  156.6189 F   0  0  0  0  0  0  0  0  0  0  0  0
  126.5862  136.0056  156.6644 C   0  0  0  0  0  0  0  0  0  0  0  0
  127.7688  135.8681  157.3662 C   0  0  0  0  0  0  0  0  0  0  0  0
  130.4717  133.4543  156.7124 N   0  0  0  0  0  0  0  0  0  0  0  0
  131.0043  134.0607  156.1744 H   0  0  0  0  0  0  0  0  0  0  0  0
  130.1224  132.0129  153.8804 C   0  0  0  0  0  0  0  0  0  0  0  0
  130.4785  131.3637  152.7157 C   0  0  0  0  0  0  0  0  0  0  0  0
  130.7986  127.9778  150.1966 H   0  0  0  0  0  0  0  0  0  0  0  0
  130.4100  127.7554  151.9193 H   0  0  0  0  0  0  0  0  0  0  0  0
  129.5748  129.0107  150.9734 H   0  0  0  0  0  0  0  0  0  0  0  0
  132.5531  128.9710  151.6400 H   0  0  0  0  0  0  0  0  0  0  0  0
  131.7179  130.2263  150.6942 H   0  0  0  0  0  0  0  0  0  0  0  0
  132.1858  128.7625  154.0269 H   0  0  0  0  0  0  0  0  0  0  0  0
  131.5698  129.9112  156.1133 H   0  0  0  0  0  0  0  0  0  0  0  0
  128.9734  130.6692  157.4169 H   0  0  0  0  0  0  0  0  0  0  0  0
  130.8817  135.4780  158.4312 H   0  0  0  0  0  0  0  0  0  0  0  0
  129.5535  137.4630  159.2867 H   0  0  0  0  0  0  0  0  0  0  0  0
  128.6358  137.0618  160.7580 H   0  0  0  0  0  0  0  0  0  0  0  0
  133.5607  133.8258  161.8735 H   0  0  0  0  0  0  0  0  0  0  0  0
  135.3317  137.1468  163.8822 H   0  0  0  0  0  0  0  0  0  0  0  0
  133.5028  138.6072  163.1381 H   0  0  0  0  0  0  0  0  0  0  0  0
  126.5147  135.0541  160.3905 H   0  0  0  0  0  0  0  0  0  0  0  0
  124.4054  135.3073  159.1461 H   0  0  0  0  0  0  0  0  0  0  0  0
  126.6069  136.2698  155.6175 H   0  0  0  0  0  0  0  0  0  0  0  0
  128.7137  136.0252  156.8677 H   0  0  0  0  0  0  0  0  0  0  0  0
  129.5413  132.9222  153.8369 H   0  0  0  0  0  0  0  0  0  0  0  0
  130.1754  131.7658  151.7602 H   0  0  0  0  0  0  0  0  0  0  0  0
  1  2  1  0
  1 38  1  0
  1 39  1  0
  1 40  1  0
  2  3  1  0
  2 41  1  0
  2 42  1  0
  3 37  2  0
  3  4  1  0
  4  5  2  0
  4 43  1  0
  5  6  1  0
  5 44  1  0
  6  7  1  0
  6 36  2  0
  7 34  1  0
  7  8  2  0
  8  9  1  0
  8 45  1  0
  9 10  1  0
  9 11  1  0
 11 12  1  0
 11 34  2  0
 12 13  1  0
 12 46  1  0
 13 14  1  1
 13 15  1  0
 13 27  1  0
 15 16  1  0
 15 47  1  0
 15 48  1  0
 16 25  1  0
 16 17  2  0
 17 18  1  0
 18 24  2  0
 18 19  1  0
 19 20  2  0
 19 49  1  0
 20 21  1  0
 20 22  1  0
 22 23  2  0
 22 50  1  0
 23 24  1  0
 23 51  1  0
 24 25  1  0
 25 26  1  0
 27 33  1  0
 27 28  2  0
 28 29  1  0
 28 52  1  0
 29 30  2  0
 29 53  1  0
 30 31  1  0
 30 32  1  0
 32 33  2  0
 32 54  1  0
 33 55  1  0
 34 35  1  0
 36 37  1  0
 36 56  1  0
 37 57  1  0
M  CHG  1  34   1
M  END
>  <DOCK_score>  (1) 
-64.131424

>  <SMILES>  (1) 
CCc1ccc(-c2c[nH]c(N[C@@H](Cc3nc4cc(Cl)ccc4[nH]3)c3ccc(F)cc3)[nH+]2)cc1

$$$$
