CN(c1ccccc1)c1ccc2c(c1)OC[C@H]([NH+]=C(NC1CC1)N[C@H]1CCC(=O)NC1)C2
     RDKit          3D

 64 68  0  0  1  0  0  0  0  0999 V2000
  135.5151  135.1336  167.8844 C   0  0  0  0  0  0  0  0  0  0  0  0
  134.2512  135.6238  167.3289 N   0  0  0  0  0  0  0  0  0  0  0  0
  133.3601  136.3319  168.1391 C   0  0  0  0  0  0  0  0  0  0  0  0
  133.0075  137.6354  167.8127 C   0  0  0  0  0  0  0  0  0  0  0  0
  132.1227  138.3308  168.6131 C   0  0  0  0  0  0  0  0  0  0  0  0
  131.5960  137.7347  169.7443 C   0  0  0  0  0  0  0  0  0  0  0  0
  131.9490  136.4392  170.0753 C   0  0  0  0  0  0  0  0  0  0  0  0
  132.8291  135.7362  169.2764 C   0  0  0  0  0  0  0  0  0  0  0  0
  133.9397  135.3881  165.9876 C   0  0  0  0  0  0  0  0  0  0  0  0
  134.9546  135.2889  165.0432 C   0  0  0  0  0  0  0  0  0  0  0  0
  134.6428  135.0488  163.7211 C   0  0  0  0  0  0  0  0  0  0  0  0
  133.3214  134.9166  163.3245 C   0  0  0  0  0  0  0  0  0  0  0  0
  132.3055  135.0225  164.2593 C   0  0  0  0  0  0  0  0  0  0  0  0
  132.6167  135.2583  165.5933 C   0  0  0  0  0  0  0  0  0  0  0  0
  130.9974  134.9060  163.9111 O   0  0  0  0  0  0  0  0  0  0  0  0
  130.6927  134.3083  162.6504 C   0  0  0  0  0  0  0  0  0  0  0  0
  131.5580  134.9787  161.5757 C   0  0  2  0  0  0  0  0  0  0  0  0
  131.4070  136.0579  161.6029 H   0  0  0  0  0  0  0  0  0  0  0  0
  131.1932  134.4615  160.2544 N   0  0  0  0  0  0  0  0  0  0  0  0
  131.8571  134.0106  159.7099 H   0  0  0  0  0  0  0  0  0  0  0  0
  129.9763  134.6076  159.8106 C   0  0  0  0  0  0  0  0  0  0  0  0
  129.6339  134.1223  158.5707 N   0  0  0  0  0  0  0  0  0  0  0  0
  130.6367  133.4409  157.7483 C   0  0  0  0  0  0  0  0  0  0  0  0
  130.1312  132.5040  156.6495 C   0  0  0  0  0  0  0  0  0  0  0  0
  130.7735  131.9258  157.9120 C   0  0  0  0  0  0  0  0  0  0  0  0
  129.0352  135.2469  160.5825 N   0  0  0  0  0  0  0  0  0  0  0  0
  127.6215  134.8800  160.4674 C   0  0  1  0  0  0  0  0  0  0  0  0
  127.2817  135.0501  159.4458 H   0  0  0  0  0  0  0  0  0  0  0  0
  127.4428  133.4007  160.8295 C   0  0  0  0  0  0  0  0  0  0  0  0
  125.9970  132.9997  160.5262 C   0  0  0  0  0  0  0  0  0  0  0  0
  125.0526  134.0049  161.1204 C   0  0  0  0  0  0  0  0  0  0  0  0
  123.8904  133.6878  161.2601 O   0  0  0  0  0  0  0  0  0  0  0  0
  125.4235  135.2276  161.5021 N   0  0  0  0  0  0  0  0  0  0  0  0
  126.7914  135.7277  161.4322 C   0  0  0  0  0  0  0  0  0  0  0  0
  133.0251  134.6554  161.8693 C   0  0  0  0  0  0  0  0  0  0  0  0
  136.2856  135.8947  167.7609 H   0  0  0  0  0  0  0  0  0  0  0  0
  135.3859  134.9160  168.9447 H   0  0  0  0  0  0  0  0  0  0  0  0
  135.8141  134.2256  167.3609 H   0  0  0  0  0  0  0  0  0  0  0  0
  133.4216  138.1029  166.9316 H   0  0  0  0  0  0  0  0  0  0  0  0
  131.8449  139.3428  168.3576 H   0  0  0  0  0  0  0  0  0  0  0  0
  130.9072  138.2822  170.3707 H   0  0  0  0  0  0  0  0  0  0  0  0
  131.5356  135.9767  170.9593 H   0  0  0  0  0  0  0  0  0  0  0  0
  133.1046  134.7246  169.5355 H   0  0  0  0  0  0  0  0  0  0  0  0
  135.9863  135.3953  165.3448 H   0  0  0  0  0  0  0  0  0  0  0  0
  135.4330  134.9683  162.9894 H   0  0  0  0  0  0  0  0  0  0  0  0
  131.8263  135.3401  166.3246 H   0  0  0  0  0  0  0  0  0  0  0  0
  130.9137  133.2414  162.6869 H   0  0  0  0  0  0  0  0  0  0  0  0
  129.6379  134.4569  162.4189 H   0  0  0  0  0  0  0  0  0  0  0  0
  128.7284  134.2310  158.2404 H   0  0  0  0  0  0  0  0  0  0  0  0
  131.5447  134.0094  157.5471 H   0  0  0  0  0  0  0  0  0  0  0  0
  129.0524  132.3947  156.5383 H   0  0  0  0  0  0  0  0  0  0  0  0
  130.7064  132.4561  155.7249 H   0  0  0  0  0  0  0  0  0  0  0  0
  131.7715  131.4976  157.8180 H   0  0  0  0  0  0  0  0  0  0  0  0
  130.1174  131.4361  158.6315 H   0  0  0  0  0  0  0  0  0  0  0  0
  129.3073  135.9408  161.2034 H   0  0  0  0  0  0  0  0  0  0  0  0
  128.1246  132.7924  160.2353 H   0  0  0  0  0  0  0  0  0  0  0  0
  127.6493  133.2549  161.8898 H   0  0  0  0  0  0  0  0  0  0  0  0
  125.8512  132.9598  159.4467 H   0  0  0  0  0  0  0  0  0  0  0  0
  125.7964  132.0174  160.9539 H   0  0  0  0  0  0  0  0  0  0  0  0
  124.7396  135.8235  161.8457 H   0  0  0  0  0  0  0  0  0  0  0  0
  127.2391  135.6859  162.4251 H   0  0  0  0  0  0  0  0  0  0  0  0
  126.7829  136.7617  161.0875 H   0  0  0  0  0  0  0  0  0  0  0  0
  133.2178  133.6068  161.6424 H   0  0  0  0  0  0  0  0  0  0  0  0
  133.6657  135.2839  161.2507 H   0  0  0  0  0  0  0  0  0  0  0  0
  1  2  1  0
  1 36  1  0
  1 37  1  0
  1 38  1  0
  2  3  1  0
  2  9  1  0
  3  8  1  0
  3  4  2  0
  4  5  1  0
  4 39  1  0
  5  6  2  0
  5 40  1  0
  6  7  1  0
  6 41  1  0
  7  8  2  0
  7 42  1  0
  8 43  1  0
  9 14  1  0
  9 10  2  0
 10 11  1  0
 10 44  1  0
 11 12  2  0
 11 45  1  0
 12 35  1  0
 12 13  1  0
 13 14  2  0
 13 15  1  0
 14 46  1  0
 15 16  1  0
 16 17  1  0
 16 47  1  0
 16 48  1  0
 17 18  1  6
 17 19  1  0
 17 35  1  0
 19 20  1  0
 21 19  2  0
 21 22  1  0
 21 26  1  0
 22 23  1  0
 22 49  1  0
 23 25  1  0
 23 24  1  0
 23 50  1  0
 24 25  1  0
 24 51  1  0
 24 52  1  0
 25 53  1  0
 25 54  1  0
 26 27  1  0
 26 55  1  0
 27 28  1  6
 27 34  1  0
 27 29  1  0
 29 30  1  0
 29 56  1  0
 29 57  1  0
 30 31  1  0
 30 58  1  0
 30 59  1  0
 31 32  2  0
 31 33  1  0
 33 34  1  0
 33 60  1  0
 34 61  1  0
 34 62  1  0
 35 63  1  0
 35 64  1  0
M  CHG  1  19   1
M  END
>  <DOCK_score>  (1) 
-41.388809

>  <SMILES>  (1) 
CN(c1ccccc1)c1ccc2c(c1)OC[C@H]([NH+]=C(NC1CC1)N[C@H]1CCC(=O)NC1)C2

$$$$
