Oc1ccc(Nc2[nH]cc(-c3ccc(O)cc3)[nH+]2)cc1
     RDKit          3D

 34 36  0  0  1  0  0  0  0  0999 V2000
  126.4505  136.1887  162.1119 O   0  0  0  0  0  0  0  0  0  0  0  0
  127.3481  135.8688  161.1418 C   0  0  0  0  0  0  0  0  0  0  0  0
  128.5689  135.3068  161.4849 C   0  0  0  0  0  0  0  0  0  0  0  0
  129.4814  134.9825  160.5005 C   0  0  0  0  0  0  0  0  0  0  0  0
  129.1763  135.2188  159.1663 C   0  0  0  0  0  0  0  0  0  0  0  0
  130.1010  134.8908  158.1676 N   0  0  0  0  0  0  0  0  0  0  0  0
  130.0784  133.6325  157.5892 C   0  0  0  0  0  0  0  0  0  0  0  0
  129.6830  132.4842  158.2039 N   0  0  0  0  0  0  0  0  0  0  0  0
  129.3685  132.4006  159.1177 H   0  0  0  0  0  0  0  0  0  0  0  0
  129.8088  131.4659  157.2898 C   0  0  0  0  0  0  0  0  0  0  0  0
  130.2844  132.0197  156.1469 C   0  0  0  0  0  0  0  0  0  0  0  0
  130.5816  131.2981  154.8852 C   0  0  0  0  0  0  0  0  0  0  0  0
  129.9129  131.6400  153.7110 C   0  0  0  0  0  0  0  0  0  0  0  0
  130.1957  130.9711  152.5383 C   0  0  0  0  0  0  0  0  0  0  0  0
  131.1365  129.9509  152.5291 C   0  0  0  0  0  0  0  0  0  0  0  0
  131.4085  129.2901  151.3730 O   0  0  0  0  0  0  0  0  0  0  0  0
  131.8004  129.6042  153.6980 C   0  0  0  0  0  0  0  0  0  0  0  0
  131.5261  130.2732  154.8727 C   0  0  0  0  0  0  0  0  0  0  0  0
  130.4399  133.3499  156.3611 N   0  0  0  0  0  0  0  0  0  0  0  0
  130.7668  133.9900  155.7097 H   0  0  0  0  0  0  0  0  0  0  0  0
  127.9557  135.7860  158.8240 C   0  0  0  0  0  0  0  0  0  0  0  0
  127.0425  136.1051  159.8095 C   0  0  0  0  0  0  0  0  0  0  0  0
  125.6298  136.5748  161.7765 H   0  0  0  0  0  0  0  0  0  0  0  0
  128.8062  135.1231  162.5224 H   0  0  0  0  0  0  0  0  0  0  0  0
  130.4322  134.5456  160.7677 H   0  0  0  0  0  0  0  0  0  0  0  0
  130.7547  135.5461  157.8778 H   0  0  0  0  0  0  0  0  0  0  0  0
  129.5774  130.4236  157.4519 H   0  0  0  0  0  0  0  0  0  0  0  0
  129.1774  132.4308  153.7185 H   0  0  0  0  0  0  0  0  0  0  0  0
  129.6811  131.2385  151.6271 H   0  0  0  0  0  0  0  0  0  0  0  0
  130.8982  129.5996  150.6131 H   0  0  0  0  0  0  0  0  0  0  0  0
  132.5320  128.8100  153.6877 H   0  0  0  0  0  0  0  0  0  0  0  0
  132.0429  130.0033  155.7818 H   0  0  0  0  0  0  0  0  0  0  0  0
  127.7193  135.9741  157.7871 H   0  0  0  0  0  0  0  0  0  0  0  0
  126.0917  136.5428  159.5431 H   0  0  0  0  0  0  0  0  0  0  0  0
  1  2  1  0
  1 23  1  0
  2 22  2  0
  2  3  1  0
  3  4  2  0
  3 24  1  0
  4  5  1  0
  4 25  1  0
  5  6  1  0
  5 21  2  0
  6 26  1  0
  7  6  1  0
  7 19  2  0
  7  8  1  0
  8  9  1  0
  8 10  1  0
 10 11  2  0
 10 27  1  0
 11 12  1  0
 11 19  1  0
 12 18  1  0
 12 13  2  0
 13 14  1  0
 13 28  1  0
 14 15  2  0
 14 29  1  0
 15 16  1  0
 15 17  1  0
 16 30  1  0
 17 18  2  0
 17 31  1  0
 18 32  1  0
 19 20  1  0
 21 22  1  0
 21 33  1  0
 22 34  1  0
M  CHG  1  19   1
M  END
>  <DOCK_score>  (1) 
-46.567387

>  <SMILES>  (1) 
Oc1ccc(Nc2[nH]cc(-c3ccc(O)cc3)[nH+]2)cc1

$$$$
