O=[N+]([O-])c1ccc(-c2c[nH]c(Nc3ccc(Nc4ccc(O)c(O)c4)cc3)[nH+]2)cc1
     RDKit          3D

 48 51  0  0  1  0  0  0  0  0999 V2000
  131.4508  128.3791  152.1268 O   0  0  0  0  0  0  0  0  0  0  0  0
  131.1643  129.6614  152.0379 N   0  0  0  0  0  0  0  0  0  0  0  0
  131.1380  130.2502  150.8601 O   0  0  0  0  0  0  0  0  0  0  0  0
  130.8716  130.4415  153.2626 C   0  0  0  0  0  0  0  0  0  0  0  0
  130.5702  131.7905  153.1646 C   0  0  0  0  0  0  0  0  0  0  0  0
  130.2964  132.5232  154.2986 C   0  0  0  0  0  0  0  0  0  0  0  0
  130.3233  131.9006  155.5536 C   0  0  0  0  0  0  0  0  0  0  0  0
  130.0323  132.6767  156.7722 C   0  0  0  0  0  0  0  0  0  0  0  0
  129.4263  132.1697  158.0113 C   0  0  0  0  0  0  0  0  0  0  0  0
  129.3579  133.2219  158.8438 N   0  0  0  0  0  0  0  0  0  0  0  0
  129.0072  133.2133  159.7482 H   0  0  0  0  0  0  0  0  0  0  0  0
  129.8706  134.3140  158.1844 C   0  0  0  0  0  0  0  0  0  0  0  0
  129.9639  135.5509  158.7018 N   0  0  0  0  0  0  0  0  0  0  0  0
  129.0538  135.9736  159.6338 C   0  0  0  0  0  0  0  0  0  0  0  0
  129.4314  136.9096  160.6107 C   0  0  0  0  0  0  0  0  0  0  0  0
  128.5259  137.3294  161.5362 C   0  0  0  0  0  0  0  0  0  0  0  0
  127.2162  136.8278  161.5148 C   0  0  0  0  0  0  0  0  0  0  0  0
  126.3022  137.2527  162.4504 N   0  0  0  0  0  0  0  0  0  0  0  0
  126.7296  137.6347  163.7144 C   0  0  0  0  0  0  0  0  0  0  0  0
  127.4018  136.7235  164.5287 C   0  0  0  0  0  0  0  0  0  0  0  0
  127.8222  137.1008  165.7867 C   0  0  0  0  0  0  0  0  0  0  0  0
  127.5872  138.3920  166.2412 C   0  0  0  0  0  0  0  0  0  0  0  0
  128.0069  138.7631  167.4792 O   0  0  0  0  0  0  0  0  0  0  0  0
  126.9149  139.3068  165.4295 C   0  0  0  0  0  0  0  0  0  0  0  0
  126.6805  140.5691  165.8766 O   0  0  0  0  0  0  0  0  0  0  0  0
  126.4878  138.9286  164.1704 C   0  0  0  0  0  0  0  0  0  0  0  0
  126.8396  135.8888  160.5432 C   0  0  0  0  0  0  0  0  0  0  0  0
  127.7419  135.4719  159.6132 C   0  0  0  0  0  0  0  0  0  0  0  0
  130.2660  133.9686  156.9632 N   0  0  0  0  0  0  0  0  0  0  0  0
  130.6642  134.5680  156.3127 H   0  0  0  0  0  0  0  0  0  0  0  0
  130.6343  130.5372  155.6442 C   0  0  0  0  0  0  0  0  0  0  0  0
  130.9005  129.8180  154.4999 C   0  0  0  0  0  0  0  0  0  0  0  0
  130.5501  132.2688  152.1964 H   0  0  0  0  0  0  0  0  0  0  0  0
  130.0613  133.5744  154.2204 H   0  0  0  0  0  0  0  0  0  0  0  0
  129.1060  131.1581  158.2128 H   0  0  0  0  0  0  0  0  0  0  0  0
  130.6757  136.1441  158.4151 H   0  0  0  0  0  0  0  0  0  0  0  0
  130.4399  137.2957  160.6277 H   0  0  0  0  0  0  0  0  0  0  0  0
  128.8162  138.0488  162.2877 H   0  0  0  0  0  0  0  0  0  0  0  0
  125.3588  137.2855  162.2269 H   0  0  0  0  0  0  0  0  0  0  0  0
  127.5895  135.7202  164.1755 H   0  0  0  0  0  0  0  0  0  0  0  0
  128.3386  136.3926  166.4178 H   0  0  0  0  0  0  0  0  0  0  0  0
  128.4584  138.0615  167.9682 H   0  0  0  0  0  0  0  0  0  0  0  0
  127.0162  140.7396  166.7674 H   0  0  0  0  0  0  0  0  0  0  0  0
  125.9677  139.6355  163.5410 H   0  0  0  0  0  0  0  0  0  0  0  0
  125.8322  135.4996  160.5303 H   0  0  0  0  0  0  0  0  0  0  0  0
  127.4505  134.7522  158.8625 H   0  0  0  0  0  0  0  0  0  0  0  0
  130.6616  130.0510  156.6081 H   0  0  0  0  0  0  0  0  0  0  0  0
  131.1359  128.7662  154.5675 H   0  0  0  0  0  0  0  0  0  0  0  0
  1  2  2  0
  2  3  1  0
  2  4  1  0
  4 32  2  0
  4  5  1  0
  5  6  2  0
  5 33  1  0
  6  7  1  0
  6 34  1  0
  7  8  1  0
  7 31  2  0
  8 29  1  0
  8  9  2  0
  9 10  1  0
  9 35  1  0
 10 11  1  0
 10 12  1  0
 12 13  1  0
 12 29  2  0
 13 14  1  0
 13 36  1  0
 14 28  1  0
 14 15  2  0
 15 16  1  0
 15 37  1  0
 16 17  2  0
 16 38  1  0
 17 18  1  0
 17 27  1  0
 18 19  1  0
 18 39  1  0
 19 26  1  0
 19 20  2  0
 20 21  1  0
 20 40  1  0
 21 22  2  0
 21 41  1  0
 22 23  1  0
 22 24  1  0
 23 42  1  0
 24 25  1  0
 24 26  2  0
 25 43  1  0
 26 44  1  0
 27 28  2  0
 27 45  1  0
 28 46  1  0
 29 30  1  0
 31 32  1  0
 31 47  1  0
 32 48  1  0
M  CHG  3   2   1   3  -1  29   1
M  END
>  <DOCK_score>  (1) 
-47.929432

>  <SMILES>  (1) 
O=[N+]([O-])c1ccc(-c2c[nH]c(Nc3ccc(Nc4ccc(O)c(O)c4)cc3)[nH+]2)cc1

$$$$
