CCc1ccc(-c2c[nH]c(N[C@@H](Cc3ccccc3Cl)c3ccccc3)[nH+]2)cc1
     RDKit          3D

 54 57  0  0  1  0  0  0  0  0999 V2000
  130.2698  130.2208  150.5672 C   0  0  0  0  0  0  0  0  0  0  0  0
  131.0928  129.6596  151.7284 C   0  0  0  0  0  0  0  0  0  0  0  0
  130.8008  130.4491  152.9784 C   0  0  0  0  0  0  0  0  0  0  0  0
  130.4494  131.7832  152.8851 C   0  0  0  0  0  0  0  0  0  0  0  0
  130.1752  132.5090  154.0264 C   0  0  0  0  0  0  0  0  0  0  0  0
  130.2636  131.8978  155.2758 C   0  0  0  0  0  0  0  0  0  0  0  0
  129.9755  132.6742  156.5065 C   0  0  0  0  0  0  0  0  0  0  0  0
  129.4745  132.1772  157.6645 C   0  0  0  0  0  0  0  0  0  0  0  0
  129.3649  133.2328  158.5367 N   0  0  0  0  0  0  0  0  0  0  0  0
  129.0366  133.1928  159.4486 H   0  0  0  0  0  0  0  0  0  0  0  0
  129.8024  134.3449  157.8856 C   0  0  0  0  0  0  0  0  0  0  0  0
  129.8544  135.6223  158.4167 N   0  0  0  0  0  0  0  0  0  0  0  0
  129.4143  135.8616  159.7934 C   0  0  1  0  0  0  0  0  0  0  0  0
  130.0203  135.2673  160.4771 H   0  0  0  0  0  0  0  0  0  0  0  0
  129.5739  137.3458  160.1291 C   0  0  0  0  0  0  0  0  0  0  0  0
  131.0135  137.6317  160.4704 C   0  0  0  0  0  0  0  0  0  0  0  0
  131.6126  136.9869  161.5364 C   0  0  0  0  0  0  0  0  0  0  0  0
  132.9344  137.2454  161.8464 C   0  0  0  0  0  0  0  0  0  0  0  0
  133.6553  138.1571  161.0969 C   0  0  0  0  0  0  0  0  0  0  0  0
  133.0561  138.8060  160.0347 C   0  0  0  0  0  0  0  0  0  0  0  0
  131.7342  138.5436  159.7204 C   0  0  0  0  0  0  0  0  0  0  0  0
  130.9810  139.3582  158.3853 Cl  0  0  0  0  0  0  0  0  0  0  0  0
  127.9664  135.4677  159.9335 C   0  0  0  0  0  0  0  0  0  0  0  0
  127.4910  135.0019  161.1450 C   0  0  0  0  0  0  0  0  0  0  0  0
  126.1618  134.6448  161.2748 C   0  0  0  0  0  0  0  0  0  0  0  0
  125.3102  134.7452  160.1905 C   0  0  0  0  0  0  0  0  0  0  0  0
  125.7869  135.2061  158.9776 C   0  0  0  0  0  0  0  0  0  0  0  0
  127.1150  135.5673  158.8490 C   0  0  0  0  0  0  0  0  0  0  0  0
  130.1719  134.0060  156.6745 N   0  0  0  0  0  0  0  0  0  0  0  0
  130.5267  134.6113  156.0047 H   0  0  0  0  0  0  0  0  0  0  0  0
  130.6234  130.5542  155.3646 C   0  0  0  0  0  0  0  0  0  0  0  0
  130.8900  129.8367  154.2162 C   0  0  0  0  0  0  0  0  0  0  0  0
  130.4813  129.6502  149.6629 H   0  0  0  0  0  0  0  0  0  0  0  0
  129.2086  130.1458  150.8044 H   0  0  0  0  0  0  0  0  0  0  0  0
  130.5333  131.2663  150.4070 H   0  0  0  0  0  0  0  0  0  0  0  0
  130.8294  128.6142  151.8886 H   0  0  0  0  0  0  0  0  0  0  0  0
  132.1541  129.7346  151.4914 H   0  0  0  0  0  0  0  0  0  0  0  0
  130.3858  132.2570  151.9167 H   0  0  0  0  0  0  0  0  0  0  0  0
  129.8964  133.5498  153.9517 H   0  0  0  0  0  0  0  0  0  0  0  0
  129.2119  131.1487  157.8630 H   0  0  0  0  0  0  0  0  0  0  0  0
  130.1822  136.3588  157.8773 H   0  0  0  0  0  0  0  0  0  0  0  0
  129.2780  137.9467  159.2691 H   0  0  0  0  0  0  0  0  0  0  0  0
  128.9419  137.5955  160.9815 H   0  0  0  0  0  0  0  0  0  0  0  0
  131.0486  136.2782  162.1247 H   0  0  0  0  0  0  0  0  0  0  0  0
  133.4031  136.7387  162.6772 H   0  0  0  0  0  0  0  0  0  0  0  0
  134.6871  138.3619  161.3421 H   0  0  0  0  0  0  0  0  0  0  0  0
  133.6192  139.5181  159.4497 H   0  0  0  0  0  0  0  0  0  0  0  0
  128.1572  134.9200  161.9912 H   0  0  0  0  0  0  0  0  0  0  0  0
  125.7894  134.2851  162.2225 H   0  0  0  0  0  0  0  0  0  0  0  0
  124.2724  134.4637  160.2911 H   0  0  0  0  0  0  0  0  0  0  0  0
  125.1216  135.2845  158.1304 H   0  0  0  0  0  0  0  0  0  0  0  0
  127.4874  135.9274  157.9015 H   0  0  0  0  0  0  0  0  0  0  0  0
  130.6939  130.0756  156.3301 H   0  0  0  0  0  0  0  0  0  0  0  0
  131.1693  128.7956  154.2838 H   0  0  0  0  0  0  0  0  0  0  0  0
  1  2  1  0
  1 33  1  0
  1 34  1  0
  1 35  1  0
  2  3  1  0
  2 36  1  0
  2 37  1  0
  3 32  2  0
  3  4  1  0
  4  5  2  0
  4 38  1  0
  5  6  1  0
  5 39  1  0
  6  7  1  0
  6 31  2  0
  7 29  1  0
  7  8  2  0
  8  9  1  0
  8 40  1  0
  9 10  1  0
  9 11  1  0
 11 12  1  0
 11 29  2  0
 12 13  1  0
 12 41  1  0
 13 14  1  1
 13 15  1  0
 13 23  1  0
 15 16  1  0
 15 42  1  0
 15 43  1  0
 16 21  1  0
 16 17  2  0
 17 18  1  0
 17 44  1  0
 18 19  2  0
 18 45  1  0
 19 20  1  0
 19 46  1  0
 20 21  2  0
 20 47  1  0
 21 22  1  0
 23 28  1  0
 23 24  2  0
 24 25  1  0
 24 48  1  0
 25 26  2  0
 25 49  1  0
 26 27  1  0
 26 50  1  0
 27 28  2  0
 27 51  1  0
 28 52  1  0
 29 30  1  0
 31 32  1  0
 31 53  1  0
 32 54  1  0
M  CHG  1  29   1
M  END
>  <DOCK_score>  (1) 
-60.07848

>  <SMILES>  (1) 
CCc1ccc(-c2c[nH]c(N[C@@H](Cc3ccccc3Cl)c3ccccc3)[nH+]2)cc1

$$$$
