CCCNc1ccc(-c2c[nH]c(Nc3ccc(O)cc3)[nH+]2)cc1
     RDKit          3D

 44 46  0  0  1  0  0  0  0  0999 V2000
  130.1850  127.9439  150.2057 C   0  0  0  0  0  0  0  0  0  0  0  0
  130.8019  129.3143  149.9184 C   0  0  0  0  0  0  0  0  0  0  0  0
  130.4019  130.2953  151.0223 C   0  0  0  0  0  0  0  0  0  0  0  0
  130.8875  129.8018  152.3136 N   0  0  0  0  0  0  0  0  0  0  0  0
  130.6417  130.5334  153.4780 C   0  0  0  0  0  0  0  0  0  0  0  0
  131.1029  130.0645  154.7023 C   0  0  0  0  0  0  0  0  0  0  0  0
  130.8615  130.7850  155.8529 C   0  0  0  0  0  0  0  0  0  0  0  0
  130.1546  131.9847  155.7876 C   0  0  0  0  0  0  0  0  0  0  0  0
  129.8938  132.7617  157.0241 C   0  0  0  0  0  0  0  0  0  0  0  0
  129.2044  132.3280  158.1084 C   0  0  0  0  0  0  0  0  0  0  0  0
  129.2069  133.3567  159.0201 N   0  0  0  0  0  0  0  0  0  0  0  0
  128.7958  133.3470  159.8986 H   0  0  0  0  0  0  0  0  0  0  0  0
  129.8904  134.3924  158.4610 C   0  0  0  0  0  0  0  0  0  0  0  0
  130.1186  135.6227  159.0549 N   0  0  0  0  0  0  0  0  0  0  0  0
  129.1936  136.1409  159.9693 C   0  0  0  0  0  0  0  0  0  0  0  0
  129.6232  136.9677  160.9991 C   0  0  0  0  0  0  0  0  0  0  0  0
  128.7097  137.4819  161.8979 C   0  0  0  0  0  0  0  0  0  0  0  0
  127.3645  137.1652  161.7781 C   0  0  0  0  0  0  0  0  0  0  0  0
  126.4660  137.6682  162.6664 O   0  0  0  0  0  0  0  0  0  0  0  0
  126.9352  136.3353  160.7529 C   0  0  0  0  0  0  0  0  0  0  0  0
  127.8468  135.8240  159.8503 C   0  0  0  0  0  0  0  0  0  0  0  0
  130.3021  134.0314  157.2698 N   0  0  0  0  0  0  0  0  0  0  0  0
  130.8169  134.5841  156.6613 H   0  0  0  0  0  0  0  0  0  0  0  0
  129.6883  132.4503  154.5591 C   0  0  0  0  0  0  0  0  0  0  0  0
  129.9365  131.7292  153.4103 C   0  0  0  0  0  0  0  0  0  0  0  0
  130.5464  127.5771  151.1664 H   0  0  0  0  0  0  0  0  0  0  0  0
  129.0991  128.0335  150.2363 H   0  0  0  0  0  0  0  0  0  0  0  0
  130.4699  127.2451  149.4194 H   0  0  0  0  0  0  0  0  0  0  0  0
  130.4406  129.6812  148.9577 H   0  0  0  0  0  0  0  0  0  0  0  0
  131.8878  129.2248  149.8879 H   0  0  0  0  0  0  0  0  0  0  0  0
  129.3160  130.3849  151.0528 H   0  0  0  0  0  0  0  0  0  0  0  0
  130.8414  131.2714  150.8177 H   0  0  0  0  0  0  0  0  0  0  0  0
  131.3797  128.9674  152.3598 H   0  0  0  0  0  0  0  0  0  0  0  0
  131.6502  129.1348  154.7525 H   0  0  0  0  0  0  0  0  0  0  0  0
  131.2201  130.4202  156.8041 H   0  0  0  0  0  0  0  0  0  0  0  0
  128.7456  131.3583  158.2337 H   0  0  0  0  0  0  0  0  0  0  0  0
  130.9172  136.1271  158.8344 H   0  0  0  0  0  0  0  0  0  0  0  0
  130.6710  137.2114  161.0948 H   0  0  0  0  0  0  0  0  0  0  0  0
  129.0431  138.1276  162.6968 H   0  0  0  0  0  0  0  0  0  0  0  0
  125.5539  137.3922  162.5022 H   0  0  0  0  0  0  0  0  0  0  0  0
  125.8878  136.0886  160.6606 H   0  0  0  0  0  0  0  0  0  0  0  0
  127.5125  135.1775  159.0523 H   0  0  0  0  0  0  0  0  0  0  0  0
  129.1363  133.3771  154.5069 H   0  0  0  0  0  0  0  0  0  0  0  0
  129.5790  132.0917  152.4579 H   0  0  0  0  0  0  0  0  0  0  0  0
  1  2  1  0
  1 26  1  0
  1 27  1  0
  1 28  1  0
  2  3  1  0
  2 29  1  0
  2 30  1  0
  3  4  1  0
  3 31  1  0
  3 32  1  0
  4  5  1  0
  4 33  1  0
  5 25  2  0
  5  6  1  0
  6  7  2  0
  6 34  1  0
  7  8  1  0
  7 35  1  0
  8  9  1  0
  8 24  2  0
  9 22  1  0
  9 10  2  0
 10 11  1  0
 10 36  1  0
 11 12  1  0
 11 13  1  0
 13 14  1  0
 13 22  2  0
 14 15  1  0
 14 37  1  0
 15 21  1  0
 15 16  2  0
 16 17  1  0
 16 38  1  0
 17 18  2  0
 17 39  1  0
 18 19  1  0
 18 20  1  0
 19 40  1  0
 20 21  2  0
 20 41  1  0
 21 42  1  0
 22 23  1  0
 24 25  1  0
 24 43  1  0
 25 44  1  0
M  CHG  1  22   1
M  END
>  <DOCK_score>  (1) 
-53.653603

>  <SMILES>  (1) 
CCCNc1ccc(-c2c[nH]c(Nc3ccc(O)cc3)[nH+]2)cc1

$$$$
