CCc1ccc(-c2c[nH]c(N[C@H](CBr)c3ccc(CBr)cc3)[nH+]2)cc1
     RDKit          3D

 47 49  0  0  1  0  0  0  0  0999 V2000
  130.2959  128.9428  151.5300 C   0  0  0  0  0  0  0  0  0  0  0  0
  131.5921  129.5150  152.1072 C   0  0  0  0  0  0  0  0  0  0  0  0
  131.2830  130.2962  153.3583 C   0  0  0  0  0  0  0  0  0  0  0  0
  131.2880  129.6600  154.5866 C   0  0  0  0  0  0  0  0  0  0  0  0
  131.0113  130.3716  155.7363 C   0  0  0  0  0  0  0  0  0  0  0  0
  130.7152  131.7312  155.6568 C   0  0  0  0  0  0  0  0  0  0  0  0
  130.4115  132.5002  156.8884 C   0  0  0  0  0  0  0  0  0  0  0  0
  129.8419  132.0082  158.0164 C   0  0  0  0  0  0  0  0  0  0  0  0
  129.7436  133.0537  158.9020 N   0  0  0  0  0  0  0  0  0  0  0  0
  129.3762  133.0143  159.7988 H   0  0  0  0  0  0  0  0  0  0  0  0
  130.2566  134.1550  158.2887 C   0  0  0  0  0  0  0  0  0  0  0  0
  130.3434  135.4202  158.8439 N   0  0  0  0  0  0  0  0  0  0  0  0
  129.3545  135.8554  159.8333 C   0  0  2  0  0  0  0  0  0  0  0  0
  129.1255  135.0287  160.5059 H   0  0  0  0  0  0  0  0  0  0  0  0
  128.0774  136.2990  159.1169 C   0  0  0  0  0  0  0  0  0  0  0  0
  127.0175  134.7172  158.6275 Br  0  0  0  0  0  0  0  0  0  0  0  0
  129.9119  137.0089  160.6268 C   0  0  0  0  0  0  0  0  0  0  0  0
  130.2778  138.1770  159.9844 C   0  0  0  0  0  0  0  0  0  0  0  0
  130.7850  139.2367  160.7129 C   0  0  0  0  0  0  0  0  0  0  0  0
  130.9352  139.1250  162.0825 C   0  0  0  0  0  0  0  0  0  0  0  0
  131.4926  140.2784  162.8760 C   0  0  0  0  0  0  0  0  0  0  0  0
  130.0207  141.4420  163.4632 Br  0  0  0  0  0  0  0  0  0  0  0  0
  130.5737  137.9552  162.7243 C   0  0  0  0  0  0  0  0  0  0  0  0
  130.0625  136.8970  161.9964 C   0  0  0  0  0  0  0  0  0  0  0  0
  130.6600  133.8190  157.0877 N   0  0  0  0  0  0  0  0  0  0  0  0
  131.0686  134.4181  156.4435 H   0  0  0  0  0  0  0  0  0  0  0  0
  130.7061  132.3657  154.4158 C   0  0  0  0  0  0  0  0  0  0  0  0
  130.9899  131.6454  153.2734 C   0  0  0  0  0  0  0  0  0  0  0  0
  129.8309  128.2843  152.2639 H   0  0  0  0  0  0  0  0  0  0  0  0
  129.6138  129.7582  151.2899 H   0  0  0  0  0  0  0  0  0  0  0  0
  130.5195  128.3777  150.6251 H   0  0  0  0  0  0  0  0  0  0  0  0
  132.2742  128.6994  152.3473 H   0  0  0  0  0  0  0  0  0  0  0  0
  132.0571  130.1734  151.3733 H   0  0  0  0  0  0  0  0  0  0  0  0
  131.5129  128.6054  154.6465 H   0  0  0  0  0  0  0  0  0  0  0  0
  131.0201  129.8750  156.6953 H   0  0  0  0  0  0  0  0  0  0  0  0
  129.5257  130.9895  158.1859 H   0  0  0  0  0  0  0  0  0  0  0  0
  131.0591  136.0185  158.5779 H   0  0  0  0  0  0  0  0  0  0  0  0
  127.4926  136.9375  159.7790 H   0  0  0  0  0  0  0  0  0  0  0  0
  128.3401  136.8534  158.2159 H   0  0  0  0  0  0  0  0  0  0  0  0
  130.1642  138.2628  158.9139 H   0  0  0  0  0  0  0  0  0  0  0  0
  131.0672  140.1507  160.2116 H   0  0  0  0  0  0  0  0  0  0  0  0
  132.0240  139.8966  163.7479 H   0  0  0  0  0  0  0  0  0  0  0  0
  132.1807  140.8494  162.2525 H   0  0  0  0  0  0  0  0  0  0  0  0
  130.6912  137.8678  163.7944 H   0  0  0  0  0  0  0  0  0  0  0  0
  129.7804  135.9829  162.4978 H   0  0  0  0  0  0  0  0  0  0  0  0
  130.4772  133.4191  154.3484 H   0  0  0  0  0  0  0  0  0  0  0  0
  130.9829  132.1359  152.3113 H   0  0  0  0  0  0  0  0  0  0  0  0
  1  2  1  0
  1 29  1  0
  1 30  1  0
  1 31  1  0
  2  3  1  0
  2 32  1  0
  2 33  1  0
  3 28  2  0
  3  4  1  0
  4  5  2  0
  4 34  1  0
  5  6  1  0
  5 35  1  0
  6  7  1  0
  6 27  2  0
  7 25  1  0
  7  8  2  0
  8  9  1  0
  8 36  1  0
  9 10  1  0
  9 11  1  0
 11 12  1  0
 11 25  2  0
 12 13  1  0
 12 37  1  0
 13 14  1  1
 13 15  1  0
 13 17  1  0
 15 16  1  0
 15 38  1  0
 15 39  1  0
 17 24  1  0
 17 18  2  0
 18 19  1  0
 18 40  1  0
 19 20  2  0
 19 41  1  0
 20 21  1  0
 20 23  1  0
 21 22  1  0
 21 42  1  0
 21 43  1  0
 23 24  2  0
 23 44  1  0
 24 45  1  0
 25 26  1  0
 27 28  1  0
 27 46  1  0
 28 47  1  0
M  CHG  1  25   1
M  END
>  <DOCK_score>  (1) 
-57.184509

>  <SMILES>  (1) 
CCc1ccc(-c2c[nH]c(N[C@H](CBr)c3ccc(CBr)cc3)[nH+]2)cc1

$$$$
