Nc1ccc(-c2c[nH]c(N[C@@H](Cc3ccc(-c4ccc(Cl)cc4)cc3)c3ccccc3)[nH+]2)cc1
     RDKit          3D

 60 64  0  0  1  0  0  0  0  0999 V2000
  131.4435  129.3654  151.2670 N   0  0  0  0  0  0  0  0  0  0  0  0
  131.1550  130.0247  152.4644 C   0  0  0  0  0  0  0  0  0  0  0  0
  130.4252  131.2072  152.4470 C   0  0  0  0  0  0  0  0  0  0  0  0
  130.1394  131.8596  153.6276 C   0  0  0  0  0  0  0  0  0  0  0  0
  130.5829  131.3321  154.8393 C   0  0  0  0  0  0  0  0  0  0  0  0
  130.2764  132.0322  156.1110 C   0  0  0  0  0  0  0  0  0  0  0  0
  129.5687  131.5250  157.1503 C   0  0  0  0  0  0  0  0  0  0  0  0
  129.5249  132.5016  158.1170 N   0  0  0  0  0  0  0  0  0  0  0  0
  129.0882  132.4362  158.9808 H   0  0  0  0  0  0  0  0  0  0  0  0
  130.2078  133.5769  157.6385 C   0  0  0  0  0  0  0  0  0  0  0  0
  130.3987  134.7738  158.3075 N   0  0  0  0  0  0  0  0  0  0  0  0
  129.3945  135.2467  159.2637 C   0  0  1  0  0  0  0  0  0  0  0  0
  129.2799  134.5140  160.0625 H   0  0  0  0  0  0  0  0  0  0  0  0
  129.8455  136.5826  159.8580 C   0  0  0  0  0  0  0  0  0  0  0  0
  130.8582  136.3323  160.9454 C   0  0  0  0  0  0  0  0  0  0  0  0
  132.2049  136.2794  160.6339 C   0  0  0  0  0  0  0  0  0  0  0  0
  133.1369  136.0509  161.6261 C   0  0  0  0  0  0  0  0  0  0  0  0
  132.7189  135.8733  162.9433 C   0  0  0  0  0  0  0  0  0  0  0  0
  133.7162  135.6269  164.0141 C   0  0  0  0  0  0  0  0  0  0  0  0
  133.4648  136.0561  165.3157 C   0  0  0  0  0  0  0  0  0  0  0  0
  134.3934  135.8207  166.3090 C   0  0  0  0  0  0  0  0  0  0  0  0
  135.5776  135.1681  166.0119 C   0  0  0  0  0  0  0  0  0  0  0  0
  136.7451  134.8812  167.2642 Cl  0  0  0  0  0  0  0  0  0  0  0  0
  135.8341  134.7439  164.7193 C   0  0  0  0  0  0  0  0  0  0  0  0
  134.9096  134.9703  163.7201 C   0  0  0  0  0  0  0  0  0  0  0  0
  131.3611  135.9280  163.2516 C   0  0  0  0  0  0  0  0  0  0  0  0
  130.4378  136.1566  162.2514 C   0  0  0  0  0  0  0  0  0  0  0  0
  128.0759  135.4306  158.5577 C   0  0  0  0  0  0  0  0  0  0  0  0
  126.8915  135.2533  159.2482 C   0  0  0  0  0  0  0  0  0  0  0  0
  125.6819  135.4258  158.6016 C   0  0  0  0  0  0  0  0  0  0  0  0
  125.6567  135.7676  157.2625 C   0  0  0  0  0  0  0  0  0  0  0  0
  126.8411  135.9398  156.5707 C   0  0  0  0  0  0  0  0  0  0  0  0
  128.0506  135.7711  157.2182 C   0  0  0  0  0  0  0  0  0  0  0  0
  130.6505  133.2946  156.4375 N   0  0  0  0  0  0  0  0  0  0  0  0
  131.1654  133.8923  155.8730 H   0  0  0  0  0  0  0  0  0  0  0  0
  131.3196  130.1488  154.8540 C   0  0  0  0  0  0  0  0  0  0  0  0
  131.5980  129.4965  153.6714 C   0  0  0  0  0  0  0  0  0  0  0  0
  131.1348  129.7330  150.4244 H   0  0  0  0  0  0  0  0  0  0  0  0
  131.9531  128.5399  151.2784 H   0  0  0  0  0  0  0  0  0  0  0  0
  130.0823  131.6156  151.5080 H   0  0  0  0  0  0  0  0  0  0  0  0
  129.5719  132.7784  153.6136 H   0  0  0  0  0  0  0  0  0  0  0  0
  129.1242  130.5424  157.2078 H   0  0  0  0  0  0  0  0  0  0  0  0
  131.1972  135.2993  158.1431 H   0  0  0  0  0  0  0  0  0  0  0  0
  128.9842  137.1034  160.2765 H   0  0  0  0  0  0  0  0  0  0  0  0
  130.2954  137.1945  159.0763 H   0  0  0  0  0  0  0  0  0  0  0  0
  132.5276  136.4169  159.6125 H   0  0  0  0  0  0  0  0  0  0  0  0
  134.1877  136.0053  161.3810 H   0  0  0  0  0  0  0  0  0  0  0  0
  132.5431  136.5693  165.5475 H   0  0  0  0  0  0  0  0  0  0  0  0
  134.1978  136.1499  167.3188 H   0  0  0  0  0  0  0  0  0  0  0  0
  136.7594  134.2353  164.4925 H   0  0  0  0  0  0  0  0  0  0  0  0
  135.1110  134.6397  162.7119 H   0  0  0  0  0  0  0  0  0  0  0  0
  131.0318  135.7917  164.2710 H   0  0  0  0  0  0  0  0  0  0  0  0
  129.3850  136.1989  162.4891 H   0  0  0  0  0  0  0  0  0  0  0  0
  126.9112  134.9828  160.2937 H   0  0  0  0  0  0  0  0  0  0  0  0
  124.7566  135.2908  159.1420 H   0  0  0  0  0  0  0  0  0  0  0  0
  124.7117  135.8998  156.7565 H   0  0  0  0  0  0  0  0  0  0  0  0
  126.8213  136.2065  155.5242 H   0  0  0  0  0  0  0  0  0  0  0  0
  128.9759  135.9057  156.6778 H   0  0  0  0  0  0  0  0  0  0  0  0
  131.6682  129.7407  155.7913 H   0  0  0  0  0  0  0  0  0  0  0  0
  132.1650  128.5774  153.6827 H   0  0  0  0  0  0  0  0  0  0  0  0
  1  2  1  0
  1 38  1  0
  1 39  1  0
  2 37  2  0
  2  3  1  0
  3  4  2  0
  3 40  1  0
  4  5  1  0
  4 41  1  0
  5  6  1  0
  5 36  2  0
  6 34  1  0
  6  7  2  0
  7  8  1  0
  7 42  1  0
  8  9  1  0
  8 10  1  0
 10 11  1  0
 10 34  2  0
 11 12  1  0
 11 43  1  0
 12 13  1  1
 12 14  1  0
 12 28  1  0
 14 15  1  0
 14 44  1  0
 14 45  1  0
 15 27  1  0
 15 16  2  0
 16 17  1  0
 16 46  1  0
 17 18  2  0
 17 47  1  0
 18 19  1  0
 18 26  1  0
 19 25  1  0
 19 20  2  0
 20 21  1  0
 20 48  1  0
 21 22  2  0
 21 49  1  0
 22 23  1  0
 22 24  1  0
 24 25  2  0
 24 50  1  0
 25 51  1  0
 26 27  2  0
 26 52  1  0
 27 53  1  0
 28 33  1  0
 28 29  2  0
 29 30  1  0
 29 54  1  0
 30 31  2  0
 30 55  1  0
 31 32  1  0
 31 56  1  0
 32 33  2  0
 32 57  1  0
 33 58  1  0
 34 35  1  0
 36 37  1  0
 36 59  1  0
 37 60  1  0
M  CHG  1  34   1
M  END
>  <DOCK_score>  (1) 
-68.653786

>  <SMILES>  (1) 
Nc1ccc(-c2c[nH]c(N[C@@H](Cc3ccc(-c4ccc(Cl)cc4)cc3)c3ccccc3)[nH+]2)cc1

$$$$
