Fc1ccccc1[C@H]1C[C@H](Nc2ccc(-c3n[nH]cc3C[NH2+]C[C@H]3C=CCCC3)o2)C1
     RDKit          3D

 61 65  0  0  1  0  0  0  0  0999 V2000
  125.3860  139.3172  166.0018 F   0  0  0  0  0  0  0  0  0  0  0  0
  126.4617  138.8693  166.6857 C   0  0  0  0  0  0  0  0  0  0  0  0
  126.8359  139.4840  167.8688 C   0  0  0  0  0  0  0  0  0  0  0  0
  127.9357  139.0256  168.5670 C   0  0  0  0  0  0  0  0  0  0  0  0
  128.6640  137.9530  168.0849 C   0  0  0  0  0  0  0  0  0  0  0  0
  128.2882  137.3351  166.9070 C   0  0  0  0  0  0  0  0  0  0  0  0
  127.1910  137.7957  166.2039 C   0  0  0  0  0  0  0  0  0  0  0  0
  126.7850  137.1257  164.9164 C   0  0  1  0  0  0  0  0  0  0  0  0
  126.0821  136.3068  165.0687 H   0  0  0  0  0  0  0  0  0  0  0  0
  126.3534  138.1119  163.8183 C   0  0  0  0  0  0  0  0  0  0  0  0
  127.1068  137.2124  162.8241 C   0  0  2  0  0  0  0  0  0  0  0  0
  127.6588  137.7670  162.0653 H   0  0  0  0  0  0  0  0  0  0  0  0
  126.2810  136.1426  162.2586 N   0  0  0  0  0  0  0  0  0  0  0  0
  126.8295  135.2508  161.3442 C   0  0  0  0  0  0  0  0  0  0  0  0
  126.1748  134.2219  160.7504 C   0  0  0  0  0  0  0  0  0  0  0  0
  127.0996  133.5807  159.9029 C   0  0  0  0  0  0  0  0  0  0  0  0
  128.2750  134.2526  160.0225 C   0  0  0  0  0  0  0  0  0  0  0  0
  129.5313  133.9318  159.3141 C   0  0  0  0  0  0  0  0  0  0  0  0
  129.7109  132.9425  158.4613 N   0  0  0  0  0  0  0  0  0  0  0  0
  131.0389  132.9865  158.0182 N   0  0  0  0  0  0  0  0  0  0  0  0
  131.4476  132.3763  157.3844 H   0  0  0  0  0  0  0  0  0  0  0  0
  131.6520  134.0257  158.6253 C   0  0  0  0  0  0  0  0  0  0  0  0
  130.7536  134.6261  159.4350 C   0  0  0  0  0  0  0  0  0  0  0  0
  131.0101  135.8260  160.3098 C   0  0  0  0  0  0  0  0  0  0  0  0
  132.4064  136.2555  160.1548 N   0  0  0  0  0  0  0  0  0  0  0  0
  133.0218  135.5034  160.4265 H   0  0  0  0  0  0  0  0  0  0  0  0
  132.5784  136.4991  159.1908 H   0  0  0  0  0  0  0  0  0  0  0  0
  132.6565  137.4251  161.0075 C   0  0  0  0  0  0  0  0  0  0  0  0
  134.1107  137.8725  160.8462 C   0  0  1  0  0  0  0  0  0  0  0  0
  134.7545  136.9948  160.7894 H   0  0  0  0  0  0  0  0  0  0  0  0
  134.2479  138.6724  159.5839 C   0  0  0  0  0  0  0  0  0  0  0  0
  134.9377  139.7610  159.4847 C   0  0  0  0  0  0  0  0  0  0  0  0
  135.6866  140.3872  160.6243 C   0  0  0  0  0  0  0  0  0  0  0  0
  135.8741  139.3714  161.7533 C   0  0  0  0  0  0  0  0  0  0  0  0
  134.5169  138.7222  162.0522 C   0  0  0  0  0  0  0  0  0  0  0  0
  128.0992  135.2594  160.9039 O   0  0  0  0  0  0  0  0  0  0  0  0
  127.9732  136.7598  164.0112 C   0  0  0  0  0  0  0  0  0  0  0  0
  126.2678  140.3218  168.2453 H   0  0  0  0  0  0  0  0  0  0  0  0
  128.2285  139.5048  169.4896 H   0  0  0  0  0  0  0  0  0  0  0  0
  129.5240  137.5950  168.6315 H   0  0  0  0  0  0  0  0  0  0  0  0
  128.8546  136.4948  166.5336 H   0  0  0  0  0  0  0  0  0  0  0  0
  126.7904  139.1046  163.9265 H   0  0  0  0  0  0  0  0  0  0  0  0
  125.2762  138.1381  163.6537 H   0  0  0  0  0  0  0  0  0  0  0  0
  125.3515  136.0564  162.5223 H   0  0  0  0  0  0  0  0  0  0  0  0
  125.1410  133.9467  160.8989 H   0  0  0  0  0  0  0  0  0  0  0  0
  126.9109  132.7201  159.2780 H   0  0  0  0  0  0  0  0  0  0  0  0
  132.6819  134.3216  158.4904 H   0  0  0  0  0  0  0  0  0  0  0  0
  130.3454  136.6385  160.0162 H   0  0  0  0  0  0  0  0  0  0  0  0
  130.8244  135.5629  161.3511 H   0  0  0  0  0  0  0  0  0  0  0  0
  131.9918  138.2376  160.7140 H   0  0  0  0  0  0  0  0  0  0  0  0
  132.4707  137.1620  162.0488 H   0  0  0  0  0  0  0  0  0  0  0  0
  133.7403  138.3151  158.7001 H   0  0  0  0  0  0  0  0  0  0  0  0
  134.9762  140.2513  158.5231 H   0  0  0  0  0  0  0  0  0  0  0  0
  135.1254  141.2437  160.9984 H   0  0  0  0  0  0  0  0  0  0  0  0
  136.6628  140.7208  160.2726 H   0  0  0  0  0  0  0  0  0  0  0  0
  136.2421  139.8785  162.6451 H   0  0  0  0  0  0  0  0  0  0  0  0
  136.5859  138.6064  161.4431 H   0  0  0  0  0  0  0  0  0  0  0  0
  133.7696  139.4973  162.2227 H   0  0  0  0  0  0  0  0  0  0  0  0
  134.6003  138.0888  162.9353 H   0  0  0  0  0  0  0  0  0  0  0  0
  128.2036  135.6945  164.0026 H   0  0  0  0  0  0  0  0  0  0  0  0
  128.8530  137.3829  164.1723 H   0  0  0  0  0  0  0  0  0  0  0  0
  1  2  1  0
  2  7  2  0
  2  3  1  0
  3  4  2  0
  3 38  1  0
  4  5  1  0
  4 39  1  0
  5  6  2  0
  5 40  1  0
  6  7  1  0
  6 41  1  0
  7  8  1  0
  8  9  1  1
  8 37  1  0
  8 10  1  0
 10 11  1  0
 10 42  1  0
 10 43  1  0
 11 12  1  6
 11 13  1  0
 11 37  1  0
 13 14  1  0
 13 44  1  0
 14 36  1  0
 14 15  2  0
 15 16  1  0
 15 45  1  0
 16 17  2  0
 16 46  1  0
 17 18  1  0
 17 36  1  0
 18 23  1  0
 18 19  2  0
 19 20  1  0
 20 21  1  0
 20 22  1  0
 22 23  2  0
 22 47  1  0
 23 24  1  0
 24 25  1  0
 24 48  1  0
 24 49  1  0
 25 26  1  0
 25 27  1  0
 25 28  1  0
 28 29  1  0
 28 50  1  0
 28 51  1  0
 29 30  1  6
 29 35  1  0
 29 31  1  0
 31 32  2  0
 31 52  1  0
 32 33  1  0
 32 53  1  0
 33 34  1  0
 33 54  1  0
 33 55  1  0
 34 35  1  0
 34 56  1  0
 34 57  1  0
 35 58  1  0
 35 59  1  0
 37 60  1  0
 37 61  1  0
M  CHG  1  25   1
M  END
>  <DOCK_score>  (1) 
-46.46841

>  <SMILES>  (1) 
Fc1ccccc1[C@H]1C[C@H](Nc2ccc(-c3n[nH]cc3C[NH2+]C[C@H]3C=CCCC3)o2)C1

$$$$
