Cc1ccc(-c2ccc(-c3ccc(C=CC(=O)Nc4c[nH]nc4[C@H]4CCC[NH2+]C4)cc3F)cc2)cc1
     RDKit          3D

 66 70  0  0  1  0  0  0  0  0999 V2000
  143.8088  134.5379  172.4975 C   0  0  0  0  0  0  0  0  0  0  0  0
  142.5055  134.7538  171.7722 C   0  0  0  0  0  0  0  0  0  0  0  0
  141.4333  133.9147  172.0183 C   0  0  0  0  0  0  0  0  0  0  0  0
  140.2371  134.1076  171.3578 C   0  0  0  0  0  0  0  0  0  0  0  0
  140.1102  135.1505  170.4417 C   0  0  0  0  0  0  0  0  0  0  0  0
  138.8273  135.3631  169.7290 C   0  0  0  0  0  0  0  0  0  0  0  0
  138.8247  135.9150  168.4479 C   0  0  0  0  0  0  0  0  0  0  0  0
  137.6335  136.1130  167.7858 C   0  0  0  0  0  0  0  0  0  0  0  0
  136.4291  135.7613  168.3966 C   0  0  0  0  0  0  0  0  0  0  0  0
  135.1477  135.9740  167.6846 C   0  0  0  0  0  0  0  0  0  0  0  0
  134.4632  137.1823  167.8265 C   0  0  0  0  0  0  0  0  0  0  0  0
  133.2816  137.3834  167.1725 C   0  0  0  0  0  0  0  0  0  0  0  0
  132.7507  136.3782  166.3554 C   0  0  0  0  0  0  0  0  0  0  0  0
  131.4786  136.5974  165.6514 C   0  0  0  0  0  0  0  0  0  0  0  0
  131.1619  135.8419  164.5791 C   0  0  0  0  0  0  0  0  0  0  0  0
  129.8959  136.0600  163.8784 C   0  0  0  0  0  0  0  0  0  0  0  0
  129.1283  136.9232  164.2629 O   0  0  0  0  0  0  0  0  0  0  0  0
  129.5797  135.3056  162.8074 N   0  0  0  0  0  0  0  0  0  0  0  0
  128.3627  135.5154  162.1336 C   0  0  0  0  0  0  0  0  0  0  0  0
  127.2070  135.9608  162.6902 C   0  0  0  0  0  0  0  0  0  0  0  0
  126.2762  136.0280  161.7032 N   0  0  0  0  0  0  0  0  0  0  0  0
  125.3555  136.3158  161.8054 H   0  0  0  0  0  0  0  0  0  0  0  0
  126.8795  135.6024  160.5130 N   0  0  0  0  0  0  0  0  0  0  0  0
  128.1254  135.2959  160.7686 C   0  0  0  0  0  0  0  0  0  0  0  0
  129.1335  134.7931  159.7677 C   0  0  1  0  0  0  0  0  0  0  0  0
  130.1322  135.1127  160.0651 H   0  0  0  0  0  0  0  0  0  0  0  0
  129.0811  133.2635  159.7134 C   0  0  0  0  0  0  0  0  0  0  0  0
  130.0524  132.7671  158.6385 C   0  0  0  0  0  0  0  0  0  0  0  0
  129.6907  133.4079  157.2968 C   0  0  0  0  0  0  0  0  0  0  0  0
  129.7850  134.8686  157.4067 N   0  0  0  0  0  0  0  0  0  0  0  0
  130.7142  135.1229  157.7065 H   0  0  0  0  0  0  0  0  0  0  0  0
  129.5969  135.2853  156.5073 H   0  0  0  0  0  0  0  0  0  0  0  0
  128.8058  135.3588  158.3842 C   0  0  0  0  0  0  0  0  0  0  0  0
  133.4351  135.1667  166.2046 C   0  0  0  0  0  0  0  0  0  0  0  0
  134.6250  134.9644  166.8707 C   0  0  0  0  0  0  0  0  0  0  0  0
  135.2876  133.7951  166.7329 F   0  0  0  0  0  0  0  0  0  0  0  0
  136.4318  135.2145  169.6805 C   0  0  0  0  0  0  0  0  0  0  0  0
  137.6237  135.0116  170.3397 C   0  0  0  0  0  0  0  0  0  0  0  0
  141.1955  135.9896  170.1944 C   0  0  0  0  0  0  0  0  0  0  0  0
  142.3849  135.7909  170.8654 C   0  0  0  0  0  0  0  0  0  0  0  0
  144.4387  133.8625  171.9186 H   0  0  0  0  0  0  0  0  0  0  0  0
  144.3184  135.4936  172.6211 H   0  0  0  0  0  0  0  0  0  0  0  0
  143.6123  134.1016  173.4768 H   0  0  0  0  0  0  0  0  0  0  0  0
  141.5329  133.1067  172.7281 H   0  0  0  0  0  0  0  0  0  0  0  0
  139.4009  133.4515  171.5499 H   0  0  0  0  0  0  0  0  0  0  0  0
  139.7568  136.1875  167.9755 H   0  0  0  0  0  0  0  0  0  0  0  0
  137.6315  136.5406  166.7940 H   0  0  0  0  0  0  0  0  0  0  0  0
  134.8697  137.9606  168.4554 H   0  0  0  0  0  0  0  0  0  0  0  0
  132.7558  138.3199  167.2854 H   0  0  0  0  0  0  0  0  0  0  0  0
  130.7977  137.3633  165.9925 H   0  0  0  0  0  0  0  0  0  0  0  0
  131.8428  135.0762  164.2380 H   0  0  0  0  0  0  0  0  0  0  0  0
  130.1914  134.6178  162.5010 H   0  0  0  0  0  0  0  0  0  0  0  0
  127.0561  136.2177  163.7283 H   0  0  0  0  0  0  0  0  0  0  0  0
  129.3690  132.8544  160.6818 H   0  0  0  0  0  0  0  0  0  0  0  0
  128.0688  132.9420  159.4681 H   0  0  0  0  0  0  0  0  0  0  0  0
  131.0704  133.0448  158.9116 H   0  0  0  0  0  0  0  0  0  0  0  0
  129.9806  131.6827  158.5559 H   0  0  0  0  0  0  0  0  0  0  0  0
  130.3801  133.0565  156.5292 H   0  0  0  0  0  0  0  0  0  0  0  0
  128.6724  133.1299  157.0247 H   0  0  0  0  0  0  0  0  0  0  0  0
  127.8067  135.0388  158.0887 H   0  0  0  0  0  0  0  0  0  0  0  0
  128.8421  136.4475  158.4194 H   0  0  0  0  0  0  0  0  0  0  0  0
  133.0302  134.3911  165.5714 H   0  0  0  0  0  0  0  0  0  0  0  0
  135.4996  134.9463  170.1553 H   0  0  0  0  0  0  0  0  0  0  0  0
  137.6262  134.5843  171.3316 H   0  0  0  0  0  0  0  0  0  0  0  0
  141.1043  136.7963  169.4821 H   0  0  0  0  0  0  0  0  0  0  0  0
  143.2250  136.4434  170.6780 H   0  0  0  0  0  0  0  0  0  0  0  0
  1  2  1  0
  1 41  1  0
  1 42  1  0
  1 43  1  0
  2 40  2  0
  2  3  1  0
  3  4  2  0
  3 44  1  0
  4  5  1  0
  4 45  1  0
  5  6  1  0
  5 39  2  0
  6 38  1  0
  6  7  2  0
  7  8  1  0
  7 46  1  0
  8  9  2  0
  8 47  1  0
  9 10  1  0
  9 37  1  0
 10 35  1  0
 10 11  2  0
 11 12  1  0
 11 48  1  0
 12 13  2  0
 12 49  1  0
 13 14  1  0
 13 34  1  0
 14 15  2  0
 14 50  1  0
 15 16  1  0
 15 51  1  0
 16 17  2  0
 16 18  1  0
 18 19  1  0
 18 52  1  0
 19 24  1  0
 19 20  2  0
 20 21  1  0
 20 53  1  0
 21 22  1  0
 21 23  1  0
 23 24  2  0
 24 25  1  0
 25 26  1  1
 25 33  1  0
 25 27  1  0
 27 28  1  0
 27 54  1  0
 27 55  1  0
 28 29  1  0
 28 56  1  0
 28 57  1  0
 29 30  1  0
 29 58  1  0
 29 59  1  0
 30 31  1  0
 30 32  1  0
 30 33  1  0
 33 60  1  0
 33 61  1  0
 34 35  2  0
 34 62  1  0
 35 36  1  0
 37 38  2  0
 37 63  1  0
 38 64  1  0
 39 40  1  0
 39 65  1  0
 40 66  1  0
M  CHG  1  30   1
M  END
>  <DOCK_score>  (1) 
-41.276344

>  <SMILES>  (1) 
Cc1ccc(-c2ccc(-c3ccc(C=CC(=O)Nc4c[nH]nc4[C@H]4CCC[NH2+]C4)cc3F)cc2)cc1

$$$$
