C[C@@H](C=Cc1cccc(Cc2ccccc2)c1)CNc1[nH]cc(-c2ccccc2)[nH+]1
     RDKit          3D

 58 61  0  0  1  0  0  0  0  0999 V2000
  129.1498  137.2189  162.1920 C   0  0  0  0  0  0  0  0  0  0  0  0
  129.6024  136.9958  160.7476 C   0  0  1  0  0  0  0  0  0  0  0  0
  128.9813  137.5891  160.0764 H   0  0  0  0  0  0  0  0  0  0  0  0
  131.0425  137.4158  160.6019 C   0  0  0  0  0  0  0  0  0  0  0  0
  131.3697  138.3762  159.7488 C   0  0  0  0  0  0  0  0  0  0  0  0
  132.7821  138.7881  159.6058 C   0  0  0  0  0  0  0  0  0  0  0  0
  133.2014  139.4678  158.4615 C   0  0  0  0  0  0  0  0  0  0  0  0
  134.5196  139.8549  158.3369 C   0  0  0  0  0  0  0  0  0  0  0  0
  135.4280  139.5595  159.3381 C   0  0  0  0  0  0  0  0  0  0  0  0
  135.0201  138.8810  160.4722 C   0  0  0  0  0  0  0  0  0  0  0  0
  136.0162  138.5636  161.5575 C   0  0  0  0  0  0  0  0  0  0  0  0
  136.0522  139.6946  162.5527 C   0  0  0  0  0  0  0  0  0  0  0  0
  136.9355  140.7430  162.3760 C   0  0  0  0  0  0  0  0  0  0  0  0
  136.9652  141.7829  163.2864 C   0  0  0  0  0  0  0  0  0  0  0  0
  136.1184  141.7694  164.3790 C   0  0  0  0  0  0  0  0  0  0  0  0
  135.2388  140.7181  164.5588 C   0  0  0  0  0  0  0  0  0  0  0  0
  135.2056  139.6808  163.6455 C   0  0  0  0  0  0  0  0  0  0  0  0
  133.7029  138.4937  160.6118 C   0  0  0  0  0  0  0  0  0  0  0  0
  129.4650  135.5138  160.3932 C   0  0  0  0  0  0  0  0  0  0  0  0
  129.8985  135.3003  159.0102 N   0  0  0  0  0  0  0  0  0  0  0  0
  129.8636  134.0293  158.4624 C   0  0  0  0  0  0  0  0  0  0  0  0
  129.4552  132.9006  159.1037 N   0  0  0  0  0  0  0  0  0  0  0  0
  129.1386  132.8424  160.0187 H   0  0  0  0  0  0  0  0  0  0  0  0
  129.5707  131.8595  158.2149 C   0  0  0  0  0  0  0  0  0  0  0  0
  130.0542  132.3801  157.0598 C   0  0  0  0  0  0  0  0  0  0  0  0
  130.3452  131.6252  155.8165 C   0  0  0  0  0  0  0  0  0  0  0  0
  129.6827  131.9451  154.6329 C   0  0  0  0  0  0  0  0  0  0  0  0
  129.9620  131.2433  153.4777 C   0  0  0  0  0  0  0  0  0  0  0  0
  130.8883  130.2162  153.4961 C   0  0  0  0  0  0  0  0  0  0  0  0
  131.5448  129.8907  154.6694 C   0  0  0  0  0  0  0  0  0  0  0  0
  131.2780  130.5895  155.8292 C   0  0  0  0  0  0  0  0  0  0  0  0
  130.2239  133.7138  157.2423 N   0  0  0  0  0  0  0  0  0  0  0  0
  130.5583  134.3345  156.5762 H   0  0  0  0  0  0  0  0  0  0  0  0
  129.2477  138.2748  162.4445 H   0  0  0  0  0  0  0  0  0  0  0  0
  128.1083  136.9153  162.2974 H   0  0  0  0  0  0  0  0  0  0  0  0
  129.7709  136.6259  162.8631 H   0  0  0  0  0  0  0  0  0  0  0  0
  131.8078  136.9343  161.1926 H   0  0  0  0  0  0  0  0  0  0  0  0
  130.6044  138.8576  159.1581 H   0  0  0  0  0  0  0  0  0  0  0  0
  132.4944  139.6947  157.6772 H   0  0  0  0  0  0  0  0  0  0  0  0
  134.8445  140.3850  157.4538 H   0  0  0  0  0  0  0  0  0  0  0  0
  136.4600  139.8604  159.2337 H   0  0  0  0  0  0  0  0  0  0  0  0
  135.7219  137.6439  162.0632 H   0  0  0  0  0  0  0  0  0  0  0  0
  137.0049  138.4357  161.1171 H   0  0  0  0  0  0  0  0  0  0  0  0
  137.6001  140.7516  161.5247 H   0  0  0  0  0  0  0  0  0  0  0  0
  137.6526  142.6039  163.1461 H   0  0  0  0  0  0  0  0  0  0  0  0
  136.1440  142.5798  165.0922 H   0  0  0  0  0  0  0  0  0  0  0  0
  134.5775  140.7073  165.4125 H   0  0  0  0  0  0  0  0  0  0  0  0
  134.5184  138.8595  163.7861 H   0  0  0  0  0  0  0  0  0  0  0  0
  133.3855  137.9642  161.4979 H   0  0  0  0  0  0  0  0  0  0  0  0
  128.4235  135.2102  160.4985 H   0  0  0  0  0  0  0  0  0  0  0  0
  130.0860  134.9207  161.0643 H   0  0  0  0  0  0  0  0  0  0  0  0
  130.2138  136.0486  158.4796 H   0  0  0  0  0  0  0  0  0  0  0  0
  129.3278  130.8240  158.4019 H   0  0  0  0  0  0  0  0  0  0  0  0
  128.9556  132.7436  154.6184 H   0  0  0  0  0  0  0  0  0  0  0  0
  129.4530  131.4937  152.5586 H   0  0  0  0  0  0  0  0  0  0  0  0
  131.1003  129.6666  152.5908 H   0  0  0  0  0  0  0  0  0  0  0  0
  132.2676  129.0883  154.6779 H   0  0  0  0  0  0  0  0  0  0  0  0
  131.7913  130.3348  156.7446 H   0  0  0  0  0  0  0  0  0  0  0  0
  1  2  1  0
  1 34  1  0
  1 35  1  0
  1 36  1  0
  2  3  1  6
  2  4  1  0
  2 19  1  0
  4  5  2  0
  4 37  1  0
  5  6  1  0
  5 38  1  0
  6 18  1  0
  6  7  2  0
  7  8  1  0
  7 39  1  0
  8  9  2  0
  8 40  1  0
  9 10  1  0
  9 41  1  0
 10 11  1  0
 10 18  2  0
 11 12  1  0
 11 42  1  0
 11 43  1  0
 12 17  1  0
 12 13  2  0
 13 14  1  0
 13 44  1  0
 14 15  2  0
 14 45  1  0
 15 16  1  0
 15 46  1  0
 16 17  2  0
 16 47  1  0
 17 48  1  0
 18 49  1  0
 19 20  1  0
 19 50  1  0
 19 51  1  0
 20 52  1  0
 21 20  1  0
 21 32  2  0
 21 22  1  0
 22 23  1  0
 22 24  1  0
 24 25  2  0
 24 53  1  0
 25 26  1  0
 25 32  1  0
 26 31  1  0
 26 27  2  0
 27 28  1  0
 27 54  1  0
 28 29  2  0
 28 55  1  0
 29 30  1  0
 29 56  1  0
 30 31  2  0
 30 57  1  0
 31 58  1  0
 32 33  1  0
M  CHG  1  32   1
M  END
>  <DOCK_score>  (1) 
-58.976643

>  <SMILES>  (1) 
C[C@@H](C=Cc1cccc(Cc2ccccc2)c1)CNc1[nH]cc(-c2ccccc2)[nH+]1

$$$$
