BrC[C@@H](Nc1[nH]cc(-c2cccnc2)[nH+]1)C(=CCC1CCOCC1)c1ccccc1
     RDKit          3D

 58 61  0  0  1  0  0  0  0  0999 V2000
  128.1989  136.6566  160.1907 Br  0  0  0  0  0  0  0  0  0  0  0  0
  129.8083  137.3275  161.0988 C   0  0  0  0  0  0  0  0  0  0  0  0
  130.8451  136.2063  161.1940 C   0  0  1  0  0  0  0  0  0  0  0  0
  130.4286  135.3736  161.7607 H   0  0  0  0  0  0  0  0  0  0  0  0
  131.1980  135.7519  159.8467 N   0  0  0  0  0  0  0  0  0  0  0  0
  130.9810  134.4343  159.4816 C   0  0  0  0  0  0  0  0  0  0  0  0
  130.4545  133.4667  160.2807 N   0  0  0  0  0  0  0  0  0  0  0  0
  130.1659  133.5752  161.2004 H   0  0  0  0  0  0  0  0  0  0  0  0
  130.4046  132.3085  159.5435 C   0  0  0  0  0  0  0  0  0  0  0  0
  130.9090  132.5996  158.3188 C   0  0  0  0  0  0  0  0  0  0  0  0
  131.0567  131.6512  157.1878 C   0  0  0  0  0  0  0  0  0  0  0  0
  130.9741  132.1021  155.8672 C   0  0  0  0  0  0  0  0  0  0  0  0
  131.1235  131.1782  154.8476 C   0  0  0  0  0  0  0  0  0  0  0  0
  131.3372  129.8490  155.1649 C   0  0  0  0  0  0  0  0  0  0  0  0
  131.4055  129.4521  156.4208 N   0  0  0  0  0  0  0  0  0  0  0  0
  131.2744  130.2954  157.4245 C   0  0  0  0  0  0  0  0  0  0  0  0
  131.2542  133.9116  158.3110 N   0  0  0  0  0  0  0  0  0  0  0  0
  131.6415  134.3868  157.5594 H   0  0  0  0  0  0  0  0  0  0  0  0
  132.0789  136.7206  161.8899 C   0  0  0  0  0  0  0  0  0  0  0  0
  132.4885  136.1550  163.0167 C   0  0  0  0  0  0  0  0  0  0  0  0
  133.7223  136.6693  163.7126 C   0  0  0  0  0  0  0  0  0  0  0  0
  133.3286  137.7646  164.7057 C   0  0  0  0  0  0  0  0  0  0  0  0
  134.5577  138.6125  165.0472 C   0  0  0  0  0  0  0  0  0  0  0  0
  134.1722  139.6551  166.0999 C   0  0  0  0  0  0  0  0  0  0  0  0
  133.6519  138.9939  167.2550 O   0  0  0  0  0  0  0  0  0  0  0  0
  132.4742  138.2237  167.0055 C   0  0  0  0  0  0  0  0  0  0  0  0
  132.7916  137.1236  165.9892 C   0  0  0  0  0  0  0  0  0  0  0  0
  132.8321  137.8557  161.3162 C   0  0  0  0  0  0  0  0  0  0  0  0
  133.8681  137.6230  160.4109 C   0  0  0  0  0  0  0  0  0  0  0  0
  134.5710  138.6866  159.8835 C   0  0  0  0  0  0  0  0  0  0  0  0
  134.2437  139.9820  160.2422 C   0  0  0  0  0  0  0  0  0  0  0  0
  133.2176  140.2195  161.1392 C   0  0  0  0  0  0  0  0  0  0  0  0
  132.5104  139.1643  161.6780 C   0  0  0  0  0  0  0  0  0  0  0  0
  129.5458  137.6656  162.1012 H   0  0  0  0  0  0  0  0  0  0  0  0
  130.2249  138.1603  160.5321 H   0  0  0  0  0  0  0  0  0  0  0  0
  131.5837  136.3743  159.2105 H   0  0  0  0  0  0  0  0  0  0  0  0
  130.0375  131.3490  159.8768 H   0  0  0  0  0  0  0  0  0  0  0  0
  130.8021  133.1456  155.6481 H   0  0  0  0  0  0  0  0  0  0  0  0
  131.0690  131.4910  153.8153 H   0  0  0  0  0  0  0  0  0  0  0  0
  131.4503  129.1247  154.3718 H   0  0  0  0  0  0  0  0  0  0  0  0
  131.3368  129.9327  158.4399 H   0  0  0  0  0  0  0  0  0  0  0  0
  131.9382  135.3256  163.4358 H   0  0  0  0  0  0  0  0  0  0  0  0
  134.2058  135.8513  164.2468 H   0  0  0  0  0  0  0  0  0  0  0  0
  134.4118  137.0788  162.9745 H   0  0  0  0  0  0  0  0  0  0  0  0
  132.5586  138.3974  164.2643 H   0  0  0  0  0  0  0  0  0  0  0  0
  135.3451  137.9703  165.4418 H   0  0  0  0  0  0  0  0  0  0  0  0
  134.9136  139.1165  164.1487 H   0  0  0  0  0  0  0  0  0  0  0  0
  133.4136  140.3221  165.6902 H   0  0  0  0  0  0  0  0  0  0  0  0
  135.0532  140.2336  166.3782 H   0  0  0  0  0  0  0  0  0  0  0  0
  131.6935  138.8719  166.6076 H   0  0  0  0  0  0  0  0  0  0  0  0
  132.1319  137.7711  167.9361 H   0  0  0  0  0  0  0  0  0  0  0  0
  131.8843  136.5629  165.7642 H   0  0  0  0  0  0  0  0  0  0  0  0
  133.5433  136.4514  166.4028 H   0  0  0  0  0  0  0  0  0  0  0  0
  134.1221  136.6123  160.1273 H   0  0  0  0  0  0  0  0  0  0  0  0
  135.3758  138.5076  159.1858 H   0  0  0  0  0  0  0  0  0  0  0  0
  134.7946  140.8113  159.8236 H   0  0  0  0  0  0  0  0  0  0  0  0
  132.9698  141.2328  161.4187 H   0  0  0  0  0  0  0  0  0  0  0  0
  131.7097  139.3510  162.3784 H   0  0  0  0  0  0  0  0  0  0  0  0
  1  2  1  0
  2  3  1  0
  2 34  1  0
  2 35  1  0
  3  4  1  1
  3  5  1  0
  3 19  1  0
  5 36  1  0
  6  5  1  0
  6 17  2  0
  6  7  1  0
  7  8  1  0
  7  9  1  0
  9 10  2  0
  9 37  1  0
 10 11  1  0
 10 17  1  0
 11 16  1  0
 11 12  2  0
 12 13  1  0
 12 38  1  0
 13 14  2  0
 13 39  1  0
 14 15  1  0
 14 40  1  0
 15 16  2  0
 16 41  1  0
 17 18  1  0
 19 20  2  0
 19 28  1  0
 20 21  1  0
 20 42  1  0
 21 22  1  0
 21 43  1  0
 21 44  1  0
 22 27  1  0
 22 23  1  0
 22 45  1  0
 23 24  1  0
 23 46  1  0
 23 47  1  0
 24 25  1  0
 24 48  1  0
 24 49  1  0
 25 26  1  0
 26 27  1  0
 26 50  1  0
 26 51  1  0
 27 52  1  0
 27 53  1  0
 28 33  1  0
 28 29  2  0
 29 30  1  0
 29 54  1  0
 30 31  2  0
 30 55  1  0
 31 32  1  0
 31 56  1  0
 32 33  2  0
 32 57  1  0
 33 58  1  0
M  CHG  1  17   1
M  END
>  <DOCK_score>  (1) 
-55.945721

>  <SMILES>  (1) 
BrC[C@@H](Nc1[nH]cc(-c2cccnc2)[nH+]1)C(=CCC1CCOCC1)c1ccccc1

$$$$
