[NH3+][C@H](C(=O)Nc1cccc(O)c1)c1cccc(-c2ccc(Br)cc2)c1
     RDKit          3D

 43 45  0  0  1  0  0  0  0  0999 V2000
  129.9631  135.7057  158.5579 N   0  0  0  0  0  0  0  0  0  0  0  0
  129.4792  136.4930  158.9630 H   0  0  0  0  0  0  0  0  0  0  0  0
  130.8923  135.9870  158.2832 H   0  0  0  0  0  0  0  0  0  0  0  0
  129.4569  135.3804  157.7480 H   0  0  0  0  0  0  0  0  0  0  0  0
  130.0515  134.6234  159.5473 C   0  0  2  0  0  0  0  0  0  0  0  0
  130.5741  133.7729  159.1096 H   0  0  0  0  0  0  0  0  0  0  0  0
  128.6637  134.2032  159.9575 C   0  0  0  0  0  0  0  0  0  0  0  0
  127.7579  135.0099  159.9476 O   0  0  0  0  0  0  0  0  0  0  0  0
  128.4288  132.9310  160.3354 N   0  0  0  0  0  0  0  0  0  0  0  0
  127.1403  132.5409  160.7165 C   0  0  0  0  0  0  0  0  0  0  0  0
  126.7199  131.2328  160.5099 C   0  0  0  0  0  0  0  0  0  0  0  0
  125.4483  130.8475  160.8868 C   0  0  0  0  0  0  0  0  0  0  0  0
  124.5926  131.7601  161.4746 C   0  0  0  0  0  0  0  0  0  0  0  0
  125.0050  133.0694  161.6781 C   0  0  0  0  0  0  0  0  0  0  0  0
  124.1608  133.9668  162.2513 O   0  0  0  0  0  0  0  0  0  0  0  0
  126.2808  133.4597  161.3015 C   0  0  0  0  0  0  0  0  0  0  0  0
  130.8074  135.1093  160.7570 C   0  0  0  0  0  0  0  0  0  0  0  0
  130.5219  134.5865  162.0055 C   0  0  0  0  0  0  0  0  0  0  0  0
  131.2159  135.0238  163.1192 C   0  0  0  0  0  0  0  0  0  0  0  0
  132.1900  135.9934  162.9917 C   0  0  0  0  0  0  0  0  0  0  0  0
  132.4776  136.5278  161.7376 C   0  0  0  0  0  0  0  0  0  0  0  0
  133.5240  137.5701  161.5943 C   0  0  0  0  0  0  0  0  0  0  0  0
  134.2577  137.6662  160.4137 C   0  0  0  0  0  0  0  0  0  0  0  0
  135.2268  138.6400  160.2838 C   0  0  0  0  0  0  0  0  0  0  0  0
  135.4774  139.5139  161.3275 C   0  0  0  0  0  0  0  0  0  0  0  0
  136.8121  140.8410  161.1456 Br  0  0  0  0  0  0  0  0  0  0  0  0
  134.7545  139.4194  162.5041 C   0  0  0  0  0  0  0  0  0  0  0  0
  133.7800  138.4521  162.6421 C   0  0  0  0  0  0  0  0  0  0  0  0
  131.7793  136.0792  160.6180 C   0  0  0  0  0  0  0  0  0  0  0  0
  129.1531  132.2859  160.3433 H   0  0  0  0  0  0  0  0  0  0  0  0
  127.3881  130.5168  160.0546 H   0  0  0  0  0  0  0  0  0  0  0  0
  125.1233  129.8302  160.7258 H   0  0  0  0  0  0  0  0  0  0  0  0
  123.6003  131.4548  161.7723 H   0  0  0  0  0  0  0  0  0  0  0  0
  124.5370  134.8520  162.3515 H   0  0  0  0  0  0  0  0  0  0  0  0
  126.6049  134.4772  161.4629 H   0  0  0  0  0  0  0  0  0  0  0  0
  129.7576  133.8307  162.1104 H   0  0  0  0  0  0  0  0  0  0  0  0
  130.9918  134.6093  164.0910 H   0  0  0  0  0  0  0  0  0  0  0  0
  132.7279  136.3377  163.8627 H   0  0  0  0  0  0  0  0  0  0  0  0
  134.0661  136.9818  159.6004 H   0  0  0  0  0  0  0  0  0  0  0  0
  135.7938  138.7176  159.3679 H   0  0  0  0  0  0  0  0  0  0  0  0
  134.9537  140.1036  163.3156 H   0  0  0  0  0  0  0  0  0  0  0  0
  133.2165  138.3792  163.5606 H   0  0  0  0  0  0  0  0  0  0  0  0
  131.9980  136.4901  159.6435 H   0  0  0  0  0  0  0  0  0  0  0  0
  1  2  1  0
  1  3  1  0
  1  4  1  0
  1  5  1  0
  5  6  1  6
  5  7  1  0
  5 17  1  0
  7  8  2  0
  7  9  1  0
  9 10  1  0
  9 30  1  0
 10 16  1  0
 10 11  2  0
 11 12  1  0
 11 31  1  0
 12 13  2  0
 12 32  1  0
 13 14  1  0
 13 33  1  0
 14 15  1  0
 14 16  2  0
 15 34  1  0
 16 35  1  0
 17 29  1  0
 17 18  2  0
 18 19  1  0
 18 36  1  0
 19 20  2  0
 19 37  1  0
 20 21  1  0
 20 38  1  0
 21 22  1  0
 21 29  2  0
 22 28  1  0
 22 23  2  0
 23 24  1  0
 23 39  1  0
 24 25  2  0
 24 40  1  0
 25 26  1  0
 25 27  1  0
 27 28  2  0
 27 41  1  0
 28 42  1  0
 29 43  1  0
M  CHG  1   1   1
M  END
>  <DOCK_score>  (1) 
-42.011898

>  <SMILES>  (1) 
[NH3+][C@H](C(=O)Nc1cccc(O)c1)c1cccc(-c2ccc(Br)cc2)c1

$$$$
