Cc1ccccc1C[NH2+]Cc1cc2c(NCCCc3cccc4ccccc34)cccc2[nH]1
     RDKit          3D

 65 69  0  0  0  0  0  0  0  0999 V2000
  131.5209  132.5332  160.6979 C   0  0  0  0  0  0  0  0  0  0  0  0
  131.0685  132.5835  159.2613 C   0  0  0  0  0  0  0  0  0  0  0  0
  131.3426  131.5268  158.4129 C   0  0  0  0  0  0  0  0  0  0  0  0
  130.9274  131.5728  157.0953 C   0  0  0  0  0  0  0  0  0  0  0  0
  130.2383  132.6756  156.6258 C   0  0  0  0  0  0  0  0  0  0  0  0
  129.9593  133.7293  157.4755 C   0  0  0  0  0  0  0  0  0  0  0  0
  130.3792  133.6857  158.7921 C   0  0  0  0  0  0  0  0  0  0  0  0
  130.0800  134.8372  159.7170 C   0  0  0  0  0  0  0  0  0  0  0  0
  131.1806  135.8087  159.6613 N   0  0  0  0  0  0  0  0  0  0  0  0
  131.2786  136.1520  158.7177 H   0  0  0  0  0  0  0  0  0  0  0  0
  132.0386  135.3615  159.9476 H   0  0  0  0  0  0  0  0  0  0  0  0
  130.8889  136.9311  160.5630 C   0  0  0  0  0  0  0  0  0  0  0  0
  132.0178  137.9277  160.5060 C   0  0  0  0  0  0  0  0  0  0  0  0
  132.5848  138.5124  161.5728 C   0  0  0  0  0  0  0  0  0  0  0  0
  133.6327  139.4018  161.0669 C   0  0  0  0  0  0  0  0  0  0  0  0
  134.5546  140.2652  161.6758 C   0  0  0  0  0  0  0  0  0  0  0  0
  134.5825  140.3972  163.0650 N   0  0  0  0  0  0  0  0  0  0  0  0
  135.7778  140.9262  163.7265 C   0  0  0  0  0  0  0  0  0  0  0  0
  135.5478  140.9672  165.2386 C   0  0  0  0  0  0  0  0  0  0  0  0
  135.2654  139.5532  165.7500 C   0  0  0  0  0  0  0  0  0  0  0  0
  136.4434  138.6641  165.4451 C   0  0  0  0  0  0  0  0  0  0  0  0
  136.4987  137.9811  164.2688 C   0  0  0  0  0  0  0  0  0  0  0  0
  137.5794  137.1542  163.9697 C   0  0  0  0  0  0  0  0  0  0  0  0
  138.6120  137.0061  164.8443 C   0  0  0  0  0  0  0  0  0  0  0  0
  138.5904  137.6955  166.0684 C   0  0  0  0  0  0  0  0  0  0  0  0
  139.6374  137.5673  166.9971 C   0  0  0  0  0  0  0  0  0  0  0  0
  139.5813  138.2495  168.1734 C   0  0  0  0  0  0  0  0  0  0  0  0
  138.4999  139.0762  168.4728 C   0  0  0  0  0  0  0  0  0  0  0  0
  137.4682  139.2248  167.5980 C   0  0  0  0  0  0  0  0  0  0  0  0
  137.4904  138.5360  166.3731 C   0  0  0  0  0  0  0  0  0  0  0  0
  135.4323  140.9894  160.8893 C   0  0  0  0  0  0  0  0  0  0  0  0
  135.4092  140.8547  159.5086 C   0  0  0  0  0  0  0  0  0  0  0  0
  134.5084  140.0099  158.8986 C   0  0  0  0  0  0  0  0  0  0  0  0
  133.6106  139.2743  159.6680 C   0  0  0  0  0  0  0  0  0  0  0  0
  132.6185  138.3713  159.3579 N   0  0  0  0  0  0  0  0  0  0  0  0
  132.3807  138.0909  158.4603 H   0  0  0  0  0  0  0  0  0  0  0  0
  130.7411  132.0778  161.3086 H   0  0  0  0  0  0  0  0  0  0  0  0
  132.4324  131.9403  160.7713 H   0  0  0  0  0  0  0  0  0  0  0  0
  131.7159  133.5451  161.0531 H   0  0  0  0  0  0  0  0  0  0  0  0
  131.8810  130.6653  158.7797 H   0  0  0  0  0  0  0  0  0  0  0  0
  131.1415  130.7473  156.4326 H   0  0  0  0  0  0  0  0  0  0  0  0
  129.9141  132.7115  155.5963 H   0  0  0  0  0  0  0  0  0  0  0  0
  129.4168  134.5887  157.1100 H   0  0  0  0  0  0  0  0  0  0  0  0
  129.9739  134.4663  160.7363 H   0  0  0  0  0  0  0  0  0  0  0  0
  129.1530  135.3202  159.4077 H   0  0  0  0  0  0  0  0  0  0  0  0
  130.7828  136.5601  161.5826 H   0  0  0  0  0  0  0  0  0  0  0  0
  129.9619  137.4140  160.2538 H   0  0  0  0  0  0  0  0  0  0  0  0
  132.3190  138.3564  162.6079 H   0  0  0  0  0  0  0  0  0  0  0  0
  133.8106  140.1387  163.5923 H   0  0  0  0  0  0  0  0  0  0  0  0
  135.9789  141.9337  163.3622 H   0  0  0  0  0  0  0  0  0  0  0  0
  136.6298  140.2833  163.5059 H   0  0  0  0  0  0  0  0  0  0  0  0
  134.6957  141.6102  165.4592 H   0  0  0  0  0  0  0  0  0  0  0  0
  136.4370  141.3609  165.7308 H   0  0  0  0  0  0  0  0  0  0  0  0
  134.3761  139.1596  165.2578 H   0  0  0  0  0  0  0  0  0  0  0  0
  135.1015  139.5824  166.8273 H   0  0  0  0  0  0  0  0  0  0  0  0
  135.6927  138.0816  163.5570 H   0  0  0  0  0  0  0  0  0  0  0  0
  137.5985  136.6230  163.0294 H   0  0  0  0  0  0  0  0  0  0  0  0
  139.4456  136.3656  164.5966 H   0  0  0  0  0  0  0  0  0  0  0  0
  140.4817  136.9302  166.7788 H   0  0  0  0  0  0  0  0  0  0  0  0
  140.3871  138.1488  168.8855 H   0  0  0  0  0  0  0  0  0  0  0  0
  138.4804  139.6067  169.4135 H   0  0  0  0  0  0  0  0  0  0  0  0
  136.6368  139.8691  167.8436 H   0  0  0  0  0  0  0  0  0  0  0  0
  136.1416  141.6593  161.3524 H   0  0  0  0  0  0  0  0  0  0  0  0
  136.1024  141.4219  158.9051 H   0  0  0  0  0  0  0  0  0  0  0  0
  134.4987  139.9177  157.8226 H   0  0  0  0  0  0  0  0  0  0  0  0
  1  2  1  0
  1 37  1  0
  1 38  1  0
  1 39  1  0
  2  7  2  0
  2  3  1  0
  3  4  2  0
  3 40  1  0
  4  5  1  0
  4 41  1  0
  5  6  2  0
  5 42  1  0
  6  7  1  0
  6 43  1  0
  7  8  1  0
  8  9  1  0
  8 44  1  0
  8 45  1  0
  9 10  1  0
  9 11  1  0
  9 12  1  0
 12 13  1  0
 12 46  1  0
 12 47  1  0
 13 35  1  0
 13 14  2  0
 14 15  1  0
 14 48  1  0
 15 34  2  0
 15 16  1  0
 16 17  1  0
 16 31  2  0
 17 18  1  0
 17 49  1  0
 18 19  1  0
 18 50  1  0
 18 51  1  0
 19 20  1  0
 19 52  1  0
 19 53  1  0
 20 21  1  0
 20 54  1  0
 20 55  1  0
 21 30  1  0
 21 22  2  0
 22 23  1  0
 22 56  1  0
 23 24  2  0
 23 57  1  0
 24 25  1  0
 24 58  1  0
 25 30  2  0
 25 26  1  0
 26 27  2  0
 26 59  1  0
 27 28  1  0
 27 60  1  0
 28 29  2  0
 28 61  1  0
 29 30  1  0
 29 62  1  0
 31 32  1  0
 31 63  1  0
 32 33  2  0
 32 64  1  0
 33 34  1  0
 33 65  1  0
 34 35  1  0
 35 36  1  0
M  CHG  1   9   1
M  END
>  <DOCK_score>  (1) 
-59.407452

>  <SMILES>  (1) 
Cc1ccccc1C[NH2+]Cc1cc2c(NCCCc3cccc4ccccc34)cccc2[nH]1

$$$$
