O=C1NCC(NC(NC2CCCCCC2)=[NH+][C@H]2CCOc3ccccc3C2)CN1
     RDKit          3D

 63 66  0  0  1  0  0  0  0  0999 V2000
  123.7625  134.0399  161.4423 O   0  0  0  0  0  0  0  0  0  0  0  0
  124.9557  134.2671  161.3872 C   0  0  0  0  0  0  0  0  0  0  0  0
  125.7500  133.3894  160.7564 N   0  0  0  0  0  0  0  0  0  0  0  0
  127.1959  133.5995  160.6659 C   0  0  0  0  0  0  0  0  0  0  0  0
  127.4874  135.1038  160.6820 C   0  0  0  0  0  0  0  0  0  0  0  0
  128.9349  135.3280  160.7051 N   0  0  0  0  0  0  0  0  0  0  0  0
  129.7205  134.8531  159.6818 C   0  0  0  0  0  0  0  0  0  0  0  0
  131.0790  135.0635  159.7034 N   0  0  0  0  0  0  0  0  0  0  0  0
  131.7840  135.1656  160.9837 C   0  0  0  0  0  0  0  0  0  0  0  0
  131.7377  136.6307  161.4638 C   0  0  0  0  0  0  0  0  0  0  0  0
  131.9843  136.6554  162.9481 C   0  0  0  0  0  0  0  0  0  0  0  0
  133.4670  136.8883  163.2957 C   0  0  0  0  0  0  0  0  0  0  0  0
  134.4253  136.0930  162.3886 C   0  0  0  0  0  0  0  0  0  0  0  0
  133.9439  134.6907  162.1316 C   0  0  0  0  0  0  0  0  0  0  0  0
  133.1455  134.6809  160.8119 C   0  0  0  0  0  0  0  0  0  0  0  0
  129.1776  134.2033  158.6909 N   0  0  0  0  0  0  0  0  0  0  0  0
  128.2678  134.4034  158.4202 H   0  0  0  0  0  0  0  0  0  0  0  0
  129.9412  133.1706  157.9860 C   0  0  1  0  0  0  0  0  0  0  0  0
  130.8352  133.6188  157.5526 H   0  0  0  0  0  0  0  0  0  0  0  0
  130.3520  132.0894  158.9745 C   0  0  0  0  0  0  0  0  0  0  0  0
  131.3055  131.0687  158.3895 C   0  0  0  0  0  0  0  0  0  0  0  0
  130.6716  130.3106  157.3541 O   0  0  0  0  0  0  0  0  0  0  0  0
  130.7243  130.8571  156.1083 C   0  0  0  0  0  0  0  0  0  0  0  0
  131.5213  130.2741  155.1313 C   0  0  0  0  0  0  0  0  0  0  0  0
  131.5889  130.8434  153.8742 C   0  0  0  0  0  0  0  0  0  0  0  0
  130.8688  131.9892  153.5891 C   0  0  0  0  0  0  0  0  0  0  0  0
  130.0685  132.5649  154.5602 C   0  0  0  0  0  0  0  0  0  0  0  0
  129.9932  131.9889  155.8125 C   0  0  0  0  0  0  0  0  0  0  0  0
  129.0804  132.5841  156.8668 C   0  0  0  0  0  0  0  0  0  0  0  0
  126.8526  135.7104  161.9380 C   0  0  0  0  0  0  0  0  0  0  0  0
  125.4254  135.3858  161.9593 N   0  0  0  0  0  0  0  0  0  0  0  0
  125.3589  132.5975  160.3554 H   0  0  0  0  0  0  0  0  0  0  0  0
  127.6869  133.1241  161.5152 H   0  0  0  0  0  0  0  0  0  0  0  0
  127.5696  133.1659  159.7384 H   0  0  0  0  0  0  0  0  0  0  0  0
  127.0591  135.5691  159.7942 H   0  0  0  0  0  0  0  0  0  0  0  0
  129.3392  135.8114  161.4426 H   0  0  0  0  0  0  0  0  0  0  0  0
  131.5706  135.1443  158.8713 H   0  0  0  0  0  0  0  0  0  0  0  0
  131.2761  134.5391  161.7169 H   0  0  0  0  0  0  0  0  0  0  0  0
  132.5100  137.2074  160.9548 H   0  0  0  0  0  0  0  0  0  0  0  0
  130.7575  137.0559  161.2483 H   0  0  0  0  0  0  0  0  0  0  0  0
  131.6675  135.7033  163.3740 H   0  0  0  0  0  0  0  0  0  0  0  0
  131.3885  137.4534  163.3912 H   0  0  0  0  0  0  0  0  0  0  0  0
  133.6360  136.5922  164.3311 H   0  0  0  0  0  0  0  0  0  0  0  0
  133.6875  137.9509  163.1940 H   0  0  0  0  0  0  0  0  0  0  0  0
  135.4050  136.0478  162.8643 H   0  0  0  0  0  0  0  0  0  0  0  0
  134.5201  136.6135  161.4358 H   0  0  0  0  0  0  0  0  0  0  0  0
  133.3012  134.3683  162.9508 H   0  0  0  0  0  0  0  0  0  0  0  0
  134.7968  134.0172  162.0486 H   0  0  0  0  0  0  0  0  0  0  0  0
  133.1115  133.6615  160.4276 H   0  0  0  0  0  0  0  0  0  0  0  0
  133.6569  135.3142  160.0870 H   0  0  0  0  0  0  0  0  0  0  0  0
  130.8305  132.5633  159.8316 H   0  0  0  0  0  0  0  0  0  0  0  0
  129.4562  131.5729  159.3195 H   0  0  0  0  0  0  0  0  0  0  0  0
  132.1726  131.5842  157.9763 H   0  0  0  0  0  0  0  0  0  0  0  0
  131.6337  130.3918  159.1783 H   0  0  0  0  0  0  0  0  0  0  0  0
  132.0850  129.3801  155.3532 H   0  0  0  0  0  0  0  0  0  0  0  0
  132.2066  130.3923  153.1116 H   0  0  0  0  0  0  0  0  0  0  0  0
  130.9308  132.4349  152.6073 H   0  0  0  0  0  0  0  0  0  0  0  0
  129.5059  133.4599  154.3395 H   0  0  0  0  0  0  0  0  0  0  0  0
  128.4341  131.8057  157.2725 H   0  0  0  0  0  0  0  0  0  0  0  0
  128.4727  133.3721  156.4219 H   0  0  0  0  0  0  0  0  0  0  0  0
  126.9798  136.7928  161.9240 H   0  0  0  0  0  0  0  0  0  0  0  0
  127.3332  135.2985  162.8253 H   0  0  0  0  0  0  0  0  0  0  0  0
  124.8066  135.9920  162.3959 H   0  0  0  0  0  0  0  0  0  0  0  0
  1  2  2  0
  2 31  1  0
  2  3  1  0
  3  4  1  0
  3 32  1  0
  4  5  1  0
  4 33  1  0
  4 34  1  0
  5  6  1  0
  5 30  1  0
  5 35  1  0
  6 36  1  0
  7  6  1  0
  7  8  1  0
  7 16  2  0
  8  9  1  0
  8 37  1  0
  9 15  1  0
  9 10  1  0
  9 38  1  0
 10 11  1  0
 10 39  1  0
 10 40  1  0
 11 12  1  0
 11 41  1  0
 11 42  1  0
 12 13  1  0
 12 43  1  0
 12 44  1  0
 13 14  1  0
 13 45  1  0
 13 46  1  0
 14 15  1  0
 14 47  1  0
 14 48  1  0
 15 49  1  0
 15 50  1  0
 16 17  1  0
 16 18  1  0
 18 19  1  6
 18 29  1  0
 18 20  1  0
 20 21  1  0
 20 51  1  0
 20 52  1  0
 21 22  1  0
 21 53  1  0
 21 54  1  0
 22 23  1  0
 23 28  2  0
 23 24  1  0
 24 25  2  0
 24 55  1  0
 25 26  1  0
 25 56  1  0
 26 27  2  0
 26 57  1  0
 27 28  1  0
 27 58  1  0
 28 29  1  0
 29 59  1  0
 29 60  1  0
 30 31  1  0
 30 61  1  0
 30 62  1  0
 31 63  1  0
M  CHG  1  16   1
M  END
>  <DOCK_score>  (1) 
-50.215942

>  <SMILES>  (1) 
O=C1NCC(NC(NC2CCCCCC2)=[NH+][C@H]2CCOc3ccccc3C2)CN1

$$$$
