Cc1c(-c2ccc(-c3ccccc3)cc2)cccc1N1CC[NH+](C(c2ccccc2)c2ccccc2)CC1
     RDKit          3D

 73 78  0  0  0  0  0  0  0  0999 V2000
  134.3784  136.0386  163.6731 C   0  0  0  0  0  0  0  0  0  0  0  0
  134.7027  136.9671  162.5312 C   0  0  0  0  0  0  0  0  0  0  0  0
  135.7587  137.8685  162.6421 C   0  0  0  0  0  0  0  0  0  0  0  0
  136.5668  137.9178  163.8848 C   0  0  0  0  0  0  0  0  0  0  0  0
  136.1933  138.7666  164.9262 C   0  0  0  0  0  0  0  0  0  0  0  0
  136.9438  138.8123  166.0804 C   0  0  0  0  0  0  0  0  0  0  0  0
  138.0769  138.0095  166.2076 C   0  0  0  0  0  0  0  0  0  0  0  0
  138.8853  138.0591  167.4500 C   0  0  0  0  0  0  0  0  0  0  0  0
  139.5751  136.9274  167.8814 C   0  0  0  0  0  0  0  0  0  0  0  0
  140.3291  136.9806  169.0360 C   0  0  0  0  0  0  0  0  0  0  0  0
  140.3935  138.1514  169.7698 C   0  0  0  0  0  0  0  0  0  0  0  0
  139.7068  139.2762  169.3493 C   0  0  0  0  0  0  0  0  0  0  0  0
  138.9534  139.2359  168.1937 C   0  0  0  0  0  0  0  0  0  0  0  0
  138.4531  137.1643  165.1642 C   0  0  0  0  0  0  0  0  0  0  0  0
  137.6998  137.1150  164.0119 C   0  0  0  0  0  0  0  0  0  0  0  0
  136.0505  138.7278  161.5841 C   0  0  0  0  0  0  0  0  0  0  0  0
  135.3001  138.6776  160.4260 C   0  0  0  0  0  0  0  0  0  0  0  0
  134.2525  137.7835  160.3148 C   0  0  0  0  0  0  0  0  0  0  0  0
  133.9509  136.9263  161.3667 C   0  0  0  0  0  0  0  0  0  0  0  0
  132.8911  136.0237  161.2505 N   0  0  0  0  0  0  0  0  0  0  0  0
  133.1444  135.0486  160.1805 C   0  0  0  0  0  0  0  0  0  0  0  0
  131.9908  134.0446  160.1255 C   0  0  0  0  0  0  0  0  0  0  0  0
  130.7321  134.7583  159.8732 N   0  0  0  0  0  0  0  0  0  0  0  0
  130.7982  135.2575  158.9988 H   0  0  0  0  0  0  0  0  0  0  0  0
  129.6275  133.7923  159.8025 C   0  0  0  0  0  0  0  0  0  0  0  0
  128.3359  134.5242  159.5436 C   0  0  0  0  0  0  0  0  0  0  0  0
  127.5677  134.9668  160.6043 C   0  0  0  0  0  0  0  0  0  0  0  0
  126.3854  135.6425  160.3668 C   0  0  0  0  0  0  0  0  0  0  0  0
  125.9660  135.8665  159.0688 C   0  0  0  0  0  0  0  0  0  0  0  0
  126.7316  135.4194  158.0082 C   0  0  0  0  0  0  0  0  0  0  0  0
  127.9166  134.7483  158.2456 C   0  0  0  0  0  0  0  0  0  0  0  0
  129.8848  132.8160  158.6838 C   0  0  0  0  0  0  0  0  0  0  0  0
  129.4082  131.5214  158.7731 C   0  0  0  0  0  0  0  0  0  0  0  0
  129.6401  130.6273  157.7447 C   0  0  0  0  0  0  0  0  0  0  0  0
  130.3573  131.0246  156.6317 C   0  0  0  0  0  0  0  0  0  0  0  0
  130.8382  132.3177  156.5448 C   0  0  0  0  0  0  0  0  0  0  0  0
  130.6019  133.2133  157.5709 C   0  0  0  0  0  0  0  0  0  0  0  0
  130.4803  135.7108  160.9625 C   0  0  0  0  0  0  0  0  0  0  0  0
  131.6213  136.7286  161.0244 C   0  0  0  0  0  0  0  0  0  0  0  0
  133.6596  136.5175  164.3379 H   0  0  0  0  0  0  0  0  0  0  0  0
  133.9517  135.1156  163.2808 H   0  0  0  0  0  0  0  0  0  0  0  0
  135.2896  135.8113  164.2265 H   0  0  0  0  0  0  0  0  0  0  0  0
  135.3157  139.3884  164.8278 H   0  0  0  0  0  0  0  0  0  0  0  0
  136.6545  139.4698  166.8869 H   0  0  0  0  0  0  0  0  0  0  0  0
  139.5222  136.0116  167.3114 H   0  0  0  0  0  0  0  0  0  0  0  0
  140.8674  136.1055  169.3690 H   0  0  0  0  0  0  0  0  0  0  0  0
  140.9819  138.1874  170.6749 H   0  0  0  0  0  0  0  0  0  0  0  0
  139.7599  140.1875  169.9266 H   0  0  0  0  0  0  0  0  0  0  0  0
  138.4174  140.1146  167.8665 H   0  0  0  0  0  0  0  0  0  0  0  0
  139.3330  136.5455  165.2611 H   0  0  0  0  0  0  0  0  0  0  0  0
  137.9893  136.4576  163.2053 H   0  0  0  0  0  0  0  0  0  0  0  0
  136.8663  139.4307  161.6687 H   0  0  0  0  0  0  0  0  0  0  0  0
  135.5303  139.3419  159.6062 H   0  0  0  0  0  0  0  0  0  0  0  0
  133.6664  137.7509  159.4083 H   0  0  0  0  0  0  0  0  0  0  0  0
  133.2200  135.5683  159.2253 H   0  0  0  0  0  0  0  0  0  0  0  0
  134.0764  134.5209  160.3825 H   0  0  0  0  0  0  0  0  0  0  0  0
  131.9242  133.5155  161.0762 H   0  0  0  0  0  0  0  0  0  0  0  0
  132.1699  133.3290  159.3231 H   0  0  0  0  0  0  0  0  0  0  0  0
  129.5562  133.2525  160.7467 H   0  0  0  0  0  0  0  0  0  0  0  0
  127.8931  134.7878  161.6184 H   0  0  0  0  0  0  0  0  0  0  0  0
  125.7870  135.9915  161.1954 H   0  0  0  0  0  0  0  0  0  0  0  0
  125.0401  136.3906  158.8833 H   0  0  0  0  0  0  0  0  0  0  0  0
  126.4039  135.5941  156.9940 H   0  0  0  0  0  0  0  0  0  0  0  0
  128.5146  134.3987  157.4171 H   0  0  0  0  0  0  0  0  0  0  0  0
  128.8518  131.2097  159.6445 H   0  0  0  0  0  0  0  0  0  0  0  0
  129.2646  129.6169  157.8127 H   0  0  0  0  0  0  0  0  0  0  0  0
  130.5421  130.3246  155.8303 H   0  0  0  0  0  0  0  0  0  0  0  0
  131.3988  132.6280  155.6754 H   0  0  0  0  0  0  0  0  0  0  0  0
  130.9780  134.2236  157.5031 H   0  0  0  0  0  0  0  0  0  0  0  0
  130.4212  135.1731  161.9089 H   0  0  0  0  0  0  0  0  0  0  0  0
  129.5394  136.2303  160.7808 H   0  0  0  0  0  0  0  0  0  0  0  0
  131.4422  137.4266  161.8422 H   0  0  0  0  0  0  0  0  0  0  0  0
  131.6717  137.2760  160.0832 H   0  0  0  0  0  0  0  0  0  0  0  0
  1  2  1  0
  1 40  1  0
  1 41  1  0
  1 42  1  0
  2 19  2  0
  2  3  1  0
  3  4  1  0
  3 16  2  0
  4 15  1  0
  4  5  2  0
  5  6  1  0
  5 43  1  0
  6  7  2  0
  6 44  1  0
  7  8  1  0
  7 14  1  0
  8 13  1  0
  8  9  2  0
  9 10  1  0
  9 45  1  0
 10 11  2  0
 10 46  1  0
 11 12  1  0
 11 47  1  0
 12 13  2  0
 12 48  1  0
 13 49  1  0
 14 15  2  0
 14 50  1  0
 15 51  1  0
 16 17  1  0
 16 52  1  0
 17 18  2  0
 17 53  1  0
 18 19  1  0
 18 54  1  0
 19 20  1  0
 20 39  1  0
 20 21  1  0
 21 22  1  0
 21 55  1  0
 21 56  1  0
 22 23  1  0
 22 57  1  0
 22 58  1  0
 23 24  1  0
 23 25  1  0
 23 38  1  0
 25 26  1  0
 25 32  1  0
 25 59  1  0
 26 31  1  0
 26 27  2  0
 27 28  1  0
 27 60  1  0
 28 29  2  0
 28 61  1  0
 29 30  1  0
 29 62  1  0
 30 31  2  0
 30 63  1  0
 31 64  1  0
 32 37  1  0
 32 33  2  0
 33 34  1  0
 33 65  1  0
 34 35  2  0
 34 66  1  0
 35 36  1  0
 35 67  1  0
 36 37  2  0
 36 68  1  0
 37 69  1  0
 38 39  1  0
 38 70  1  0
 38 71  1  0
 39 72  1  0
 39 73  1  0
M  CHG  1  23   1
M  END
>  <DOCK_score>  (1) 
-60.221104

>  <SMILES>  (1) 
Cc1c(-c2ccc(-c3ccccc3)cc2)cccc1N1CC[NH+](C(c2ccccc2)c2ccccc2)CC1

$$$$
