O=C1C=C(Nc2ccc(CNc3[nH]cc(-c4ccc([N+](=O)[O-])cc4)[nH+]3)o2)CC1
     RDKit          3D

 46 49  0  0  1  0  0  0  0  0999 V2000
  127.5811  140.3903  164.0732 O   0  0  0  0  0  0  0  0  0  0  0  0
  127.7256  139.3445  163.4707 C   0  0  0  0  0  0  0  0  0  0  0  0
  126.6995  138.4989  163.0496 C   0  0  0  0  0  0  0  0  0  0  0  0
  127.1470  137.4026  162.4059 C   0  0  0  0  0  0  0  0  0  0  0  0
  126.3586  136.4146  161.8958 N   0  0  0  0  0  0  0  0  0  0  0  0
  126.9374  135.3263  161.2490 C   0  0  0  0  0  0  0  0  0  0  0  0
  126.2707  134.2860  160.6953 C   0  0  0  0  0  0  0  0  0  0  0  0
  127.2459  133.4171  160.1559 C   0  0  0  0  0  0  0  0  0  0  0  0
  128.4455  133.9750  160.3996 C   0  0  0  0  0  0  0  0  0  0  0  0
  129.7802  133.4013  159.9991 C   0  0  0  0  0  0  0  0  0  0  0  0
  130.6139  134.4597  159.4237 N   0  0  0  0  0  0  0  0  0  0  0  0
  131.4421  135.2097  160.2410 C   0  0  0  0  0  0  0  0  0  0  0  0
  131.5673  135.0664  161.5885 N   0  0  0  0  0  0  0  0  0  0  0  0
  131.0961  134.4261  162.1445 H   0  0  0  0  0  0  0  0  0  0  0  0
  132.4863  135.9937  162.0157 C   0  0  0  0  0  0  0  0  0  0  0  0
  132.8891  136.6826  160.9194 C   0  0  0  0  0  0  0  0  0  0  0  0
  133.8747  137.7909  160.8983 C   0  0  0  0  0  0  0  0  0  0  0  0
  133.7765  138.7961  159.9377 C   0  0  0  0  0  0  0  0  0  0  0  0
  134.6938  139.8271  159.9254 C   0  0  0  0  0  0  0  0  0  0  0  0
  135.7147  139.8592  160.8575 C   0  0  0  0  0  0  0  0  0  0  0  0
  136.6985  140.9652  160.8359 N   0  0  0  0  0  0  0  0  0  0  0  0
  136.6085  141.8444  159.9989 O   0  0  0  0  0  0  0  0  0  0  0  0
  137.5993  140.9947  161.6563 O   0  0  0  0  0  0  0  0  0  0  0  0
  135.8204  138.8612  161.8105 C   0  0  0  0  0  0  0  0  0  0  0  0
  134.9058  137.8280  161.8351 C   0  0  0  0  0  0  0  0  0  0  0  0
  132.2310  136.1788  159.8453 N   0  0  0  0  0  0  0  0  0  0  0  0
  132.3281  136.4869  158.9306 H   0  0  0  0  0  0  0  0  0  0  0  0
  128.2540  135.1305  161.0616 O   0  0  0  0  0  0  0  0  0  0  0  0
  128.6554  137.4391  162.3306 C   0  0  0  0  0  0  0  0  0  0  0  0
  129.0480  138.7450  163.0463 C   0  0  0  0  0  0  0  0  0  0  0  0
  125.6529  138.7006  163.2241 H   0  0  0  0  0  0  0  0  0  0  0  0
  125.3941  136.4700  161.9835 H   0  0  0  0  0  0  0  0  0  0  0  0
  125.2001  134.1459  160.6726 H   0  0  0  0  0  0  0  0  0  0  0  0
  127.0629  132.4852  159.6418 H   0  0  0  0  0  0  0  0  0  0  0  0
  130.2751  132.9857  160.8770 H   0  0  0  0  0  0  0  0  0  0  0  0
  129.6304  132.6144  159.2598 H   0  0  0  0  0  0  0  0  0  0  0  0
  130.5855  134.6347  158.4700 H   0  0  0  0  0  0  0  0  0  0  0  0
  132.8206  136.1478  163.0311 H   0  0  0  0  0  0  0  0  0  0  0  0
  132.9821  138.7700  159.2065 H   0  0  0  0  0  0  0  0  0  0  0  0
  134.6163  140.6088  159.1842 H   0  0  0  0  0  0  0  0  0  0  0  0
  136.6199  138.8909  162.5360 H   0  0  0  0  0  0  0  0  0  0  0  0
  134.9890  137.0497  162.5794 H   0  0  0  0  0  0  0  0  0  0  0  0
  129.0827  136.5794  162.8467 H   0  0  0  0  0  0  0  0  0  0  0  0
  128.9837  137.4595  161.2913 H   0  0  0  0  0  0  0  0  0  0  0  0
  129.6675  138.5317  163.9174 H   0  0  0  0  0  0  0  0  0  0  0  0
  129.5684  139.4144  162.3613 H   0  0  0  0  0  0  0  0  0  0  0  0
  1  2  2  0
  2 30  1  0
  2  3  1  0
  3  4  2  0
  3 31  1  0
  4  5  1  0
  4 29  1  0
  5  6  1  0
  5 32  1  0
  6 28  1  0
  6  7  2  0
  7  8  1  0
  7 33  1  0
  8  9  2  0
  8 34  1  0
  9 10  1  0
  9 28  1  0
 10 11  1  0
 10 35  1  0
 10 36  1  0
 11 37  1  0
 12 11  1  0
 12 26  2  0
 12 13  1  0
 13 14  1  0
 13 15  1  0
 15 16  2  0
 15 38  1  0
 16 17  1  0
 16 26  1  0
 17 25  1  0
 17 18  2  0
 18 19  1  0
 18 39  1  0
 19 20  2  0
 19 40  1  0
 20 21  1  0
 20 24  1  0
 21 22  2  0
 21 23  1  0
 24 25  2  0
 24 41  1  0
 25 42  1  0
 26 27  1  0
 29 30  1  0
 29 43  1  0
 29 44  1  0
 30 45  1  0
 30 46  1  0
M  CHG  3  21   1  23  -1  26   1
M  END
>  <DOCK_score>  (1) 
-43.742973

>  <SMILES>  (1) 
O=C1C=C(Nc2ccc(CNc3[nH]cc(-c4ccc([N+](=O)[O-])cc4)[nH+]3)o2)CC1

$$$$
