Cc1cccc(Nc2ccccc2Nc2cccc(F)c2NC2=[NH+]CCN2)c1
     RDKit          3D

 51 54  0  0  0  0  0  0  0  0999 V2000
  137.8938  140.0323  159.0902 C   0  0  0  0  0  0  0  0  0  0  0  0
  136.8401  139.5045  160.0293 C   0  0  0  0  0  0  0  0  0  0  0  0
  137.1373  139.3192  161.3673 C   0  0  0  0  0  0  0  0  0  0  0  0
  136.1735  138.8349  162.2324 C   0  0  0  0  0  0  0  0  0  0  0  0
  134.9083  138.5394  161.7638 C   0  0  0  0  0  0  0  0  0  0  0  0
  134.6076  138.7198  160.4196 C   0  0  0  0  0  0  0  0  0  0  0  0
  133.3304  138.4179  159.9413 N   0  0  0  0  0  0  0  0  0  0  0  0
  132.2135  139.0833  160.4601 C   0  0  0  0  0  0  0  0  0  0  0  0
  132.3352  140.3806  160.9353 C   0  0  0  0  0  0  0  0  0  0  0  0
  131.2295  141.0378  161.4415 C   0  0  0  0  0  0  0  0  0  0  0  0
  130.0012  140.4040  161.4814 C   0  0  0  0  0  0  0  0  0  0  0  0
  129.8714  139.1091  161.0152 C   0  0  0  0  0  0  0  0  0  0  0  0
  130.9754  138.4416  160.5055 C   0  0  0  0  0  0  0  0  0  0  0  0
  130.8466  137.1306  160.0330 N   0  0  0  0  0  0  0  0  0  0  0  0
  131.0424  136.0513  160.9018 C   0  0  0  0  0  0  0  0  0  0  0  0
  131.3589  136.2791  162.2338 C   0  0  0  0  0  0  0  0  0  0  0  0
  131.5527  135.2123  163.0908 C   0  0  0  0  0  0  0  0  0  0  0  0
  131.4314  133.9154  162.6259 C   0  0  0  0  0  0  0  0  0  0  0  0
  131.1156  133.6786  161.2992 C   0  0  0  0  0  0  0  0  0  0  0  0
  130.9975  132.4103  160.8487 F   0  0  0  0  0  0  0  0  0  0  0  0
  130.9146  134.7450  160.4330 C   0  0  0  0  0  0  0  0  0  0  0  0
  130.5889  134.5081  159.0890 N   0  0  0  0  0  0  0  0  0  0  0  0
  129.8831  133.3873  158.7431 C   0  0  0  0  0  0  0  0  0  0  0  0
  130.0157  132.7930  157.5681 N   0  0  0  0  0  0  0  0  0  0  0  0
  130.6075  133.0823  156.8562 H   0  0  0  0  0  0  0  0  0  0  0  0
  129.1266  131.6220  157.5140 C   0  0  0  0  0  0  0  0  0  0  0  0
  128.4267  131.6389  158.8880 C   0  0  0  0  0  0  0  0  0  0  0  0
  129.0090  132.8140  159.5547 N   0  0  0  0  0  0  0  0  0  0  0  0
  135.5788  139.2066  159.5530 C   0  0  0  0  0  0  0  0  0  0  0  0
  137.8452  141.1210  159.0645 H   0  0  0  0  0  0  0  0  0  0  0  0
  138.8790  139.7208  159.4375 H   0  0  0  0  0  0  0  0  0  0  0  0
  137.7197  139.6372  158.0894 H   0  0  0  0  0  0  0  0  0  0  0  0
  138.1248  139.5529  161.7372 H   0  0  0  0  0  0  0  0  0  0  0  0
  136.4090  138.6915  163.2766 H   0  0  0  0  0  0  0  0  0  0  0  0
  134.1546  138.1656  162.4409 H   0  0  0  0  0  0  0  0  0  0  0  0
  133.2176  137.7472  159.2498 H   0  0  0  0  0  0  0  0  0  0  0  0
  133.2930  140.8788  160.9058 H   0  0  0  0  0  0  0  0  0  0  0  0
  131.3253  142.0495  161.8074 H   0  0  0  0  0  0  0  0  0  0  0  0
  129.1406  140.9220  161.8782 H   0  0  0  0  0  0  0  0  0  0  0  0
  128.9105  138.6170  161.0475 H   0  0  0  0  0  0  0  0  0  0  0  0
  130.6215  136.9700  159.1033 H   0  0  0  0  0  0  0  0  0  0  0  0
  131.4542  137.2904  162.6008 H   0  0  0  0  0  0  0  0  0  0  0  0
  131.7992  135.3920  164.1268 H   0  0  0  0  0  0  0  0  0  0  0  0
  131.5831  133.0854  163.2999 H   0  0  0  0  0  0  0  0  0  0  0  0
  130.8637  135.1385  158.4050 H   0  0  0  0  0  0  0  0  0  0  0  0
  129.7015  130.7047  157.3871 H   0  0  0  0  0  0  0  0  0  0  0  0
  128.3980  131.7313  156.7107 H   0  0  0  0  0  0  0  0  0  0  0  0
  128.6531  130.7298  159.4453 H   0  0  0  0  0  0  0  0  0  0  0  0
  127.3496  131.7580  158.7715 H   0  0  0  0  0  0  0  0  0  0  0  0
  128.7871  133.1205  160.4478 H   0  0  0  0  0  0  0  0  0  0  0  0
  135.3472  139.3515  158.5081 H   0  0  0  0  0  0  0  0  0  0  0  0
  1  2  1  0
  1 30  1  0
  1 31  1  0
  1 32  1  0
  2 29  2  0
  2  3  1  0
  3  4  2  0
  3 33  1  0
  4  5  1  0
  4 34  1  0
  5  6  2  0
  5 35  1  0
  6  7  1  0
  6 29  1  0
  7  8  1  0
  7 36  1  0
  8 13  1  0
  8  9  2  0
  9 10  1  0
  9 37  1  0
 10 11  2  0
 10 38  1  0
 11 12  1  0
 11 39  1  0
 12 13  2  0
 12 40  1  0
 13 14  1  0
 14 15  1  0
 14 41  1  0
 15 21  1  0
 15 16  2  0
 16 17  1  0
 16 42  1  0
 17 18  2  0
 17 43  1  0
 18 19  1  0
 18 44  1  0
 19 20  1  0
 19 21  2  0
 21 22  1  0
 22 23  1  0
 22 45  1  0
 23 28  2  0
 23 24  1  0
 24 25  1  0
 24 26  1  0
 26 27  1  0
 26 46  1  0
 26 47  1  0
 27 28  1  0
 27 48  1  0
 27 49  1  0
 28 50  1  0
 29 51  1  0
M  CHG  1  28   1
M  END
>  <DOCK_score>  (1) 
-56.829048

>  <SMILES>  (1) 
Cc1cccc(Nc2ccccc2Nc2cccc(F)c2NC2=[NH+]CCN2)c1

$$$$
