Nc1ccc(-c2c[nH]c(N[C@@H](C3CC=CC3)C3CCCC3O)[nH+]2)cc1
     RDKit          3D

 52 55  0  0  1  0  0  0  0  0999 V2000
  130.9396  130.0305  151.6677 N   0  0  0  0  0  0  0  0  0  0  0  0
  130.7643  130.6212  152.9213 C   0  0  0  0  0  0  0  0  0  0  0  0
  130.4696  131.9763  153.0148 C   0  0  0  0  0  0  0  0  0  0  0  0
  130.2966  132.5616  154.2513 C   0  0  0  0  0  0  0  0  0  0  0  0
  130.4170  131.7931  155.4081 C   0  0  0  0  0  0  0  0  0  0  0  0
  130.2313  132.4206  156.7394 C   0  0  0  0  0  0  0  0  0  0  0  0
  129.7594  131.8063  157.8523 C   0  0  0  0  0  0  0  0  0  0  0  0
  129.7558  132.7465  158.8555 N   0  0  0  0  0  0  0  0  0  0  0  0
  129.4740  132.6067  159.7730 H   0  0  0  0  0  0  0  0  0  0  0  0
  130.2173  133.9102  158.3223 C   0  0  0  0  0  0  0  0  0  0  0  0
  130.3657  135.1063  159.0035 N   0  0  0  0  0  0  0  0  0  0  0  0
  129.4775  135.4263  160.1238 C   0  0  1  0  0  0  0  0  0  0  0  0
  129.3062  134.5295  160.7193 H   0  0  0  0  0  0  0  0  0  0  0  0
  130.1256  136.5023  160.9972 C   0  0  0  0  0  0  0  0  0  0  0  0
  131.5632  136.0990  161.3997 C   0  0  0  0  0  0  0  0  0  0  0  0
  132.3496  137.3890  161.3686 C   0  0  0  0  0  0  0  0  0  0  0  0
  131.7049  138.3146  160.7081 C   0  0  0  0  0  0  0  0  0  0  0  0
  130.3856  137.7937  160.1873 C   0  0  0  0  0  0  0  0  0  0  0  0
  128.1422  135.9431  159.5845 C   0  0  1  0  0  0  0  0  0  0  0  0
  127.6867  135.0822  158.3881 C   0  0  0  0  0  0  0  0  0  0  0  0
  126.1488  134.9922  158.5486 C   0  0  0  0  0  0  0  0  0  0  0  0
  125.9716  134.8735  160.0827 C   0  0  0  0  0  0  0  0  0  0  0  0
  127.0520  135.8116  160.6624 C   0  0  1  0  0  0  0  0  0  0  0  0
  127.6055  135.2452  161.8519 O   0  0  0  0  0  0  0  0  0  0  0  0
  130.5037  133.7107  157.0588 N   0  0  0  0  0  0  0  0  0  0  0  0
  130.8544  134.3788  156.4494 H   0  0  0  0  0  0  0  0  0  0  0  0
  130.7178  130.4354  155.3121 C   0  0  0  0  0  0  0  0  0  0  0  0
  130.8843  129.8530  154.0734 C   0  0  0  0  0  0  0  0  0  0  0  0
  130.8557  130.5659  150.8632 H   0  0  0  0  0  0  0  0  0  0  0  0
  131.1452  129.0848  151.6016 H   0  0  0  0  0  0  0  0  0  0  0  0
  130.3764  132.5712  152.1183 H   0  0  0  0  0  0  0  0  0  0  0  0
  130.0676  133.6146  154.3234 H   0  0  0  0  0  0  0  0  0  0  0  0
  129.4500  130.7751  157.9358 H   0  0  0  0  0  0  0  0  0  0  0  0
  131.0576  135.7326  158.7391 H   0  0  0  0  0  0  0  0  0  0  0  0
  129.5161  136.7084  161.8772 H   0  0  0  0  0  0  0  0  0  0  0  0
  131.5713  135.6735  162.4032 H   0  0  0  0  0  0  0  0  0  0  0  0
  131.9726  135.3873  160.6828 H   0  0  0  0  0  0  0  0  0  0  0  0
  133.3150  137.5272  161.8325 H   0  0  0  0  0  0  0  0  0  0  0  0
  132.0686  139.3197  160.5537 H   0  0  0  0  0  0  0  0  0  0  0  0
  130.4602  137.5664  159.1239 H   0  0  0  0  0  0  0  0  0  0  0  0
  129.5920  138.5196  160.3649 H   0  0  0  0  0  0  0  0  0  0  0  0
  128.2413  136.9846  159.2788 H   0  0  0  0  0  0  0  0  0  0  0  0
  127.9443  135.5694  157.4476 H   0  0  0  0  0  0  0  0  0  0  0  0
  128.1344  134.0898  158.4399 H   0  0  0  0  0  0  0  0  0  0  0  0
  125.6677  135.8953  158.1728 H   0  0  0  0  0  0  0  0  0  0  0  0
  125.7591  134.1076  158.0451 H   0  0  0  0  0  0  0  0  0  0  0  0
  124.9775  135.2082  160.3789 H   0  0  0  0  0  0  0  0  0  0  0  0
  126.1423  133.8473  160.4081 H   0  0  0  0  0  0  0  0  0  0  0  0
  126.6214  136.7891  160.8791 H   0  0  0  0  0  0  0  0  0  0  0  0
  126.9668  135.1365  162.5699 H   0  0  0  0  0  0  0  0  0  0  0  0
  130.8164  129.8391  156.2072 H   0  0  0  0  0  0  0  0  0  0  0  0
  131.1130  128.8001  153.9983 H   0  0  0  0  0  0  0  0  0  0  0  0
  1  2  1  0
  1 29  1  0
  1 30  1  0
  2 28  2  0
  2  3  1  0
  3  4  2  0
  3 31  1  0
  4  5  1  0
  4 32  1  0
  5  6  1  0
  5 27  2  0
  6 25  1  0
  6  7  2  0
  7  8  1  0
  7 33  1  0
  8  9  1  0
  8 10  1  0
 10 11  1  0
 10 25  2  0
 11 12  1  0
 11 34  1  0
 12 13  1  1
 12 14  1  0
 12 19  1  0
 14 18  1  0
 14 15  1  0
 14 35  1  0
 15 16  1  0
 15 36  1  0
 15 37  1  0
 16 17  2  0
 16 38  1  0
 17 18  1  0
 17 39  1  0
 18 40  1  0
 18 41  1  0
 19 23  1  0
 19 20  1  0
 19 42  1  6
 20 21  1  0
 20 43  1  0
 20 44  1  0
 21 22  1  0
 21 45  1  0
 21 46  1  0
 22 23  1  0
 22 47  1  0
 22 48  1  0
 23 24  1  0
 23 49  1  1
 24 50  1  0
 25 26  1  0
 27 28  1  0
 27 51  1  0
 28 52  1  0
M  CHG  1  25   1
M  END
>  <DOCK_score>  (1) 
-56.209282

>  <SMILES>  (1) 
Nc1ccc(-c2c[nH]c(N[C@@H](C3CC=CC3)C3CCCC3O)[nH+]2)cc1

$$$$
