c1ccc([C@@H]2C[C@H]2Nc2cnccc2C[NH2+][C@@H]2CCC23CCCCC3)cc1
     RDKit          3D

 59 63  0  0  1  0  0  0  0  0999 V2000
  131.0885  130.1501  155.0104 C   0  0  0  0  0  0  0  0  0  0  0  0
  130.7798  129.7069  156.2829 C   0  0  0  0  0  0  0  0  0  0  0  0
  130.4365  130.6152  157.2669 C   0  0  0  0  0  0  0  0  0  0  0  0
  130.4023  131.9667  156.9783 C   0  0  0  0  0  0  0  0  0  0  0  0
  130.0280  132.9569  158.0510 C   0  0  2  0  0  0  0  0  0  0  0  0
  130.7173  133.0208  158.8929 H   0  0  0  0  0  0  0  0  0  0  0  0
  128.5388  133.1562  158.3398 C   0  0  0  0  0  0  0  0  0  0  0  0
  129.3291  134.2448  157.6108 C   0  0  1  0  0  0  0  0  0  0  0  0
  129.1403  134.3761  156.5453 H   0  0  0  0  0  0  0  0  0  0  0  0
  129.6372  135.4693  158.3536 N   0  0  0  0  0  0  0  0  0  0  0  0
  128.8738  135.8198  159.4700 C   0  0  0  0  0  0  0  0  0  0  0  0
  127.5063  136.0338  159.3501 C   0  0  0  0  0  0  0  0  0  0  0  0
  126.7841  136.3695  160.4001 N   0  0  0  0  0  0  0  0  0  0  0  0
  127.3210  136.5102  161.5966 C   0  0  0  0  0  0  0  0  0  0  0  0
  128.6739  136.3095  161.7964 C   0  0  0  0  0  0  0  0  0  0  0  0
  129.4718  135.9552  160.7205 C   0  0  0  0  0  0  0  0  0  0  0  0
  130.9509  135.7282  160.8980 C   0  0  0  0  0  0  0  0  0  0  0  0
  131.6682  136.9944  160.6973 N   0  0  0  0  0  0  0  0  0  0  0  0
  131.4900  137.3378  159.7655 H   0  0  0  0  0  0  0  0  0  0  0  0
  131.3486  137.6727  161.3725 H   0  0  0  0  0  0  0  0  0  0  0  0
  133.1100  136.7731  160.8704 C   0  0  2  0  0  0  0  0  0  0  0  0
  133.5146  136.0468  160.1655 H   0  0  0  0  0  0  0  0  0  0  0  0
  133.5232  136.5131  162.3294 C   0  0  0  0  0  0  0  0  0  0  0  0
  134.7542  137.3978  162.0555 C   0  0  0  0  0  0  0  0  0  0  0  0
  133.9256  138.0697  160.9530 C   0  0  0  0  0  0  0  0  0  0  0  0
  133.1171  139.2689  161.4436 C   0  0  0  0  0  0  0  0  0  0  0  0
  134.0589  140.4557  161.6658 C   0  0  0  0  0  0  0  0  0  0  0  0
  134.7930  140.7740  160.3620 C   0  0  0  0  0  0  0  0  0  0  0  0
  135.6393  139.5717  159.9402 C   0  0  0  0  0  0  0  0  0  0  0  0
  134.7256  138.3692  159.6870 C   0  0  0  0  0  0  0  0  0  0  0  0
  130.7059  132.4095  155.7045 C   0  0  0  0  0  0  0  0  0  0  0  0
  131.0530  131.5015  154.7216 C   0  0  0  0  0  0  0  0  0  0  0  0
  131.3572  129.4406  154.2419 H   0  0  0  0  0  0  0  0  0  0  0  0
  130.8073  128.6511  156.5085 H   0  0  0  0  0  0  0  0  0  0  0  0
  130.1954  130.2690  158.2610 H   0  0  0  0  0  0  0  0  0  0  0  0
  128.2480  133.3512  159.3721 H   0  0  0  0  0  0  0  0  0  0  0  0
  127.8298  132.5713  157.7540 H   0  0  0  0  0  0  0  0  0  0  0  0
  130.3710  136.0368  158.0702 H   0  0  0  0  0  0  0  0  0  0  0  0
  127.0311  135.9280  158.3860 H   0  0  0  0  0  0  0  0  0  0  0  0
  126.6946  136.7865  162.4319 H   0  0  0  0  0  0  0  0  0  0  0  0
  129.1042  136.4279  162.7799 H   0  0  0  0  0  0  0  0  0  0  0  0
  131.2961  134.9955  160.1684 H   0  0  0  0  0  0  0  0  0  0  0  0
  131.1435  135.3572  161.9046 H   0  0  0  0  0  0  0  0  0  0  0  0
  132.8349  136.9373  163.0602 H   0  0  0  0  0  0  0  0  0  0  0  0
  133.7702  135.4714  162.5340 H   0  0  0  0  0  0  0  0  0  0  0  0
  135.6141  136.8435  161.6795 H   0  0  0  0  0  0  0  0  0  0  0  0
  135.0064  138.0644  162.8802 H   0  0  0  0  0  0  0  0  0  0  0  0
  132.3683  139.5332  160.6969 H   0  0  0  0  0  0  0  0  0  0  0  0
  132.6231  139.0155  162.3817 H   0  0  0  0  0  0  0  0  0  0  0  0
  134.7845  140.2041  162.4393 H   0  0  0  0  0  0  0  0  0  0  0  0
  133.4807  141.3251  161.9790 H   0  0  0  0  0  0  0  0  0  0  0  0
  135.4400  141.6383  160.5119 H   0  0  0  0  0  0  0  0  0  0  0  0
  134.0651  140.9968  159.5818 H   0  0  0  0  0  0  0  0  0  0  0  0
  136.3474  139.3297  160.7327 H   0  0  0  0  0  0  0  0  0  0  0  0
  136.1841  139.8129  159.0273 H   0  0  0  0  0  0  0  0  0  0  0  0
  135.3304  137.5012  159.4247 H   0  0  0  0  0  0  0  0  0  0  0  0
  134.0415  138.5966  158.8694 H   0  0  0  0  0  0  0  0  0  0  0  0
  130.6749  133.4650  155.4779 H   0  0  0  0  0  0  0  0  0  0  0  0
  131.2937  131.8477  153.7274 H   0  0  0  0  0  0  0  0  0  0  0  0
  1 32  2  0
  1  2  1  0
  1 33  1  0
  2  3  2  0
  2 34  1  0
  3  4  1  0
  3 35  1  0
  4  5  1  0
  4 31  2  0
  5  6  1  1
  5  8  1  0
  5  7  1  0
  7  8  1  0
  7 36  1  0
  7 37  1  0
  8  9  1  6
  8 10  1  0
 10 11  1  0
 10 38  1  0
 11 16  1  0
 11 12  2  0
 12 13  1  0
 12 39  1  0
 13 14  2  0
 14 15  1  0
 14 40  1  0
 15 16  2  0
 15 41  1  0
 16 17  1  0
 17 18  1  0
 17 42  1  0
 17 43  1  0
 18 19  1  0
 18 20  1  0
 18 21  1  0
 21 22  1  6
 21 25  1  0
 21 23  1  0
 23 24  1  0
 23 44  1  0
 23 45  1  0
 24 25  1  0
 24 46  1  0
 24 47  1  0
 25 30  1  0
 25 26  1  0
 26 27  1  0
 26 48  1  0
 26 49  1  0
 27 28  1  0
 27 50  1  0
 27 51  1  0
 28 29  1  0
 28 52  1  0
 28 53  1  0
 29 30  1  0
 29 54  1  0
 29 55  1  0
 30 56  1  0
 30 57  1  0
 31 32  1  0
 31 58  1  0
 32 59  1  0
M  CHG  1  18   1
M  END
>  <DOCK_score>  (1) 
-44.454273

>  <SMILES>  (1) 
c1ccc([C@@H]2C[C@H]2Nc2cnccc2C[NH2+][C@@H]2CCC23CCCCC3)cc1

$$$$
