Oc1cc(Nc2[nH]cc(-c3ccc(C(F)(F)F)cc3)[nH+]2)ccc1Nc1ccc(C(F)(F)F)cc1
     RDKit          3D

 51 54  0  0  1  0  0  0  0  0999 V2000
  125.6405  136.1283  159.9934 O   0  0  0  0  0  0  0  0  0  0  0  0
  126.9714  136.1152  160.2729 C   0  0  0  0  0  0  0  0  0  0  0  0
  127.8784  135.7119  159.3076 C   0  0  0  0  0  0  0  0  0  0  0  0
  129.2370  135.6997  159.5950 C   0  0  0  0  0  0  0  0  0  0  0  0
  130.1548  135.2915  158.6195 N   0  0  0  0  0  0  0  0  0  0  0  0
  130.0785  134.0149  158.0878 C   0  0  0  0  0  0  0  0  0  0  0  0
  129.6239  132.9100  158.7403 N   0  0  0  0  0  0  0  0  0  0  0  0
  129.2974  132.8755  159.6530 H   0  0  0  0  0  0  0  0  0  0  0  0
  129.7126  131.8534  157.8675 C   0  0  0  0  0  0  0  0  0  0  0  0
  130.2181  132.3420  156.7078 C   0  0  0  0  0  0  0  0  0  0  0  0
  130.4888  131.5611  155.4760 C   0  0  0  0  0  0  0  0  0  0  0  0
  129.8470  131.8910  154.2836 C   0  0  0  0  0  0  0  0  0  0  0  0
  130.1030  131.1614  153.1404 C   0  0  0  0  0  0  0  0  0  0  0  0
  130.9949  130.1041  153.1769 C   0  0  0  0  0  0  0  0  0  0  0  0
  131.2704  129.3110  151.9253 C   0  0  0  0  0  0  0  0  0  0  0  0
  130.5130  129.8298  150.8686 F   0  0  0  0  0  0  0  0  0  0  0  0
  132.6302  129.3958  151.6093 F   0  0  0  0  0  0  0  0  0  0  0  0
  130.9219  127.9728  152.1351 F   0  0  0  0  0  0  0  0  0  0  0  0
  131.6301  129.7689  154.3585 C   0  0  0  0  0  0  0  0  0  0  0  0
  131.3861  130.4952  155.5065 C   0  0  0  0  0  0  0  0  0  0  0  0
  130.4380  133.6699  156.8754 N   0  0  0  0  0  0  0  0  0  0  0  0
  130.8008  134.2691  156.2043 H   0  0  0  0  0  0  0  0  0  0  0  0
  129.6854  136.0867  160.8511 C   0  0  0  0  0  0  0  0  0  0  0  0
  128.7819  136.4943  161.8137 C   0  0  0  0  0  0  0  0  0  0  0  0
  127.4239  136.5080  161.5306 C   0  0  0  0  0  0  0  0  0  0  0  0
  126.5073  136.9173  162.5097 N   0  0  0  0  0  0  0  0  0  0  0  0
  126.9614  137.3109  163.7704 C   0  0  0  0  0  0  0  0  0  0  0  0
  126.5367  136.6329  164.9065 C   0  0  0  0  0  0  0  0  0  0  0  0
  126.9928  137.0209  166.1509 C   0  0  0  0  0  0  0  0  0  0  0  0
  127.8620  138.0902  166.2682 C   0  0  0  0  0  0  0  0  0  0  0  0
  128.3529  138.5142  167.6283 C   0  0  0  0  0  0  0  0  0  0  0  0
  127.7957  137.6824  168.6055 F   0  0  0  0  0  0  0  0  0  0  0  0
  129.7478  138.4158  167.6722 F   0  0  0  0  0  0  0  0  0  0  0  0
  127.9710  139.8382  167.8701 F   0  0  0  0  0  0  0  0  0  0  0  0
  128.2819  138.7711  165.1400 C   0  0  0  0  0  0  0  0  0  0  0  0
  127.8347  138.3847  163.8919 C   0  0  0  0  0  0  0  0  0  0  0  0
  125.4243  135.8394  159.0962 H   0  0  0  0  0  0  0  0  0  0  0  0
  127.5295  135.4068  158.3322 H   0  0  0  0  0  0  0  0  0  0  0  0
  130.8441  135.9028  158.3162 H   0  0  0  0  0  0  0  0  0  0  0  0
  129.4326  130.8294  158.0665 H   0  0  0  0  0  0  0  0  0  0  0  0
  129.1511  132.7163  154.2541 H   0  0  0  0  0  0  0  0  0  0  0  0
  129.6060  131.4160  152.2160 H   0  0  0  0  0  0  0  0  0  0  0  0
  132.3219  128.9399  154.3820 H   0  0  0  0  0  0  0  0  0  0  0  0
  131.8862  130.2351  156.4278 H   0  0  0  0  0  0  0  0  0  0  0  0
  130.7419  136.0727  161.0745 H   0  0  0  0  0  0  0  0  0  0  0  0
  129.1329  136.7988  162.7886 H   0  0  0  0  0  0  0  0  0  0  0  0
  125.5579  136.9268  162.3115 H   0  0  0  0  0  0  0  0  0  0  0  0
  125.8543  135.8008  164.8160 H   0  0  0  0  0  0  0  0  0  0  0  0
  126.6669  136.4914  167.0339 H   0  0  0  0  0  0  0  0  0  0  0  0
  128.9606  139.6058  165.2352 H   0  0  0  0  0  0  0  0  0  0  0  0
  128.1636  138.9164  163.0113 H   0  0  0  0  0  0  0  0  0  0  0  0
  1  2  1  0
  1 37  1  0
  2 25  2  0
  2  3  1  0
  3  4  2  0
  3 38  1  0
  4  5  1  0
  4 23  1  0
  5 39  1  0
  6  5  1  0
  6 21  2  0
  6  7  1  0
  7  8  1  0
  7  9  1  0
  9 10  2  0
  9 40  1  0
 10 11  1  0
 10 21  1  0
 11 20  1  0
 11 12  2  0
 12 13  1  0
 12 41  1  0
 13 14  2  0
 13 42  1  0
 14 15  1  0
 14 19  1  0
 15 16  1  0
 15 17  1  0
 15 18  1  0
 19 20  2  0
 19 43  1  0
 20 44  1  0
 21 22  1  0
 23 24  2  0
 23 45  1  0
 24 25  1  0
 24 46  1  0
 25 26  1  0
 26 27  1  0
 26 47  1  0
 27 36  1  0
 27 28  2  0
 28 29  1  0
 28 48  1  0
 29 30  2  0
 29 49  1  0
 30 31  1  0
 30 35  1  0
 31 32  1  0
 31 33  1  0
 31 34  1  0
 35 36  2  0
 35 50  1  0
 36 51  1  0
M  CHG  1  21   1
M  END
>  <DOCK_score>  (1) 
-52.207619

>  <SMILES>  (1) 
Oc1cc(Nc2[nH]cc(-c3ccc(C(F)(F)F)cc3)[nH+]2)ccc1Nc1ccc(C(F)(F)F)cc1

$$$$
