Cc1cccc(C(=O)C[C@H](Nc2[nH]cc(-c3ccc(F)cc3)[nH+]2)C2=CCOCC2)c1Cl
     RDKit          3D

 55 58  0  0  1  0  0  0  0  0999 V2000
  133.7391  140.7670  161.8412 C   0  0  0  0  0  0  0  0  0  0  0  0
  133.5259  139.4252  161.1892 C   0  0  0  0  0  0  0  0  0  0  0  0
  134.3260  139.0380  160.1288 C   0  0  0  0  0  0  0  0  0  0  0  0
  134.1384  137.8077  159.5230 C   0  0  0  0  0  0  0  0  0  0  0  0
  133.1514  136.9566  159.9721 C   0  0  0  0  0  0  0  0  0  0  0  0
  132.3377  137.3386  161.0439 C   0  0  0  0  0  0  0  0  0  0  0  0
  131.2824  136.4365  161.5292 C   0  0  0  0  0  0  0  0  0  0  0  0
  131.5265  135.6333  162.4043 O   0  0  0  0  0  0  0  0  0  0  0  0
  129.8977  136.5103  160.9392 C   0  0  0  0  0  0  0  0  0  0  0  0
  129.5373  135.1613  160.3137 C   0  0  2  0  0  0  0  0  0  0  0  0
  129.8974  134.3561  160.9539 H   0  0  0  0  0  0  0  0  0  0  0  0
  130.1631  135.0525  158.9935 N   0  0  0  0  0  0  0  0  0  0  0  0
  129.9783  133.9113  158.2318 C   0  0  0  0  0  0  0  0  0  0  0  0
  129.2415  132.8265  158.5953 N   0  0  0  0  0  0  0  0  0  0  0  0
  128.7556  132.7145  159.4273 H   0  0  0  0  0  0  0  0  0  0  0  0
  129.3130  131.9189  157.5659 C   0  0  0  0  0  0  0  0  0  0  0  0
  130.0906  132.4750  156.6044 C   0  0  0  0  0  0  0  0  0  0  0  0
  130.4482  131.8561  155.3045 C   0  0  0  0  0  0  0  0  0  0  0  0
  130.0872  132.4788  154.1110 C   0  0  0  0  0  0  0  0  0  0  0  0
  130.4257  131.9017  152.9042 C   0  0  0  0  0  0  0  0  0  0  0  0
  131.1145  130.7006  152.8775 C   0  0  0  0  0  0  0  0  0  0  0  0
  131.4398  130.1368  151.6935 F   0  0  0  0  0  0  0  0  0  0  0  0
  131.4713  130.0750  154.0618 C   0  0  0  0  0  0  0  0  0  0  0  0
  131.1411  130.6472  155.2731 C   0  0  0  0  0  0  0  0  0  0  0  0
  130.4840  133.6976  157.0416 N   0  0  0  0  0  0  0  0  0  0  0  0
  131.0491  134.3152  156.5514 H   0  0  0  0  0  0  0  0  0  0  0  0
  128.0407  135.0579  160.1701 C   0  0  0  0  0  0  0  0  0  0  0  0
  127.4876  135.4787  159.0717 C   0  0  0  0  0  0  0  0  0  0  0  0
  126.0051  135.4277  158.8338 C   0  0  0  0  0  0  0  0  0  0  0  0
  125.3849  134.5551  159.7804 O   0  0  0  0  0  0  0  0  0  0  0  0
  125.7663  134.8340  161.1332 C   0  0  0  0  0  0  0  0  0  0  0  0
  127.2449  134.4661  161.3006 C   0  0  0  0  0  0  0  0  0  0  0  0
  132.5297  138.5869  161.6483 C   0  0  0  0  0  0  0  0  0  0  0  0
  131.5222  139.0764  162.9746 Cl  0  0  0  0  0  0  0  0  0  0  0  0
  133.1247  141.5157  161.3410 H   0  0  0  0  0  0  0  0  0  0  0  0
  133.4570  140.7090  162.8925 H   0  0  0  0  0  0  0  0  0  0  0  0
  134.7895  141.0468  161.7616 H   0  0  0  0  0  0  0  0  0  0  0  0
  135.1014  139.6998  159.7719 H   0  0  0  0  0  0  0  0  0  0  0  0
  134.7672  137.5138  158.6955 H   0  0  0  0  0  0  0  0  0  0  0  0
  133.0068  135.9971  159.4979 H   0  0  0  0  0  0  0  0  0  0  0  0
  129.8701  137.2851  160.1730 H   0  0  0  0  0  0  0  0  0  0  0  0
  129.1805  136.7500  161.7242 H   0  0  0  0  0  0  0  0  0  0  0  0
  130.7070  135.7800  158.6531 H   0  0  0  0  0  0  0  0  0  0  0  0
  128.8436  130.9469  157.5314 H   0  0  0  0  0  0  0  0  0  0  0  0
  129.5463  133.4134  154.1307 H   0  0  0  0  0  0  0  0  0  0  0  0
  130.1497  132.3853  151.9789 H   0  0  0  0  0  0  0  0  0  0  0  0
  132.0084  129.1383  154.0364 H   0  0  0  0  0  0  0  0  0  0  0  0
  131.4196  130.1595  156.1954 H   0  0  0  0  0  0  0  0  0  0  0  0
  128.1215  135.8830  158.2962 H   0  0  0  0  0  0  0  0  0  0  0  0
  125.5878  136.4292  158.9378 H   0  0  0  0  0  0  0  0  0  0  0  0
  125.8134  135.0592  157.8260 H   0  0  0  0  0  0  0  0  0  0  0  0
  125.6217  135.8935  161.3446 H   0  0  0  0  0  0  0  0  0  0  0  0
  125.1608  134.2377  161.8158 H   0  0  0  0  0  0  0  0  0  0  0  0
  127.3555  133.3818  161.2937 H   0  0  0  0  0  0  0  0  0  0  0  0
  127.6105  134.8619  162.2480 H   0  0  0  0  0  0  0  0  0  0  0  0
  1  2  1  0
  1 35  1  0
  1 36  1  0
  1 37  1  0
  2 33  2  0
  2  3  1  0
  3  4  2  0
  3 38  1  0
  4  5  1  0
  4 39  1  0
  5  6  2  0
  5 40  1  0
  6  7  1  0
  6 33  1  0
  7  8  2  0
  7  9  1  0
  9 10  1  0
  9 41  1  0
  9 42  1  0
 10 11  1  1
 10 12  1  0
 10 27  1  0
 12 43  1  0
 13 12  1  0
 13 25  2  0
 13 14  1  0
 14 15  1  0
 14 16  1  0
 16 17  2  0
 16 44  1  0
 17 18  1  0
 17 25  1  0
 18 24  1  0
 18 19  2  0
 19 20  1  0
 19 45  1  0
 20 21  2  0
 20 46  1  0
 21 22  1  0
 21 23  1  0
 23 24  2  0
 23 47  1  0
 24 48  1  0
 25 26  1  0
 27 32  1  0
 27 28  2  0
 28 29  1  0
 28 49  1  0
 29 30  1  0
 29 50  1  0
 29 51  1  0
 30 31  1  0
 31 32  1  0
 31 52  1  0
 31 53  1  0
 32 54  1  0
 32 55  1  0
 33 34  1  0
M  CHG  1  25   1
M  END
>  <DOCK_score>  (1) 
-59.633873

>  <SMILES>  (1) 
Cc1cccc(C(=O)C[C@H](Nc2[nH]cc(-c3ccc(F)cc3)[nH+]2)C2=CCOCC2)c1Cl

$$$$
