C[C@@H]([NH+]=C(NCC1CC(O)C1(C)C)NC1CCCCC1)C(C)(C)CO
     RDKit          3D

 65 66  0  0  1  0  0  0  0  0999 V2000
  132.6929  135.7564  160.4719 C   0  0  0  0  0  0  0  0  0  0  0  0
  132.0060  137.1234  160.4881 C   0  0  1  0  0  0  0  0  0  0  0  0
  131.9609  137.5194  159.4736 H   0  0  0  0  0  0  0  0  0  0  0  0
  130.6475  136.9810  161.0175 N   0  0  0  0  0  0  0  0  0  0  0  0
  130.3853  137.4640  161.8169 H   0  0  0  0  0  0  0  0  0  0  0  0
  129.7911  136.2053  160.4146 C   0  0  0  0  0  0  0  0  0  0  0  0
  128.5161  136.0716  160.9114 N   0  0  0  0  0  0  0  0  0  0  0  0
  128.1201  136.8012  162.1187 C   0  0  0  0  0  0  0  0  0  0  0  0
  126.6628  136.4785  162.4545 C   0  0  2  0  0  0  0  0  0  0  0  0
  126.1643  137.1518  163.7442 C   0  0  0  0  0  0  0  0  0  0  0  0
  125.4283  135.8349  164.0517 C   0  0  1  0  0  0  0  0  0  0  0  0
  124.1065  135.7804  163.5116 O   0  0  0  0  0  0  0  0  0  0  0  0
  126.4806  135.1332  163.1770 C   0  0  0  0  0  0  0  0  0  0  0  0
  125.9014  134.0325  162.2859 C   0  0  0  0  0  0  0  0  0  0  0  0
  127.7196  134.6812  163.9525 C   0  0  0  0  0  0  0  0  0  0  0  0
  130.1626  135.5207  159.2816 N   0  0  0  0  0  0  0  0  0  0  0  0
  129.5459  134.2285  158.9713 C   0  0  0  0  0  0  0  0  0  0  0  0
  129.8273  133.2433  160.1075 C   0  0  0  0  0  0  0  0  0  0  0  0
  129.1833  131.8937  159.7835 C   0  0  0  0  0  0  0  0  0  0  0  0
  129.7693  131.3490  158.4793 C   0  0  0  0  0  0  0  0  0  0  0  0
  129.4880  132.3343  157.3431 C   0  0  0  0  0  0  0  0  0  0  0  0
  130.1319  133.6838  157.6671 C   0  0  0  0  0  0  0  0  0  0  0  0
  132.8011  138.0833  161.3754 C   0  0  0  0  0  0  0  0  0  0  0  0
  132.1144  139.4504  161.3914 C   0  0  0  0  0  0  0  0  0  0  0  0
  132.8644  137.5274  162.7994 C   0  0  0  0  0  0  0  0  0  0  0  0
  134.2200  138.2321  160.8224 C   0  0  0  0  0  0  0  0  0  0  0  0
  134.1712  138.2935  159.3956 O   0  0  0  0  0  0  0  0  0  0  0  0
  133.7262  135.8729  160.1447 H   0  0  0  0  0  0  0  0  0  0  0  0
  132.6753  135.3289  161.4744 H   0  0  0  0  0  0  0  0  0  0  0  0
  132.1670  135.0935  159.7849 H   0  0  0  0  0  0  0  0  0  0  0  0
  127.8787  135.4942  160.4628 H   0  0  0  0  0  0  0  0  0  0  0  0
  128.7593  136.5025  162.9496 H   0  0  0  0  0  0  0  0  0  0  0  0
  128.2248  137.8724  161.9465 H   0  0  0  0  0  0  0  0  0  0  0  0
  125.9930  136.6121  161.6051 H   0  0  0  0  0  0  0  0  0  0  0  0
  126.9603  137.3827  164.4520 H   0  0  0  0  0  0  0  0  0  0  0  0
  125.4966  137.9949  163.5665 H   0  0  0  0  0  0  0  0  0  0  0  0
  125.4690  135.5443  165.1014 H   0  0  0  0  0  0  0  0  0  0  0  0
  124.0198  136.1934  162.6414 H   0  0  0  0  0  0  0  0  0  0  0  0
  126.5685  133.8603  161.4411 H   0  0  0  0  0  0  0  0  0  0  0  0
  125.8011  133.1132  162.8628 H   0  0  0  0  0  0  0  0  0  0  0  0
  124.9222  134.3398  161.9188 H   0  0  0  0  0  0  0  0  0  0  0  0
  127.9662  135.4259  164.7092 H   0  0  0  0  0  0  0  0  0  0  0  0
  127.5171  133.7254  164.4358 H   0  0  0  0  0  0  0  0  0  0  0  0
  128.5582  134.5702  163.2650 H   0  0  0  0  0  0  0  0  0  0  0  0
  130.8330  135.8932  158.6878 H   0  0  0  0  0  0  0  0  0  0  0  0
  128.4693  134.3570  158.8602 H   0  0  0  0  0  0  0  0  0  0  0  0
  130.9039  133.1147  160.2188 H   0  0  0  0  0  0  0  0  0  0  0  0
  129.4098  133.6312  161.0367 H   0  0  0  0  0  0  0  0  0  0  0  0
  128.1067  132.0222  159.6722 H   0  0  0  0  0  0  0  0  0  0  0  0
  129.3837  131.1918  160.5929 H   0  0  0  0  0  0  0  0  0  0  0  0
  129.3105  130.3876  158.2484 H   0  0  0  0  0  0  0  0  0  0  0  0
  130.8460  131.2205  158.5905 H   0  0  0  0  0  0  0  0  0  0  0  0
  128.4112  132.4629  157.2318 H   0  0  0  0  0  0  0  0  0  0  0  0
  129.9054  131.9463  156.4139 H   0  0  0  0  0  0  0  0  0  0  0  0
  129.9315  134.3858  156.8577 H   0  0  0  0  0  0  0  0  0  0  0  0
  131.2086  133.5553  157.7784 H   0  0  0  0  0  0  0  0  0  0  0  0
  131.1034  139.3443  161.7856 H   0  0  0  0  0  0  0  0  0  0  0  0
  132.6806  140.1342  162.0238 H   0  0  0  0  0  0  0  0  0  0  0  0
  132.0690  139.8464  160.3771 H   0  0  0  0  0  0  0  0  0  0  0  0
  133.3539  136.5535  162.7879 H   0  0  0  0  0  0  0  0  0  0  0  0
  133.4309  138.2113  163.4316 H   0  0  0  0  0  0  0  0  0  0  0  0
  131.8537  137.4214  163.1934 H   0  0  0  0  0  0  0  0  0  0  0  0
  134.6669  139.1474  161.2104 H   0  0  0  0  0  0  0  0  0  0  0  0
  134.8208  137.3759  161.1288 H   0  0  0  0  0  0  0  0  0  0  0  0
  133.7842  137.5104  158.9810 H   0  0  0  0  0  0  0  0  0  0  0  0
  1  2  1  0
  1 28  1  0
  1 29  1  0
  1 30  1  0
  2  3  1  6
  2  4  1  0
  2 23  1  0
  4  5  1  0
  6  4  2  0
  6  7  1  0
  6 16  1  0
  7  8  1  0
  7 31  1  0
  8  9  1  0
  8 32  1  0
  8 33  1  0
  9 13  1  0
  9 10  1  0
  9 34  1  6
 10 11  1  0
 10 35  1  0
 10 36  1  0
 11 12  1  0
 11 13  1  0
 11 37  1  1
 12 38  1  0
 13 14  1  0
 13 15  1  0
 14 39  1  0
 14 40  1  0
 14 41  1  0
 15 42  1  0
 15 43  1  0
 15 44  1  0
 16 17  1  0
 16 45  1  0
 17 22  1  0
 17 18  1  0
 17 46  1  0
 18 19  1  0
 18 47  1  0
 18 48  1  0
 19 20  1  0
 19 49  1  0
 19 50  1  0
 20 21  1  0
 20 51  1  0
 20 52  1  0
 21 22  1  0
 21 53  1  0
 21 54  1  0
 22 55  1  0
 22 56  1  0
 23 24  1  0
 23 25  1  0
 23 26  1  0
 24 57  1  0
 24 58  1  0
 24 59  1  0
 25 60  1  0
 25 61  1  0
 25 62  1  0
 26 27  1  0
 26 63  1  0
 26 64  1  0
 27 65  1  0
M  CHG  1   4   1
M  END
>  <DOCK_score>  (1) 
-45.653709

>  <SMILES>  (1) 
C[C@@H]([NH+]=C(NCC1CC(O)C1(C)C)NC1CCCCC1)C(C)(C)CO

$$$$
