Fc1ccc(-c2c[nH]c(N[C@@H](c3ccccc3)c3ccccc3Br)[nH+]2)cc1
     RDKit          3D

 45 48  0  0  1  0  0  0  0  0999 V2000
  130.8597  129.1670  150.9103 F   0  0  0  0  0  0  0  0  0  0  0  0
  130.8163  129.7452  152.1306 C   0  0  0  0  0  0  0  0  0  0  0  0
  130.1154  130.9272  152.3103 C   0  0  0  0  0  0  0  0  0  0  0  0
  130.0680  131.5209  153.5548 C   0  0  0  0  0  0  0  0  0  0  0  0
  130.7264  130.9303  154.6319 C   0  0  0  0  0  0  0  0  0  0  0  0
  130.6789  131.5651  155.9719 C   0  0  0  0  0  0  0  0  0  0  0  0
  130.1746  131.0088  157.1010 C   0  0  0  0  0  0  0  0  0  0  0  0
  130.3302  131.9339  158.1050 N   0  0  0  0  0  0  0  0  0  0  0  0
  130.0649  131.8261  159.0319 H   0  0  0  0  0  0  0  0  0  0  0  0
  130.9254  133.0292  157.5592 C   0  0  0  0  0  0  0  0  0  0  0  0
  131.2577  134.1889  158.2382 N   0  0  0  0  0  0  0  0  0  0  0  0
  130.9690  134.3080  159.6695 C   0  0  1  0  0  0  0  0  0  0  0  0
  131.1836  133.3602  160.1635 H   0  0  0  0  0  0  0  0  0  0  0  0
  131.8288  135.3918  160.2670 C   0  0  0  0  0  0  0  0  0  0  0  0
  133.0721  135.0811  160.7850 C   0  0  0  0  0  0  0  0  0  0  0  0
  133.8624  136.0761  161.3295 C   0  0  0  0  0  0  0  0  0  0  0  0
  133.4056  137.3803  161.3639 C   0  0  0  0  0  0  0  0  0  0  0  0
  132.1602  137.6903  160.8504 C   0  0  0  0  0  0  0  0  0  0  0  0
  131.3716  136.6960  160.3022 C   0  0  0  0  0  0  0  0  0  0  0  0
  129.5155  134.6566  159.8615 C   0  0  0  0  0  0  0  0  0  0  0  0
  128.8489  135.3943  158.9011 C   0  0  0  0  0  0  0  0  0  0  0  0
  127.5156  135.7135  159.0768 C   0  0  0  0  0  0  0  0  0  0  0  0
  126.8482  135.2960  160.2133 C   0  0  0  0  0  0  0  0  0  0  0  0
  127.5139  134.5585  161.1741 C   0  0  0  0  0  0  0  0  0  0  0  0
  128.8470  134.2337  160.9959 C   0  0  0  0  0  0  0  0  0  0  0  0
  129.7564  133.2187  162.3068 Br  0  0  0  0  0  0  0  0  0  0  0  0
  131.1270  132.8071  156.2832 N   0  0  0  0  0  0  0  0  0  0  0  0
  131.5336  133.4306  155.6613 H   0  0  0  0  0  0  0  0  0  0  0  0
  131.4346  129.7445  154.4452 C   0  0  0  0  0  0  0  0  0  0  0  0
  131.4720  129.1550  153.1981 C   0  0  0  0  0  0  0  0  0  0  0  0
  129.6058  131.3844  151.4750 H   0  0  0  0  0  0  0  0  0  0  0  0
  129.5213  132.4418  153.6942 H   0  0  0  0  0  0  0  0  0  0  0  0
  129.7344  130.0268  157.1933 H   0  0  0  0  0  0  0  0  0  0  0  0
  131.6782  134.9242  157.7655 H   0  0  0  0  0  0  0  0  0  0  0  0
  133.4275  134.0615  160.7614 H   0  0  0  0  0  0  0  0  0  0  0  0
  134.8354  135.8338  161.7311 H   0  0  0  0  0  0  0  0  0  0  0  0
  134.0216  138.1571  161.7924 H   0  0  0  0  0  0  0  0  0  0  0  0
  131.8032  138.7092  160.8776 H   0  0  0  0  0  0  0  0  0  0  0  0
  130.3985  136.9381  159.9014 H   0  0  0  0  0  0  0  0  0  0  0  0
  129.3700  135.7213  158.0134 H   0  0  0  0  0  0  0  0  0  0  0  0
  126.9950  136.2899  158.3262 H   0  0  0  0  0  0  0  0  0  0  0  0
  125.8067  135.5463  160.3507 H   0  0  0  0  0  0  0  0  0  0  0  0
  126.9924  134.2320  162.0618 H   0  0  0  0  0  0  0  0  0  0  0  0
  131.9497  129.2855  155.2760 H   0  0  0  0  0  0  0  0  0  0  0  0
  132.0175  128.2341  153.0532 H   0  0  0  0  0  0  0  0  0  0  0  0
  1  2  1  0
  2 30  2  0
  2  3  1  0
  3  4  2  0
  3 31  1  0
  4  5  1  0
  4 32  1  0
  5  6  1  0
  5 29  2  0
  6 27  1  0
  6  7  2  0
  7  8  1  0
  7 33  1  0
  8  9  1  0
  8 10  1  0
 10 11  1  0
 10 27  2  0
 11 12  1  0
 11 34  1  0
 12 13  1  1
 12 14  1  0
 12 20  1  0
 14 19  1  0
 14 15  2  0
 15 16  1  0
 15 35  1  0
 16 17  2  0
 16 36  1  0
 17 18  1  0
 17 37  1  0
 18 19  2  0
 18 38  1  0
 19 39  1  0
 20 25  1  0
 20 21  2  0
 21 22  1  0
 21 40  1  0
 22 23  2  0
 22 41  1  0
 23 24  1  0
 23 42  1  0
 24 25  2  0
 24 43  1  0
 25 26  1  0
 27 28  1  0
 29 30  1  0
 29 44  1  0
 30 45  1  0
M  CHG  1  27   1
M  END
>  <DOCK_score>  (1) 
-56.844959

>  <SMILES>  (1) 
Fc1ccc(-c2c[nH]c(N[C@@H](c3ccccc3)c3ccccc3Br)[nH+]2)cc1

$$$$
