C1=C(CNc2ccc(-c3n[nH]cc3C[NH2+]C3CCCCC3)o2)CCCC1
     RDKit          3D

 57 60  0  0  0  0  0  0  0  0999 V2000
  127.0653  137.2420  165.2043 C   0  0  0  0  0  0  0  0  0  0  0  0
  127.5045  136.5559  164.1984 C   0  0  0  0  0  0  0  0  0  0  0  0
  127.5339  137.2226  162.8472 C   0  0  0  0  0  0  0  0  0  0  0  0
  126.6924  136.4706  161.9131 N   0  0  0  0  0  0  0  0  0  0  0  0
  127.2410  135.4402  161.1583 C   0  0  0  0  0  0  0  0  0  0  0  0
  126.5480  134.4342  160.5687 C   0  0  0  0  0  0  0  0  0  0  0  0
  127.4887  133.6180  159.9100 C   0  0  0  0  0  0  0  0  0  0  0  0
  128.7113  134.1688  160.1315 C   0  0  0  0  0  0  0  0  0  0  0  0
  129.9992  133.6479  159.6285 C   0  0  0  0  0  0  0  0  0  0  0  0
  130.1646  132.5696  158.8881 N   0  0  0  0  0  0  0  0  0  0  0  0
  131.5334  132.4263  158.6283 N   0  0  0  0  0  0  0  0  0  0  0  0
  131.9424  131.7187  158.1058 H   0  0  0  0  0  0  0  0  0  0  0  0
  132.1851  133.4475  159.2259 C   0  0  0  0  0  0  0  0  0  0  0  0
  131.2706  134.2158  159.8555 C   0  0  0  0  0  0  0  0  0  0  0  0
  131.5564  135.4620  160.6534 C   0  0  0  0  0  0  0  0  0  0  0  0
  132.5089  136.3057  159.9193 N   0  0  0  0  0  0  0  0  0  0  0  0
  132.1136  136.5611  159.0267 H   0  0  0  0  0  0  0  0  0  0  0  0
  133.3671  135.7953  159.7733 H   0  0  0  0  0  0  0  0  0  0  0  0
  132.7876  137.5203  160.6970 C   0  0  0  0  0  0  0  0  0  0  0  0
  133.8096  137.2025  161.7903 C   0  0  0  0  0  0  0  0  0  0  0  0
  134.1000  138.4676  162.6004 C   0  0  0  0  0  0  0  0  0  0  0  0
  134.6627  139.5481  161.6746 C   0  0  0  0  0  0  0  0  0  0  0  0
  133.6407  139.8658  160.5813 C   0  0  0  0  0  0  0  0  0  0  0  0
  133.3504  138.6008  159.7713 C   0  0  0  0  0  0  0  0  0  0  0  0
  128.5477  135.2699  160.8946 O   0  0  0  0  0  0  0  0  0  0  0  0
  127.9920  135.1398  164.2951 C   0  0  0  0  0  0  0  0  0  0  0  0
  128.2882  134.7829  165.7532 C   0  0  0  0  0  0  0  0  0  0  0  0
  127.0809  135.1900  166.6074 C   0  0  0  0  0  0  0  0  0  0  0  0
  126.9812  136.7171  166.6076 C   0  0  0  0  0  0  0  0  0  0  0  0
  126.7355  138.2540  165.0216 H   0  0  0  0  0  0  0  0  0  0  0  0
  128.5584  137.2454  162.4756 H   0  0  0  0  0  0  0  0  0  0  0  0
  127.1570  138.2414  162.9364 H   0  0  0  0  0  0  0  0  0  0  0  0
  125.7524  136.6916  161.8214 H   0  0  0  0  0  0  0  0  0  0  0  0
  125.4786  134.2867  160.5989 H   0  0  0  0  0  0  0  0  0  0  0  0
  127.2786  132.7258  159.3389 H   0  0  0  0  0  0  0  0  0  0  0  0
  133.2513  133.6183  159.2054 H   0  0  0  0  0  0  0  0  0  0  0  0
  131.9834  135.1862  161.6175 H   0  0  0  0  0  0  0  0  0  0  0  0
  130.6293  136.0131  160.8108 H   0  0  0  0  0  0  0  0  0  0  0  0
  131.8654  137.8784  161.1547 H   0  0  0  0  0  0  0  0  0  0  0  0
  133.4087  136.4329  162.4498 H   0  0  0  0  0  0  0  0  0  0  0  0
  134.7319  136.8447  161.3326 H   0  0  0  0  0  0  0  0  0  0  0  0
  134.8281  138.2412  163.3792 H   0  0  0  0  0  0  0  0  0  0  0  0
  133.1777  138.8256  163.0579 H   0  0  0  0  0  0  0  0  0  0  0  0
  135.5849  139.1901  161.2169 H   0  0  0  0  0  0  0  0  0  0  0  0
  134.8695  140.4493  162.2518 H   0  0  0  0  0  0  0  0  0  0  0  0
  134.0416  140.6356  159.9218 H   0  0  0  0  0  0  0  0  0  0  0  0
  132.7184  140.2237  161.0390 H   0  0  0  0  0  0  0  0  0  0  0  0
  134.2726  138.2427  159.3135 H   0  0  0  0  0  0  0  0  0  0  0  0
  132.6222  138.8271  158.9923 H   0  0  0  0  0  0  0  0  0  0  0  0
  127.2273  134.4672  163.9067 H   0  0  0  0  0  0  0  0  0  0  0  0
  128.9025  135.0301  163.7062 H   0  0  0  0  0  0  0  0  0  0  0  0
  128.4538  133.7091  165.8413 H   0  0  0  0  0  0  0  0  0  0  0  0
  129.1737  135.3220  166.0898 H   0  0  0  0  0  0  0  0  0  0  0  0
  126.1718  134.7635  166.1837 H   0  0  0  0  0  0  0  0  0  0  0  0
  127.2147  134.8284  167.6269 H   0  0  0  0  0  0  0  0  0  0  0  0
  126.0320  137.0169  167.0517 H   0  0  0  0  0  0  0  0  0  0  0  0
  127.8013  137.1326  167.1930 H   0  0  0  0  0  0  0  0  0  0  0  0
  1 29  1  0
  1  2  2  0
  1 30  1  0
  2  3  1  0
  2 26  1  0
  3  4  1  0
  3 31  1  0
  3 32  1  0
  4  5  1  0
  4 33  1  0
  5 25  1  0
  5  6  2  0
  6  7  1  0
  6 34  1  0
  7  8  2  0
  7 35  1  0
  8  9  1  0
  8 25  1  0
  9 14  1  0
  9 10  2  0
 10 11  1  0
 11 12  1  0
 11 13  1  0
 13 14  2  0
 13 36  1  0
 14 15  1  0
 15 16  1  0
 15 37  1  0
 15 38  1  0
 16 17  1  0
 16 18  1  0
 16 19  1  0
 19 24  1  0
 19 20  1  0
 19 39  1  0
 20 21  1  0
 20 40  1  0
 20 41  1  0
 21 22  1  0
 21 42  1  0
 21 43  1  0
 22 23  1  0
 22 44  1  0
 22 45  1  0
 23 24  1  0
 23 46  1  0
 23 47  1  0
 24 48  1  0
 24 49  1  0
 26 27  1  0
 26 50  1  0
 26 51  1  0
 27 28  1  0
 27 52  1  0
 27 53  1  0
 28 29  1  0
 28 54  1  0
 28 55  1  0
 29 56  1  0
 29 57  1  0
M  CHG  1  16   1
M  END
>  <DOCK_score>  (1) 
-43.558685

>  <SMILES>  (1) 
C1=C(CNc2ccc(-c3n[nH]cc3C[NH2+]C3CCCCC3)o2)CCCC1

$$$$
