CCc1ccc(-c2c[nH]c(Nc3ccc(-c4ccc(-c5ccc(N)cc5)cc4)cc3)[nH+]2)cc1
     RDKit          3D

 60 64  0  0  1  0  0  0  0  0999 V2000
  130.2840  129.5376  151.0745 C   0  0  0  0  0  0  0  0  0  0  0  0
  131.4365  129.3819  152.0692 C   0  0  0  0  0  0  0  0  0  0  0  0
  131.1079  130.1247  153.3385 C   0  0  0  0  0  0  0  0  0  0  0  0
  130.3058  131.2510  153.2902 C   0  0  0  0  0  0  0  0  0  0  0  0
  130.0021  131.9352  154.4497 C   0  0  0  0  0  0  0  0  0  0  0  0
  130.5048  131.4893  155.6707 C   0  0  0  0  0  0  0  0  0  0  0  0
  130.1820  132.2205  156.9203 C   0  0  0  0  0  0  0  0  0  0  0  0
  129.5357  131.7114  157.9987 C   0  0  0  0  0  0  0  0  0  0  0  0
  129.4525  132.7202  158.9266 N   0  0  0  0  0  0  0  0  0  0  0  0
  129.0463  132.6607  159.8053 H   0  0  0  0  0  0  0  0  0  0  0  0
  130.0427  133.8205  158.3842 C   0  0  0  0  0  0  0  0  0  0  0  0
  130.1658  135.0559  158.9987 N   0  0  0  0  0  0  0  0  0  0  0  0
  129.6596  135.2489  160.2859 C   0  0  0  0  0  0  0  0  0  0  0  0
  128.6790  136.2090  160.5094 C   0  0  0  0  0  0  0  0  0  0  0  0
  128.1820  136.4051  161.7800 C   0  0  0  0  0  0  0  0  0  0  0  0
  128.6554  135.6315  162.8399 C   0  0  0  0  0  0  0  0  0  0  0  0
  128.1187  135.8376  164.2064 C   0  0  0  0  0  0  0  0  0  0  0  0
  128.0603  134.7689  165.1009 C   0  0  0  0  0  0  0  0  0  0  0  0
  127.5670  134.9612  166.3723 C   0  0  0  0  0  0  0  0  0  0  0  0
  127.1152  136.2220  166.7619 C   0  0  0  0  0  0  0  0  0  0  0  0
  126.5789  136.4276  168.1287 C   0  0  0  0  0  0  0  0  0  0  0  0
  126.7123  137.6680  168.7518 C   0  0  0  0  0  0  0  0  0  0  0  0
  126.2079  137.8586  170.0204 C   0  0  0  0  0  0  0  0  0  0  0  0
  125.5767  136.8120  170.6832 C   0  0  0  0  0  0  0  0  0  0  0  0
  125.0714  137.0058  171.9695 N   0  0  0  0  0  0  0  0  0  0  0  0
  125.4476  135.5728  170.0661 C   0  0  0  0  0  0  0  0  0  0  0  0
  125.9454  135.3793  168.7954 C   0  0  0  0  0  0  0  0  0  0  0  0
  127.1683  137.2894  165.8656 C   0  0  0  0  0  0  0  0  0  0  0  0
  127.6668  137.0984  164.5960 C   0  0  0  0  0  0  0  0  0  0  0  0
  129.6386  134.6694  162.6132 C   0  0  0  0  0  0  0  0  0  0  0  0
  130.1364  134.4803  161.3419 C   0  0  0  0  0  0  0  0  0  0  0  0
  130.4804  133.5165  157.1866 N   0  0  0  0  0  0  0  0  0  0  0  0
  130.9436  134.1217  156.5866 H   0  0  0  0  0  0  0  0  0  0  0  0
  131.3168  130.3573  155.7127 C   0  0  0  0  0  0  0  0  0  0  0  0
  131.6092  129.6776  154.5477 C   0  0  0  0  0  0  0  0  0  0  0  0
  129.3716  129.1288  151.5089 H   0  0  0  0  0  0  0  0  0  0  0  0
  130.1376  130.5941  150.8500 H   0  0  0  0  0  0  0  0  0  0  0  0
  130.5216  129.0004  150.1562 H   0  0  0  0  0  0  0  0  0  0  0  0
  132.3486  129.7911  151.6345 H   0  0  0  0  0  0  0  0  0  0  0  0
  131.5826  128.3257  152.2935 H   0  0  0  0  0  0  0  0  0  0  0  0
  129.9169  131.5954  152.3435 H   0  0  0  0  0  0  0  0  0  0  0  0
  129.3758  132.8143  154.4108 H   0  0  0  0  0  0  0  0  0  0  0  0
  129.1625  130.7040  158.1086 H   0  0  0  0  0  0  0  0  0  0  0  0
  130.6035  135.7868  158.5351 H   0  0  0  0  0  0  0  0  0  0  0  0
  128.3097  136.8046  159.6878 H   0  0  0  0  0  0  0  0  0  0  0  0
  127.4237  137.1542  161.9541 H   0  0  0  0  0  0  0  0  0  0  0  0
  128.4057  133.7916  164.7976 H   0  0  0  0  0  0  0  0  0  0  0  0
  127.5263  134.1348  167.0665 H   0  0  0  0  0  0  0  0  0  0  0  0
  127.2065  138.4799  168.2391 H   0  0  0  0  0  0  0  0  0  0  0  0
  126.3069  138.8203  170.5017 H   0  0  0  0  0  0  0  0  0  0  0  0
  124.6305  136.2761  172.4325 H   0  0  0  0  0  0  0  0  0  0  0  0
  125.1610  137.8700  172.4008 H   0  0  0  0  0  0  0  0  0  0  0  0
  124.9572  134.7612  170.5830 H   0  0  0  0  0  0  0  0  0  0  0  0
  125.8453  134.4164  168.3165 H   0  0  0  0  0  0  0  0  0  0  0  0
  126.8186  138.2657  166.1673 H   0  0  0  0  0  0  0  0  0  0  0  0
  127.7082  137.9250  163.9021 H   0  0  0  0  0  0  0  0  0  0  0  0
  130.0099  134.0726  163.4332 H   0  0  0  0  0  0  0  0  0  0  0  0
  130.8978  133.7349  161.1659 H   0  0  0  0  0  0  0  0  0  0  0  0
  131.7130  130.0102  156.6555 H   0  0  0  0  0  0  0  0  0  0  0  0
  132.2343  128.7975  154.5795 H   0  0  0  0  0  0  0  0  0  0  0  0
  1  2  1  0
  1 36  1  0
  1 37  1  0
  1 38  1  0
  2  3  1  0
  2 39  1  0
  2 40  1  0
  3 35  2  0
  3  4  1  0
  4  5  2  0
  4 41  1  0
  5  6  1  0
  5 42  1  0
  6  7  1  0
  6 34  2  0
  7 32  1  0
  7  8  2  0
  8  9  1  0
  8 43  1  0
  9 10  1  0
  9 11  1  0
 11 12  1  0
 11 32  2  0
 12 13  1  0
 12 44  1  0
 13 31  1  0
 13 14  2  0
 14 15  1  0
 14 45  1  0
 15 16  2  0
 15 46  1  0
 16 17  1  0
 16 30  1  0
 17 29  1  0
 17 18  2  0
 18 19  1  0
 18 47  1  0
 19 20  2  0
 19 48  1  0
 20 21  1  0
 20 28  1  0
 21 27  1  0
 21 22  2  0
 22 23  1  0
 22 49  1  0
 23 24  2  0
 23 50  1  0
 24 25  1  0
 24 26  1  0
 25 51  1  0
 25 52  1  0
 26 27  2  0
 26 53  1  0
 27 54  1  0
 28 29  2  0
 28 55  1  0
 29 56  1  0
 30 31  2  0
 30 57  1  0
 31 58  1  0
 32 33  1  0
 34 35  1  0
 34 59  1  0
 35 60  1  0
M  CHG  1  32   1
M  END
>  <DOCK_score>  (1) 
-60.210911

>  <SMILES>  (1) 
CCc1ccc(-c2c[nH]c(Nc3ccc(-c4ccc(-c5ccc(N)cc5)cc4)cc3)[nH+]2)cc1

$$$$
