C1=CCC(c2c[nH]c(Nc3ccc(Nc4ccccc4)cc3)[nH+]2)=CC1
     RDKit          3D

 46 49  0  0  1  0  0  0  0  0999 V2000
  130.6632  130.6421  152.7417 C   0  0  0  0  0  0  0  0  0  0  0  0
  130.1421  131.8304  152.7449 C   0  0  0  0  0  0  0  0  0  0  0  0
  130.1710  132.7322  153.9418 C   0  0  0  0  0  0  0  0  0  0  0  0
  130.4163  131.9537  155.1995 C   0  0  0  0  0  0  0  0  0  0  0  0
  130.0494  132.5637  156.4940 C   0  0  0  0  0  0  0  0  0  0  0  0
  129.1636  132.0607  157.3930 C   0  0  0  0  0  0  0  0  0  0  0  0
  129.1252  132.9384  158.4477 N   0  0  0  0  0  0  0  0  0  0  0  0
  128.5833  132.8516  159.2476 H   0  0  0  0  0  0  0  0  0  0  0  0
  129.9878  133.9530  158.1647 C   0  0  0  0  0  0  0  0  0  0  0  0
  130.2418  135.0454  158.9772 N   0  0  0  0  0  0  0  0  0  0  0  0
  129.2417  135.5337  159.8269 C   0  0  0  0  0  0  0  0  0  0  0  0
  129.5859  136.1415  161.0273 C   0  0  0  0  0  0  0  0  0  0  0  0
  128.6001  136.6281  161.8624 C   0  0  0  0  0  0  0  0  0  0  0  0
  127.2634  136.4996  161.5073 C   0  0  0  0  0  0  0  0  0  0  0  0
  126.2636  136.9882  162.3563 N   0  0  0  0  0  0  0  0  0  0  0  0
  126.6102  137.6050  163.5608 C   0  0  0  0  0  0  0  0  0  0  0  0
  126.7313  136.8493  164.7205 C   0  0  0  0  0  0  0  0  0  0  0  0
  127.0783  137.4618  165.9086 C   0  0  0  0  0  0  0  0  0  0  0  0
  127.2953  138.8271  165.9471 C   0  0  0  0  0  0  0  0  0  0  0  0
  127.1710  139.5829  164.7957 C   0  0  0  0  0  0  0  0  0  0  0  0
  126.8290  138.9764  163.6032 C   0  0  0  0  0  0  0  0  0  0  0  0
  126.9189  135.8867  160.3094 C   0  0  0  0  0  0  0  0  0  0  0  0
  127.9051  135.4053  159.4718 C   0  0  0  0  0  0  0  0  0  0  0  0
  130.5419  133.7236  156.9995 N   0  0  0  0  0  0  0  0  0  0  0  0
  131.1973  134.2926  156.5663 H   0  0  0  0  0  0  0  0  0  0  0  0
  130.9497  130.7511  155.1964 C   0  0  0  0  0  0  0  0  0  0  0  0
  131.3486  130.0470  153.9343 C   0  0  0  0  0  0  0  0  0  0  0  0
  130.5998  130.0545  151.8378 H   0  0  0  0  0  0  0  0  0  0  0  0
  129.6656  132.1862  151.8434 H   0  0  0  0  0  0  0  0  0  0  0  0
  130.9628  133.4702  153.8138 H   0  0  0  0  0  0  0  0  0  0  0  0
  129.2139  133.2472  154.0242 H   0  0  0  0  0  0  0  0  0  0  0  0
  128.5977  131.1459  157.2962 H   0  0  0  0  0  0  0  0  0  0  0  0
  131.1127  135.4722  158.9578 H   0  0  0  0  0  0  0  0  0  0  0  0
  130.6251  136.2373  161.3055 H   0  0  0  0  0  0  0  0  0  0  0  0
  128.8680  137.1042  162.7940 H   0  0  0  0  0  0  0  0  0  0  0  0
  125.3302  136.8985  162.1084 H   0  0  0  0  0  0  0  0  0  0  0  0
  126.5579  135.7837  164.6919 H   0  0  0  0  0  0  0  0  0  0  0  0
  127.1760  136.8744  166.8097 H   0  0  0  0  0  0  0  0  0  0  0  0
  127.5621  139.3040  166.8785 H   0  0  0  0  0  0  0  0  0  0  0  0
  127.3411  140.6490  164.8293 H   0  0  0  0  0  0  0  0  0  0  0  0
  126.7313  139.5674  162.7045 H   0  0  0  0  0  0  0  0  0  0  0  0
  125.8796  135.7866  160.0334 H   0  0  0  0  0  0  0  0  0  0  0  0
  127.6372  134.9285  158.5404 H   0  0  0  0  0  0  0  0  0  0  0  0
  131.1022  130.2493  156.1405 H   0  0  0  0  0  0  0  0  0  0  0  0
  132.4277  130.1303  153.8046 H   0  0  0  0  0  0  0  0  0  0  0  0
  131.0785  128.9939  154.0120 H   0  0  0  0  0  0  0  0  0  0  0  0
  1 27  1  0
  1  2  2  0
  1 28  1  0
  2  3  1  0
  2 29  1  0
  3  4  1  0
  3 30  1  0
  3 31  1  0
  4  5  1  0
  4 26  2  0
  5 24  1  0
  5  6  2  0
  6  7  1  0
  6 32  1  0
  7  8  1  0
  7  9  1  0
  9 10  1  0
  9 24  2  0
 10 11  1  0
 10 33  1  0
 11 23  1  0
 11 12  2  0
 12 13  1  0
 12 34  1  0
 13 14  2  0
 13 35  1  0
 14 15  1  0
 14 22  1  0
 15 16  1  0
 15 36  1  0
 16 21  1  0
 16 17  2  0
 17 18  1  0
 17 37  1  0
 18 19  2  0
 18 38  1  0
 19 20  1  0
 19 39  1  0
 20 21  2  0
 20 40  1  0
 21 41  1  0
 22 23  2  0
 22 42  1  0
 23 43  1  0
 24 25  1  0
 26 27  1  0
 26 44  1  0
 27 45  1  0
 27 46  1  0
M  CHG  1  24   1
M  END
>  <DOCK_score>  (1) 
-53.176189

>  <SMILES>  (1) 
C1=CCC(c2c[nH]c(Nc3ccc(Nc4ccccc4)cc3)[nH+]2)=CC1

$$$$
