CCc1ccc(-c2c[nH]c(N[C@@H](Cc3ccc(-c4ccc(F)cc4)cc3)c3ccc(F)cc3)[nH+]2)cc1
     RDKit          3D

 64 68  0  0  1  0  0  0  0  0999 V2000
  129.7827  129.1879  151.4841 C   0  0  0  0  0  0  0  0  0  0  0  0
  130.9797  130.0807  151.8168 C   0  0  0  0  0  0  0  0  0  0  0  0
  130.7855  130.6940  153.1796 C   0  0  0  0  0  0  0  0  0  0  0  0
  131.2558  130.0393  154.3032 C   0  0  0  0  0  0  0  0  0  0  0  0
  131.0850  130.5986  155.5532 C   0  0  0  0  0  0  0  0  0  0  0  0
  130.4277  131.8208  155.6831 C   0  0  0  0  0  0  0  0  0  0  0  0
  130.2366  132.4244  157.0244 C   0  0  0  0  0  0  0  0  0  0  0  0
  129.5679  131.8653  158.0633 C   0  0  0  0  0  0  0  0  0  0  0  0
  129.6344  132.7568  159.1063 N   0  0  0  0  0  0  0  0  0  0  0  0
  129.2478  132.6392  159.9881 H   0  0  0  0  0  0  0  0  0  0  0  0
  130.3426  133.8356  158.6740 C   0  0  0  0  0  0  0  0  0  0  0  0
  130.6356  134.9613  159.4246 N   0  0  0  0  0  0  0  0  0  0  0  0
  130.1710  135.0589  160.8105 C   0  0  1  0  0  0  0  0  0  0  0  0
  130.5895  134.2379  161.3927 H   0  0  0  0  0  0  0  0  0  0  0  0
  130.6261  136.3918  161.4083 C   0  0  0  0  0  0  0  0  0  0  0  0
  130.5972  136.3036  162.9124 C   0  0  0  0  0  0  0  0  0  0  0  0
  131.7192  135.8761  163.5993 C   0  0  0  0  0  0  0  0  0  0  0  0
  131.6999  135.7980  164.9771 C   0  0  0  0  0  0  0  0  0  0  0  0
  130.5440  136.1408  165.6756 C   0  0  0  0  0  0  0  0  0  0  0  0
  130.5157  136.0543  167.1566 C   0  0  0  0  0  0  0  0  0  0  0  0
  129.3199  135.7812  167.8179 C   0  0  0  0  0  0  0  0  0  0  0  0
  129.2993  135.6964  169.1949 C   0  0  0  0  0  0  0  0  0  0  0  0
  130.4633  135.8931  169.9206 C   0  0  0  0  0  0  0  0  0  0  0  0
  130.4370  135.8152  171.2691 F   0  0  0  0  0  0  0  0  0  0  0  0
  131.6530  136.1702  169.2675 C   0  0  0  0  0  0  0  0  0  0  0  0
  131.6838  136.2516  167.8905 C   0  0  0  0  0  0  0  0  0  0  0  0
  129.4149  136.5656  164.9783 C   0  0  0  0  0  0  0  0  0  0  0  0
  129.4470  136.6447  163.6008 C   0  0  0  0  0  0  0  0  0  0  0  0
  128.6663  134.9816  160.8425 C   0  0  0  0  0  0  0  0  0  0  0  0
  128.0259  134.4373  161.9402 C   0  0  0  0  0  0  0  0  0  0  0  0
  126.6458  134.3711  161.9730 C   0  0  0  0  0  0  0  0  0  0  0  0
  125.9051  134.8401  160.9014 C   0  0  0  0  0  0  0  0  0  0  0  0
  124.5561  134.7707  160.9301 F   0  0  0  0  0  0  0  0  0  0  0  0
  126.5479  135.3797  159.8002 C   0  0  0  0  0  0  0  0  0  0  0  0
  127.9277  135.4496  159.7718 C   0  0  0  0  0  0  0  0  0  0  0  0
  130.7049  133.6311  157.4311 N   0  0  0  0  0  0  0  0  0  0  0  0
  131.2236  134.2452  156.8881 H   0  0  0  0  0  0  0  0  0  0  0  0
  129.9512  132.4738  154.5478 C   0  0  0  0  0  0  0  0  0  0  0  0
  130.1322  131.9077  153.3023 C   0  0  0  0  0  0  0  0  0  0  0  0
  128.8714  129.7856  151.4870 H   0  0  0  0  0  0  0  0  0  0  0  0
  129.9234  128.7442  150.4983 H   0  0  0  0  0  0  0  0  0  0  0  0
  129.7012  128.3973  152.2300 H   0  0  0  0  0  0  0  0  0  0  0  0
  131.8911  129.4835  151.8137 H   0  0  0  0  0  0  0  0  0  0  0  0
  131.0612  130.8719  151.0706 H   0  0  0  0  0  0  0  0  0  0  0  0
  131.7611  129.0902  154.2018 H   0  0  0  0  0  0  0  0  0  0  0  0
  131.4568  130.0884  156.4296 H   0  0  0  0  0  0  0  0  0  0  0  0
  129.0767  130.9035  158.0693 H   0  0  0  0  0  0  0  0  0  0  0  0
  131.1485  135.6854  159.0329 H   0  0  0  0  0  0  0  0  0  0  0  0
  131.6409  136.6112  161.0767 H   0  0  0  0  0  0  0  0  0  0  0  0
  129.9562  137.1857  161.0779 H   0  0  0  0  0  0  0  0  0  0  0  0
  132.6133  135.6071  163.0566 H   0  0  0  0  0  0  0  0  0  0  0  0
  132.5779  135.4684  165.5126 H   0  0  0  0  0  0  0  0  0  0  0  0
  128.4115  135.6324  167.2533 H   0  0  0  0  0  0  0  0  0  0  0  0
  128.3737  135.4810  169.7080 H   0  0  0  0  0  0  0  0  0  0  0  0
  132.5579  136.3230  169.8370 H   0  0  0  0  0  0  0  0  0  0  0  0
  132.6117  136.4682  167.3822 H   0  0  0  0  0  0  0  0  0  0  0  0
  128.5163  136.8322  165.5148 H   0  0  0  0  0  0  0  0  0  0  0  0
  128.5724  136.9738  163.0593 H   0  0  0  0  0  0  0  0  0  0  0  0
  128.6041  134.0675  162.7741 H   0  0  0  0  0  0  0  0  0  0  0  0
  126.1456  133.9503  162.8326 H   0  0  0  0  0  0  0  0  0  0  0  0
  125.9711  135.7455  158.9635 H   0  0  0  0  0  0  0  0  0  0  0  0
  128.4293  135.8706  158.9129 H   0  0  0  0  0  0  0  0  0  0  0  0
  129.4408  133.4209  154.6425 H   0  0  0  0  0  0  0  0  0  0  0  0
  129.7630  132.4127  152.4219 H   0  0  0  0  0  0  0  0  0  0  0  0
  1  2  1  0
  1 40  1  0
  1 41  1  0
  1 42  1  0
  2  3  1  0
  2 43  1  0
  2 44  1  0
  3 39  2  0
  3  4  1  0
  4  5  2  0
  4 45  1  0
  5  6  1  0
  5 46  1  0
  6  7  1  0
  6 38  2  0
  7 36  1  0
  7  8  2  0
  8  9  1  0
  8 47  1  0
  9 10  1  0
  9 11  1  0
 11 12  1  0
 11 36  2  0
 12 13  1  0
 12 48  1  0
 13 14  1  1
 13 15  1  0
 13 29  1  0
 15 16  1  0
 15 49  1  0
 15 50  1  0
 16 28  1  0
 16 17  2  0
 17 18  1  0
 17 51  1  0
 18 19  2  0
 18 52  1  0
 19 20  1  0
 19 27  1  0
 20 26  1  0
 20 21  2  0
 21 22  1  0
 21 53  1  0
 22 23  2  0
 22 54  1  0
 23 24  1  0
 23 25  1  0
 25 26  2  0
 25 55  1  0
 26 56  1  0
 27 28  2  0
 27 57  1  0
 28 58  1  0
 29 35  1  0
 29 30  2  0
 30 31  1  0
 30 59  1  0
 31 32  2  0
 31 60  1  0
 32 33  1  0
 32 34  1  0
 34 35  2  0
 34 61  1  0
 35 62  1  0
 36 37  1  0
 38 39  1  0
 38 63  1  0
 39 64  1  0
M  CHG  1  36   1
M  END
>  <DOCK_score>  (1) 
-61.385071

>  <SMILES>  (1) 
CCc1ccc(-c2c[nH]c(N[C@@H](Cc3ccc(-c4ccc(F)cc4)cc3)c3ccc(F)cc3)[nH+]2)cc1

$$$$
