Oc1cc(C[NH+]=C(NCc2cncs2)NC2CC=CC2)cc(O[C@H]2C=CCC2)c1
     RDKit          3D

 56 59  0  0  1  0  0  0  0  0999 V2000
  124.4012  135.7032  163.2937 O   0  0  0  0  0  0  0  0  0  0  0  0
  125.6262  135.8704  163.8575 C   0  0  0  0  0  0  0  0  0  0  0  0
  126.6850  136.3394  163.0922 C   0  0  0  0  0  0  0  0  0  0  0  0
  127.9308  136.5086  163.6646 C   0  0  0  0  0  0  0  0  0  0  0  0
  129.0788  137.0171  162.8312 C   0  0  0  0  0  0  0  0  0  0  0  0
  129.0969  136.3159  161.5451 N   0  0  0  0  0  0  0  0  0  0  0  0
  128.4278  135.6408  161.3513 H   0  0  0  0  0  0  0  0  0  0  0  0
  130.0121  136.5990  160.6612 C   0  0  0  0  0  0  0  0  0  0  0  0
  130.9605  137.5557  160.9359 N   0  0  0  0  0  0  0  0  0  0  0  0
  131.9890  137.8739  159.9426 C   0  0  0  0  0  0  0  0  0  0  0  0
  132.8975  138.9465  160.4859 C   0  0  0  0  0  0  0  0  0  0  0  0
  133.9425  139.4871  159.8520 C   0  0  0  0  0  0  0  0  0  0  0  0
  134.5817  140.4107  160.5413 N   0  0  0  0  0  0  0  0  0  0  0  0
  134.1340  140.6794  161.7213 C   0  0  0  0  0  0  0  0  0  0  0  0
  132.7651  139.7146  162.0661 S   0  0  0  0  0  0  0  0  0  0  0  0
  130.0289  135.9410  159.4542 N   0  0  0  0  0  0  0  0  0  0  0  0
  129.0183  134.9217  159.1614 C   0  0  0  0  0  0  0  0  0  0  0  0
  129.2075  133.6780  160.0606 C   0  0  0  0  0  0  0  0  0  0  0  0
  128.8783  132.5045  159.1665 C   0  0  0  0  0  0  0  0  0  0  0  0
  128.8905  132.8536  157.9088 C   0  0  0  0  0  0  0  0  0  0  0  0
  129.2307  134.3177  157.7538 C   0  0  0  0  0  0  0  0  0  0  0  0
  128.1263  136.2119  165.0002 C   0  0  0  0  0  0  0  0  0  0  0  0
  127.0696  135.7486  165.7709 C   0  0  0  0  0  0  0  0  0  0  0  0
  127.2610  135.4625  167.0855 O   0  0  0  0  0  0  0  0  0  0  0  0
  127.7018  136.5318  167.9248 C   0  0  1  0  0  0  0  0  0  0  0  0
  127.8178  137.4466  167.3436 H   0  0  0  0  0  0  0  0  0  0  0  0
  126.7274  136.7462  169.0595 C   0  0  0  0  0  0  0  0  0  0  0  0
  127.3538  136.8994  170.1943 C   0  0  0  0  0  0  0  0  0  0  0  0
  128.8506  136.8128  170.0056 C   0  0  0  0  0  0  0  0  0  0  0  0
  129.0343  136.1602  168.6158 C   0  0  0  0  0  0  0  0  0  0  0  0
  125.8192  135.5724  165.1966 C   0  0  0  0  0  0  0  0  0  0  0  0
  124.3644  135.9373  162.3562 H   0  0  0  0  0  0  0  0  0  0  0  0
  126.5347  136.5720  162.0483 H   0  0  0  0  0  0  0  0  0  0  0  0
  128.9578  138.0868  162.6602 H   0  0  0  0  0  0  0  0  0  0  0  0
  130.0169  136.8370  163.3564 H   0  0  0  0  0  0  0  0  0  0  0  0
  130.9485  138.0199  161.7875 H   0  0  0  0  0  0  0  0  0  0  0  0
  132.5727  136.9795  159.7245 H   0  0  0  0  0  0  0  0  0  0  0  0
  131.5136  138.2293  159.0283 H   0  0  0  0  0  0  0  0  0  0  0  0
  134.2389  139.1913  158.8565 H   0  0  0  0  0  0  0  0  0  0  0  0
  134.5597  141.4109  162.3922 H   0  0  0  0  0  0  0  0  0  0  0  0
  130.7099  136.1519  158.7964 H   0  0  0  0  0  0  0  0  0  0  0  0
  128.0128  135.3297  159.2645 H   0  0  0  0  0  0  0  0  0  0  0  0
  130.2390  133.6134  160.4073 H   0  0  0  0  0  0  0  0  0  0  0  0
  128.5229  133.7144  160.9080 H   0  0  0  0  0  0  0  0  0  0  0  0
  128.6607  131.5081  159.5219 H   0  0  0  0  0  0  0  0  0  0  0  0
  128.6842  132.1839  157.0869 H   0  0  0  0  0  0  0  0  0  0  0  0
  128.5616  134.7887  157.0337 H   0  0  0  0  0  0  0  0  0  0  0  0
  130.2686  134.4355  157.4427 H   0  0  0  0  0  0  0  0  0  0  0  0
  129.1012  136.3449  165.4454 H   0  0  0  0  0  0  0  0  0  0  0  0
  125.6535  136.7699  168.9465 H   0  0  0  0  0  0  0  0  0  0  0  0
  126.8665  137.0659  171.1437 H   0  0  0  0  0  0  0  0  0  0  0  0
  129.2954  136.1882  170.7802 H   0  0  0  0  0  0  0  0  0  0  0  0
  129.2950  137.8080  170.0195 H   0  0  0  0  0  0  0  0  0  0  0  0
  129.1419  135.0791  168.7024 H   0  0  0  0  0  0  0  0  0  0  0  0
  129.8834  136.5947  168.0880 H   0  0  0  0  0  0  0  0  0  0  0  0
  124.9973  135.2069  165.7943 H   0  0  0  0  0  0  0  0  0  0  0  0
  1  2  1  0
  1 32  1  0
  2 31  2  0
  2  3  1  0
  3  4  2  0
  3 33  1  0
  4  5  1  0
  4 22  1  0
  5  6  1  0
  5 34  1  0
  5 35  1  0
  6  7  1  0
  8  6  2  0
  8  9  1  0
  8 16  1  0
  9 10  1  0
  9 36  1  0
 10 11  1  0
 10 37  1  0
 10 38  1  0
 11 15  1  0
 11 12  2  0
 12 13  1  0
 12 39  1  0
 13 14  2  0
 14 15  1  0
 14 40  1  0
 16 17  1  0
 16 41  1  0
 17 21  1  0
 17 18  1  0
 17 42  1  0
 18 19  1  0
 18 43  1  0
 18 44  1  0
 19 20  2  0
 19 45  1  0
 20 21  1  0
 20 46  1  0
 21 47  1  0
 21 48  1  0
 22 23  2  0
 22 49  1  0
 23 24  1  0
 23 31  1  0
 24 25  1  0
 25 26  1  6
 25 30  1  0
 25 27  1  0
 27 28  2  0
 27 50  1  0
 28 29  1  0
 28 51  1  0
 29 30  1  0
 29 52  1  0
 29 53  1  0
 30 54  1  0
 30 55  1  0
 31 56  1  0
M  CHG  1   6   1
M  END
>  <DOCK_score>  (1) 
-43.855896

>  <SMILES>  (1) 
Oc1cc(C[NH+]=C(NCc2cncs2)NC2CC=CC2)cc(O[C@H]2C=CCC2)c1

$$$$
