Oc1cccc(CNC(NC2CC=CC2)=[NH+][C@H]2C=CCC2)c1
     RDKit          3D

 46 48  0  0  1  0  0  0  0  0999 V2000
  123.4782  134.9234  161.5437 O   0  0  0  0  0  0  0  0  0  0  0  0
  124.4101  134.3481  160.7391 C   0  0  0  0  0  0  0  0  0  0  0  0
  124.4375  132.9697  160.5824 C   0  0  0  0  0  0  0  0  0  0  0  0
  125.3859  132.3875  159.7643 C   0  0  0  0  0  0  0  0  0  0  0  0
  126.3041  133.1776  159.0971 C   0  0  0  0  0  0  0  0  0  0  0  0
  126.2825  134.5508  159.2560 C   0  0  0  0  0  0  0  0  0  0  0  0
  127.2885  135.4082  158.5322 C   0  0  0  0  0  0  0  0  0  0  0  0
  128.6194  134.8088  158.6553 N   0  0  0  0  0  0  0  0  0  0  0  0
  129.1764  134.6206  159.8980 C   0  0  0  0  0  0  0  0  0  0  0  0
  128.4843  134.9950  161.0253 N   0  0  0  0  0  0  0  0  0  0  0  0
  129.0779  134.7944  162.3496 C   0  0  0  0  0  0  0  0  0  0  0  0
  128.0548  135.0987  163.4684 C   0  0  0  0  0  0  0  0  0  0  0  0
  128.3378  134.0696  164.5380 C   0  0  0  0  0  0  0  0  0  0  0  0
  129.0572  133.0876  164.0668 C   0  0  0  0  0  0  0  0  0  0  0  0
  129.3738  133.2981  162.6045 C   0  0  0  0  0  0  0  0  0  0  0  0
  130.3606  134.0871  160.0075 N   0  0  0  0  0  0  0  0  0  0  0  0
  130.9338  134.3273  160.7523 H   0  0  0  0  0  0  0  0  0  0  0  0
  130.8258  133.1245  159.0060 C   0  0  1  0  0  0  0  0  0  0  0  0
  130.8461  133.5852  158.0183 H   0  0  0  0  0  0  0  0  0  0  0  0
  132.1950  132.6020  159.3741 C   0  0  0  0  0  0  0  0  0  0  0  0
  132.2599  131.3071  159.2238 C   0  0  0  0  0  0  0  0  0  0  0  0
  130.9449  130.7500  158.7302 C   0  0  0  0  0  0  0  0  0  0  0  0
  129.9167  131.8735  158.9981 C   0  0  0  0  0  0  0  0  0  0  0  0
  125.3357  135.1380  160.0732 C   0  0  0  0  0  0  0  0  0  0  0  0
  123.5389  135.8874  161.5893 H   0  0  0  0  0  0  0  0  0  0  0  0
  123.7181  132.3526  161.1001 H   0  0  0  0  0  0  0  0  0  0  0  0
  125.4074  131.3148  159.6418 H   0  0  0  0  0  0  0  0  0  0  0  0
  127.0418  132.7208  158.4541 H   0  0  0  0  0  0  0  0  0  0  0  0
  127.2974  136.4062  158.9705 H   0  0  0  0  0  0  0  0  0  0  0  0
  127.0166  135.4765  157.4788 H   0  0  0  0  0  0  0  0  0  0  0  0
  129.1078  134.5447  157.8599 H   0  0  0  0  0  0  0  0  0  0  0  0
  127.6030  135.3919  160.9440 H   0  0  0  0  0  0  0  0  0  0  0  0
  129.9783  135.3971  162.4684 H   0  0  0  0  0  0  0  0  0  0  0  0
  127.0374  134.9867  163.0934 H   0  0  0  0  0  0  0  0  0  0  0  0
  128.2076  136.1046  163.8594 H   0  0  0  0  0  0  0  0  0  0  0  0
  127.9907  134.1377  165.5585 H   0  0  0  0  0  0  0  0  0  0  0  0
  129.3835  132.2366  164.6463 H   0  0  0  0  0  0  0  0  0  0  0  0
  130.4235  133.0799  162.4081 H   0  0  0  0  0  0  0  0  0  0  0  0
  128.7324  132.6731  161.9833 H   0  0  0  0  0  0  0  0  0  0  0  0
  133.0125  133.2191  159.7163 H   0  0  0  0  0  0  0  0  0  0  0  0
  133.1384  130.7119  159.4252 H   0  0  0  0  0  0  0  0  0  0  0  0
  130.6798  129.8518  159.2879 H   0  0  0  0  0  0  0  0  0  0  0  0
  131.0008  130.5329  157.6636 H   0  0  0  0  0  0  0  0  0  0  0  0
  129.4308  131.7369  159.9642 H   0  0  0  0  0  0  0  0  0  0  0  0
  129.1802  131.9300  158.1965 H   0  0  0  0  0  0  0  0  0  0  0  0
  125.3167  136.2110  160.1937 H   0  0  0  0  0  0  0  0  0  0  0  0
  1  2  1  0
  1 25  1  0
  2 24  2  0
  2  3  1  0
  3  4  2  0
  3 26  1  0
  4  5  1  0
  4 27  1  0
  5  6  2  0
  5 28  1  0
  6  7  1  0
  6 24  1  0
  7  8  1  0
  7 29  1  0
  7 30  1  0
  8 31  1  0
  9  8  1  0
  9 10  1  0
  9 16  2  0
 10 11  1  0
 10 32  1  0
 11 15  1  0
 11 12  1  0
 11 33  1  0
 12 13  1  0
 12 34  1  0
 12 35  1  0
 13 14  2  0
 13 36  1  0
 14 15  1  0
 14 37  1  0
 15 38  1  0
 15 39  1  0
 16 17  1  0
 16 18  1  0
 18 19  1  6
 18 23  1  0
 18 20  1  0
 20 21  2  0
 20 40  1  0
 21 22  1  0
 21 41  1  0
 22 23  1  0
 22 42  1  0
 22 43  1  0
 23 44  1  0
 23 45  1  0
 24 46  1  0
M  CHG  1  16   1
M  END
>  <DOCK_score>  (1) 
-41.008133

>  <SMILES>  (1) 
Oc1cccc(CNC(NC2CC=CC2)=[NH+][C@H]2C=CCC2)c1

$$$$
