CC1=CC(=O)CC1C(=O)C1CC=C(C)[C@@H]1[NH2+]Cc1cnn(-c2ccccc2)c1
     RDKit          3D

 54 57  0  0  1  0  0  0  0  0999 V2000
  124.4146  134.0291  161.0478 C   0  0  0  0  0  0  0  0  0  0  0  0
  125.3130  134.3292  162.2198 C   0  0  0  0  0  0  0  0  0  0  0  0
  124.8922  134.7312  163.4105 C   0  0  0  0  0  0  0  0  0  0  0  0
  125.9932  134.9421  164.3439 C   0  0  0  0  0  0  0  0  0  0  0  0
  125.8962  135.3087  165.4965 O   0  0  0  0  0  0  0  0  0  0  0  0
  127.2787  134.6202  163.6123 C   0  0  0  0  0  0  0  0  0  0  0  0
  126.8166  134.2139  162.2018 C   0  0  2  0  0  0  0  0  0  0  0  0
  127.3986  135.1490  161.1733 C   0  0  0  0  0  0  0  0  0  0  0  0
  126.6694  135.8480  160.5115 O   0  0  0  0  0  0  0  0  0  0  0  0
  128.8907  135.2120  160.9706 C   0  0  1  0  0  0  0  0  0  0  0  0
  129.5268  133.8077  161.0909 C   0  0  0  0  0  0  0  0  0  0  0  0
  129.5774  133.2864  159.6735 C   0  0  0  0  0  0  0  0  0  0  0  0
  129.4195  134.2533  158.8111 C   0  0  0  0  0  0  0  0  0  0  0  0
  129.4194  134.0699  157.3153 C   0  0  0  0  0  0  0  0  0  0  0  0
  129.2373  135.5808  159.5096 C   0  0  2  0  0  0  0  0  0  0  0  0
  128.4210  136.1410  159.0535 H   0  0  0  0  0  0  0  0  0  0  0  0
  130.4817  136.3601  159.4600 N   0  0  0  0  0  0  0  0  0  0  0  0
  130.8701  136.3146  158.5300 H   0  0  0  0  0  0  0  0  0  0  0  0
  131.1434  135.9796  160.1199 H   0  0  0  0  0  0  0  0  0  0  0  0
  130.1969  137.7597  159.8038 C   0  0  0  0  0  0  0  0  0  0  0  0
  131.4734  138.5591  159.7529 C   0  0  0  0  0  0  0  0  0  0  0  0
  131.9825  139.2266  158.6334 C   0  0  0  0  0  0  0  0  0  0  0  0
  133.1010  139.8117  158.9789 N   0  0  0  0  0  0  0  0  0  0  0  0
  133.3455  139.5270  160.3285 N   0  0  0  0  0  0  0  0  0  0  0  0
  134.4460  139.9658  161.0780 C   0  0  0  0  0  0  0  0  0  0  0  0
  134.5618  139.6124  162.4158 C   0  0  0  0  0  0  0  0  0  0  0  0
  135.6439  140.0513  163.1532 C   0  0  0  0  0  0  0  0  0  0  0  0
  136.6120  140.8411  162.5603 C   0  0  0  0  0  0  0  0  0  0  0  0
  136.4993  141.1947  161.2282 C   0  0  0  0  0  0  0  0  0  0  0  0
  135.4192  140.7592  160.4856 C   0  0  0  0  0  0  0  0  0  0  0  0
  132.3291  138.7590  160.7820 C   0  0  0  0  0  0  0  0  0  0  0  0
  124.0569  133.0019  161.1177 H   0  0  0  0  0  0  0  0  0  0  0  0
  123.5645  134.7113  161.0575 H   0  0  0  0  0  0  0  0  0  0  0  0
  124.9726  134.1572  160.1201 H   0  0  0  0  0  0  0  0  0  0  0  0
  123.8531  134.8851  163.6611 H   0  0  0  0  0  0  0  0  0  0  0  0
  127.7970  133.7929  164.0972 H   0  0  0  0  0  0  0  0  0  0  0  0
  127.9214  135.4992  163.5650 H   0  0  0  0  0  0  0  0  0  0  0  0
  127.1147  133.1873  161.9887 H   0  0  0  0  0  0  0  0  0  0  0  0
  129.3497  135.9107  161.6702 H   0  0  0  0  0  0  0  0  0  0  0  0
  128.9061  133.1614  161.7113 H   0  0  0  0  0  0  0  0  0  0  0  0
  130.5327  133.8807  161.5047 H   0  0  0  0  0  0  0  0  0  0  0  0
  129.7251  132.2498  159.4088 H   0  0  0  0  0  0  0  0  0  0  0  0
  130.4359  134.1749  156.9363 H   0  0  0  0  0  0  0  0  0  0  0  0
  129.0411  133.0773  157.0710 H   0  0  0  0  0  0  0  0  0  0  0  0
  128.7810  134.8251  156.8568 H   0  0  0  0  0  0  0  0  0  0  0  0
  129.7772  137.8089  160.8085 H   0  0  0  0  0  0  0  0  0  0  0  0
  129.4821  138.1707  159.0909 H   0  0  0  0  0  0  0  0  0  0  0  0
  131.5280  139.2578  157.6541 H   0  0  0  0  0  0  0  0  0  0  0  0
  133.8062  138.9956  162.8793 H   0  0  0  0  0  0  0  0  0  0  0  0
  135.7343  139.7774  164.1939 H   0  0  0  0  0  0  0  0  0  0  0  0
  137.4574  141.1828  163.1389 H   0  0  0  0  0  0  0  0  0  0  0  0
  137.2565  141.8121  160.7681 H   0  0  0  0  0  0  0  0  0  0  0  0
  135.3315  141.0359  159.4454 H   0  0  0  0  0  0  0  0  0  0  0  0
  132.2197  138.3744  161.7852 H   0  0  0  0  0  0  0  0  0  0  0  0
  1  2  1  0
  1 32  1  0
  1 33  1  0
  1 34  1  0
  2  7  1  0
  2  3  2  0
  3  4  1  0
  3 35  1  0
  4  5  2  0
  4  6  1  0
  6  7  1  0
  6 36  1  0
  6 37  1  0
  7  8  1  0
  7 38  1  6
  8  9  2  0
  8 10  1  0
 10 15  1  0
 10 11  1  0
 10 39  1  1
 11 12  1  0
 11 40  1  0
 11 41  1  0
 12 13  2  0
 12 42  1  0
 13 14  1  0
 13 15  1  0
 14 43  1  0
 14 44  1  0
 14 45  1  0
 15 16  1  6
 15 17  1  0
 17 18  1  0
 17 19  1  0
 17 20  1  0
 20 21  1  0
 20 46  1  0
 20 47  1  0
 21 31  2  0
 21 22  1  0
 22 23  2  0
 22 48  1  0
 23 24  1  0
 24 25  1  0
 24 31  1  0
 25 30  1  0
 25 26  2  0
 26 27  1  0
 26 49  1  0
 27 28  2  0
 27 50  1  0
 28 29  1  0
 28 51  1  0
 29 30  2  0
 29 52  1  0
 30 53  1  0
 31 54  1  0
M  CHG  1  17   1
M  END
>  <DOCK_score>  (1) 
-41.589928

>  <SMILES>  (1) 
CC1=CC(=O)CC1C(=O)C1CC=C(C)[C@@H]1[NH2+]Cc1cnn(-c2ccccc2)c1

$$$$
