OCC[NH2+]Cc1c[nH]nc1-c1ccc(NC2Cc3ccccc3C2)o1
     RDKit          3D

 48 51  0  0  0  0  0  0  0  0999 V2000
  131.8057  139.3051  158.4375 O   0  0  0  0  0  0  0  0  0  0  0  0
  130.8691  139.3059  159.5167 C   0  0  0  0  0  0  0  0  0  0  0  0
  131.1383  138.1055  160.4264 C   0  0  0  0  0  0  0  0  0  0  0  0
  130.9948  136.8640  159.6545 N   0  0  0  0  0  0  0  0  0  0  0  0
  131.6562  136.8634  158.8924 H   0  0  0  0  0  0  0  0  0  0  0  0
  130.0573  136.8034  159.2863 H   0  0  0  0  0  0  0  0  0  0  0  0
  131.2532  135.7116  160.5280 C   0  0  0  0  0  0  0  0  0  0  0  0
  131.1061  134.4379  159.7361 C   0  0  0  0  0  0  0  0  0  0  0  0
  132.0865  133.8075  159.0546 C   0  0  0  0  0  0  0  0  0  0  0  0
  131.5569  132.7030  158.4855 N   0  0  0  0  0  0  0  0  0  0  0  0
  132.0350  132.0594  157.9396 H   0  0  0  0  0  0  0  0  0  0  0  0
  130.1978  132.6476  158.8199 N   0  0  0  0  0  0  0  0  0  0  0  0
  129.9186  133.6942  159.5718 C   0  0  0  0  0  0  0  0  0  0  0  0
  128.5980  134.0256  160.1456 C   0  0  0  0  0  0  0  0  0  0  0  0
  127.4578  133.3026  159.9894 C   0  0  0  0  0  0  0  0  0  0  0  0
  126.4460  133.9773  160.7006 C   0  0  0  0  0  0  0  0  0  0  0  0
  127.0169  135.0761  161.2544 C   0  0  0  0  0  0  0  0  0  0  0  0
  126.3666  136.0202  162.0405 N   0  0  0  0  0  0  0  0  0  0  0  0
  127.1049  136.7418  163.0798 C   0  0  0  0  0  0  0  0  0  0  0  0
  128.1386  135.8189  163.7597 C   0  0  0  0  0  0  0  0  0  0  0  0
  128.1564  136.2520  165.2131 C   0  0  0  0  0  0  0  0  0  0  0  0
  129.0883  136.0102  166.2087 C   0  0  0  0  0  0  0  0  0  0  0  0
  128.8952  136.5160  167.4792 C   0  0  0  0  0  0  0  0  0  0  0  0
  127.7680  137.2662  167.7590 C   0  0  0  0  0  0  0  0  0  0  0  0
  126.8375  137.5083  166.7676 C   0  0  0  0  0  0  0  0  0  0  0  0
  127.0296  137.0021  165.4929 C   0  0  0  0  0  0  0  0  0  0  0  0
  126.1738  137.1228  164.2503 C   0  0  0  0  0  0  0  0  0  0  0  0
  128.3182  135.0954  160.9195 O   0  0  0  0  0  0  0  0  0  0  0  0
  131.7672  138.5132  157.8840 H   0  0  0  0  0  0  0  0  0  0  0  0
  129.8564  139.2404  159.1189 H   0  0  0  0  0  0  0  0  0  0  0  0
  130.9755  140.2271  160.0896 H   0  0  0  0  0  0  0  0  0  0  0  0
  130.4240  138.1061  161.2498 H   0  0  0  0  0  0  0  0  0  0  0  0
  132.1511  138.1711  160.8242 H   0  0  0  0  0  0  0  0  0  0  0  0
  130.5388  135.7122  161.3512 H   0  0  0  0  0  0  0  0  0  0  0  0
  132.2660  135.7771  160.9259 H   0  0  0  0  0  0  0  0  0  0  0  0
  133.1153  134.1277  158.9813 H   0  0  0  0  0  0  0  0  0  0  0  0
  127.3484  132.3866  159.4279 H   0  0  0  0  0  0  0  0  0  0  0  0
  125.4124  133.6767  160.7884 H   0  0  0  0  0  0  0  0  0  0  0  0
  125.4239  136.2011  161.9009 H   0  0  0  0  0  0  0  0  0  0  0  0
  127.5887  137.6265  162.6658 H   0  0  0  0  0  0  0  0  0  0  0  0
  127.8261  134.7777  163.6799 H   0  0  0  0  0  0  0  0  0  0  0  0
  129.1216  135.9552  163.3087 H   0  0  0  0  0  0  0  0  0  0  0  0
  129.9690  135.4244  165.9908 H   0  0  0  0  0  0  0  0  0  0  0  0
  129.6235  136.3254  168.2534 H   0  0  0  0  0  0  0  0  0  0  0  0
  127.6155  137.6628  168.7520 H   0  0  0  0  0  0  0  0  0  0  0  0
  125.9576  138.0947  166.9870 H   0  0  0  0  0  0  0  0  0  0  0  0
  125.8189  138.1467  164.1335 H   0  0  0  0  0  0  0  0  0  0  0  0
  125.3302  136.4344  164.3019 H   0  0  0  0  0  0  0  0  0  0  0  0
  1  2  1  0
  1 29  1  0
  2  3  1  0
  2 30  1  0
  2 31  1  0
  3  4  1  0
  3 32  1  0
  3 33  1  0
  4  5  1  0
  4  6  1  0
  4  7  1  0
  7  8  1  0
  7 34  1  0
  7 35  1  0
  8 13  1  0
  8  9  2  0
  9 10  1  0
  9 36  1  0
 10 11  1  0
 10 12  1  0
 12 13  2  0
 13 14  1  0
 14 28  1  0
 14 15  2  0
 15 16  1  0
 15 37  1  0
 16 17  2  0
 16 38  1  0
 17 18  1  0
 17 28  1  0
 18 19  1  0
 18 39  1  0
 19 27  1  0
 19 20  1  0
 19 40  1  0
 20 21  1  0
 20 41  1  0
 20 42  1  0
 21 26  2  0
 21 22  1  0
 22 23  2  0
 22 43  1  0
 23 24  1  0
 23 44  1  0
 24 25  2  0
 24 45  1  0
 25 26  1  0
 25 46  1  0
 26 27  1  0
 27 47  1  0
 27 48  1  0
M  CHG  1   4   1
M  END
>  <DOCK_score>  (1) 
-44.975269

>  <SMILES>  (1) 
OCC[NH2+]Cc1c[nH]nc1-c1ccc(NC2Cc3ccccc3C2)o1

$$$$
