Nc1ccc(-c2c[nH]c(N[C@@H](c3ccc(F)cc3)c3cccc(F)c3)[nH+]2)cc1
     RDKit          3D

 47 50  0  0  1  0  0  0  0  0999 V2000
  131.2207  129.4009  152.0054 N   0  0  0  0  0  0  0  0  0  0  0  0
  130.9494  130.1408  153.1587 C   0  0  0  0  0  0  0  0  0  0  0  0
  130.2078  131.3131  153.0726 C   0  0  0  0  0  0  0  0  0  0  0  0
  129.9386  132.0452  154.2098 C   0  0  0  0  0  0  0  0  0  0  0  0
  130.4111  131.6084  155.4465 C   0  0  0  0  0  0  0  0  0  0  0  0
  130.1228  132.3942  156.6714 C   0  0  0  0  0  0  0  0  0  0  0  0
  129.4407  131.9560  157.7583 C   0  0  0  0  0  0  0  0  0  0  0  0
  129.4064  132.9981  158.6543 N   0  0  0  0  0  0  0  0  0  0  0  0
  128.9874  132.9904  159.5291 H   0  0  0  0  0  0  0  0  0  0  0  0
  130.0692  134.0426  158.0873 C   0  0  0  0  0  0  0  0  0  0  0  0
  130.2612  135.2854  158.6660 N   0  0  0  0  0  0  0  0  0  0  0  0
  129.7287  135.5612  160.0026 C   0  0  1  0  0  0  0  0  0  0  0  0
  130.1674  134.8666  160.7189 H   0  0  0  0  0  0  0  0  0  0  0  0
  130.0718  136.9743  160.3983 C   0  0  0  0  0  0  0  0  0  0  0  0
  130.2520  137.2938  161.7312 C   0  0  0  0  0  0  0  0  0  0  0  0
  130.5722  138.5881  162.0950 C   0  0  0  0  0  0  0  0  0  0  0  0
  130.7018  139.5673  161.1247 C   0  0  0  0  0  0  0  0  0  0  0  0
  131.0092  140.8341  161.4795 F   0  0  0  0  0  0  0  0  0  0  0  0
  130.5155  139.2473  159.7905 C   0  0  0  0  0  0  0  0  0  0  0  0
  130.2005  137.9513  159.4287 C   0  0  0  0  0  0  0  0  0  0  0  0
  128.2313  135.3922  159.9914 C   0  0  0  0  0  0  0  0  0  0  0  0
  127.5160  135.6441  158.8352 C   0  0  0  0  0  0  0  0  0  0  0  0
  126.1424  135.4901  158.8235 C   0  0  0  0  0  0  0  0  0  0  0  0
  125.4824  135.0838  159.9680 C   0  0  0  0  0  0  0  0  0  0  0  0
  126.1975  134.8315  161.1263 C   0  0  0  0  0  0  0  0  0  0  0  0
  125.5533  134.4341  162.2452 F   0  0  0  0  0  0  0  0  0  0  0  0
  127.5735  134.9862  161.1366 C   0  0  0  0  0  0  0  0  0  0  0  0
  130.4908  133.6797  156.9003 N   0  0  0  0  0  0  0  0  0  0  0  0
  130.9886  134.2401  156.2847 H   0  0  0  0  0  0  0  0  0  0  0  0
  131.1596  130.4355  155.5297 C   0  0  0  0  0  0  0  0  0  0  0  0
  131.4210  129.7034  154.3909 C   0  0  0  0  0  0  0  0  0  0  0  0
  130.8918  129.7054  151.1452 H   0  0  0  0  0  0  0  0  0  0  0  0
  131.7384  128.5826  152.0646 H   0  0  0  0  0  0  0  0  0  0  0  0
  129.8423  131.6512  152.1142 H   0  0  0  0  0  0  0  0  0  0  0  0
  129.3620  132.9557  154.1424 H   0  0  0  0  0  0  0  0  0  0  0  0
  129.0072  130.9761  157.8940 H   0  0  0  0  0  0  0  0  0  0  0  0
  130.7484  135.9737  158.1865 H   0  0  0  0  0  0  0  0  0  0  0  0
  130.1465  136.5308  162.4883 H   0  0  0  0  0  0  0  0  0  0  0  0
  130.7168  138.8365  163.1360 H   0  0  0  0  0  0  0  0  0  0  0  0
  130.6159  140.0104  159.0329 H   0  0  0  0  0  0  0  0  0  0  0  0
  130.0552  137.7015  158.3882 H   0  0  0  0  0  0  0  0  0  0  0  0
  128.0305  135.9657  157.9417 H   0  0  0  0  0  0  0  0  0  0  0  0
  125.5848  135.6873  157.9200 H   0  0  0  0  0  0  0  0  0  0  0  0
  124.4090  134.9639  159.9588 H   0  0  0  0  0  0  0  0  0  0  0  0
  128.1323  134.7899  162.0397 H   0  0  0  0  0  0  0  0  0  0  0  0
  131.5303  130.0975  156.4861 H   0  0  0  0  0  0  0  0  0  0  0  0
  131.9965  128.7917  154.4555 H   0  0  0  0  0  0  0  0  0  0  0  0
  1  2  1  0
  1 32  1  0
  1 33  1  0
  2 31  2  0
  2  3  1  0
  3  4  2  0
  3 34  1  0
  4  5  1  0
  4 35  1  0
  5  6  1  0
  5 30  2  0
  6 28  1  0
  6  7  2  0
  7  8  1  0
  7 36  1  0
  8  9  1  0
  8 10  1  0
 10 11  1  0
 10 28  2  0
 11 12  1  0
 11 37  1  0
 12 13  1  1
 12 14  1  0
 12 21  1  0
 14 20  1  0
 14 15  2  0
 15 16  1  0
 15 38  1  0
 16 17  2  0
 16 39  1  0
 17 18  1  0
 17 19  1  0
 19 20  2  0
 19 40  1  0
 20 41  1  0
 21 27  1  0
 21 22  2  0
 22 23  1  0
 22 42  1  0
 23 24  2  0
 23 43  1  0
 24 25  1  0
 24 44  1  0
 25 26  1  0
 25 27  2  0
 27 45  1  0
 28 29  1  0
 30 31  1  0
 30 46  1  0
 31 47  1  0
M  CHG  1  28   1
M  END
>  <DOCK_score>  (1) 
-59.206718

>  <SMILES>  (1) 
Nc1ccc(-c2c[nH]c(N[C@@H](c3ccc(F)cc3)c3cccc(F)c3)[nH+]2)cc1

$$$$
