CCc1c[nH]c(Nc2ccc(C3(O)C=CC(=O)C=C3)cc2-c2ccccc2C2CC2)[nH+]1
     RDKit          3D

 57 61  0  0  1  0  0  0  0  0999 V2000
  131.5965  130.5848  159.5299 C   0  0  0  0  0  0  0  0  0  0  0  0
  130.2905  130.7525  158.7508 C   0  0  0  0  0  0  0  0  0  0  0  0
  130.1826  132.1699  158.2504 C   0  0  0  0  0  0  0  0  0  0  0  0
  130.6424  132.6257  157.0724 C   0  0  0  0  0  0  0  0  0  0  0  0
  130.3381  133.9665  157.0148 N   0  0  0  0  0  0  0  0  0  0  0  0
  130.5418  134.5735  156.2861 H   0  0  0  0  0  0  0  0  0  0  0  0
  129.6973  134.2794  158.1734 C   0  0  0  0  0  0  0  0  0  0  0  0
  129.2179  135.5322  158.5217 N   0  0  0  0  0  0  0  0  0  0  0  0
  128.5761  135.7178  159.7469 C   0  0  0  0  0  0  0  0  0  0  0  0
  127.2019  135.5502  159.8464 C   0  0  0  0  0  0  0  0  0  0  0  0
  126.5695  135.7297  161.0610 C   0  0  0  0  0  0  0  0  0  0  0  0
  127.2981  136.0873  162.1823 C   0  0  0  0  0  0  0  0  0  0  0  0
  126.5965  136.2857  163.5013 C   0  0  0  0  0  0  0  0  0  0  0  0
  125.1950  136.0845  163.3080 O   0  0  0  0  0  0  0  0  0  0  0  0
  127.1000  135.2655  164.4727 C   0  0  0  0  0  0  0  0  0  0  0  0
  127.9545  135.5534  165.4456 C   0  0  0  0  0  0  0  0  0  0  0  0
  128.4321  136.9396  165.6033 C   0  0  0  0  0  0  0  0  0  0  0  0
  129.4186  137.1931  166.2690 O   0  0  0  0  0  0  0  0  0  0  0  0
  127.6733  138.0086  164.9273 C   0  0  0  0  0  0  0  0  0  0  0  0
  126.8225  137.6916  163.9603 C   0  0  0  0  0  0  0  0  0  0  0  0
  128.6652  136.2574  162.0988 C   0  0  0  0  0  0  0  0  0  0  0  0
  129.3156  136.0742  160.8810 C   0  0  0  0  0  0  0  0  0  0  0  0
  130.7844  136.2553  160.7859 C   0  0  0  0  0  0  0  0  0  0  0  0
  131.6383  135.1761  161.0085 C   0  0  0  0  0  0  0  0  0  0  0  0
  133.0039  135.3491  160.9132 C   0  0  0  0  0  0  0  0  0  0  0  0
  133.5264  136.5934  160.6085 C   0  0  0  0  0  0  0  0  0  0  0  0
  132.6844  137.6690  160.3923 C   0  0  0  0  0  0  0  0  0  0  0  0
  131.3165  137.5064  160.4794 C   0  0  0  0  0  0  0  0  0  0  0  0
  130.4001  138.6794  160.2440 C   0  0  0  0  0  0  0  0  0  0  0  0
  130.9907  140.0812  160.4088 C   0  0  0  0  0  0  0  0  0  0  0  0
  130.0192  139.5324  161.4556 C   0  0  0  0  0  0  0  0  0  0  0  0
  129.6150  133.1949  158.9075 N   0  0  0  0  0  0  0  0  0  0  0  0
  129.2067  133.1414  159.7857 H   0  0  0  0  0  0  0  0  0  0  0  0
  132.4405  130.8044  158.8760 H   0  0  0  0  0  0  0  0  0  0  0  0
  131.6051  131.2707  160.3769 H   0  0  0  0  0  0  0  0  0  0  0  0
  131.6746  129.5596  159.8919 H   0  0  0  0  0  0  0  0  0  0  0  0
  129.4466  130.5328  159.4047 H   0  0  0  0  0  0  0  0  0  0  0  0
  130.2822  130.0665  157.9038 H   0  0  0  0  0  0  0  0  0  0  0  0
  131.1534  132.0494  156.3153 H   0  0  0  0  0  0  0  0  0  0  0  0
  129.3282  136.2800  157.9139 H   0  0  0  0  0  0  0  0  0  0  0  0
  126.6273  135.2753  158.9742 H   0  0  0  0  0  0  0  0  0  0  0  0
  125.5005  135.5945  161.1354 H   0  0  0  0  0  0  0  0  0  0  0  0
  124.7900  136.7077  162.6893 H   0  0  0  0  0  0  0  0  0  0  0  0
  126.7483  134.2485  164.3804 H   0  0  0  0  0  0  0  0  0  0  0  0
  128.2966  134.7794  166.1169 H   0  0  0  0  0  0  0  0  0  0  0  0
  127.8088  139.0400  165.2173 H   0  0  0  0  0  0  0  0  0  0  0  0
  126.2671  138.4850  163.4823 H   0  0  0  0  0  0  0  0  0  0  0  0
  129.2301  136.5328  162.9769 H   0  0  0  0  0  0  0  0  0  0  0  0
  131.2314  134.2055  161.2510 H   0  0  0  0  0  0  0  0  0  0  0  0
  133.6662  134.5127  161.0811 H   0  0  0  0  0  0  0  0  0  0  0  0
  134.5963  136.7254  160.5397 H   0  0  0  0  0  0  0  0  0  0  0  0
  133.0979  138.6382  160.1553 H   0  0  0  0  0  0  0  0  0  0  0  0
  129.6454  138.5385  159.4704 H   0  0  0  0  0  0  0  0  0  0  0  0
  132.0419  140.1550  160.6874 H   0  0  0  0  0  0  0  0  0  0  0  0
  130.6244  140.8630  159.7432 H   0  0  0  0  0  0  0  0  0  0  0  0
  129.0139  139.9532  161.4789 H   0  0  0  0  0  0  0  0  0  0  0  0
  130.4310  139.2450  162.4230 H   0  0  0  0  0  0  0  0  0  0  0  0
  1  2  1  0
  1 34  1  0
  1 35  1  0
  1 36  1  0
  2  3  1  0
  2 37  1  0
  2 38  1  0
  3 32  1  0
  3  4  2  0
  4  5  1  0
  4 39  1  0
  5  6  1  0
  5  7  1  0
  7  8  1  0
  7 32  2  0
  8  9  1  0
  8 40  1  0
  9 22  1  0
  9 10  2  0
 10 11  1  0
 10 41  1  0
 11 12  2  0
 11 42  1  0
 12 13  1  0
 12 21  1  0
 13 20  1  0
 13 14  1  0
 13 15  1  0
 14 43  1  0
 15 16  2  0
 15 44  1  0
 16 17  1  0
 16 45  1  0
 17 18  2  0
 17 19  1  0
 19 20  2  0
 19 46  1  0
 20 47  1  0
 21 22  2  0
 21 48  1  0
 22 23  1  0
 23 28  1  0
 23 24  2  0
 24 25  1  0
 24 49  1  0
 25 26  2  0
 25 50  1  0
 26 27  1  0
 26 51  1  0
 27 28  2  0
 27 52  1  0
 28 29  1  0
 29 31  1  0
 29 30  1  0
 29 53  1  0
 30 31  1  0
 30 54  1  0
 30 55  1  0
 31 56  1  0
 31 57  1  0
 32 33  1  0
M  CHG  1  32   1
M  END
>  <DOCK_score>  (1) 
-49.342274

>  <SMILES>  (1) 
CCc1c[nH]c(Nc2ccc(C3(O)C=CC(=O)C=C3)cc2-c2ccccc2C2CC2)[nH+]1

$$$$
