O=C1CC[C@H](NC(NC2COC2)=[NH+][C@H]2COc3ccc(-c4ccccc4)cc3C2)CN1
     RDKit          3D

 60 64  0  0  1  0  0  0  0  0999 V2000
  123.8054  133.6999  161.4877 O   0  0  0  0  0  0  0  0  0  0  0  0
  124.9745  133.8438  161.1988 C   0  0  0  0  0  0  0  0  0  0  0  0
  125.7669  132.6271  160.8152 C   0  0  0  0  0  0  0  0  0  0  0  0
  127.2643  132.9277  160.9164 C   0  0  0  0  0  0  0  0  0  0  0  0
  127.5444  134.2467  160.1863 C   0  0  2  0  0  0  0  0  0  0  0  0
  127.1320  134.2014  159.1784 H   0  0  0  0  0  0  0  0  0  0  0  0
  128.9903  134.4723  160.1162 N   0  0  0  0  0  0  0  0  0  0  0  0
  129.7094  133.9953  159.0459 C   0  0  0  0  0  0  0  0  0  0  0  0
  129.0715  133.3066  158.0414 N   0  0  0  0  0  0  0  0  0  0  0  0
  129.8378  132.7983  156.9008 C   0  0  0  0  0  0  0  0  0  0  0  0
  131.0417  131.9242  157.3002 C   0  0  0  0  0  0  0  0  0  0  0  0
  130.1255  130.8133  157.1862 O   0  0  0  0  0  0  0  0  0  0  0  0
  129.2520  131.5162  156.2797 C   0  0  0  0  0  0  0  0  0  0  0  0
  130.9957  134.1962  158.9834 N   0  0  0  0  0  0  0  0  0  0  0  0
  131.4328  134.2752  158.1211 H   0  0  0  0  0  0  0  0  0  0  0  0
  131.7811  134.3027  160.2154 C   0  0  1  0  0  0  0  0  0  0  0  0
  131.3193  133.7017  160.9986 H   0  0  0  0  0  0  0  0  0  0  0  0
  133.2114  133.8100  159.9609 C   0  0  0  0  0  0  0  0  0  0  0  0
  133.9208  133.8274  161.2004 O   0  0  0  0  0  0  0  0  0  0  0  0
  133.8610  134.9585  161.9508 C   0  0  0  0  0  0  0  0  0  0  0  0
  134.8111  135.1386  162.9532 C   0  0  0  0  0  0  0  0  0  0  0  0
  134.7871  136.2680  163.7407 C   0  0  0  0  0  0  0  0  0  0  0  0
  133.8059  137.2365  163.5346 C   0  0  0  0  0  0  0  0  0  0  0  0
  133.7729  138.4551  164.3799 C   0  0  0  0  0  0  0  0  0  0  0  0
  133.2870  139.6537  163.8607 C   0  0  0  0  0  0  0  0  0  0  0  0
  133.2537  140.7829  164.6534 C   0  0  0  0  0  0  0  0  0  0  0  0
  133.7111  140.7293  165.9577 C   0  0  0  0  0  0  0  0  0  0  0  0
  134.1997  139.5438  166.4765 C   0  0  0  0  0  0  0  0  0  0  0  0
  134.2329  138.4070  165.6946 C   0  0  0  0  0  0  0  0  0  0  0  0
  132.8575  137.0556  162.5317 C   0  0  0  0  0  0  0  0  0  0  0  0
  132.8873  135.9211  161.7417 C   0  0  0  0  0  0  0  0  0  0  0  0
  131.8491  135.7661  160.6592 C   0  0  0  0  0  0  0  0  0  0  0  0
  126.8840  135.3885  160.9600 C   0  0  0  0  0  0  0  0  0  0  0  0
  125.4877  135.0740  161.2392 N   0  0  0  0  0  0  0  0  0  0  0  0
  125.5228  132.3441  159.7913 H   0  0  0  0  0  0  0  0  0  0  0  0
  125.5160  131.8065  161.4874 H   0  0  0  0  0  0  0  0  0  0  0  0
  127.8325  132.1225  160.4506 H   0  0  0  0  0  0  0  0  0  0  0  0
  127.5506  133.0202  161.9642 H   0  0  0  0  0  0  0  0  0  0  0  0
  129.4401  134.9582  160.8249 H   0  0  0  0  0  0  0  0  0  0  0  0
  128.1143  133.1572  158.0877 H   0  0  0  0  0  0  0  0  0  0  0  0
  130.0781  133.5711  156.1707 H   0  0  0  0  0  0  0  0  0  0  0  0
  131.8428  131.9127  156.5613 H   0  0  0  0  0  0  0  0  0  0  0  0
  131.3978  132.1012  158.3151 H   0  0  0  0  0  0  0  0  0  0  0  0
  128.1918  131.3705  156.4868 H   0  0  0  0  0  0  0  0  0  0  0  0
  129.5037  131.3811  155.2279 H   0  0  0  0  0  0  0  0  0  0  0  0
  133.1852  132.7939  159.5672 H   0  0  0  0  0  0  0  0  0  0  0  0
  133.7050  134.4686  159.2463 H   0  0  0  0  0  0  0  0  0  0  0  0
  135.5712  134.3883  163.1135 H   0  0  0  0  0  0  0  0  0  0  0  0
  135.5263  136.4029  164.5165 H   0  0  0  0  0  0  0  0  0  0  0  0
  132.9338  139.6977  162.8410 H   0  0  0  0  0  0  0  0  0  0  0  0
  132.8736  141.7113  164.2532 H   0  0  0  0  0  0  0  0  0  0  0  0
  133.6870  141.6165  166.5731 H   0  0  0  0  0  0  0  0  0  0  0  0
  134.5563  139.5077  167.4953 H   0  0  0  0  0  0  0  0  0  0  0  0
  134.6149  137.4820  166.1005 H   0  0  0  0  0  0  0  0  0  0  0  0
  132.0961  137.8042  162.3698 H   0  0  0  0  0  0  0  0  0  0  0  0
  132.1171  136.3913  159.8075 H   0  0  0  0  0  0  0  0  0  0  0  0
  130.8765  136.0743  161.0426 H   0  0  0  0  0  0  0  0  0  0  0  0
  127.4123  135.5386  161.9015 H   0  0  0  0  0  0  0  0  0  0  0  0
  126.9391  136.3030  160.3697 H   0  0  0  0  0  0  0  0  0  0  0  0
  124.8943  135.8069  161.4663 H   0  0  0  0  0  0  0  0  0  0  0  0
  1  2  2  0
  2 34  1  0
  2  3  1  0
  3  4  1  0
  3 35  1  0
  3 36  1  0
  4  5  1  0
  4 37  1  0
  4 38  1  0
  5  6  1  6
  5  7  1  0
  5 33  1  0
  7 39  1  0
  8  7  1  0
  8  9  1  0
  8 14  2  0
  9 10  1  0
  9 40  1  0
 10 13  1  0
 10 11  1  0
 10 41  1  0
 11 12  1  0
 11 42  1  0
 11 43  1  0
 12 13  1  0
 13 44  1  0
 13 45  1  0
 14 15  1  0
 14 16  1  0
 16 17  1  1
 16 32  1  0
 16 18  1  0
 18 19  1  0
 18 46  1  0
 18 47  1  0
 19 20  1  0
 20 31  2  0
 20 21  1  0
 21 22  2  0
 21 48  1  0
 22 23  1  0
 22 49  1  0
 23 24  1  0
 23 30  2  0
 24 29  1  0
 24 25  2  0
 25 26  1  0
 25 50  1  0
 26 27  2  0
 26 51  1  0
 27 28  1  0
 27 52  1  0
 28 29  2  0
 28 53  1  0
 29 54  1  0
 30 31  1  0
 30 55  1  0
 31 32  1  0
 32 56  1  0
 32 57  1  0
 33 34  1  0
 33 58  1  0
 33 59  1  0
 34 60  1  0
M  CHG  1  14   1
M  END
>  <DOCK_score>  (1) 
-47.786789

>  <SMILES>  (1) 
O=C1CC[C@H](NC(NC2COC2)=[NH+][C@H]2COc3ccc(-c4ccccc4)cc3C2)CN1

$$$$
