C1=CCC(C/C=C/C[C@H](Nc2[nH]c3ccccc3[nH+]2)C2CCC2)=CC1
     RDKit          3D

 53 56  0  0  1  0  0  0  0  0999 V2000
  136.0980  141.4284  161.3513 C   0  0  0  0  0  0  0  0  0  0  0  0
  135.3096  140.8846  162.2263 C   0  0  0  0  0  0  0  0  0  0  0  0
  134.3040  139.8311  161.8706 C   0  0  0  0  0  0  0  0  0  0  0  0
  134.6413  139.1797  160.5632 C   0  0  0  0  0  0  0  0  0  0  0  0
  134.0394  137.8335  160.2522 C   0  0  0  0  0  0  0  0  0  0  0  0
  132.5364  137.9438  160.2494 C   0  0  0  0  0  0  0  0  0  0  0  0
  131.8255  137.2258  161.0832 C   0  0  0  0  0  0  0  0  0  0  0  0
  130.3226  137.3361  161.0804 C   0  0  0  0  0  0  0  0  0  0  0  0
  129.7116  135.9693  160.7646 C   0  0  2  0  0  0  0  0  0  0  0  0
  130.0216  135.2491  161.5216 H   0  0  0  0  0  0  0  0  0  0  0  0
  130.1709  135.5217  159.4475 N   0  0  0  0  0  0  0  0  0  0  0  0
  130.3027  134.1785  159.1853 C   0  0  0  0  0  0  0  0  0  0  0  0
  130.0467  133.2033  160.0545 N   0  0  0  0  0  0  0  0  0  0  0  0
  129.7403  133.3230  160.9670 H   0  0  0  0  0  0  0  0  0  0  0  0
  130.2865  132.0018  159.4411 C   0  0  0  0  0  0  0  0  0  0  0  0
  130.1914  130.6752  159.8514 C   0  0  0  0  0  0  0  0  0  0  0  0
  130.5203  129.6625  158.9766 C   0  0  0  0  0  0  0  0  0  0  0  0
  130.9455  129.9555  157.6892 C   0  0  0  0  0  0  0  0  0  0  0  0
  131.0453  131.2635  157.2668 C   0  0  0  0  0  0  0  0  0  0  0  0
  130.7171  132.2985  158.1376 C   0  0  0  0  0  0  0  0  0  0  0  0
  130.7104  133.6642  158.0271 N   0  0  0  0  0  0  0  0  0  0  0  0
  130.9609  134.1705  157.2386 H   0  0  0  0  0  0  0  0  0  0  0  0
  128.1857  136.0813  160.7618 C   0  0  0  0  0  0  0  0  0  0  0  0
  127.5955  136.4901  162.1217 C   0  0  0  0  0  0  0  0  0  0  0  0
  126.4723  135.4730  161.8495 C   0  0  0  0  0  0  0  0  0  0  0  0
  127.4688  134.7327  160.9420 C   0  0  0  0  0  0  0  0  0  0  0  0
  135.4297  139.7248  159.6876 C   0  0  0  0  0  0  0  0  0  0  0  0
  136.0798  141.0591  159.8985 C   0  0  0  0  0  0  0  0  0  0  0  0
  136.7975  142.1806  161.6845 H   0  0  0  0  0  0  0  0  0  0  0  0
  135.3815  141.2036  163.2556 H   0  0  0  0  0  0  0  0  0  0  0  0
  133.3175  140.2890  161.7977 H   0  0  0  0  0  0  0  0  0  0  0  0
  134.2881  139.0734  162.6539 H   0  0  0  0  0  0  0  0  0  0  0  0
  134.3812  137.5004  159.2723 H   0  0  0  0  0  0  0  0  0  0  0  0
  134.3495  137.1133  161.0093 H   0  0  0  0  0  0  0  0  0  0  0  0
  132.0455  138.6148  159.5601 H   0  0  0  0  0  0  0  0  0  0  0  0
  132.3164  136.5550  161.7725 H   0  0  0  0  0  0  0  0  0  0  0  0
  129.9809  137.6691  162.0604 H   0  0  0  0  0  0  0  0  0  0  0  0
  130.0124  138.0564  160.3233 H   0  0  0  0  0  0  0  0  0  0  0  0
  130.3819  136.1729  158.7603 H   0  0  0  0  0  0  0  0  0  0  0  0
  129.8606  130.4402  160.8523 H   0  0  0  0  0  0  0  0  0  0  0  0
  130.4459  128.6333  159.2955 H   0  0  0  0  0  0  0  0  0  0  0  0
  131.2001  129.1528  157.0129 H   0  0  0  0  0  0  0  0  0  0  0  0
  131.3768  131.4847  156.2631 H   0  0  0  0  0  0  0  0  0  0  0  0
  127.8059  136.6694  159.9264 H   0  0  0  0  0  0  0  0  0  0  0  0
  128.2278  136.2259  162.9693 H   0  0  0  0  0  0  0  0  0  0  0  0
  127.2511  137.5238  162.1552 H   0  0  0  0  0  0  0  0  0  0  0  0
  125.6232  135.8955  161.3124 H   0  0  0  0  0  0  0  0  0  0  0  0
  126.1750  134.9017  162.7289 H   0  0  0  0  0  0  0  0  0  0  0  0
  127.0222  134.3496  160.0244 H   0  0  0  0  0  0  0  0  0  0  0  0
  128.0664  133.9871  161.4664 H   0  0  0  0  0  0  0  0  0  0  0  0
  135.6259  139.1941  158.7678 H   0  0  0  0  0  0  0  0  0  0  0  0
  137.1038  141.0202  159.5269 H   0  0  0  0  0  0  0  0  0  0  0  0
  135.5272  141.8175  159.3440 H   0  0  0  0  0  0  0  0  0  0  0  0
  1 28  1  0
  1  2  2  0
  1 29  1  0
  2  3  1  0
  2 30  1  0
  3  4  1  0
  3 31  1  0
  3 32  1  0
  4  5  1  0
  4 27  2  0
  5  6  1  0
  5 33  1  0
  5 34  1  0
  6  7  2  0
  6 35  1  0
  7  8  1  0
  7 36  1  0
  8  9  1  0
  8 37  1  0
  8 38  1  0
  9 10  1  1
  9 11  1  0
  9 23  1  0
 11 12  1  0
 11 39  1  0
 12 21  1  0
 12 13  2  0
 13 14  1  0
 13 15  1  0
 15 20  2  0
 15 16  1  0
 16 17  2  0
 16 40  1  0
 17 18  1  0
 17 41  1  0
 18 19  2  0
 18 42  1  0
 19 20  1  0
 19 43  1  0
 20 21  1  0
 21 22  1  0
 23 26  1  0
 23 24  1  0
 23 44  1  0
 24 25  1  0
 24 45  1  0
 24 46  1  0
 25 26  1  0
 25 47  1  0
 25 48  1  0
 26 49  1  0
 26 50  1  0
 27 28  1  0
 27 51  1  0
 28 52  1  0
 28 53  1  0
M  CHG  1  13   1
M  END
>  <DOCK_score>  (1) 
-56.651062

>  <SMILES>  (1) 
C1=CCC(C/C=C/C[C@H](Nc2[nH]c3ccccc3[nH+]2)C2CCC2)=CC1

$$$$
