OCCN1CC[NH+]=C1NCc1ccc(Nc2cccc(OC3CC3)c2)cc1
     RDKit          3D

 54 57  0  0  1  0  0  0  0  0999 V2000
  131.6455  131.7807  158.9218 O   0  0  0  0  0  0  0  0  0  0  0  0
  131.5309  130.4369  158.4487 C   0  0  0  0  0  0  0  0  0  0  0  0
  130.2857  130.3105  157.5688 C   0  0  0  0  0  0  0  0  0  0  0  0
  130.3996  131.2222  156.4276 N   0  0  0  0  0  0  0  0  0  0  0  0
  131.0012  130.8987  155.1232 C   0  0  0  0  0  0  0  0  0  0  0  0
  130.8473  132.2102  154.3276 C   0  0  0  0  0  0  0  0  0  0  0  0
  130.1797  133.1206  155.2683 N   0  0  0  0  0  0  0  0  0  0  0  0
  129.9352  134.0389  155.0741 H   0  0  0  0  0  0  0  0  0  0  0  0
  129.9651  132.5187  156.3925 C   0  0  0  0  0  0  0  0  0  0  0  0
  129.3480  133.1280  157.4592 N   0  0  0  0  0  0  0  0  0  0  0  0
  128.9075  134.5212  157.3526 C   0  0  0  0  0  0  0  0  0  0  0  0
  128.2666  134.9458  158.6487 C   0  0  0  0  0  0  0  0  0  0  0  0
  127.0797  135.6553  158.6314 C   0  0  0  0  0  0  0  0  0  0  0  0
  126.4868  136.0413  159.8173 C   0  0  0  0  0  0  0  0  0  0  0  0
  127.0898  135.7258  161.0285 C   0  0  0  0  0  0  0  0  0  0  0  0
  126.4957  136.1192  162.2302 N   0  0  0  0  0  0  0  0  0  0  0  0
  127.2902  136.3905  163.3467 C   0  0  0  0  0  0  0  0  0  0  0  0
  127.1270  135.6524  164.5129 C   0  0  0  0  0  0  0  0  0  0  0  0
  127.9134  135.9202  165.6162 C   0  0  0  0  0  0  0  0  0  0  0  0
  128.8638  136.9223  165.5642 C   0  0  0  0  0  0  0  0  0  0  0  0
  129.0313  137.6628  164.4024 C   0  0  0  0  0  0  0  0  0  0  0  0
  129.9665  138.6474  164.3528 O   0  0  0  0  0  0  0  0  0  0  0  0
  129.5013  139.9713  164.0832 C   0  0  0  0  0  0  0  0  0  0  0  0
  129.8806  140.5932  162.7378 C   0  0  0  0  0  0  0  0  0  0  0  0
  130.5448  141.0887  164.0249 C   0  0  0  0  0  0  0  0  0  0  0  0
  128.2478  137.3939  163.2910 C   0  0  0  0  0  0  0  0  0  0  0  0
  128.2852  135.0179  161.0421 C   0  0  0  0  0  0  0  0  0  0  0  0
  128.8696  134.6302  159.8525 C   0  0  0  0  0  0  0  0  0  0  0  0
  131.7248  132.4397  158.2186 H   0  0  0  0  0  0  0  0  0  0  0  0
  131.4463  129.7588  159.2978 H   0  0  0  0  0  0  0  0  0  0  0  0
  132.4155  130.1804  157.8656 H   0  0  0  0  0  0  0  0  0  0  0  0
  129.4012  130.5670  158.1519 H   0  0  0  0  0  0  0  0  0  0  0  0
  130.1983  129.2857  157.2079 H   0  0  0  0  0  0  0  0  0  0  0  0
  132.0538  130.6403  155.2388 H   0  0  0  0  0  0  0  0  0  0  0  0
  130.4580  130.0867  154.6398 H   0  0  0  0  0  0  0  0  0  0  0  0
  131.8242  132.6023  154.0446 H   0  0  0  0  0  0  0  0  0  0  0  0
  130.2299  132.0506  153.4436 H   0  0  0  0  0  0  0  0  0  0  0  0
  129.2043  132.6355  158.2825 H   0  0  0  0  0  0  0  0  0  0  0  0
  129.7668  135.1591  157.1460 H   0  0  0  0  0  0  0  0  0  0  0  0
  128.1839  134.6124  156.5424 H   0  0  0  0  0  0  0  0  0  0  0  0
  126.6138  135.9044  157.6894 H   0  0  0  0  0  0  0  0  0  0  0  0
  125.5576  136.5915  159.8033 H   0  0  0  0  0  0  0  0  0  0  0  0
  125.5310  136.2042  162.2891 H   0  0  0  0  0  0  0  0  0  0  0  0
  126.3850  134.8687  164.5563 H   0  0  0  0  0  0  0  0  0  0  0  0
  127.7855  135.3451  166.5215 H   0  0  0  0  0  0  0  0  0  0  0  0
  129.4771  137.1292  166.4287 H   0  0  0  0  0  0  0  0  0  0  0  0
  128.5221  140.2181  164.4935 H   0  0  0  0  0  0  0  0  0  0  0  0
  130.4851  139.9925  162.0583 H   0  0  0  0  0  0  0  0  0  0  0  0
  129.1511  141.2495  162.2632 H   0  0  0  0  0  0  0  0  0  0  0  0
  130.2519  142.0707  164.3964 H   0  0  0  0  0  0  0  0  0  0  0  0
  131.5862  140.8140  164.1921 H   0  0  0  0  0  0  0  0  0  0  0  0
  128.3799  137.9661  162.3847 H   0  0  0  0  0  0  0  0  0  0  0  0
  128.7565  134.7708  161.9818 H   0  0  0  0  0  0  0  0  0  0  0  0
  129.7991  134.0802  159.8623 H   0  0  0  0  0  0  0  0  0  0  0  0
  1  2  1  0
  1 29  1  0
  2  3  1  0
  2 30  1  0
  2 31  1  0
  3  4  1  0
  3 32  1  0
  3 33  1  0
  4  9  1  0
  4  5  1  0
  5  6  1  0
  5 34  1  0
  5 35  1  0
  6  7  1  0
  6 36  1  0
  6 37  1  0
  7  8  1  0
  7  9  2  0
  9 10  1  0
 10 11  1  0
 10 38  1  0
 11 12  1  0
 11 39  1  0
 11 40  1  0
 12 28  1  0
 12 13  2  0
 13 14  1  0
 13 41  1  0
 14 15  2  0
 14 42  1  0
 15 16  1  0
 15 27  1  0
 16 17  1  0
 16 43  1  0
 17 26  1  0
 17 18  2  0
 18 19  1  0
 18 44  1  0
 19 20  2  0
 19 45  1  0
 20 21  1  0
 20 46  1  0
 21 22  1  0
 21 26  2  0
 22 23  1  0
 23 25  1  0
 23 24  1  0
 23 47  1  0
 24 25  1  0
 24 48  1  0
 24 49  1  0
 25 50  1  0
 25 51  1  0
 26 52  1  0
 27 28  2  0
 27 53  1  0
 28 54  1  0
M  CHG  1   7   1
M  END
>  <DOCK_score>  (1) 
-42.377785

>  <SMILES>  (1) 
OCCN1CC[NH+]=C1NCc1ccc(Nc2cccc(OC3CC3)c2)cc1

$$$$
