CCc1ccc(-c2c[nH]c(N[C@@H](Cc3cccc(C)c3C)C(F)Br)[nH+]2)cc1
     RDKit          3D

 53 55  0  0  1  0  0  0  0  0999 V2000
  130.0173  128.4998  150.5451 C   0  0  0  0  0  0  0  0  0  0  0  0
  131.0585  129.6090  150.7055 C   0  0  0  0  0  0  0  0  0  0  0  0
  130.9419  130.2126  152.0814 C   0  0  0  0  0  0  0  0  0  0  0  0
  131.6779  129.6883  153.1281 C   0  0  0  0  0  0  0  0  0  0  0  0
  131.5795  130.2404  154.3891 C   0  0  0  0  0  0  0  0  0  0  0  0
  130.7278  131.3215  154.6091 C   0  0  0  0  0  0  0  0  0  0  0  0
  130.6137  131.9157  155.9633 C   0  0  0  0  0  0  0  0  0  0  0  0
  130.2128  131.2705  157.0868 C   0  0  0  0  0  0  0  0  0  0  0  0
  130.2528  132.1875  158.1088 N   0  0  0  0  0  0  0  0  0  0  0  0
  130.0208  132.0242  159.0365 H   0  0  0  0  0  0  0  0  0  0  0  0
  130.6774  133.3672  157.5797 C   0  0  0  0  0  0  0  0  0  0  0  0
  130.8535  134.5482  158.2802 N   0  0  0  0  0  0  0  0  0  0  0  0
  130.0238  134.8349  159.4531 C   0  0  1  0  0  0  0  0  0  0  0  0
  130.1748  134.0586  160.2034 H   0  0  0  0  0  0  0  0  0  0  0  0
  130.4184  136.1927  160.0374 C   0  0  0  0  0  0  0  0  0  0  0  0
  129.9520  136.2788  161.4678 C   0  0  0  0  0  0  0  0  0  0  0  0
  128.6939  136.7740  161.7560 C   0  0  0  0  0  0  0  0  0  0  0  0
  128.2659  136.8525  163.0679 C   0  0  0  0  0  0  0  0  0  0  0  0
  129.0960  136.4360  164.0920 C   0  0  0  0  0  0  0  0  0  0  0  0
  130.3539  135.9409  163.8039 C   0  0  0  0  0  0  0  0  0  0  0  0
  131.2586  135.4862  164.9201 C   0  0  0  0  0  0  0  0  0  0  0  0
  130.7799  135.8574  162.4913 C   0  0  0  0  0  0  0  0  0  0  0  0
  132.1490  135.3117  162.1767 C   0  0  0  0  0  0  0  0  0  0  0  0
  128.5508  134.8658  159.0407 C   0  0  2  0  0  0  0  0  0  0  0  0
  128.0665  133.5569  158.9423 F   0  0  0  0  0  0  0  0  0  0  0  0
  128.3766  135.7616  157.2993 Br  0  0  0  0  0  0  0  0  0  0  0  0
  130.8976  133.1993  156.2986 N   0  0  0  0  0  0  0  0  0  0  0  0
  131.2111  133.8841  155.6873 H   0  0  0  0  0  0  0  0  0  0  0  0
  129.9842  131.8426  153.5515 C   0  0  0  0  0  0  0  0  0  0  0  0
  130.0948  131.2860  152.2936 C   0  0  0  0  0  0  0  0  0  0  0  0
  130.1016  128.0633  149.5499 H   0  0  0  0  0  0  0  0  0  0  0  0
  130.1900  127.7287  151.2957 H   0  0  0  0  0  0  0  0  0  0  0  0
  129.0187  128.9167  150.6756 H   0  0  0  0  0  0  0  0  0  0  0  0
  132.0569  129.1928  150.5746 H   0  0  0  0  0  0  0  0  0  0  0  0
  130.8854  130.3809  149.9544 H   0  0  0  0  0  0  0  0  0  0  0  0
  132.3340  128.8474  152.9576 H   0  0  0  0  0  0  0  0  0  0  0  0
  132.1584  129.8329  155.2048 H   0  0  0  0  0  0  0  0  0  0  0  0
  129.9182  130.2343  157.1631 H   0  0  0  0  0  0  0  0  0  0  0  0
  131.5262  135.1859  157.9944 H   0  0  0  0  0  0  0  0  0  0  0  0
  131.5022  136.3026  160.0014 H   0  0  0  0  0  0  0  0  0  0  0  0
  129.9531  136.9880  159.4550 H   0  0  0  0  0  0  0  0  0  0  0  0
  128.0452  137.0992  160.9561 H   0  0  0  0  0  0  0  0  0  0  0  0
  127.2829  137.2392  163.2930 H   0  0  0  0  0  0  0  0  0  0  0  0
  128.7615  136.4969  165.1170 H   0  0  0  0  0  0  0  0  0  0  0  0
  131.0872  134.4282  165.1186 H   0  0  0  0  0  0  0  0  0  0  0  0
  132.2982  135.6376  164.6297 H   0  0  0  0  0  0  0  0  0  0  0  0
  131.0446  136.0638  165.8193 H   0  0  0  0  0  0  0  0  0  0  0  0
  132.8578  136.1355  162.0917 H   0  0  0  0  0  0  0  0  0  0  0  0
  132.4653  134.6412  162.9757 H   0  0  0  0  0  0  0  0  0  0  0  0
  132.1143  134.7638  161.2351 H   0  0  0  0  0  0  0  0  0  0  0  0
  127.9753  135.4109  159.7889 H   0  0  0  0  0  0  0  0  0  0  0  0
  129.3225  132.6800  153.7165 H   0  0  0  0  0  0  0  0  0  0  0  0
  129.5188  131.6886  151.4736 H   0  0  0  0  0  0  0  0  0  0  0  0
  1  2  1  0
  1 31  1  0
  1 32  1  0
  1 33  1  0
  2  3  1  0
  2 34  1  0
  2 35  1  0
  3 30  2  0
  3  4  1  0
  4  5  2  0
  4 36  1  0
  5  6  1  0
  5 37  1  0
  6  7  1  0
  6 29  2  0
  7 27  1  0
  7  8  2  0
  8  9  1  0
  8 38  1  0
  9 10  1  0
  9 11  1  0
 11 12  1  0
 11 27  2  0
 12 13  1  0
 12 39  1  0
 13 14  1  1
 13 15  1  0
 13 24  1  0
 15 16  1  0
 15 40  1  0
 15 41  1  0
 16 22  1  0
 16 17  2  0
 17 18  1  0
 17 42  1  0
 18 19  2  0
 18 43  1  0
 19 20  1  0
 19 44  1  0
 20 21  1  0
 20 22  2  0
 21 45  1  0
 21 46  1  0
 21 47  1  0
 22 23  1  0
 23 48  1  0
 23 49  1  0
 23 50  1  0
 24 25  1  0
 24 26  1  0
 24 51  1  1
 27 28  1  0
 29 30  1  0
 29 52  1  0
 30 53  1  0
M  CHG  1  27   1
M  END
>  <DOCK_score>  (1) 
-57.23074

>  <SMILES>  (1) 
CCc1ccc(-c2c[nH]c(N[C@@H](Cc3cccc(C)c3C)C(F)Br)[nH+]2)cc1

$$$$
