Nc1ccc(-c2c[nH]c(N[C@H](CC3CCC3)C3CCCC(n4cccn4)C3=O)[nH+]2)cc1
     RDKit          3D

 62 66  0  0  1  0  0  0  0  0999 V2000
  130.9890  129.6859  152.1974 N   0  0  0  0  0  0  0  0  0  0  0  0
  130.8243  130.3641  153.4075 C   0  0  0  0  0  0  0  0  0  0  0  0
  130.1187  131.5614  153.4418 C   0  0  0  0  0  0  0  0  0  0  0  0
  129.9554  132.2326  154.6350 C   0  0  0  0  0  0  0  0  0  0  0  0
  130.4981  131.7095  155.8078 C   0  0  0  0  0  0  0  0  0  0  0  0
  130.3237  132.4298  157.0929 C   0  0  0  0  0  0  0  0  0  0  0  0
  129.7094  131.9473  158.2011 C   0  0  0  0  0  0  0  0  0  0  0  0
  129.7767  132.9342  159.1558 N   0  0  0  0  0  0  0  0  0  0  0  0
  129.4264  132.8849  160.0591 H   0  0  0  0  0  0  0  0  0  0  0  0
  130.4227  133.9943  158.5986 C   0  0  0  0  0  0  0  0  0  0  0  0
  130.6936  135.1962  159.2301 N   0  0  0  0  0  0  0  0  0  0  0  0
  130.2740  135.4053  160.6180 C   0  0  2  0  0  0  0  0  0  0  0  0
  130.4394  134.4919  161.1893 H   0  0  0  0  0  0  0  0  0  0  0  0
  128.7875  135.7663  160.6525 C   0  0  0  0  0  0  0  0  0  0  0  0
  128.3492  135.9846  162.1020 C   0  0  0  0  0  0  0  0  0  0  0  0
  128.4875  134.7318  162.9829 C   0  0  0  0  0  0  0  0  0  0  0  0
  127.1474  135.1302  163.6234 C   0  0  0  0  0  0  0  0  0  0  0  0
  126.8285  135.8703  162.3136 C   0  0  0  0  0  0  0  0  0  0  0  0
  131.0897  136.5452  161.2313 C   0  0  2  0  0  0  0  0  0  0  0  0
  130.8783  137.8257  160.4168 C   0  0  0  0  0  0  0  0  0  0  0  0
  131.8019  138.9236  160.9469 C   0  0  0  0  0  0  0  0  0  0  0  0
  133.2621  138.5174  160.7403 C   0  0  0  0  0  0  0  0  0  0  0  0
  133.5633  137.2629  161.5671 C   0  0  1  0  0  0  0  0  0  0  0  0
  133.4520  137.5714  162.9948 N   0  0  0  0  0  0  0  0  0  0  0  0
  133.0864  136.7100  163.9670 C   0  0  0  0  0  0  0  0  0  0  0  0
  133.1111  137.3799  165.1425 C   0  0  0  0  0  0  0  0  0  0  0  0
  133.4958  138.6985  164.8783 C   0  0  0  0  0  0  0  0  0  0  0  0
  133.7005  138.8144  163.5912 N   0  0  0  0  0  0  0  0  0  0  0  0
  132.5604  136.1920  161.1989 C   0  0  0  0  0  0  0  0  0  0  0  0
  132.9244  135.0837  160.8868 O   0  0  0  0  0  0  0  0  0  0  0  0
  130.7511  133.6879  157.3672 N   0  0  0  0  0  0  0  0  0  0  0  0
  131.2241  134.2680  156.7504 H   0  0  0  0  0  0  0  0  0  0  0  0
  131.2097  130.5115  155.7700 C   0  0  0  0  0  0  0  0  0  0  0  0
  131.3658  129.8407  154.5753 C   0  0  0  0  0  0  0  0  0  0  0  0
  130.6109  130.0509  151.3817 H   0  0  0  0  0  0  0  0  0  0  0  0
  131.4809  128.8509  152.1723 H   0  0  0  0  0  0  0  0  0  0  0  0
  129.6985  131.9662  152.5329 H   0  0  0  0  0  0  0  0  0  0  0  0
  129.4072  133.1627  154.6613 H   0  0  0  0  0  0  0  0  0  0  0  0
  129.2577  130.9728  158.3137 H   0  0  0  0  0  0  0  0  0  0  0  0
  131.1614  135.8998  158.7535 H   0  0  0  0  0  0  0  0  0  0  0  0
  128.2062  134.9542  160.2156 H   0  0  0  0  0  0  0  0  0  0  0  0
  128.6221  136.6796  160.0813 H   0  0  0  0  0  0  0  0  0  0  0  0
  128.7843  136.8803  162.5454 H   0  0  0  0  0  0  0  0  0  0  0  0
  129.3306  134.7737  163.6723 H   0  0  0  0  0  0  0  0  0  0  0  0
  128.4435  133.7967  162.4244 H   0  0  0  0  0  0  0  0  0  0  0  0
  126.4882  134.2845  163.8187 H   0  0  0  0  0  0  0  0  0  0  0  0
  127.2541  135.7911  164.4836 H   0  0  0  0  0  0  0  0  0  0  0  0
  126.3298  135.2481  161.5707 H   0  0  0  0  0  0  0  0  0  0  0  0
  126.3343  136.8303  162.4638 H   0  0  0  0  0  0  0  0  0  0  0  0
  130.7748  136.7074  162.2621 H   0  0  0  0  0  0  0  0  0  0  0  0
  131.1077  137.6321  159.3689 H   0  0  0  0  0  0  0  0  0  0  0  0
  129.8410  138.1476  160.5084 H   0  0  0  0  0  0  0  0  0  0  0  0
  131.6144  139.0728  162.0101 H   0  0  0  0  0  0  0  0  0  0  0  0
  131.6048  139.8519  160.4106 H   0  0  0  0  0  0  0  0  0  0  0  0
  133.9143  139.3296  161.0612 H   0  0  0  0  0  0  0  0  0  0  0  0
  133.4354  138.3075  159.6848 H   0  0  0  0  0  0  0  0  0  0  0  0
  134.5713  136.9120  161.3458 H   0  0  0  0  0  0  0  0  0  0  0  0
  132.8239  135.6711  163.8318 H   0  0  0  0  0  0  0  0  0  0  0  0
  132.8715  136.9703  166.1125 H   0  0  0  0  0  0  0  0  0  0  0  0
  133.6054  139.4849  165.6103 H   0  0  0  0  0  0  0  0  0  0  0  0
  131.6352  130.1069  156.6766 H   0  0  0  0  0  0  0  0  0  0  0  0
  131.9133  128.9102  154.5464 H   0  0  0  0  0  0  0  0  0  0  0  0
  1  2  1  0
  1 35  1  0
  1 36  1  0
  2 34  2  0
  2  3  1  0
  3  4  2  0
  3 37  1  0
  4  5  1  0
  4 38  1  0
  5  6  1  0
  5 33  2  0
  6 31  1  0
  6  7  2  0
  7  8  1  0
  7 39  1  0
  8  9  1  0
  8 10  1  0
 10 11  1  0
 10 31  2  0
 11 12  1  0
 11 40  1  0
 12 13  1  1
 12 14  1  0
 12 19  1  0
 14 15  1  0
 14 41  1  0
 14 42  1  0
 15 18  1  0
 15 16  1  0
 15 43  1  0
 16 17  1  0
 16 44  1  0
 16 45  1  0
 17 18  1  0
 17 46  1  0
 17 47  1  0
 18 48  1  0
 18 49  1  0
 19 29  1  0
 19 20  1  0
 19 50  1  1
 20 21  1  0
 20 51  1  0
 20 52  1  0
 21 22  1  0
 21 53  1  0
 21 54  1  0
 22 23  1  0
 22 55  1  0
 22 56  1  0
 23 24  1  0
 23 29  1  0
 23 57  1  1
 24 28  1  0
 24 25  1  0
 25 26  2  0
 25 58  1  0
 26 27  1  0
 26 59  1  0
 27 28  2  0
 27 60  1  0
 29 30  2  0
 31 32  1  0
 33 34  1  0
 33 61  1  0
 34 62  1  0
M  CHG  1  31   1
M  END
>  <DOCK_score>  (1) 
-55.917961

>  <SMILES>  (1) 
Nc1ccc(-c2c[nH]c(N[C@H](CC3CCC3)C3CCCC(n4cccn4)C3=O)[nH+]2)cc1

$$$$
