Cc1c(Nc2[nH]cc(-c3ccc(N)cc3)[nH+]2)ccc(N)c1N
     RDKit          3D

 41 43  0  0  1  0  0  0  0  0999 V2000
  127.4145  135.1902  158.0153 C   0  0  0  0  0  0  0  0  0  0  0  0
  127.9051  135.5912  159.3825 C   0  0  0  0  0  0  0  0  0  0  0  0
  129.2644  135.5702  159.6671 C   0  0  0  0  0  0  0  0  0  0  0  0
  130.1793  135.1755  158.6831 N   0  0  0  0  0  0  0  0  0  0  0  0
  130.0982  133.9081  158.1306 C   0  0  0  0  0  0  0  0  0  0  0  0
  129.6362  132.7952  158.7637 N   0  0  0  0  0  0  0  0  0  0  0  0
  129.3072  132.7474  159.6749 H   0  0  0  0  0  0  0  0  0  0  0  0
  129.7226  131.7518  157.8732 C   0  0  0  0  0  0  0  0  0  0  0  0
  130.2287  132.2583  156.7215 C   0  0  0  0  0  0  0  0  0  0  0  0
  130.4922  131.4981  155.4751 C   0  0  0  0  0  0  0  0  0  0  0  0
  129.8444  131.8508  154.2922 C   0  0  0  0  0  0  0  0  0  0  0  0
  130.0955  131.1467  153.1335 C   0  0  0  0  0  0  0  0  0  0  0  0
  130.9844  130.0784  153.1471 C   0  0  0  0  0  0  0  0  0  0  0  0
  131.2325  129.3625  151.9734 N   0  0  0  0  0  0  0  0  0  0  0  0
  131.6271  129.7213  154.3266 C   0  0  0  0  0  0  0  0  0  0  0  0
  131.3837  130.4265  155.4862 C   0  0  0  0  0  0  0  0  0  0  0  0
  130.4545  133.5821  156.9117 N   0  0  0  0  0  0  0  0  0  0  0  0
  130.8177  134.1912  156.2501 H   0  0  0  0  0  0  0  0  0  0  0  0
  129.7162  135.9349  160.9280 C   0  0  0  0  0  0  0  0  0  0  0  0
  128.8157  136.3298  161.9003 C   0  0  0  0  0  0  0  0  0  0  0  0
  127.4584  136.3523  161.6217 C   0  0  0  0  0  0  0  0  0  0  0  0
  126.5452  136.7485  162.6104 N   0  0  0  0  0  0  0  0  0  0  0  0
  127.0007  135.9815  160.3572 C   0  0  0  0  0  0  0  0  0  0  0  0
  125.6300  136.0040  160.0732 N   0  0  0  0  0  0  0  0  0  0  0  0
  127.2153  134.1188  158.0005 H   0  0  0  0  0  0  0  0  0  0  0  0
  126.4981  135.7334  157.7844 H   0  0  0  0  0  0  0  0  0  0  0  0
  128.1752  135.4286  157.2719 H   0  0  0  0  0  0  0  0  0  0  0  0
  130.8699  135.7897  158.3884 H   0  0  0  0  0  0  0  0  0  0  0  0
  129.4370  130.7261  158.0543 H   0  0  0  0  0  0  0  0  0  0  0  0
  129.1497  132.6777  154.2823 H   0  0  0  0  0  0  0  0  0  0  0  0
  129.5975  131.4225  152.2157 H   0  0  0  0  0  0  0  0  0  0  0  0
  131.8529  128.6170  151.9821 H   0  0  0  0  0  0  0  0  0  0  0  0
  130.7844  129.6111  151.1499 H   0  0  0  0  0  0  0  0  0  0  0  0
  132.3174  128.8908  154.3349 H   0  0  0  0  0  0  0  0  0  0  0  0
  131.8836  130.1490  156.4025 H   0  0  0  0  0  0  0  0  0  0  0  0
  130.7732  135.9141  161.1488 H   0  0  0  0  0  0  0  0  0  0  0  0
  129.1703  136.6165  162.8793 H   0  0  0  0  0  0  0  0  0  0  0  0
  125.5954  136.7645  162.4149 H   0  0  0  0  0  0  0  0  0  0  0  0
  126.8638  137.0064  163.4895 H   0  0  0  0  0  0  0  0  0  0  0  0
  125.3126  135.7461  159.1936 H   0  0  0  0  0  0  0  0  0  0  0  0
  124.9976  136.2773  160.7560 H   0  0  0  0  0  0  0  0  0  0  0  0
  1  2  1  0
  1 25  1  0
  1 26  1  0
  1 27  1  0
  2 23  2  0
  2  3  1  0
  3  4  1  0
  3 19  2  0
  4 28  1  0
  5  4  1  0
  5 17  2  0
  5  6  1  0
  6  7  1  0
  6  8  1  0
  8  9  2  0
  8 29  1  0
  9 10  1  0
  9 17  1  0
 10 16  1  0
 10 11  2  0
 11 12  1  0
 11 30  1  0
 12 13  2  0
 12 31  1  0
 13 14  1  0
 13 15  1  0
 14 32  1  0
 14 33  1  0
 15 16  2  0
 15 34  1  0
 16 35  1  0
 17 18  1  0
 19 20  1  0
 19 36  1  0
 20 21  2  0
 20 37  1  0
 21 22  1  0
 21 23  1  0
 22 38  1  0
 22 39  1  0
 23 24  1  0
 24 40  1  0
 24 41  1  0
M  CHG  1  17   1
M  END
>  <DOCK_score>  (1) 
-55.392281

>  <SMILES>  (1) 
Cc1c(Nc2[nH]cc(-c3ccc(N)cc3)[nH+]2)ccc(N)c1N

$$$$
