Nc1ccc(-c2c[nH]c(Nc3cc(N)ccc3C3=CCCCC3)[nH+]2)cc1
     RDKit          3D

 50 53  0  0  1  0  0  0  0  0999 V2000
  131.0300  129.7331  151.8757 N   0  0  0  0  0  0  0  0  0  0  0  0
  130.8167  130.4506  153.0553 C   0  0  0  0  0  0  0  0  0  0  0  0
  130.5490  131.8134  152.9998 C   0  0  0  0  0  0  0  0  0  0  0  0
  130.3381  132.5235  154.1628 C   0  0  0  0  0  0  0  0  0  0  0  0
  130.3936  131.8737  155.3948 C   0  0  0  0  0  0  0  0  0  0  0  0
  130.1669  132.6355  156.6474 C   0  0  0  0  0  0  0  0  0  0  0  0
  129.6380  132.1442  157.7956 C   0  0  0  0  0  0  0  0  0  0  0  0
  129.6020  133.1832  158.6944 N   0  0  0  0  0  0  0  0  0  0  0  0
  129.2721  133.1435  159.6057 H   0  0  0  0  0  0  0  0  0  0  0  0
  130.1152  134.2780  158.0697 C   0  0  0  0  0  0  0  0  0  0  0  0
  130.2565  135.5360  158.6323 N   0  0  0  0  0  0  0  0  0  0  0  0
  129.3661  135.9635  159.6174 C   0  0  0  0  0  0  0  0  0  0  0  0
  128.0582  135.5052  159.6187 C   0  0  0  0  0  0  0  0  0  0  0  0
  127.1755  135.9286  160.6031 C   0  0  0  0  0  0  0  0  0  0  0  0
  125.8605  135.4619  160.6053 N   0  0  0  0  0  0  0  0  0  0  0  0
  127.5965  136.8208  161.5848 C   0  0  0  0  0  0  0  0  0  0  0  0
  128.8930  137.2865  161.5887 C   0  0  0  0  0  0  0  0  0  0  0  0
  129.7899  136.8630  160.6067 C   0  0  0  0  0  0  0  0  0  0  0  0
  131.1797  137.3605  160.6089 C   0  0  0  0  0  0  0  0  0  0  0  0
  131.4436  138.4599  159.9424 C   0  0  0  0  0  0  0  0  0  0  0  0
  132.8102  139.0735  159.8500 C   0  0  0  0  0  0  0  0  0  0  0  0
  133.7155  138.5110  160.9477 C   0  0  0  0  0  0  0  0  0  0  0  0
  133.6151  136.9808  160.9248 C   0  0  0  0  0  0  0  0  0  0  0  0
  132.2073  136.5829  161.3783 C   0  0  0  0  0  0  0  0  0  0  0  0
  130.4543  133.9455  156.8477 N   0  0  0  0  0  0  0  0  0  0  0  0
  130.8447  134.5425  156.1904 H   0  0  0  0  0  0  0  0  0  0  0  0
  130.6679  130.5079  155.4483 C   0  0  0  0  0  0  0  0  0  0  0  0
  130.8720  129.8006  154.2825 C   0  0  0  0  0  0  0  0  0  0  0  0
  130.9913  130.1861  151.0188 H   0  0  0  0  0  0  0  0  0  0  0  0
  131.2170  128.7821  151.9137 H   0  0  0  0  0  0  0  0  0  0  0  0
  130.5066  132.3164  152.0451 H   0  0  0  0  0  0  0  0  0  0  0  0
  130.1298  133.5824  154.1191 H   0  0  0  0  0  0  0  0  0  0  0  0
  129.3048  131.1317  157.9689 H   0  0  0  0  0  0  0  0  0  0  0  0
  130.9745  136.1198  158.3412 H   0  0  0  0  0  0  0  0  0  0  0  0
  127.7267  134.8161  158.8561 H   0  0  0  0  0  0  0  0  0  0  0  0
  125.2416  135.7592  161.2905 H   0  0  0  0  0  0  0  0  0  0  0  0
  125.5655  134.8400  159.9220 H   0  0  0  0  0  0  0  0  0  0  0  0
  126.9042  137.1494  162.3458 H   0  0  0  0  0  0  0  0  0  0  0  0
  129.2158  137.9791  162.3520 H   0  0  0  0  0  0  0  0  0  0  0  0
  130.6298  138.9515  159.4301 H   0  0  0  0  0  0  0  0  0  0  0  0
  133.2422  138.8485  158.8748 H   0  0  0  0  0  0  0  0  0  0  0  0
  132.7296  140.1542  159.9666 H   0  0  0  0  0  0  0  0  0  0  0  0
  134.7463  138.8132  160.7629 H   0  0  0  0  0  0  0  0  0  0  0  0
  133.3897  138.8848  161.9184 H   0  0  0  0  0  0  0  0  0  0  0  0
  133.7940  136.6172  159.9130 H   0  0  0  0  0  0  0  0  0  0  0  0
  134.3546  136.5550  161.6030 H   0  0  0  0  0  0  0  0  0  0  0  0
  132.0948  136.7896  162.4426 H   0  0  0  0  0  0  0  0  0  0  0  0
  132.0607  135.5172  161.2020 H   0  0  0  0  0  0  0  0  0  0  0  0
  130.7161  130.0035  156.4020 H   0  0  0  0  0  0  0  0  0  0  0  0
  131.0798  128.7415  154.3232 H   0  0  0  0  0  0  0  0  0  0  0  0
  1  2  1  0
  1 29  1  0
  1 30  1  0
  2 28  2  0
  2  3  1  0
  3  4  2  0
  3 31  1  0
  4  5  1  0
  4 32  1  0
  5  6  1  0
  5 27  2  0
  6 25  1  0
  6  7  2  0
  7  8  1  0
  7 33  1  0
  8  9  1  0
  8 10  1  0
 10 11  1  0
 10 25  2  0
 11 12  1  0
 11 34  1  0
 12 18  1  0
 12 13  2  0
 13 14  1  0
 13 35  1  0
 14 15  1  0
 14 16  2  0
 15 36  1  0
 15 37  1  0
 16 17  1  0
 16 38  1  0
 17 18  2  0
 17 39  1  0
 18 19  1  0
 19 24  1  0
 19 20  2  0
 20 21  1  0
 20 40  1  0
 21 22  1  0
 21 41  1  0
 21 42  1  0
 22 23  1  0
 22 43  1  0
 22 44  1  0
 23 24  1  0
 23 45  1  0
 23 46  1  0
 24 47  1  0
 24 48  1  0
 25 26  1  0
 27 28  1  0
 27 49  1  0
 28 50  1  0
M  CHG  1  25   1
M  END
>  <DOCK_score>  (1) 
-58.98893

>  <SMILES>  (1) 
Nc1ccc(-c2c[nH]c(Nc3cc(N)ccc3C3=CCCCC3)[nH+]2)cc1

$$$$
